
 OpenBabel03272508033D

 33 36  0  0  0  0  0  0  0  0999 V2000
   37.4460   26.4500   34.2820 C   0  0  0  0  0  0  0  0  0  0  0  0
   37.5680   26.8430   32.9780 C   0  0  0  0  0  0  0  0  0  0  0  0
   36.8460   28.0090   32.7460 C   0  0  0  0  0  0  0  0  0  0  0  0
   36.3000   28.2860   33.9540 N   0  0  0  0  0  0  0  0  0  0  0  0
   36.6490   27.3760   34.8530 N   0  0  0  0  0  0  0  0  0  0  0  0
   38.1340   26.3530   32.1880 H   0  0  0  0  0  0  0  0  0  0  0  0
   36.6830   28.6240   31.8950 H   0  0  0  0  0  0  0  0  0  0  0  0
   33.5620   28.5300   34.0590 H   0  0  0  0  0  0  0  0  0  0  0  0
   34.1070   29.3480   34.4140 N   0  0  0  0  0  0  0  0  0  0  0  0
   35.4520   29.3360   34.4090 C   0  0  0  0  0  0  0  0  0  0  0  0
   35.8170   30.5430   34.9330 N   0  0  0  0  0  0  0  0  0  0  0  0
   34.7070   31.2420   35.2350 C   0  0  0  0  0  0  0  0  0  0  0  0
   34.4760   32.5080   35.7850 C   0  0  0  0  0  0  0  0  0  0  0  0
   33.2060   32.9150   35.9620 N   0  0  0  0  0  0  0  0  0  0  0  0
   32.1280   32.1600   35.6330 C   0  0  0  0  0  0  0  0  0  0  0  0
   31.1050   32.4700   35.7670 H   0  0  0  0  0  0  0  0  0  0  0  0
   32.3380   30.9230   35.0970 N   0  0  0  0  0  0  0  0  0  0  0  0
   33.5990   30.4900   34.9090 C   0  0  0  0  0  0  0  0  0  0  0  0
   38.0420   25.2870   34.9290 C   0  0  0  0  0  0  0  0  0  0  0  0
   37.8650   25.1390   36.3210 C   0  0  0  0  0  0  0  0  0  0  0  0
   38.4260   24.0370   36.9490 C   0  0  0  0  0  0  0  0  0  0  0  0
   39.1210   23.1560   36.1750 N   0  0  0  0  0  0  0  0  0  0  0  0
   39.2810   23.3110   34.8430 C   0  0  0  0  0  0  0  0  0  0  0  0
   38.7350   24.3820   34.2370 N   0  0  0  0  0  0  0  0  0  0  0  0
   37.2980   25.8910   36.8430 H   0  0  0  0  0  0  0  0  0  0  0  0
   39.8420   22.5760   34.2910 H   0  0  0  0  0  0  0  0  0  0  0  0
   38.2540   23.8620   38.4110 C   0  0  0  0  0  0  0  0  0  0  0  0
   39.4610   23.4200   38.8880 F   0  0  0  0  0  0  0  0  0  0  0  0
   37.9310   25.0380   39.0610 F   0  0  0  0  0  0  0  0  0  0  0  0
   37.2920   22.9000   38.7020 F   0  0  0  0  0  0  0  0  0  0  0  0
   35.5920   33.3170   36.1360 N   0  0  0  0  0  0  0  0  0  0  0  0
   36.5140   33.2370   35.6820 H   0  0  0  0  0  0  0  0  0  0  0  0
   35.5720   34.0520   36.8770 H   0  0  0  0  0  0  0  0  0  0  0  0
  1  5  2  0  0  0  0
  1 19  1  0  0  0  0
  2  1  1  0  0  0  0
  3  2  2  0  0  0  0
  3  4  1  0  0  0  0
  4 10  1  0  0  0  0
  4  5  1  0  0  0  0
  6  2  1  0  0  0  0
  7  3  1  0  0  0  0
  8  9  1  0  0  0  0
  9 18  1  0  0  0  0
 10  9  1  0  0  0  0
 10 11  2  0  0  0  0
 11 12  1  0  0  0  0
 12 13  1  0  0  0  0
 13 14  2  0  0  0  0
 13 31  1  0  0  0  0
 15 16  1  0  0  0  0
 15 14  1  0  0  0  0
 17 15  2  0  0  0  0
 18 17  1  0  0  0  0
 18 12  2  0  0  0  0
 19 20  1  0  0  0  0
 20 25  1  0  0  0  0
 20 21  2  0  0  0  0
 21 27  1  0  0  0  0
 22 21  1  0  0  0  0
 23 22  2  0  0  0  0
 24 23  1  0  0  0  0
 24 19  2  0  0  0  0
 26 23  1  0  0  0  0
 27 30  1  0  0  0  0
 27 28  1  0  0  0  0
 27 29  1  0  0  0  0
 31 33  1  0  0  0  0
 32 31  1  0  0  0  0
M  END
>  <minimizedAffinity>
-6.58018017

$$$$

 OpenBabel03272508033D

 33 36  0  0  0  0  0  0  0  0999 V2000
   36.6700   27.5060   33.1180 C   0  0  0  0  0  0  0  0  0  0  0  0
   36.2860   26.4760   32.3030 C   0  0  0  0  0  0  0  0  0  0  0  0
   36.9060   25.2900   32.6850 C   0  0  0  0  0  0  0  0  0  0  0  0
   37.6610   25.6590   33.7470 N   0  0  0  0  0  0  0  0  0  0  0  0
   37.5250   26.9530   34.0010 N   0  0  0  0  0  0  0  0  0  0  0  0
   35.5990   26.5180   31.4610 H   0  0  0  0  0  0  0  0  0  0  0  0
   36.8800   24.2910   32.3260 H   0  0  0  0  0  0  0  0  0  0  0  0
   40.3580   25.1340   33.6020 H   0  0  0  0  0  0  0  0  0  0  0  0
   39.8600   24.7370   34.4310 N   0  0  0  0  0  0  0  0  0  0  0  0
   38.5400   24.9320   34.6020 C   0  0  0  0  0  0  0  0  0  0  0  0
   38.2350   24.2860   35.7650 N   0  0  0  0  0  0  0  0  0  0  0  0
   39.3560   23.7260   36.2590 C   0  0  0  0  0  0  0  0  0  0  0  0
   39.6390   22.9610   37.3970 C   0  0  0  0  0  0  0  0  0  0  0  0
   40.9030   22.5480   37.6010 N   0  0  0  0  0  0  0  0  0  0  0  0
   41.9260   22.8340   36.7580 C   0  0  0  0  0  0  0  0  0  0  0  0
   42.9430   22.5110   36.9060 H   0  0  0  0  0  0  0  0  0  0  0  0
   41.6650   23.5790   35.6450 N   0  0  0  0  0  0  0  0  0  0  0  0
   40.4090   24.0060   35.4150 C   0  0  0  0  0  0  0  0  0  0  0  0
   36.2530   28.9020   33.0560 C   0  0  0  0  0  0  0  0  0  0  0  0
   35.8560   29.5290   34.2560 C   0  0  0  0  0  0  0  0  0  0  0  0
   35.4580   30.8570   34.2130 C   0  0  0  0  0  0  0  0  0  0  0  0
   35.4740   31.4800   33.0010 N   0  0  0  0  0  0  0  0  0  0  0  0
   35.8560   30.8660   31.8600 C   0  0  0  0  0  0  0  0  0  0  0  0
   36.2420   29.5780   31.9070 N   0  0  0  0  0  0  0  0  0  0  0  0
   35.8800   28.9490   35.1630 H   0  0  0  0  0  0  0  0  0  0  0  0
   35.8450   31.4180   30.9360 H   0  0  0  0  0  0  0  0  0  0  0  0
   35.0370   31.5360   35.4610 C   0  0  0  0  0  0  0  0  0  0  0  0
   36.0400   31.3190   36.3720 F   0  0  0  0  0  0  0  0  0  0  0  0
   34.8770   32.9000   35.3060 F   0  0  0  0  0  0  0  0  0  0  0  0
   33.8610   30.9930   35.9700 F   0  0  0  0  0  0  0  0  0  0  0  0
   38.5800   22.6490   38.2940 N   0  0  0  0  0  0  0  0  0  0  0  0
   37.5920   22.5920   38.0060 H   0  0  0  0  0  0  0  0  0  0  0  0
   38.7130   22.4560   39.3110 H   0  0  0  0  0  0  0  0  0  0  0  0
  1  5  2  0  0  0  0
  2  3  2  0  0  0  0
  2  1  1  0  0  0  0
  3  4  1  0  0  0  0
  4  5  1  0  0  0  0
  4 10  1  0  0  0  0
  6  2  1  0  0  0  0
  7  3  1  0  0  0  0
  8  9  1  0  0  0  0
  9 10  1  0  0  0  0
  9 18  1  0  0  0  0
 10 11  2  0  0  0  0
 11 12  1  0  0  0  0
 12 13  1  0  0  0  0
 13 14  2  0  0  0  0
 13 31  1  0  0  0  0
 15 16  1  0  0  0  0
 15 14  1  0  0  0  0
 17 15  2  0  0  0  0
 18 17  1  0  0  0  0
 18 12  2  0  0  0  0
 19  1  1  0  0  0  0
 19 20  1  0  0  0  0
 20 25  1  0  0  0  0
 21 20  2  0  0  0  0
 21 27  1  0  0  0  0
 22 21  1  0  0  0  0
 23 24  1  0  0  0  0
 23 22  2  0  0  0  0
 24 19  2  0  0  0  0
 26 23  1  0  0  0  0
 27 30  1  0  0  0  0
 27 28  1  0  0  0  0
 29 27  1  0  0  0  0
 31 33  1  0  0  0  0
 32 31  1  0  0  0  0
M  END
>  <minimizedAffinity>
-6.20569468

$$$$

 OpenBabel03272508033D

 33 36  0  0  0  0  0  0  0  0999 V2000
   37.8410   24.4830   33.5680 C   0  0  0  0  0  0  0  0  0  0  0  0
   37.2170   23.8340   32.5390 C   0  0  0  0  0  0  0  0  0  0  0  0
   36.6180   24.7440   31.6740 C   0  0  0  0  0  0  0  0  0  0  0  0
   36.9120   25.9440   32.2280 N   0  0  0  0  0  0  0  0  0  0  0  0
   37.6270   25.7940   33.3350 N   0  0  0  0  0  0  0  0  0  0  0  0
   37.1620   22.7600   32.3690 H   0  0  0  0  0  0  0  0  0  0  0  0
   36.0520   24.6550   30.7790 H   0  0  0  0  0  0  0  0  0  0  0  0
   34.7940   27.5890   32.8380 H   0  0  0  0  0  0  0  0  0  0  0  0
   35.5230   27.9980   32.2110 N   0  0  0  0  0  0  0  0  0  0  0  0
   36.6020   27.2820   31.8480 C   0  0  0  0  0  0  0  0  0  0  0  0
   37.3240   28.1150   31.0430 N   0  0  0  0  0  0  0  0  0  0  0  0
   36.6780   29.2920   30.9410 C   0  0  0  0  0  0  0  0  0  0  0  0
   36.9420   30.4880   30.2660 C   0  0  0  0  0  0  0  0  0  0  0  0
   36.0630   31.5020   30.3780 N   0  0  0  0  0  0  0  0  0  0  0  0
   34.9270   31.4260   31.1150 C   0  0  0  0  0  0  0  0  0  0  0  0
   34.2130   32.2260   31.2150 H   0  0  0  0  0  0  0  0  0  0  0  0
   34.6580   30.2650   31.7790 N   0  0  0  0  0  0  0  0  0  0  0  0
   35.5190   29.2350   31.6850 C   0  0  0  0  0  0  0  0  0  0  0  0
   38.5810   23.9000   34.6810 C   0  0  0  0  0  0  0  0  0  0  0  0
   38.1180   24.1520   35.9900 C   0  0  0  0  0  0  0  0  0  0  0  0
   38.8120   23.6030   37.0580 C   0  0  0  0  0  0  0  0  0  0  0  0
   39.9100   22.8470   36.7740 N   0  0  0  0  0  0  0  0  0  0  0  0
   40.3410   22.6150   35.5150 C   0  0  0  0  0  0  0  0  0  0  0  0
   39.6640   23.1490   34.4820 N   0  0  0  0  0  0  0  0  0  0  0  0
   37.2390   24.7630   36.1080 H   0  0  0  0  0  0  0  0  0  0  0  0
   41.2170   22.0070   35.3620 H   0  0  0  0  0  0  0  0  0  0  0  0
   38.3440   23.8550   38.4410 C   0  0  0  0  0  0  0  0  0  0  0  0
   37.3350   22.9560   38.6740 F   0  0  0  0  0  0  0  0  0  0  0  0
   39.3310   23.6580   39.3890 F   0  0  0  0  0  0  0  0  0  0  0  0
   37.8260   25.1380   38.5830 F   0  0  0  0  0  0  0  0  0  0  0  0
   38.1270   30.5900   29.4860 N   0  0  0  0  0  0  0  0  0  0  0  0
   38.5960   29.7760   29.0620 H   0  0  0  0  0  0  0  0  0  0  0  0
   38.6180   31.4880   29.2820 H   0  0  0  0  0  0  0  0  0  0  0  0
  1 19  1  0  0  0  0
  2  1  1  0  0  0  0
  3  4  1  0  0  0  0
  3  2  2  0  0  0  0
  4  5  1  0  0  0  0
  5  1  2  0  0  0  0
  6  2  1  0  0  0  0
  7  3  1  0  0  0  0
  9  8  1  0  0  0  0
 10  9  1  0  0  0  0
 10  4  1  0  0  0  0
 11 10  2  0  0  0  0
 12 11  1  0  0  0  0
 12 18  1  0  0  0  0
 13 14  1  0  0  0  0
 13 12  2  0  0  0  0
 14 15  2  0  0  0  0
 15 16  1  0  0  0  0
 15 17  1  0  0  0  0
 18 17  2  0  0  0  0
 18  9  1  0  0  0  0
 19 20  1  0  0  0  0
 20 25  1  0  0  0  0
 20 21  2  0  0  0  0
 21 27  1  0  0  0  0
 22 21  1  0  0  0  0
 23 22  2  0  0  0  0
 24 19  2  0  0  0  0
 24 23  1  0  0  0  0
 26 23  1  0  0  0  0
 27 30  1  0  0  0  0
 27 28  1  0  0  0  0
 27 29  1  0  0  0  0
 31 13  1  0  0  0  0
 32 31  1  0  0  0  0
 33 31  1  0  0  0  0
M  END
>  <minimizedAffinity>
-6.14681911

$$$$

 OpenBabel03272508033D

 33 36  0  0  0  0  0  0  0  0999 V2000
   36.6060   26.4680   32.0810 C   0  0  0  0  0  0  0  0  0  0  0  0
   36.1930   25.2860   31.5300 C   0  0  0  0  0  0  0  0  0  0  0  0
   36.7590   24.2060   32.2000 C   0  0  0  0  0  0  0  0  0  0  0  0
   37.5130   24.7920   33.1600 N   0  0  0  0  0  0  0  0  0  0  0  0
   37.4250   26.1140   33.0920 N   0  0  0  0  0  0  0  0  0  0  0  0
   35.5200   25.1480   30.6860 H   0  0  0  0  0  0  0  0  0  0  0  0
   36.6970   23.1510   32.0910 H   0  0  0  0  0  0  0  0  0  0  0  0
   40.1880   24.1510   33.2100 H   0  0  0  0  0  0  0  0  0  0  0  0
   39.6620   23.9840   34.0970 N   0  0  0  0  0  0  0  0  0  0  0  0
   38.3490   24.2620   34.1850 C   0  0  0  0  0  0  0  0  0  0  0  0
   38.0010   23.9260   35.4610 N   0  0  0  0  0  0  0  0  0  0  0  0
   39.0910   23.4620   36.1030 C   0  0  0  0  0  0  0  0  0  0  0  0
   39.3250   22.9850   37.3970 C   0  0  0  0  0  0  0  0  0  0  0  0
   40.5690   22.5880   37.7250 N   0  0  0  0  0  0  0  0  0  0  0  0
   41.6150   22.6250   36.8620 C   0  0  0  0  0  0  0  0  0  0  0  0
   42.6160   22.3110   37.1070 H   0  0  0  0  0  0  0  0  0  0  0  0
   41.4000   23.0890   35.5970 N   0  0  0  0  0  0  0  0  0  0  0  0
   40.1670   23.4920   35.2420 C   0  0  0  0  0  0  0  0  0  0  0  0
   36.2470   27.8220   31.6760 C   0  0  0  0  0  0  0  0  0  0  0  0
   36.9590   28.4040   30.6060 C   0  0  0  0  0  0  0  0  0  0  0  0
   36.6280   29.6920   30.2100 C   0  0  0  0  0  0  0  0  0  0  0  0
   35.6260   30.3210   30.8870 N   0  0  0  0  0  0  0  0  0  0  0  0
   34.9540   29.7490   31.9110 C   0  0  0  0  0  0  0  0  0  0  0  0
   35.2780   28.5000   32.2910 N   0  0  0  0  0  0  0  0  0  0  0  0
   37.7330   27.8230   30.1360 H   0  0  0  0  0  0  0  0  0  0  0  0
   34.1720   30.3040   32.4020 H   0  0  0  0  0  0  0  0  0  0  0  0
   37.3610   30.3240   29.0890 C   0  0  0  0  0  0  0  0  0  0  0  0
   38.5630   30.7380   29.6030 F   0  0  0  0  0  0  0  0  0  0  0  0
   37.6100   29.4510   28.0460 F   0  0  0  0  0  0  0  0  0  0  0  0
   36.6890   31.4390   28.6000 F   0  0  0  0  0  0  0  0  0  0  0  0
   38.2420   22.9370   38.3170 N   0  0  0  0  0  0  0  0  0  0  0  0
   37.2570   22.8470   38.0280 H   0  0  0  0  0  0  0  0  0  0  0  0
   38.3530   22.9890   39.3540 H   0  0  0  0  0  0  0  0  0  0  0  0
  1  5  2  0  0  0  0
  2  1  1  0  0  0  0
  2  3  2  0  0  0  0
  3  4  1  0  0  0  0
  4 10  1  0  0  0  0
  5  4  1  0  0  0  0
  6  2  1  0  0  0  0
  7  3  1  0  0  0  0
  8  9  1  0  0  0  0
  9 10  1  0  0  0  0
  9 18  1  0  0  0  0
 10 11  2  0  0  0  0
 11 12  1  0  0  0  0
 12 13  1  0  0  0  0
 13 14  2  0  0  0  0
 13 31  1  0  0  0  0
 15 16  1  0  0  0  0
 15 14  1  0  0  0  0
 17 15  2  0  0  0  0
 18 17  1  0  0  0  0
 18 12  2  0  0  0  0
 19  1  1  0  0  0  0
 19 24  1  0  0  0  0
 20 19  2  0  0  0  0
 21 20  1  0  0  0  0
 21 22  2  0  0  0  0
 22 23  1  0  0  0  0
 23 24  2  0  0  0  0
 23 26  1  0  0  0  0
 25 20  1  0  0  0  0
 27 28  1  0  0  0  0
 27 21  1  0  0  0  0
 29 27  1  0  0  0  0
 30 27  1  0  0  0  0
 31 33  1  0  0  0  0
 32 31  1  0  0  0  0
M  END
>  <minimizedAffinity>
-6.09775639

$$$$

 OpenBabel03272508033D

 33 36  0  0  0  0  0  0  0  0999 V2000
   36.8030   27.4650   32.2830 C   0  0  0  0  0  0  0  0  0  0  0  0
   36.9330   28.4970   31.3940 C   0  0  0  0  0  0  0  0  0  0  0  0
   36.2050   29.6050   31.8170 C   0  0  0  0  0  0  0  0  0  0  0  0
   35.6480   29.1900   32.9790 N   0  0  0  0  0  0  0  0  0  0  0  0
   35.9960   27.9400   33.2530 N   0  0  0  0  0  0  0  0  0  0  0  0
   37.5080   28.5080   30.4710 H   0  0  0  0  0  0  0  0  0  0  0  0
   36.0460   30.5800   31.4270 H   0  0  0  0  0  0  0  0  0  0  0  0
   32.9080   29.3380   33.1720 H   0  0  0  0  0  0  0  0  0  0  0  0
   33.4450   29.8380   33.9160 N   0  0  0  0  0  0  0  0  0  0  0  0
   34.7900   29.8310   33.9190 C   0  0  0  0  0  0  0  0  0  0  0  0
   35.1440   30.5690   35.0120 N   0  0  0  0  0  0  0  0  0  0  0  0
   34.0270   30.9950   35.6310 C   0  0  0  0  0  0  0  0  0  0  0  0
   33.7840   31.7690   36.7720 C   0  0  0  0  0  0  0  0  0  0  0  0
   32.5100   32.0160   37.1270 N   0  0  0  0  0  0  0  0  0  0  0  0
   31.4390   31.5540   36.4340 C   0  0  0  0  0  0  0  0  0  0  0  0
   30.4140   31.7430   36.7030 H   0  0  0  0  0  0  0  0  0  0  0  0
   31.6620   30.7980   35.3190 N   0  0  0  0  0  0  0  0  0  0  0  0
   32.9260   30.5350   34.9410 C   0  0  0  0  0  0  0  0  0  0  0  0
   37.4000   26.1370   32.2110 C   0  0  0  0  0  0  0  0  0  0  0  0
   36.5620   25.0500   31.8860 C   0  0  0  0  0  0  0  0  0  0  0  0
   37.1170   23.7810   31.8130 C   0  0  0  0  0  0  0  0  0  0  0  0
   38.4520   23.6620   32.0630 N   0  0  0  0  0  0  0  0  0  0  0  0
   39.2420   24.7130   32.3730 C   0  0  0  0  0  0  0  0  0  0  0  0
   38.6990   25.9420   32.4420 N   0  0  0  0  0  0  0  0  0  0  0  0
   35.5200   25.2490   31.7060 H   0  0  0  0  0  0  0  0  0  0  0  0
   40.2900   24.5480   32.5580 H   0  0  0  0  0  0  0  0  0  0  0  0
   36.2560   22.6230   31.4750 C   0  0  0  0  0  0  0  0  0  0  0  0
   35.2440   23.1160   30.6910 F   0  0  0  0  0  0  0  0  0  0  0  0
   36.9240   21.6440   30.7620 F   0  0  0  0  0  0  0  0  0  0  0  0
   35.6900   22.0550   32.6110 F   0  0  0  0  0  0  0  0  0  0  0  0
   34.8930   32.2640   37.5130 N   0  0  0  0  0  0  0  0  0  0  0  0
   35.8180   32.4400   37.0970 H   0  0  0  0  0  0  0  0  0  0  0  0
   34.8620   32.4870   38.5330 H   0  0  0  0  0  0  0  0  0  0  0  0
  1  5  2  0  0  0  0
  2  3  2  0  0  0  0
  2  1  1  0  0  0  0
  3  4  1  0  0  0  0
  4  5  1  0  0  0  0
  4 10  1  0  0  0  0
  6  2  1  0  0  0  0
  7  3  1  0  0  0  0
  8  9  1  0  0  0  0
  9 10  1  0  0  0  0
  9 18  1  0  0  0  0
 10 11  2  0  0  0  0
 11 12  1  0  0  0  0
 12 13  1  0  0  0  0
 13 14  2  0  0  0  0
 13 31  1  0  0  0  0
 15 16  1  0  0  0  0
 15 14  1  0  0  0  0
 17 15  2  0  0  0  0
 18 17  1  0  0  0  0
 18 12  2  0  0  0  0
 19  1  1  0  0  0  0
 19 24  1  0  0  0  0
 20 19  2  0  0  0  0
 21 20  1  0  0  0  0
 21 22  2  0  0  0  0
 22 23  1  0  0  0  0
 23 24  2  0  0  0  0
 23 26  1  0  0  0  0
 25 20  1  0  0  0  0
 27 21  1  0  0  0  0
 27 30  1  0  0  0  0
 28 27  1  0  0  0  0
 29 27  1  0  0  0  0
 31 33  1  0  0  0  0
 32 31  1  0  0  0  0
M  END
>  <minimizedAffinity>
-5.88461161

$$$$

 OpenBabel03272508033D

 33 36  0  0  0  0  0  0  0  0999 V2000
   39.4900   25.3690   34.0590 C   0  0  0  0  0  0  0  0  0  0  0  0
   40.2190   26.4370   34.5070 C   0  0  0  0  0  0  0  0  0  0  0  0
   40.6450   27.2240   33.4410 C   0  0  0  0  0  0  0  0  0  0  0  0
   40.1420   26.5850   32.3590 N   0  0  0  0  0  0  0  0  0  0  0  0
   39.4670   25.5010   32.7170 N   0  0  0  0  0  0  0  0  0  0  0  0
   40.4640   26.6870   35.5370 H   0  0  0  0  0  0  0  0  0  0  0  0
   41.2160   28.1160   33.3600 H   0  0  0  0  0  0  0  0  0  0  0  0
   41.9340   25.8270   30.4140 H   0  0  0  0  0  0  0  0  0  0  0  0
   41.1430   26.4300   30.0950 N   0  0  0  0  0  0  0  0  0  0  0  0
   40.2080   26.8590   30.9620 C   0  0  0  0  0  0  0  0  0  0  0  0
   39.3480   27.6080   30.2120 N   0  0  0  0  0  0  0  0  0  0  0  0
   39.7740   27.6140   28.9340 C   0  0  0  0  0  0  0  0  0  0  0  0
   39.3010   28.2000   27.7560 C   0  0  0  0  0  0  0  0  0  0  0  0
   39.9850   28.0020   26.6140 N   0  0  0  0  0  0  0  0  0  0  0  0
   41.1170   27.2590   26.5420 C   0  0  0  0  0  0  0  0  0  0  0  0
   41.6770   27.0900   25.6380 H   0  0  0  0  0  0  0  0  0  0  0  0
   41.5900   26.6800   27.6840 N   0  0  0  0  0  0  0  0  0  0  0  0
   40.9260   26.8620   28.8410 C   0  0  0  0  0  0  0  0  0  0  0  0
   38.8670   24.3130   34.8470 C   0  0  0  0  0  0  0  0  0  0  0  0
   38.8070   24.4780   36.2470 C   0  0  0  0  0  0  0  0  0  0  0  0
   38.2170   23.4800   37.0090 C   0  0  0  0  0  0  0  0  0  0  0  0
   37.7280   22.3910   36.3520 N   0  0  0  0  0  0  0  0  0  0  0  0
   37.7930   22.2470   35.0100 C   0  0  0  0  0  0  0  0  0  0  0  0
   38.3660   23.2180   34.2740 N   0  0  0  0  0  0  0  0  0  0  0  0
   39.2220   25.3760   36.6700 H   0  0  0  0  0  0  0  0  0  0  0  0
   37.3870   21.3600   34.5550 H   0  0  0  0  0  0  0  0  0  0  0  0
   38.1420   23.6320   38.4810 C   0  0  0  0  0  0  0  0  0  0  0  0
   39.4120   23.4200   38.9530 F   0  0  0  0  0  0  0  0  0  0  0  0
   37.7350   24.8930   38.8740 F   0  0  0  0  0  0  0  0  0  0  0  0
   37.3010   22.6820   39.0530 F   0  0  0  0  0  0  0  0  0  0  0  0
   38.1150   28.9840   27.8080 N   0  0  0  0  0  0  0  0  0  0  0  0
   37.7980   29.4750   28.6570 H   0  0  0  0  0  0  0  0  0  0  0  0
   37.4720   29.1270   26.9980 H   0  0  0  0  0  0  0  0  0  0  0  0
  1  2  1  0  0  0  0
  1 19  1  0  0  0  0
  2  6  1  0  0  0  0
  3  2  2  0  0  0  0
  4  5  1  0  0  0  0
  4  3  1  0  0  0  0
  5  1  2  0  0  0  0
  7  3  1  0  0  0  0
  9  8  1  0  0  0  0
  9 10  1  0  0  0  0
 10  4  1  0  0  0  0
 11 10  2  0  0  0  0
 12 11  1  0  0  0  0
 13 31  1  0  0  0  0
 13 12  2  0  0  0  0
 14 13  1  0  0  0  0
 15 14  2  0  0  0  0
 15 17  1  0  0  0  0
 16 15  1  0  0  0  0
 17 18  2  0  0  0  0
 18 12  1  0  0  0  0
 18  9  1  0  0  0  0
 19 20  1  0  0  0  0
 20 25  1  0  0  0  0
 20 21  2  0  0  0  0
 21 27  1  0  0  0  0
 22 21  1  0  0  0  0
 23 22  2  0  0  0  0
 24 19  2  0  0  0  0
 24 23  1  0  0  0  0
 26 23  1  0  0  0  0
 27 29  1  0  0  0  0
 27 28  1  0  0  0  0
 27 30  1  0  0  0  0
 31 32  1  0  0  0  0
 33 31  1  0  0  0  0
M  END
>  <minimizedAffinity>
-5.8446517

$$$$

 OpenBabel03272508033D

 33 36  0  0  0  0  0  0  0  0999 V2000
   37.1380   27.2280   33.2170 C   0  0  0  0  0  0  0  0  0  0  0  0
   37.1730   28.0780   32.1460 C   0  0  0  0  0  0  0  0  0  0  0  0
   36.3530   29.1800   32.3650 C   0  0  0  0  0  0  0  0  0  0  0  0
   35.8380   28.9490   33.5960 N   0  0  0  0  0  0  0  0  0  0  0  0
   36.2960   27.8090   34.0960 N   0  0  0  0  0  0  0  0  0  0  0  0
   37.7420   27.9610   31.2260 H   0  0  0  0  0  0  0  0  0  0  0  0
   36.1070   30.0450   31.8000 H   0  0  0  0  0  0  0  0  0  0  0  0
   33.0970   28.8960   33.8140 H   0  0  0  0  0  0  0  0  0  0  0  0
   33.5910   29.5730   34.4380 N   0  0  0  0  0  0  0  0  0  0  0  0
   34.9310   29.6830   34.4140 C   0  0  0  0  0  0  0  0  0  0  0  0
   35.2240   30.6440   35.3390 N   0  0  0  0  0  0  0  0  0  0  0  0
   34.0760   31.0840   35.8890 C   0  0  0  0  0  0  0  0  0  0  0  0
   33.7710   32.0380   36.8660 C   0  0  0  0  0  0  0  0  0  0  0  0
   32.4810   32.2390   37.1940 N   0  0  0  0  0  0  0  0  0  0  0  0
   31.4520   31.5630   36.6240 C   0  0  0  0  0  0  0  0  0  0  0  0
   30.4150   31.7120   36.8730 H   0  0  0  0  0  0  0  0  0  0  0  0
   31.7360   30.6290   35.6690 N   0  0  0  0  0  0  0  0  0  0  0  0
   33.0170   30.4080   35.3220 C   0  0  0  0  0  0  0  0  0  0  0  0
   37.8490   25.9670   33.3870 C   0  0  0  0  0  0  0  0  0  0  0  0
   38.0060   25.4650   34.6960 C   0  0  0  0  0  0  0  0  0  0  0  0
   38.6800   24.2660   34.8720 C   0  0  0  0  0  0  0  0  0  0  0  0
   39.1550   23.6400   33.7580 N   0  0  0  0  0  0  0  0  0  0  0  0
   38.9960   24.1340   32.5100 C   0  0  0  0  0  0  0  0  0  0  0  0
   38.3410   25.2970   32.3440 N   0  0  0  0  0  0  0  0  0  0  0  0
   37.5930   26.0350   35.5110 H   0  0  0  0  0  0  0  0  0  0  0  0
   39.3970   23.5870   31.6730 H   0  0  0  0  0  0  0  0  0  0  0  0
   38.8580   23.7190   36.2380 C   0  0  0  0  0  0  0  0  0  0  0  0
   38.4060   24.6870   37.0990 F   0  0  0  0  0  0  0  0  0  0  0  0
   38.1280   22.5650   36.4570 F   0  0  0  0  0  0  0  0  0  0  0  0
   40.1970   23.4740   36.5230 F   0  0  0  0  0  0  0  0  0  0  0  0
   34.8340   32.7580   37.4760 N   0  0  0  0  0  0  0  0  0  0  0  0
   35.7390   32.9310   37.0150 H   0  0  0  0  0  0  0  0  0  0  0  0
   34.7880   33.1690   38.4350 H   0  0  0  0  0  0  0  0  0  0  0  0
  1 19  1  0  0  0  0
  1  5  2  0  0  0  0
  2  3  2  0  0  0  0
  2  1  1  0  0  0  0
  3  4  1  0  0  0  0
  4  5  1  0  0  0  0
  4 10  1  0  0  0  0
  6  2  1  0  0  0  0
  7  3  1  0  0  0  0
  8  9  1  0  0  0  0
  9 18  1  0  0  0  0
 10  9  1  0  0  0  0
 10 11  2  0  0  0  0
 11 12  1  0  0  0  0
 12 13  1  0  0  0  0
 13 14  2  0  0  0  0
 13 31  1  0  0  0  0
 15 16  1  0  0  0  0
 15 14  1  0  0  0  0
 17 15  2  0  0  0  0
 18 17  1  0  0  0  0
 18 12  2  0  0  0  0
 19 20  1  0  0  0  0
 20 21  2  0  0  0  0
 20 25  1  0  0  0  0
 21 27  1  0  0  0  0
 22 21  1  0  0  0  0
 23 22  2  0  0  0  0
 24 23  1  0  0  0  0
 24 19  2  0  0  0  0
 26 23  1  0  0  0  0
 27 29  1  0  0  0  0
 27 30  1  0  0  0  0
 27 28  1  0  0  0  0
 31 33  1  0  0  0  0
 32 31  1  0  0  0  0
M  END
>  <minimizedAffinity>
-5.8160305

$$$$

 OpenBabel03272508033D

 33 36  0  0  0  0  0  0  0  0999 V2000
   37.1680   25.6950   31.9240 C   0  0  0  0  0  0  0  0  0  0  0  0
   36.4010   24.5900   31.6720 C   0  0  0  0  0  0  0  0  0  0  0  0
   36.8250   23.5110   32.4410 C   0  0  0  0  0  0  0  0  0  0  0  0
   37.8600   24.0190   33.1500 N   0  0  0  0  0  0  0  0  0  0  0  0
   38.0630   25.2950   32.8500 N   0  0  0  0  0  0  0  0  0  0  0  0
   35.5660   24.5080   30.9780 H   0  0  0  0  0  0  0  0  0  0  0  0
   36.5070   22.5030   32.5420 H   0  0  0  0  0  0  0  0  0  0  0  0
   40.2800   22.7310   32.9200 H   0  0  0  0  0  0  0  0  0  0  0  0
   39.9090   22.8340   33.8920 N   0  0  0  0  0  0  0  0  0  0  0  0
   38.7340   23.4480   34.1200 C   0  0  0  0  0  0  0  0  0  0  0  0
   38.5690   23.4020   35.4740 N   0  0  0  0  0  0  0  0  0  0  0  0
   39.6270   22.7730   36.0220 C   0  0  0  0  0  0  0  0  0  0  0  0
   39.9900   22.4450   37.3330 C   0  0  0  0  0  0  0  0  0  0  0  0
   41.1500   21.7960   37.5400 N   0  0  0  0  0  0  0  0  0  0  0  0
   41.9940   21.4390   36.5410 C   0  0  0  0  0  0  0  0  0  0  0  0
   42.9260   20.9190   36.6880 H   0  0  0  0  0  0  0  0  0  0  0  0
   41.6530   21.7530   35.2570 N   0  0  0  0  0  0  0  0  0  0  0  0
   40.4980   22.4020   35.0200 C   0  0  0  0  0  0  0  0  0  0  0  0
   37.0550   27.0220   31.3300 C   0  0  0  0  0  0  0  0  0  0  0  0
   36.0900   27.9050   31.8590 C   0  0  0  0  0  0  0  0  0  0  0  0
   35.9720   29.1710   31.3050 C   0  0  0  0  0  0  0  0  0  0  0  0
   36.8020   29.4860   30.2710 N   0  0  0  0  0  0  0  0  0  0  0  0
   37.7220   28.6290   29.7750 C   0  0  0  0  0  0  0  0  0  0  0  0
   37.8340   27.4020   30.3170 N   0  0  0  0  0  0  0  0  0  0  0  0
   35.4820   27.5600   32.6780 H   0  0  0  0  0  0  0  0  0  0  0  0
   38.3470   28.9430   28.9570 H   0  0  0  0  0  0  0  0  0  0  0  0
   34.9650   30.1150   31.8440 C   0  0  0  0  0  0  0  0  0  0  0  0
   34.0030   29.3460   32.4470 F   0  0  0  0  0  0  0  0  0  0  0  0
   35.4880   30.9790   32.7880 F   0  0  0  0  0  0  0  0  0  0  0  0
   34.3610   30.8550   30.8320 F   0  0  0  0  0  0  0  0  0  0  0  0
   39.1190   22.8100   38.3970 N   0  0  0  0  0  0  0  0  0  0  0  0
   38.1030   22.9340   38.2800 H   0  0  0  0  0  0  0  0  0  0  0  0
   39.4340   22.9830   39.3770 H   0  0  0  0  0  0  0  0  0  0  0  0
  1  5  2  0  0  0  0
  2  1  1  0  0  0  0
  2  3  2  0  0  0  0
  3  7  1  0  0  0  0
  3  4  1  0  0  0  0
  4 10  1  0  0  0  0
  5  4  1  0  0  0  0
  6  2  1  0  0  0  0
  8  9  1  0  0  0  0
  9 10  1  0  0  0  0
  9 18  1  0  0  0  0
 10 11  2  0  0  0  0
 11 12  1  0  0  0  0
 12 13  1  0  0  0  0
 13 14  2  0  0  0  0
 13 31  1  0  0  0  0
 15 16  1  0  0  0  0
 15 14  1  0  0  0  0
 17 15  2  0  0  0  0
 18 17  1  0  0  0  0
 18 12  2  0  0  0  0
 19 20  1  0  0  0  0
 19  1  1  0  0  0  0
 20 25  1  0  0  0  0
 21 27  1  0  0  0  0
 21 20  2  0  0  0  0
 22 21  1  0  0  0  0
 23 22  2  0  0  0  0
 23 24  1  0  0  0  0
 24 19  2  0  0  0  0
 26 23  1  0  0  0  0
 27 28  1  0  0  0  0
 27 29  1  0  0  0  0
 30 27  1  0  0  0  0
 31 33  1  0  0  0  0
 32 31  1  0  0  0  0
M  END
>  <minimizedAffinity>
-5.77961731

$$$$

 OpenBabel03272508033D

 33 36  0  0  0  0  0  0  0  0999 V2000
   35.8970   28.4240   33.8590 C   0  0  0  0  0  0  0  0  0  0  0  0
   35.9670   28.0090   32.5580 C   0  0  0  0  0  0  0  0  0  0  0  0
   36.8600   26.9510   32.4260 C   0  0  0  0  0  0  0  0  0  0  0  0
   37.3080   26.7590   33.6900 N   0  0  0  0  0  0  0  0  0  0  0  0
   36.7460   27.6190   34.5290 N   0  0  0  0  0  0  0  0  0  0  0  0
   35.4260   28.4120   31.7040 H   0  0  0  0  0  0  0  0  0  0  0  0
   37.1930   26.3580   31.6100 H   0  0  0  0  0  0  0  0  0  0  0  0
   40.0280   26.8900   34.0830 H   0  0  0  0  0  0  0  0  0  0  0  0
   39.5630   26.0080   34.3970 N   0  0  0  0  0  0  0  0  0  0  0  0
   38.2370   25.8370   34.2520 C   0  0  0  0  0  0  0  0  0  0  0  0
   37.9840   24.5950   34.7600 N   0  0  0  0  0  0  0  0  0  0  0  0
   39.1400   24.0550   35.1910 C   0  0  0  0  0  0  0  0  0  0  0  0
   39.4800   22.8360   35.7880 C   0  0  0  0  0  0  0  0  0  0  0  0
   40.7680   22.6070   36.1030 N   0  0  0  0  0  0  0  0  0  0  0  0
   41.7630   23.4990   35.8730 C   0  0  0  0  0  0  0  0  0  0  0  0
   42.7980   23.3320   36.1190 H   0  0  0  0  0  0  0  0  0  0  0  0
   41.4450   24.6930   35.2920 N   0  0  0  0  0  0  0  0  0  0  0  0
   40.1650   24.9490   34.9650 C   0  0  0  0  0  0  0  0  0  0  0  0
   35.0850   29.5000   34.4170 C   0  0  0  0  0  0  0  0  0  0  0  0
   35.7400   30.6810   34.8260 C   0  0  0  0  0  0  0  0  0  0  0  0
   34.9800   31.7120   35.3570 C   0  0  0  0  0  0  0  0  0  0  0  0
   33.6340   31.5190   35.4530 N   0  0  0  0  0  0  0  0  0  0  0  0
   33.0220   30.3810   35.0570 C   0  0  0  0  0  0  0  0  0  0  0  0
   33.7630   29.3830   34.5410 N   0  0  0  0  0  0  0  0  0  0  0  0
   36.8080   30.7350   34.7070 H   0  0  0  0  0  0  0  0  0  0  0  0
   31.9530   30.2950   35.1610 H   0  0  0  0  0  0  0  0  0  0  0  0
   35.6460   32.9620   35.7940 C   0  0  0  0  0  0  0  0  0  0  0  0
   35.2820   33.1530   37.1020 F   0  0  0  0  0  0  0  0  0  0  0  0
   37.0250   32.8890   35.7310 F   0  0  0  0  0  0  0  0  0  0  0  0
   35.2130   34.0590   35.0570 F   0  0  0  0  0  0  0  0  0  0  0  0
   38.4520   21.8850   36.0380 N   0  0  0  0  0  0  0  0  0  0  0  0
   37.5810   21.8360   35.4900 H   0  0  0  0  0  0  0  0  0  0  0  0
   38.4930   21.1640   36.7920 H   0  0  0  0  0  0  0  0  0  0  0  0
  1 19  1  0  0  0  0
  1  5  2  0  0  0  0
  2  1  1  0  0  0  0
  3  2  2  0  0  0  0
  3  4  1  0  0  0  0
  4 10  1  0  0  0  0
  4  5  1  0  0  0  0
  6  2  1  0  0  0  0
  7  3  1  0  0  0  0
  8  9  1  0  0  0  0
  9 18  1  0  0  0  0
 10  9  1  0  0  0  0
 10 11  2  0  0  0  0
 11 12  1  0  0  0  0
 12 13  1  0  0  0  0
 13 31  1  0  0  0  0
 13 14  2  0  0  0  0
 15 14  1  0  0  0  0
 15 16  1  0  0  0  0
 17 15  2  0  0  0  0
 18 12  2  0  0  0  0
 18 17  1  0  0  0  0
 19 24  2  0  0  0  0
 19 20  1  0  0  0  0
 20 21  2  0  0  0  0
 21 22  1  0  0  0  0
 21 27  1  0  0  0  0
 23 26  1  0  0  0  0
 23 22  2  0  0  0  0
 24 23  1  0  0  0  0
 25 20  1  0  0  0  0
 27 28  1  0  0  0  0
 29 27  1  0  0  0  0
 30 27  1  0  0  0  0
 31 33  1  0  0  0  0
 32 31  1  0  0  0  0
M  END
>  <minimizedAffinity>
-5.72056389

$$$$
