
 OpenBabel03272509183D

 38 41  0  0  0  0  0  0  0  0999 V2000
   38.1110   31.4150   47.8800 C   0  0  0  0  0  0  0  0  0  0  0  0
   37.0200   31.3400   48.7390 C   0  0  0  0  0  0  0  0  0  0  0  0
   36.9290   32.4000   49.6420 C   0  0  0  0  0  0  0  0  0  0  0  0
   37.8690   33.4290   49.6560 C   0  0  0  0  0  0  0  0  0  0  0  0
   38.9330   33.4130   48.7490 C   0  0  0  0  0  0  0  0  0  0  0  0
   39.0490   32.3800   47.8450 C   0  0  0  0  0  0  0  0  0  0  0  0
   36.1140   32.4310   50.3520 H   0  0  0  0  0  0  0  0  0  0  0  0
   37.7610   34.2380   50.3780 H   0  0  0  0  0  0  0  0  0  0  0  0
   39.6480   34.2150   48.7750 H   0  0  0  0  0  0  0  0  0  0  0  0
   35.0000   30.3190   47.7990 C   0  0  0  0  0  0  0  0  0  0  0  0
   36.0580   30.2850   48.7240 C   0  0  0  0  0  0  0  0  0  0  0  0
   36.1180   29.2030   49.6000 C   0  0  0  0  0  0  0  0  0  0  0  0
   35.1520   28.2450   49.5090 N   0  0  0  0  0  0  0  0  0  0  0  0
   34.1420   28.3120   48.5980 C   0  0  0  0  0  0  0  0  0  0  0  0
   34.0710   29.3480   47.7500 N   0  0  0  0  0  0  0  0  0  0  0  0
   34.9250   31.1510   47.1020 H   0  0  0  0  0  0  0  0  0  0  0  0
   33.3820   27.5480   48.5340 H   0  0  0  0  0  0  0  0  0  0  0  0
   37.2000   29.1090   50.5910 C   0  0  0  0  0  0  0  0  0  0  0  0
   36.7180   28.8550   51.5750 H   0  0  0  0  0  0  0  0  0  0  0  0
   37.8830   28.2850   50.3160 H   0  0  0  0  0  0  0  0  0  0  0  0
   37.7180   30.0820   50.6490 H   0  0  0  0  0  0  0  0  0  0  0  0
   38.2710   30.3720   46.9300 O   0  0  0  0  0  0  0  0  0  0  0  0
   39.0530   29.7500   47.1140 H   0  0  0  0  0  0  0  0  0  0  0  0
   40.1070   32.3930   46.9650 O   0  0  0  0  0  0  0  0  0  0  0  0
   38.7870   33.8300   44.8910 H   0  0  0  0  0  0  0  0  0  0  0  0
   39.3080   32.9810   44.6630 N   0  0  0  0  0  0  0  0  0  0  0  0
   39.9470   32.2680   45.6090 C   0  0  0  0  0  0  0  0  0  0  0  0
   40.5170   31.2270   44.9540 N   0  0  0  0  0  0  0  0  0  0  0  0
   40.2310   31.3050   43.6440 C   0  0  0  0  0  0  0  0  0  0  0  0
   40.4960   30.5890   42.4780 C   0  0  0  0  0  0  0  0  0  0  0  0
   40.0180   30.9880   41.2850 N   0  0  0  0  0  0  0  0  0  0  0  0
   39.2580   32.1100   41.1760 C   0  0  0  0  0  0  0  0  0  0  0  0
   38.8480   32.4780   40.2480 H   0  0  0  0  0  0  0  0  0  0  0  0
   38.9580   32.8590   42.2620 N   0  0  0  0  0  0  0  0  0  0  0  0
   39.4510   32.4310   43.4430 C   0  0  0  0  0  0  0  0  0  0  0  0
   41.2940   29.4160   42.6140 N   0  0  0  0  0  0  0  0  0  0  0  0
   41.0460   28.4900   43.0370 H   0  0  0  0  0  0  0  0  0  0  0  0
   42.2300   29.6350   42.2000 H   0  0  0  0  0  0  0  0  0  0  0  0
  1  2  1  0  0  0  0
  2  3  2  0  0  0  0
  3  4  1  0  0  0  0
  3  7  1  0  0  0  0
  4  8  1  0  0  0  0
  5  9  1  0  0  0  0
  5  4  2  0  0  0  0
  6  1  2  0  0  0  0
  6  5  1  0  0  0  0
 10 11  1  0  0  0  0
 11  2  1  0  0  0  0
 11 12  2  0  0  0  0
 12 18  1  0  0  0  0
 13 12  1  0  0  0  0
 14 13  2  0  0  0  0
 15 10  2  0  0  0  0
 15 14  1  0  0  0  0
 16 10  1  0  0  0  0
 17 14  1  0  0  0  0
 18 21  1  0  0  0  0
 18 19  1  0  0  0  0
 20 18  1  0  0  0  0
 22 23  1  0  0  0  0
 22  1  1  0  0  0  0
 24  6  1  0  0  0  0
 26 25  1  0  0  0  0
 26 27  1  0  0  0  0
 27 24  1  0  0  0  0
 28 27  2  0  0  0  0
 29 28  1  0  0  0  0
 30 36  1  0  0  0  0
 30 29  2  0  0  0  0
 31 30  1  0  0  0  0
 32 31  2  0  0  0  0
 32 34  1  0  0  0  0
 33 32  1  0  0  0  0
 34 35  2  0  0  0  0
 35 29  1  0  0  0  0
 35 26  1  0  0  0  0
 36 37  1  0  0  0  0
 38 36  1  0  0  0  0
M  END
>  <minimizedAffinity>
-7.41876984

>  <minimizedRMSD>
0.877166271

$$$$
