
 OpenBabel03272501083D

 45 49  0  0  1  0  0  0  0  0999 V2000
   40.7390   31.9240   44.5990 Cl  0  0  0  0  0  0  0  0  0  0  0  0
   39.1950   31.1380   44.4190 C   0  0  0  0  0  0  0  0  0  0  0  0
   38.2600   31.5080   45.3750 C   0  0  0  0  0  0  0  0  0  0  0  0
   37.0270   30.8860   45.2370 C   0  0  0  0  0  0  0  0  0  0  0  0
   36.7500   29.9780   44.2410 C   0  0  0  0  0  0  0  0  0  0  0  0
   37.7310   29.6600   43.3240 C   0  0  0  0  0  0  0  0  0  0  0  0
   38.9660   30.2390   43.4070 C   0  0  0  0  0  0  0  0  0  0  0  0
   36.1740   31.0440   45.8840 H   0  0  0  0  0  0  0  0  0  0  0  0
   35.8120   29.4780   44.1010 H   0  0  0  0  0  0  0  0  0  0  0  0
   37.5530   28.9520   42.5270 H   0  0  0  0  0  0  0  0  0  0  0  0
   40.0260   29.9670   42.5100 N   0  0  0  0  0  0  0  0  0  0  0  0
   41.0320   29.1120   42.7400 C   0  0  0  0  0  0  0  0  0  0  0  0
   41.2540   28.4850   43.5870 H   0  0  0  0  0  0  0  0  0  0  0  0
   41.8740   29.0800   41.6930 N   0  0  0  0  0  0  0  0  0  0  0  0
   41.4310   29.9250   40.7410 C   0  0  0  0  0  0  0  0  0  0  0  0
   41.8360   30.3260   39.4840 C   0  0  0  0  0  0  0  0  0  0  0  0
   41.1080   31.2350   38.7880 N   0  0  0  0  0  0  0  0  0  0  0  0
   39.9740   31.7650   39.3160 C   0  0  0  0  0  0  0  0  0  0  0  0
   39.4310   32.4880   38.7160 H   0  0  0  0  0  0  0  0  0  0  0  0
   39.5830   31.3700   40.5470 N   0  0  0  0  0  0  0  0  0  0  0  0
   40.2740   30.4690   41.2740 C   0  0  0  0  0  0  0  0  0  0  0  0
   43.0280   29.7480   38.9650 N   0  0  0  0  0  0  0  0  0  0  0  0
   43.3710   29.1560   38.1790 H   0  0  0  0  0  0  0  0  0  0  0  0
   44.0500   29.7450   39.2560 H   0  0  0  0  0  0  0  0  0  0  0  0
   38.2910   32.3540   46.4230 O   0  0  0  0  0  0  0  0  0  0  0  0
   38.9460   32.4410   47.6020 C   0  0  2  0  0  0  0  0  0  0  0  0
   37.9610   32.6210   48.8080 C   0  0  2  0  0  0  0  0  0  0  0  0
   38.8180   33.3190   49.7550 C   0  0  0  0  0  0  0  0  0  0  0  0
   39.6450   34.1750   49.0430 O   0  0  0  0  0  0  0  0  0  0  0  0
   39.5720   33.8570   47.7320 C   0  0  0  0  0  0  0  0  0  0  0  0
   39.7370   31.7400   47.8490 H   0  0  0  0  0  0  0  0  0  0  0  0
   37.1670   33.2940   48.4170 H   0  0  0  0  0  0  0  0  0  0  0  0
   38.1630   33.9460   50.4290 H   0  0  0  0  0  0  0  0  0  0  0  0
   39.4650   32.7050   50.3900 H   0  0  0  0  0  0  0  0  0  0  0  0
   40.5540   33.8680   47.2260 H   0  0  0  0  0  0  0  0  0  0  0  0
   38.8730   34.5410   47.1920 H   0  0  0  0  0  0  0  0  0  0  0  0
   37.3470   29.3160   50.5030 C   0  0  0  0  0  0  0  0  0  0  0  0
   37.9970   30.5380   50.1620 C   0  0  0  0  0  0  0  0  0  0  0  0
   37.3550   31.3770   49.2030 C   0  0  0  0  0  0  0  0  0  0  0  0
   36.1530   30.9800   48.6490 N   0  0  0  0  0  0  0  0  0  0  0  0
   35.5910   29.8170   49.0090 C   0  0  0  0  0  0  0  0  0  0  0  0
   36.1660   28.9840   49.9220 N   0  0  0  0  0  0  0  0  0  0  0  0
   37.8600   28.7190   51.2240 H   0  0  0  0  0  0  0  0  0  0  0  0
   38.9180   30.7910   50.6190 H   0  0  0  0  0  0  0  0  0  0  0  0
   34.6520   29.5670   48.5390 H   0  0  0  0  0  0  0  0  0  0  0  0
  2  1  1  0  0  0  0
  2  3  1  0  0  0  0
  3 25  1  0  0  0  0
  4  3  2  0  0  0  0
  4  8  1  0  0  0  0
  5  4  1  0  0  0  0
  6  7  1  0  0  0  0
  6  5  2  0  0  0  0
  7  2  2  0  0  0  0
  9  5  1  0  0  0  0
 10  6  1  0  0  0  0
 11 12  1  0  0  0  0
 11  7  1  0  0  0  0
 12 13  1  0  0  0  0
 14 12  2  0  0  0  0
 15 21  1  0  0  0  0
 15 14  1  0  0  0  0
 16 15  2  0  0  0  0
 17 18  2  0  0  0  0
 17 16  1  0  0  0  0
 18 20  1  0  0  0  0
 19 18  1  0  0  0  0
 20 21  2  0  0  0  0
 21 11  1  0  0  0  0
 22 24  1  0  0  0  0
 22 16  1  0  0  0  0
 23 22  1  0  0  0  0
 25 26  1  0  0  0  0
 26 30  1  0  0  0  0
 26 31  1  1  0  0  0
 26 27  1  0  0  0  0
 27 32  1  6  0  0  0
 27 39  1  0  0  0  0
 27 28  1  0  0  0  0
 28 34  1  0  0  0  0
 28 33  1  0  0  0  0
 29 28  1  0  0  0  0
 30 29  1  0  0  0  0
 35 30  1  0  0  0  0
 36 30  1  0  0  0  0
 37 43  1  0  0  0  0
 38 37  1  0  0  0  0
 38 44  1  0  0  0  0
 39 38  2  0  0  0  0
 40 41  2  0  0  0  0
 40 39  1  0  0  0  0
 41 42  1  0  0  0  0
 42 37  2  0  0  0  0
 45 41  1  0  0  0  0
M  END
>  <minimizedAffinity>
-6.52472878

>  <minimizedRMSD>
1.62501633

$$$$
