
 OpenBabel03272504583D

 38 41  0  0  1  0  0  0  0  0999 V2000
   36.7250   26.6260   33.1010 O   0  0  0  0  0  0  0  0  0  0  0  0
   37.5230   25.8550   35.2500 C   0  0  1  0  0  0  0  0  0  0  0  0
   38.0150   27.2030   35.0960 C   0  0  0  0  0  0  0  0  0  0  0  0
   37.8360   26.3270   33.8980 C   0  0  2  0  0  0  0  0  0  0  0  0
   36.4150   25.6180   35.4110 H   0  0  0  0  0  0  0  0  0  0  0  0
   39.0620   27.3860   35.4160 H   0  0  0  0  0  0  0  0  0  0  0  0
   37.3290   27.8600   35.5980 H   0  0  0  0  0  0  0  0  0  0  0  0
   38.7570   26.2800   33.3390 H   0  0  0  0  0  0  0  0  0  0  0  0
   38.4010   24.7720   35.8090 C   0  0  0  0  0  0  0  0  0  0  0  0
   39.4810   24.3720   34.9980 C   0  0  0  0  0  0  0  0  0  0  0  0
   40.2780   23.3880   35.5340 C   0  0  0  0  0  0  0  0  0  0  0  0
   39.9910   22.8730   36.7690 N   0  0  0  0  0  0  0  0  0  0  0  0
   38.9490   23.2850   37.5100 C   0  0  0  0  0  0  0  0  0  0  0  0
   38.1290   24.2650   37.0110 N   0  0  0  0  0  0  0  0  0  0  0  0
   38.6570   22.7870   38.7840 N   0  0  0  0  0  0  0  0  0  0  0  0
   39.7090   24.7740   34.0310 H   0  0  0  0  0  0  0  0  0  0  0  0
   41.1410   22.9980   35.0020 H   0  0  0  0  0  0  0  0  0  0  0  0
   37.6910   22.7330   39.1720 H   0  0  0  0  0  0  0  0  0  0  0  0
   39.4450   22.4390   39.4090 H   0  0  0  0  0  0  0  0  0  0  0  0
   35.2960   25.4050   31.3350 O   0  0  0  0  0  0  0  0  0  0  0  0
   36.7090   25.6810   31.7320 P   0  0  1  0  0  0  0  0  0  0  0  0
   37.3930   26.5650   30.4120 O   0  0  0  0  0  0  0  0  0  0  0  0
   36.8480   27.3900   30.3730 H   0  0  0  0  0  0  0  0  0  0  0  0
   37.6160   24.2920   32.0140 O   0  0  0  0  0  0  0  0  0  0  0  0
   37.3640   22.2800   30.0300 H   0  0  0  0  0  0  0  0  0  0  0  0
   37.0490   22.0690   30.9910 N   0  0  0  0  0  0  0  0  0  0  0  0
   37.1540   23.0050   31.9640 C   0  0  0  0  0  0  0  0  0  0  0  0
   36.6690   22.4480   33.0930 N   0  0  0  0  0  0  0  0  0  0  0  0
   36.2820   21.1910   32.7860 C   0  0  0  0  0  0  0  0  0  0  0  0
   35.7190   20.2130   33.6060 C   0  0  0  0  0  0  0  0  0  0  0  0
   35.4120   19.0140   33.0560 N   0  0  0  0  0  0  0  0  0  0  0  0
   35.6720   18.8290   31.7290 C   0  0  0  0  0  0  0  0  0  0  0  0
   35.3860   17.8350   31.4030 H   0  0  0  0  0  0  0  0  0  0  0  0
   36.2150   19.7560   30.9160 N   0  0  0  0  0  0  0  0  0  0  0  0
   36.5170   20.9330   31.4490 C   0  0  0  0  0  0  0  0  0  0  0  0
   35.4950   20.5300   34.9870 N   0  0  0  0  0  0  0  0  0  0  0  0
   36.1420   20.3690   35.8130 H   0  0  0  0  0  0  0  0  0  0  0  0
   34.5400   20.9690   35.0610 H   0  0  0  0  0  0  0  0  0  0  0  0
  1  4  1  0  0  0  0
  2  5  1  1  0  0  0
  2  9  1  0  0  0  0
  3  2  1  0  0  0  0
  3  6  1  0  0  0  0
  3  7  1  0  0  0  0
  4  8  1  6  0  0  0
  4  3  1  0  0  0  0
  4  2  1  0  0  0  0
  9 14  1  0  0  0  0
 10 11  1  0  0  0  0
 10  9  2  0  0  0  0
 11 12  2  0  0  0  0
 12 13  1  0  0  0  0
 13 15  1  0  0  0  0
 14 13  2  0  0  0  0
 15 18  1  0  0  0  0
 15 19  1  0  0  0  0
 16 10  1  0  0  0  0
 17 11  1  0  0  0  0
 21 20  2  6  0  0  0
 21 24  1  0  0  0  0
 21  1  1  0  0  0  0
 22 21  1  0  0  0  0
 23 22  1  0  0  0  0
 25 26  1  0  0  0  0
 26 35  1  0  0  0  0
 26 27  1  0  0  0  0
 27 24  1  0  0  0  0
 27 28  2  0  0  0  0
 29 28  1  0  0  0  0
 29 30  1  0  0  0  0
 30 36  1  0  0  0  0
 31 30  2  0  0  0  0
 32 31  1  0  0  0  0
 33 32  1  0  0  0  0
 34 35  1  0  0  0  0
 34 32  2  0  0  0  0
 35 29  2  0  0  0  0
 36 38  1  0  0  0  0
 36 37  1  0  0  0  0
M  END
>  <minimizedAffinity>
-6.1672864

$$$$

 OpenBabel03272504583D

 38 41  0  0  1  0  0  0  0  0999 V2000
   36.7880   27.6410   33.8820 O   0  0  0  0  0  0  0  0  0  0  0  0
   37.5910   26.1010   35.5660 C   0  0  1  0  0  0  0  0  0  0  0  0
   38.4460   27.2620   35.6390 C   0  0  0  0  0  0  0  0  0  0  0  0
   37.8510   26.8480   34.3320 C   0  0  2  0  0  0  0  0  0  0  0  0
   36.4960   26.1210   35.8960 H   0  0  0  0  0  0  0  0  0  0  0  0
   39.5320   27.0680   35.7640 H   0  0  0  0  0  0  0  0  0  0  0  0
   38.0670   27.8980   36.4170 H   0  0  0  0  0  0  0  0  0  0  0  0
   38.6300   26.7310   33.5960 H   0  0  0  0  0  0  0  0  0  0  0  0
   38.1630   24.7140   35.6500 C   0  0  0  0  0  0  0  0  0  0  0  0
   38.2150   23.9930   34.4410 C   0  0  0  0  0  0  0  0  0  0  0  0
   38.7520   22.7320   34.5390 C   0  0  0  0  0  0  0  0  0  0  0  0
   39.1860   22.2650   35.7500 N   0  0  0  0  0  0  0  0  0  0  0  0
   39.1170   22.9880   36.8800 C   0  0  0  0  0  0  0  0  0  0  0  0
   38.5880   24.2520   36.8250 N   0  0  0  0  0  0  0  0  0  0  0  0
   39.5800   22.5360   38.1210 N   0  0  0  0  0  0  0  0  0  0  0  0
   37.8770   24.3560   33.4910 H   0  0  0  0  0  0  0  0  0  0  0  0
   38.8450   22.0800   33.6740 H   0  0  0  0  0  0  0  0  0  0  0  0
   39.1670   22.8350   39.0300 H   0  0  0  0  0  0  0  0  0  0  0  0
   40.3930   21.8520   38.1640 H   0  0  0  0  0  0  0  0  0  0  0  0
   36.6160   29.3390   31.9490 O   0  0  0  0  0  0  0  0  0  0  0  0
   36.8960   27.9020   32.2440 P   0  0  1  0  0  0  0  0  0  0  0  0
   38.5230   27.6350   31.7220 O   0  0  0  0  0  0  0  0  0  0  0  0
   39.0560   28.2430   32.2920 H   0  0  0  0  0  0  0  0  0  0  0  0
   35.8640   26.8360   31.4500 O   0  0  0  0  0  0  0  0  0  0  0  0
   34.2330   24.5310   31.7200 H   0  0  0  0  0  0  0  0  0  0  0  0
   35.2280   24.4060   31.4720 N   0  0  0  0  0  0  0  0  0  0  0  0
   36.0360   25.4830   31.3340 C   0  0  0  0  0  0  0  0  0  0  0  0
   37.2600   25.0140   31.0120 N   0  0  0  0  0  0  0  0  0  0  0  0
   37.1710   23.6670   30.9610 C   0  0  0  0  0  0  0  0  0  0  0  0
   38.1580   22.7260   30.6690 C   0  0  0  0  0  0  0  0  0  0  0  0
   37.8180   21.4150   30.6820 N   0  0  0  0  0  0  0  0  0  0  0  0
   36.5260   21.0880   30.9770 C   0  0  0  0  0  0  0  0  0  0  0  0
   36.3730   20.0150   30.9570 H   0  0  0  0  0  0  0  0  0  0  0  0
   35.5540   21.9760   31.2610 N   0  0  0  0  0  0  0  0  0  0  0  0
   35.8830   23.2630   31.2510 C   0  0  0  0  0  0  0  0  0  0  0  0
   39.4800   23.1960   30.3740 N   0  0  0  0  0  0  0  0  0  0  0  0
   39.9010   23.4300   29.4270 H   0  0  0  0  0  0  0  0  0  0  0  0
   40.0000   23.2790   31.2870 H   0  0  0  0  0  0  0  0  0  0  0  0
  1  4  1  0  0  0  0
  2  3  1  0  0  0  0
  2  9  1  0  0  0  0
  2  5  1  1  0  0  0
  3  6  1  0  0  0  0
  3  7  1  0  0  0  0
  4  8  1  6  0  0  0
  4  2  1  0  0  0  0
  4  3  1  0  0  0  0
  9 14  1  0  0  0  0
 10 11  1  0  0  0  0
 10  9  2  0  0  0  0
 11 12  2  0  0  0  0
 12 13  1  0  0  0  0
 13 15  1  0  0  0  0
 14 13  2  0  0  0  0
 15 19  1  0  0  0  0
 15 18  1  0  0  0  0
 16 10  1  0  0  0  0
 17 11  1  0  0  0  0
 21 20  2  6  0  0  0
 21  1  1  0  0  0  0
 22 21  1  0  0  0  0
 22 23  1  0  0  0  0
 24 21  1  0  0  0  0
 26 25  1  0  0  0  0
 27 24  1  0  0  0  0
 27 26  1  0  0  0  0
 28 27  2  0  0  0  0
 29 28  1  0  0  0  0
 29 35  1  0  0  0  0
 30 31  1  0  0  0  0
 30 29  2  0  0  0  0
 31 32  2  0  0  0  0
 32 34  1  0  0  0  0
 33 32  1  0  0  0  0
 35 34  2  0  0  0  0
 35 26  1  0  0  0  0
 36 30  1  0  0  0  0
 36 38  1  0  0  0  0
 37 36  1  0  0  0  0
M  END
>  <minimizedAffinity>
-5.92762518

$$$$

 OpenBabel03272504583D

 38 41  0  0  1  0  0  0  0  0999 V2000
   36.6550   27.6420   33.8280 O   0  0  0  0  0  0  0  0  0  0  0  0
   37.5650   26.1780   35.5250 C   0  0  1  0  0  0  0  0  0  0  0  0
   38.4510   27.3150   35.4550 C   0  0  0  0  0  0  0  0  0  0  0  0
   37.7340   26.8450   34.2310 C   0  0  2  0  0  0  0  0  0  0  0  0
   36.5030   26.2490   35.9460 H   0  0  0  0  0  0  0  0  0  0  0  0
   39.5380   27.0960   35.4980 H   0  0  0  0  0  0  0  0  0  0  0  0
   38.1570   28.0050   36.2240 H   0  0  0  0  0  0  0  0  0  0  0  0
   38.4430   26.6620   33.4390 H   0  0  0  0  0  0  0  0  0  0  0  0
   38.1070   24.7810   35.6430 C   0  0  0  0  0  0  0  0  0  0  0  0
   38.1950   24.0500   34.4420 C   0  0  0  0  0  0  0  0  0  0  0  0
   38.7040   22.7790   34.5710 C   0  0  0  0  0  0  0  0  0  0  0  0
   39.0800   22.3150   35.8020 N   0  0  0  0  0  0  0  0  0  0  0  0
   38.9790   23.0480   36.9230 C   0  0  0  0  0  0  0  0  0  0  0  0
   38.4760   24.3210   36.8380 N   0  0  0  0  0  0  0  0  0  0  0  0
   39.3820   22.5980   38.1850 N   0  0  0  0  0  0  0  0  0  0  0  0
   37.9020   24.4100   33.4760 H   0  0  0  0  0  0  0  0  0  0  0  0
   38.8200   22.1200   33.7150 H   0  0  0  0  0  0  0  0  0  0  0  0
   38.9390   22.9120   39.0750 H   0  0  0  0  0  0  0  0  0  0  0  0
   40.1810   21.9000   38.2660 H   0  0  0  0  0  0  0  0  0  0  0  0
   35.9380   29.0250   31.7730 O   0  0  0  0  0  0  0  0  0  0  0  0
   36.5760   27.7340   32.1700 P   0  0  1  0  0  0  0  0  0  0  0  0
   38.1770   27.7950   31.5170 O   0  0  0  0  0  0  0  0  0  0  0  0
   38.5880   28.5700   31.9730 H   0  0  0  0  0  0  0  0  0  0  0  0
   35.7750   26.3760   31.5820 O   0  0  0  0  0  0  0  0  0  0  0  0
   38.1800   25.4670   30.3840 H   0  0  0  0  0  0  0  0  0  0  0  0
   37.5020   24.7660   30.7270 N   0  0  0  0  0  0  0  0  0  0  0  0
   36.3440   25.1630   31.3040 C   0  0  0  0  0  0  0  0  0  0  0  0
   35.6740   24.0420   31.6440 N   0  0  0  0  0  0  0  0  0  0  0  0
   36.4350   22.9920   31.2680 C   0  0  0  0  0  0  0  0  0  0  0  0
   36.1850   21.6260   31.4000 C   0  0  0  0  0  0  0  0  0  0  0  0
   37.1150   20.7570   30.9380 N   0  0  0  0  0  0  0  0  0  0  0  0
   38.2470   21.2650   30.3700 C   0  0  0  0  0  0  0  0  0  0  0  0
   38.9140   20.4770   30.0390 H   0  0  0  0  0  0  0  0  0  0  0  0
   38.5130   22.5780   30.2310 N   0  0  0  0  0  0  0  0  0  0  0  0
   37.6040   23.4350   30.6810 C   0  0  0  0  0  0  0  0  0  0  0  0
   34.9570   21.2160   32.0160 N   0  0  0  0  0  0  0  0  0  0  0  0
   34.7710   21.0040   33.0400 H   0  0  0  0  0  0  0  0  0  0  0  0
   34.2260   21.1530   31.2590 H   0  0  0  0  0  0  0  0  0  0  0  0
  1  4  1  0  0  0  0
  2  9  1  0  0  0  0
  2  5  1  1  0  0  0
  3  6  1  0  0  0  0
  3  2  1  0  0  0  0
  3  7  1  0  0  0  0
  4  8  1  6  0  0  0
  4  3  1  0  0  0  0
  4  2  1  0  0  0  0
  9 14  1  0  0  0  0
 10 11  1  0  0  0  0
 10  9  2  0  0  0  0
 11 12  2  0  0  0  0
 12 13  1  0  0  0  0
 13 15  1  0  0  0  0
 14 13  2  0  0  0  0
 15 19  1  0  0  0  0
 15 18  1  0  0  0  0
 16 10  1  0  0  0  0
 17 11  1  0  0  0  0
 21 20  2  6  0  0  0
 21  1  1  0  0  0  0
 22 23  1  0  0  0  0
 22 21  1  0  0  0  0
 24 21  1  0  0  0  0
 25 26  1  0  0  0  0
 26 27  1  0  0  0  0
 27 24  1  0  0  0  0
 27 28  2  0  0  0  0
 29 30  1  0  0  0  0
 29 28  1  0  0  0  0
 30 36  1  0  0  0  0
 31 30  2  0  0  0  0
 32 31  1  0  0  0  0
 33 32  1  0  0  0  0
 34 32  2  0  0  0  0
 34 35  1  0  0  0  0
 35 26  1  0  0  0  0
 35 29  2  0  0  0  0
 36 37  1  0  0  0  0
 38 36  1  0  0  0  0
M  END
>  <minimizedAffinity>
-5.8912797

$$$$

 OpenBabel03272504583D

 38 41  0  0  1  0  0  0  0  0999 V2000
   39.0560   24.9650   32.4170 O   0  0  0  0  0  0  0  0  0  0  0  0
   39.4570   25.2180   34.7890 C   0  0  1  0  0  0  0  0  0  0  0  0
   40.7550   25.2160   34.1580 C   0  0  0  0  0  0  0  0  0  0  0  0
   39.6330   24.4210   33.5720 C   0  0  2  0  0  0  0  0  0  0  0  0
   38.7160   26.0820   34.6730 H   0  0  0  0  0  0  0  0  0  0  0  0
   41.5510   24.6340   34.6680 H   0  0  0  0  0  0  0  0  0  0  0  0
   41.0470   26.2390   34.0110 H   0  0  0  0  0  0  0  0  0  0  0  0
   39.9370   23.3950   33.4480 H   0  0  0  0  0  0  0  0  0  0  0  0
   39.2160   24.4600   36.0640 C   0  0  0  0  0  0  0  0  0  0  0  0
   38.1130   24.8810   36.8340 C   0  0  0  0  0  0  0  0  0  0  0  0
   37.9050   24.1680   37.9900 C   0  0  0  0  0  0  0  0  0  0  0  0
   38.7420   23.1340   38.3160 N   0  0  0  0  0  0  0  0  0  0  0  0
   39.7830   22.7660   37.5520 C   0  0  0  0  0  0  0  0  0  0  0  0
   40.0250   23.4530   36.3900 N   0  0  0  0  0  0  0  0  0  0  0  0
   40.6320   21.6970   37.8580 N   0  0  0  0  0  0  0  0  0  0  0  0
   37.4560   25.6890   36.5810 H   0  0  0  0  0  0  0  0  0  0  0  0
   37.0860   24.3990   38.6660 H   0  0  0  0  0  0  0  0  0  0  0  0
   41.6350   21.6630   37.5770 H   0  0  0  0  0  0  0  0  0  0  0  0
   40.2570   20.8650   38.4050 H   0  0  0  0  0  0  0  0  0  0  0  0
   37.5920   23.6480   30.7530 O   0  0  0  0  0  0  0  0  0  0  0  0
   37.5770   24.2690   32.1110 P   0  0  1  0  0  0  0  0  0  0  0  0
   37.3160   22.9600   33.2120 O   0  0  0  0  0  0  0  0  0  0  0  0
   38.1040   22.3780   33.0760 H   0  0  0  0  0  0  0  0  0  0  0  0
   36.3730   25.4270   32.3120 O   0  0  0  0  0  0  0  0  0  0  0  0
   35.8130   27.9530   33.4760 H   0  0  0  0  0  0  0  0  0  0  0  0
   36.1630   27.9220   32.5040 N   0  0  0  0  0  0  0  0  0  0  0  0
   36.4400   26.7350   31.9160 C   0  0  0  0  0  0  0  0  0  0  0  0
   36.8710   27.0110   30.6670 N   0  0  0  0  0  0  0  0  0  0  0  0
   36.8460   28.3530   30.5220 C   0  0  0  0  0  0  0  0  0  0  0  0
   37.1970   29.1300   29.4180 C   0  0  0  0  0  0  0  0  0  0  0  0
   37.0830   30.4760   29.5190 N   0  0  0  0  0  0  0  0  0  0  0  0
   36.6330   30.9970   30.6970 C   0  0  0  0  0  0  0  0  0  0  0  0
   36.5830   32.0800   30.6600 H   0  0  0  0  0  0  0  0  0  0  0  0
   36.2880   30.2700   31.7770 N   0  0  0  0  0  0  0  0  0  0  0  0
   36.3970   28.9500   31.6830 C   0  0  0  0  0  0  0  0  0  0  0  0
   37.6580   28.4630   28.2350 N   0  0  0  0  0  0  0  0  0  0  0  0
   38.6550   28.2260   27.9580 H   0  0  0  0  0  0  0  0  0  0  0  0
   36.8120   28.2310   27.6500 H   0  0  0  0  0  0  0  0  0  0  0  0
  1  4  1  0  0  0  0
  2  5  1  6  0  0  0
  2  9  1  0  0  0  0
  3  6  1  0  0  0  0
  3  2  1  0  0  0  0
  4  8  1  1  0  0  0
  4  3  1  0  0  0  0
  4  2  1  0  0  0  0
  7  3  1  0  0  0  0
  9 14  2  0  0  0  0
  9 10  1  0  0  0  0
 10 11  2  0  0  0  0
 11 12  1  0  0  0  0
 11 17  1  0  0  0  0
 13 15  1  0  0  0  0
 13 12  2  0  0  0  0
 14 13  1  0  0  0  0
 15 19  1  0  0  0  0
 16 10  1  0  0  0  0
 18 15  1  0  0  0  0
 21 20  2  6  0  0  0
 21 24  1  0  0  0  0
 21  1  1  0  0  0  0
 21 22  1  0  0  0  0
 23 22  1  0  0  0  0
 26 25  1  0  0  0  0
 27 24  1  0  0  0  0
 27 26  1  0  0  0  0
 28 27  2  0  0  0  0
 29 28  1  0  0  0  0
 29 35  1  0  0  0  0
 30 31  1  0  0  0  0
 30 29  2  0  0  0  0
 31 32  2  0  0  0  0
 32 34  1  0  0  0  0
 33 32  1  0  0  0  0
 35 34  2  0  0  0  0
 35 26  1  0  0  0  0
 36 30  1  0  0  0  0
 37 36  1  0  0  0  0
 38 36  1  0  0  0  0
M  END
>  <minimizedAffinity>
-5.80013227

$$$$

 OpenBabel03272504583D

 38 41  0  0  1  0  0  0  0  0999 V2000
   37.0270   27.8190   33.9360 O   0  0  0  0  0  0  0  0  0  0  0  0
   37.7620   26.3640   35.7240 C   0  0  1  0  0  0  0  0  0  0  0  0
   38.7760   27.3820   35.5890 C   0  0  0  0  0  0  0  0  0  0  0  0
   38.0060   26.9260   34.3920 C   0  0  2  0  0  0  0  0  0  0  0  0
   36.7170   26.5850   36.1350 H   0  0  0  0  0  0  0  0  0  0  0  0
   39.8300   27.0410   35.6510 H   0  0  0  0  0  0  0  0  0  0  0  0
   38.5670   28.1480   36.3130 H   0  0  0  0  0  0  0  0  0  0  0  0
   38.6860   26.6140   33.6170 H   0  0  0  0  0  0  0  0  0  0  0  0
   38.1370   24.9230   35.9290 C   0  0  0  0  0  0  0  0  0  0  0  0
   38.2800   24.1500   34.7600 C   0  0  0  0  0  0  0  0  0  0  0  0
   38.6340   22.8380   34.9700 C   0  0  0  0  0  0  0  0  0  0  0  0
   38.8200   22.3760   36.2450 N   0  0  0  0  0  0  0  0  0  0  0  0
   38.6730   23.1500   37.3320 C   0  0  0  0  0  0  0  0  0  0  0  0
   38.3200   24.4650   37.1660 N   0  0  0  0  0  0  0  0  0  0  0  0
   38.8840   22.7000   38.6400 N   0  0  0  0  0  0  0  0  0  0  0  0
   38.1350   24.5090   33.7600 H   0  0  0  0  0  0  0  0  0  0  0  0
   38.7730   22.1440   34.1460 H   0  0  0  0  0  0  0  0  0  0  0  0
   38.3810   23.0840   39.4680 H   0  0  0  0  0  0  0  0  0  0  0  0
   39.5900   21.9250   38.8250 H   0  0  0  0  0  0  0  0  0  0  0  0
   38.2830   27.3580   31.7320 O   0  0  0  0  0  0  0  0  0  0  0  0
   36.9800   27.8450   32.2740 P   0  0  1  0  0  0  0  0  0  0  0  0
   35.7970   26.7160   31.7120 O   0  0  0  0  0  0  0  0  0  0  0  0
   36.0750   25.8600   32.1220 H   0  0  0  0  0  0  0  0  0  0  0  0
   36.5720   29.3960   31.7620 O   0  0  0  0  0  0  0  0  0  0  0  0
   35.2230   31.3570   30.2190 H   0  0  0  0  0  0  0  0  0  0  0  0
   34.6990   30.8650   30.9620 N   0  0  0  0  0  0  0  0  0  0  0  0
   35.3100   29.9230   31.7180 C   0  0  0  0  0  0  0  0  0  0  0  0
   34.3870   29.4650   32.5890 N   0  0  0  0  0  0  0  0  0  0  0  0
   33.2400   30.1340   32.3460 C   0  0  0  0  0  0  0  0  0  0  0  0
   32.0000   30.0220   32.9760 C   0  0  0  0  0  0  0  0  0  0  0  0
   30.9900   30.8140   32.5460 N   0  0  0  0  0  0  0  0  0  0  0  0
   31.2400   31.6770   31.5190 C   0  0  0  0  0  0  0  0  0  0  0  0
   30.3590   32.2560   31.2630 H   0  0  0  0  0  0  0  0  0  0  0  0
   32.4260   31.8040   30.8940 N   0  0  0  0  0  0  0  0  0  0  0  0
   33.4210   31.0310   31.3120 C   0  0  0  0  0  0  0  0  0  0  0  0
   31.8630   29.0760   34.0440 N   0  0  0  0  0  0  0  0  0  0  0  0
   31.5480   28.0630   33.9930 H   0  0  0  0  0  0  0  0  0  0  0  0
   32.1370   29.5630   34.9380 H   0  0  0  0  0  0  0  0  0  0  0  0
  1  4  1  0  0  0  0
  2  9  1  0  0  0  0
  2  5  1  1  0  0  0
  3  6  1  0  0  0  0
  3  2  1  0  0  0  0
  3  7  1  0  0  0  0
  4  8  1  6  0  0  0
  4  3  1  0  0  0  0
  4  2  1  0  0  0  0
  9 14  1  0  0  0  0
 10 11  1  0  0  0  0
 10  9  2  0  0  0  0
 11 12  2  0  0  0  0
 12 13  1  0  0  0  0
 13 15  1  0  0  0  0
 14 13  2  0  0  0  0
 15 19  1  0  0  0  0
 15 18  1  0  0  0  0
 16 10  1  0  0  0  0
 17 11  1  0  0  0  0
 21 20  2  6  0  0  0
 21  1  1  0  0  0  0
 22 23  1  0  0  0  0
 22 21  1  0  0  0  0
 24 21  1  0  0  0  0
 25 26  1  0  0  0  0
 26 35  1  0  0  0  0
 26 27  1  0  0  0  0
 27 24  1  0  0  0  0
 27 28  2  0  0  0  0
 29 28  1  0  0  0  0
 29 30  1  0  0  0  0
 30 36  1  0  0  0  0
 31 30  2  0  0  0  0
 32 31  1  0  0  0  0
 33 32  1  0  0  0  0
 34 35  1  0  0  0  0
 34 32  2  0  0  0  0
 35 29  2  0  0  0  0
 36 38  1  0  0  0  0
 37 36  1  0  0  0  0
M  END
>  <minimizedAffinity>
-5.75026083

$$$$

 OpenBabel03272504583D

 38 41  0  0  1  0  0  0  0  0999 V2000
   36.9600   27.7320   34.1720 O   0  0  0  0  0  0  0  0  0  0  0  0
   37.9740   26.4090   35.9250 C   0  0  1  0  0  0  0  0  0  0  0  0
   38.9180   27.4540   35.6100 C   0  0  0  0  0  0  0  0  0  0  0  0
   38.0250   26.9030   34.5460 C   0  0  2  0  0  0  0  0  0  0  0  0
   36.9800   26.6150   36.4530 H   0  0  0  0  0  0  0  0  0  0  0  0
   39.9860   27.1550   35.5550 H   0  0  0  0  0  0  0  0  0  0  0  0
   38.7680   28.2520   36.3140 H   0  0  0  0  0  0  0  0  0  0  0  0
   38.6160   26.5720   33.7080 H   0  0  0  0  0  0  0  0  0  0  0  0
   38.4330   24.9970   36.1550 C   0  0  0  0  0  0  0  0  0  0  0  0
   39.0120   24.3470   35.0470 C   0  0  0  0  0  0  0  0  0  0  0  0
   39.4340   23.0610   35.2830 C   0  0  0  0  0  0  0  0  0  0  0  0
   39.2780   22.5060   36.5250 N   0  0  0  0  0  0  0  0  0  0  0  0
   38.7200   23.1640   37.5550 C   0  0  0  0  0  0  0  0  0  0  0  0
   38.2840   24.4500   37.3610 N   0  0  0  0  0  0  0  0  0  0  0  0
   38.5760   22.6210   38.8360 N   0  0  0  0  0  0  0  0  0  0  0  0
   39.1360   24.7780   34.0740 H   0  0  0  0  0  0  0  0  0  0  0  0
   39.8960   22.4580   34.5060 H   0  0  0  0  0  0  0  0  0  0  0  0
   37.8040   22.8820   39.4870 H   0  0  0  0  0  0  0  0  0  0  0  0
   39.2780   21.9020   39.1880 H   0  0  0  0  0  0  0  0  0  0  0  0
   37.9100   27.9840   31.7880 O   0  0  0  0  0  0  0  0  0  0  0  0
   36.6700   27.6220   32.5380 P   0  0  1  0  0  0  0  0  0  0  0  0
   36.3440   25.9760   32.1190 O   0  0  0  0  0  0  0  0  0  0  0  0
   37.1380   25.4870   32.4510 H   0  0  0  0  0  0  0  0  0  0  0  0
   35.3420   28.5790   32.1510 O   0  0  0  0  0  0  0  0  0  0  0  0
   35.3820   29.3340   34.8850 H   0  0  0  0  0  0  0  0  0  0  0  0
   34.5110   29.4720   34.3460 N   0  0  0  0  0  0  0  0  0  0  0  0
   34.4550   29.1240   33.0400 C   0  0  0  0  0  0  0  0  0  0  0  0
   33.2090   29.4180   32.6110 N   0  0  0  0  0  0  0  0  0  0  0  0
   32.5370   29.9360   33.6610 C   0  0  0  0  0  0  0  0  0  0  0  0
   31.2210   30.3940   33.7300 C   0  0  0  0  0  0  0  0  0  0  0  0
   30.7710   30.8750   34.9140 N   0  0  0  0  0  0  0  0  0  0  0  0
   31.6310   30.8860   35.9730 C   0  0  0  0  0  0  0  0  0  0  0  0
   31.1610   31.2920   36.8620 H   0  0  0  0  0  0  0  0  0  0  0  0
   32.9050   30.4510   35.9330 N   0  0  0  0  0  0  0  0  0  0  0  0
   33.3520   29.9780   34.7760 C   0  0  0  0  0  0  0  0  0  0  0  0
   30.4160   30.3300   32.5460 N   0  0  0  0  0  0  0  0  0  0  0  0
   30.2770   31.0740   31.8010 H   0  0  0  0  0  0  0  0  0  0  0  0
   29.9560   29.3810   32.5240 H   0  0  0  0  0  0  0  0  0  0  0  0
  1  4  1  0  0  0  0
  2  9  1  0  0  0  0
  2  5  1  1  0  0  0
  3  2  1  0  0  0  0
  3  7  1  0  0  0  0
  4  8  1  6  0  0  0
  4  3  1  0  0  0  0
  4  2  1  0  0  0  0
  6  3  1  0  0  0  0
  9 14  1  0  0  0  0
 10 11  1  0  0  0  0
 10  9  2  0  0  0  0
 11 12  2  0  0  0  0
 12 13  1  0  0  0  0
 13 15  1  0  0  0  0
 14 13  2  0  0  0  0
 15 19  1  0  0  0  0
 15 18  1  0  0  0  0
 16 10  1  0  0  0  0
 17 11  1  0  0  0  0
 21 20  2  6  0  0  0
 21  1  1  0  0  0  0
 22 23  1  0  0  0  0
 22 21  1  0  0  0  0
 24 21  1  0  0  0  0
 24 27  1  0  0  0  0
 26 35  1  0  0  0  0
 26 25  1  0  0  0  0
 27 26  1  0  0  0  0
 28 27  2  0  0  0  0
 28 29  1  0  0  0  0
 29 30  2  0  0  0  0
 29 35  1  0  0  0  0
 30 31  1  0  0  0  0
 31 32  2  0  0  0  0
 32 33  1  0  0  0  0
 34 32  1  0  0  0  0
 35 34  2  0  0  0  0
 36 30  1  0  0  0  0
 37 36  1  0  0  0  0
 38 36  1  0  0  0  0
M  END
>  <minimizedAffinity>
-5.72809601

$$$$

 OpenBabel03272504583D

 38 41  0  0  1  0  0  0  0  0999 V2000
   39.1290   25.4940   34.1960 O   0  0  0  0  0  0  0  0  0  0  0  0
   38.7240   23.1150   34.3660 C   0  0  1  0  0  0  0  0  0  0  0  0
   39.3860   23.3230   33.1000 C   0  0  0  0  0  0  0  0  0  0  0  0
   38.4820   24.3750   33.6570 C   0  0  2  0  0  0  0  0  0  0  0  0
   39.2590   23.2460   35.3700 H   0  0  0  0  0  0  0  0  0  0  0  0
   38.9910   22.7480   32.2370 H   0  0  0  0  0  0  0  0  0  0  0  0
   40.4350   23.1440   33.2470 H   0  0  0  0  0  0  0  0  0  0  0  0
   37.7280   24.6320   32.9300 H   0  0  0  0  0  0  0  0  0  0  0  0
   37.5620   22.1710   34.4850 C   0  0  0  0  0  0  0  0  0  0  0  0
   37.0600   21.6540   33.2740 C   0  0  0  0  0  0  0  0  0  0  0  0
   36.0040   20.7840   33.4070 C   0  0  0  0  0  0  0  0  0  0  0  0
   35.5210   20.4790   34.6510 N   0  0  0  0  0  0  0  0  0  0  0  0
   36.0320   20.9950   35.7810 C   0  0  0  0  0  0  0  0  0  0  0  0
   37.0860   21.8690   35.6920 N   0  0  0  0  0  0  0  0  0  0  0  0
   35.5660   20.6750   37.0610 N   0  0  0  0  0  0  0  0  0  0  0  0
   37.4360   21.8910   32.2990 H   0  0  0  0  0  0  0  0  0  0  0  0
   35.5320   20.3210   32.5450 H   0  0  0  0  0  0  0  0  0  0  0  0
   35.6060   21.3340   37.8670 H   0  0  0  0  0  0  0  0  0  0  0  0
   35.1450   19.7150   37.2450 H   0  0  0  0  0  0  0  0  0  0  0  0
   37.4060   25.4810   36.1150 O   0  0  0  0  0  0  0  0  0  0  0  0
   38.0860   26.3830   35.1380 P   0  0  1  0  0  0  0  0  0  0  0  0
   38.9880   27.5030   36.1000 O   0  0  0  0  0  0  0  0  0  0  0  0
   39.6300   26.9300   36.5880 H   0  0  0  0  0  0  0  0  0  0  0  0
   37.0230   27.2220   34.1390 O   0  0  0  0  0  0  0  0  0  0  0  0
   38.8740   26.5750   32.0890 H   0  0  0  0  0  0  0  0  0  0  0  0
   38.1860   27.3260   31.9160 N   0  0  0  0  0  0  0  0  0  0  0  0
   37.2880   27.6620   32.8710 C   0  0  0  0  0  0  0  0  0  0  0  0
   36.5340   28.6590   32.3620 N   0  0  0  0  0  0  0  0  0  0  0  0
   36.9870   28.9080   31.1150 C   0  0  0  0  0  0  0  0  0  0  0  0
   36.5410   29.8440   30.1820 C   0  0  0  0  0  0  0  0  0  0  0  0
   37.1680   29.9020   28.9830 N   0  0  0  0  0  0  0  0  0  0  0  0
   38.2010   29.0410   28.7540 C   0  0  0  0  0  0  0  0  0  0  0  0
   38.6230   29.1800   27.7640 H   0  0  0  0  0  0  0  0  0  0  0  0
   38.6510   28.1290   29.6360 N   0  0  0  0  0  0  0  0  0  0  0  0
   38.0410   28.0680   30.8140 C   0  0  0  0  0  0  0  0  0  0  0  0
   35.4430   30.6930   30.5420 N   0  0  0  0  0  0  0  0  0  0  0  0
   34.4060   30.5370   30.3770 H   0  0  0  0  0  0  0  0  0  0  0  0
   35.8430   31.5430   31.0220 H   0  0  0  0  0  0  0  0  0  0  0  0
  1 21  1  0  0  0  0
  2  9  1  0  0  0  0
  2  5  1  1  0  0  0
  3  7  1  0  0  0  0
  3  4  1  0  0  0  0
  3  2  1  0  0  0  0
  4  8  1  6  0  0  0
  4  1  1  0  0  0  0
  4  2  1  0  0  0  0
  6  3  1  0  0  0  0
  9 14  1  0  0  0  0
 10 11  1  0  0  0  0
 10  9  2  0  0  0  0
 11 12  2  0  0  0  0
 12 13  1  0  0  0  0
 13 15  1  0  0  0  0
 14 13  2  0  0  0  0
 15 19  1  0  0  0  0
 15 18  1  0  0  0  0
 16 10  1  0  0  0  0
 17 11  1  0  0  0  0
 21 22  1  0  0  0  0
 21 20  2  1  0  0  0
 22 23  1  0  0  0  0
 24 21  1  0  0  0  0
 26 25  1  0  0  0  0
 26 27  1  0  0  0  0
 27 24  1  0  0  0  0
 28 27  2  0  0  0  0
 29 28  1  0  0  0  0
 30 36  1  0  0  0  0
 30 29  2  0  0  0  0
 31 30  1  0  0  0  0
 32 31  2  0  0  0  0
 32 34  1  0  0  0  0
 33 32  1  0  0  0  0
 34 35  2  0  0  0  0
 35 29  1  0  0  0  0
 35 26  1  0  0  0  0
 36 38  1  0  0  0  0
 37 36  1  0  0  0  0
M  END
>  <minimizedAffinity>
-5.644454

$$$$

 OpenBabel03272504583D

 38 41  0  0  1  0  0  0  0  0999 V2000
   36.9530   26.1020   31.1890 O   0  0  0  0  0  0  0  0  0  0  0  0
   36.0870   23.8510   31.0030 C   0  0  1  0  0  0  0  0  0  0  0  0
   34.9380   24.7230   31.0530 C   0  0  0  0  0  0  0  0  0  0  0  0
   36.1910   25.0880   31.7820 C   0  0  2  0  0  0  0  0  0  0  0  0
   36.7930   23.8130   30.1020 H   0  0  0  0  0  0  0  0  0  0  0  0
   34.0890   24.3830   31.6820 H   0  0  0  0  0  0  0  0  0  0  0  0
   34.6290   24.9140   30.0420 H   0  0  0  0  0  0  0  0  0  0  0  0
   35.9680   25.2790   32.8190 H   0  0  0  0  0  0  0  0  0  0  0  0
   36.1140   22.5610   31.7730 C   0  0  0  0  0  0  0  0  0  0  0  0
   37.0390   22.4940   32.8330 C   0  0  0  0  0  0  0  0  0  0  0  0
   37.0390   21.3100   33.5310 C   0  0  0  0  0  0  0  0  0  0  0  0
   36.1780   20.3060   33.1740 N   0  0  0  0  0  0  0  0  0  0  0  0
   35.3100   20.4140   32.1550 C   0  0  0  0  0  0  0  0  0  0  0  0
   35.2800   21.5790   31.4330 N   0  0  0  0  0  0  0  0  0  0  0  0
   34.4070   19.4080   31.7940 N   0  0  0  0  0  0  0  0  0  0  0  0
   37.7140   23.2770   33.1150 H   0  0  0  0  0  0  0  0  0  0  0  0
   37.7080   21.1390   34.3690 H   0  0  0  0  0  0  0  0  0  0  0  0
   34.0700   19.2630   30.8180 H   0  0  0  0  0  0  0  0  0  0  0  0
   34.0320   18.7440   32.5360 H   0  0  0  0  0  0  0  0  0  0  0  0
   38.7890   27.8580   31.6310 O   0  0  0  0  0  0  0  0  0  0  0  0
   38.0030   26.7730   32.2900 P   0  0  1  0  0  0  0  0  0  0  0  0
   37.1040   27.5560   33.5440 O   0  0  0  0  0  0  0  0  0  0  0  0
   36.5250   28.1920   33.0560 H   0  0  0  0  0  0  0  0  0  0  0  0
   38.9560   25.5540   32.9520 O   0  0  0  0  0  0  0  0  0  0  0  0
   37.2160   25.9030   35.1650 H   0  0  0  0  0  0  0  0  0  0  0  0
   38.0170   25.2580   35.2620 N   0  0  0  0  0  0  0  0  0  0  0  0
   38.8680   25.0670   34.2280 C   0  0  0  0  0  0  0  0  0  0  0  0
   39.8000   24.1850   34.6470 N   0  0  0  0  0  0  0  0  0  0  0  0
   39.4970   23.8590   35.9220 C   0  0  0  0  0  0  0  0  0  0  0  0
   40.1530   22.9880   36.7920 C   0  0  0  0  0  0  0  0  0  0  0  0
   39.6480   22.8270   38.0390 N   0  0  0  0  0  0  0  0  0  0  0  0
   38.5250   23.5260   38.3740 C   0  0  0  0  0  0  0  0  0  0  0  0
   38.2160   23.3170   39.3920 H   0  0  0  0  0  0  0  0  0  0  0  0
   37.8730   24.3720   37.5540 N   0  0  0  0  0  0  0  0  0  0  0  0
   38.3630   24.5340   36.3310 C   0  0  0  0  0  0  0  0  0  0  0  0
   41.3250   22.3100   36.3200 N   0  0  0  0  0  0  0  0  0  0  0  0
   41.3940   21.3580   35.8560 H   0  0  0  0  0  0  0  0  0  0  0  0
   42.1520   22.9330   36.5150 H   0  0  0  0  0  0  0  0  0  0  0  0
  1  4  1  0  0  0  0
  1 21  1  0  0  0  0
  2  5  1  6  0  0  0
  2  3  1  0  0  0  0
  2  9  1  0  0  0  0
  2  4  1  0  0  0  0
  3  6  1  0  0  0  0
  3  4  1  0  0  0  0
  4  8  1  1  0  0  0
  7  3  1  0  0  0  0
  9 10  1  0  0  0  0
 10 16  1  0  0  0  0
 10 11  2  0  0  0  0
 11 17  1  0  0  0  0
 12 11  1  0  0  0  0
 13 12  2  0  0  0  0
 14  9  2  0  0  0  0
 14 13  1  0  0  0  0
 15 13  1  0  0  0  0
 15 19  1  0  0  0  0
 18 15  1  0  0  0  0
 21 20  2  6  0  0  0
 21 24  1  0  0  0  0
 21 22  1  0  0  0  0
 23 22  1  0  0  0  0
 24 27  1  0  0  0  0
 25 26  1  0  0  0  0
 26 35  1  0  0  0  0
 27 28  2  0  0  0  0
 27 26  1  0  0  0  0
 28 29  1  0  0  0  0
 29 35  2  0  0  0  0
 29 30  1  0  0  0  0
 30 31  2  0  0  0  0
 31 32  1  0  0  0  0
 32 33  1  0  0  0  0
 34 32  2  0  0  0  0
 35 34  1  0  0  0  0
 36 38  1  0  0  0  0
 36 30  1  0  0  0  0
 37 36  1  0  0  0  0
M  END
>  <minimizedAffinity>
-5.61603403

$$$$

 OpenBabel03272504583D

 38 41  0  0  1  0  0  0  0  0999 V2000
   38.3150   24.8620   36.8000 O   0  0  0  0  0  0  0  0  0  0  0  0
   39.1410   26.7210   35.4910 C   0  0  1  0  0  0  0  0  0  0  0  0
   37.7060   26.8700   35.5430 C   0  0  0  0  0  0  0  0  0  0  0  0
   38.3220   25.5080   35.5570 C   0  0  2  0  0  0  0  0  0  0  0  0
   39.8100   26.8770   36.4060 H   0  0  0  0  0  0  0  0  0  0  0  0
   37.2060   27.1700   34.5990 H   0  0  0  0  0  0  0  0  0  0  0  0
   37.4770   27.5490   36.3430 H   0  0  0  0  0  0  0  0  0  0  0  0
   37.9000   24.9070   34.7670 H   0  0  0  0  0  0  0  0  0  0  0  0
   39.8960   26.9590   34.2140 C   0  0  0  0  0  0  0  0  0  0  0  0
   39.1370   26.9100   33.0290 C   0  0  0  0  0  0  0  0  0  0  0  0
   39.8450   27.1420   31.8740 C   0  0  0  0  0  0  0  0  0  0  0  0
   41.1890   27.3970   31.9360 N   0  0  0  0  0  0  0  0  0  0  0  0
   41.8750   27.4350   33.0900 C   0  0  0  0  0  0  0  0  0  0  0  0
   41.2040   27.2080   34.2650 N   0  0  0  0  0  0  0  0  0  0  0  0
   43.2420   27.7190   33.1720 N   0  0  0  0  0  0  0  0  0  0  0  0
   38.0850   26.7120   32.9770 H   0  0  0  0  0  0  0  0  0  0  0  0
   39.3690   27.1300   30.8980 H   0  0  0  0  0  0  0  0  0  0  0  0
   43.8630   27.3380   33.9180 H   0  0  0  0  0  0  0  0  0  0  0  0
   43.6940   28.3530   32.4480 H   0  0  0  0  0  0  0  0  0  0  0  0
   40.2160   23.3460   35.9400 O   0  0  0  0  0  0  0  0  0  0  0  0
   38.9110   23.3150   36.6650 P   0  0  1  0  0  0  0  0  0  0  0  0
   39.2760   22.6980   38.2400 O   0  0  0  0  0  0  0  0  0  0  0  0
   39.8970   23.3680   38.6170 H   0  0  0  0  0  0  0  0  0  0  0  0
   37.7510   22.3430   35.9300 O   0  0  0  0  0  0  0  0  0  0  0  0
   39.7050   22.0780   33.8910 H   0  0  0  0  0  0  0  0  0  0  0  0
   38.7340   21.7860   33.6880 N   0  0  0  0  0  0  0  0  0  0  0  0
   37.7760   21.8980   34.6360 C   0  0  0  0  0  0  0  0  0  0  0  0
   36.6290   21.4450   34.0870 N   0  0  0  0  0  0  0  0  0  0  0  0
   36.9130   21.0690   32.8210 C   0  0  0  0  0  0  0  0  0  0  0  0
   36.0700   20.5360   31.8470 C   0  0  0  0  0  0  0  0  0  0  0  0
   36.5990   20.2360   30.6360 N   0  0  0  0  0  0  0  0  0  0  0  0
   37.9280   20.4700   30.4380 C   0  0  0  0  0  0  0  0  0  0  0  0
   38.2360   20.1920   29.4360 H   0  0  0  0  0  0  0  0  0  0  0  0
   38.7640   20.9820   31.3620 N   0  0  0  0  0  0  0  0  0  0  0  0
   38.2510   21.2800   32.5500 C   0  0  0  0  0  0  0  0  0  0  0  0
   34.6890   20.3360   32.1770 N   0  0  0  0  0  0  0  0  0  0  0  0
   34.2250   19.4660   32.5710 H   0  0  0  0  0  0  0  0  0  0  0  0
   34.1770   21.2310   31.9590 H   0  0  0  0  0  0  0  0  0  0  0  0
  2  3  1  0  0  0  0
  2  4  1  0  0  0  0
  2  5  1  1  0  0  0
  3  4  1  0  0  0  0
  3  7  1  0  0  0  0
  4  8  1  6  0  0  0
  4  1  1  0  0  0  0
  6  3  1  0  0  0  0
  9 14  1  0  0  0  0
  9  2  1  0  0  0  0
 10  9  2  0  0  0  0
 11 12  2  0  0  0  0
 11 10  1  0  0  0  0
 12 13  1  0  0  0  0
 13 15  1  0  0  0  0
 13 14  2  0  0  0  0
 15 18  1  0  0  0  0
 16 10  1  0  0  0  0
 17 11  1  0  0  0  0
 19 15  1  0  0  0  0
 21 20  2  6  0  0  0
 21  1  1  0  0  0  0
 21 22  1  0  0  0  0
 22 23  1  0  0  0  0
 24 21  1  0  0  0  0
 26 25  1  0  0  0  0
 26 27  1  0  0  0  0
 27 24  1  0  0  0  0
 28 27  2  0  0  0  0
 29 28  1  0  0  0  0
 30 36  1  0  0  0  0
 30 29  2  0  0  0  0
 31 30  1  0  0  0  0
 32 31  2  0  0  0  0
 32 34  1  0  0  0  0
 33 32  1  0  0  0  0
 34 35  2  0  0  0  0
 35 29  1  0  0  0  0
 35 26  1  0  0  0  0
 36 37  1  0  0  0  0
 38 36  1  0  0  0  0
M  END
>  <minimizedAffinity>
-5.59743166

$$$$
