
 OpenBabel03262521533D

 28 30  0  0  0  0  0  0  0  0999 V2000
   39.2150   22.1590   32.4890 S   0  0  0  0  0  0  0  0  0  0  0  0
   37.3090   24.0780   34.0600 H   0  0  0  0  0  0  0  0  0  0  0  0
   37.9720   23.6060   34.7020 N   0  0  0  0  0  0  0  0  0  0  0  0
   38.8400   22.7550   34.1240 C   0  0  0  0  0  0  0  0  0  0  0  0
   39.6200   22.2350   35.1050 N   0  0  0  0  0  0  0  0  0  0  0  0
   39.2740   22.7360   36.3040 C   0  0  0  0  0  0  0  0  0  0  0  0
   39.6770   22.6000   37.6130 C   0  0  0  0  0  0  0  0  0  0  0  0
   39.0380   23.3150   38.5740 N   0  0  0  0  0  0  0  0  0  0  0  0
   38.0170   24.1520   38.2490 C   0  0  0  0  0  0  0  0  0  0  0  0
   37.5530   24.6940   39.0840 H   0  0  0  0  0  0  0  0  0  0  0  0
   37.6060   24.2970   36.9560 N   0  0  0  0  0  0  0  0  0  0  0  0
   38.2360   23.5890   36.0010 C   0  0  0  0  0  0  0  0  0  0  0  0
   40.7530   21.7080   37.8920 N   0  0  0  0  0  0  0  0  0  0  0  0
   41.5710   22.2640   38.2170 H   0  0  0  0  0  0  0  0  0  0  0  0
   40.7780   20.6690   37.8040 H   0  0  0  0  0  0  0  0  0  0  0  0
   38.4880   23.2410   31.2100 C   0  0  0  0  0  0  0  0  0  0  0  0
   38.8200   24.2870   31.4260 H   0  0  0  0  0  0  0  0  0  0  0  0
   38.9470   22.9870   30.2270 H   0  0  0  0  0  0  0  0  0  0  0  0
   36.6940   23.1190   31.1360 S   0  0  0  0  0  0  0  0  0  0  0  0
   36.2010   21.5730   31.8580 C   0  0  0  0  0  0  0  0  0  0  0  0
   36.1600   20.4950   30.9820 C   0  0  0  0  0  0  0  0  0  0  0  0
   35.7770   19.2470   31.4950 C   0  0  0  0  0  0  0  0  0  0  0  0
   35.4630   19.1360   32.8210 N   0  0  0  0  0  0  0  0  0  0  0  0
   35.5250   20.2320   33.6180 C   0  0  0  0  0  0  0  0  0  0  0  0
   35.8830   21.4090   33.1490 N   0  0  0  0  0  0  0  0  0  0  0  0
   36.4030   20.5560   29.9310 H   0  0  0  0  0  0  0  0  0  0  0  0
   35.7290   18.3760   30.8510 H   0  0  0  0  0  0  0  0  0  0  0  0
   35.2720   20.1290   34.6710 H   0  0  0  0  0  0  0  0  0  0  0  0
  1  4  1  0  0  0  0
  2  3  1  0  0  0  0
  3 12  1  0  0  0  0
  4  3  1  0  0  0  0
  4  5  2  0  0  0  0
  5  6  1  0  0  0  0
  6  7  1  0  0  0  0
  7 13  1  0  0  0  0
  7  8  2  0  0  0  0
  9  8  1  0  0  0  0
  9 10  1  0  0  0  0
 11  9  2  0  0  0  0
 12  6  2  0  0  0  0
 12 11  1  0  0  0  0
 13 14  1  0  0  0  0
 15 13  1  0  0  0  0
 16 17  1  0  0  0  0
 16  1  1  0  0  0  0
 18 16  1  0  0  0  0
 19 16  1  0  0  0  0
 19 20  1  0  0  0  0
 20 25  1  0  0  0  0
 21 22  1  0  0  0  0
 21 20  2  0  0  0  0
 22 23  2  0  0  0  0
 23 24  1  0  0  0  0
 24 28  1  0  0  0  0
 25 24  2  0  0  0  0
 26 21  1  0  0  0  0
 27 22  1  0  0  0  0
M  END
>  <minimizedAffinity>
-4.9401083

$$$$

 OpenBabel03262521533D

 28 30  0  0  0  0  0  0  0  0999 V2000
   37.5860   24.6930   31.9210 S   0  0  0  0  0  0  0  0  0  0  0  0
   37.1980   22.2990   29.9450 H   0  0  0  0  0  0  0  0  0  0  0  0
   36.9030   22.0410   30.9040 N   0  0  0  0  0  0  0  0  0  0  0  0
   37.0290   23.0040   31.8350 C   0  0  0  0  0  0  0  0  0  0  0  0
   36.6000   22.4940   33.0160 N   0  0  0  0  0  0  0  0  0  0  0  0
   36.1980   21.2190   32.8660 C   0  0  0  0  0  0  0  0  0  0  0  0
   35.6850   20.2190   33.6590 C   0  0  0  0  0  0  0  0  0  0  0  0
   35.3970   19.0170   33.0960 N   0  0  0  0  0  0  0  0  0  0  0  0
   35.6130   18.8050   31.7700 C   0  0  0  0  0  0  0  0  0  0  0  0
   35.3540   17.8070   31.3930 H   0  0  0  0  0  0  0  0  0  0  0  0
   36.1200   19.7880   30.9710 N   0  0  0  0  0  0  0  0  0  0  0  0
   36.4070   20.9800   31.5260 C   0  0  0  0  0  0  0  0  0  0  0  0
   35.4810   20.5000   35.0410 N   0  0  0  0  0  0  0  0  0  0  0  0
   34.4590   20.4970   35.2350 H   0  0  0  0  0  0  0  0  0  0  0  0
   36.1940   20.6840   35.7810 H   0  0  0  0  0  0  0  0  0  0  0  0
   37.7990   25.2300   33.6540 C   0  0  0  0  0  0  0  0  0  0  0  0
   37.6020   26.3290   33.6920 H   0  0  0  0  0  0  0  0  0  0  0  0
   36.9950   24.7670   34.2710 H   0  0  0  0  0  0  0  0  0  0  0  0
   39.4270   24.8260   34.3090 S   0  0  0  0  0  0  0  0  0  0  0  0
   39.2310   24.1780   35.9510 C   0  0  0  0  0  0  0  0  0  0  0  0
   38.1680   24.7030   36.6740 C   0  0  0  0  0  0  0  0  0  0  0  0
   37.9640   24.2290   37.9790 C   0  0  0  0  0  0  0  0  0  0  0  0
   38.8060   23.2800   38.4860 N   0  0  0  0  0  0  0  0  0  0  0  0
   39.8250   22.8130   37.7220 C   0  0  0  0  0  0  0  0  0  0  0  0
   40.0280   23.2480   36.4960 N   0  0  0  0  0  0  0  0  0  0  0  0
   37.4880   25.4540   36.2960 H   0  0  0  0  0  0  0  0  0  0  0  0
   37.1470   24.6090   38.5820 H   0  0  0  0  0  0  0  0  0  0  0  0
   40.4880   22.0570   38.1390 H   0  0  0  0  0  0  0  0  0  0  0  0
  1 16  1  0  0  0  0
  2  3  1  0  0  0  0
  3 12  1  0  0  0  0
  3  4  1  0  0  0  0
  4  1  1  0  0  0  0
  4  5  2  0  0  0  0
  6  5  1  0  0  0  0
  6  7  1  0  0  0  0
  7 13  1  0  0  0  0
  8  7  2  0  0  0  0
  9  8  1  0  0  0  0
 10  9  1  0  0  0  0
 11 12  1  0  0  0  0
 11  9  2  0  0  0  0
 12  6  2  0  0  0  0
 13 14  1  0  0  0  0
 13 15  1  0  0  0  0
 16 17  1  0  0  0  0
 16 18  1  0  0  0  0
 16 19  1  0  0  0  0
 19 20  1  0  0  0  0
 20 25  2  0  0  0  0
 20 21  1  0  0  0  0
 21 22  2  0  0  0  0
 22 23  1  0  0  0  0
 22 27  1  0  0  0  0
 24 28  1  0  0  0  0
 24 23  2  0  0  0  0
 25 24  1  0  0  0  0
 26 21  1  0  0  0  0
M  END
>  <minimizedAffinity>
-4.7241087

$$$$

 OpenBabel03262521533D

 28 30  0  0  0  0  0  0  0  0999 V2000
   37.2690   26.6040   34.8590 S   0  0  0  0  0  0  0  0  0  0  0  0
   39.5990   24.9570   33.5760 H   0  0  0  0  0  0  0  0  0  0  0  0
   39.4060   24.6370   34.5430 N   0  0  0  0  0  0  0  0  0  0  0  0
   38.4170   25.2830   35.1870 C   0  0  0  0  0  0  0  0  0  0  0  0
   38.3060   24.7380   36.4240 N   0  0  0  0  0  0  0  0  0  0  0  0
   39.2040   23.7510   36.5910 C   0  0  0  0  0  0  0  0  0  0  0  0
   39.5650   22.8660   37.5810 C   0  0  0  0  0  0  0  0  0  0  0  0
   40.5720   21.9870   37.3420 N   0  0  0  0  0  0  0  0  0  0  0  0
   41.2140   21.9820   36.1430 C   0  0  0  0  0  0  0  0  0  0  0  0
   42.0160   21.2400   36.0300 H   0  0  0  0  0  0  0  0  0  0  0  0
   40.8680   22.8530   35.1520 N   0  0  0  0  0  0  0  0  0  0  0  0
   39.8710   23.7260   35.3860 C   0  0  0  0  0  0  0  0  0  0  0  0
   38.8550   22.9200   38.8160 N   0  0  0  0  0  0  0  0  0  0  0  0
   38.3030   22.0440   38.9210 H   0  0  0  0  0  0  0  0  0  0  0  0
   38.8500   23.6780   39.5330 H   0  0  0  0  0  0  0  0  0  0  0  0
   37.5770   27.3530   33.2210 C   0  0  0  0  0  0  0  0  0  0  0  0
   37.5290   28.4630   33.3440 H   0  0  0  0  0  0  0  0  0  0  0  0
   38.6280   27.1370   32.9230 H   0  0  0  0  0  0  0  0  0  0  0  0
   36.4200   26.7750   31.9670 S   0  0  0  0  0  0  0  0  0  0  0  0
   36.7010   25.0440   31.6920 C   0  0  0  0  0  0  0  0  0  0  0  0
   35.5640   24.2930   31.4200 C   0  0  0  0  0  0  0  0  0  0  0  0
   35.7240   22.9180   31.1940 C   0  0  0  0  0  0  0  0  0  0  0  0
   36.9750   22.3720   31.2490 N   0  0  0  0  0  0  0  0  0  0  0  0
   38.0410   23.1650   31.5220 C   0  0  0  0  0  0  0  0  0  0  0  0
   37.9050   24.4570   31.7350 N   0  0  0  0  0  0  0  0  0  0  0  0
   34.5640   24.7020   31.3700 H   0  0  0  0  0  0  0  0  0  0  0  0
   34.8660   22.2910   30.9770 H   0  0  0  0  0  0  0  0  0  0  0  0
   39.0310   22.7160   31.5630 H   0  0  0  0  0  0  0  0  0  0  0  0
  1  4  1  0  0  0  0
  2  3  1  0  0  0  0
  3  4  1  0  0  0  0
  3 12  1  0  0  0  0
  4  5  2  0  0  0  0
  5  6  1  0  0  0  0
  6  7  1  0  0  0  0
  7 13  1  0  0  0  0
  8  7  2  0  0  0  0
  9  8  1  0  0  0  0
 10  9  1  0  0  0  0
 11 12  1  0  0  0  0
 11  9  2  0  0  0  0
 12  6  2  0  0  0  0
 13 14  1  0  0  0  0
 13 15  1  0  0  0  0
 16 17  1  0  0  0  0
 16  1  1  0  0  0  0
 18 16  1  0  0  0  0
 19 16  1  0  0  0  0
 20 25  1  0  0  0  0
 20 19  1  0  0  0  0
 21 20  2  0  0  0  0
 22 23  2  0  0  0  0
 22 21  1  0  0  0  0
 23 24  1  0  0  0  0
 24 28  1  0  0  0  0
 24 25  2  0  0  0  0
 26 21  1  0  0  0  0
 27 22  1  0  0  0  0
M  END
>  <minimizedAffinity>
-4.70885372

$$$$

 OpenBabel03262521533D

 28 30  0  0  0  0  0  0  0  0999 V2000
   39.4200   23.5480   32.5610 S   0  0  0  0  0  0  0  0  0  0  0  0
   37.5510   25.1660   34.4770 H   0  0  0  0  0  0  0  0  0  0  0  0
   38.1550   24.5140   35.0100 N   0  0  0  0  0  0  0  0  0  0  0  0
   39.0010   23.7670   34.2770 C   0  0  0  0  0  0  0  0  0  0  0  0
   39.7030   22.9820   35.1310 N   0  0  0  0  0  0  0  0  0  0  0  0
   39.3280   23.2080   36.4030 C   0  0  0  0  0  0  0  0  0  0  0  0
   39.6590   22.7420   37.6550 C   0  0  0  0  0  0  0  0  0  0  0  0
   39.0150   23.2520   38.7360 N   0  0  0  0  0  0  0  0  0  0  0  0
   38.0590   24.2070   38.5850 C   0  0  0  0  0  0  0  0  0  0  0  0
   37.5870   24.5670   39.5090 H   0  0  0  0  0  0  0  0  0  0  0  0
   37.7190   24.6780   37.3500 N   0  0  0  0  0  0  0  0  0  0  0  0
   38.3550   24.1750   36.2770 C   0  0  0  0  0  0  0  0  0  0  0  0
   40.6690   21.7410   37.7500 N   0  0  0  0  0  0  0  0  0  0  0  0
   41.4990   22.1500   38.2260 H   0  0  0  0  0  0  0  0  0  0  0  0
   40.6400   20.7520   37.4190 H   0  0  0  0  0  0  0  0  0  0  0  0
   38.2360   24.4190   31.4760 C   0  0  0  0  0  0  0  0  0  0  0  0
   38.2180   23.8810   30.4970 H   0  0  0  0  0  0  0  0  0  0  0  0
   37.2120   24.2960   31.8970 H   0  0  0  0  0  0  0  0  0  0  0  0
   38.6410   26.1610   31.2660 S   0  0  0  0  0  0  0  0  0  0  0  0
   37.6020   27.1180   32.3430 C   0  0  0  0  0  0  0  0  0  0  0  0
   36.6960   27.9560   31.7040 C   0  0  0  0  0  0  0  0  0  0  0  0
   35.8490   28.7370   32.5030 C   0  0  0  0  0  0  0  0  0  0  0  0
   35.9420   28.6480   33.8630 N   0  0  0  0  0  0  0  0  0  0  0  0
   36.8510   27.8080   34.4190 C   0  0  0  0  0  0  0  0  0  0  0  0
   37.6520   27.0690   33.6810 N   0  0  0  0  0  0  0  0  0  0  0  0
   36.6030   28.0430   30.6300 H   0  0  0  0  0  0  0  0  0  0  0  0
   35.1250   29.4060   32.0500 H   0  0  0  0  0  0  0  0  0  0  0  0
   36.9140   27.7480   35.5030 H   0  0  0  0  0  0  0  0  0  0  0  0
  1  4  1  0  0  0  0
  2  3  1  0  0  0  0
  3 12  1  0  0  0  0
  4  3  1  0  0  0  0
  4  5  2  0  0  0  0
  5  6  1  0  0  0  0
  6  7  1  0  0  0  0
  7 13  1  0  0  0  0
  7  8  2  0  0  0  0
  9  8  1  0  0  0  0
  9 10  1  0  0  0  0
 11  9  2  0  0  0  0
 12  6  2  0  0  0  0
 12 11  1  0  0  0  0
 13 14  1  0  0  0  0
 15 13  1  0  0  0  0
 16 18  1  0  0  0  0
 16  1  1  0  0  0  0
 17 16  1  0  0  0  0
 19 16  1  0  0  0  0
 19 20  1  0  0  0  0
 20 25  1  0  0  0  0
 21 20  2  0  0  0  0
 21 22  1  0  0  0  0
 22 23  2  0  0  0  0
 23 24  1  0  0  0  0
 24 28  1  0  0  0  0
 25 24  2  0  0  0  0
 26 21  1  0  0  0  0
 27 22  1  0  0  0  0
M  END
>  <minimizedAffinity>
-4.6911931

$$$$

 OpenBabel03262521533D

 28 30  0  0  0  0  0  0  0  0999 V2000
   37.2290   22.4660   31.5070 S   0  0  0  0  0  0  0  0  0  0  0  0
   36.4840   24.8160   29.5820 H   0  0  0  0  0  0  0  0  0  0  0  0
   36.6150   25.1580   30.5520 N   0  0  0  0  0  0  0  0  0  0  0  0
   36.9400   24.2220   31.4630 C   0  0  0  0  0  0  0  0  0  0  0  0
   37.0700   24.8440   32.6620 N   0  0  0  0  0  0  0  0  0  0  0  0
   36.8370   26.1630   32.5420 C   0  0  0  0  0  0  0  0  0  0  0  0
   36.8170   27.2660   33.3630 C   0  0  0  0  0  0  0  0  0  0  0  0
   36.5210   28.4790   32.8280 N   0  0  0  0  0  0  0  0  0  0  0  0
   36.2470   28.6000   31.5010 C   0  0  0  0  0  0  0  0  0  0  0  0
   36.0180   29.6130   31.1470 H   0  0  0  0  0  0  0  0  0  0  0  0
   36.2620   27.5150   30.6740 N   0  0  0  0  0  0  0  0  0  0  0  0
   36.5550   26.3120   31.2020 C   0  0  0  0  0  0  0  0  0  0  0  0
   37.1120   27.0770   34.7450 N   0  0  0  0  0  0  0  0  0  0  0  0
   38.0150   27.5480   34.9610 H   0  0  0  0  0  0  0  0  0  0  0  0
   36.5590   26.5650   35.4650 H   0  0  0  0  0  0  0  0  0  0  0  0
   37.4370   21.8760   33.2230 C   0  0  0  0  0  0  0  0  0  0  0  0
   36.7760   22.4980   33.8760 H   0  0  0  0  0  0  0  0  0  0  0  0
   37.0290   20.8420   33.2960 H   0  0  0  0  0  0  0  0  0  0  0  0
   39.1510   21.9330   33.7720 S   0  0  0  0  0  0  0  0  0  0  0  0
   39.1820   22.4060   35.4840 C   0  0  0  0  0  0  0  0  0  0  0  0
   38.0620   23.0960   35.9300 C   0  0  0  0  0  0  0  0  0  0  0  0
   38.0290   23.4960   37.2740 C   0  0  0  0  0  0  0  0  0  0  0  0
   39.0860   23.1970   38.0870 N   0  0  0  0  0  0  0  0  0  0  0  0
   40.1490   22.5200   37.5820 C   0  0  0  0  0  0  0  0  0  0  0  0
   40.1910   22.1390   36.3230 N   0  0  0  0  0  0  0  0  0  0  0  0
   37.2130   23.3440   35.3080 H   0  0  0  0  0  0  0  0  0  0  0  0
   37.1770   24.0370   37.6680 H   0  0  0  0  0  0  0  0  0  0  0  0
   40.9830   22.2900   38.2410 H   0  0  0  0  0  0  0  0  0  0  0  0
  1 16  1  0  0  0  0
  2  3  1  0  0  0  0
  3 12  1  0  0  0  0
  3  4  1  0  0  0  0
  4  1  1  0  0  0  0
  4  5  2  0  0  0  0
  6  5  1  0  0  0  0
  6  7  1  0  0  0  0
  7 13  1  0  0  0  0
  8  7  2  0  0  0  0
  9  8  1  0  0  0  0
 10  9  1  0  0  0  0
 11 12  1  0  0  0  0
 11  9  2  0  0  0  0
 12  6  2  0  0  0  0
 13 14  1  0  0  0  0
 13 15  1  0  0  0  0
 16 18  1  0  0  0  0
 16 19  1  0  0  0  0
 16 17  1  0  0  0  0
 19 20  1  0  0  0  0
 20 21  2  0  0  0  0
 20 25  1  0  0  0  0
 21 22  1  0  0  0  0
 22 27  1  0  0  0  0
 22 23  2  0  0  0  0
 24 23  1  0  0  0  0
 24 28  1  0  0  0  0
 25 24  2  0  0  0  0
 26 21  1  0  0  0  0
M  END
>  <minimizedAffinity>
-4.58729649

$$$$

 OpenBabel03262521533D

 28 30  0  0  0  0  0  0  0  0999 V2000
   36.1270   29.8650   31.0740 S   0  0  0  0  0  0  0  0  0  0  0  0
   35.4360   27.1850   29.6180 H   0  0  0  0  0  0  0  0  0  0  0  0
   35.9370   27.0050   30.5080 N   0  0  0  0  0  0  0  0  0  0  0  0
   36.2810   28.0970   31.2150 C   0  0  0  0  0  0  0  0  0  0  0  0
   36.9200   27.6760   32.3350 N   0  0  0  0  0  0  0  0  0  0  0  0
   36.9940   26.3340   32.3660 C   0  0  0  0  0  0  0  0  0  0  0  0
   37.4990   25.3660   33.2020 C   0  0  0  0  0  0  0  0  0  0  0  0
   37.3620   24.0600   32.8540 N   0  0  0  0  0  0  0  0  0  0  0  0
   36.7370   23.7150   31.6970 C   0  0  0  0  0  0  0  0  0  0  0  0
   36.6670   22.6390   31.4890 H   0  0  0  0  0  0  0  0  0  0  0  0
   36.2310   24.6640   30.8570 N   0  0  0  0  0  0  0  0  0  0  0  0
   36.3640   25.9580   31.1990 C   0  0  0  0  0  0  0  0  0  0  0  0
   38.1440   25.7880   34.4010 N   0  0  0  0  0  0  0  0  0  0  0  0
   37.5680   25.4880   35.2130 H   0  0  0  0  0  0  0  0  0  0  0  0
   39.0400   26.3120   34.5090 H   0  0  0  0  0  0  0  0  0  0  0  0
   34.4970   30.4350   31.6710 C   0  0  0  0  0  0  0  0  0  0  0  0
   34.5860   31.5240   31.9040 H   0  0  0  0  0  0  0  0  0  0  0  0
   33.7690   30.3740   30.8300 H   0  0  0  0  0  0  0  0  0  0  0  0
   33.9160   29.4990   33.0960 S   0  0  0  0  0  0  0  0  0  0  0  0
   34.2760   30.4260   34.5670 C   0  0  0  0  0  0  0  0  0  0  0  0
   35.6180   30.7260   34.7670 C   0  0  0  0  0  0  0  0  0  0  0  0
   35.9640   31.4570   35.9140 C   0  0  0  0  0  0  0  0  0  0  0  0
   34.9820   31.8430   36.7820 N   0  0  0  0  0  0  0  0  0  0  0  0
   33.6910   31.5150   36.5230 C   0  0  0  0  0  0  0  0  0  0  0  0
   33.3530   30.8300   35.4510 N   0  0  0  0  0  0  0  0  0  0  0  0
   36.4130   30.4320   34.0960 H   0  0  0  0  0  0  0  0  0  0  0  0
   36.9980   31.7140   36.1130 H   0  0  0  0  0  0  0  0  0  0  0  0
   32.9200   31.8290   37.2230 H   0  0  0  0  0  0  0  0  0  0  0  0
  1  4  1  0  0  0  0
  1 16  1  0  0  0  0
  2  3  1  0  0  0  0
  3 12  1  0  0  0  0
  3  4  1  0  0  0  0
  4  5  2  0  0  0  0
  5  6  1  0  0  0  0
  6  7  1  0  0  0  0
  7 13  1  0  0  0  0
  8  7  2  0  0  0  0
  9  8  1  0  0  0  0
 10  9  1  0  0  0  0
 11 12  1  0  0  0  0
 11  9  2  0  0  0  0
 12  6  2  0  0  0  0
 13 15  1  0  0  0  0
 13 14  1  0  0  0  0
 16 17  1  0  0  0  0
 16 19  1  0  0  0  0
 18 16  1  0  0  0  0
 19 20  1  0  0  0  0
 20 21  2  0  0  0  0
 20 25  1  0  0  0  0
 21 22  1  0  0  0  0
 22 27  1  0  0  0  0
 22 23  2  0  0  0  0
 24 23  1  0  0  0  0
 24 28  1  0  0  0  0
 25 24  2  0  0  0  0
 26 21  1  0  0  0  0
M  END
>  <minimizedAffinity>
-4.49409437

$$$$

 OpenBabel03262521533D

 28 30  0  0  0  0  0  0  0  0999 V2000
   37.7940   25.6840   32.9230 S   0  0  0  0  0  0  0  0  0  0  0  0
   40.7650   24.8190   33.3740 H   0  0  0  0  0  0  0  0  0  0  0  0
   40.1640   24.5060   34.1580 N   0  0  0  0  0  0  0  0  0  0  0  0
   38.8610   24.8280   34.0620 C   0  0  0  0  0  0  0  0  0  0  0  0
   38.2350   24.3440   35.1630 N   0  0  0  0  0  0  0  0  0  0  0  0
   39.1080   23.7140   35.9690 C   0  0  0  0  0  0  0  0  0  0  0  0
   39.0780   23.0480   37.1730 C   0  0  0  0  0  0  0  0  0  0  0  0
   40.2320   22.5340   37.6690 N   0  0  0  0  0  0  0  0  0  0  0  0
   41.4000   22.6740   36.9860 C   0  0  0  0  0  0  0  0  0  0  0  0
   42.2880   22.2290   37.4540 H   0  0  0  0  0  0  0  0  0  0  0  0
   41.4470   23.3300   35.7910 N   0  0  0  0  0  0  0  0  0  0  0  0
   40.3050   23.8420   35.2970 C   0  0  0  0  0  0  0  0  0  0  0  0
   37.8240   22.9340   37.8410 N   0  0  0  0  0  0  0  0  0  0  0  0
   37.5390   21.9330   37.8460 H   0  0  0  0  0  0  0  0  0  0  0  0
   37.2440   23.6860   38.2730 H   0  0  0  0  0  0  0  0  0  0  0  0
   37.4610   24.6690   31.4410 C   0  0  0  0  0  0  0  0  0  0  0  0
   37.6590   25.3070   30.5450 H   0  0  0  0  0  0  0  0  0  0  0  0
   38.2190   23.8530   31.3920 H   0  0  0  0  0  0  0  0  0  0  0  0
   35.7900   23.9990   31.4200 S   0  0  0  0  0  0  0  0  0  0  0  0
   35.8820   22.2420   31.6580 C   0  0  0  0  0  0  0  0  0  0  0  0
   36.9680   21.6170   31.0580 C   0  0  0  0  0  0  0  0  0  0  0  0
   37.0930   20.2280   31.2110 C   0  0  0  0  0  0  0  0  0  0  0  0
   36.1550   19.5470   31.9340 N   0  0  0  0  0  0  0  0  0  0  0  0
   35.1190   20.2230   32.4920 C   0  0  0  0  0  0  0  0  0  0  0  0
   34.9900   21.5260   32.3570 N   0  0  0  0  0  0  0  0  0  0  0  0
   37.7230   22.1320   30.4810 H   0  0  0  0  0  0  0  0  0  0  0  0
   37.9230   19.6960   30.7610 H   0  0  0  0  0  0  0  0  0  0  0  0
   34.3800   19.6680   33.0650 H   0  0  0  0  0  0  0  0  0  0  0  0
  1  4  1  0  0  0  0
  2  3  1  0  0  0  0
  3 12  1  0  0  0  0
  4  3  1  0  0  0  0
  4  5  2  0  0  0  0
  5  6  1  0  0  0  0
  6  7  1  0  0  0  0
  7  8  2  0  0  0  0
  7 13  1  0  0  0  0
  9 10  1  0  0  0  0
  9  8  1  0  0  0  0
 11  9  2  0  0  0  0
 12 11  1  0  0  0  0
 12  6  2  0  0  0  0
 13 14  1  0  0  0  0
 13 15  1  0  0  0  0
 16  1  1  0  0  0  0
 17 16  1  0  0  0  0
 18 16  1  0  0  0  0
 19 16  1  0  0  0  0
 19 20  1  0  0  0  0
 20 25  1  0  0  0  0
 21 22  1  0  0  0  0
 21 20  2  0  0  0  0
 22 23  2  0  0  0  0
 23 24  1  0  0  0  0
 24 28  1  0  0  0  0
 25 24  2  0  0  0  0
 26 21  1  0  0  0  0
 27 22  1  0  0  0  0
M  END
>  <minimizedAffinity>
-4.47823286

$$$$

 OpenBabel03262521533D

 28 30  0  0  0  0  0  0  0  0999 V2000
   37.5570   26.1490   34.4370 S   0  0  0  0  0  0  0  0  0  0  0  0
   40.1520   24.6300   33.5770 H   0  0  0  0  0  0  0  0  0  0  0  0
   39.8530   24.3450   34.5280 N   0  0  0  0  0  0  0  0  0  0  0  0
   38.7410   24.9430   34.9940 C   0  0  0  0  0  0  0  0  0  0  0  0
   38.5040   24.4550   36.2380 N   0  0  0  0  0  0  0  0  0  0  0  0
   39.4390   23.5520   36.5820 C   0  0  0  0  0  0  0  0  0  0  0  0
   39.7250   22.7510   37.6630 C   0  0  0  0  0  0  0  0  0  0  0  0
   40.8160   21.9440   37.6140 N   0  0  0  0  0  0  0  0  0  0  0  0
   41.6140   21.9280   36.5130 C   0  0  0  0  0  0  0  0  0  0  0  0
   42.4750   21.2480   36.5510 H   0  0  0  0  0  0  0  0  0  0  0  0
   41.3440   22.7170   35.4320 N   0  0  0  0  0  0  0  0  0  0  0  0
   40.2640   23.5180   35.4790 C   0  0  0  0  0  0  0  0  0  0  0  0
   38.8520   22.8110   38.7880 N   0  0  0  0  0  0  0  0  0  0  0  0
   38.3550   21.9010   38.8740 H   0  0  0  0  0  0  0  0  0  0  0  0
   38.6940   23.6020   39.4500 H   0  0  0  0  0  0  0  0  0  0  0  0
   36.9620   25.7600   32.7540 C   0  0  0  0  0  0  0  0  0  0  0  0
   37.0240   24.6520   32.6240 H   0  0  0  0  0  0  0  0  0  0  0  0
   35.8760   26.0000   32.6970 H   0  0  0  0  0  0  0  0  0  0  0  0
   37.8840   26.6300   31.4750 S   0  0  0  0  0  0  0  0  0  0  0  0
   37.0890   28.1860   31.1640 C   0  0  0  0  0  0  0  0  0  0  0  0
   37.5480   28.8760   30.0480 C   0  0  0  0  0  0  0  0  0  0  0  0
   36.9580   30.1130   29.7520 C   0  0  0  0  0  0  0  0  0  0  0  0
   35.9640   30.5910   30.5600 N   0  0  0  0  0  0  0  0  0  0  0  0
   35.5660   29.8640   31.6340 C   0  0  0  0  0  0  0  0  0  0  0  0
   36.1110   28.7010   31.9230 N   0  0  0  0  0  0  0  0  0  0  0  0
   38.3320   28.5200   29.3940 H   0  0  0  0  0  0  0  0  0  0  0  0
   37.2830   30.6880   28.8930 H   0  0  0  0  0  0  0  0  0  0  0  0
   34.7740   30.2570   32.2680 H   0  0  0  0  0  0  0  0  0  0  0  0
  1  4  1  0  0  0  0
  2  3  1  0  0  0  0
  3  4  1  0  0  0  0
  3 12  1  0  0  0  0
  4  5  2  0  0  0  0
  5  6  1  0  0  0  0
  6  7  1  0  0  0  0
  7 13  1  0  0  0  0
  8  7  2  0  0  0  0
  9 10  1  0  0  0  0
  9  8  1  0  0  0  0
 11 12  1  0  0  0  0
 11  9  2  0  0  0  0
 12  6  2  0  0  0  0
 13 14  1  0  0  0  0
 13 15  1  0  0  0  0
 16  1  1  0  0  0  0
 17 16  1  0  0  0  0
 18 16  1  0  0  0  0
 19 16  1  0  0  0  0
 20 19  1  0  0  0  0
 20 25  1  0  0  0  0
 21 20  2  0  0  0  0
 22 21  1  0  0  0  0
 22 23  2  0  0  0  0
 23 24  1  0  0  0  0
 24 25  2  0  0  0  0
 24 28  1  0  0  0  0
 26 21  1  0  0  0  0
 27 22  1  0  0  0  0
M  END
>  <minimizedAffinity>
-4.45636177

$$$$

 OpenBabel03262521533D

 28 30  0  0  0  0  0  0  0  0999 V2000
   38.0550   26.2560   32.9780 S   0  0  0  0  0  0  0  0  0  0  0  0
   36.8960   26.2600   35.8830 H   0  0  0  0  0  0  0  0  0  0  0  0
   37.6470   25.5510   35.7830 N   0  0  0  0  0  0  0  0  0  0  0  0
   38.2140   25.4680   34.5660 C   0  0  0  0  0  0  0  0  0  0  0  0
   39.1630   24.5000   34.6200 N   0  0  0  0  0  0  0  0  0  0  0  0
   39.2200   23.9570   35.8490 C   0  0  0  0  0  0  0  0  0  0  0  0
   39.9430   22.9800   36.4920 C   0  0  0  0  0  0  0  0  0  0  0  0
   39.6820   22.7220   37.8000 N   0  0  0  0  0  0  0  0  0  0  0  0
   38.7200   23.4180   38.4630 C   0  0  0  0  0  0  0  0  0  0  0  0
   38.5710   23.1500   39.5170 H   0  0  0  0  0  0  0  0  0  0  0  0
   37.9940   24.3900   37.8380 N   0  0  0  0  0  0  0  0  0  0  0  0
   38.2500   24.6480   36.5430 C   0  0  0  0  0  0  0  0  0  0  0  0
   40.9380   22.2840   35.7450 N   0  0  0  0  0  0  0  0  0  0  0  0
   41.8750   22.5320   36.1250 H   0  0  0  0  0  0  0  0  0  0  0  0
   40.8110   21.6260   34.9460 H   0  0  0  0  0  0  0  0  0  0  0  0
   36.6140   25.6070   32.0610 C   0  0  0  0  0  0  0  0  0  0  0  0
   35.8730   25.2420   32.8140 H   0  0  0  0  0  0  0  0  0  0  0  0
   36.1100   26.4540   31.5430 H   0  0  0  0  0  0  0  0  0  0  0  0
   37.0630   24.3120   30.8930 S   0  0  0  0  0  0  0  0  0  0  0  0
   36.8340   22.7360   31.6790 C   0  0  0  0  0  0  0  0  0  0  0  0
   35.5140   22.3230   31.8090 C   0  0  0  0  0  0  0  0  0  0  0  0
   35.2710   21.0850   32.4230 C   0  0  0  0  0  0  0  0  0  0  0  0
   36.3260   20.3390   32.8660 N   0  0  0  0  0  0  0  0  0  0  0  0
   37.5900   20.8060   32.7060 C   0  0  0  0  0  0  0  0  0  0  0  0
   37.8320   21.9660   32.1310 N   0  0  0  0  0  0  0  0  0  0  0  0
   34.6620   22.8940   31.4670 H   0  0  0  0  0  0  0  0  0  0  0  0
   34.2580   20.7200   32.5470 H   0  0  0  0  0  0  0  0  0  0  0  0
   38.4210   20.2010   33.0640 H   0  0  0  0  0  0  0  0  0  0  0  0
  1  4  1  0  0  0  0
  3  2  1  0  0  0  0
  3 12  1  0  0  0  0
  4  5  2  0  0  0  0
  4  3  1  0  0  0  0
  5  6  1  0  0  0  0
  6  7  2  0  0  0  0
  6 12  1  0  0  0  0
  7  8  1  0  0  0  0
  8  9  2  0  0  0  0
  9 10  1  0  0  0  0
 11  9  1  0  0  0  0
 12 11  2  0  0  0  0
 13 14  1  0  0  0  0
 13  7  1  0  0  0  0
 15 13  1  0  0  0  0
 16 17  1  0  0  0  0
 16  1  1  0  0  0  0
 18 16  1  0  0  0  0
 19 20  1  0  0  0  0
 19 16  1  0  0  0  0
 20 21  2  0  0  0  0
 20 25  1  0  0  0  0
 21 22  1  0  0  0  0
 22 27  1  0  0  0  0
 22 23  2  0  0  0  0
 24 23  1  0  0  0  0
 24 28  1  0  0  0  0
 25 24  2  0  0  0  0
 26 21  1  0  0  0  0
M  END
>  <minimizedAffinity>
-4.42696857

$$$$
