REMARK  Name = 
REMARK  6 active torsions:
REMARK  status: ('A' for Active; 'I' for Inactive)
REMARK    1  A    between atoms: C_1  and  C_4
REMARK    2  A    between atoms: C_2  and  C_11
REMARK    3  A    between atoms: C_10  and  O_15
REMARK    4  A    between atoms: C_14  and  O_16
REMARK    5  A    between atoms: O_16  and  C_32
REMARK    6  A    between atoms: C_35  and  N_36
REMARK                            x       y       z     vdW  Elec       q    Type
REMARK                         _______ _______ _______ _____ _____    ______ ____
ROOT
ATOM      1  C   UNL     1      33.964  29.078  47.377  0.00  0.00    +0.000 C 
ATOM      2  C   UNL     1      34.742  28.282  48.411  0.00  0.00    +0.000 C 
ATOM      3  O   UNL     1      33.874  28.066  49.444  0.00  0.00    +0.000 OA
ATOM      4  C   UNL     1      32.584  28.127  49.004  0.00  0.00    +0.000 C 
ATOM      5  C   UNL     1      32.603  28.392  47.515  0.00  0.00    +0.000 C 
ATOM      6  H   UNL     1      33.822  30.126  47.673  0.00  0.00    +0.000 HD
ATOM      7  H   UNL     1      35.035  27.341  47.892  0.00  0.00    +0.000 HD
ATOM      8  H   UNL     1      32.082  27.124  49.132  0.00  0.00    +0.000 HD
ATOM      9  H   UNL     1      32.015  28.869  49.575  0.00  0.00    +0.000 HD
ATOM     10  H   UNL     1      32.700  27.426  46.973  0.00  0.00    +0.000 HD
ENDROOT
BRANCH   2  12
ATOM     11  C   UNL     1      35.816  30.544  49.068  0.00  0.00    +0.000 C 
ATOM     12  C   UNL     1      35.904  29.122  48.837  0.00  0.00    +0.000 C 
ATOM     13  C   UNL     1      36.060  29.590  50.248  0.00  0.00    +0.000 C 
ATOM     14  H   UNL     1      34.907  31.148  49.252  0.00  0.00    +0.000 HD
ATOM     15  H   UNL     1      36.871  28.760  48.380  0.00  0.00    +0.000 HD
ATOM     16  H   UNL     1      35.193  29.323  50.887  0.00  0.00    +0.000 HD
ATOM     17  H   UNL     1      37.046  29.598  50.734  0.00  0.00    +0.000 HD
BRANCH  11  18
ATOM     18  C   UNL     1      37.008  31.456  48.825  0.00  0.00    +0.000 A 
ATOM     19  C   UNL     1      37.181  32.527  49.702  0.00  0.00    +0.000 A 
ATOM     20  C   UNL     1      38.271  33.340  49.413  0.00  0.00    +0.000 A 
ATOM     21  N   UNL     1      39.090  33.082  48.344  0.00  0.00    +0.000 NA
ATOM     22  C   UNL     1      38.876  32.027  47.523  0.00  0.00    +0.000 A 
ATOM     23  N   UNL     1      37.825  31.208  47.768  0.00  0.00    +0.000 NA
ATOM     24  H   UNL     1      36.528  32.700  50.522  0.00  0.00    +0.000 HD
ATOM     25  H   UNL     1      38.494  34.197  50.031  0.00  0.00    +0.000 HD
ATOM     26  H   UNL     1      39.551  31.870  46.696  0.00  0.00    +0.000 HD
ENDBRANCH  11  18
ENDBRANCH   2  12
BRANCH   1  27
ATOM     27  O   UNL     1      34.466  28.959  46.095  0.00  0.00    +0.000 OA
ATOM     28  H   UNL     1      33.813  29.334  45.482  0.00  0.00    +0.000 HD
ENDBRANCH   1  27
BRANCH   5  29
ATOM     29  O   UNL     1      31.582  29.174  47.049  0.00  0.00    +0.000 OA
BRANCH  29  32
ATOM     30  H   UNL     1      32.092  27.956  44.526  0.00  0.00    +0.000 HD
ATOM     31  N   UNL     1      31.125  28.174  44.831  0.00  0.00    +0.000 N 
ATOM     32  C   UNL     1      30.781  28.746  45.998  0.00  0.00    +0.000 A 
ATOM     33  N   UNL     1      29.436  28.832  45.954  0.00  0.00    +0.000 NA
ATOM     34  C   UNL     1      28.955  28.330  44.799  0.00  0.00    +0.000 A 
ATOM     35  C   UNL     1      27.689  28.184  44.272  0.00  0.00    +0.000 A 
ATOM     36  N   UNL     1      27.478  27.632  43.056  0.00  0.00    +0.000 NA
ATOM     37  C   UNL     1      28.567  27.221  42.360  0.00  0.00    +0.000 A 
ATOM     38  H   UNL     1      28.609  26.760  41.379  0.00  0.00    +0.000 HD
ATOM     39  N   UNL     1      29.813  27.358  42.863  0.00  0.00    +0.000 NA
ATOM     40  C   UNL     1      30.054  27.903  44.069  0.00  0.00    +0.000 A 
BRANCH  35  41
ATOM     41  N   UNL     1      26.567  28.626  45.030  0.00  0.00    +0.000 N 
ATOM     42  H   UNL     1      25.789  28.017  45.414  0.00  0.00    +0.000 HD
ATOM     43  H   UNL     1      26.557  29.641  45.193  0.00  0.00    +0.000 HD
ENDBRANCH  35  41
ENDBRANCH  29  32
ENDBRANCH   5  29
TORSDOF 6
