
     RDKit          3D

 43 47  0  0  0  0  0  0  0  0999 V2000
   35.8161   30.5440   49.0682 C   0  0  1  0  0  0  0  0  0  0  0  0
   35.9038   29.1218   48.8372 C   0  0  1  0  0  0  0  0  0  0  0  0
   36.0602   29.5895   50.2480 C   0  0  0  0  0  0  0  0  0  0  0  0
   37.0077   31.4558   48.8245 C   0  0  0  0  0  0  0  0  0  0  0  0
   37.1815   32.5269   49.7015 C   0  0  0  0  0  0  0  0  0  0  0  0
   38.2713   33.3404   49.4134 C   0  0  0  0  0  0  0  0  0  0  0  0
   39.0898   33.0816   48.3437 N   0  0  0  0  0  0  0  0  0  0  0  0
   38.8760   32.0271   47.5229 C   0  0  0  0  0  0  0  0  0  0  0  0
   37.8250   31.2084   47.7680 N   0  0  0  0  0  0  0  0  0  0  0  0
   33.9635   29.0777   47.3769 C   0  0  2  0  0  0  0  0  0  0  0  0
   34.7423   28.2815   48.4113 C   0  0  2  0  0  0  0  0  0  0  0  0
   33.8738   28.0664   49.4444 O   0  0  0  0  0  0  0  0  0  0  0  0
   32.5844   28.1270   49.0035 C   0  0  0  0  0  0  0  0  0  0  0  0
   32.6029   28.3918   47.5147 C   0  0  1  0  0  0  0  0  0  0  0  0
   34.4657   28.9590   46.0948 O   0  0  0  0  0  0  0  0  0  0  0  0
   31.5821   29.1740   47.0490 O   0  0  0  0  0  0  0  0  0  0  0  0
   34.9070   31.1475   49.2519 H   0  0  0  0  0  0  0  0  0  0  0  0
   36.8706   28.7598   48.3796 H   0  0  0  0  0  0  0  0  0  0  0  0
   35.1934   29.3227   50.8868 H   0  0  0  0  0  0  0  0  0  0  0  0
   37.0463   29.5976   50.7337 H   0  0  0  0  0  0  0  0  0  0  0  0
   36.5284   32.7004   50.5222 H   0  0  0  0  0  0  0  0  0  0  0  0
   38.4943   34.1970   50.0313 H   0  0  0  0  0  0  0  0  0  0  0  0
   39.5508   31.8698   46.6959 H   0  0  0  0  0  0  0  0  0  0  0  0
   33.8221   30.1260   47.6727 H   0  0  0  0  0  0  0  0  0  0  0  0
   35.0353   27.3407   47.8924 H   0  0  0  0  0  0  0  0  0  0  0  0
   32.0816   27.1239   49.1318 H   0  0  0  0  0  0  0  0  0  0  0  0
   32.0149   28.8690   49.5749 H   0  0  0  0  0  0  0  0  0  0  0  0
   32.7005   27.4263   46.9726 H   0  0  0  0  0  0  0  0  0  0  0  0
   33.8128   29.3340   45.4822 H   0  0  0  0  0  0  0  0  0  0  0  0
   30.2894   26.7198   46.4021 H   0  0  0  0  0  0  0  0  0  0  0  0
   30.2113   27.5483   45.7816 N   0  0  0  0  0  0  0  0  0  0  0  0
   30.7810   28.7460   45.9975 C   0  0  0  0  0  0  0  0  0  0  0  0
   30.4083   29.4982   44.9419 N   0  0  0  0  0  0  0  0  0  0  0  0
   29.6318   28.7937   44.0952 C   0  0  0  0  0  0  0  0  0  0  0  0
   29.0064   29.0865   42.9011 C   0  0  0  0  0  0  0  0  0  0  0  0
   29.1439   30.3918   42.3483 N   0  0  0  0  0  0  0  0  0  0  0  0
   28.3653   31.0958   42.1984 H   0  0  0  0  0  0  0  0  0  0  0  0
   28.2650   28.1718   42.2366 N   0  0  0  0  0  0  0  0  0  0  0  0
   28.1538   26.9382   42.7897 C   0  0  0  0  0  0  0  0  0  0  0  0
   27.6113   26.0762   42.4182 H   0  0  0  0  0  0  0  0  0  0  0  0
   28.7604   26.6371   43.9581 N   0  0  0  0  0  0  0  0  0  0  0  0
   29.5042   27.5262   44.6415 C   0  0  0  0  0  0  0  0  0  0  0  0
   30.1100   30.6264   42.0852 H   0  0  0  0  0  0  0  0  0  0  0  0
  1  3  1  0
  2  1  1  0
  2  3  1  0
  4  1  1  0
  4  5  2  0
  6  5  1  0
  7  6  2  0
  8  9  2  0
  8  7  1  0
  9  4  1  0
 10 15  1  0
 10 14  1  0
 10 11  1  0
 11  2  1  0
 11 12  1  0
 13 12  1  0
 14 16  1  0
 14 13  1  0
  1 17  1  1
  2 18  1  6
  3 19  1  0
  3 20  1  0
  5 21  1  0
  6 22  1  0
  8 23  1  0
 10 24  1  1
 11 25  1  6
 13 26  1  0
 13 27  1  0
 14 28  1  6
 15 29  1  0
 30 31  1  0
 31 32  1  0
 32 33  2  0
 33 34  1  0
 34 35  2  0
 35 36  1  0
 36 37  1  0
 35 38  1  0
 38 39  2  0
 39 40  1  0
 39 41  1  0
 41 42  2  0
 42 31  1  0
 42 34  1  0
 36 43  1  0
 16 32  1  0
M  ISO  8  17  13  18  13  19  13  20  13  21  14  22  14  23  14  24  13
M  ISO  8  25  13  26  13  27  13  28  13  29   3  30   9  37   5  40  16
M  END
>  <DihAtoms>  (1) 
13,15,31,30

>  <DihDeg>  (1) 
-0.001981526630233778

$$$$
