REMARK  Name = 
REMARK  3 active torsions:
REMARK  status: ('A' for Active; 'I' for Inactive)
REMARK    1  A    between atoms: C_5  and  S_7
REMARK    2  A    between atoms: S_7  and  C_13
REMARK    3  A    between atoms: C_16  and  N_17
REMARK                            x       y       z     vdW  Elec       q    Type
REMARK                         _______ _______ _______ _____ _____    ______ ____
ROOT
ATOM      1  H   UNL     1      35.257  25.743  51.019  0.00  0.00    +0.000 HD
ATOM      2  N   UNL     1      35.279  25.528  50.015  0.00  0.00    +0.000 N 
ATOM      3  C   UNL     1      34.992  26.518  49.145  0.00  0.00    +0.000 A 
ATOM      4  N   UNL     1      35.078  26.031  47.911  0.00  0.00    +0.000 NA
ATOM      5  C   UNL     1      35.420  24.727  47.991  0.00  0.00    +0.000 A 
ATOM      6  C   UNL     1      35.654  23.717  47.092  0.00  0.00    +0.000 A 
ATOM      7  N   UNL     1      35.986  22.497  47.535  0.00  0.00    +0.000 NA
ATOM      8  C   UNL     1      36.105  22.206  48.834  0.00  0.00    +0.000 A 
ATOM      9  H   UNL     1      36.377  21.192  49.089  0.00  0.00    +0.000 HD
ATOM     10  N   UNL     1      35.882  23.182  49.760  0.00  0.00    +0.000 NA
ATOM     11  C   UNL     1      35.548  24.409  49.325  0.00  0.00    +0.000 A 
ENDROOT
BRANCH   6  12
ATOM     12  N   UNL     1      35.519  24.059  45.710  0.00  0.00    +0.000 N 
ATOM     13  H   UNL     1      34.535  24.396  45.506  0.00  0.00    +0.000 HD
ATOM     14  H   UNL     1      36.123  24.065  44.860  0.00  0.00    +0.000 HD
ENDBRANCH   6  12
BRANCH   3  15
ATOM     15  S   UNL     1      34.546  28.249  49.289  0.00  0.00    +0.000 S 
BRANCH  15  20
ATOM     16  C   UNL     1      37.266  30.179  51.419  0.00  0.00    +0.000 A 
ATOM     17  C   UNL     1      38.113  30.756  50.471  0.00  0.00    +0.000 A 
ATOM     18  C   UNL     1      37.845  30.548  49.108  0.00  0.00    +0.000 A 
ATOM     19  N   UNL     1      36.760  29.786  48.788  0.00  0.00    +0.000 NA
ATOM     20  C   UNL     1      35.966  29.246  49.719  0.00  0.00    +0.000 A 
ATOM     21  N   UNL     1      36.207  29.435  51.039  0.00  0.00    +0.000 NA
ATOM     22  H   UNL     1      37.468  30.337  52.468  0.00  0.00    +0.000 HD
ATOM     23  H   UNL     1      38.982  31.366  50.765  0.00  0.00    +0.000 HD
ATOM     24  H   UNL     1      38.471  30.973  48.330  0.00  0.00    +0.000 HD
ENDBRANCH  15  20
ENDBRANCH   3  15
TORSDOF 3
