
 OpenBabel03272506413D

 24 26  0  0  0  0  0  0  0  0999 V2000
   32.3310   23.2570   44.2630 H   0  0  0  0  0  0  0  0  0  0  0  0
   32.6120   23.9130   45.0000 N   0  0  0  0  0  0  0  0  0  0  0  0
   32.1930   25.1920   44.9080 C   0  0  0  0  0  0  0  0  0  0  0  0
   32.6650   25.8650   45.9530 N   0  0  0  0  0  0  0  0  0  0  0  0
   33.3870   25.0160   46.7150 C   0  0  0  0  0  0  0  0  0  0  0  0
   34.1000   25.1120   47.8830 C   0  0  0  0  0  0  0  0  0  0  0  0
   34.7180   24.0280   48.3750 N   0  0  0  0  0  0  0  0  0  0  0  0
   34.6740   22.8350   47.7740 C   0  0  0  0  0  0  0  0  0  0  0  0
   35.2060   22.0250   48.2510 H   0  0  0  0  0  0  0  0  0  0  0  0
   33.9760   22.6980   46.6110 N   0  0  0  0  0  0  0  0  0  0  0  0
   33.3530   23.7790   46.1100 C   0  0  0  0  0  0  0  0  0  0  0  0
   34.1280   26.4000   48.5010 N   0  0  0  0  0  0  0  0  0  0  0  0
   34.5590   27.1150   47.8500 H   0  0  0  0  0  0  0  0  0  0  0  0
   33.8410   26.8190   49.4120 H   0  0  0  0  0  0  0  0  0  0  0  0
   31.1930   26.1230   43.7450 S   0  0  0  0  0  0  0  0  0  0  0  0
   29.9590   29.5050   45.3880 C   0  0  0  0  0  0  0  0  0  0  0  0
   30.8860   30.4610   44.9690 C   0  0  0  0  0  0  0  0  0  0  0  0
   31.9470   30.0570   44.1410 C   0  0  0  0  0  0  0  0  0  0  0  0
   32.0080   28.7400   43.7910 N   0  0  0  0  0  0  0  0  0  0  0  0
   31.1040   27.8470   44.2090 C   0  0  0  0  0  0  0  0  0  0  0  0
   30.0740   28.2160   45.0080 N   0  0  0  0  0  0  0  0  0  0  0  0
   29.1420   29.8110   46.0240 H   0  0  0  0  0  0  0  0  0  0  0  0
   30.8070   31.5170   45.2700 H   0  0  0  0  0  0  0  0  0  0  0  0
   32.6950   30.7590   43.7860 H   0  0  0  0  0  0  0  0  0  0  0  0
  1  2  1  0  0  0  0
  2 11  1  0  0  0  0
  3  2  1  0  0  0  0
  3  4  2  0  0  0  0
  4  5  1  0  0  0  0
  5  6  1  0  0  0  0
  6  7  2  0  0  0  0
  6 12  1  0  0  0  0
  8  9  1  0  0  0  0
  8  7  1  0  0  0  0
 10  8  2  0  0  0  0
 11 10  1  0  0  0  0
 11  5  2  0  0  0  0
 12 14  1  0  0  0  0
 13 12  1  0  0  0  0
 15 20  1  0  0  0  0
 15  3  1  0  0  0  0
 16 22  1  0  0  0  0
 17 23  1  0  0  0  0
 17 16  2  0  0  0  0
 18 17  1  0  0  0  0
 19 18  2  0  0  0  0
 19 20  1  0  0  0  0
 20 21  2  0  0  0  0
 21 16  1  0  0  0  0
 24 18  1  0  0  0  0
M  END
>  <minimizedAffinity>
0.104798876

>  <minimizedRMSD>
6.02644348

$$$$
