REMARK  Name = 
REMARK  5 active torsions:
REMARK  status: ('A' for Active; 'I' for Inactive)
REMARK    1  A    between atoms: C_1  and  S_7
REMARK    2  A    between atoms: S_7  and  C_8
REMARK    3  A    between atoms: C_8  and  S_9
REMARK    4  A    between atoms: S_9  and  C_17
REMARK    5  A    between atoms: C_20  and  N_21
REMARK                            x       y       z     vdW  Elec       q    Type
REMARK                         _______ _______ _______ _____ _____    ______ ____
ROOT
ATOM      1  S   UNL     1      34.687  28.408  49.384  0.00  0.00    +0.000 S 
ENDROOT
BRANCH   1   4
ATOM      2  H   UNL     1      32.360  29.865  50.883  0.00  0.00    +0.000 HD
ATOM      3  N   UNL     1      31.993  29.125  50.256  0.00  0.00    +0.000 N 
ATOM      4  C   UNL     1      32.916  28.435  49.562  0.00  0.00    +0.000 A 
ATOM      5  N   UNL     1      32.261  27.520  48.804  0.00  0.00    +0.000 NA
ATOM      6  C   UNL     1      30.933  27.606  48.996  0.00  0.00    +0.000 A 
ATOM      7  C   UNL     1      29.800  26.976  48.534  0.00  0.00    +0.000 A 
ATOM      8  N   UNL     1      28.589  27.380  48.998  0.00  0.00    +0.000 NA
ATOM      9  C   UNL     1      28.497  28.390  49.904  0.00  0.00    +0.000 A 
ATOM     10  H   UNL     1      27.483  28.655  50.228  0.00  0.00    +0.000 HD
ATOM     11  N   UNL     1      29.611  29.023  50.372  0.00  0.00    +0.000 NA
ATOM     12  C   UNL     1      30.813  28.626  49.914  0.00  0.00    +0.000 A 
BRANCH   7  13
ATOM     13  N   UNL     1      29.959  25.925  47.585  0.00  0.00    +0.000 N 
ATOM     14  H   UNL     1      29.676  25.028  48.030  0.00  0.00    +0.000 HD
ATOM     15  H   UNL     1      30.297  25.983  46.599  0.00  0.00    +0.000 HD
ENDBRANCH   7  13
ENDBRANCH   1   4
BRANCH   1  16
ATOM     16  C   UNL     1      35.499  29.337  50.731  0.00  0.00    +0.000 C 
ATOM     17  H   UNL     1      35.087  30.376  50.719  0.00  0.00    +0.000 HD
ATOM     18  H   UNL     1      35.175  28.906  51.706  0.00  0.00    +0.000 HD
BRANCH  16  19
ATOM     19  S   UNL     1      37.294  29.335  50.590  0.00  0.00    +0.000 S 
BRANCH  19  20
ATOM     20  C   UNL     1      37.766  30.517  49.352  0.00  0.00    +0.000 A 
ATOM     21  C   UNL     1      38.241  31.729  49.838  0.00  0.00    +0.000 A 
ATOM     22  C   UNL     1      38.629  32.703  48.906  0.00  0.00    +0.000 A 
ATOM     23  N   UNL     1      38.528  32.430  47.571  0.00  0.00    +0.000 NA
ATOM     24  C   UNL     1      38.054  31.224  47.168  0.00  0.00    +0.000 A 
ATOM     25  N   UNL     1      37.687  30.301  48.032  0.00  0.00    +0.000 NA
ATOM     26  H   UNL     1      38.331  31.969  50.888  0.00  0.00    +0.000 HD
ATOM     27  H   UNL     1      39.006  33.664  49.237  0.00  0.00    +0.000 HD
ATOM     28  H   UNL     1      37.979  31.021  46.102  0.00  0.00    +0.000 HD
ENDBRANCH  19  20
ENDBRANCH  16  19
ENDBRANCH   1  16
TORSDOF 5
