
     RDKit          3D

 29 31  0  0  0  0  0  0  0  0999 V2000
   37.3501   30.1512   51.3593 C   0  0  0  0  0  0  0  0  0  0  0  0
   37.9978   30.5055   50.1747 C   0  0  0  0  0  0  0  0  0  0  0  0
   37.4131   30.1486   48.9577 C   0  0  0  0  0  0  0  0  0  0  0  0
   36.2370   29.4709   48.9916 N   0  0  0  0  0  0  0  0  0  0  0  0
   35.6329   29.1415   50.1570 C   0  0  0  0  0  0  0  0  0  0  0  0
   36.1867   29.4798   51.3259 N   0  0  0  0  0  0  0  0  0  0  0  0
   37.8598   30.3856   47.6951 O   0  0  0  0  0  0  0  0  0  0  0  0
   39.0607   32.7351   48.1397 O   0  0  0  0  0  0  0  0  0  0  0  0
   38.6920   31.7199   47.0941 P   0  0  2  0  0  0  0  0  0  0  0  0
   37.8298   32.4557   45.8372 O   0  0  0  0  0  0  0  0  0  0  0  0
   40.1601   31.1782   46.4207 O   0  0  0  0  0  0  0  0  0  0  0  0
   37.9113   30.4888   52.2155 H   0  0  0  0  0  0  0  0  0  0  0  0
   38.9145   31.0326   50.0782 H   0  0  0  0  0  0  0  0  0  0  0  0
   34.6934   28.5997   50.1578 H   0  0  0  0  0  0  0  0  0  0  0  0
   36.9329   32.7572   46.1163 H   0  0  0  0  0  0  0  0  0  0  0  0
   42.2579   30.5418   44.7967 H   0  0  0  0  0  0  0  0  0  0  0  0
   41.3361   30.0416   44.7718 N   0  0  0  0  0  0  0  0  0  0  0  0
   40.1708   30.1643   45.4552 C   0  0  0  0  0  0  0  0  0  0  0  0
   39.3132   29.2367   44.9943 N   0  0  0  0  0  0  0  0  0  0  0  0
   39.9312   28.5338   44.0278 C   0  0  0  0  0  0  0  0  0  0  0  0
   39.4385   27.4897   43.2788 C   0  0  0  0  0  0  0  0  0  0  0  0
   38.1172   26.9839   43.4431 N   0  0  0  0  0  0  0  0  0  0  0  0
   37.5090   27.4007   42.6786 H   0  0  0  0  0  0  0  0  0  0  0  0
   40.2460   26.9327   42.3582 N   0  0  0  0  0  0  0  0  0  0  0  0
   41.5017   27.4349   42.2225 C   0  0  0  0  0  0  0  0  0  0  0  0
   42.2202   27.0400   41.4987 H   0  0  0  0  0  0  0  0  0  0  0  0
   41.9879   28.4520   42.9491 N   0  0  0  0  0  0  0  0  0  0  0  0
   41.2086   29.0298   43.8756 C   0  0  0  0  0  0  0  0  0  0  0  0
   37.6306   26.3290   44.1095 H   0  0  0  0  0  0  0  0  0  0  0  0
  2  1  2  0
  3  4  2  0
  3  2  1  0
  4  5  1  0
  5  6  2  0
  6  1  1  0
  7  3  1  0
  9  7  1  1
  9  8  2  0
 10  9  1  0
 11  9  1  0
  1 12  1  0
  2 13  1  0
  5 14  1  0
 10 15  1  0
 16 17  1  0
 17 18  1  0
 18 19  2  0
 19 20  1  0
 20 21  2  0
 21 22  1  0
 22 23  1  0
 21 24  1  0
 24 25  2  0
 25 26  1  0
 25 27  1  0
 27 28  2  0
 28 17  1  0
 28 20  1  0
 22 29  1  0
 11 18  1  0
M  ISO  7  12  14  13  14  14  14  15   3  16   9  23   5  26  16
M  END
>  <DihAtoms>  (1) 
8,10,17,16

>  <DihDeg>  (1) 
-179.99987613506516

$$$$
