
 OpenBabel03272509433D

 43 46  0  0  1  0  0  0  0  0999 V2000
   37.0830   31.0420   49.0140 C   0  0  0  0  0  0  0  0  0  0  0  0
   36.6850   31.8710   50.0650 C   0  0  0  0  0  0  0  0  0  0  0  0
   37.2110   33.1440   50.2320 C   0  0  0  0  0  0  0  0  0  0  0  0
   38.1670   33.6140   49.3270 C   0  0  0  0  0  0  0  0  0  0  0  0
   38.5460   32.7930   48.3070 C   0  0  0  0  0  0  0  0  0  0  0  0
   37.9990   31.5260   48.1690 C   0  0  0  0  0  0  0  0  0  0  0  0
   35.9360   31.4760   50.7550 H   0  0  0  0  0  0  0  0  0  0  0  0
   36.8240   33.6830   51.0790 H   0  0  0  0  0  0  0  0  0  0  0  0
   38.5250   34.6120   49.5290 H   0  0  0  0  0  0  0  0  0  0  0  0
   39.2960   33.2960   47.6890 H   0  0  0  0  0  0  0  0  0  0  0  0
   36.5600   29.7020   48.8570 C   0  0  2  0  0  0  0  0  0  0  0  0
   37.0680   29.2840   47.9050 H   0  0  0  0  0  0  0  0  0  0  0  0
   33.7040   30.0630   46.6400 C   0  0  0  0  0  0  0  0  0  0  0  0
   32.9690   28.9120   46.8490 C   0  0  0  0  0  0  0  0  0  0  0  0
   33.4140   28.0220   47.8080 C   0  0  0  0  0  0  0  0  0  0  0  0
   34.5640   28.3060   48.5140 N   0  0  0  0  0  0  0  0  0  0  0  0
   35.2220   29.4200   48.2650 C   0  0  0  0  0  0  0  0  0  0  0  0
   34.8000   30.3040   47.3310 N   0  0  0  0  0  0  0  0  0  0  0  0
   33.3590   30.7640   45.8890 H   0  0  0  0  0  0  0  0  0  0  0  0
   32.0620   28.6500   46.3180 H   0  0  0  0  0  0  0  0  0  0  0  0
   32.9030   27.1010   48.0390 H   0  0  0  0  0  0  0  0  0  0  0  0
   37.0790   28.8700   49.6890 O   0  0  0  0  0  0  0  0  0  0  0  0
   36.9220   28.9630   50.6690 H   0  0  0  0  0  0  0  0  0  0  0  0
   38.5130   30.7540   47.0630 C   0  0  0  0  0  3  0  0  0  0  0  0
   39.4060   31.2160   46.1810 C   0  0  0  0  0  3  0  0  0  0  0  0
   40.0310   30.5040   45.0420 C   0  0  0  0  0  0  0  0  0  0  0  0
   40.7960   29.8200   45.4630 H   0  0  0  0  0  0  0  0  0  0  0  0
   40.5680   31.1990   44.3650 H   0  0  0  0  0  0  0  0  0  0  0  0
   38.7910   29.5330   44.1780 S   0  0  0  0  0  0  0  0  0  0  0  0
   38.3760   26.8860   42.5640 H   0  0  0  0  0  0  0  0  0  0  0  0
   39.1170   27.5220   42.1960 N   0  0  0  0  0  0  0  0  0  0  0  0
   39.4340   28.7020   42.7600 C   0  0  0  0  0  0  0  0  0  0  0  0
   40.4230   29.2980   42.0700 N   0  0  0  0  0  0  0  0  0  0  0  0
   40.7720   28.5030   41.0250 C   0  0  0  0  0  0  0  0  0  0  0  0
   41.7030   28.6030   40.0090 C   0  0  0  0  0  0  0  0  0  0  0  0
   41.7970   27.5920   39.0980 N   0  0  0  0  0  0  0  0  0  0  0  0
   40.9720   26.5160   39.2130 C   0  0  0  0  0  0  0  0  0  0  0  0
   41.0840   25.7360   38.4620 H   0  0  0  0  0  0  0  0  0  0  0  0
   40.0580   26.4280   40.2210 N   0  0  0  0  0  0  0  0  0  0  0  0
   39.9400   27.4100   41.1380 C   0  0  0  0  0  0  0  0  0  0  0  0
   42.5200   29.7730   39.9770 N   0  0  0  0  0  0  0  0  0  0  0  0
   42.1750   30.7360   40.1470 H   0  0  0  0  0  0  0  0  0  0  0  0
   43.5180   29.5480   39.7590 H   0  0  0  0  0  0  0  0  0  0  0  0
  1  2  1  0  0  0  0
  2  3  2  0  0  0  0
  2  7  1  0  0  0  0
  3  8  1  0  0  0  0
  4  9  1  0  0  0  0
  4  3  1  0  0  0  0
  5  4  2  0  0  0  0
  6  5  1  0  0  0  0
  6  1  2  0  0  0  0
 10  5  1  0  0  0  0
 11 12  1  6  0  0  0
 11  1  1  0  0  0  0
 11 22  1  0  0  0  0
 13 14  2  0  0  0  0
 13 18  1  0  0  0  0
 14 15  1  0  0  0  0
 15 21  1  0  0  0  0
 15 16  2  0  0  0  0
 17 16  1  0  0  0  0
 17 11  1  0  0  0  0
 18 17  2  0  0  0  0
 19 13  1  0  0  0  0
 20 14  1  0  0  0  0
 22 23  1  0  0  0  0
 24  6  1  0  0  0  0
 25 24  2  0  0  0  0
 26 27  1  0  0  0  0
 26 25  1  0  0  0  0
 28 26  1  0  0  0  0
 29 26  1  0  0  0  0
 31 30  1  0  0  0  0
 31 32  1  0  0  0  0
 32 29  1  0  0  0  0
 33 32  2  0  0  0  0
 34 40  1  0  0  0  0
 34 33  1  0  0  0  0
 35 34  2  0  0  0  0
 36 37  2  0  0  0  0
 36 35  1  0  0  0  0
 37 39  1  0  0  0  0
 38 37  1  0  0  0  0
 39 40  2  0  0  0  0
 40 31  1  0  0  0  0
 41 35  1  0  0  0  0
 41 42  1  0  0  0  0
 43 41  1  0  0  0  0
M  END
>  <minimizedAffinity>
-6.12598705

>  <minimizedRMSD>
1.29688418

$$$$
