
 OpenBabel03272501063D

 35 38  0  0  1  0  0  0  0  0999 V2000
   36.9770   25.7380   32.7920 C   0  0  2  0  0  0  0  0  0  0  0  0
   36.8110   25.2960   31.3100 C   0  0  2  0  0  0  0  0  0  0  0  0
   35.5630   26.0070   30.9890 C   0  0  0  0  0  0  0  0  0  0  0  0
   35.6450   27.2530   31.5960 O   0  0  0  0  0  0  0  0  0  0  0  0
   36.5530   27.1930   32.6220 C   0  0  0  0  0  0  0  0  0  0  0  0
   36.2980   25.1490   33.4040 H   0  0  0  0  0  0  0  0  0  0  0  0
   37.6960   25.7390   30.7820 H   0  0  0  0  0  0  0  0  0  0  0  0
   35.3000   26.0860   29.9190 H   0  0  0  0  0  0  0  0  0  0  0  0
   34.7160   25.4630   31.4740 H   0  0  0  0  0  0  0  0  0  0  0  0
   37.4400   27.7970   32.3370 H   0  0  0  0  0  0  0  0  0  0  0  0
   36.0860   27.5220   33.5690 H   0  0  0  0  0  0  0  0  0  0  0  0
   35.6870   21.6890   31.2540 C   0  0  0  0  0  0  0  0  0  0  0  0
   35.6310   23.1010   31.3930 C   0  0  0  0  0  0  0  0  0  0  0  0
   36.8040   23.8610   31.1710 C   0  0  0  0  0  0  0  0  0  0  0  0
   37.9450   23.1730   30.8290 N   0  0  0  0  0  0  0  0  0  0  0  0
   37.9640   21.8440   30.7080 C   0  0  0  0  0  0  0  0  0  0  0  0
   36.8430   21.0930   30.9170 N   0  0  0  0  0  0  0  0  0  0  0  0
   34.7320   21.2200   31.4480 H   0  0  0  0  0  0  0  0  0  0  0  0
   34.7100   23.6200   31.6660 H   0  0  0  0  0  0  0  0  0  0  0  0
   38.8920   21.3300   30.4340 H   0  0  0  0  0  0  0  0  0  0  0  0
   38.3130   25.6430   33.1790 O   0  0  0  0  0  0  0  0  0  0  0  0
   40.8770   24.7710   33.5140 H   0  0  0  0  0  0  0  0  0  0  0  0
   40.0860   24.5800   34.1960 N   0  0  0  0  0  0  0  0  0  0  0  0
   38.7710   24.8990   34.2450 C   0  0  0  0  0  0  0  0  0  0  0  0
   38.2680   24.3640   35.3820 N   0  0  0  0  0  0  0  0  0  0  0  0
   39.2620   23.7160   36.0420 C   0  0  0  0  0  0  0  0  0  0  0  0
   39.2260   23.0190   37.2480 C   0  0  0  0  0  0  0  0  0  0  0  0
   40.3800   22.4500   37.7010 N   0  0  0  0  0  0  0  0  0  0  0  0
   41.5140   22.5870   36.9540 C   0  0  0  0  0  0  0  0  0  0  0  0
   42.4370   22.1250   37.3300 H   0  0  0  0  0  0  0  0  0  0  0  0
   41.5030   23.2690   35.7960 N   0  0  0  0  0  0  0  0  0  0  0  0
   40.4060   23.8570   35.2850 C   0  0  0  0  0  0  0  0  0  0  0  0
   37.9940   22.9340   37.9480 N   0  0  0  0  0  0  0  0  0  0  0  0
   37.8650   23.3720   38.8920 H   0  0  0  0  0  0  0  0  0  0  0  0
   37.0690   22.4990   37.7480 H   0  0  0  0  0  0  0  0  0  0  0  0
  1 21  1  0  0  0  0
  1  6  1  1  0  0  0
  2  7  1  6  0  0  0
  2  1  1  0  0  0  0
  3  2  1  0  0  0  0
  3  9  1  0  0  0  0
  3  4  1  0  0  0  0
  4  5  1  0  0  0  0
  5  1  1  0  0  0  0
  5 11  1  0  0  0  0
  8  3  1  0  0  0  0
 10  5  1  0  0  0  0
 12 13  1  0  0  0  0
 12 18  1  0  0  0  0
 13 19  1  0  0  0  0
 14  2  1  0  0  0  0
 14 13  2  0  0  0  0
 15 14  1  0  0  0  0
 16 15  2  0  0  0  0
 16 17  1  0  0  0  0
 17 12  2  0  0  0  0
 20 16  1  0  0  0  0
 21 24  1  0  0  0  0
 22 23  1  0  0  0  0
 23 24  1  0  0  0  0
 23 32  1  0  0  0  0
 24 25  2  0  0  0  0
 25 26  1  0  0  0  0
 26 27  1  0  0  0  0
 27 28  2  0  0  0  0
 27 33  1  0  0  0  0
 29 30  1  0  0  0  0
 29 28  1  0  0  0  0
 31 29  2  0  0  0  0
 32 31  1  0  0  0  0
 32 26  2  0  0  0  0
 33 34  1  0  0  0  0
 35 33  1  0  0  0  0
M  END
>  <minimizedAffinity>
-5.41454315

$$$$

 OpenBabel03272501063D

 35 38  0  0  1  0  0  0  0  0999 V2000
   37.2030   25.3440   32.4530 C   0  0  2  0  0  0  0  0  0  0  0  0
   35.8910   25.9890   31.9260 C   0  0  2  0  0  0  0  0  0  0  0  0
   35.5640   25.0260   30.8620 C   0  0  0  0  0  0  0  0  0  0  0  0
   35.8580   23.7650   31.3600 O   0  0  0  0  0  0  0  0  0  0  0  0
   36.7580   23.8870   32.3880 C   0  0  0  0  0  0  0  0  0  0  0  0
   38.0080   25.5900   31.7650 H   0  0  0  0  0  0  0  0  0  0  0  0
   35.1770   25.9230   32.7890 H   0  0  0  0  0  0  0  0  0  0  0  0
   34.5410   25.0780   30.4460 H   0  0  0  0  0  0  0  0  0  0  0  0
   36.2550   25.2070   30.0030 H   0  0  0  0  0  0  0  0  0  0  0  0
   36.2420   23.6240   33.3350 H   0  0  0  0  0  0  0  0  0  0  0  0
   37.6530   23.2680   32.1900 H   0  0  0  0  0  0  0  0  0  0  0  0
   35.8390   29.7680   31.8970 C   0  0  0  0  0  0  0  0  0  0  0  0
   35.6340   28.4350   32.3410 C   0  0  0  0  0  0  0  0  0  0  0  0
   36.0830   27.3630   31.5330 C   0  0  0  0  0  0  0  0  0  0  0  0
   36.6990   27.6850   30.3460 N   0  0  0  0  0  0  0  0  0  0  0  0
   36.8760   28.9490   29.9560 C   0  0  0  0  0  0  0  0  0  0  0  0
   36.4510   29.9970   30.7220 N   0  0  0  0  0  0  0  0  0  0  0  0
   35.4550   30.4970   32.5960 H   0  0  0  0  0  0  0  0  0  0  0  0
   35.1410   28.2100   33.2880 H   0  0  0  0  0  0  0  0  0  0  0  0
   37.3710   29.1670   29.0040 H   0  0  0  0  0  0  0  0  0  0  0  0
   37.4440   25.7400   33.7680 O   0  0  0  0  0  0  0  0  0  0  0  0
   40.0810   25.0560   33.5990 H   0  0  0  0  0  0  0  0  0  0  0  0
   39.4410   24.7810   34.4010 N   0  0  0  0  0  0  0  0  0  0  0  0
   38.1380   24.9970   34.6980 C   0  0  0  0  0  0  0  0  0  0  0  0
   37.8870   24.3860   35.8800 N   0  0  0  0  0  0  0  0  0  0  0  0
   39.0260   23.7930   36.3200 C   0  0  0  0  0  0  0  0  0  0  0  0
   39.2580   23.0530   37.4790 C   0  0  0  0  0  0  0  0  0  0  0  0
   40.5110   22.5580   37.6910 N   0  0  0  0  0  0  0  0  0  0  0  0
   41.4790   22.8080   36.7610 C   0  0  0  0  0  0  0  0  0  0  0  0
   42.4840   22.4050   36.9450 H   0  0  0  0  0  0  0  0  0  0  0  0
   41.2110   23.5270   35.6590 N   0  0  0  0  0  0  0  0  0  0  0  0
   40.0020   24.0470   35.3800 C   0  0  0  0  0  0  0  0  0  0  0  0
   38.1810   22.8500   38.3820 N   0  0  0  0  0  0  0  0  0  0  0  0
   38.1960   23.2440   39.3540 H   0  0  0  0  0  0  0  0  0  0  0  0
   37.2680   22.3530   38.3290 H   0  0  0  0  0  0  0  0  0  0  0  0
  1  6  1  6  0  0  0
  1 21  1  0  0  0  0
  2  1  1  0  0  0  0
  2  7  1  1  0  0  0
  3  4  1  0  0  0  0
  3  2  1  0  0  0  0
  4  5  1  0  0  0  0
  5  1  1  0  0  0  0
  5 10  1  0  0  0  0
  8  3  1  0  0  0  0
  9  3  1  0  0  0  0
 11  5  1  0  0  0  0
 12 13  1  0  0  0  0
 12 18  1  0  0  0  0
 13 19  1  0  0  0  0
 14  2  1  0  0  0  0
 14 13  2  0  0  0  0
 15 14  1  0  0  0  0
 16 15  2  0  0  0  0
 16 17  1  0  0  0  0
 17 12  2  0  0  0  0
 20 16  1  0  0  0  0
 21 24  1  0  0  0  0
 22 23  1  0  0  0  0
 23 24  1  0  0  0  0
 23 32  1  0  0  0  0
 24 25  2  0  0  0  0
 25 26  1  0  0  0  0
 26 27  1  0  0  0  0
 27 28  2  0  0  0  0
 27 33  1  0  0  0  0
 29 30  1  0  0  0  0
 29 28  1  0  0  0  0
 31 29  2  0  0  0  0
 32 31  1  0  0  0  0
 32 26  2  0  0  0  0
 33 34  1  0  0  0  0
 35 33  1  0  0  0  0
M  END
>  <minimizedAffinity>
-5.34661818

$$$$

 OpenBabel03272501063D

 35 38  0  0  1  0  0  0  0  0999 V2000
   36.6950   21.2120   32.7000 C   0  0  2  0  0  0  0  0  0  0  0  0
   35.6820   22.0660   31.8850 C   0  0  2  0  0  0  0  0  0  0  0  0
   35.5240   21.1900   30.7120 C   0  0  0  0  0  0  0  0  0  0  0  0
   35.4870   19.8870   31.1880 O   0  0  0  0  0  0  0  0  0  0  0  0
   36.0800   19.8440   32.4240 C   0  0  0  0  0  0  0  0  0  0  0  0
   37.6830   21.3470   32.2680 H   0  0  0  0  0  0  0  0  0  0  0  0
   34.7580   22.0900   32.5210 H   0  0  0  0  0  0  0  0  0  0  0  0
   34.6720   21.4090   30.0440 H   0  0  0  0  0  0  0  0  0  0  0  0
   36.4420   21.2820   30.0820 H   0  0  0  0  0  0  0  0  0  0  0  0
   35.2940   19.6420   33.1810 H   0  0  0  0  0  0  0  0  0  0  0  0
   36.8980   19.0980   32.4330 H   0  0  0  0  0  0  0  0  0  0  0  0
   35.8230   25.7660   31.1320 C   0  0  0  0  0  0  0  0  0  0  0  0
   35.2860   24.4740   31.3720 C   0  0  0  0  0  0  0  0  0  0  0  0
   36.1680   23.4020   31.6480 C   0  0  0  0  0  0  0  0  0  0  0  0
   37.5140   23.6840   31.6650 N   0  0  0  0  0  0  0  0  0  0  0  0
   37.9880   24.9100   31.4350 C   0  0  0  0  0  0  0  0  0  0  0  0
   37.1520   25.9570   31.1680 N   0  0  0  0  0  0  0  0  0  0  0  0
   35.0530   26.4990   30.9340 H   0  0  0  0  0  0  0  0  0  0  0  0
   34.2120   24.2800   31.3510 H   0  0  0  0  0  0  0  0  0  0  0  0
   39.0660   25.0970   31.4580 H   0  0  0  0  0  0  0  0  0  0  0  0
   36.6210   21.5350   34.0540 O   0  0  0  0  0  0  0  0  0  0  0  0
   39.1870   21.8350   33.1730 H   0  0  0  0  0  0  0  0  0  0  0  0
   38.8800   21.9700   34.1800 N   0  0  0  0  0  0  0  0  0  0  0  0
   37.7000   21.8810   34.8390 C   0  0  0  0  0  0  0  0  0  0  0  0
   37.9410   22.1700   36.1390 N   0  0  0  0  0  0  0  0  0  0  0  0
   39.2620   22.4400   36.2940 C   0  0  0  0  0  0  0  0  0  0  0  0
   39.9750   22.7870   37.4410 C   0  0  0  0  0  0  0  0  0  0  0  0
   41.3160   23.0090   37.3270 N   0  0  0  0  0  0  0  0  0  0  0  0
   41.8980   22.8820   36.0980 C   0  0  0  0  0  0  0  0  0  0  0  0
   42.9780   23.0650   36.0200 H   0  0  0  0  0  0  0  0  0  0  0  0
   41.1720   22.5460   35.0190 N   0  0  0  0  0  0  0  0  0  0  0  0
   39.8480   22.3110   35.0520 C   0  0  0  0  0  0  0  0  0  0  0  0
   39.2740   22.8920   38.6700 N   0  0  0  0  0  0  0  0  0  0  0  0
   39.1870   23.8060   39.1790 H   0  0  0  0  0  0  0  0  0  0  0  0
   38.7580   22.2210   39.2770 H   0  0  0  0  0  0  0  0  0  0  0  0
  1  6  1  6  0  0  0
  1 21  1  0  0  0  0
  2  7  1  1  0  0  0
  2  1  1  0  0  0  0
  3  4  1  0  0  0  0
  3  2  1  0  0  0  0
  4  5  1  0  0  0  0
  5 11  1  0  0  0  0
  5  1  1  0  0  0  0
  5 10  1  0  0  0  0
  8  3  1  0  0  0  0
  9  3  1  0  0  0  0
 12 17  2  0  0  0  0
 12 13  1  0  0  0  0
 13 14  2  0  0  0  0
 14 15  1  0  0  0  0
 14  2  1  0  0  0  0
 16 20  1  0  0  0  0
 16 15  2  0  0  0  0
 17 16  1  0  0  0  0
 18 12  1  0  0  0  0
 19 13  1  0  0  0  0
 21 24  1  0  0  0  0
 22 23  1  0  0  0  0
 23 24  1  0  0  0  0
 23 32  1  0  0  0  0
 24 25  2  0  0  0  0
 25 26  1  0  0  0  0
 26 27  1  0  0  0  0
 27 33  1  0  0  0  0
 28 27  2  0  0  0  0
 29 28  1  0  0  0  0
 30 29  1  0  0  0  0
 31 32  1  0  0  0  0
 31 29  2  0  0  0  0
 32 26  2  0  0  0  0
 33 34  1  0  0  0  0
 33 35  1  0  0  0  0
M  END
>  <minimizedAffinity>
-5.30593252

$$$$

 OpenBabel03272501063D

 35 38  0  0  1  0  0  0  0  0999 V2000
   35.9270   29.0370   31.9030 C   0  0  2  0  0  0  0  0  0  0  0  0
   36.9950   28.1300   31.2270 C   0  0  2  0  0  0  0  0  0  0  0  0
   36.8970   28.6380   29.8490 C   0  0  0  0  0  0  0  0  0  0  0  0
   36.7530   30.0150   29.9390 O   0  0  0  0  0  0  0  0  0  0  0  0
   36.2730   30.3360   31.1830 C   0  0  0  0  0  0  0  0  0  0  0  0
   34.9420   28.6470   31.6610 H   0  0  0  0  0  0  0  0  0  0  0  0
   37.9620   28.4200   31.7150 H   0  0  0  0  0  0  0  0  0  0  0  0
   37.7110   28.3530   29.1580 H   0  0  0  0  0  0  0  0  0  0  0  0
   35.9560   28.2410   29.3960 H   0  0  0  0  0  0  0  0  0  0  0  0
   37.0780   30.8560   31.7430 H   0  0  0  0  0  0  0  0  0  0  0  0
   35.3450   30.9310   31.0960 H   0  0  0  0  0  0  0  0  0  0  0  0
   35.3110   24.7480   31.2050 C   0  0  0  0  0  0  0  0  0  0  0  0
   35.5300   26.1290   30.9630 C   0  0  0  0  0  0  0  0  0  0  0  0
   36.7230   26.7300   31.4320 C   0  0  0  0  0  0  0  0  0  0  0  0
   37.6100   25.9230   32.1070 N   0  0  0  0  0  0  0  0  0  0  0  0
   37.3730   24.6270   32.3200 C   0  0  0  0  0  0  0  0  0  0  0  0
   36.2290   24.0300   31.8740 N   0  0  0  0  0  0  0  0  0  0  0  0
   34.3690   24.4060   30.8010 H   0  0  0  0  0  0  0  0  0  0  0  0
   34.8070   26.7450   30.4240 H   0  0  0  0  0  0  0  0  0  0  0  0
   38.1030   24.0160   32.8610 H   0  0  0  0  0  0  0  0  0  0  0  0
   36.1740   29.1370   33.2720 O   0  0  0  0  0  0  0  0  0  0  0  0
   33.4640   28.8350   33.3820 H   0  0  0  0  0  0  0  0  0  0  0  0
   34.0250   29.4520   34.0400 N   0  0  0  0  0  0  0  0  0  0  0  0
   35.3380   29.7520   34.1780 C   0  0  0  0  0  0  0  0  0  0  0  0
   35.4480   30.6140   35.2170 N   0  0  0  0  0  0  0  0  0  0  0  0
   34.2110   30.8500   35.7260 C   0  0  0  0  0  0  0  0  0  0  0  0
   33.8250   31.6610   36.7920 C   0  0  0  0  0  0  0  0  0  0  0  0
   32.4990   31.7260   37.1070 N   0  0  0  0  0  0  0  0  0  0  0  0
   31.6140   30.9970   36.3670 C   0  0  0  0  0  0  0  0  0  0  0  0
   30.5500   31.0580   36.6320 H   0  0  0  0  0  0  0  0  0  0  0  0
   32.0310   30.2280   35.3480 N   0  0  0  0  0  0  0  0  0  0  0  0
   33.3190   30.1120   34.9770 C   0  0  0  0  0  0  0  0  0  0  0  0
   34.8250   32.3790   37.4980 N   0  0  0  0  0  0  0  0  0  0  0  0
   35.0340   32.1850   38.5070 H   0  0  0  0  0  0  0  0  0  0  0  0
   35.4900   33.1410   37.2490 H   0  0  0  0  0  0  0  0  0  0  0  0
  1  6  1  6  0  0  0
  1 21  1  0  0  0  0
  2 14  1  0  0  0  0
  2  7  1  1  0  0  0
  2  1  1  0  0  0  0
  3  4  1  0  0  0  0
  3  2  1  0  0  0  0
  4  5  1  0  0  0  0
  5 10  1  0  0  0  0
  5  1  1  0  0  0  0
  8  3  1  0  0  0  0
  9  3  1  0  0  0  0
 11  5  1  0  0  0  0
 12 17  1  0  0  0  0
 13 12  2  0  0  0  0
 13 14  1  0  0  0  0
 14 15  2  0  0  0  0
 15 16  1  0  0  0  0
 16 20  1  0  0  0  0
 17 16  2  0  0  0  0
 18 12  1  0  0  0  0
 19 13  1  0  0  0  0
 21 24  1  0  0  0  0
 22 23  1  0  0  0  0
 23 24  1  0  0  0  0
 23 32  1  0  0  0  0
 24 25  2  0  0  0  0
 25 26  1  0  0  0  0
 26 27  1  0  0  0  0
 27 28  2  0  0  0  0
 27 33  1  0  0  0  0
 29 30  1  0  0  0  0
 29 28  1  0  0  0  0
 31 29  2  0  0  0  0
 32 31  1  0  0  0  0
 32 26  2  0  0  0  0
 33 34  1  0  0  0  0
 35 33  1  0  0  0  0
M  END
>  <minimizedAffinity>
-5.24472618

$$$$

 OpenBabel03272501063D

 35 38  0  0  1  0  0  0  0  0999 V2000
   39.6800   25.0240   32.0600 C   0  0  2  0  0  0  0  0  0  0  0  0
   39.2370   24.3570   30.7270 C   0  0  2  0  0  0  0  0  0  0  0  0
   39.1880   25.5520   29.8680 C   0  0  0  0  0  0  0  0  0  0  0  0
   40.2820   26.3350   30.2110 O   0  0  0  0  0  0  0  0  0  0  0  0
   40.6950   26.0000   31.4750 C   0  0  0  0  0  0  0  0  0  0  0  0
   38.8130   25.5050   32.5080 H   0  0  0  0  0  0  0  0  0  0  0  0
   40.0870   23.6770   30.4550 H   0  0  0  0  0  0  0  0  0  0  0  0
   39.1320   25.3750   28.7790 H   0  0  0  0  0  0  0  0  0  0  0  0
   38.2730   26.1350   30.1340 H   0  0  0  0  0  0  0  0  0  0  0  0
   41.6800   25.4930   31.3960 H   0  0  0  0  0  0  0  0  0  0  0  0
   40.7160   26.8960   32.1230 H   0  0  0  0  0  0  0  0  0  0  0  0
   35.6060   23.4550   31.2550 C   0  0  0  0  0  0  0  0  0  0  0  0
   36.7740   24.2470   31.1020 C   0  0  0  0  0  0  0  0  0  0  0  0
   38.0160   23.6060   30.8770 C   0  0  0  0  0  0  0  0  0  0  0  0
   38.0130   22.2310   30.8230 N   0  0  0  0  0  0  0  0  0  0  0  0
   36.8970   21.5150   30.9720 C   0  0  0  0  0  0  0  0  0  0  0  0
   35.6890   22.1160   31.1880 N   0  0  0  0  0  0  0  0  0  0  0  0
   34.7220   24.0560   31.4200 H   0  0  0  0  0  0  0  0  0  0  0  0
   36.7450   25.3370   31.1500 H   0  0  0  0  0  0  0  0  0  0  0  0
   36.9330   20.4220   30.9230 H   0  0  0  0  0  0  0  0  0  0  0  0
   40.2970   24.0880   32.8890 O   0  0  0  0  0  0  0  0  0  0  0  0
   38.3960   25.4540   34.2910 H   0  0  0  0  0  0  0  0  0  0  0  0
   38.9980   24.6790   34.6970 N   0  0  0  0  0  0  0  0  0  0  0  0
   39.9770   23.8790   34.2130 C   0  0  0  0  0  0  0  0  0  0  0  0
   40.3730   23.0700   35.2230 N   0  0  0  0  0  0  0  0  0  0  0  0
   39.6470   23.3610   36.3320 C   0  0  0  0  0  0  0  0  0  0  0  0
   39.6960   22.7960   37.6060 C   0  0  0  0  0  0  0  0  0  0  0  0
   38.8470   23.2760   38.5590 N   0  0  0  0  0  0  0  0  0  0  0  0
   37.9890   24.2830   38.2240 C   0  0  0  0  0  0  0  0  0  0  0  0
   37.3090   24.6590   39.0010 H   0  0  0  0  0  0  0  0  0  0  0  0
   37.9740   24.7970   36.9830 N   0  0  0  0  0  0  0  0  0  0  0  0
   38.7800   24.3780   35.9910 C   0  0  0  0  0  0  0  0  0  0  0  0
   40.6260   21.7530   37.8500 N   0  0  0  0  0  0  0  0  0  0  0  0
   40.3130   20.7810   38.0900 H   0  0  0  0  0  0  0  0  0  0  0  0
   41.6660   21.6870   37.8550 H   0  0  0  0  0  0  0  0  0  0  0  0
  1  6  1  1  0  0  0
  1 21  1  0  0  0  0
  2  7  1  6  0  0  0
  2 14  1  0  0  0  0
  2  1  1  0  0  0  0
  3  9  1  0  0  0  0
  3  4  1  0  0  0  0
  3  2  1  0  0  0  0
  4  5  1  0  0  0  0
  5  1  1  0  0  0  0
  5 11  1  0  0  0  0
  8  3  1  0  0  0  0
 10  5  1  0  0  0  0
 12 18  1  0  0  0  0
 13 19  1  0  0  0  0
 13 12  2  0  0  0  0
 14 13  1  0  0  0  0
 15 14  2  0  0  0  0
 15 16  1  0  0  0  0
 16 17  2  0  0  0  0
 17 12  1  0  0  0  0
 20 16  1  0  0  0  0
 21 24  1  0  0  0  0
 22 23  1  0  0  0  0
 23 32  1  0  0  0  0
 24 23  1  0  0  0  0
 24 25  2  0  0  0  0
 25 26  1  0  0  0  0
 26 27  1  0  0  0  0
 27 33  1  0  0  0  0
 27 28  2  0  0  0  0
 29 28  1  0  0  0  0
 29 30  1  0  0  0  0
 31 29  2  0  0  0  0
 32 26  2  0  0  0  0
 32 31  1  0  0  0  0
 33 35  1  0  0  0  0
 33 34  1  0  0  0  0
M  END
>  <minimizedAffinity>
-5.23209715

$$$$

 OpenBabel03272501063D

 35 38  0  0  1  0  0  0  0  0999 V2000
   39.3470   23.8630   33.3230 C   0  0  2  0  0  0  0  0  0  0  0  0
   39.9000   24.7440   34.4780 C   0  0  2  0  0  0  0  0  0  0  0  0
   41.3340   24.6930   34.1480 C   0  0  0  0  0  0  0  0  0  0  0  0
   41.4300   24.7830   32.7660 O   0  0  0  0  0  0  0  0  0  0  0  0
   40.2380   24.4000   32.2080 C   0  0  0  0  0  0  0  0  0  0  0  0
   39.5280   22.8200   33.5690 H   0  0  0  0  0  0  0  0  0  0  0  0
   39.4620   25.7600   34.2940 H   0  0  0  0  0  0  0  0  0  0  0  0
   41.9840   25.4280   34.6560 H   0  0  0  0  0  0  0  0  0  0  0  0
   41.7230   23.6870   34.4370 H   0  0  0  0  0  0  0  0  0  0  0  0
   39.7580   25.2960   31.7610 H   0  0  0  0  0  0  0  0  0  0  0  0
   40.4000   23.5810   31.4810 H   0  0  0  0  0  0  0  0  0  0  0  0
   39.8030   22.7840   37.7070 C   0  0  0  0  0  0  0  0  0  0  0  0
   40.2460   23.2420   36.4390 C   0  0  0  0  0  0  0  0  0  0  0  0
   39.5060   24.2490   35.7730 C   0  0  0  0  0  0  0  0  0  0  0  0
   38.3830   24.7280   36.4080 N   0  0  0  0  0  0  0  0  0  0  0  0
   37.9930   24.2750   37.6000 C   0  0  0  0  0  0  0  0  0  0  0  0
   38.6940   23.3050   38.2590 N   0  0  0  0  0  0  0  0  0  0  0  0
   40.4480   22.0180   38.1140 H   0  0  0  0  0  0  0  0  0  0  0  0
   41.1420   22.8430   35.9590 H   0  0  0  0  0  0  0  0  0  0  0  0
   37.0930   24.6800   38.0750 H   0  0  0  0  0  0  0  0  0  0  0  0
   38.0050   24.1620   33.0860 O   0  0  0  0  0  0  0  0  0  0  0  0
   37.0260   26.1650   34.6600 H   0  0  0  0  0  0  0  0  0  0  0  0
   37.1010   26.2170   33.6010 N   0  0  0  0  0  0  0  0  0  0  0  0
   37.5400   25.3780   32.6340 C   0  0  0  0  0  0  0  0  0  0  0  0
   37.3830   26.0120   31.4480 N   0  0  0  0  0  0  0  0  0  0  0  0
   36.8490   27.2400   31.6720 C   0  0  0  0  0  0  0  0  0  0  0  0
   36.5130   28.2460   30.7670 C   0  0  0  0  0  0  0  0  0  0  0  0
   35.9840   29.4050   31.2560 N   0  0  0  0  0  0  0  0  0  0  0  0
   35.8100   29.5270   32.6040 C   0  0  0  0  0  0  0  0  0  0  0  0
   35.3840   30.4650   32.9840 H   0  0  0  0  0  0  0  0  0  0  0  0
   36.1490   28.5320   33.4400 N   0  0  0  0  0  0  0  0  0  0  0  0
   36.6750   27.3610   33.0340 C   0  0  0  0  0  0  0  0  0  0  0  0
   36.7340   28.0180   29.3840 N   0  0  0  0  0  0  0  0  0  0  0  0
   37.4220   28.5880   28.8350 H   0  0  0  0  0  0  0  0  0  0  0  0
   36.3480   27.3520   28.6820 H   0  0  0  0  0  0  0  0  0  0  0  0
  1  6  1  1  0  0  0
  1  2  1  0  0  0  0
  2  7  1  6  0  0  0
  2 14  1  0  0  0  0
  3  9  1  0  0  0  0
  3  2  1  0  0  0  0
  3  8  1  0  0  0  0
  4  3  1  0  0  0  0
  5  4  1  0  0  0  0
  5  1  1  0  0  0  0
 10  5  1  0  0  0  0
 11  5  1  0  0  0  0
 12 18  1  0  0  0  0
 12 17  1  0  0  0  0
 13 12  2  0  0  0  0
 14 15  2  0  0  0  0
 14 13  1  0  0  0  0
 15 16  1  0  0  0  0
 16 20  1  0  0  0  0
 16 17  2  0  0  0  0
 19 13  1  0  0  0  0
 21  1  1  0  0  0  0
 23 22  1  0  0  0  0
 24 21  1  0  0  0  0
 24 23  1  0  0  0  0
 25 26  1  0  0  0  0
 25 24  2  0  0  0  0
 26 32  1  0  0  0  0
 27 28  1  0  0  0  0
 27 26  2  0  0  0  0
 28 29  2  0  0  0  0
 29 30  1  0  0  0  0
 29 31  1  0  0  0  0
 32 31  2  0  0  0  0
 32 23  1  0  0  0  0
 33 27  1  0  0  0  0
 34 33  1  0  0  0  0
 35 33  1  0  0  0  0
M  END
>  <minimizedAffinity>
-5.1480937

$$$$

 OpenBabel03272501063D

 35 38  0  0  1  0  0  0  0  0999 V2000
   36.6490   27.4940   34.2040 C   0  0  2  0  0  0  0  0  0  0  0  0
   36.8660   27.6560   32.6730 C   0  0  2  0  0  0  0  0  0  0  0  0
   35.6160   28.3530   32.3290 C   0  0  0  0  0  0  0  0  0  0  0  0
   35.3740   29.2650   33.3470 O   0  0  0  0  0  0  0  0  0  0  0  0
   36.0470   28.8690   34.4740 C   0  0  0  0  0  0  0  0  0  0  0  0
   35.9590   26.6700   34.3680 H   0  0  0  0  0  0  0  0  0  0  0  0
   37.7610   28.3260   32.5830 H   0  0  0  0  0  0  0  0  0  0  0  0
   35.5720   28.8270   31.3320 H   0  0  0  0  0  0  0  0  0  0  0  0
   34.7830   27.6090   32.3530 H   0  0  0  0  0  0  0  0  0  0  0  0
   36.8680   29.5920   34.6610 H   0  0  0  0  0  0  0  0  0  0  0  0
   35.3480   28.7700   35.3260 H   0  0  0  0  0  0  0  0  0  0  0  0
   36.3560   24.2960   31.0210 C   0  0  0  0  0  0  0  0  0  0  0  0
   36.0520   25.5340   31.6440 C   0  0  0  0  0  0  0  0  0  0  0  0
   37.1120   26.3920   32.0240 C   0  0  0  0  0  0  0  0  0  0  0  0
   38.3930   25.9630   31.7620 N   0  0  0  0  0  0  0  0  0  0  0  0
   38.6450   24.7920   31.1750 C   0  0  0  0  0  0  0  0  0  0  0  0
   37.6360   23.9510   30.8000 N   0  0  0  0  0  0  0  0  0  0  0  0
   35.4670   23.7300   30.7780 H   0  0  0  0  0  0  0  0  0  0  0  0
   35.0250   25.8480   31.8400 H   0  0  0  0  0  0  0  0  0  0  0  0
   39.6780   24.4840   30.9820 H   0  0  0  0  0  0  0  0  0  0  0  0
   37.8740   27.3410   34.8530 O   0  0  0  0  0  0  0  0  0  0  0  0
   40.0600   25.9740   33.9610 H   0  0  0  0  0  0  0  0  0  0  0  0
   39.4470   25.6610   34.7690 N   0  0  0  0  0  0  0  0  0  0  0  0
   38.3430   26.1560   35.3770 C   0  0  0  0  0  0  0  0  0  0  0  0
   38.0080   25.2980   36.3680 N   0  0  0  0  0  0  0  0  0  0  0  0
   38.8970   24.2720   36.3820 C   0  0  0  0  0  0  0  0  0  0  0  0
   38.9620   23.1570   37.2170 C   0  0  0  0  0  0  0  0  0  0  0  0
   39.9690   22.2590   37.0200 N   0  0  0  0  0  0  0  0  0  0  0  0
   40.8660   22.4910   36.0170 C   0  0  0  0  0  0  0  0  0  0  0  0
   41.6730   21.7610   35.8700 H   0  0  0  0  0  0  0  0  0  0  0  0
   40.7660   23.5800   35.2370 N   0  0  0  0  0  0  0  0  0  0  0  0
   39.8020   24.5090   35.3690 C   0  0  0  0  0  0  0  0  0  0  0  0
   37.9790   23.0090   38.2300 N   0  0  0  0  0  0  0  0  0  0  0  0
   38.2280   23.0340   39.2480 H   0  0  0  0  0  0  0  0  0  0  0  0
   36.9470   22.8650   38.2310 H   0  0  0  0  0  0  0  0  0  0  0  0
  1  6  1  1  0  0  0
  1  5  1  0  0  0  0
  1 21  1  0  0  0  0
  2  7  1  6  0  0  0
  2  1  1  0  0  0  0
  3  9  1  0  0  0  0
  3  2  1  0  0  0  0
  3  4  1  0  0  0  0
  4  5  1  0  0  0  0
  5 10  1  0  0  0  0
  5 11  1  0  0  0  0
  8  3  1  0  0  0  0
 12 13  1  0  0  0  0
 13 19  1  0  0  0  0
 13 14  2  0  0  0  0
 14  2  1  0  0  0  0
 15 14  1  0  0  0  0
 16 15  2  0  0  0  0
 17 12  2  0  0  0  0
 17 16  1  0  0  0  0
 18 12  1  0  0  0  0
 20 16  1  0  0  0  0
 21 24  1  0  0  0  0
 22 23  1  0  0  0  0
 23 32  1  0  0  0  0
 23 24  1  0  0  0  0
 24 25  2  0  0  0  0
 25 26  1  0  0  0  0
 26 27  1  0  0  0  0
 27 33  1  0  0  0  0
 28 27  2  0  0  0  0
 29 28  1  0  0  0  0
 30 29  1  0  0  0  0
 31 32  1  0  0  0  0
 31 29  2  0  0  0  0
 32 26  2  0  0  0  0
 33 35  1  0  0  0  0
 33 34  1  0  0  0  0
M  END
>  <minimizedAffinity>
-5.12384653

$$$$

 OpenBabel03272501063D

 35 38  0  0  1  0  0  0  0  0999 V2000
   37.2170   23.8760   32.1840 C   0  0  2  0  0  0  0  0  0  0  0  0
   36.7880   25.2520   32.7670 C   0  0  2  0  0  0  0  0  0  0  0  0
   36.3340   25.9030   31.5270 C   0  0  0  0  0  0  0  0  0  0  0  0
   35.6560   24.9390   30.7950 O   0  0  0  0  0  0  0  0  0  0  0  0
   36.0590   23.6950   31.2090 C   0  0  0  0  0  0  0  0  0  0  0  0
   38.1850   23.9920   31.7040 H   0  0  0  0  0  0  0  0  0  0  0  0
   35.9350   25.0150   33.4560 H   0  0  0  0  0  0  0  0  0  0  0  0
   35.7400   26.8270   31.6440 H   0  0  0  0  0  0  0  0  0  0  0  0
   37.2350   26.1900   30.9330 H   0  0  0  0  0  0  0  0  0  0  0  0
   35.2110   23.2130   31.7390 H   0  0  0  0  0  0  0  0  0  0  0  0
   36.4300   23.1060   30.3490 H   0  0  0  0  0  0  0  0  0  0  0  0
   38.7320   27.1340   35.4050 C   0  0  0  0  0  0  0  0  0  0  0  0
   37.6420   26.5090   34.7450 C   0  0  0  0  0  0  0  0  0  0  0  0
   37.8590   25.8910   33.4900 C   0  0  0  0  0  0  0  0  0  0  0  0
   39.1360   25.9370   32.9800 N   0  0  0  0  0  0  0  0  0  0  0  0
   40.1400   26.5340   33.6250 C   0  0  0  0  0  0  0  0  0  0  0  0
   39.9490   27.1340   34.8370 N   0  0  0  0  0  0  0  0  0  0  0  0
   38.4420   27.5690   36.3520 H   0  0  0  0  0  0  0  0  0  0  0  0
   36.6380   26.4880   35.1750 H   0  0  0  0  0  0  0  0  0  0  0  0
   41.1430   26.5500   33.1880 H   0  0  0  0  0  0  0  0  0  0  0  0
   37.1950   22.9000   33.1800 O   0  0  0  0  0  0  0  0  0  0  0  0
   39.9060   22.7520   32.9040 H   0  0  0  0  0  0  0  0  0  0  0  0
   39.3980   22.7510   33.8370 N   0  0  0  0  0  0  0  0  0  0  0  0
   38.1000   22.8150   34.2160 C   0  0  0  0  0  0  0  0  0  0  0  0
   38.0730   22.7720   35.5690 N   0  0  0  0  0  0  0  0  0  0  0  0
   39.3450   22.6830   36.0330 C   0  0  0  0  0  0  0  0  0  0  0  0
   39.8150   22.6140   37.3440 C   0  0  0  0  0  0  0  0  0  0  0  0
   41.1610   22.5290   37.5450 N   0  0  0  0  0  0  0  0  0  0  0  0
   41.9850   22.5160   36.4570 C   0  0  0  0  0  0  0  0  0  0  0  0
   43.0670   22.4480   36.6330 H   0  0  0  0  0  0  0  0  0  0  0  0
   41.4890   22.5850   35.2110 N   0  0  0  0  0  0  0  0  0  0  0  0
   40.1760   22.6710   34.9330 C   0  0  0  0  0  0  0  0  0  0  0  0
   38.8720   22.6340   38.4050 N   0  0  0  0  0  0  0  0  0  0  0  0
   38.8400   23.4210   39.0980 H   0  0  0  0  0  0  0  0  0  0  0  0
   38.1100   21.9970   38.7170 H   0  0  0  0  0  0  0  0  0  0  0  0
  1  6  1  6  0  0  0
  1  2  1  0  0  0  0
  1 21  1  0  0  0  0
  2  7  1  1  0  0  0
  2 14  1  0  0  0  0
  3  8  1  0  0  0  0
  3  2  1  0  0  0  0
  4  5  1  0  0  0  0
  4  3  1  0  0  0  0
  5 10  1  0  0  0  0
  5  1  1  0  0  0  0
  9  3  1  0  0  0  0
 11  5  1  0  0  0  0
 12 18  1  0  0  0  0
 13 19  1  0  0  0  0
 13 12  2  0  0  0  0
 14 13  1  0  0  0  0
 15 14  2  0  0  0  0
 15 16  1  0  0  0  0
 16 17  2  0  0  0  0
 17 12  1  0  0  0  0
 20 16  1  0  0  0  0
 21 24  1  0  0  0  0
 22 23  1  0  0  0  0
 23 24  1  0  0  0  0
 23 32  1  0  0  0  0
 24 25  2  0  0  0  0
 25 26  1  0  0  0  0
 26 27  1  0  0  0  0
 27 28  2  0  0  0  0
 27 33  1  0  0  0  0
 29 30  1  0  0  0  0
 29 28  1  0  0  0  0
 31 29  2  0  0  0  0
 32 31  1  0  0  0  0
 32 26  2  0  0  0  0
 33 35  1  0  0  0  0
 33 34  1  0  0  0  0
M  END
>  <minimizedAffinity>
-5.11437273

$$$$

 OpenBabel03272501063D

 35 38  0  0  1  0  0  0  0  0999 V2000
   36.9340   26.5780   32.9270 C   0  0  2  0  0  0  0  0  0  0  0  0
   37.0700   26.2350   31.4160 C   0  0  2  0  0  0  0  0  0  0  0  0
   35.8520   26.8920   30.9140 C   0  0  0  0  0  0  0  0  0  0  0  0
   35.7340   28.0930   31.5990 O   0  0  0  0  0  0  0  0  0  0  0  0
   36.4450   28.0140   32.7690 C   0  0  0  0  0  0  0  0  0  0  0  0
   36.2010   25.9080   33.3680 H   0  0  0  0  0  0  0  0  0  0  0  0
   38.0010   26.7660   31.0880 H   0  0  0  0  0  0  0  0  0  0  0  0
   35.7810   27.0320   29.8210 H   0  0  0  0  0  0  0  0  0  0  0  0
   34.9730   26.2650   31.2020 H   0  0  0  0  0  0  0  0  0  0  0  0
   37.3230   28.6880   32.6890 H   0  0  0  0  0  0  0  0  0  0  0  0
   35.7930   28.2460   33.6330 H   0  0  0  0  0  0  0  0  0  0  0  0
   36.3580   22.5240   31.3660 C   0  0  0  0  0  0  0  0  0  0  0  0
   36.1790   23.9120   31.6000 C   0  0  0  0  0  0  0  0  0  0  0  0
   37.1900   24.8160   31.1930 C   0  0  0  0  0  0  0  0  0  0  0  0
   38.3030   24.2820   30.5860 N   0  0  0  0  0  0  0  0  0  0  0  0
   38.4420   22.9710   30.3810 C   0  0  0  0  0  0  0  0  0  0  0  0
   37.4770   22.0840   30.7650 N   0  0  0  0  0  0  0  0  0  0  0  0
   35.5220   21.9370   31.7190 H   0  0  0  0  0  0  0  0  0  0  0  0
   35.2840   24.3070   32.0850 H   0  0  0  0  0  0  0  0  0  0  0  0
   39.3420   22.5820   29.8940 H   0  0  0  0  0  0  0  0  0  0  0  0
   38.1830   26.5350   33.5470 O   0  0  0  0  0  0  0  0  0  0  0  0
   37.0430   26.3470   36.0200 H   0  0  0  0  0  0  0  0  0  0  0  0
   37.8350   25.7280   35.6770 N   0  0  0  0  0  0  0  0  0  0  0  0
   38.5430   25.6340   34.5260 C   0  0  0  0  0  0  0  0  0  0  0  0
   39.4410   24.6340   34.6850 N   0  0  0  0  0  0  0  0  0  0  0  0
   39.2960   24.1050   35.9270 C   0  0  0  0  0  0  0  0  0  0  0  0
   39.9910   23.0630   36.5400 C   0  0  0  0  0  0  0  0  0  0  0  0
   39.6470   22.7190   37.8140 N   0  0  0  0  0  0  0  0  0  0  0  0
   38.6420   23.4080   38.4300 C   0  0  0  0  0  0  0  0  0  0  0  0
   38.3740   23.1200   39.4550 H   0  0  0  0  0  0  0  0  0  0  0  0
   37.9990   24.4040   37.8000 N   0  0  0  0  0  0  0  0  0  0  0  0
   38.2800   24.8010   36.5460 C   0  0  0  0  0  0  0  0  0  0  0  0
   41.0210   22.4120   35.8130 N   0  0  0  0  0  0  0  0  0  0  0  0
   40.9500   21.4010   35.5430 H   0  0  0  0  0  0  0  0  0  0  0  0
   41.9420   22.7080   35.4270 H   0  0  0  0  0  0  0  0  0  0  0  0
  1  6  1  1  0  0  0
  1 21  1  0  0  0  0
  2  7  1  6  0  0  0
  2  1  1  0  0  0  0
  3  9  1  0  0  0  0
  3  2  1  0  0  0  0
  3  4  1  0  0  0  0
  4  5  1  0  0  0  0
  5  1  1  0  0  0  0
  5 11  1  0  0  0  0
  8  3  1  0  0  0  0
 10  5  1  0  0  0  0
 12 13  1  0  0  0  0
 12 18  1  0  0  0  0
 13 19  1  0  0  0  0
 14  2  1  0  0  0  0
 14 13  2  0  0  0  0
 15 14  1  0  0  0  0
 16 15  2  0  0  0  0
 16 17  1  0  0  0  0
 17 12  2  0  0  0  0
 20 16  1  0  0  0  0
 21 24  1  0  0  0  0
 23 22  1  0  0  0  0
 23 32  1  0  0  0  0
 24 25  2  0  0  0  0
 24 23  1  0  0  0  0
 25 26  1  0  0  0  0
 26 27  2  0  0  0  0
 26 32  1  0  0  0  0
 27 28  1  0  0  0  0
 28 29  2  0  0  0  0
 29 30  1  0  0  0  0
 31 29  1  0  0  0  0
 32 31  2  0  0  0  0
 33 27  1  0  0  0  0
 34 33  1  0  0  0  0
 35 33  1  0  0  0  0
M  END
>  <minimizedAffinity>
-5.07747269

$$$$
