
 OpenBabel03272505093D

 34 37  0  0  0  0  0  0  0  0999 V2000
   38.3410   26.7740   32.6140 Cl  0  0  0  0  0  0  0  0  0  0  0  0
   37.1100   25.7480   31.9300 C   0  0  0  0  0  0  0  0  0  0  0  0
   36.0440   26.3820   31.3260 C   0  0  0  0  0  0  0  0  0  0  0  0
   35.0590   25.5770   30.7790 C   0  0  0  0  0  0  0  0  0  0  0  0
   35.1590   24.2140   30.8490 C   0  0  0  0  0  0  0  0  0  0  0  0
   36.2550   23.6500   31.4700 C   0  0  0  0  0  0  0  0  0  0  0  0
   37.2760   24.3780   32.0370 C   0  0  0  0  0  0  0  0  0  0  0  0
   34.2220   26.0750   30.3040 H   0  0  0  0  0  0  0  0  0  0  0  0
   34.3750   23.5970   30.4130 H   0  0  0  0  0  0  0  0  0  0  0  0
   36.3140   22.5630   31.5130 H   0  0  0  0  0  0  0  0  0  0  0  0
   35.1520   29.7880   32.2640 C   0  0  0  0  0  0  0  0  0  0  0  0
   35.7840   30.5870   31.2750 C   0  0  0  0  0  0  0  0  0  0  0  0
   36.5120   29.9320   30.2940 C   0  0  0  0  0  0  0  0  0  0  0  0
   36.5770   28.5690   30.3390 N   0  0  0  0  0  0  0  0  0  0  0  0
   35.9760   27.8490   31.2750 C   0  0  0  0  0  0  0  0  0  0  0  0
   35.2640   28.4620   32.2390 N   0  0  0  0  0  0  0  0  0  0  0  0
   34.5990   30.3550   33.0020 H   0  0  0  0  0  0  0  0  0  0  0  0
   35.7460   31.6530   31.2220 H   0  0  0  0  0  0  0  0  0  0  0  0
   37.0100   30.4720   29.5250 H   0  0  0  0  0  0  0  0  0  0  0  0
   38.6880   23.6780   32.8380 S   0  0  0  0  0  0  0  0  0  0  0  0
   37.2810   25.3060   35.1080 H   0  0  0  0  0  0  0  0  0  0  0  0
   37.9340   24.6020   35.4710 N   0  0  0  0  0  0  0  0  0  0  0  0
   38.6020   23.8360   34.5970 C   0  0  0  0  0  0  0  0  0  0  0  0
   39.3910   22.9980   35.3250 N   0  0  0  0  0  0  0  0  0  0  0  0
   39.1750   23.2820   36.6400 C   0  0  0  0  0  0  0  0  0  0  0  0
   39.6660   22.7880   37.8410 C   0  0  0  0  0  0  0  0  0  0  0  0
   39.2530   23.2840   39.0230 N   0  0  0  0  0  0  0  0  0  0  0  0
   38.3520   24.2760   39.0910 C   0  0  0  0  0  0  0  0  0  0  0  0
   38.0750   24.6150   40.0660 H   0  0  0  0  0  0  0  0  0  0  0  0
   37.8530   24.7810   37.9260 N   0  0  0  0  0  0  0  0  0  0  0  0
   38.2570   24.2940   36.7390 C   0  0  0  0  0  0  0  0  0  0  0  0
   40.6280   21.7270   37.7350 N   0  0  0  0  0  0  0  0  0  0  0  0
   40.5750   20.6750   37.8250 H   0  0  0  0  0  0  0  0  0  0  0  0
   41.5860   22.1000   37.5200 H   0  0  0  0  0  0  0  0  0  0  0  0
  2  7  1  0  0  0  0
  2  1  1  0  0  0  0
  3  2  2  0  0  0  0
  4  5  2  0  0  0  0
  4  3  1  0  0  0  0
  5  6  1  0  0  0  0
  6 10  1  0  0  0  0
  6  7  2  0  0  0  0
  7 20  1  0  0  0  0
  8  4  1  0  0  0  0
  9  5  1  0  0  0  0
 11 17  1  0  0  0  0
 12 11  2  0  0  0  0
 13 14  2  0  0  0  0
 13 12  1  0  0  0  0
 14 15  1  0  0  0  0
 15  3  1  0  0  0  0
 15 16  2  0  0  0  0
 16 11  1  0  0  0  0
 18 12  1  0  0  0  0
 19 13  1  0  0  0  0
 20 23  1  0  0  0  0
 21 22  1  0  0  0  0
 22 31  1  0  0  0  0
 23 24  2  0  0  0  0
 23 22  1  0  0  0  0
 24 25  1  0  0  0  0
 25 31  2  0  0  0  0
 25 26  1  0  0  0  0
 26 27  2  0  0  0  0
 27 28  1  0  0  0  0
 28 29  1  0  0  0  0
 30 28  2  0  0  0  0
 31 30  1  0  0  0  0
 32 33  1  0  0  0  0
 32 26  1  0  0  0  0
 34 32  1  0  0  0  0
M  END
>  <minimizedAffinity>
-6.11548328

$$$$

 OpenBabel03272505093D

 34 37  0  0  0  0  0  0  0  0999 V2000
   38.0420   24.0830   33.1360 Cl  0  0  0  0  0  0  0  0  0  0  0  0
   37.8850   25.5770   34.0180 C   0  0  0  0  0  0  0  0  0  0  0  0
   38.5540   25.6560   35.2220 C   0  0  0  0  0  0  0  0  0  0  0  0
   38.4370   26.8390   35.9320 C   0  0  0  0  0  0  0  0  0  0  0  0
   37.6830   27.8700   35.4420 C   0  0  0  0  0  0  0  0  0  0  0  0
   37.0410   27.7190   34.2300 C   0  0  0  0  0  0  0  0  0  0  0  0
   37.1070   26.5780   33.4630 C   0  0  0  0  0  0  0  0  0  0  0  0
   38.9640   26.9010   36.8780 H   0  0  0  0  0  0  0  0  0  0  0  0
   37.6020   28.7930   36.0150 H   0  0  0  0  0  0  0  0  0  0  0  0
   36.4460   28.5530   33.8600 H   0  0  0  0  0  0  0  0  0  0  0  0
   39.4190   22.6500   37.0910 C   0  0  0  0  0  0  0  0  0  0  0  0
   40.7520   22.3750   36.6890 C   0  0  0  0  0  0  0  0  0  0  0  0
   41.3360   23.2370   35.7730 C   0  0  0  0  0  0  0  0  0  0  0  0
   40.5960   24.2900   35.3180 N   0  0  0  0  0  0  0  0  0  0  0  0
   39.3530   24.5230   35.7110 C   0  0  0  0  0  0  0  0  0  0  0  0
   38.7650   23.6990   36.5990 N   0  0  0  0  0  0  0  0  0  0  0  0
   39.0190   21.9430   37.8070 H   0  0  0  0  0  0  0  0  0  0  0  0
   41.3480   21.5570   37.0330 H   0  0  0  0  0  0  0  0  0  0  0  0
   42.3310   23.0870   35.4310 H   0  0  0  0  0  0  0  0  0  0  0  0
   36.2930   26.3600   31.9090 S   0  0  0  0  0  0  0  0  0  0  0  0
   38.2250   26.5380   29.4570 H   0  0  0  0  0  0  0  0  0  0  0  0
   37.7500   27.4270   29.6520 N   0  0  0  0  0  0  0  0  0  0  0  0
   36.8920   27.4820   30.6810 C   0  0  0  0  0  0  0  0  0  0  0  0
   36.4050   28.7530   30.7240 N   0  0  0  0  0  0  0  0  0  0  0  0
   36.9880   29.4430   29.7040 C   0  0  0  0  0  0  0  0  0  0  0  0
   36.9080   30.7470   29.2340 C   0  0  0  0  0  0  0  0  0  0  0  0
   37.6280   31.1540   28.1710 N   0  0  0  0  0  0  0  0  0  0  0  0
   38.4530   30.3180   27.5220 C   0  0  0  0  0  0  0  0  0  0  0  0
   38.9900   30.7150   26.6890 H   0  0  0  0  0  0  0  0  0  0  0  0
   38.5520   29.0300   27.9640 N   0  0  0  0  0  0  0  0  0  0  0  0
   37.8380   28.6130   29.0240 C   0  0  0  0  0  0  0  0  0  0  0  0
   36.0150   31.6170   29.9490 N   0  0  0  0  0  0  0  0  0  0  0  0
   35.0290   31.9570   29.7800 H   0  0  0  0  0  0  0  0  0  0  0  0
   36.4610   31.9820   30.8270 H   0  0  0  0  0  0  0  0  0  0  0  0
  1  2  1  0  0  0  0
  2  3  1  0  0  0  0
  3 15  1  0  0  0  0
  3  4  2  0  0  0  0
  4  8  1  0  0  0  0
  5  4  1  0  0  0  0
  5  9  1  0  0  0  0
  6  5  2  0  0  0  0
  7  2  2  0  0  0  0
  7  6  1  0  0  0  0
 10  6  1  0  0  0  0
 11 17  1  0  0  0  0
 12 18  1  0  0  0  0
 12 11  1  0  0  0  0
 13 12  2  0  0  0  0
 14 15  2  0  0  0  0
 14 13  1  0  0  0  0
 15 16  1  0  0  0  0
 16 11  2  0  0  0  0
 19 13  1  0  0  0  0
 20  7  1  0  0  0  0
 21 22  1  0  0  0  0
 22 23  1  0  0  0  0
 23 24  2  0  0  0  0
 23 20  1  0  0  0  0
 25 24  1  0  0  0  0
 26 25  1  0  0  0  0
 26 32  1  0  0  0  0
 27 26  2  0  0  0  0
 28 30  2  0  0  0  0
 28 27  1  0  0  0  0
 29 28  1  0  0  0  0
 30 31  1  0  0  0  0
 31 22  1  0  0  0  0
 31 25  2  0  0  0  0
 32 34  1  0  0  0  0
 33 32  1  0  0  0  0
M  END
>  <minimizedAffinity>
-5.77571964

$$$$

 OpenBabel03272505093D

 34 37  0  0  0  0  0  0  0  0999 V2000
   36.0540   26.5060   31.7490 Cl  0  0  0  0  0  0  0  0  0  0  0  0
   36.7400   26.9710   33.2810 C   0  0  0  0  0  0  0  0  0  0  0  0
   36.4400   28.2400   33.7320 C   0  0  0  0  0  0  0  0  0  0  0  0
   36.9800   28.6210   34.9490 C   0  0  0  0  0  0  0  0  0  0  0  0
   37.7740   27.7590   35.6550 C   0  0  0  0  0  0  0  0  0  0  0  0
   38.0310   26.5040   35.1410 C   0  0  0  0  0  0  0  0  0  0  0  0
   37.5340   26.0490   33.9420 C   0  0  0  0  0  0  0  0  0  0  0  0
   36.7440   29.6180   35.3030 H   0  0  0  0  0  0  0  0  0  0  0  0
   38.1900   28.0760   36.6110 H   0  0  0  0  0  0  0  0  0  0  0  0
   38.6660   25.8350   35.7210 H   0  0  0  0  0  0  0  0  0  0  0  0
   33.4400   29.9850   32.6250 C   0  0  0  0  0  0  0  0  0  0  0  0
   33.8890   30.7690   31.5310 C   0  0  0  0  0  0  0  0  0  0  0  0
   35.2300   30.6810   31.1890 C   0  0  0  0  0  0  0  0  0  0  0  0
   36.0300   29.8530   31.9230 N   0  0  0  0  0  0  0  0  0  0  0  0
   35.5820   29.1330   32.9400 C   0  0  0  0  0  0  0  0  0  0  0  0
   34.2840   29.2010   33.2910 N   0  0  0  0  0  0  0  0  0  0  0  0
   32.3850   30.0960   32.8430 H   0  0  0  0  0  0  0  0  0  0  0  0
   33.2810   31.4230   30.9440 H   0  0  0  0  0  0  0  0  0  0  0  0
   35.6310   31.2430   30.3800 H   0  0  0  0  0  0  0  0  0  0  0  0
   37.8500   24.4480   33.2630 S   0  0  0  0  0  0  0  0  0  0  0  0
   40.5490   22.8960   32.9680 H   0  0  0  0  0  0  0  0  0  0  0  0
   40.2080   22.9180   33.9360 N   0  0  0  0  0  0  0  0  0  0  0  0
   39.0580   23.5550   34.1960 C   0  0  0  0  0  0  0  0  0  0  0  0
   38.8330   23.4380   35.5340 N   0  0  0  0  0  0  0  0  0  0  0  0
   39.8700   22.7240   36.0560 C   0  0  0  0  0  0  0  0  0  0  0  0
   40.2110   22.2830   37.3280 C   0  0  0  0  0  0  0  0  0  0  0  0
   41.3350   21.5740   37.5450 N   0  0  0  0  0  0  0  0  0  0  0  0
   42.1710   21.2620   36.5420 C   0  0  0  0  0  0  0  0  0  0  0  0
   43.0420   20.6970   36.7940 H   0  0  0  0  0  0  0  0  0  0  0  0
   41.8600   21.6830   35.2820 N   0  0  0  0  0  0  0  0  0  0  0  0
   40.7410   22.3930   35.0530 C   0  0  0  0  0  0  0  0  0  0  0  0
   39.2950   22.6330   38.3780 N   0  0  0  0  0  0  0  0  0  0  0  0
   39.2800   23.3880   39.1180 H   0  0  0  0  0  0  0  0  0  0  0  0
   38.4700   21.9840   38.3970 H   0  0  0  0  0  0  0  0  0  0  0  0
  1  2  1  0  0  0  0
  2  3  2  0  0  0  0
  2  7  1  0  0  0  0
  3  4  1  0  0  0  0
  4  8  1  0  0  0  0
  4  5  2  0  0  0  0
  5  9  1  0  0  0  0
  6  5  1  0  0  0  0
  6 10  1  0  0  0  0
  7  6  2  0  0  0  0
 11 17  1  0  0  0  0
 11 16  1  0  0  0  0
 12 11  2  0  0  0  0
 13 12  1  0  0  0  0
 13 14  2  0  0  0  0
 14 15  1  0  0  0  0
 15 16  2  0  0  0  0
 15  3  1  0  0  0  0
 18 12  1  0  0  0  0
 19 13  1  0  0  0  0
 20  7  1  0  0  0  0
 20 23  1  0  0  0  0
 21 22  1  0  0  0  0
 22 23  1  0  0  0  0
 22 31  1  0  0  0  0
 23 24  2  0  0  0  0
 24 25  1  0  0  0  0
 25 26  1  0  0  0  0
 26 27  2  0  0  0  0
 26 32  1  0  0  0  0
 28 29  1  0  0  0  0
 28 27  1  0  0  0  0
 30 28  2  0  0  0  0
 31 30  1  0  0  0  0
 31 25  2  0  0  0  0
 32 34  1  0  0  0  0
 32 33  1  0  0  0  0
M  END
>  <minimizedAffinity>
-5.62020063

$$$$

 OpenBabel03272505093D

 34 37  0  0  0  0  0  0  0  0999 V2000
   39.5050   24.5500   33.7530 Cl  0  0  0  0  0  0  0  0  0  0  0  0
   38.2750   23.3680   33.3980 C   0  0  0  0  0  0  0  0  0  0  0  0
   37.8940   22.5430   34.4370 C   0  0  0  0  0  0  0  0  0  0  0  0
   36.9170   21.5990   34.1660 C   0  0  0  0  0  0  0  0  0  0  0  0
   36.3710   21.5060   32.9160 C   0  0  0  0  0  0  0  0  0  0  0  0
   36.8020   22.3660   31.9250 C   0  0  0  0  0  0  0  0  0  0  0  0
   37.7650   23.3300   32.1120 C   0  0  0  0  0  0  0  0  0  0  0  0
   36.6180   20.9520   34.9820 H   0  0  0  0  0  0  0  0  0  0  0  0
   35.6040   20.7580   32.7210 H   0  0  0  0  0  0  0  0  0  0  0  0
   36.3520   22.2730   30.9370 H   0  0  0  0  0  0  0  0  0  0  0  0
   38.2980   23.5290   37.9200 C   0  0  0  0  0  0  0  0  0  0  0  0
   39.5620   22.9910   38.2790 C   0  0  0  0  0  0  0  0  0  0  0  0
   40.2590   22.2910   37.3060 C   0  0  0  0  0  0  0  0  0  0  0  0
   39.6910   22.1640   36.0710 N   0  0  0  0  0  0  0  0  0  0  0  0
   38.5090   22.6780   35.7640 C   0  0  0  0  0  0  0  0  0  0  0  0
   37.8130   23.3610   36.6930 N   0  0  0  0  0  0  0  0  0  0  0  0
   37.8030   24.0640   38.7210 H   0  0  0  0  0  0  0  0  0  0  0  0
   40.0240   23.0780   39.2380 H   0  0  0  0  0  0  0  0  0  0  0  0
   41.2100   21.8620   37.5110 H   0  0  0  0  0  0  0  0  0  0  0  0
   38.3350   24.4410   30.8600 S   0  0  0  0  0  0  0  0  0  0  0  0
   37.4170   26.9040   29.1660 H   0  0  0  0  0  0  0  0  0  0  0  0
   37.2510   27.0300   30.1710 N   0  0  0  0  0  0  0  0  0  0  0  0
   37.6010   26.0430   31.0070 C   0  0  0  0  0  0  0  0  0  0  0  0
   37.2820   26.4550   32.2650 N   0  0  0  0  0  0  0  0  0  0  0  0
   36.7360   27.6990   32.1550 C   0  0  0  0  0  0  0  0  0  0  0  0
   36.2250   28.6250   33.0540 C   0  0  0  0  0  0  0  0  0  0  0  0
   35.7390   29.8110   32.6370 N   0  0  0  0  0  0  0  0  0  0  0  0
   35.7300   30.1470   31.3380 C   0  0  0  0  0  0  0  0  0  0  0  0
   35.3290   31.1040   31.0860 H   0  0  0  0  0  0  0  0  0  0  0  0
   36.2270   29.2550   30.4320 N   0  0  0  0  0  0  0  0  0  0  0  0
   36.7140   28.0680   30.8370 C   0  0  0  0  0  0  0  0  0  0  0  0
   36.2490   28.2360   34.4360 N   0  0  0  0  0  0  0  0  0  0  0  0
   35.5280   27.8430   35.1010 H   0  0  0  0  0  0  0  0  0  0  0  0
   37.2000   28.3820   34.8570 H   0  0  0  0  0  0  0  0  0  0  0  0
  2  1  1  0  0  0  0
  2  3  1  0  0  0  0
  3 15  1  0  0  0  0
  4  3  2  0  0  0  0
  4  8  1  0  0  0  0
  5  4  1  0  0  0  0
  6  7  1  0  0  0  0
  6  5  2  0  0  0  0
  7  2  2  0  0  0  0
  9  5  1  0  0  0  0
 10  6  1  0  0  0  0
 11 12  1  0  0  0  0
 11 17  1  0  0  0  0
 12 18  1  0  0  0  0
 13 19  1  0  0  0  0
 13 12  2  0  0  0  0
 14 13  1  0  0  0  0
 15 14  2  0  0  0  0
 15 16  1  0  0  0  0
 16 11  2  0  0  0  0
 20 23  1  0  0  0  0
 20  7  1  0  0  0  0
 21 22  1  0  0  0  0
 22 31  1  0  0  0  0
 22 23  1  0  0  0  0
 23 24  2  0  0  0  0
 25 24  1  0  0  0  0
 25 26  1  0  0  0  0
 26 32  1  0  0  0  0
 27 26  2  0  0  0  0
 28 27  1  0  0  0  0
 29 28  1  0  0  0  0
 30 31  1  0  0  0  0
 30 28  2  0  0  0  0
 31 25  2  0  0  0  0
 32 34  1  0  0  0  0
 32 33  1  0  0  0  0
M  END
>  <minimizedAffinity>
-5.60472202

$$$$

 OpenBabel03272505093D

 34 37  0  0  0  0  0  0  0  0999 V2000
   37.5210   26.2000   31.4800 Cl  0  0  0  0  0  0  0  0  0  0  0  0
   37.8010   26.4660   33.1780 C   0  0  0  0  0  0  0  0  0  0  0  0
   37.2160   27.5860   33.7320 C   0  0  0  0  0  0  0  0  0  0  0  0
   37.4320   27.8080   35.0820 C   0  0  0  0  0  0  0  0  0  0  0  0
   38.1970   26.9420   35.8130 C   0  0  0  0  0  0  0  0  0  0  0  0
   38.7520   25.8420   35.1910 C   0  0  0  0  0  0  0  0  0  0  0  0
   38.5860   25.5490   33.8570 C   0  0  0  0  0  0  0  0  0  0  0  0
   36.9710   28.6880   35.5170 H   0  0  0  0  0  0  0  0  0  0  0  0
   38.3570   27.1320   36.8740 H   0  0  0  0  0  0  0  0  0  0  0  0
   39.3580   25.1660   35.7930 H   0  0  0  0  0  0  0  0  0  0  0  0
   34.3480   29.5570   32.6530 C   0  0  0  0  0  0  0  0  0  0  0  0
   34.7910   30.1660   31.4490 C   0  0  0  0  0  0  0  0  0  0  0  0
   36.0810   29.8840   31.0270 C   0  0  0  0  0  0  0  0  0  0  0  0
   36.8410   29.0450   31.7890 N   0  0  0  0  0  0  0  0  0  0  0  0
   36.4010   28.4900   32.9090 C   0  0  0  0  0  0  0  0  0  0  0  0
   35.1520   28.7490   33.3400 N   0  0  0  0  0  0  0  0  0  0  0  0
   33.3340   29.8150   32.9300 H   0  0  0  0  0  0  0  0  0  0  0  0
   34.2130   30.8250   30.8380 H   0  0  0  0  0  0  0  0  0  0  0  0
   36.4730   30.3080   30.1340 H   0  0  0  0  0  0  0  0  0  0  0  0
   39.2860   24.1480   33.0370 S   0  0  0  0  0  0  0  0  0  0  0  0
   37.9260   22.6300   30.6660 H   0  0  0  0  0  0  0  0  0  0  0  0
   37.5710   22.3340   31.5820 N   0  0  0  0  0  0  0  0  0  0  0  0
   38.0750   22.9100   32.6820 C   0  0  0  0  0  0  0  0  0  0  0  0
   37.4430   22.3490   33.7500 N   0  0  0  0  0  0  0  0  0  0  0  0
   36.5610   21.4330   33.2600 C   0  0  0  0  0  0  0  0  0  0  0  0
   35.6460   20.5560   33.8280 C   0  0  0  0  0  0  0  0  0  0  0  0
   34.8880   19.7450   33.0650 N   0  0  0  0  0  0  0  0  0  0  0  0
   34.9820   19.7520   31.7260 C   0  0  0  0  0  0  0  0  0  0  0  0
   34.3470   19.0800   31.1910 H   0  0  0  0  0  0  0  0  0  0  0  0
   35.8730   20.6050   31.1420 N   0  0  0  0  0  0  0  0  0  0  0  0
   36.6360   21.4180   31.8930 C   0  0  0  0  0  0  0  0  0  0  0  0
   35.5690   20.5730   35.2620 N   0  0  0  0  0  0  0  0  0  0  0  0
   35.9700   19.9630   36.0270 H   0  0  0  0  0  0  0  0  0  0  0  0
   34.9820   21.3730   35.6030 H   0  0  0  0  0  0  0  0  0  0  0  0
  1  2  1  0  0  0  0
  2  3  2  0  0  0  0
  2  7  1  0  0  0  0
  3  4  1  0  0  0  0
  4  8  1  0  0  0  0
  4  5  2  0  0  0  0
  5  9  1  0  0  0  0
  6 10  1  0  0  0  0
  6  5  1  0  0  0  0
  7  6  2  0  0  0  0
 11 17  1  0  0  0  0
 11 16  1  0  0  0  0
 12 11  2  0  0  0  0
 13 12  1  0  0  0  0
 13 14  2  0  0  0  0
 14 15  1  0  0  0  0
 15 16  2  0  0  0  0
 15  3  1  0  0  0  0
 18 12  1  0  0  0  0
 19 13  1  0  0  0  0
 20  7  1  0  0  0  0
 21 22  1  0  0  0  0
 22 31  1  0  0  0  0
 22 23  1  0  0  0  0
 23 20  1  0  0  0  0
 23 24  2  0  0  0  0
 25 24  1  0  0  0  0
 25 26  1  0  0  0  0
 26 32  1  0  0  0  0
 27 26  2  0  0  0  0
 28 27  1  0  0  0  0
 29 28  1  0  0  0  0
 30 28  2  0  0  0  0
 30 31  1  0  0  0  0
 31 25  2  0  0  0  0
 32 34  1  0  0  0  0
 32 33  1  0  0  0  0
M  END
>  <minimizedAffinity>
-5.57774067

$$$$

 OpenBabel03272505093D

 34 37  0  0  0  0  0  0  0  0999 V2000
   38.2050   24.1020   33.0630 Cl  0  0  0  0  0  0  0  0  0  0  0  0
   38.0040   25.5490   34.0120 C   0  0  0  0  0  0  0  0  0  0  0  0
   38.6570   25.5860   35.2270 C   0  0  0  0  0  0  0  0  0  0  0  0
   38.5050   26.7320   35.9900 C   0  0  0  0  0  0  0  0  0  0  0  0
   37.7330   27.7680   35.5390 C   0  0  0  0  0  0  0  0  0  0  0  0
   37.1070   27.6590   34.3130 C   0  0  0  0  0  0  0  0  0  0  0  0
   37.2090   26.5570   33.4950 C   0  0  0  0  0  0  0  0  0  0  0  0
   39.0190   26.7620   36.9440 H   0  0  0  0  0  0  0  0  0  0  0  0
   37.6240   28.6610   36.1520 H   0  0  0  0  0  0  0  0  0  0  0  0
   36.4980   28.4960   33.9740 H   0  0  0  0  0  0  0  0  0  0  0  0
   41.5750   23.4440   35.6400 C   0  0  0  0  0  0  0  0  0  0  0  0
   41.0990   22.3770   36.4460 C   0  0  0  0  0  0  0  0  0  0  0  0
   39.7690   22.4150   36.8370 C   0  0  0  0  0  0  0  0  0  0  0  0
   39.0050   23.4680   36.4250 N   0  0  0  0  0  0  0  0  0  0  0  0
   39.4770   24.4510   35.6720 C   0  0  0  0  0  0  0  0  0  0  0  0
   40.7650   24.4370   35.2800 N   0  0  0  0  0  0  0  0  0  0  0  0
   42.6190   23.3580   35.3670 H   0  0  0  0  0  0  0  0  0  0  0  0
   41.6790   21.5440   36.7790 H   0  0  0  0  0  0  0  0  0  0  0  0
   39.3510   21.6470   37.4420 H   0  0  0  0  0  0  0  0  0  0  0  0
   36.4170   26.3940   31.9220 S   0  0  0  0  0  0  0  0  0  0  0  0
   35.7230   28.1330   29.4180 H   0  0  0  0  0  0  0  0  0  0  0  0
   36.7250   28.1420   29.6410 N   0  0  0  0  0  0  0  0  0  0  0  0
   37.1520   27.4350   30.6960 C   0  0  0  0  0  0  0  0  0  0  0  0
   38.5010   27.6120   30.7730 N   0  0  0  0  0  0  0  0  0  0  0  0
   38.8580   28.4360   29.7490 C   0  0  0  0  0  0  0  0  0  0  0  0
   40.0560   28.9770   29.3020 C   0  0  0  0  0  0  0  0  0  0  0  0
   40.1000   29.7850   28.2250 N   0  0  0  0  0  0  0  0  0  0  0  0
   38.9910   30.1000   27.5390 C   0  0  0  0  0  0  0  0  0  0  0  0
   39.1070   30.7470   26.6960 H   0  0  0  0  0  0  0  0  0  0  0  0
   37.7990   29.5820   27.9560 N   0  0  0  0  0  0  0  0  0  0  0  0
   37.7430   28.7750   29.0300 C   0  0  0  0  0  0  0  0  0  0  0  0
   41.2250   28.6210   30.0570 N   0  0  0  0  0  0  0  0  0  0  0  0
   41.7900   29.1050   30.8080 H   0  0  0  0  0  0  0  0  0  0  0  0
   41.5770   27.6700   29.7880 H   0  0  0  0  0  0  0  0  0  0  0  0
  1  2  1  0  0  0  0
  2  3  1  0  0  0  0
  3 15  1  0  0  0  0
  3  4  2  0  0  0  0
  4  8  1  0  0  0  0
  5  4  1  0  0  0  0
  5  9  1  0  0  0  0
  6  5  2  0  0  0  0
  7  2  2  0  0  0  0
  7  6  1  0  0  0  0
 10  6  1  0  0  0  0
 11 12  1  0  0  0  0
 12 18  1  0  0  0  0
 12 13  2  0  0  0  0
 13 19  1  0  0  0  0
 14 13  1  0  0  0  0
 15 14  2  0  0  0  0
 16 11  2  0  0  0  0
 16 15  1  0  0  0  0
 17 11  1  0  0  0  0
 20  7  1  0  0  0  0
 21 22  1  0  0  0  0
 22 23  1  0  0  0  0
 23 24  2  0  0  0  0
 23 20  1  0  0  0  0
 25 24  1  0  0  0  0
 26 25  1  0  0  0  0
 26 32  1  0  0  0  0
 27 26  2  0  0  0  0
 28 30  2  0  0  0  0
 28 27  1  0  0  0  0
 29 28  1  0  0  0  0
 30 31  1  0  0  0  0
 31 22  1  0  0  0  0
 31 25  2  0  0  0  0
 32 33  1  0  0  0  0
 34 32  1  0  0  0  0
M  END
>  <minimizedAffinity>
-5.57023621

$$$$

 OpenBabel03272505093D

 34 37  0  0  0  0  0  0  0  0999 V2000
   38.6000   26.6560   35.2850 Cl  0  0  0  0  0  0  0  0  0  0  0  0
   38.1940   25.4010   34.1460 C   0  0  0  0  0  0  0  0  0  0  0  0
   38.1460   24.1130   34.6380 C   0  0  0  0  0  0  0  0  0  0  0  0
   37.8240   23.1070   33.7420 C   0  0  0  0  0  0  0  0  0  0  0  0
   37.5710   23.4020   32.4310 C   0  0  0  0  0  0  0  0  0  0  0  0
   37.6380   24.7150   32.0090 C   0  0  0  0  0  0  0  0  0  0  0  0
   37.9490   25.7710   32.8350 C   0  0  0  0  0  0  0  0  0  0  0  0
   37.7870   22.0950   34.1290 H   0  0  0  0  0  0  0  0  0  0  0  0
   37.3200   22.5990   31.7400 H   0  0  0  0  0  0  0  0  0  0  0  0
   37.4320   24.9260   30.9610 H   0  0  0  0  0  0  0  0  0  0  0  0
   39.9460   22.9990   37.6040 C   0  0  0  0  0  0  0  0  0  0  0  0
   39.0540   23.2910   38.6690 C   0  0  0  0  0  0  0  0  0  0  0  0
   37.8380   23.8710   38.3440 C   0  0  0  0  0  0  0  0  0  0  0  0
   37.5740   24.1250   37.0290 N   0  0  0  0  0  0  0  0  0  0  0  0
   38.4260   23.8410   36.0550 C   0  0  0  0  0  0  0  0  0  0  0  0
   39.6140   23.2780   36.3450 N   0  0  0  0  0  0  0  0  0  0  0  0
   40.8780   22.5470   37.9200 H   0  0  0  0  0  0  0  0  0  0  0  0
   39.2400   23.1010   39.7040 H   0  0  0  0  0  0  0  0  0  0  0  0
   37.1250   24.1150   39.0950 H   0  0  0  0  0  0  0  0  0  0  0  0
   38.0420   27.4600   32.3190 S   0  0  0  0  0  0  0  0  0  0  0  0
   36.1620   27.9670   34.7660 H   0  0  0  0  0  0  0  0  0  0  0  0
   35.8950   28.5160   33.9410 N   0  0  0  0  0  0  0  0  0  0  0  0
   36.6250   28.3880   32.8230 C   0  0  0  0  0  0  0  0  0  0  0  0
   36.0690   29.2100   31.8900 N   0  0  0  0  0  0  0  0  0  0  0  0
   35.0030   29.8240   32.4770 C   0  0  0  0  0  0  0  0  0  0  0  0
   34.0560   30.7500   32.0600 C   0  0  0  0  0  0  0  0  0  0  0  0
   33.0890   31.1850   32.8900 N   0  0  0  0  0  0  0  0  0  0  0  0
   32.9990   30.7430   34.1540 C   0  0  0  0  0  0  0  0  0  0  0  0
   32.2050   31.1350   34.7510 H   0  0  0  0  0  0  0  0  0  0  0  0
   33.9170   29.8320   34.5910 N   0  0  0  0  0  0  0  0  0  0  0  0
   34.8870   29.3900   33.7710 C   0  0  0  0  0  0  0  0  0  0  0  0
   34.1800   31.2040   30.7020 N   0  0  0  0  0  0  0  0  0  0  0  0
   34.5870   32.0680   30.2510 H   0  0  0  0  0  0  0  0  0  0  0  0
   33.7690   30.5100   30.0300 H   0  0  0  0  0  0  0  0  0  0  0  0
  2  3  1  0  0  0  0
  2  1  1  0  0  0  0
  3 15  1  0  0  0  0
  4  8  1  0  0  0  0
  4  3  2  0  0  0  0
  5  4  1  0  0  0  0
  6  5  2  0  0  0  0
  6  7  1  0  0  0  0
  7  2  2  0  0  0  0
  9  5  1  0  0  0  0
 10  6  1  0  0  0  0
 11 17  1  0  0  0  0
 11 12  1  0  0  0  0
 12 18  1  0  0  0  0
 13 12  2  0  0  0  0
 13 19  1  0  0  0  0
 14 13  1  0  0  0  0
 15 16  1  0  0  0  0
 15 14  2  0  0  0  0
 16 11  2  0  0  0  0
 20 23  1  0  0  0  0
 20  7  1  0  0  0  0
 22 21  1  0  0  0  0
 23 22  1  0  0  0  0
 24 25  1  0  0  0  0
 24 23  2  0  0  0  0
 25 31  1  0  0  0  0
 26 25  2  0  0  0  0
 26 27  1  0  0  0  0
 27 28  2  0  0  0  0
 28 30  1  0  0  0  0
 28 29  1  0  0  0  0
 31 22  1  0  0  0  0
 31 30  2  0  0  0  0
 32 26  1  0  0  0  0
 33 32  1  0  0  0  0
 34 32  1  0  0  0  0
M  END
>  <minimizedAffinity>
-5.54891777

$$$$

 OpenBabel03272505093D

 34 37  0  0  0  0  0  0  0  0999 V2000
   36.2830   26.6010   31.1090 Cl  0  0  0  0  0  0  0  0  0  0  0  0
   36.8510   26.6110   32.7560 C   0  0  0  0  0  0  0  0  0  0  0  0
   37.4660   25.4590   33.2040 C   0  0  0  0  0  0  0  0  0  0  0  0
   37.9220   25.4560   34.5110 C   0  0  0  0  0  0  0  0  0  0  0  0
   37.7570   26.5560   35.3060 C   0  0  0  0  0  0  0  0  0  0  0  0
   37.1310   27.6730   34.7910 C   0  0  0  0  0  0  0  0  0  0  0  0
   36.6510   27.7590   33.5040 C   0  0  0  0  0  0  0  0  0  0  0  0
   38.4060   24.5510   34.8620 H   0  0  0  0  0  0  0  0  0  0  0  0
   38.1210   26.5350   36.3320 H   0  0  0  0  0  0  0  0  0  0  0  0
   37.0100   28.5380   35.4420 H   0  0  0  0  0  0  0  0  0  0  0  0
   38.9910   23.1990   30.7880 C   0  0  0  0  0  0  0  0  0  0  0  0
   38.0210   22.1760   30.6240 C   0  0  0  0  0  0  0  0  0  0  0  0
   36.8480   22.2830   31.3550 C   0  0  0  0  0  0  0  0  0  0  0  0
   36.7000   23.3590   32.1820 N   0  0  0  0  0  0  0  0  0  0  0  0
   37.6230   24.3000   32.3150 C   0  0  0  0  0  0  0  0  0  0  0  0
   38.7700   24.2170   31.6160 N   0  0  0  0  0  0  0  0  0  0  0  0
   39.8840   23.0600   30.1910 H   0  0  0  0  0  0  0  0  0  0  0  0
   38.1170   21.3260   29.9830 H   0  0  0  0  0  0  0  0  0  0  0  0
   36.0820   21.5500   31.2780 H   0  0  0  0  0  0  0  0  0  0  0  0
   35.8450   29.1760   32.8210 S   0  0  0  0  0  0  0  0  0  0  0  0
   32.7490   29.2500   33.2560 H   0  0  0  0  0  0  0  0  0  0  0  0
   33.2630   29.7740   33.9730 N   0  0  0  0  0  0  0  0  0  0  0  0
   34.6000   29.8190   33.9000 C   0  0  0  0  0  0  0  0  0  0  0  0
   35.0310   30.5680   34.9530 N   0  0  0  0  0  0  0  0  0  0  0  0
   33.9270   30.9600   35.6480 C   0  0  0  0  0  0  0  0  0  0  0  0
   33.7080   31.7200   36.7880 C   0  0  0  0  0  0  0  0  0  0  0  0
   32.4630   31.9450   37.2520 N   0  0  0  0  0  0  0  0  0  0  0  0
   31.3830   31.4460   36.6310 C   0  0  0  0  0  0  0  0  0  0  0  0
   30.4300   31.6680   37.0590 H   0  0  0  0  0  0  0  0  0  0  0  0
   31.5700   30.6950   35.5060 N   0  0  0  0  0  0  0  0  0  0  0  0
   32.8070   30.4630   35.0350 C   0  0  0  0  0  0  0  0  0  0  0  0
   34.8840   32.2400   37.4290 N   0  0  0  0  0  0  0  0  0  0  0  0
   35.4570   31.9430   38.2660 H   0  0  0  0  0  0  0  0  0  0  0  0
   35.2320   33.1040   36.9450 H   0  0  0  0  0  0  0  0  0  0  0  0
  1  2  1  0  0  0  0
  2  3  2  0  0  0  0
  2  7  1  0  0  0  0
  3  4  1  0  0  0  0
  4  8  1  0  0  0  0
  4  5  2  0  0  0  0
  5  9  1  0  0  0  0
  6  5  1  0  0  0  0
  6 10  1  0  0  0  0
  7  6  2  0  0  0  0
 11 16  1  0  0  0  0
 12 11  2  0  0  0  0
 12 13  1  0  0  0  0
 13 14  2  0  0  0  0
 14 15  1  0  0  0  0
 15  3  1  0  0  0  0
 16 15  2  0  0  0  0
 17 11  1  0  0  0  0
 18 12  1  0  0  0  0
 19 13  1  0  0  0  0
 20  7  1  0  0  0  0
 20 23  1  0  0  0  0
 21 22  1  0  0  0  0
 22 31  1  0  0  0  0
 23 22  1  0  0  0  0
 23 24  2  0  0  0  0
 24 25  1  0  0  0  0
 25 26  1  0  0  0  0
 26 27  2  0  0  0  0
 26 32  1  0  0  0  0
 28 29  1  0  0  0  0
 28 27  1  0  0  0  0
 30 28  2  0  0  0  0
 31 30  1  0  0  0  0
 31 25  2  0  0  0  0
 32 33  1  0  0  0  0
 34 32  1  0  0  0  0
M  END
>  <minimizedAffinity>
-5.50995827

$$$$

 OpenBabel03272505093D

 34 37  0  0  0  0  0  0  0  0999 V2000
   38.8820   26.7600   31.8520 Cl  0  0  0  0  0  0  0  0  0  0  0  0
   37.5060   25.7490   31.5100 C   0  0  0  0  0  0  0  0  0  0  0  0
   36.2890   26.3860   31.3800 C   0  0  0  0  0  0  0  0  0  0  0  0
   35.1870   25.5920   31.1080 C   0  0  0  0  0  0  0  0  0  0  0  0
   35.3240   24.2370   30.9800 C   0  0  0  0  0  0  0  0  0  0  0  0
   36.5740   23.6680   31.1240 C   0  0  0  0  0  0  0  0  0  0  0  0
   37.7170   24.3850   31.3930 C   0  0  0  0  0  0  0  0  0  0  0  0
   34.2310   26.0920   31.0060 H   0  0  0  0  0  0  0  0  0  0  0  0
   34.4470   23.6280   30.7660 H   0  0  0  0  0  0  0  0  0  0  0  0
   36.6590   22.5870   31.0170 H   0  0  0  0  0  0  0  0  0  0  0  0
   36.3610   29.9140   30.4750 C   0  0  0  0  0  0  0  0  0  0  0  0
   36.0260   30.5790   31.6830 C   0  0  0  0  0  0  0  0  0  0  0  0
   35.7800   29.7940   32.7990 C   0  0  0  0  0  0  0  0  0  0  0  0
   35.8730   28.4380   32.6670 N   0  0  0  0  0  0  0  0  0  0  0  0
   36.1870   27.8440   31.5260 C   0  0  0  0  0  0  0  0  0  0  0  0
   36.4310   28.5860   30.4280 N   0  0  0  0  0  0  0  0  0  0  0  0
   36.5420   30.5800   29.6400 H   0  0  0  0  0  0  0  0  0  0  0  0
   35.9480   31.6370   31.8080 H   0  0  0  0  0  0  0  0  0  0  0  0
   35.5240   30.2300   33.7350 H   0  0  0  0  0  0  0  0  0  0  0  0
   39.3270   23.6810   31.5820 S   0  0  0  0  0  0  0  0  0  0  0  0
   41.3600   22.1170   33.3720 H   0  0  0  0  0  0  0  0  0  0  0  0
   40.6190   22.5730   33.9180 N   0  0  0  0  0  0  0  0  0  0  0  0
   39.6840   23.2770   33.2660 C   0  0  0  0  0  0  0  0  0  0  0  0
   38.8310   23.7700   34.2060 N   0  0  0  0  0  0  0  0  0  0  0  0
   39.2810   23.3460   35.4210 C   0  0  0  0  0  0  0  0  0  0  0  0
   38.8570   23.5110   36.7320 C   0  0  0  0  0  0  0  0  0  0  0  0
   39.5270   22.9540   37.7600 N   0  0  0  0  0  0  0  0  0  0  0  0
   40.6310   22.2170   37.5590 C   0  0  0  0  0  0  0  0  0  0  0  0
   41.1060   21.8090   38.4240 H   0  0  0  0  0  0  0  0  0  0  0  0
   41.0700   22.0390   36.2790 N   0  0  0  0  0  0  0  0  0  0  0  0
   40.4090   22.5900   35.2460 C   0  0  0  0  0  0  0  0  0  0  0  0
   37.6740   24.3050   36.9130 N   0  0  0  0  0  0  0  0  0  0  0  0
   37.4990   25.3100   37.1900 H   0  0  0  0  0  0  0  0  0  0  0  0
   36.8060   23.7440   36.7250 H   0  0  0  0  0  0  0  0  0  0  0  0
  2  1  1  0  0  0  0
  3  2  2  0  0  0  0
  3 15  1  0  0  0  0
  4  3  1  0  0  0  0
  5  4  2  0  0  0  0
  5  6  1  0  0  0  0
  6  7  2  0  0  0  0
  7  2  1  0  0  0  0
  7 20  1  0  0  0  0
  8  4  1  0  0  0  0
  9  5  1  0  0  0  0
 10  6  1  0  0  0  0
 11 12  1  0  0  0  0
 12 18  1  0  0  0  0
 12 13  2  0  0  0  0
 13 19  1  0  0  0  0
 14 13  1  0  0  0  0
 15 14  2  0  0  0  0
 16 11  2  0  0  0  0
 16 15  1  0  0  0  0
 17 11  1  0  0  0  0
 20 23  1  0  0  0  0
 21 22  1  0  0  0  0
 22 31  1  0  0  0  0
 23 22  1  0  0  0  0
 23 24  2  0  0  0  0
 24 25  1  0  0  0  0
 25 26  1  0  0  0  0
 26 32  1  0  0  0  0
 26 27  2  0  0  0  0
 28 27  1  0  0  0  0
 28 29  1  0  0  0  0
 30 28  2  0  0  0  0
 31 25  2  0  0  0  0
 31 30  1  0  0  0  0
 32 33  1  0  0  0  0
 34 32  1  0  0  0  0
M  END
>  <minimizedAffinity>
-5.49309826

$$$$
