
 OpenBabel03262521103D

 29 31  0  0  0  0  0  0  0  0999 V2000
   32.3200   29.9920   46.1870 O   0  0  0  0  0  0  0  0  0  0  0  0
   33.7930   32.0340   44.8550 H   0  0  0  0  0  0  0  0  0  0  0  0
   32.7560   31.9610   44.7600 N   0  0  0  0  0  0  0  0  0  0  0  0
   31.9830   31.0390   45.3460 C   0  0  0  0  0  0  0  0  0  0  0  0
   30.6820   31.2530   44.9980 N   0  0  0  0  0  0  0  0  0  0  0  0
   30.7080   32.3200   44.1940 C   0  0  0  0  0  0  0  0  0  0  0  0
   29.7200   33.0250   43.5200 C   0  0  0  0  0  0  0  0  0  0  0  0
   29.9620   34.0840   42.7540 N   0  0  0  0  0  0  0  0  0  0  0  0
   31.2300   34.5300   42.5990 C   0  0  0  0  0  0  0  0  0  0  0  0
   31.4710   35.3770   41.9930 H   0  0  0  0  0  0  0  0  0  0  0  0
   32.1920   33.8480   43.2520 N   0  0  0  0  0  0  0  0  0  0  0  0
   31.9940   32.7880   44.0250 C   0  0  0  0  0  0  0  0  0  0  0  0
   28.3550   32.6580   43.6000 N   0  0  0  0  0  0  0  0  0  0  0  0
   27.5340   32.0780   43.3750 H   0  0  0  0  0  0  0  0  0  0  0  0
   28.2130   31.8030   42.9910 H   0  0  0  0  0  0  0  0  0  0  0  0
   34.8050   29.8010   45.5000 O   0  0  0  0  0  0  0  0  0  0  0  0
   33.8790   29.6010   46.6730 P   0  0  2  0  0  0  0  0  0  0  0  0
   33.9420   27.9850   47.2300 O   0  0  0  0  0  0  0  0  0  0  0  0
   33.0880   27.8310   47.7000 H   0  0  0  0  0  0  0  0  0  0  0  0
   34.3140   30.5550   48.0400 O   0  0  0  0  0  0  0  0  0  0  0  0
   35.4570   30.3020   48.7800 C   0  0  0  0  0  0  0  0  0  0  0  0
   35.4800   29.6230   50.0150 C   0  0  0  0  0  0  0  0  0  0  0  0
   36.7070   29.4480   50.6380 C   0  0  0  0  0  0  0  0  0  0  0  0
   37.8330   29.9330   50.0410 N   0  0  0  0  0  0  0  0  0  0  0  0
   37.7730   30.5830   48.8490 C   0  0  0  0  0  0  0  0  0  0  0  0
   36.5860   30.7620   48.2300 N   0  0  0  0  0  0  0  0  0  0  0  0
   34.5260   29.2810   50.3950 H   0  0  0  0  0  0  0  0  0  0  0  0
   36.7190   28.9250   51.5840 H   0  0  0  0  0  0  0  0  0  0  0  0
   38.6850   30.9570   48.4010 H   0  0  0  0  0  0  0  0  0  0  0  0
  1 17  1  0  0  0  0
  3  2  1  0  0  0  0
  3  4  1  0  0  0  0
  4  1  1  0  0  0  0
  5  4  2  0  0  0  0
  6  5  1  0  0  0  0
  7 13  1  0  0  0  0
  7  6  2  0  0  0  0
  8  7  1  0  0  0  0
  9  8  2  0  0  0  0
  9 11  1  0  0  0  0
 10  9  1  0  0  0  0
 11 12  2  0  0  0  0
 12  6  1  0  0  0  0
 12  3  1  0  0  0  0
 14 13  1  0  0  0  0
 15 13  1  0  0  0  0
 17 16  2  6  0  0  0
 17 18  1  0  0  0  0
 17 20  1  0  0  0  0
 18 19  1  0  0  0  0
 20 21  1  0  0  0  0
 21 22  1  0  0  0  0
 22 27  1  0  0  0  0
 22 23  2  0  0  0  0
 23 28  1  0  0  0  0
 24 23  1  0  0  0  0
 25 24  2  0  0  0  0
 26 21  2  0  0  0  0
 26 25  1  0  0  0  0
 29 25  1  0  0  0  0
M  END
>  <minimizedAffinity>
-4.6299262

>  <minimizedRMSD>
2.20010352

$$$$
