REMARK  Name = 
REMARK  6 active torsions:
REMARK  status: ('A' for Active; 'I' for Inactive)
REMARK    1  A    between atoms: C_1  and  O_14
REMARK    2  A    between atoms: C_2  and  C_8
REMARK    3  A    between atoms: C_6  and  O_15
REMARK    4  A    between atoms: C_9  and  C_13
REMARK    5  A    between atoms: O_15  and  C_27
REMARK    6  A    between atoms: C_30  and  N_31
REMARK                            x       y       z     vdW  Elec       q    Type
REMARK                         _______ _______ _______ _____ _____    ______ ____
ROOT
ATOM      1  C   UNL     1      38.001  31.399  47.638  0.00  0.00    +0.000 A 
ATOM      2  C   UNL     1      37.080  31.328  48.677  0.00  0.00    +0.000 A 
ATOM      3  C   UNL     1      37.198  32.351  49.618  0.00  0.00    +0.000 A 
ATOM      4  C   UNL     1      38.169  33.344  49.497  0.00  0.00    +0.000 A 
ATOM      5  C   UNL     1      39.051  33.328  48.413  0.00  0.00    +0.000 A 
ATOM      6  C   UNL     1      38.958  32.330  47.467  0.00  0.00    +0.000 A 
ATOM      7  H   UNL     1      36.526  32.382  50.464  0.00  0.00    +0.000 HD
ATOM      8  H   UNL     1      38.227  34.125  50.255  0.00  0.00    +0.000 HD
ATOM      9  H   UNL     1      39.793  34.102  48.337  0.00  0.00    +0.000 HD
ENDROOT
BRANCH   2  11
ATOM     10  C   UNL     1      34.940  30.352  47.986  0.00  0.00    +0.000 A 
ATOM     11  C   UNL     1      36.086  30.310  48.800  0.00  0.00    +0.000 A 
ATOM     12  C   UNL     1      36.199  29.257  49.705  0.00  0.00    +0.000 A 
ATOM     13  N   UNL     1      35.197  28.333  49.749  0.00  0.00    +0.000 NA
ATOM     14  C   UNL     1      34.101  28.407  48.944  0.00  0.00    +0.000 A 
ATOM     15  N   UNL     1      33.979  29.415  48.069  0.00  0.00    +0.000 NA
ATOM     16  H   UNL     1      34.822  31.162  47.270  0.00  0.00    +0.000 HD
ATOM     17  H   UNL     1      33.313  27.671  48.986  0.00  0.00    +0.000 HD
BRANCH  12  18
ATOM     18  C   UNL     1      37.373  29.156  50.584  0.00  0.00    +0.000 C 
ATOM     19  H   UNL     1      36.987  28.954  51.621  0.00  0.00    +0.000 HD
ATOM     20  H   UNL     1      37.996  28.298  50.273  0.00  0.00    +0.000 HD
ATOM     21  H   UNL     1      37.927  30.110  50.553  0.00  0.00    +0.000 HD
ENDBRANCH  12  18
ENDBRANCH   2  11
BRANCH   1  22
ATOM     22  O   UNL     1      37.943  30.392  46.639  0.00  0.00    +0.000 OA
ATOM     23  H   UNL     1      38.717  29.735  46.657  0.00  0.00    +0.000 HD
ENDBRANCH   1  22
BRANCH   6  24
ATOM     24  O   UNL     1      39.841  32.342  46.411  0.00  0.00    +0.000 OA
BRANCH  24  27
ATOM     25  H   UNL     1      38.377  34.189  44.812  0.00  0.00    +0.000 HD
ATOM     26  N   UNL     1      38.738  33.331  44.389  0.00  0.00    +0.000 N 
ATOM     27  C   UNL     1      39.434  32.429  45.105  0.00  0.00    +0.000 A 
ATOM     28  N   UNL     1      39.745  31.438  44.233  0.00  0.00    +0.000 NA
ATOM     29  C   UNL     1      39.249  31.731  43.020  0.00  0.00    +0.000 A 
ATOM     30  C   UNL     1      39.215  31.164  41.747  0.00  0.00    +0.000 A 
ATOM     31  N   UNL     1      38.594  31.776  40.722  0.00  0.00    +0.000 NA
ATOM     32  C   UNL     1      37.976  32.975  40.894  0.00  0.00    +0.000 A 
ATOM     33  H   UNL     1      37.463  33.512  40.112  0.00  0.00    +0.000 HD
ATOM     34  N   UNL     1      37.966  33.589  42.100  0.00  0.00    +0.000 NA
ATOM     35  C   UNL     1      38.597  32.949  43.107  0.00  0.00    +0.000 A 
BRANCH  30  36
ATOM     36  N   UNL     1      39.868  29.907  41.587  0.00  0.00    +0.000 N 
ATOM     37  H   UNL     1      39.580  28.961  41.934  0.00  0.00    +0.000 HD
ATOM     38  H   UNL     1      40.739  30.085  41.034  0.00  0.00    +0.000 HD
ENDBRANCH  30  36
ENDBRANCH  24  27
ENDBRANCH   6  24
TORSDOF 6
