
 OpenBabel03272508283D

 43 47  0  0  1  0  0  0  0  0999 V2000
   33.8780   28.9560   47.2660 C   0  0  2  0  0  0  0  0  0  0  0  0
   34.6010   28.1720   48.3480 C   0  0  2  0  0  0  0  0  0  0  0  0
   33.6960   28.0120   49.3590 O   0  0  0  0  0  0  0  0  0  0  0  0
   32.4220   28.0940   48.8760 C   0  0  0  0  0  0  0  0  0  0  0  0
   32.4950   28.3110   47.3810 C   0  0  1  0  0  0  0  0  0  0  0  0
   33.7560   30.0160   47.5250 H   0  0  0  0  0  0  0  0  0  0  0  0
   34.8840   27.2080   47.8680 H   0  0  0  0  0  0  0  0  0  0  0  0
   31.8890   27.1090   49.0190 H   0  0  0  0  0  0  0  0  0  0  0  0
   31.8560   28.8690   49.4050 H   0  0  0  0  0  0  0  0  0  0  0  0
   32.5820   27.3260   46.8720 H   0  0  0  0  0  0  0  0  0  0  0  0
   35.6950   30.4100   49.0560 C   0  0  1  0  0  0  0  0  0  0  0  0
   35.7720   28.9940   48.7850 C   0  0  1  0  0  0  0  0  0  0  0  0
   35.9450   29.4220   50.2070 C   0  0  0  0  0  0  0  0  0  0  0  0
   34.7910   31.0130   49.2650 H   0  0  0  0  0  0  0  0  0  0  0  0
   36.7320   28.6390   48.3090 H   0  0  0  0  0  0  0  0  0  0  0  0
   35.0830   29.1430   50.8470 H   0  0  0  0  0  0  0  0  0  0  0  0
   36.9360   29.4120   50.6830 H   0  0  0  0  0  0  0  0  0  0  0  0
   36.8890   31.3210   48.8250 C   0  0  0  0  0  0  0  0  0  0  0  0
   37.0720   32.3730   49.7240 C   0  0  0  0  0  0  0  0  0  0  0  0
   38.1640   33.1870   49.4470 C   0  0  0  0  0  0  0  0  0  0  0  0
   38.9760   32.9480   48.3680 N   0  0  0  0  0  0  0  0  0  0  0  0
   38.7530   31.9120   47.5260 C   0  0  0  0  0  0  0  0  0  0  0  0
   37.6990   31.0920   47.7590 N   0  0  0  0  0  0  0  0  0  0  0  0
   36.4240   32.5310   50.5510 H   0  0  0  0  0  0  0  0  0  0  0  0
   38.3940   34.0290   50.0810 H   0  0  0  0  0  0  0  0  0  0  0  0
   39.4220   31.7700   46.6920 H   0  0  0  0  0  0  0  0  0  0  0  0
   34.4160   28.7830   46.0050 O   0  0  0  0  0  0  0  0  0  0  0  0
   33.7930   29.1560   45.3600 H   0  0  0  0  0  0  0  0  0  0  0  0
   31.5110   29.1050   46.8590 O   0  0  0  0  0  0  0  0  0  0  0  0
   30.9460   26.5220   45.8010 H   0  0  0  0  0  0  0  0  0  0  0  0
   30.2640   27.3000   45.7120 N   0  0  0  0  0  0  0  0  0  0  0  0
   30.4360   28.5500   46.1760 C   0  0  0  0  0  0  0  0  0  0  0  0
   29.3060   29.2010   45.8340 N   0  0  0  0  0  0  0  0  0  0  0  0
   28.4560   28.3850   45.1790 C   0  0  0  0  0  0  0  0  0  0  0  0
   27.2010   28.5510   44.6300 C   0  0  0  0  0  0  0  0  0  0  0  0
   26.5500   27.5410   44.0110 N   0  0  0  0  0  0  0  0  0  0  0  0
   27.1800   26.3410   43.9450 C   0  0  0  0  0  0  0  0  0  0  0  0
   26.8300   25.4180   43.4970 H   0  0  0  0  0  0  0  0  0  0  0  0
   28.4070   26.1630   44.4780 N   0  0  0  0  0  0  0  0  0  0  0  0
   29.0790   27.1500   45.1000 C   0  0  0  0  0  0  0  0  0  0  0  0
   26.5690   29.8250   44.7160 N   0  0  0  0  0  0  0  0  0  0  0  0
   25.6750   30.0480   45.2400 H   0  0  0  0  0  0  0  0  0  0  0  0
   27.0670   30.5650   44.2060 H   0  0  0  0  0  0  0  0  0  0  0  0
  1  5  1  0  0  0  0
  1  6  1  1  0  0  0
  1  2  1  0  0  0  0
  2  7  1  6  0  0  0
  2 12  1  0  0  0  0
  2  3  1  0  0  0  0
  4  8  1  0  0  0  0
  4  3  1  0  0  0  0
  4  9  1  0  0  0  0
  5 10  1  6  0  0  0
  5  4  1  0  0  0  0
 11 14  1  6  0  0  0
 11 13  1  0  0  0  0
 12 15  1  6  0  0  0
 12 11  1  0  0  0  0
 12 13  1  0  0  0  0
 13 17  1  0  0  0  0
 13 16  1  0  0  0  0
 18 11  1  0  0  0  0
 18 19  1  0  0  0  0
 19 24  1  0  0  0  0
 20 19  2  0  0  0  0
 20 25  1  0  0  0  0
 21 20  1  0  0  0  0
 22 23  1  0  0  0  0
 22 21  2  0  0  0  0
 23 18  2  0  0  0  0
 26 22  1  0  0  0  0
 27  1  1  0  0  0  0
 28 27  1  0  0  0  0
 29  5  1  0  0  0  0
 31 30  1  0  0  0  0
 31 32  1  0  0  0  0
 32 29  1  0  0  0  0
 33 32  2  0  0  0  0
 34 33  1  0  0  0  0
 35 41  1  0  0  0  0
 35 34  2  0  0  0  0
 36 35  1  0  0  0  0
 37 36  2  0  0  0  0
 37 39  1  0  0  0  0
 38 37  1  0  0  0  0
 39 40  2  0  0  0  0
 40 34  1  0  0  0  0
 40 31  1  0  0  0  0
 41 42  1  0  0  0  0
 43 41  1  0  0  0  0
M  END
>  <minimizedAffinity>
-5.40925837

>  <minimizedRMSD>
0.805351555

$$$$
