
 OpenBabel03272508273D

 43 47  0  0  1  0  0  0  0  0999 V2000
   33.6280   29.0630   47.1130 C   0  0  2  0  0  0  0  0  0  0  0  0
   34.3530   28.1480   48.0850 C   0  0  2  0  0  0  0  0  0  0  0  0
   33.4750   27.9210   49.1070 O   0  0  0  0  0  0  0  0  0  0  0  0
   32.1910   28.0980   48.6820 C   0  0  0  0  0  0  0  0  0  0  0  0
   32.2240   28.4620   47.2140 C   0  0  1  0  0  0  0  0  0  0  0  0
   33.5570   30.0950   47.4800 H   0  0  0  0  0  0  0  0  0  0  0  0
   34.5810   27.2270   47.5010 H   0  0  0  0  0  0  0  0  0  0  0  0
   31.6230   27.1240   48.7450 H   0  0  0  0  0  0  0  0  0  0  0  0
   31.6750   28.8360   49.3060 H   0  0  0  0  0  0  0  0  0  0  0  0
   32.2540   27.5300   46.6070 H   0  0  0  0  0  0  0  0  0  0  0  0
   35.5610   30.2620   48.9630 C   0  0  1  0  0  0  0  0  0  0  0  0
   35.5700   28.8770   48.5580 C   0  0  1  0  0  0  0  0  0  0  0  0
   35.8020   29.1610   50.0080 C   0  0  0  0  0  0  0  0  0  0  0  0
   34.6900   30.8790   49.2580 H   0  0  0  0  0  0  0  0  0  0  0  0
   36.5000   28.5320   48.0190 H   0  0  0  0  0  0  0  0  0  0  0  0
   34.9480   28.8560   50.6470 H   0  0  0  0  0  0  0  0  0  0  0  0
   36.8050   29.0660   50.4480 H   0  0  0  0  0  0  0  0  0  0  0  0
   36.7860   31.1440   48.7810 C   0  0  0  0  0  0  0  0  0  0  0  0
   36.9890   32.1560   49.7190 C   0  0  0  0  0  0  0  0  0  0  0  0
   38.1090   32.9450   49.4840 C   0  0  0  0  0  0  0  0  0  0  0  0
   38.9280   32.7200   48.4070 N   0  0  0  0  0  0  0  0  0  0  0  0
   38.6840   31.7220   47.5260 C   0  0  0  0  0  0  0  0  0  0  0  0
   37.6030   30.9280   47.7170 N   0  0  0  0  0  0  0  0  0  0  0  0
   36.3360   32.3050   50.5430 H   0  0  0  0  0  0  0  0  0  0  0  0
   38.3570   33.7570   50.1520 H   0  0  0  0  0  0  0  0  0  0  0  0
   39.3600   31.5880   46.6950 H   0  0  0  0  0  0  0  0  0  0  0  0
   34.1170   28.9980   45.8220 O   0  0  0  0  0  0  0  0  0  0  0  0
   33.4890   29.4560   45.2410 H   0  0  0  0  0  0  0  0  0  0  0  0
   31.2570   29.3400   46.8090 O   0  0  0  0  0  0  0  0  0  0  0  0
   28.5770   30.2990   46.6980 H   0  0  0  0  0  0  0  0  0  0  0  0
   28.8530   29.4190   46.2210 N   0  0  0  0  0  0  0  0  0  0  0  0
   30.0870   28.8860   46.2140 C   0  0  0  0  0  0  0  0  0  0  0  0
   29.9690   27.7610   45.4790 N   0  0  0  0  0  0  0  0  0  0  0  0
   28.7050   27.5980   45.0420 C   0  0  0  0  0  0  0  0  0  0  0  0
   28.0720   26.6410   44.2750 C   0  0  0  0  0  0  0  0  0  0  0  0
   26.7570   26.7180   43.9730 N   0  0  0  0  0  0  0  0  0  0  0  0
   26.0670   27.7820   44.4570 C   0  0  0  0  0  0  0  0  0  0  0  0
   25.0190   28.0230   44.3290 H   0  0  0  0  0  0  0  0  0  0  0  0
   26.6730   28.7260   45.2080 N   0  0  0  0  0  0  0  0  0  0  0  0
   27.9810   28.6770   45.5240 C   0  0  0  0  0  0  0  0  0  0  0  0
   28.8260   25.5370   43.7830 N   0  0  0  0  0  0  0  0  0  0  0  0
   29.0210   25.3130   42.7650 H   0  0  0  0  0  0  0  0  0  0  0  0
   29.1950   24.9300   44.5260 H   0  0  0  0  0  0  0  0  0  0  0  0
  1  5  1  0  0  0  0
  1  6  1  1  0  0  0
  1  2  1  0  0  0  0
  2  7  1  6  0  0  0
  2 12  1  0  0  0  0
  2  3  1  0  0  0  0
  4  8  1  0  0  0  0
  4  3  1  0  0  0  0
  4  9  1  0  0  0  0
  5 10  1  6  0  0  0
  5  4  1  0  0  0  0
 11 14  1  1  0  0  0
 11 13  1  0  0  0  0
 12 15  1  6  0  0  0
 12 11  1  0  0  0  0
 12 13  1  0  0  0  0
 13 17  1  0  0  0  0
 13 16  1  0  0  0  0
 18 11  1  0  0  0  0
 18 19  1  0  0  0  0
 19 24  1  0  0  0  0
 20 19  2  0  0  0  0
 20 25  1  0  0  0  0
 21 20  1  0  0  0  0
 22 23  1  0  0  0  0
 22 21  2  0  0  0  0
 23 18  2  0  0  0  0
 26 22  1  0  0  0  0
 27  1  1  0  0  0  0
 28 27  1  0  0  0  0
 29  5  1  0  0  0  0
 31 30  1  0  0  0  0
 32 31  1  0  0  0  0
 32 29  1  0  0  0  0
 33 32  2  0  0  0  0
 34 33  1  0  0  0  0
 34 40  1  0  0  0  0
 35 34  2  0  0  0  0
 36 35  1  0  0  0  0
 36 37  2  0  0  0  0
 37 39  1  0  0  0  0
 38 37  1  0  0  0  0
 39 40  2  0  0  0  0
 40 31  1  0  0  0  0
 41 35  1  0  0  0  0
 41 43  1  0  0  0  0
 42 41  1  0  0  0  0
M  END
>  <minimizedAffinity>
-5.40838051

>  <minimizedRMSD>
1.26553011

$$$$
