
 OpenBabel03272505093D

 34 37  0  0  0  0  0  0  0  0999 V2000
   36.3740   30.8390   45.8870 Cl  0  0  0  0  0  0  0  0  0  0  0  0
   36.7350   30.7760   47.5900 C   0  0  0  0  0  0  0  0  0  0  0  0
   38.0170   31.1270   47.9620 C   0  0  0  0  0  0  0  0  0  0  0  0
   38.3150   31.0800   49.3140 C   0  0  0  0  0  0  0  0  0  0  0  0
   37.3650   30.6980   50.2210 C   0  0  0  0  0  0  0  0  0  0  0  0
   36.1040   30.3600   49.7750 C   0  0  0  0  0  0  0  0  0  0  0  0
   35.7270   30.3810   48.4520 C   0  0  0  0  0  0  0  0  0  0  0  0
   39.3220   31.3560   49.6060 H   0  0  0  0  0  0  0  0  0  0  0  0
   37.6180   30.6670   51.2800 H   0  0  0  0  0  0  0  0  0  0  0  0
   35.3630   30.0590   50.5150 H   0  0  0  0  0  0  0  0  0  0  0  0
   40.1830   33.2930   45.9910 C   0  0  0  0  0  0  0  0  0  0  0  0
   40.8400   32.3980   45.1060 C   0  0  0  0  0  0  0  0  0  0  0  0
   40.5230   31.0520   45.2050 C   0  0  0  0  0  0  0  0  0  0  0  0
   39.6040   30.6730   46.1410 N   0  0  0  0  0  0  0  0  0  0  0  0
   39.0060   31.5310   46.9540 C   0  0  0  0  0  0  0  0  0  0  0  0
   39.2980   32.8430   46.8770 N   0  0  0  0  0  0  0  0  0  0  0  0
   40.4720   34.3290   45.8650 H   0  0  0  0  0  0  0  0  0  0  0  0
   41.5610   32.6730   44.3670 H   0  0  0  0  0  0  0  0  0  0  0  0
   40.9800   30.3300   44.5720 H   0  0  0  0  0  0  0  0  0  0  0  0
   34.1180   29.9520   47.8550 S   0  0  0  0  0  0  0  0  0  0  0  0
   34.0500   27.0920   49.1200 H   0  0  0  0  0  0  0  0  0  0  0  0
   33.9830   27.0750   48.0960 N   0  0  0  0  0  0  0  0  0  0  0  0
   34.0000   28.2390   47.4330 C   0  0  0  0  0  0  0  0  0  0  0  0
   33.9000   27.9420   46.1070 N   0  0  0  0  0  0  0  0  0  0  0  0
   33.8210   26.5860   46.0020 C   0  0  0  0  0  0  0  0  0  0  0  0
   33.7070   25.6920   44.9470 C   0  0  0  0  0  0  0  0  0  0  0  0
   33.6500   24.3630   45.1580 N   0  0  0  0  0  0  0  0  0  0  0  0
   33.7030   23.8470   46.3960 C   0  0  0  0  0  0  0  0  0  0  0  0
   33.6530   22.7830   46.4820 H   0  0  0  0  0  0  0  0  0  0  0  0
   33.8160   24.7030   47.4520 N   0  0  0  0  0  0  0  0  0  0  0  0
   33.8730   26.0320   47.2540 C   0  0  0  0  0  0  0  0  0  0  0  0
   33.6520   26.2750   43.6350 N   0  0  0  0  0  0  0  0  0  0  0  0
   32.8680   26.4960   42.9620 H   0  0  0  0  0  0  0  0  0  0  0  0
   34.6110   26.5280   43.2900 H   0  0  0  0  0  0  0  0  0  0  0  0
  1  2  1  0  0  0  0
  2  3  2  0  0  0  0
  2  7  1  0  0  0  0
  3  4  1  0  0  0  0
  4  8  1  0  0  0  0
  4  5  2  0  0  0  0
  5  9  1  0  0  0  0
  6  5  1  0  0  0  0
  6 10  1  0  0  0  0
  7  6  2  0  0  0  0
 11 16  1  0  0  0  0
 12 13  1  0  0  0  0
 12 11  2  0  0  0  0
 13 14  2  0  0  0  0
 14 15  1  0  0  0  0
 15  3  1  0  0  0  0
 16 15  2  0  0  0  0
 17 11  1  0  0  0  0
 18 12  1  0  0  0  0
 19 13  1  0  0  0  0
 20  7  1  0  0  0  0
 22 21  1  0  0  0  0
 23 20  1  0  0  0  0
 23 22  1  0  0  0  0
 24 23  2  0  0  0  0
 25 24  1  0  0  0  0
 25 31  1  0  0  0  0
 26 27  1  0  0  0  0
 26 25  2  0  0  0  0
 27 28  2  0  0  0  0
 28 29  1  0  0  0  0
 28 30  1  0  0  0  0
 31 30  2  0  0  0  0
 31 22  1  0  0  0  0
 32 26  1  0  0  0  0
 33 32  1  0  0  0  0
 34 32  1  0  0  0  0
M  END
>  <minimizedAffinity>
-5.64872217

>  <minimizedRMSD>
1.54571378

$$$$
