
 OpenBabel03262521223D

 38 40  0  0  0  0  0  0  0  0999 V2000
   37.3810   27.4040   34.6610 C   0  0  0  0  0  0  0  0  0  0  0  0
   36.3430   26.9390   34.6860 H   0  0  0  0  0  0  0  0  0  0  0  0
   37.1080   28.4840   34.6190 H   0  0  0  0  0  0  0  0  0  0  0  0
   38.1260   26.9440   35.6760 C   0  0  0  0  0  0  0  0  0  0  0  0
   37.9940   27.4400   36.6610 H   0  0  0  0  0  0  0  0  0  0  0  0
   39.2440   26.9490   35.5070 H   0  0  0  0  0  0  0  0  0  0  0  0
   37.6070   25.6720   35.7900 O   0  0  0  0  0  0  0  0  0  0  0  0
   38.4090   24.6990   36.3290 C   0  0  0  0  0  0  0  0  0  0  0  0
   38.0060   24.3570   37.5890 C   0  0  0  0  0  0  0  0  0  0  0  0
   38.7260   23.3620   38.2980 C   0  0  0  0  0  0  0  0  0  0  0  0
   39.7950   22.8040   37.6560 N   0  0  0  0  0  0  0  0  0  0  0  0
   40.1700   23.1740   36.3880 C   0  0  0  0  0  0  0  0  0  0  0  0
   39.4610   24.1160   35.7610 N   0  0  0  0  0  0  0  0  0  0  0  0
   41.9270   21.5910   36.6440 C   0  0  0  0  0  0  0  0  0  0  0  0
   41.5830   21.2740   37.8350 O   0  0  0  0  0  0  0  0  0  0  0  0
   41.2940   22.5410   35.8000 N   0  0  0  0  0  0  0  0  0  0  0  0
   37.1920   24.7430   38.1520 H   0  0  0  0  0  0  0  0  0  0  0  0
   38.4630   23.0450   39.2940 H   0  0  0  0  0  0  0  0  0  0  0  0
   42.7990   21.0500   36.2890 H   0  0  0  0  0  0  0  0  0  0  0  0
   41.5970   22.7710   34.8500 H   0  0  0  0  0  0  0  0  0  0  0  0
   37.8920   27.0900   33.2820 C   0  0  0  0  0  0  0  0  0  0  0  0
   38.5550   26.1910   33.3750 H   0  0  0  0  0  0  0  0  0  0  0  0
   38.5770   27.8900   32.8980 H   0  0  0  0  0  0  0  0  0  0  0  0
   36.6370   26.7550   32.0850 S   0  0  0  0  0  0  0  0  0  0  0  0
   34.9360   24.6040   30.5620 H   0  0  0  0  0  0  0  0  0  0  0  0
   35.6250   24.1530   31.1810 N   0  0  0  0  0  0  0  0  0  0  0  0
   36.4020   24.9990   31.8760 C   0  0  0  0  0  0  0  0  0  0  0  0
   37.2440   24.2380   32.6320 N   0  0  0  0  0  0  0  0  0  0  0  0
   36.9830   22.9200   32.4000 C   0  0  0  0  0  0  0  0  0  0  0  0
   37.4490   21.6900   32.8210 C   0  0  0  0  0  0  0  0  0  0  0  0
   36.9020   20.5440   32.3320 N   0  0  0  0  0  0  0  0  0  0  0  0
   35.9000   20.5560   31.4340 C   0  0  0  0  0  0  0  0  0  0  0  0
   35.4950   19.6160   31.0730 H   0  0  0  0  0  0  0  0  0  0  0  0
   35.4180   21.7520   30.9990 N   0  0  0  0  0  0  0  0  0  0  0  0
   35.9580   22.8870   31.4810 C   0  0  0  0  0  0  0  0  0  0  0  0
   38.5090   21.6910   33.7710 N   0  0  0  0  0  0  0  0  0  0  0  0
   38.4720   22.0940   34.7510 H   0  0  0  0  0  0  0  0  0  0  0  0
   39.4930   21.3340   33.7510 H   0  0  0  0  0  0  0  0  0  0  0  0
  1  2  1  0  0  0  0
  1  4  1  0  0  0  0
  3  1  1  0  0  0  0
  4  7  1  0  0  0  0
  4  5  1  0  0  0  0
  6  4  1  0  0  0  0
  7  8  1  0  0  0  0
  8  9  1  0  0  0  0
  9 17  1  0  0  0  0
  9 10  2  0  0  0  0
 10 18  1  0  0  0  0
 11 10  1  0  0  0  0
 12 11  2  0  0  0  0
 13  8  2  0  0  0  0
 13 12  1  0  0  0  0
 14 15  2  0  0  0  0
 16 12  1  0  0  0  0
 16 14  1  0  0  0  0
 19 14  1  0  0  0  0
 20 16  1  0  0  0  0
 21 22  1  0  0  0  0
 21  1  1  0  0  0  0
 23 21  1  0  0  0  0
 24 21  1  0  0  0  0
 25 26  1  0  0  0  0
 26 35  1  0  0  0  0
 26 27  1  0  0  0  0
 27 24  1  0  0  0  0
 27 28  2  0  0  0  0
 29 28  1  0  0  0  0
 29 30  1  0  0  0  0
 30 36  1  0  0  0  0
 31 30  2  0  0  0  0
 32 31  1  0  0  0  0
 33 32  1  0  0  0  0
 34 32  2  0  0  0  0
 34 35  1  0  0  0  0
 35 29  2  0  0  0  0
 36 37  1  0  0  0  0
 38 36  1  0  0  0  0
M  END
>  <minimizedAffinity>
-5.32469225

$$$$

 OpenBabel03262521223D

 38 40  0  0  0  0  0  0  0  0999 V2000
   37.0470   28.6910   31.3520 C   0  0  0  0  0  0  0  0  0  0  0  0
   37.7780   29.2590   32.0130 H   0  0  0  0  0  0  0  0  0  0  0  0
   37.6520   28.6080   30.4210 H   0  0  0  0  0  0  0  0  0  0  0  0
   36.6200   27.5810   31.9710 C   0  0  0  0  0  0  0  0  0  0  0  0
   37.2080   26.6530   31.8010 H   0  0  0  0  0  0  0  0  0  0  0  0
   35.5520   27.2780   31.7580 H   0  0  0  0  0  0  0  0  0  0  0  0
   36.8210   27.9520   33.2840 O   0  0  0  0  0  0  0  0  0  0  0  0
   37.3730   27.0280   34.1330 C   0  0  0  0  0  0  0  0  0  0  0  0
   37.7880   27.6040   35.3010 C   0  0  0  0  0  0  0  0  0  0  0  0
   38.3860   26.7910   36.2970 C   0  0  0  0  0  0  0  0  0  0  0  0
   38.5060   25.4600   36.0130 N   0  0  0  0  0  0  0  0  0  0  0  0
   38.0760   24.9170   34.8270 C   0  0  0  0  0  0  0  0  0  0  0  0
   37.5200   25.7230   33.9190 N   0  0  0  0  0  0  0  0  0  0  0  0
   38.8820   22.8530   35.6910 C   0  0  0  0  0  0  0  0  0  0  0  0
   39.3020   23.3760   36.7810 O   0  0  0  0  0  0  0  0  0  0  0  0
   38.2410   23.5250   34.6170 N   0  0  0  0  0  0  0  0  0  0  0  0
   37.7310   28.6230   35.5940 H   0  0  0  0  0  0  0  0  0  0  0  0
   38.7350   27.1790   37.2400 H   0  0  0  0  0  0  0  0  0  0  0  0
   39.0580   21.7830   35.6310 H   0  0  0  0  0  0  0  0  0  0  0  0
   37.9180   23.0750   33.7570 H   0  0  0  0  0  0  0  0  0  0  0  0
   35.9840   29.7030   31.0240 C   0  0  0  0  0  0  0  0  0  0  0  0
   34.9990   29.1730   31.0750 H   0  0  0  0  0  0  0  0  0  0  0  0
   36.0490   30.0460   29.9580 H   0  0  0  0  0  0  0  0  0  0  0  0
   35.9370   31.1030   32.0980 S   0  0  0  0  0  0  0  0  0  0  0  0
   33.2820   29.6310   32.8880 H   0  0  0  0  0  0  0  0  0  0  0  0
   33.6420   30.1830   33.6790 N   0  0  0  0  0  0  0  0  0  0  0  0
   34.7800   30.8500   33.4330 C   0  0  0  0  0  0  0  0  0  0  0  0
   35.1070   31.5170   34.5760 N   0  0  0  0  0  0  0  0  0  0  0  0
   34.1660   31.2590   35.5290 C   0  0  0  0  0  0  0  0  0  0  0  0
   33.9080   31.6020   36.8410 C   0  0  0  0  0  0  0  0  0  0  0  0
   32.8100   31.1140   37.4760 N   0  0  0  0  0  0  0  0  0  0  0  0
   31.9370   30.2900   36.8670 C   0  0  0  0  0  0  0  0  0  0  0  0
   31.0740   29.9270   37.4140 H   0  0  0  0  0  0  0  0  0  0  0  0
   32.1620   29.9330   35.5720 N   0  0  0  0  0  0  0  0  0  0  0  0
   33.2490   30.4140   34.9420 C   0  0  0  0  0  0  0  0  0  0  0  0
   34.8390   32.4740   37.4750 N   0  0  0  0  0  0  0  0  0  0  0  0
   35.0660   33.4670   37.1830 H   0  0  0  0  0  0  0  0  0  0  0  0
   35.4710   32.3710   38.3020 H   0  0  0  0  0  0  0  0  0  0  0  0
  1  4  1  0  0  0  0
  1  2  1  0  0  0  0
  3  1  1  0  0  0  0
  4  7  1  0  0  0  0
  5  4  1  0  0  0  0
  6  4  1  0  0  0  0
  7  8  1  0  0  0  0
  8  9  1  0  0  0  0
  9 17  1  0  0  0  0
  9 10  2  0  0  0  0
 10 18  1  0  0  0  0
 11 10  1  0  0  0  0
 12 11  2  0  0  0  0
 13  8  2  0  0  0  0
 13 12  1  0  0  0  0
 14 15  2  0  0  0  0
 16 12  1  0  0  0  0
 16 14  1  0  0  0  0
 19 14  1  0  0  0  0
 20 16  1  0  0  0  0
 21 22  1  0  0  0  0
 21  1  1  0  0  0  0
 21 24  1  0  0  0  0
 23 21  1  0  0  0  0
 24 27  1  0  0  0  0
 25 26  1  0  0  0  0
 26 35  1  0  0  0  0
 27 26  1  0  0  0  0
 27 28  2  0  0  0  0
 28 29  1  0  0  0  0
 29 30  1  0  0  0  0
 30 36  1  0  0  0  0
 30 31  2  0  0  0  0
 32 33  1  0  0  0  0
 32 31  1  0  0  0  0
 34 32  2  0  0  0  0
 35 29  2  0  0  0  0
 35 34  1  0  0  0  0
 36 38  1  0  0  0  0
 37 36  1  0  0  0  0
M  END
>  <minimizedAffinity>
-5.14871883

$$$$

 OpenBabel03262521223D

 38 40  0  0  0  0  0  0  0  0999 V2000
   36.8740   21.9030   30.8050 C   0  0  0  0  0  0  0  0  0  0  0  0
   36.3380   21.2800   30.0190 H   0  0  0  0  0  0  0  0  0  0  0  0
   37.7930   22.1790   30.2400 H   0  0  0  0  0  0  0  0  0  0  0  0
   36.0670   22.8660   31.2730 C   0  0  0  0  0  0  0  0  0  0  0  0
   35.9730   22.9530   32.3760 H   0  0  0  0  0  0  0  0  0  0  0  0
   34.9990   22.8350   30.9030 H   0  0  0  0  0  0  0  0  0  0  0  0
   36.7530   23.9800   30.8360 O   0  0  0  0  0  0  0  0  0  0  0  0
   37.4020   24.7410   31.7740 C   0  0  0  0  0  0  0  0  0  0  0  0
   38.7240   24.8970   31.4650 C   0  0  0  0  0  0  0  0  0  0  0  0
   39.5500   25.6580   32.3320 C   0  0  0  0  0  0  0  0  0  0  0  0
   38.9510   26.1930   33.4360 N   0  0  0  0  0  0  0  0  0  0  0  0
   37.6170   26.0140   33.7130 C   0  0  0  0  0  0  0  0  0  0  0  0
   36.8810   25.2890   32.8680 N   0  0  0  0  0  0  0  0  0  0  0  0
   38.0360   27.3100   35.6630 C   0  0  0  0  0  0  0  0  0  0  0  0
   39.2820   27.4480   35.4080 O   0  0  0  0  0  0  0  0  0  0  0  0
   37.0810   26.6060   34.8840 N   0  0  0  0  0  0  0  0  0  0  0  0
   39.2610   24.5150   30.6320 H   0  0  0  0  0  0  0  0  0  0  0  0
   40.5990   25.8220   32.1490 H   0  0  0  0  0  0  0  0  0  0  0  0
   37.7280   27.8000   36.5820 H   0  0  0  0  0  0  0  0  0  0  0  0
   36.0890   26.5150   35.1190 H   0  0  0  0  0  0  0  0  0  0  0  0
   37.3420   20.8960   31.8190 C   0  0  0  0  0  0  0  0  0  0  0  0
   37.4500   19.9180   31.2830 H   0  0  0  0  0  0  0  0  0  0  0  0
   36.5590   20.6900   32.5950 H   0  0  0  0  0  0  0  0  0  0  0  0
   38.8720   21.2910   32.6060 S   0  0  0  0  0  0  0  0  0  0  0  0
   37.0050   23.3160   34.1080 H   0  0  0  0  0  0  0  0  0  0  0  0
   37.7480   22.9710   34.7340 N   0  0  0  0  0  0  0  0  0  0  0  0
   38.5980   22.0960   34.1750 C   0  0  0  0  0  0  0  0  0  0  0  0
   39.5030   21.7500   35.1340 N   0  0  0  0  0  0  0  0  0  0  0  0
   39.2070   22.4160   36.2870 C   0  0  0  0  0  0  0  0  0  0  0  0
   39.7010   22.5160   37.5720 C   0  0  0  0  0  0  0  0  0  0  0  0
   39.0970   23.3300   38.4790 N   0  0  0  0  0  0  0  0  0  0  0  0
   38.0110   24.0630   38.1710 C   0  0  0  0  0  0  0  0  0  0  0  0
   37.5630   24.6990   38.9270 H   0  0  0  0  0  0  0  0  0  0  0  0
   37.5000   23.9870   36.9120 N   0  0  0  0  0  0  0  0  0  0  0  0
   38.0950   23.1820   36.0130 C   0  0  0  0  0  0  0  0  0  0  0  0
   40.8500   21.7360   37.8860 N   0  0  0  0  0  0  0  0  0  0  0  0
   41.8050   21.8180   37.4340 H   0  0  0  0  0  0  0  0  0  0  0  0
   41.0290   20.9630   38.5680 H   0  0  0  0  0  0  0  0  0  0  0  0
  1  4  1  0  0  0  0
  1 21  1  0  0  0  0
  2  1  1  0  0  0  0
  3  1  1  0  0  0  0
  4  5  1  0  0  0  0
  6  4  1  0  0  0  0
  7  4  1  0  0  0  0
  7  8  1  0  0  0  0
  8 13  1  0  0  0  0
  9  8  2  0  0  0  0
  9 10  1  0  0  0  0
 10 11  2  0  0  0  0
 11 12  1  0  0  0  0
 12 16  1  0  0  0  0
 13 12  2  0  0  0  0
 14 19  1  0  0  0  0
 15 14  2  0  0  0  0
 16 20  1  0  0  0  0
 16 14  1  0  0  0  0
 17  9  1  0  0  0  0
 18 10  1  0  0  0  0
 21 23  1  0  0  0  0
 21 24  1  0  0  0  0
 22 21  1  0  0  0  0
 24 27  1  0  0  0  0
 25 26  1  0  0  0  0
 26 35  1  0  0  0  0
 27 26  1  0  0  0  0
 27 28  2  0  0  0  0
 28 29  1  0  0  0  0
 29 30  1  0  0  0  0
 30 36  1  0  0  0  0
 30 31  2  0  0  0  0
 32 31  1  0  0  0  0
 32 33  1  0  0  0  0
 34 32  2  0  0  0  0
 35 29  2  0  0  0  0
 35 34  1  0  0  0  0
 36 38  1  0  0  0  0
 37 36  1  0  0  0  0
M  END
>  <minimizedAffinity>
-5.08241606

$$$$

 OpenBabel03262521223D

 38 40  0  0  0  0  0  0  0  0999 V2000
   36.6960   27.3280   31.7930 C   0  0  0  0  0  0  0  0  0  0  0  0
   35.7950   27.4760   31.1150 H   0  0  0  0  0  0  0  0  0  0  0  0
   37.5190   27.4690   31.0550 H   0  0  0  0  0  0  0  0  0  0  0  0
   36.6170   28.1340   32.8620 C   0  0  0  0  0  0  0  0  0  0  0  0
   37.3850   28.9310   32.9490 H   0  0  0  0  0  0  0  0  0  0  0  0
   36.6330   27.6180   33.8680 H   0  0  0  0  0  0  0  0  0  0  0  0
   35.4150   28.7560   32.5980 O   0  0  0  0  0  0  0  0  0  0  0  0
   34.8750   29.5490   33.5780 C   0  0  0  0  0  0  0  0  0  0  0  0
   33.5110   29.5640   33.5170 C   0  0  0  0  0  0  0  0  0  0  0  0
   32.7860   30.3360   34.4600 C   0  0  0  0  0  0  0  0  0  0  0  0
   33.5200   31.0250   35.3820 N   0  0  0  0  0  0  0  0  0  0  0  0
   34.8930   30.9850   35.4120 C   0  0  0  0  0  0  0  0  0  0  0  0
   35.5310   30.2440   34.5030 N   0  0  0  0  0  0  0  0  0  0  0  0
   34.7130   32.4790   37.2550 C   0  0  0  0  0  0  0  0  0  0  0  0
   33.4360   32.5280   37.2000 O   0  0  0  0  0  0  0  0  0  0  0  0
   35.5730   31.7330   36.4060 N   0  0  0  0  0  0  0  0  0  0  0  0
   32.8720   29.0590   32.8340 H   0  0  0  0  0  0  0  0  0  0  0  0
   31.7100   30.3930   34.4690 H   0  0  0  0  0  0  0  0  0  0  0  0
   35.1340   33.0870   38.0500 H   0  0  0  0  0  0  0  0  0  0  0  0
   36.5940   31.7170   36.4780 H   0  0  0  0  0  0  0  0  0  0  0  0
   36.6990   25.8540   32.0860 C   0  0  0  0  0  0  0  0  0  0  0  0
   36.4070   25.3300   31.1390 H   0  0  0  0  0  0  0  0  0  0  0  0
   35.8890   25.5710   32.8090 H   0  0  0  0  0  0  0  0  0  0  0  0
   38.2460   25.2110   32.6420 S   0  0  0  0  0  0  0  0  0  0  0  0
   37.2120   26.4000   35.3550 H   0  0  0  0  0  0  0  0  0  0  0  0
   37.7550   25.5400   35.5170 N   0  0  0  0  0  0  0  0  0  0  0  0
   38.2390   24.9580   34.4090 C   0  0  0  0  0  0  0  0  0  0  0  0
   38.9220   23.8470   34.8070 N   0  0  0  0  0  0  0  0  0  0  0  0
   38.8560   23.7460   36.1650 C   0  0  0  0  0  0  0  0  0  0  0  0
   39.3100   22.8990   37.1570 C   0  0  0  0  0  0  0  0  0  0  0  0
   39.0210   23.1510   38.4610 N   0  0  0  0  0  0  0  0  0  0  0  0
   38.2930   24.2180   38.8400 C   0  0  0  0  0  0  0  0  0  0  0  0
   38.0880   24.3780   39.8930 H   0  0  0  0  0  0  0  0  0  0  0  0
   37.8300   25.0720   37.8870 N   0  0  0  0  0  0  0  0  0  0  0  0
   38.1150   24.8240   36.5950 C   0  0  0  0  0  0  0  0  0  0  0  0
   40.0800   21.7750   36.7440 N   0  0  0  0  0  0  0  0  0  0  0  0
   41.0120   21.8040   36.2400 H   0  0  0  0  0  0  0  0  0  0  0  0
   39.9390   20.7410   36.8210 H   0  0  0  0  0  0  0  0  0  0  0  0
  1 21  1  0  0  0  0
  1  4  1  0  0  0  0
  2  1  1  0  0  0  0
  3  1  1  0  0  0  0
  4  5  1  0  0  0  0
  4  6  1  0  0  0  0
  7  4  1  0  0  0  0
  7  8  1  0  0  0  0
  8 13  1  0  0  0  0
  9  8  2  0  0  0  0
  9 10  1  0  0  0  0
 10 18  1  0  0  0  0
 10 11  2  0  0  0  0
 11 12  1  0  0  0  0
 12 16  1  0  0  0  0
 13 12  2  0  0  0  0
 14 19  1  0  0  0  0
 15 14  2  0  0  0  0
 16 20  1  0  0  0  0
 16 14  1  0  0  0  0
 17  9  1  0  0  0  0
 21 24  1  0  0  0  0
 21 23  1  0  0  0  0
 22 21  1  0  0  0  0
 24 27  1  0  0  0  0
 25 26  1  0  0  0  0
 26 35  1  0  0  0  0
 27 28  2  0  0  0  0
 27 26  1  0  0  0  0
 28 29  1  0  0  0  0
 29 35  2  0  0  0  0
 29 30  1  0  0  0  0
 30 31  2  0  0  0  0
 31 32  1  0  0  0  0
 32 33  1  0  0  0  0
 34 32  2  0  0  0  0
 35 34  1  0  0  0  0
 36 38  1  0  0  0  0
 36 30  1  0  0  0  0
 37 36  1  0  0  0  0
M  END
>  <minimizedAffinity>
-5.07546186

$$$$

 OpenBabel03262521223D

 38 40  0  0  0  0  0  0  0  0999 V2000
   35.6910   22.7580   31.6930 C   0  0  0  0  0  0  0  0  0  0  0  0
   34.8530   22.4800   30.9750 H   0  0  0  0  0  0  0  0  0  0  0  0
   35.0930   23.0240   32.5940 H   0  0  0  0  0  0  0  0  0  0  0  0
   36.5960   21.7710   31.7630 C   0  0  0  0  0  0  0  0  0  0  0  0
   37.6510   22.0390   31.5400 H   0  0  0  0  0  0  0  0  0  0  0  0
   36.3930   20.8690   31.1120 H   0  0  0  0  0  0  0  0  0  0  0  0
   36.5280   21.4850   33.1110 O   0  0  0  0  0  0  0  0  0  0  0  0
   37.6410   21.7280   33.8740 C   0  0  0  0  0  0  0  0  0  0  0  0
   38.7840   21.6700   33.1280 C   0  0  0  0  0  0  0  0  0  0  0  0
   40.0330   21.8970   33.7600 C   0  0  0  0  0  0  0  0  0  0  0  0
   40.0030   22.1640   35.0990 N   0  0  0  0  0  0  0  0  0  0  0  0
   38.8330   22.2140   35.8160 C   0  0  0  0  0  0  0  0  0  0  0  0
   37.6820   21.9930   35.1770 N   0  0  0  0  0  0  0  0  0  0  0  0
   40.2180   22.6700   37.6950 C   0  0  0  0  0  0  0  0  0  0  0  0
   41.3030   22.5940   37.0210 O   0  0  0  0  0  0  0  0  0  0  0  0
   38.8970   22.4970   37.2030 N   0  0  0  0  0  0  0  0  0  0  0  0
   38.8890   21.4690   32.0900 H   0  0  0  0  0  0  0  0  0  0  0  0
   40.9720   21.8660   33.2320 H   0  0  0  0  0  0  0  0  0  0  0  0
   40.3790   22.8900   38.7460 H   0  0  0  0  0  0  0  0  0  0  0  0
   38.0500   22.5640   37.7720 H   0  0  0  0  0  0  0  0  0  0  0  0
   36.2000   24.0740   31.1740 C   0  0  0  0  0  0  0  0  0  0  0  0
   35.3430   24.5770   30.6570 H   0  0  0  0  0  0  0  0  0  0  0  0
   36.9600   23.9360   30.3610 H   0  0  0  0  0  0  0  0  0  0  0  0
   36.8400   25.1600   32.4100 S   0  0  0  0  0  0  0  0  0  0  0  0
   36.0740   28.0650   33.3120 H   0  0  0  0  0  0  0  0  0  0  0  0
   36.4200   28.0640   32.3420 N   0  0  0  0  0  0  0  0  0  0  0  0
   36.7740   26.8590   31.8690 C   0  0  0  0  0  0  0  0  0  0  0  0
   37.2030   27.0440   30.5880 N   0  0  0  0  0  0  0  0  0  0  0  0
   37.1120   28.3680   30.2740 C   0  0  0  0  0  0  0  0  0  0  0  0
   37.3710   29.1890   29.1940 C   0  0  0  0  0  0  0  0  0  0  0  0
   37.1370   30.5260   29.2760 N   0  0  0  0  0  0  0  0  0  0  0  0
   36.6500   31.1010   30.3920 C   0  0  0  0  0  0  0  0  0  0  0  0
   36.4790   32.1710   30.4100 H   0  0  0  0  0  0  0  0  0  0  0  0
   36.3840   30.3190   31.4740 N   0  0  0  0  0  0  0  0  0  0  0  0
   36.6160   28.9950   31.3950 C   0  0  0  0  0  0  0  0  0  0  0  0
   37.8850   28.5700   28.0200 N   0  0  0  0  0  0  0  0  0  0  0  0
   37.3980   27.8320   27.4360 H   0  0  0  0  0  0  0  0  0  0  0  0
   38.7810   28.6710   27.4890 H   0  0  0  0  0  0  0  0  0  0  0  0
  1  4  1  0  0  0  0
  1  3  1  0  0  0  0
  2  1  1  0  0  0  0
  4  7  1  0  0  0  0
  5  4  1  0  0  0  0
  6  4  1  0  0  0  0
  7  8  1  0  0  0  0
  8 13  1  0  0  0  0
  9 10  1  0  0  0  0
  9  8  2  0  0  0  0
 10 11  2  0  0  0  0
 11 12  1  0  0  0  0
 12 16  1  0  0  0  0
 13 12  2  0  0  0  0
 14 19  1  0  0  0  0
 15 14  2  0  0  0  0
 16 14  1  0  0  0  0
 16 20  1  0  0  0  0
 17  9  1  0  0  0  0
 18 10  1  0  0  0  0
 21  1  1  0  0  0  0
 21 24  1  0  0  0  0
 22 21  1  0  0  0  0
 23 21  1  0  0  0  0
 26 25  1  0  0  0  0
 27 26  1  0  0  0  0
 27 24  1  0  0  0  0
 28 27  2  0  0  0  0
 29 28  1  0  0  0  0
 29 35  1  0  0  0  0
 30 31  1  0  0  0  0
 30 29  2  0  0  0  0
 31 32  2  0  0  0  0
 32 33  1  0  0  0  0
 32 34  1  0  0  0  0
 35 34  2  0  0  0  0
 35 26  1  0  0  0  0
 36 30  1  0  0  0  0
 37 36  1  0  0  0  0
 38 36  1  0  0  0  0
M  END
>  <minimizedAffinity>
-5.07406569

$$$$

 OpenBabel03262521223D

 38 40  0  0  0  0  0  0  0  0999 V2000
   35.5270   22.6180   31.5290 C   0  0  0  0  0  0  0  0  0  0  0  0
   35.3760   23.1250   32.5360 H   0  0  0  0  0  0  0  0  0  0  0  0
   34.5530   22.8560   31.0440 H   0  0  0  0  0  0  0  0  0  0  0  0
   36.6700   23.0290   30.9630 C   0  0  0  0  0  0  0  0  0  0  0  0
   36.9100   22.6200   29.9580 H   0  0  0  0  0  0  0  0  0  0  0  0
   37.6100   22.8550   31.5670 H   0  0  0  0  0  0  0  0  0  0  0  0
   36.3810   24.3670   30.7960 O   0  0  0  0  0  0  0  0  0  0  0  0
   36.6910   25.2220   31.8230 C   0  0  0  0  0  0  0  0  0  0  0  0
   36.1130   26.4470   31.6480 C   0  0  0  0  0  0  0  0  0  0  0  0
   36.3300   27.4580   32.6200 C   0  0  0  0  0  0  0  0  0  0  0  0
   37.1190   27.1260   33.6840 N   0  0  0  0  0  0  0  0  0  0  0  0
   37.6830   25.8810   33.8260 C   0  0  0  0  0  0  0  0  0  0  0  0
   37.4500   24.9640   32.8850 N   0  0  0  0  0  0  0  0  0  0  0  0
   38.6370   26.7430   35.8270 C   0  0  0  0  0  0  0  0  0  0  0  0
   38.1260   27.9060   35.6710 O   0  0  0  0  0  0  0  0  0  0  0  0
   38.4890   25.6260   34.9630 N   0  0  0  0  0  0  0  0  0  0  0  0
   35.4920   26.7810   30.8530 H   0  0  0  0  0  0  0  0  0  0  0  0
   35.9050   28.4450   32.5450 H   0  0  0  0  0  0  0  0  0  0  0  0
   39.2360   26.6530   36.7290 H   0  0  0  0  0  0  0  0  0  0  0  0
   38.9130   24.7070   35.1190 H   0  0  0  0  0  0  0  0  0  0  0  0
   35.4450   21.1490   31.8410 C   0  0  0  0  0  0  0  0  0  0  0  0
   36.2340   20.6390   31.2300 H   0  0  0  0  0  0  0  0  0  0  0  0
   34.4880   20.6970   31.4730 H   0  0  0  0  0  0  0  0  0  0  0  0
   35.6840   20.7380   33.5410 S   0  0  0  0  0  0  0  0  0  0  0  0
   38.5780   21.6450   32.7390 H   0  0  0  0  0  0  0  0  0  0  0  0
   38.4040   21.8240   33.7380 N   0  0  0  0  0  0  0  0  0  0  0  0
   37.1850   21.4660   34.1730 C   0  0  0  0  0  0  0  0  0  0  0  0
   37.1300   21.7710   35.5010 N   0  0  0  0  0  0  0  0  0  0  0  0
   38.3200   22.3180   35.8830 C   0  0  0  0  0  0  0  0  0  0  0  0
   38.9000   22.8210   37.0310 C   0  0  0  0  0  0  0  0  0  0  0  0
   40.1720   23.2990   37.0050 N   0  0  0  0  0  0  0  0  0  0  0  0
   40.9120   23.3050   35.8810 C   0  0  0  0  0  0  0  0  0  0  0  0
   41.9230   23.6970   35.9080 H   0  0  0  0  0  0  0  0  0  0  0  0
   40.3700   22.8160   34.7320 N   0  0  0  0  0  0  0  0  0  0  0  0
   39.1100   22.3430   34.7550 C   0  0  0  0  0  0  0  0  0  0  0  0
   38.1070   22.8090   38.2130 N   0  0  0  0  0  0  0  0  0  0  0  0
   37.7170   21.9510   38.6980 H   0  0  0  0  0  0  0  0  0  0  0  0
   37.7430   23.5630   38.8410 H   0  0  0  0  0  0  0  0  0  0  0  0
  1 21  1  0  0  0  0
  1  2  1  0  0  0  0
  3  1  1  0  0  0  0
  4  1  1  0  0  0  0
  4  6  1  0  0  0  0
  5  4  1  0  0  0  0
  7  4  1  0  0  0  0
  7  8  1  0  0  0  0
  8 13  1  0  0  0  0
  9  8  2  0  0  0  0
  9 10  1  0  0  0  0
 10 11  2  0  0  0  0
 11 12  1  0  0  0  0
 12 16  1  0  0  0  0
 13 12  2  0  0  0  0
 14 19  1  0  0  0  0
 15 14  2  0  0  0  0
 16 20  1  0  0  0  0
 16 14  1  0  0  0  0
 17  9  1  0  0  0  0
 18 10  1  0  0  0  0
 21 24  1  0  0  0  0
 22 21  1  0  0  0  0
 23 21  1  0  0  0  0
 24 27  1  0  0  0  0
 25 26  1  0  0  0  0
 26 27  1  0  0  0  0
 26 35  1  0  0  0  0
 27 28  2  0  0  0  0
 28 29  1  0  0  0  0
 29 30  1  0  0  0  0
 30 36  1  0  0  0  0
 31 30  2  0  0  0  0
 32 33  1  0  0  0  0
 32 31  1  0  0  0  0
 34 35  1  0  0  0  0
 34 32  2  0  0  0  0
 35 29  2  0  0  0  0
 36 37  1  0  0  0  0
 36 38  1  0  0  0  0
M  END
>  <minimizedAffinity>
-5.05922937

$$$$

 OpenBabel03262521223D

 38 40  0  0  0  0  0  0  0  0999 V2000
   36.6060   27.7780   34.5070 C   0  0  0  0  0  0  0  0  0  0  0  0
   36.5770   28.3460   35.4930 H   0  0  0  0  0  0  0  0  0  0  0  0
   35.8260   27.0070   34.7050 H   0  0  0  0  0  0  0  0  0  0  0  0
   36.4610   28.6220   33.4750 C   0  0  0  0  0  0  0  0  0  0  0  0
   36.6990   28.2260   32.4650 H   0  0  0  0  0  0  0  0  0  0  0  0
   37.0450   29.5880   33.5430 H   0  0  0  0  0  0  0  0  0  0  0  0
   35.0960   28.8170   33.5220 O   0  0  0  0  0  0  0  0  0  0  0  0
   34.6100   29.7220   34.4300 C   0  0  0  0  0  0  0  0  0  0  0  0
   33.3210   29.4350   34.7820 C   0  0  0  0  0  0  0  0  0  0  0  0
   32.6580   30.2730   35.7160 C   0  0  0  0  0  0  0  0  0  0  0  0
   33.3730   31.3280   36.2080 N   0  0  0  0  0  0  0  0  0  0  0  0
   34.6680   31.5830   35.8300 C   0  0  0  0  0  0  0  0  0  0  0  0
   35.2490   30.7670   34.9470 N   0  0  0  0  0  0  0  0  0  0  0  0
   34.5290   33.4600   37.2850 C   0  0  0  0  0  0  0  0  0  0  0  0
   33.3140   33.2260   37.6090 O   0  0  0  0  0  0  0  0  0  0  0  0
   35.3320   32.7020   36.3920 N   0  0  0  0  0  0  0  0  0  0  0  0
   32.7020   28.6400   34.4460 H   0  0  0  0  0  0  0  0  0  0  0  0
   31.6440   30.1050   36.0380 H   0  0  0  0  0  0  0  0  0  0  0  0
   34.9430   34.3390   37.7700 H   0  0  0  0  0  0  0  0  0  0  0  0
   36.3040   32.9190   36.1540 H   0  0  0  0  0  0  0  0  0  0  0  0
   37.9050   27.0230   34.5540 C   0  0  0  0  0  0  0  0  0  0  0  0
   38.1530   26.8630   35.6350 H   0  0  0  0  0  0  0  0  0  0  0  0
   38.7600   27.6400   34.1720 H   0  0  0  0  0  0  0  0  0  0  0  0
   37.8840   25.4600   33.7340 S   0  0  0  0  0  0  0  0  0  0  0  0
   40.3910   23.6540   33.1920 H   0  0  0  0  0  0  0  0  0  0  0  0
   40.0910   23.5760   34.1740 N   0  0  0  0  0  0  0  0  0  0  0  0
   39.0210   24.3170   34.5000 C   0  0  0  0  0  0  0  0  0  0  0  0
   38.7680   24.0950   35.8210 N   0  0  0  0  0  0  0  0  0  0  0  0
   39.6870   23.2130   36.3090 C   0  0  0  0  0  0  0  0  0  0  0  0
   39.9840   22.5940   37.5060 C   0  0  0  0  0  0  0  0  0  0  0  0
   41.0350   21.7360   37.5950 N   0  0  0  0  0  0  0  0  0  0  0  0
   41.8190   21.4530   36.5380 C   0  0  0  0  0  0  0  0  0  0  0  0
   42.6460   20.7620   36.6560 H   0  0  0  0  0  0  0  0  0  0  0  0
   41.5530   22.0470   35.3420 N   0  0  0  0  0  0  0  0  0  0  0  0
   40.5140   22.8970   35.2530 C   0  0  0  0  0  0  0  0  0  0  0  0
   39.1470   22.9010   38.6170 N   0  0  0  0  0  0  0  0  0  0  0  0
   38.1080   22.7070   38.6900 H   0  0  0  0  0  0  0  0  0  0  0  0
   39.3220   23.3490   39.5460 H   0  0  0  0  0  0  0  0  0  0  0  0
  1 21  1  0  0  0  0
  1  3  1  0  0  0  0
  1  2  1  0  0  0  0
  4  7  1  0  0  0  0
  4  6  1  0  0  0  0
  4  1  1  0  0  0  0
  5  4  1  0  0  0  0
  7  8  1  0  0  0  0
  8  9  2  0  0  0  0
  8 13  1  0  0  0  0
  9 10  1  0  0  0  0
 10 18  1  0  0  0  0
 10 11  2  0  0  0  0
 12 11  1  0  0  0  0
 12 16  1  0  0  0  0
 13 12  2  0  0  0  0
 14 15  2  0  0  0  0
 14 19  1  0  0  0  0
 16 14  1  0  0  0  0
 17  9  1  0  0  0  0
 20 16  1  0  0  0  0
 21 22  1  0  0  0  0
 23 21  1  0  0  0  0
 24 27  1  0  0  0  0
 24 21  1  0  0  0  0
 25 26  1  0  0  0  0
 26 27  1  0  0  0  0
 26 35  1  0  0  0  0
 27 28  2  0  0  0  0
 28 29  1  0  0  0  0
 29 30  1  0  0  0  0
 30 31  2  0  0  0  0
 30 36  1  0  0  0  0
 32 33  1  0  0  0  0
 32 31  1  0  0  0  0
 34 32  2  0  0  0  0
 35 34  1  0  0  0  0
 35 29  2  0  0  0  0
 36 37  1  0  0  0  0
 36 38  1  0  0  0  0
M  END
>  <minimizedAffinity>
-5.05897188

$$$$

 OpenBabel03262521223D

 38 40  0  0  0  0  0  0  0  0999 V2000
   37.3900   26.9120   32.1090 C   0  0  0  0  0  0  0  0  0  0  0  0
   38.1610   27.7290   32.2860 H   0  0  0  0  0  0  0  0  0  0  0  0
   36.6030   27.5000   31.5830 H   0  0  0  0  0  0  0  0  0  0  0  0
   37.9530   25.8590   31.4990 C   0  0  0  0  0  0  0  0  0  0  0  0
   38.4760   25.1240   32.1470 H   0  0  0  0  0  0  0  0  0  0  0  0
   38.7030   26.1020   30.6890 H   0  0  0  0  0  0  0  0  0  0  0  0
   36.8220   25.2380   31.0130 O   0  0  0  0  0  0  0  0  0  0  0  0
   36.7550   23.8700   31.0990 C   0  0  0  0  0  0  0  0  0  0  0  0
   37.8780   23.2800   30.5910 C   0  0  0  0  0  0  0  0  0  0  0  0
   37.9780   21.8660   30.5990 C   0  0  0  0  0  0  0  0  0  0  0  0
   36.9220   21.1790   31.1270 N   0  0  0  0  0  0  0  0  0  0  0  0
   35.8090   21.8080   31.6290 C   0  0  0  0  0  0  0  0  0  0  0  0
   35.7610   23.1420   31.5980 N   0  0  0  0  0  0  0  0  0  0  0  0
   34.9930   19.6170   32.0670 C   0  0  0  0  0  0  0  0  0  0  0  0
   36.0240   19.0430   31.5720 O   0  0  0  0  0  0  0  0  0  0  0  0
   34.7600   21.0150   32.1570 N   0  0  0  0  0  0  0  0  0  0  0  0
   38.7360   23.7420   30.1660 H   0  0  0  0  0  0  0  0  0  0  0  0
   38.8340   21.3360   30.2150 H   0  0  0  0  0  0  0  0  0  0  0  0
   34.2500   18.9200   32.4420 H   0  0  0  0  0  0  0  0  0  0  0  0
   33.9210   21.4420   32.5590 H   0  0  0  0  0  0  0  0  0  0  0  0
   36.8160   26.6460   33.4730 C   0  0  0  0  0  0  0  0  0  0  0  0
   36.5430   25.5600   33.5080 H   0  0  0  0  0  0  0  0  0  0  0  0
   35.8380   27.1730   33.6240 H   0  0  0  0  0  0  0  0  0  0  0  0
   37.9020   27.0070   34.8170 S   0  0  0  0  0  0  0  0  0  0  0  0
   40.3760   25.3240   33.8770 H   0  0  0  0  0  0  0  0  0  0  0  0
   39.9800   24.9350   34.7440 N   0  0  0  0  0  0  0  0  0  0  0  0
   38.9130   25.5940   35.2240 C   0  0  0  0  0  0  0  0  0  0  0  0
   38.5240   24.9500   36.3610 N   0  0  0  0  0  0  0  0  0  0  0  0
   39.3560   23.8920   36.5810 C   0  0  0  0  0  0  0  0  0  0  0  0
   39.5110   22.8800   37.5080 C   0  0  0  0  0  0  0  0  0  0  0  0
   40.5140   21.9720   37.3730 N   0  0  0  0  0  0  0  0  0  0  0  0
   41.3850   22.0150   36.3480 C   0  0  0  0  0  0  0  0  0  0  0  0
   42.1690   21.2680   36.2820 H   0  0  0  0  0  0  0  0  0  0  0  0
   41.2600   23.0000   35.4170 N   0  0  0  0  0  0  0  0  0  0  0  0
   40.2680   23.9000   35.5490 C   0  0  0  0  0  0  0  0  0  0  0  0
   38.5830   22.8460   38.5870 N   0  0  0  0  0  0  0  0  0  0  0  0
   37.5340   22.7120   38.5080 H   0  0  0  0  0  0  0  0  0  0  0  0
   38.6840   22.9340   39.6250 H   0  0  0  0  0  0  0  0  0  0  0  0
  1  2  1  0  0  0  0
  1 21  1  0  0  0  0
  3  1  1  0  0  0  0
  4  1  1  0  0  0  0
  4  5  1  0  0  0  0
  6  4  1  0  0  0  0
  7  8  1  0  0  0  0
  7  4  1  0  0  0  0
  8 13  1  0  0  0  0
  9 10  1  0  0  0  0
  9  8  2  0  0  0  0
 10 11  2  0  0  0  0
 11 12  1  0  0  0  0
 12 16  1  0  0  0  0
 13 12  2  0  0  0  0
 14 16  1  0  0  0  0
 14 19  1  0  0  0  0
 15 14  2  0  0  0  0
 16 20  1  0  0  0  0
 17  9  1  0  0  0  0
 18 10  1  0  0  0  0
 21 22  1  0  0  0  0
 21 23  1  0  0  0  0
 21 24  1  0  0  0  0
 24 27  1  0  0  0  0
 25 26  1  0  0  0  0
 26 27  1  0  0  0  0
 26 35  1  0  0  0  0
 27 28  2  0  0  0  0
 28 29  1  0  0  0  0
 29 30  1  0  0  0  0
 30 36  1  0  0  0  0
 31 30  2  0  0  0  0
 32 31  1  0  0  0  0
 33 32  1  0  0  0  0
 34 35  1  0  0  0  0
 34 32  2  0  0  0  0
 35 29  2  0  0  0  0
 36 38  1  0  0  0  0
 37 36  1  0  0  0  0
M  END
>  <minimizedAffinity>
-5.04291153

$$$$

 OpenBabel03262521223D

 38 40  0  0  0  0  0  0  0  0999 V2000
   35.8270   22.2460   31.2970 C   0  0  0  0  0  0  0  0  0  0  0  0
   35.2060   22.2630   30.3430 H   0  0  0  0  0  0  0  0  0  0  0  0
   35.6650   23.2900   31.6510 H   0  0  0  0  0  0  0  0  0  0  0  0
   35.4660   21.2160   32.0750 C   0  0  0  0  0  0  0  0  0  0  0  0
   35.1870   20.2710   31.5610 H   0  0  0  0  0  0  0  0  0  0  0  0
   34.6090   21.4120   32.7850 H   0  0  0  0  0  0  0  0  0  0  0  0
   36.6590   20.9840   32.7260 O   0  0  0  0  0  0  0  0  0  0  0  0
   36.7460   21.3370   34.0480 C   0  0  0  0  0  0  0  0  0  0  0  0
   35.7390   20.7780   34.7840 C   0  0  0  0  0  0  0  0  0  0  0  0
   35.6750   21.0390   36.1770 C   0  0  0  0  0  0  0  0  0  0  0  0
   36.6470   21.8480   36.6940 N   0  0  0  0  0  0  0  0  0  0  0  0
   37.6440   22.3920   35.9220 C   0  0  0  0  0  0  0  0  0  0  0  0
   37.6620   22.1180   34.6160 N   0  0  0  0  0  0  0  0  0  0  0  0
   38.3950   23.4120   37.9350 C   0  0  0  0  0  0  0  0  0  0  0  0
   37.4460   22.9200   38.6390 O   0  0  0  0  0  0  0  0  0  0  0  0
   38.6100   23.2210   36.5450 N   0  0  0  0  0  0  0  0  0  0  0  0
   34.9520   20.1440   34.4570 H   0  0  0  0  0  0  0  0  0  0  0  0
   34.9100   20.6310   36.8150 H   0  0  0  0  0  0  0  0  0  0  0  0
   39.0790   24.0320   38.5080 H   0  0  0  0  0  0  0  0  0  0  0  0
   39.3820   23.6310   36.0120 H   0  0  0  0  0  0  0  0  0  0  0  0
   37.2490   22.2280   30.8090 C   0  0  0  0  0  0  0  0  0  0  0  0
   37.2590   21.6550   29.8470 H   0  0  0  0  0  0  0  0  0  0  0  0
   37.9140   21.6290   31.4850 H   0  0  0  0  0  0  0  0  0  0  0  0
   37.9580   23.8220   30.5340 S   0  0  0  0  0  0  0  0  0  0  0  0
   39.5360   23.8510   33.2450 H   0  0  0  0  0  0  0  0  0  0  0  0
   38.8780   24.6410   33.1980 N   0  0  0  0  0  0  0  0  0  0  0  0
   38.1560   24.7110   32.0690 C   0  0  0  0  0  0  0  0  0  0  0  0
   37.3480   25.8040   32.1770 N   0  0  0  0  0  0  0  0  0  0  0  0
   37.5750   26.4090   33.3780 C   0  0  0  0  0  0  0  0  0  0  0  0
   37.1160   27.5040   34.0810 C   0  0  0  0  0  0  0  0  0  0  0  0
   37.6150   27.7890   35.3130 N   0  0  0  0  0  0  0  0  0  0  0  0
   38.5630   27.0300   35.8950 C   0  0  0  0  0  0  0  0  0  0  0  0
   38.9310   27.2970   36.8790 H   0  0  0  0  0  0  0  0  0  0  0  0
   39.0370   25.9430   35.2280 N   0  0  0  0  0  0  0  0  0  0  0  0
   38.5440   25.6590   34.0080 C   0  0  0  0  0  0  0  0  0  0  0  0
   36.1130   28.2990   33.4560 N   0  0  0  0  0  0  0  0  0  0  0  0
   35.1420   27.9780   33.1780 H   0  0  0  0  0  0  0  0  0  0  0  0
   36.0800   29.2970   33.1420 H   0  0  0  0  0  0  0  0  0  0  0  0
  1  3  1  0  0  0  0
  1  4  1  0  0  0  0
  2  1  1  0  0  0  0
  4  7  1  0  0  0  0
  4  6  1  0  0  0  0
  5  4  1  0  0  0  0
  7  8  1  0  0  0  0
  8 13  2  0  0  0  0
  8  9  1  0  0  0  0
  9 10  2  0  0  0  0
 10 11  1  0  0  0  0
 10 18  1  0  0  0  0
 12 16  1  0  0  0  0
 12 11  2  0  0  0  0
 13 12  1  0  0  0  0
 14 19  1  0  0  0  0
 14 15  2  0  0  0  0
 16 14  1  0  0  0  0
 17  9  1  0  0  0  0
 20 16  1  0  0  0  0
 21  1  1  0  0  0  0
 21 23  1  0  0  0  0
 22 21  1  0  0  0  0
 24 21  1  0  0  0  0
 24 27  1  0  0  0  0
 26 25  1  0  0  0  0
 26 35  1  0  0  0  0
 27 28  2  0  0  0  0
 27 26  1  0  0  0  0
 28 29  1  0  0  0  0
 29 35  2  0  0  0  0
 29 30  1  0  0  0  0
 30 31  2  0  0  0  0
 31 32  1  0  0  0  0
 32 33  1  0  0  0  0
 34 32  2  0  0  0  0
 35 34  1  0  0  0  0
 36 30  1  0  0  0  0
 37 36  1  0  0  0  0
 38 36  1  0  0  0  0
M  END
>  <minimizedAffinity>
-5.03358793

$$$$
