REMARK  Name = 
REMARK  5 active torsions:
REMARK  status: ('A' for Active; 'I' for Inactive)
REMARK    1  A    between atoms: C_1  and  S_7
REMARK    2  A    between atoms: S_7  and  C_8
REMARK    3  A    between atoms: C_8  and  S_9
REMARK    4  A    between atoms: S_9  and  C_17
REMARK    5  A    between atoms: C_20  and  N_21
REMARK                            x       y       z     vdW  Elec       q    Type
REMARK                         _______ _______ _______ _____ _____    ______ ____
ROOT
ATOM      1  S   UNL     1      34.687  28.408  49.384  0.00  0.00    +0.000 S 
ENDROOT
BRANCH   1   4
ATOM      2  H   UNL     1      32.180  30.246  49.033  0.00  0.00    +0.000 HD
ATOM      3  N   UNL     1      31.907  29.306  49.377  0.00  0.00    +0.000 N 
ATOM      4  C   UNL     1      32.916  28.435  49.562  0.00  0.00    +0.000 A 
ATOM      5  N   UNL     1      32.378  27.272  50.009  0.00  0.00    +0.000 NA
ATOM      6  C   UNL     1      31.041  27.376  50.115  0.00  0.00    +0.000 A 
ATOM      7  C   UNL     1      29.990  26.573  50.495  0.00  0.00    +0.000 A 
ATOM      8  N   UNL     1      28.730  27.079  50.458  0.00  0.00    +0.000 NA
ATOM      9  C   UNL     1      28.512  28.359  50.052  0.00  0.00    +0.000 A 
ATOM     10  H   UNL     1      27.465  28.691  50.051  0.00  0.00    +0.000 HD
ATOM     11  N   UNL     1      29.543  29.167  49.672  0.00  0.00    +0.000 NA
ATOM     12  C   UNL     1      30.793  28.668  49.708  0.00  0.00    +0.000 A 
BRANCH   7  13
ATOM     13  N   UNL     1      30.283  25.242  50.910  0.00  0.00    +0.000 N 
ATOM     14  H   UNL     1      30.069  25.154  51.925  0.00  0.00    +0.000 HD
ATOM     15  H   UNL     1      30.649  24.447  50.342  0.00  0.00    +0.000 HD
ENDBRANCH   7  13
ENDBRANCH   1   4
BRANCH   1  16
ATOM     16  C   UNL     1      35.499  29.337  50.731  0.00  0.00    +0.000 C 
ATOM     17  H   UNL     1      35.087  30.376  50.719  0.00  0.00    +0.000 HD
ATOM     18  H   UNL     1      35.175  28.906  51.706  0.00  0.00    +0.000 HD
BRANCH  16  19
ATOM     19  S   UNL     1      37.294  29.335  50.590  0.00  0.00    +0.000 S 
BRANCH  19  20
ATOM     20  C   UNL     1      37.766  30.517  49.352  0.00  0.00    +0.000 A 
ATOM     21  C   UNL     1      38.241  31.729  49.838  0.00  0.00    +0.000 A 
ATOM     22  C   UNL     1      38.629  32.703  48.906  0.00  0.00    +0.000 A 
ATOM     23  N   UNL     1      38.528  32.430  47.571  0.00  0.00    +0.000 NA
ATOM     24  C   UNL     1      38.054  31.224  47.168  0.00  0.00    +0.000 A 
ATOM     25  N   UNL     1      37.687  30.301  48.032  0.00  0.00    +0.000 NA
ATOM     26  H   UNL     1      38.331  31.969  50.888  0.00  0.00    +0.000 HD
ATOM     27  H   UNL     1      39.006  33.664  49.237  0.00  0.00    +0.000 HD
ATOM     28  H   UNL     1      37.979  31.021  46.102  0.00  0.00    +0.000 HD
ENDBRANCH  19  20
ENDBRANCH  16  19
ENDBRANCH   1  16
TORSDOF 5
