REMARK  Name = 
REMARK  4 active torsions:
REMARK  status: ('A' for Active; 'I' for Inactive)
REMARK    1  A    between atoms: C_3  and  C_7
REMARK    2  A    between atoms: C_7  and  C_8
REMARK    3  A    between atoms: C_8  and  N_16
REMARK    4  A    between atoms: C_21  and  N_22
REMARK                            x       y       z     vdW  Elec       q    Type
REMARK                         _______ _______ _______ _____ _____    ______ ____
ROOT
ATOM      1  C   UNL     1      38.826  32.641  48.209  0.00  0.00    +0.000 C 
ATOM      2  H   UNL     1      38.008  33.279  48.561  0.00  0.00    +0.000 HD
ATOM      3  H   UNL     1      39.664  32.538  48.930  0.00  0.00    +0.000 HD
ENDROOT
BRANCH   1   4
ATOM      4  N   UNL     1      39.418  33.171  46.972  0.00  0.00    +0.000 N 
ATOM      5  C   UNL     1      40.666  33.573  46.727  0.00  0.00    +0.000 A 
ATOM      6  H   UNL     1      41.438  33.546  47.483  0.00  0.00    +0.000 HD
ATOM      7  N   UNL     1      40.756  33.989  45.432  0.00  0.00    +0.000 NA
ATOM      8  C   UNL     1      39.511  33.824  44.901  0.00  0.00    +0.000 A 
ATOM      9  C   UNL     1      39.029  34.081  43.633  0.00  0.00    +0.000 A 
ATOM     10  N   UNL     1      37.719  33.815  43.379  0.00  0.00    +0.000 NA
ATOM     11  C   UNL     1      36.882  33.318  44.292  0.00  0.00    +0.000 A 
ATOM     12  H   UNL     1      35.849  33.121  44.047  0.00  0.00    +0.000 HD
ATOM     13  N   UNL     1      37.354  33.067  45.529  0.00  0.00    +0.000 NA
ATOM     14  C   UNL     1      38.652  33.307  45.860  0.00  0.00    +0.000 A 
BRANCH   9  15
ATOM     15  N   UNL     1      39.840  34.611  42.590  0.00  0.00    +0.000 N 
ATOM     16  H   UNL     1      39.801  35.648  42.441  0.00  0.00    +0.000 HD
ATOM     17  H   UNL     1      40.263  33.694  42.271  0.00  0.00    +0.000 HD
ENDBRANCH   9  15
ENDBRANCH   1   4
BRANCH   1  18
ATOM     18  C   UNL     1      38.322  31.249  47.864  0.00  0.00    +0.000 C 
ATOM     19  H   UNL     1      37.572  31.341  47.066  0.00  0.00    +0.000 HD
ATOM     20  H   UNL     1      39.164  30.653  47.459  0.00  0.00    +0.000 HD
BRANCH  18  23
ATOM     21  C   UNL     1      37.380  30.251  51.416  0.00  0.00    +0.000 A 
ATOM     22  C   UNL     1      38.038  30.913  50.367  0.00  0.00    +0.000 A 
ATOM     23  C   UNL     1      37.697  30.616  49.058  0.00  0.00    +0.000 A 
ATOM     24  N   UNL     1      36.726  29.682  48.841  0.00  0.00    +0.000 NA
ATOM     25  C   UNL     1      36.108  29.060  49.864  0.00  0.00    +0.000 A 
ATOM     26  N   UNL     1      36.428  29.338  51.143  0.00  0.00    +0.000 NA
ATOM     27  H   UNL     1      37.638  30.474  52.444  0.00  0.00    +0.000 HD
ATOM     28  H   UNL     1      38.794  31.639  50.541  0.00  0.00    +0.000 HD
ATOM     29  H   UNL     1      35.357  28.341  49.555  0.00  0.00    +0.000 HD
ENDBRANCH  18  23
ENDBRANCH   1  18
TORSDOF 4
