
 OpenBabel03272506413D

 24 26  0  0  0  0  0  0  0  0999 V2000
   34.2040   26.3560   48.8090 H   0  0  0  0  0  0  0  0  0  0  0  0
   33.9780   27.0630   48.0990 N   0  0  0  0  0  0  0  0  0  0  0  0
   33.9360   28.3560   48.4780 C   0  0  0  0  0  0  0  0  0  0  0  0
   33.6290   29.0960   47.4170 N   0  0  0  0  0  0  0  0  0  0  0  0
   33.4740   28.2740   46.3560 C   0  0  0  0  0  0  0  0  0  0  0  0
   33.1650   28.4330   45.0290 C   0  0  0  0  0  0  0  0  0  0  0  0
   33.0920   27.3600   44.2300 N   0  0  0  0  0  0  0  0  0  0  0  0
   33.3090   26.1160   44.6680 C   0  0  0  0  0  0  0  0  0  0  0  0
   33.2260   25.3170   43.9450 H   0  0  0  0  0  0  0  0  0  0  0  0
   33.6200   25.9150   45.9810 N   0  0  0  0  0  0  0  0  0  0  0  0
   33.6950   26.9850   46.7890 C   0  0  0  0  0  0  0  0  0  0  0  0
   32.9380   29.7750   44.5900 N   0  0  0  0  0  0  0  0  0  0  0  0
   32.1290   30.2070   45.1220 H   0  0  0  0  0  0  0  0  0  0  0  0
   33.3510   30.4340   43.8960 H   0  0  0  0  0  0  0  0  0  0  0  0
   34.1920   29.2400   50.0180 S   0  0  0  0  0  0  0  0  0  0  0  0
   38.0680   29.8560   50.5210 C   0  0  0  0  0  0  0  0  0  0  0  0
   38.2710   31.1780   50.1180 C   0  0  0  0  0  0  0  0  0  0  0  0
   37.1700   31.9250   49.6680 C   0  0  0  0  0  0  0  0  0  0  0  0
   35.9540   31.3070   49.6510 N   0  0  0  0  0  0  0  0  0  0  0  0
   35.7900   30.0390   50.0430 C   0  0  0  0  0  0  0  0  0  0  0  0
   36.8390   29.3020   50.4820 N   0  0  0  0  0  0  0  0  0  0  0  0
   38.9110   29.2790   50.8690 H   0  0  0  0  0  0  0  0  0  0  0  0
   39.2680   31.6450   50.1440 H   0  0  0  0  0  0  0  0  0  0  0  0
   37.2720   32.9550   49.3430 H   0  0  0  0  0  0  0  0  0  0  0  0
  2  3  1  0  0  0  0
  2  1  1  0  0  0  0
  3 15  1  0  0  0  0
  4  3  2  0  0  0  0
  5 11  1  0  0  0  0
  5  4  1  0  0  0  0
  6  5  2  0  0  0  0
  7  8  2  0  0  0  0
  7  6  1  0  0  0  0
  8 10  1  0  0  0  0
  9  8  1  0  0  0  0
 10 11  2  0  0  0  0
 11  2  1  0  0  0  0
 12  6  1  0  0  0  0
 12 13  1  0  0  0  0
 14 12  1  0  0  0  0
 15 20  1  0  0  0  0
 16 22  1  0  0  0  0
 17 23  1  0  0  0  0
 17 16  2  0  0  0  0
 18 17  1  0  0  0  0
 19 18  2  0  0  0  0
 19 20  1  0  0  0  0
 20 21  2  0  0  0  0
 21 16  1  0  0  0  0
 24 18  1  0  0  0  0
M  END
>  <minimizedAffinity>
-3.77791166

>  <minimizedRMSD>
3.87203407

$$$$
