
 OpenBabel03262521213D

 38 40  0  0  0  0  0  0  0  0999 V2000
   37.5530   31.6030   49.5130 C   0  0  0  0  0  0  0  0  0  0  0  0
   38.0110   31.4270   50.5400 H   0  0  0  0  0  0  0  0  0  0  0  0
   37.5310   32.7160   49.4980 H   0  0  0  0  0  0  0  0  0  0  0  0
   38.2390   30.9380   48.5720 C   0  0  0  0  0  0  0  0  0  0  0  0
   37.6550   30.5170   47.7260 H   0  0  0  0  0  0  0  0  0  0  0  0
   38.8640   30.0710   48.9400 H   0  0  0  0  0  0  0  0  0  0  0  0
   39.0010   31.9700   48.0650 O   0  0  0  0  0  0  0  0  0  0  0  0
   38.8620   32.2740   46.7350 C   0  0  0  0  0  0  0  0  0  0  0  0
   39.9800   32.8830   46.2400 C   0  0  0  0  0  0  0  0  0  0  0  0
   40.0090   33.2680   44.8750 C   0  0  0  0  0  0  0  0  0  0  0  0
   38.8920   32.9970   44.1370 N   0  0  0  0  0  0  0  0  0  0  0  0
   37.7860   32.3830   44.6710 C   0  0  0  0  0  0  0  0  0  0  0  0
   37.8060   32.0390   45.9610 N   0  0  0  0  0  0  0  0  0  0  0  0
   36.8390   32.6110   42.5010 C   0  0  0  0  0  0  0  0  0  0  0  0
   37.8660   33.2060   42.0230 O   0  0  0  0  0  0  0  0  0  0  0  0
   36.6710   32.1410   43.8310 N   0  0  0  0  0  0  0  0  0  0  0  0
   40.8820   33.1270   46.7460 H   0  0  0  0  0  0  0  0  0  0  0  0
   40.8580   33.7510   44.4200 H   0  0  0  0  0  0  0  0  0  0  0  0
   36.0420   32.4770   41.7750 H   0  0  0  0  0  0  0  0  0  0  0  0
   35.8330   31.6690   44.1810 H   0  0  0  0  0  0  0  0  0  0  0  0
   36.1140   31.1980   49.6780 C   0  0  0  0  0  0  0  0  0  0  0  0
   35.6360   31.2640   48.6670 H   0  0  0  0  0  0  0  0  0  0  0  0
   35.5400   31.9390   50.2940 H   0  0  0  0  0  0  0  0  0  0  0  0
   35.8710   29.5720   50.3210 S   0  0  0  0  0  0  0  0  0  0  0  0
   32.7340   29.6110   50.3560 H   0  0  0  0  0  0  0  0  0  0  0  0
   33.0820   28.9010   49.6960 N   0  0  0  0  0  0  0  0  0  0  0  0
   34.4190   28.8120   49.6140 C   0  0  0  0  0  0  0  0  0  0  0  0
   34.6990   27.8350   48.7050 N   0  0  0  0  0  0  0  0  0  0  0  0
   33.5300   27.3210   48.2270 C   0  0  0  0  0  0  0  0  0  0  0  0
   33.1210   26.3550   47.3300 C   0  0  0  0  0  0  0  0  0  0  0  0
   31.7960   26.1290   47.1190 N   0  0  0  0  0  0  0  0  0  0  0  0
   30.8400   26.8230   47.7650 C   0  0  0  0  0  0  0  0  0  0  0  0
   29.7970   26.6070   47.5640 H   0  0  0  0  0  0  0  0  0  0  0  0
   31.2100   27.7820   48.6560 N   0  0  0  0  0  0  0  0  0  0  0  0
   32.5200   28.0080   48.8650 C   0  0  0  0  0  0  0  0  0  0  0  0
   34.1410   25.6280   46.6540 N   0  0  0  0  0  0  0  0  0  0  0  0
   34.8710   25.0050   47.1060 H   0  0  0  0  0  0  0  0  0  0  0  0
   34.4080   25.5320   45.6470 H   0  0  0  0  0  0  0  0  0  0  0  0
  1 21  1  0  0  0  0
  1  2  1  0  0  0  0
  3  1  1  0  0  0  0
  4  6  1  0  0  0  0
  4  1  1  0  0  0  0
  5  4  1  0  0  0  0
  7  4  1  0  0  0  0
  8  7  1  0  0  0  0
  9  8  1  0  0  0  0
  9 17  1  0  0  0  0
 10  9  2  0  0  0  0
 11 12  2  0  0  0  0
 11 10  1  0  0  0  0
 12 13  1  0  0  0  0
 13  8  2  0  0  0  0
 14 16  1  0  0  0  0
 15 14  2  0  0  0  0
 16 20  1  0  0  0  0
 16 12  1  0  0  0  0
 18 10  1  0  0  0  0
 19 14  1  0  0  0  0
 21 23  1  0  0  0  0
 21 24  1  0  0  0  0
 22 21  1  0  0  0  0
 26 25  1  0  0  0  0
 27 26  1  0  0  0  0
 27 24  1  0  0  0  0
 28 27  2  0  0  0  0
 29 28  1  0  0  0  0
 29 35  1  0  0  0  0
 30 29  2  0  0  0  0
 31 30  1  0  0  0  0
 31 32  2  0  0  0  0
 32 34  1  0  0  0  0
 33 32  1  0  0  0  0
 34 35  2  0  0  0  0
 35 26  1  0  0  0  0
 36 37  1  0  0  0  0
 36 30  1  0  0  0  0
 38 36  1  0  0  0  0
M  END
>  <minimizedAffinity>
-5.57569361

>  <minimizedRMSD>
2.72042131

$$$$
