
 OpenBabel03272508273D

 43 47  0  0  1  0  0  0  0  0999 V2000
   33.9580   29.0460   47.3280 C   0  0  2  0  0  0  0  0  0  0  0  0
   34.7250   28.2530   48.3720 C   0  0  2  0  0  0  0  0  0  0  0  0
   33.8470   28.0420   49.3980 O   0  0  0  0  0  0  0  0  0  0  0  0
   32.5620   28.1020   48.9450 C   0  0  0  0  0  0  0  0  0  0  0  0
   32.5950   28.3610   47.4550 C   0  0  1  0  0  0  0  0  0  0  0  0
   33.8140   30.0950   47.6190 H   0  0  0  0  0  0  0  0  0  0  0  0
   35.0230   27.3100   47.8600 H   0  0  0  0  0  0  0  0  0  0  0  0
   32.0580   27.1000   49.0720 H   0  0  0  0  0  0  0  0  0  0  0  0
   31.9880   28.8460   49.5080 H   0  0  0  0  0  0  0  0  0  0  0  0
   32.6970   27.3930   46.9180 H   0  0  0  0  0  0  0  0  0  0  0  0
   35.7930   30.5160   49.0390 C   0  0  1  0  0  0  0  0  0  0  0  0
   35.8840   29.0940   48.8060 C   0  0  1  0  0  0  0  0  0  0  0  0
   36.0310   29.5600   50.2190 C   0  0  0  0  0  0  0  0  0  0  0  0
   34.8820   31.1180   49.2180 H   0  0  0  0  0  0  0  0  0  0  0  0
   36.8540   28.7340   48.3550 H   0  0  0  0  0  0  0  0  0  0  0  0
   35.1610   29.2910   50.8520 H   0  0  0  0  0  0  0  0  0  0  0  0
   37.0140   29.5690   50.7110 H   0  0  0  0  0  0  0  0  0  0  0  0
   36.9850   31.4290   48.8040 C   0  0  0  0  0  0  0  0  0  0  0  0
   37.1690   32.4810   49.7020 C   0  0  0  0  0  0  0  0  0  0  0  0
   38.2590   33.2970   49.4200 C   0  0  0  0  0  0  0  0  0  0  0  0
   39.0670   33.0600   48.3390 N   0  0  0  0  0  0  0  0  0  0  0  0
   38.8430   32.0230   47.4970 C   0  0  0  0  0  0  0  0  0  0  0  0
   37.7920   31.2020   47.7350 N   0  0  0  0  0  0  0  0  0  0  0  0
   36.5240   32.6380   50.5320 H   0  0  0  0  0  0  0  0  0  0  0  0
   38.4900   34.1400   50.0540 H   0  0  0  0  0  0  0  0  0  0  0  0
   39.5100   31.8820   46.6610 H   0  0  0  0  0  0  0  0  0  0  0  0
   34.4720   28.9220   46.0510 O   0  0  0  0  0  0  0  0  0  0  0  0
   33.8260   29.2950   45.4310 H   0  0  0  0  0  0  0  0  0  0  0  0
   31.5790   29.1420   46.9770 O   0  0  0  0  0  0  0  0  0  0  0  0
   31.2450   30.1180   44.3210 H   0  0  0  0  0  0  0  0  0  0  0  0
   30.7370   29.2760   44.6520 N   0  0  0  0  0  0  0  0  0  0  0  0
   30.8270   28.7380   45.8810 C   0  0  0  0  0  0  0  0  0  0  0  0
   30.0020   27.6710   45.8490 N   0  0  0  0  0  0  0  0  0  0  0  0
   29.4170   27.5460   44.6410 C   0  0  0  0  0  0  0  0  0  0  0  0
   28.5170   26.6530   44.1010 C   0  0  0  0  0  0  0  0  0  0  0  0
   28.0800   26.7570   42.8260 N   0  0  0  0  0  0  0  0  0  0  0  0
   28.5610   27.7850   42.0840 C   0  0  0  0  0  0  0  0  0  0  0  0
   28.3370   28.0410   41.0540 H   0  0  0  0  0  0  0  0  0  0  0  0
   29.4420   28.6690   42.5990 N   0  0  0  0  0  0  0  0  0  0  0  0
   29.8960   28.5900   43.8640 C   0  0  0  0  0  0  0  0  0  0  0  0
   28.0330   25.5840   44.9080 N   0  0  0  0  0  0  0  0  0  0  0  0
   28.1920   24.5490   44.7420 H   0  0  0  0  0  0  0  0  0  0  0  0
   27.4810   25.8980   45.7170 H   0  0  0  0  0  0  0  0  0  0  0  0
  1  5  1  0  0  0  0
  1  6  1  1  0  0  0
  1  2  1  0  0  0  0
  2  7  1  6  0  0  0
  2 12  1  0  0  0  0
  2  3  1  0  0  0  0
  4  8  1  0  0  0  0
  4  3  1  0  0  0  0
  4  9  1  0  0  0  0
  5 10  1  6  0  0  0
  5  4  1  0  0  0  0
 11 14  1  6  0  0  0
 11 13  1  0  0  0  0
 12 15  1  6  0  0  0
 12 11  1  0  0  0  0
 12 13  1  0  0  0  0
 13 17  1  0  0  0  0
 13 16  1  0  0  0  0
 18 11  1  0  0  0  0
 18 19  1  0  0  0  0
 19 24  1  0  0  0  0
 20 19  2  0  0  0  0
 20 25  1  0  0  0  0
 21 20  1  0  0  0  0
 22 23  1  0  0  0  0
 22 21  2  0  0  0  0
 23 18  2  0  0  0  0
 26 22  1  0  0  0  0
 27  1  1  0  0  0  0
 28 27  1  0  0  0  0
 29  5  1  0  0  0  0
 30 31  1  0  0  0  0
 31 32  1  0  0  0  0
 32 29  1  0  0  0  0
 33 32  2  0  0  0  0
 34 33  1  0  0  0  0
 35 34  1  0  0  0  0
 35 41  1  0  0  0  0
 36 35  2  0  0  0  0
 37 39  2  0  0  0  0
 37 36  1  0  0  0  0
 38 37  1  0  0  0  0
 39 40  1  0  0  0  0
 40 34  2  0  0  0  0
 40 31  1  0  0  0  0
 41 43  1  0  0  0  0
 42 41  1  0  0  0  0
M  END
>  <minimizedAffinity>
-5.04599476

>  <minimizedRMSD>
0.23634842

$$$$
