
 OpenBabel03272505093D

 34 37  0  0  0  0  0  0  0  0999 V2000
   36.0520   30.8600   46.2690 Cl  0  0  0  0  0  0  0  0  0  0  0  0
   36.5840   30.7500   47.9250 C   0  0  0  0  0  0  0  0  0  0  0  0
   37.9200   31.0000   48.1610 C   0  0  0  0  0  0  0  0  0  0  0  0
   38.3550   30.9160   49.4740 C   0  0  0  0  0  0  0  0  0  0  0  0
   37.4790   30.5960   50.4750 C   0  0  0  0  0  0  0  0  0  0  0  0
   36.1550   30.3580   50.1620 C   0  0  0  0  0  0  0  0  0  0  0  0
   35.6440   30.4220   48.8870 C   0  0  0  0  0  0  0  0  0  0  0  0
   39.4040   31.1120   49.6590 H   0  0  0  0  0  0  0  0  0  0  0  0
   37.8380   30.5340   51.5010 H   0  0  0  0  0  0  0  0  0  0  0  0
   35.4760   30.1060   50.9760 H   0  0  0  0  0  0  0  0  0  0  0  0
   40.0720   33.0070   46.0140 C   0  0  0  0  0  0  0  0  0  0  0  0
   40.5210   32.0870   45.0310 C   0  0  0  0  0  0  0  0  0  0  0  0
   40.0700   30.7790   45.1260 C   0  0  0  0  0  0  0  0  0  0  0  0
   39.2290   30.4600   46.1520 N   0  0  0  0  0  0  0  0  0  0  0  0
   38.8260   31.3400   47.0550 C   0  0  0  0  0  0  0  0  0  0  0  0
   39.2510   32.6160   46.9850 N   0  0  0  0  0  0  0  0  0  0  0  0
   40.4580   34.0110   45.8870 H   0  0  0  0  0  0  0  0  0  0  0  0
   41.1790   32.3150   44.2200 H   0  0  0  0  0  0  0  0  0  0  0  0
   40.3690   30.0410   44.4210 H   0  0  0  0  0  0  0  0  0  0  0  0
   33.9550   30.1220   48.4620 S   0  0  0  0  0  0  0  0  0  0  0  0
   35.4130   27.3800   48.0980 H   0  0  0  0  0  0  0  0  0  0  0  0
   34.4010   27.3140   47.9450 N   0  0  0  0  0  0  0  0  0  0  0  0
   33.6580   28.4230   48.0700 C   0  0  0  0  0  0  0  0  0  0  0  0
   32.3690   28.0690   47.8190 N   0  0  0  0  0  0  0  0  0  0  0  0
   32.3630   26.7350   47.5420 C   0  0  0  0  0  0  0  0  0  0  0  0
   31.3830   25.8070   47.2160 C   0  0  0  0  0  0  0  0  0  0  0  0
   31.6880   24.5150   46.9920 N   0  0  0  0  0  0  0  0  0  0  0  0
   32.9520   24.0690   47.0750 C   0  0  0  0  0  0  0  0  0  0  0  0
   33.1130   23.0300   46.8830 H   0  0  0  0  0  0  0  0  0  0  0  0
   33.9350   24.9580   47.3950 N   0  0  0  0  0  0  0  0  0  0  0  0
   33.6420   26.2510   47.6200 C   0  0  0  0  0  0  0  0  0  0  0  0
   30.0420   26.3170   47.1360 N   0  0  0  0  0  0  0  0  0  0  0  0
   29.2130   26.3110   47.7910 H   0  0  0  0  0  0  0  0  0  0  0  0
   29.8690   26.7930   46.2150 H   0  0  0  0  0  0  0  0  0  0  0  0
  1  2  1  0  0  0  0
  2  3  2  0  0  0  0
  2  7  1  0  0  0  0
  3  4  1  0  0  0  0
  4  8  1  0  0  0  0
  4  5  2  0  0  0  0
  5  9  1  0  0  0  0
  6  5  1  0  0  0  0
  6 10  1  0  0  0  0
  7  6  2  0  0  0  0
 11 16  1  0  0  0  0
 12 13  1  0  0  0  0
 12 11  2  0  0  0  0
 13 14  2  0  0  0  0
 14 15  1  0  0  0  0
 15  3  1  0  0  0  0
 16 15  2  0  0  0  0
 17 11  1  0  0  0  0
 18 12  1  0  0  0  0
 19 13  1  0  0  0  0
 20  7  1  0  0  0  0
 22 23  1  0  0  0  0
 22 21  1  0  0  0  0
 23 20  1  0  0  0  0
 24 23  2  0  0  0  0
 25 31  1  0  0  0  0
 25 24  1  0  0  0  0
 26 25  2  0  0  0  0
 27 28  2  0  0  0  0
 27 26  1  0  0  0  0
 28 30  1  0  0  0  0
 29 28  1  0  0  0  0
 30 31  2  0  0  0  0
 31 22  1  0  0  0  0
 32 26  1  0  0  0  0
 32 33  1  0  0  0  0
 34 32  1  0  0  0  0
M  END
>  <minimizedAffinity>
-5.48193789

>  <minimizedRMSD>
1.16473591

$$$$
