
 OpenBabel03272506413D

 24 26  0  0  0  0  0  0  0  0999 V2000
   31.3710   25.3430   43.3180 H   0  0  0  0  0  0  0  0  0  0  0  0
   31.7060   25.8420   44.1500 N   0  0  0  0  0  0  0  0  0  0  0  0
   31.3670   27.1400   44.2940 C   0  0  0  0  0  0  0  0  0  0  0  0
   31.8980   27.5900   45.4260 N   0  0  0  0  0  0  0  0  0  0  0  0
   32.5770   26.5800   46.0090 C   0  0  0  0  0  0  0  0  0  0  0  0
   33.3150   26.4250   47.1560 C   0  0  0  0  0  0  0  0  0  0  0  0
   33.8700   25.2380   47.4340 N   0  0  0  0  0  0  0  0  0  0  0  0
   33.7410   24.1730   46.6360 C   0  0  0  0  0  0  0  0  0  0  0  0
   34.2270   23.2610   46.9500 H   0  0  0  0  0  0  0  0  0  0  0  0
   33.0160   24.2850   45.4870 N   0  0  0  0  0  0  0  0  0  0  0  0
   32.4560   25.4720   45.1990 C   0  0  0  0  0  0  0  0  0  0  0  0
   33.4350   27.5820   47.9880 N   0  0  0  0  0  0  0  0  0  0  0  0
   33.9000   28.3730   47.4590 H   0  0  0  0  0  0  0  0  0  0  0  0
   33.1900   27.8500   48.9650 H   0  0  0  0  0  0  0  0  0  0  0  0
   30.4100   28.3180   43.3390 S   0  0  0  0  0  0  0  0  0  0  0  0
   30.3290   32.0910   44.5290 C   0  0  0  0  0  0  0  0  0  0  0  0
   31.6090   32.5760   44.2550 C   0  0  0  0  0  0  0  0  0  0  0  0
   32.5510   31.7100   43.6760 C   0  0  0  0  0  0  0  0  0  0  0  0
   32.1540   30.4320   43.4130 N   0  0  0  0  0  0  0  0  0  0  0  0
   30.9200   29.9960   43.6870 C   0  0  0  0  0  0  0  0  0  0  0  0
   29.9960   30.8160   44.2450 N   0  0  0  0  0  0  0  0  0  0  0  0
   29.6020   32.7540   44.9740 H   0  0  0  0  0  0  0  0  0  0  0  0
   31.8970   33.6150   44.4810 H   0  0  0  0  0  0  0  0  0  0  0  0
   33.5600   32.0340   43.4420 H   0  0  0  0  0  0  0  0  0  0  0  0
  1  2  1  0  0  0  0
  2  3  1  0  0  0  0
  2 11  1  0  0  0  0
  3  4  2  0  0  0  0
  4  5  1  0  0  0  0
  5  6  1  0  0  0  0
  6  7  2  0  0  0  0
  6 12  1  0  0  0  0
  8  9  1  0  0  0  0
  8  7  1  0  0  0  0
 10  8  2  0  0  0  0
 11 10  1  0  0  0  0
 11  5  2  0  0  0  0
 12 14  1  0  0  0  0
 13 12  1  0  0  0  0
 15 20  1  0  0  0  0
 15  3  1  0  0  0  0
 16 22  1  0  0  0  0
 17 23  1  0  0  0  0
 17 16  1  0  0  0  0
 18 17  2  0  0  0  0
 19 18  1  0  0  0  0
 19 20  2  0  0  0  0
 20 21  1  0  0  0  0
 21 16  2  0  0  0  0
 24 18  1  0  0  0  0
M  END
>  <minimizedAffinity>
-1.66814756

>  <minimizedRMSD>
6.72384214

$$$$
