REMARK  Name = 
REMARK  4 active torsions:
REMARK  status: ('A' for Active; 'I' for Inactive)
REMARK    1  A    between atoms: C_1  and  C_7
REMARK    2  A    between atoms: C_8  and  O_10
REMARK    3  A    between atoms: O_10  and  C_20
REMARK    4  A    between atoms: C_23  and  N_24
REMARK                            x       y       z     vdW  Elec       q    Type
REMARK                         _______ _______ _______ _____ _____    ______ ____
ROOT
ATOM      1  C   UNL     1      36.639  31.037  50.494  0.00  0.00    +0.000 C 
ATOM      2  C   UNL     1      36.137  29.692  50.663  0.00  0.00    +0.000 C 
ATOM      3  C   UNL     1      37.346  30.097  51.479  0.00  0.00    +0.000 C 
ATOM      4  H   UNL     1      36.185  31.928  50.992  0.00  0.00    +0.000 HD
ATOM      5  H   UNL     1      35.158  29.566  51.155  0.00  0.00    +0.000 HD
ATOM      6  H   UNL     1      37.107  30.235  52.544  0.00  0.00    +0.000 HD
ATOM      7  H   UNL     1      38.316  29.677  51.207  0.00  0.00    +0.000 HD
ENDROOT
BRANCH   1   8
ATOM      8  C   UNL     1      37.521  31.404  49.328  0.00  0.00    +0.000 A 
ATOM      9  C   UNL     1      38.151  32.646  49.405  0.00  0.00    +0.000 A 
ATOM     10  C   UNL     1      38.947  32.983  48.301  0.00  0.00    +0.000 A 
ATOM     11  N   UNL     1      39.063  32.118  47.248  0.00  0.00    +0.000 NA
ATOM     12  C   UNL     1      38.431  30.921  47.220  0.00  0.00    +0.000 A 
ATOM     13  N   UNL     1      37.645  30.553  48.276  0.00  0.00    +0.000 NA
ATOM     14  H   UNL     1      38.017  33.283  50.268  0.00  0.00    +0.000 HD
ATOM     15  H   UNL     1      39.459  33.933  48.306  0.00  0.00    +0.000 HD
ATOM     16  H   UNL     1      38.525  30.240  46.386  0.00  0.00    +0.000 HD
ENDBRANCH   1   8
BRANCH   2  17
ATOM     17  O   UNL     1      36.397  28.737  49.666  0.00  0.00    +0.000 OA
BRANCH  17  20
ATOM     18  H   UNL     1      36.101  25.962  50.234  0.00  0.00    +0.000 HD
ATOM     19  N   UNL     1      35.352  26.458  49.703  0.00  0.00    +0.000 N 
ATOM     20  C   UNL     1      35.437  27.767  49.406  0.00  0.00    +0.000 A 
ATOM     21  N   UNL     1      34.306  28.039  48.731  0.00  0.00    +0.000 NA
ATOM     22  C   UNL     1      33.531  26.954  48.600  0.00  0.00    +0.000 A 
ATOM     23  C   UNL     1      32.319  26.604  48.043  0.00  0.00    +0.000 A 
ATOM     24  N   UNL     1      31.829  25.361  48.106  0.00  0.00    +0.000 NA
ATOM     25  C   UNL     1      32.516  24.377  48.731  0.00  0.00    +0.000 A 
ATOM     26  H   UNL     1      32.052  23.406  48.737  0.00  0.00    +0.000 HD
ATOM     27  N   UNL     1      33.704  24.688  49.285  0.00  0.00    +0.000 NA
ATOM     28  C   UNL     1      34.223  25.923  49.240  0.00  0.00    +0.000 A 
BRANCH  23  29
ATOM     29  N   UNL     1      31.591  27.613  47.390  0.00  0.00    +0.000 N 
ATOM     30  H   UNL     1      31.027  28.377  47.850  0.00  0.00    +0.000 HD
ATOM     31  H   UNL     1      31.312  28.010  46.471  0.00  0.00    +0.000 HD
ENDBRANCH  23  29
ENDBRANCH  17  20
ENDBRANCH   2  17
TORSDOF 4
