
     RDKit          3D

 29 31  0  0  0  0  0  0  0  0999 V2000
   37.3501   30.1512   51.3593 C   0  0  0  0  0  0  0  0  0  0  0  0
   37.9978   30.5055   50.1747 C   0  0  0  0  0  0  0  0  0  0  0  0
   37.4131   30.1486   48.9577 C   0  0  0  0  0  0  0  0  0  0  0  0
   36.2370   29.4709   48.9916 N   0  0  0  0  0  0  0  0  0  0  0  0
   35.6329   29.1415   50.1570 C   0  0  0  0  0  0  0  0  0  0  0  0
   36.1867   29.4798   51.3259 N   0  0  0  0  0  0  0  0  0  0  0  0
   37.8598   30.3856   47.6951 O   0  0  0  0  0  0  0  0  0  0  0  0
   39.0607   32.7351   48.1397 O   0  0  0  0  0  0  0  0  0  0  0  0
   38.6920   31.7199   47.0941 P   0  0  2  0  0  0  0  0  0  0  0  0
   37.8298   32.4557   45.8372 O   0  0  0  0  0  0  0  0  0  0  0  0
   40.1601   31.1782   46.4207 O   0  0  0  0  0  0  0  0  0  0  0  0
   37.9113   30.4888   52.2155 H   0  0  0  0  0  0  0  0  0  0  0  0
   38.9145   31.0326   50.0782 H   0  0  0  0  0  0  0  0  0  0  0  0
   34.6934   28.5997   50.1578 H   0  0  0  0  0  0  0  0  0  0  0  0
   36.9329   32.7572   46.1163 H   0  0  0  0  0  0  0  0  0  0  0  0
   41.9960   30.8953   44.4226 H   0  0  0  0  0  0  0  0  0  0  0  0
   41.1903   30.2383   44.5635 N   0  0  0  0  0  0  0  0  0  0  0  0
   40.1708   30.1643   45.4552 C   0  0  0  0  0  0  0  0  0  0  0  0
   39.4219   29.0901   45.1495 N   0  0  0  0  0  0  0  0  0  0  0  0
   39.9634   28.4904   44.0738 C   0  0  0  0  0  0  0  0  0  0  0  0
   39.5338   27.3611   43.4148 C   0  0  0  0  0  0  0  0  0  0  0  0
   38.3787   26.6311   43.8165 N   0  0  0  0  0  0  0  0  0  0  0  0
   37.5735   26.9182   43.1861 H   0  0  0  0  0  0  0  0  0  0  0  0
   40.2409   26.9397   42.3508 N   0  0  0  0  0  0  0  0  0  0  0  0
   41.3387   27.6551   41.9895 C   0  0  0  0  0  0  0  0  0  0  0  0
   41.9677   27.3809   41.1379 H   0  0  0  0  0  0  0  0  0  0  0  0
   41.7627   28.7561   42.6272 N   0  0  0  0  0  0  0  0  0  0  0  0
   41.0801   29.2033   43.6921 C   0  0  0  0  0  0  0  0  0  0  0  0
   38.1504   25.9127   44.5525 H   0  0  0  0  0  0  0  0  0  0  0  0
  2  1  2  0
  3  4  2  0
  3  2  1  0
  4  5  1  0
  5  6  2  0
  6  1  1  0
  7  3  1  0
  9  7  1  1
  9  8  2  0
 10  9  1  0
 11  9  1  0
  1 12  1  0
  2 13  1  0
  5 14  1  0
 10 15  1  0
 16 17  1  0
 17 18  1  0
 18 19  2  0
 19 20  1  0
 20 21  2  0
 21 22  1  0
 22 23  1  0
 21 24  1  0
 24 25  2  0
 25 26  1  0
 25 27  1  0
 27 28  2  0
 28 17  1  0
 28 20  1  0
 22 29  1  0
 11 18  1  0
M  ISO  7  12  14  13  14  14  14  15   3  16   9  23   5  26  16
M  END
>  <DihAtoms>  (1) 
8,10,17,16

>  <DihDeg>  (1) 
-179.99987613506516

$$$$
