
 OpenBabel03262521523D

 28 30  0  0  0  0  0  0  0  0999 V2000
   34.6790   28.2980   48.9770 S   0  0  0  0  0  0  0  0  0  0  0  0
   31.9400   28.9710   50.3310 H   0  0  0  0  0  0  0  0  0  0  0  0
   31.8070   28.3490   49.5120 N   0  0  0  0  0  0  0  0  0  0  0  0
   32.9280   27.9980   48.8570 C   0  0  0  0  0  0  0  0  0  0  0  0
   32.5660   27.1920   47.8270 N   0  0  0  0  0  0  0  0  0  0  0  0
   31.2320   27.0170   47.8050 C   0  0  0  0  0  0  0  0  0  0  0  0
   30.3130   26.3390   47.0400 C   0  0  0  0  0  0  0  0  0  0  0  0
   28.9970   26.4220   47.3670 N   0  0  0  0  0  0  0  0  0  0  0  0
   28.5960   27.1640   48.4340 C   0  0  0  0  0  0  0  0  0  0  0  0
   27.5150   27.1790   48.6300 H   0  0  0  0  0  0  0  0  0  0  0  0
   29.4960   27.8410   49.2030 N   0  0  0  0  0  0  0  0  0  0  0  0
   30.8010   27.7610   48.8810 C   0  0  0  0  0  0  0  0  0  0  0  0
   30.7930   25.5780   45.9350 N   0  0  0  0  0  0  0  0  0  0  0  0
   30.6350   24.5680   46.1300 H   0  0  0  0  0  0  0  0  0  0  0  0
   31.2360   25.9180   45.0530 H   0  0  0  0  0  0  0  0  0  0  0  0
   35.0730   29.3190   50.4400 C   0  0  0  0  0  0  0  0  0  0  0  0
   34.5780   30.3110   50.3010 H   0  0  0  0  0  0  0  0  0  0  0  0
   34.5790   28.8690   51.3310 H   0  0  0  0  0  0  0  0  0  0  0  0
   36.8450   29.4940   50.7050 S   0  0  0  0  0  0  0  0  0  0  0  0
   37.4900   30.6220   49.4950 C   0  0  0  0  0  0  0  0  0  0  0  0
   37.6150   31.9400   49.9180 C   0  0  0  0  0  0  0  0  0  0  0  0
   38.1180   32.8770   49.0040 C   0  0  0  0  0  0  0  0  0  0  0  0
   38.4640   32.4680   47.7470 N   0  0  0  0  0  0  0  0  0  0  0  0
   38.3140   31.1640   47.4020 C   0  0  0  0  0  0  0  0  0  0  0  0
   37.8430   30.2740   48.2500 N   0  0  0  0  0  0  0  0  0  0  0  0
   37.3490   32.2890   50.9060 H   0  0  0  0  0  0  0  0  0  0  0  0
   38.2340   33.9170   49.2870 H   0  0  0  0  0  0  0  0  0  0  0  0
   38.5930   30.8530   46.3980 H   0  0  0  0  0  0  0  0  0  0  0  0
  1 16  1  0  0  0  0
  3  2  1  0  0  0  0
  4  1  1  0  0  0  0
  4  3  1  0  0  0  0
  5  4  2  0  0  0  0
  6  5  1  0  0  0  0
  6 12  1  0  0  0  0
  7  8  1  0  0  0  0
  7  6  2  0  0  0  0
  8  9  2  0  0  0  0
  9 10  1  0  0  0  0
  9 11  1  0  0  0  0
 12 11  2  0  0  0  0
 12  3  1  0  0  0  0
 13 14  1  0  0  0  0
 13  7  1  0  0  0  0
 15 13  1  0  0  0  0
 16 19  1  0  0  0  0
 16 18  1  0  0  0  0
 17 16  1  0  0  0  0
 20 21  1  0  0  0  0
 20 19  1  0  0  0  0
 21 26  1  0  0  0  0
 22 27  1  0  0  0  0
 22 21  2  0  0  0  0
 23 22  1  0  0  0  0
 24 23  2  0  0  0  0
 24 25  1  0  0  0  0
 25 20  2  0  0  0  0
 28 24  1  0  0  0  0
M  END
>  <minimizedAffinity>
-4.86775112

>  <minimizedRMSD>
1.19966316

$$$$
