
     RDKit          3D

 24 26  0  0  0  0  0  0  0  0999 V2000
   37.2655   30.1792   51.4194 C   0  0  0  0  0  0  0  0  0  0  0  0
   38.1129   30.7558   50.4711 C   0  0  0  0  0  0  0  0  0  0  0  0
   37.8448   30.5477   49.1083 C   0  0  0  0  0  0  0  0  0  0  0  0
   36.7599   29.7859   48.7885 N   0  0  0  0  0  0  0  0  0  0  0  0
   35.9657   29.2462   49.7190 C   0  0  0  0  0  0  0  0  0  0  0  0
   36.2069   29.4348   51.0386 N   0  0  0  0  0  0  0  0  0  0  0  0
   34.5463   28.2494   49.2892 S   0  0  0  0  0  0  0  0  0  0  0  0
   37.4683   30.3369   52.4680 H   0  0  0  0  0  0  0  0  0  0  0  0
   38.9818   31.3665   50.7653 H   0  0  0  0  0  0  0  0  0  0  0  0
   38.4712   30.9727   48.3295 H   0  0  0  0  0  0  0  0  0  0  0  0
   36.1789   26.0045   50.7292 H   0  0  0  0  0  0  0  0  0  0  0  0
   35.7325   25.6570   49.8730 N   0  0  0  0  0  0  0  0  0  0  0  0
   34.9925   26.5176   49.1448 C   0  0  0  0  0  0  0  0  0  0  0  0
   34.5106   25.8697   48.0890 N   0  0  0  0  0  0  0  0  0  0  0  0
   34.9422   24.5916   48.1405 C   0  0  0  0  0  0  0  0  0  0  0  0
   34.7880   23.4713   47.3633 C   0  0  0  0  0  0  0  0  0  0  0  0
   33.9818   23.6230   46.1917 N   0  0  0  0  0  0  0  0  0  0  0  0
   32.9999   23.9213   46.4537 H   0  0  0  0  0  0  0  0  0  0  0  0
   35.3799   22.3245   47.7254 N   0  0  0  0  0  0  0  0  0  0  0  0
   36.1283   22.2127   48.8269 C   0  0  0  0  0  0  0  0  0  0  0  0
   36.5621   21.2448   49.0310 H   0  0  0  0  0  0  0  0  0  0  0  0
   36.3067   23.3025   49.6266 N   0  0  0  0  0  0  0  0  0  0  0  0
   35.7171   24.4575   49.2722 C   0  0  0  0  0  0  0  0  0  0  0  0
   34.1020   23.5192   45.1615 H   0  0  0  0  0  0  0  0  0  0  0  0
  2  1  2  0
  3  2  1  0
  4  3  2  0
  4  5  1  0
  5  6  2  0
  6  1  1  0
  7  5  1  0
  1  8  1  0
  2  9  1  0
  3 10  1  0
 11 12  1  0
 12 13  1  0
 13 14  2  0
 14 15  1  0
 15 16  2  0
 16 17  1  0
 17 18  1  0
 16 19  1  0
 19 20  2  0
 20 21  1  0
 20 22  1  0
 22 23  2  0
 23 12  1  0
 23 15  1  0
 17 24  1  0
  7 13  1  0
M  ISO  6   8  14   9  14  10  14  11   9  18   5  21  16
M  END
>  <DihAtoms>  (1) 
4,6,12,11

>  <DihDeg>  (1) 
-0.001295915944830496

$$$$
