
     RDKit          3D

 50 54  0  0  0  0  0  0  0  0999 V2000
   37.7746   31.7486   47.6595 C   0  0  0  0  0  0  0  0  0  0  0  0
   37.9351   32.5274   48.8069 C   0  0  0  0  0  0  0  0  0  0  0  0
   38.9362   33.4703   48.8880 C   0  0  0  0  0  0  0  0  0  0  0  0
   39.7459   33.5888   47.7894 C   0  0  0  0  0  0  0  0  0  0  0  0
   39.5764   32.8210   46.6763 C   0  0  0  0  0  0  0  0  0  0  0  0
   38.5946   31.8919   46.5889 N   0  0  0  0  0  0  0  0  0  0  0  0
   36.7024   30.7841   47.6543 C   0  0  0  0  0  0  0  0  0  0  0  0
   36.2052   30.3789   46.6031 O   0  0  0  0  0  0  0  0  0  0  0  0
   37.0255   29.6329   49.8155 C   0  0  0  0  0  0  0  0  0  0  0  0
   36.1389   30.2270   48.9011 C   0  0  0  0  0  0  0  0  0  0  0  0
   34.7629   30.2772   49.1869 C   0  0  0  0  0  0  0  0  0  0  0  0
   34.3405   29.7311   50.3725 N   0  0  0  0  0  0  0  0  0  0  0  0
   35.2038   29.1671   51.2348 C   0  0  0  0  0  0  0  0  0  0  0  0
   36.5178   29.1200   50.9601 N   0  0  0  0  0  0  0  0  0  0  0  0
   40.6537   32.9865   45.2290 S   0  0  0  0  0  0  0  0  0  0  0  0
   39.5606   32.9325   43.7863 C   0  0  0  0  0  0  0  0  0  0  0  0
   38.7756   29.7846   42.3431 C   0  0  1  0  0  0  0  0  0  0  0  0
   38.8198   31.2829   42.0808 C   0  0  0  0  0  0  0  0  0  0  0  0
   39.9409   31.7198   42.9755 C   0  0  2  0  0  0  0  0  0  0  0  0
   40.3079   30.6594   43.7462 O   0  0  0  0  0  0  0  0  0  0  0  0
   39.2581   29.7589   43.7829 C   0  0  0  0  0  0  0  0  0  0  0  0
   37.4917   29.2941   42.2159 O   0  0  0  0  0  0  0  0  0  0  0  0
   37.2586   32.3839   49.6442 H   0  0  0  0  0  0  0  0  0  0  0  0
   39.0607   34.0789   49.7862 H   0  0  0  0  0  0  0  0  0  0  0  0
   40.5583   34.3076   47.7716 H   0  0  0  0  0  0  0  0  0  0  0  0
   38.0680   29.6006   49.5878 H   0  0  0  0  0  0  0  0  0  0  0  0
   34.1176   30.7382   48.4652 H   0  0  0  0  0  0  0  0  0  0  0  0
   34.6993   28.7944   52.1043 H   0  0  0  0  0  0  0  0  0  0  0  0
   38.4944   32.9749   44.0327 H   0  0  0  0  0  0  0  0  0  0  0  0
   39.8115   33.8369   43.1811 H   0  0  0  0  0  0  0  0  0  0  0  0
   39.5455   29.2505   41.7368 H   0  0  0  0  0  0  0  0  0  0  0  0
   37.8876   31.7031   42.4700 H   0  0  0  0  0  0  0  0  0  0  0  0
   39.0140   31.4884   41.0095 H   0  0  0  0  0  0  0  0  0  0  0  0
   40.8148   32.0027   42.3363 H   0  0  0  0  0  0  0  0  0  0  0  0
   39.7022   28.7713   44.0563 H   0  0  0  0  0  0  0  0  0  0  0  0
   38.4462   30.0753   44.4632 H   0  0  0  0  0  0  0  0  0  0  0  0
   35.3541   28.7478   40.4156 H   0  0  0  0  0  0  0  0  0  0  0  0
   36.0574   27.9946   40.5765 N   0  0  0  0  0  0  0  0  0  0  0  0
   37.0854   28.2395   41.4341 C   0  0  0  0  0  0  0  0  0  0  0  0
   37.8823   27.1315   41.4988 N   0  0  0  0  0  0  0  0  0  0  0  0
   37.3448   26.1957   40.6770 C   0  0  0  0  0  0  0  0  0  0  0  0
   37.6652   24.8984   40.3090 C   0  0  0  0  0  0  0  0  0  0  0  0
   38.8360   24.3459   40.9014 N   0  0  0  0  0  0  0  0  0  0  0  0
   39.8337   24.2259   40.5596 H   0  0  0  0  0  0  0  0  0  0  0  0
   36.8758   24.2614   39.4430 N   0  0  0  0  0  0  0  0  0  0  0  0
   35.7721   24.8015   38.8934 C   0  0  0  0  0  0  0  0  0  0  0  0
   35.1627   24.2286   38.1872 H   0  0  0  0  0  0  0  0  0  0  0  0
   35.4215   26.0778   39.2298 N   0  0  0  0  0  0  0  0  0  0  0  0
   36.2113   26.7424   40.1090 C   0  0  0  0  0  0  0  0  0  0  0  0
   38.7537   23.9668   41.8689 H   0  0  0  0  0  0  0  0  0  0  0  0
  1  2  2  0
  2  3  1  0
  4  3  2  0
  5  4  1  0
  6  5  2  0
  6  1  1  0
  7  1  1  0
  7 10  1  0
  8  7  2  0
  9 14  2  0
 10 11  2  0
 10  9  1  0
 11 12  1  0
 12 13  2  0
 14 13  1  0
 15  5  1  0
 16 15  1  0
 17 22  1  0
 17 21  1  0
 18 17  1  0
 18 19  1  0
 19 20  1  0
 19 16  1  0
 20 21  1  0
  2 23  1  0
  3 24  1  0
  4 25  1  0
  9 26  1  0
 11 27  1  0
 13 28  1  0
 16 29  1  0
 16 30  1  0
 17 31  1  6
 18 32  1  0
 18 33  1  0
 19 34  1  6
 21 35  1  0
 21 36  1  0
 37 38  1  0
 38 39  1  0
 39 40  2  0
 40 41  1  0
 41 42  2  0
 42 43  1  0
 43 44  1  0
 42 45  1  0
 45 46  2  0
 46 47  1  0
 46 48  1  0
 48 49  2  0
 49 38  1  0
 49 41  1  0
 43 50  1  0
 22 39  1  0
M  ISO  8  23  14  24  14  25  14  26  14  27  14  28  14  29   8  30   8
M  ISO  8  31  13  32  13  33  13  34  13  35  13  36  13  37   9  44   5
M  ISO  1  47  16
M  END
>  <DihAtoms>  (1) 
16,21,38,37

>  <DihDeg>  (1) 
0.00017741159040090217

$$$$
