
 OpenBabel03272507173D

 31 34  0  0  1  0  0  0  0  0999 V2000
   37.2620   22.9140   30.9990 C   0  0  1  0  0  0  0  0  0  0  0  0
   38.4750   23.2090   31.7280 C   0  0  2  0  0  0  0  0  0  0  0  0
   38.6160   22.6760   30.3180 C   0  0  0  0  0  0  0  0  0  0  0  0
   36.6490   23.6950   30.4880 H   0  0  0  0  0  0  0  0  0  0  0  0
   38.7030   24.2660   31.9420 H   0  0  0  0  0  0  0  0  0  0  0  0
   38.9490   23.4480   29.6080 H   0  0  0  0  0  0  0  0  0  0  0  0
   38.9700   21.6520   30.1870 H   0  0  0  0  0  0  0  0  0  0  0  0
   36.5060   21.6290   31.2230 C   0  0  0  0  0  0  0  0  0  0  0  0
   35.4580   21.6880   32.1400 C   0  0  0  0  0  0  0  0  0  0  0  0
   34.7810   20.4790   32.3560 C   0  0  0  0  0  0  0  0  0  0  0  0
   35.1650   19.3490   31.6870 N   0  0  0  0  0  0  0  0  0  0  0  0
   36.1910   19.3420   30.8040 C   0  0  0  0  0  0  0  0  0  0  0  0
   36.8770   20.5000   30.5640 N   0  0  0  0  0  0  0  0  0  0  0  0
   35.2060   22.6150   32.6350 H   0  0  0  0  0  0  0  0  0  0  0  0
   33.9600   20.4650   33.0560 H   0  0  0  0  0  0  0  0  0  0  0  0
   36.4910   18.4470   30.2770 H   0  0  0  0  0  0  0  0  0  0  0  0
   38.8990   22.3240   32.7330 O   0  0  0  0  0  0  0  0  0  0  0  0
   37.2080   24.1090   34.1700 H   0  0  0  0  0  0  0  0  0  0  0  0
   37.9320   23.5650   34.6860 N   0  0  0  0  0  0  0  0  0  0  0  0
   38.7590   22.7070   34.0610 C   0  0  0  0  0  0  0  0  0  0  0  0
   39.5360   22.2060   35.0380 N   0  0  0  0  0  0  0  0  0  0  0  0
   39.2220   22.7180   36.2350 C   0  0  0  0  0  0  0  0  0  0  0  0
   39.6270   22.6130   37.5490 C   0  0  0  0  0  0  0  0  0  0  0  0
   39.0580   23.3120   38.5380 N   0  0  0  0  0  0  0  0  0  0  0  0
   38.0410   24.1680   38.2840 C   0  0  0  0  0  0  0  0  0  0  0  0
   37.6390   24.6900   39.1340 H   0  0  0  0  0  0  0  0  0  0  0  0
   37.6230   24.2920   37.0090 N   0  0  0  0  0  0  0  0  0  0  0  0
   38.1720   23.6070   35.9960 C   0  0  0  0  0  0  0  0  0  0  0  0
   40.6830   21.7300   37.8330 N   0  0  0  0  0  0  0  0  0  0  0  0
   40.6210   20.6770   37.8890 H   0  0  0  0  0  0  0  0  0  0  0  0
   41.6950   21.6470   38.0540 H   0  0  0  0  0  0  0  0  0  0  0  0
  1  4  1  6  0  0  0
  1  8  1  0  0  0  0
  1  2  1  0  0  0  0
  2  5  1  1  0  0  0
  2 17  1  0  0  0  0
  3  1  1  0  0  0  0
  3  2  1  0  0  0  0
  6  3  1  0  0  0  0
  7  3  1  0  0  0  0
  8  9  1  0  0  0  0
  9 10  2  0  0  0  0
  9 14  1  0  0  0  0
 10 15  1  0  0  0  0
 11 10  1  0  0  0  0
 12 11  2  0  0  0  0
 13 12  1  0  0  0  0
 13  8  2  0  0  0  0
 16 12  1  0  0  0  0
 17 20  1  0  0  0  0
 18 19  1  0  0  0  0
 19 28  1  0  0  0  0
 20 19  1  0  0  0  0
 20 21  2  0  0  0  0
 21 22  1  0  0  0  0
 22 23  1  0  0  0  0
 23 29  1  0  0  0  0
 23 24  2  0  0  0  0
 25 24  1  0  0  0  0
 25 26  1  0  0  0  0
 27 25  2  0  0  0  0
 28 22  2  0  0  0  0
 28 27  1  0  0  0  0
 29 30  1  0  0  0  0
 29 31  1  0  0  0  0
M  END
>  <minimizedAffinity>
-5.40693521

$$$$

 OpenBabel03272507173D

 31 34  0  0  1  0  0  0  0  0999 V2000
   36.9730   27.6790   34.1450 C   0  0  1  0  0  0  0  0  0  0  0  0
   37.1250   26.4550   34.9000 C   0  0  2  0  0  0  0  0  0  0  0  0
   38.2160   27.4970   35.0260 C   0  0  0  0  0  0  0  0  0  0  0  0
   36.3250   28.5270   34.4760 H   0  0  0  0  0  0  0  0  0  0  0  0
   36.4320   26.2790   35.7400 H   0  0  0  0  0  0  0  0  0  0  0  0
   38.2020   28.0050   36.0030 H   0  0  0  0  0  0  0  0  0  0  0  0
   39.1780   27.2970   34.5510 H   0  0  0  0  0  0  0  0  0  0  0  0
   37.3220   27.7440   32.6800 C   0  0  0  0  0  0  0  0  0  0  0  0
   36.2750   28.0680   31.8170 C   0  0  0  0  0  0  0  0  0  0  0  0
   36.6100   28.0990   30.4560 C   0  0  0  0  0  0  0  0  0  0  0  0
   37.8890   27.8240   30.0560 N   0  0  0  0  0  0  0  0  0  0  0  0
   38.8720   27.5160   30.9340 C   0  0  0  0  0  0  0  0  0  0  0  0
   38.5890   27.4740   32.2710 N   0  0  0  0  0  0  0  0  0  0  0  0
   35.2850   28.2750   32.1990 H   0  0  0  0  0  0  0  0  0  0  0  0
   35.8390   28.3440   29.7410 H   0  0  0  0  0  0  0  0  0  0  0  0
   39.8820   27.2990   30.6150 H   0  0  0  0  0  0  0  0  0  0  0  0
   37.5110   25.2830   34.2280 O   0  0  0  0  0  0  0  0  0  0  0  0
   39.8400   23.8860   33.3720 H   0  0  0  0  0  0  0  0  0  0  0  0
   39.5360   23.8120   34.3660 N   0  0  0  0  0  0  0  0  0  0  0  0
   38.4450   24.4480   34.8280 C   0  0  0  0  0  0  0  0  0  0  0  0
   38.3800   24.1160   36.1300 N   0  0  0  0  0  0  0  0  0  0  0  0
   39.3830   23.3040   36.4880 C   0  0  0  0  0  0  0  0  0  0  0  0
   39.8420   22.6530   37.6130 C   0  0  0  0  0  0  0  0  0  0  0  0
   40.9360   21.8830   37.6050 N   0  0  0  0  0  0  0  0  0  0  0  0
   41.6510   21.7070   36.4700 C   0  0  0  0  0  0  0  0  0  0  0  0
   42.5160   21.0740   36.5480 H   0  0  0  0  0  0  0  0  0  0  0  0
   41.2270   22.3310   35.3530 N   0  0  0  0  0  0  0  0  0  0  0  0
   40.1350   23.1090   35.3270 C   0  0  0  0  0  0  0  0  0  0  0  0
   39.1130   22.8220   38.8020 N   0  0  0  0  0  0  0  0  0  0  0  0
   39.1250   23.6710   39.4290 H   0  0  0  0  0  0  0  0  0  0  0  0
   38.4340   22.3900   39.4590 H   0  0  0  0  0  0  0  0  0  0  0  0
  1  4  1  1  0  0  0
  1  2  1  0  0  0  0
  1  3  1  0  0  0  0
  2  3  1  0  0  0  0
  2  5  1  1  0  0  0
  3  6  1  0  0  0  0
  7  3  1  0  0  0  0
  8  1  1  0  0  0  0
  9 14  1  0  0  0  0
  9  8  2  0  0  0  0
 10  9  1  0  0  0  0
 11 10  2  0  0  0  0
 11 12  1  0  0  0  0
 12 13  2  0  0  0  0
 13  8  1  0  0  0  0
 15 10  1  0  0  0  0
 16 12  1  0  0  0  0
 17 20  1  0  0  0  0
 17  2  1  0  0  0  0
 18 19  1  0  0  0  0
 19 20  1  0  0  0  0
 19 28  1  0  0  0  0
 20 21  2  0  0  0  0
 21 22  1  0  0  0  0
 22 23  1  0  0  0  0
 23 29  1  0  0  0  0
 24 23  2  0  0  0  0
 25 26  1  0  0  0  0
 25 24  1  0  0  0  0
 27 25  2  0  0  0  0
 28 27  1  0  0  0  0
 28 22  2  0  0  0  0
 29 30  1  0  0  0  0
 29 31  1  0  0  0  0
M  END
>  <minimizedAffinity>
-5.21907663

$$$$

 OpenBabel03272507173D

 31 34  0  0  1  0  0  0  0  0999 V2000
   36.6680   21.8780   31.1980 C   0  0  1  0  0  0  0  0  0  0  0  0
   36.7060   21.1610   32.4520 C   0  0  2  0  0  0  0  0  0  0  0  0
   35.3970   21.1760   31.6920 C   0  0  0  0  0  0  0  0  0  0  0  0
   37.0540   21.4550   30.2380 H   0  0  0  0  0  0  0  0  0  0  0  0
   37.3050   20.2360   32.4990 H   0  0  0  0  0  0  0  0  0  0  0  0
   35.1660   20.2030   31.2340 H   0  0  0  0  0  0  0  0  0  0  0  0
   34.5780   21.7800   32.0870 H   0  0  0  0  0  0  0  0  0  0  0  0
   36.5090   23.3760   31.1550 C   0  0  0  0  0  0  0  0  0  0  0  0
   37.6900   24.1160   31.1250 C   0  0  0  0  0  0  0  0  0  0  0  0
   37.5250   25.5090   31.1120 C   0  0  0  0  0  0  0  0  0  0  0  0
   36.2690   26.0510   31.1280 N   0  0  0  0  0  0  0  0  0  0  0  0
   35.1500   25.2890   31.1560 C   0  0  0  0  0  0  0  0  0  0  0  0
   35.2670   23.9280   31.1700 N   0  0  0  0  0  0  0  0  0  0  0  0
   38.6530   23.6240   31.1130 H   0  0  0  0  0  0  0  0  0  0  0  0
   38.4050   26.1320   31.0880 H   0  0  0  0  0  0  0  0  0  0  0  0
   34.1600   25.7220   31.1690 H   0  0  0  0  0  0  0  0  0  0  0  0
   36.6930   21.8890   33.6540 O   0  0  0  0  0  0  0  0  0  0  0  0
   39.4620   21.8580   32.9880 H   0  0  0  0  0  0  0  0  0  0  0  0
   39.1760   22.0190   33.9780 N   0  0  0  0  0  0  0  0  0  0  0  0
   37.8840   22.0450   34.3520 C   0  0  0  0  0  0  0  0  0  0  0  0
   37.9150   22.2730   35.6770 N   0  0  0  0  0  0  0  0  0  0  0  0
   39.1690   22.3900   36.1330 C   0  0  0  0  0  0  0  0  0  0  0  0
   39.8240   22.6140   37.3250 C   0  0  0  0  0  0  0  0  0  0  0  0
   41.1580   22.6700   37.4150 N   0  0  0  0  0  0  0  0  0  0  0  0
   41.9340   22.5050   36.3200 C   0  0  0  0  0  0  0  0  0  0  0  0
   42.9960   22.5650   36.4780 H   0  0  0  0  0  0  0  0  0  0  0  0
   41.3220   22.2840   35.1390 N   0  0  0  0  0  0  0  0  0  0  0  0
   39.9890   22.2220   35.0140 C   0  0  0  0  0  0  0  0  0  0  0  0
   39.0360   22.7870   38.4750 N   0  0  0  0  0  0  0  0  0  0  0  0
   38.4970   23.6560   38.7410 H   0  0  0  0  0  0  0  0  0  0  0  0
   38.6840   22.3460   39.3470 H   0  0  0  0  0  0  0  0  0  0  0  0
  1  4  1  6  0  0  0
  1  3  1  0  0  0  0
  1  2  1  0  0  0  0
  2  5  1  1  0  0  0
  2 17  1  0  0  0  0
  3  7  1  0  0  0  0
  3  2  1  0  0  0  0
  6  3  1  0  0  0  0
  8 13  1  0  0  0  0
  8  1  1  0  0  0  0
  9  8  2  0  0  0  0
 10  9  1  0  0  0  0
 10 11  2  0  0  0  0
 11 12  1  0  0  0  0
 12 16  1  0  0  0  0
 12 13  2  0  0  0  0
 14  9  1  0  0  0  0
 15 10  1  0  0  0  0
 17 20  1  0  0  0  0
 18 19  1  0  0  0  0
 19 20  1  0  0  0  0
 19 28  1  0  0  0  0
 20 21  2  0  0  0  0
 21 22  1  0  0  0  0
 22 23  1  0  0  0  0
 23 24  2  0  0  0  0
 23 29  1  0  0  0  0
 25 26  1  0  0  0  0
 25 24  1  0  0  0  0
 27 25  2  0  0  0  0
 28 27  1  0  0  0  0
 28 22  2  0  0  0  0
 29 30  1  0  0  0  0
 29 31  1  0  0  0  0
M  END
>  <minimizedAffinity>
-5.20011806

$$$$

 OpenBabel03272507173D

 31 34  0  0  1  0  0  0  0  0999 V2000
   37.8060   22.1710   34.6900 C   0  0  1  0  0  0  0  0  0  0  0  0
   37.9830   23.0400   33.5480 C   0  0  2  0  0  0  0  0  0  0  0  0
   38.8920   21.8340   33.6600 C   0  0  0  0  0  0  0  0  0  0  0  0
   37.0070   21.3930   34.7510 H   0  0  0  0  0  0  0  0  0  0  0  0
   37.1840   23.0580   32.7880 H   0  0  0  0  0  0  0  0  0  0  0  0
   38.6440   21.0520   32.9260 H   0  0  0  0  0  0  0  0  0  0  0  0
   39.9390   22.0000   33.9200 H   0  0  0  0  0  0  0  0  0  0  0  0
   38.3900   22.5170   36.0360 C   0  0  0  0  0  0  0  0  0  0  0  0
   37.5470   23.2050   36.9090 C   0  0  0  0  0  0  0  0  0  0  0  0
   38.1140   23.5420   38.1470 C   0  0  0  0  0  0  0  0  0  0  0  0
   39.4070   23.1960   38.4270 N   0  0  0  0  0  0  0  0  0  0  0  0
   40.1860   22.5260   37.5460 C   0  0  0  0  0  0  0  0  0  0  0  0
   39.6730   22.1780   36.3270 N   0  0  0  0  0  0  0  0  0  0  0  0
   36.5330   23.4490   36.6250 H   0  0  0  0  0  0  0  0  0  0  0  0
   37.5080   24.0760   38.8620 H   0  0  0  0  0  0  0  0  0  0  0  0
   41.2070   22.2540   37.7710 H   0  0  0  0  0  0  0  0  0  0  0  0
   38.6260   24.2760   33.7250 O   0  0  0  0  0  0  0  0  0  0  0  0
   37.5030   26.3470   35.3260 H   0  0  0  0  0  0  0  0  0  0  0  0
   37.3990   26.3890   34.2900 N   0  0  0  0  0  0  0  0  0  0  0  0
   37.9080   25.4410   33.4830 C   0  0  0  0  0  0  0  0  0  0  0  0
   37.5780   25.8350   32.2400 N   0  0  0  0  0  0  0  0  0  0  0  0
   36.8900   26.9830   32.2470 C   0  0  0  0  0  0  0  0  0  0  0  0
   36.3030   27.8500   31.3500 C   0  0  0  0  0  0  0  0  0  0  0  0
   35.6650   28.9620   31.7320 N   0  0  0  0  0  0  0  0  0  0  0  0
   35.5660   29.2880   33.0410 C   0  0  0  0  0  0  0  0  0  0  0  0
   35.0380   30.1980   33.2630 H   0  0  0  0  0  0  0  0  0  0  0  0
   36.1310   28.4620   33.9430 N   0  0  0  0  0  0  0  0  0  0  0  0
   36.7770   27.3400   33.5940 C   0  0  0  0  0  0  0  0  0  0  0  0
   36.3930   27.5270   29.9850 N   0  0  0  0  0  0  0  0  0  0  0  0
   37.2410   27.6450   29.3680 H   0  0  0  0  0  0  0  0  0  0  0  0
   35.8890   27.1480   29.1590 H   0  0  0  0  0  0  0  0  0  0  0  0
  1  4  1  6  0  0  0
  1  8  1  0  0  0  0
  2  5  1  6  0  0  0
  2  3  1  0  0  0  0
  2 17  1  0  0  0  0
  2  1  1  0  0  0  0
  3  7  1  0  0  0  0
  3  1  1  0  0  0  0
  6  3  1  0  0  0  0
  8 13  2  0  0  0  0
  8  9  1  0  0  0  0
  9 10  2  0  0  0  0
 10 11  1  0  0  0  0
 10 15  1  0  0  0  0
 12 16  1  0  0  0  0
 12 11  2  0  0  0  0
 13 12  1  0  0  0  0
 14  9  1  0  0  0  0
 19 18  1  0  0  0  0
 20 17  1  0  0  0  0
 20 19  1  0  0  0  0
 21 22  1  0  0  0  0
 21 20  2  0  0  0  0
 22 28  1  0  0  0  0
 23 24  1  0  0  0  0
 23 22  2  0  0  0  0
 24 25  2  0  0  0  0
 25 26  1  0  0  0  0
 25 27  1  0  0  0  0
 28 27  2  0  0  0  0
 28 19  1  0  0  0  0
 29 23  1  0  0  0  0
 30 29  1  0  0  0  0
 31 29  1  0  0  0  0
M  END
>  <minimizedAffinity>
-5.19697237

$$$$

 OpenBabel03272507173D

 31 34  0  0  1  0  0  0  0  0999 V2000
   36.5490   27.1830   32.4710 C   0  0  1  0  0  0  0  0  0  0  0  0
   35.8050   28.4000   32.2370 C   0  0  2  0  0  0  0  0  0  0  0  0
   36.9310   28.0710   31.2800 C   0  0  0  0  0  0  0  0  0  0  0  0
   36.1840   26.1730   32.1620 H   0  0  0  0  0  0  0  0  0  0  0  0
   34.7570   28.3080   31.9060 H   0  0  0  0  0  0  0  0  0  0  0  0
   36.5640   27.7510   30.2940 H   0  0  0  0  0  0  0  0  0  0  0  0
   37.8450   28.6660   31.3350 H   0  0  0  0  0  0  0  0  0  0  0  0
   37.6430   27.1190   33.5060 C   0  0  0  0  0  0  0  0  0  0  0  0
   37.2280   27.1440   34.8370 C   0  0  0  0  0  0  0  0  0  0  0  0
   38.2590   27.1100   35.7860 C   0  0  0  0  0  0  0  0  0  0  0  0
   39.5640   27.0570   35.3810 N   0  0  0  0  0  0  0  0  0  0  0  0
   39.9180   27.0330   34.0750 C   0  0  0  0  0  0  0  0  0  0  0  0
   38.9440   27.0650   33.1160 N   0  0  0  0  0  0  0  0  0  0  0  0
   36.1780   27.1870   35.0900 H   0  0  0  0  0  0  0  0  0  0  0  0
   37.9970   27.1270   36.8330 H   0  0  0  0  0  0  0  0  0  0  0  0
   40.9500   26.9910   33.7580 H   0  0  0  0  0  0  0  0  0  0  0  0
   36.0430   29.5130   33.0600 O   0  0  0  0  0  0  0  0  0  0  0  0
   33.2460   29.0530   33.3260 H   0  0  0  0  0  0  0  0  0  0  0  0
   33.7320   29.6560   34.0230 N   0  0  0  0  0  0  0  0  0  0  0  0
   35.0510   29.9090   33.9480 C   0  0  0  0  0  0  0  0  0  0  0  0
   35.3070   30.7090   35.0000 N   0  0  0  0  0  0  0  0  0  0  0  0
   34.2030   30.9570   35.7160 C   0  0  0  0  0  0  0  0  0  0  0  0
   33.8310   31.6630   36.8410 C   0  0  0  0  0  0  0  0  0  0  0  0
   32.5720   31.6890   37.2920 N   0  0  0  0  0  0  0  0  0  0  0  0
   31.5920   31.0110   36.6510 C   0  0  0  0  0  0  0  0  0  0  0  0
   30.6080   31.0840   37.0790 H   0  0  0  0  0  0  0  0  0  0  0  0
   31.9250   30.3110   35.5490 N   0  0  0  0  0  0  0  0  0  0  0  0
   33.1760   30.2650   35.0700 C   0  0  0  0  0  0  0  0  0  0  0  0
   34.8340   32.3740   37.5200 N   0  0  0  0  0  0  0  0  0  0  0  0
   35.5680   31.9660   38.1610 H   0  0  0  0  0  0  0  0  0  0  0  0
   35.2480   33.3100   37.7010 H   0  0  0  0  0  0  0  0  0  0  0  0
  1  4  1  6  0  0  0
  1  8  1  0  0  0  0
  2  5  1  6  0  0  0
  2  1  1  0  0  0  0
  2 17  1  0  0  0  0
  3  7  1  0  0  0  0
  3  2  1  0  0  0  0
  3  1  1  0  0  0  0
  6  3  1  0  0  0  0
  8  9  1  0  0  0  0
  9 14  1  0  0  0  0
  9 10  2  0  0  0  0
 10 15  1  0  0  0  0
 11 10  1  0  0  0  0
 12 11  2  0  0  0  0
 13  8  2  0  0  0  0
 13 12  1  0  0  0  0
 16 12  1  0  0  0  0
 17 20  1  0  0  0  0
 18 19  1  0  0  0  0
 19 28  1  0  0  0  0
 20 19  1  0  0  0  0
 20 21  2  0  0  0  0
 21 22  1  0  0  0  0
 22 23  1  0  0  0  0
 23 24  2  0  0  0  0
 23 29  1  0  0  0  0
 25 26  1  0  0  0  0
 25 24  1  0  0  0  0
 27 25  2  0  0  0  0
 28 27  1  0  0  0  0
 28 22  2  0  0  0  0
 29 31  1  0  0  0  0
 29 30  1  0  0  0  0
M  END
>  <minimizedAffinity>
-5.09832573

$$$$

 OpenBabel03272507173D

 31 34  0  0  1  0  0  0  0  0999 V2000
   37.2150   26.2860   31.8550 C   0  0  1  0  0  0  0  0  0  0  0  0
   37.7430   25.1300   32.5430 C   0  0  2  0  0  0  0  0  0  0  0  0
   36.4110   24.9800   31.8410 C   0  0  0  0  0  0  0  0  0  0  0  0
   37.5510   26.6020   30.8380 H   0  0  0  0  0  0  0  0  0  0  0  0
   38.6430   24.6490   32.1250 H   0  0  0  0  0  0  0  0  0  0  0  0
   36.4830   24.3710   30.9280 H   0  0  0  0  0  0  0  0  0  0  0  0
   35.5100   24.9050   32.4530 H   0  0  0  0  0  0  0  0  0  0  0  0
   36.5000   27.3840   32.6020 C   0  0  0  0  0  0  0  0  0  0  0  0
   35.4800   28.0330   31.9060 C   0  0  0  0  0  0  0  0  0  0  0  0
   34.8430   29.0680   32.6050 C   0  0  0  0  0  0  0  0  0  0  0  0
   35.2330   29.3790   33.8780 N   0  0  0  0  0  0  0  0  0  0  0  0
   36.2300   28.7180   34.5130 C   0  0  0  0  0  0  0  0  0  0  0  0
   36.8780   27.7020   33.8670 N   0  0  0  0  0  0  0  0  0  0  0  0
   35.2210   27.7370   30.8990 H   0  0  0  0  0  0  0  0  0  0  0  0
   34.0450   29.6050   32.1150 H   0  0  0  0  0  0  0  0  0  0  0  0
   36.5360   28.9670   35.5190 H   0  0  0  0  0  0  0  0  0  0  0  0
   37.6740   25.0810   33.9460 O   0  0  0  0  0  0  0  0  0  0  0  0
   39.9670   23.5420   33.2490 H   0  0  0  0  0  0  0  0  0  0  0  0
   39.6450   23.5580   34.2400 N   0  0  0  0  0  0  0  0  0  0  0  0
   38.5690   24.2660   34.6280 C   0  0  0  0  0  0  0  0  0  0  0  0
   38.4710   24.0430   35.9510 N   0  0  0  0  0  0  0  0  0  0  0  0
   39.4390   23.2290   36.3920 C   0  0  0  0  0  0  0  0  0  0  0  0
   39.8560   22.6550   37.5740 C   0  0  0  0  0  0  0  0  0  0  0  0
   40.9230   21.8510   37.6490 N   0  0  0  0  0  0  0  0  0  0  0  0
   41.6490   21.5610   36.5460 C   0  0  0  0  0  0  0  0  0  0  0  0
   42.4910   20.9070   36.6920 H   0  0  0  0  0  0  0  0  0  0  0  0
   41.2670   22.1060   35.3750 N   0  0  0  0  0  0  0  0  0  0  0  0
   40.2030   22.9160   35.2650 C   0  0  0  0  0  0  0  0  0  0  0  0
   39.1130   22.9440   38.7320 N   0  0  0  0  0  0  0  0  0  0  0  0
   39.1450   23.8410   39.2890 H   0  0  0  0  0  0  0  0  0  0  0  0
   38.4090   22.5900   39.4080 H   0  0  0  0  0  0  0  0  0  0  0  0
  1  4  1  6  0  0  0
  1  2  1  0  0  0  0
  1  8  1  0  0  0  0
  2  5  1  6  0  0  0
  2 17  1  0  0  0  0
  3  1  1  0  0  0  0
  3  7  1  0  0  0  0
  3  2  1  0  0  0  0
  6  3  1  0  0  0  0
  8 13  1  0  0  0  0
  9  8  2  0  0  0  0
  9 10  1  0  0  0  0
 10 11  2  0  0  0  0
 11 12  1  0  0  0  0
 12 16  1  0  0  0  0
 13 12  2  0  0  0  0
 14  9  1  0  0  0  0
 15 10  1  0  0  0  0
 17 20  1  0  0  0  0
 18 19  1  0  0  0  0
 19 20  1  0  0  0  0
 19 28  1  0  0  0  0
 20 21  2  0  0  0  0
 21 22  1  0  0  0  0
 22 23  1  0  0  0  0
 23 24  2  0  0  0  0
 23 29  1  0  0  0  0
 25 26  1  0  0  0  0
 25 24  1  0  0  0  0
 27 25  2  0  0  0  0
 28 27  1  0  0  0  0
 28 22  2  0  0  0  0
 29 30  1  0  0  0  0
 29 31  1  0  0  0  0
M  END
>  <minimizedAffinity>
-4.97461367

$$$$

 OpenBabel03272507173D

 31 34  0  0  1  0  0  0  0  0999 V2000
   35.2850   31.8480   36.5220 C   0  0  1  0  0  0  0  0  0  0  0  0
   35.9780   30.9330   35.6430 C   0  0  2  0  0  0  0  0  0  0  0  0
   36.1670   32.4150   35.4030 C   0  0  0  0  0  0  0  0  0  0  0  0
   35.6510   32.1140   37.5430 H   0  0  0  0  0  0  0  0  0  0  0  0
   36.8010   30.3350   36.0690 H   0  0  0  0  0  0  0  0  0  0  0  0
   37.1680   32.7640   35.6990 H   0  0  0  0  0  0  0  0  0  0  0  0
   35.6920   32.8610   34.5270 H   0  0  0  0  0  0  0  0  0  0  0  0
   33.8280   32.1780   36.3180 C   0  0  0  0  0  0  0  0  0  0  0  0
   32.9190   31.4020   37.0370 C   0  0  0  0  0  0  0  0  0  0  0  0
   31.5670   31.7060   36.8160 C   0  0  0  0  0  0  0  0  0  0  0  0
   31.2200   32.7030   35.9460 N   0  0  0  0  0  0  0  0  0  0  0  0
   32.1420   33.4300   35.2720 C   0  0  0  0  0  0  0  0  0  0  0  0
   33.4700   33.1670   35.4570 N   0  0  0  0  0  0  0  0  0  0  0  0
   33.2600   30.6280   37.7090 H   0  0  0  0  0  0  0  0  0  0  0  0
   30.8190   31.1370   37.3460 H   0  0  0  0  0  0  0  0  0  0  0  0
   31.8630   34.2170   34.5850 H   0  0  0  0  0  0  0  0  0  0  0  0
   35.2510   30.2660   34.6430 O   0  0  0  0  0  0  0  0  0  0  0  0
   36.5550   27.8840   35.5030 H   0  0  0  0  0  0  0  0  0  0  0  0
   36.4380   28.0630   34.4830 N   0  0  0  0  0  0  0  0  0  0  0  0
   35.8310   29.1690   34.0170 C   0  0  0  0  0  0  0  0  0  0  0  0
   35.8710   29.0450   32.6790 N   0  0  0  0  0  0  0  0  0  0  0  0
   36.4760   27.9110   32.3010 C   0  0  0  0  0  0  0  0  0  0  0  0
   36.8110   27.2480   31.1400 C   0  0  0  0  0  0  0  0  0  0  0  0
   37.4460   26.0710   31.1380 N   0  0  0  0  0  0  0  0  0  0  0  0
   37.7940   25.4700   32.2990 C   0  0  0  0  0  0  0  0  0  0  0  0
   38.3010   24.5260   32.2110 H   0  0  0  0  0  0  0  0  0  0  0  0
   37.4800   26.0930   33.4520 N   0  0  0  0  0  0  0  0  0  0  0  0
   36.8440   27.2740   33.4890 C   0  0  0  0  0  0  0  0  0  0  0  0
   36.4590   27.8570   29.9230 N   0  0  0  0  0  0  0  0  0  0  0  0
   35.4950   27.8850   29.4920 H   0  0  0  0  0  0  0  0  0  0  0  0
   36.8020   28.3960   29.1040 H   0  0  0  0  0  0  0  0  0  0  0  0
  1  4  1  1  0  0  0
  2  5  1  1  0  0  0
  2  1  1  0  0  0  0
  3  2  1  0  0  0  0
  3  6  1  0  0  0  0
  3  1  1  0  0  0  0
  7  3  1  0  0  0  0
  8  1  1  0  0  0  0
  8  9  1  0  0  0  0
  9 14  1  0  0  0  0
 10  9  2  0  0  0  0
 10 15  1  0  0  0  0
 11 10  1  0  0  0  0
 12 13  1  0  0  0  0
 12 11  2  0  0  0  0
 13  8  2  0  0  0  0
 16 12  1  0  0  0  0
 17  2  1  0  0  0  0
 19 18  1  0  0  0  0
 20 19  1  0  0  0  0
 20 17  1  0  0  0  0
 21 20  2  0  0  0  0
 22 21  1  0  0  0  0
 22 28  1  0  0  0  0
 23 22  2  0  0  0  0
 24 23  1  0  0  0  0
 24 25  2  0  0  0  0
 25 27  1  0  0  0  0
 26 25  1  0  0  0  0
 27 28  2  0  0  0  0
 28 19  1  0  0  0  0
 29 23  1  0  0  0  0
 30 29  1  0  0  0  0
 31 29  1  0  0  0  0
M  END
>  <minimizedAffinity>
-4.90875578

$$$$

 OpenBabel03272507173D

 31 34  0  0  1  0  0  0  0  0999 V2000
   38.9890   23.0030   35.6270 C   0  0  1  0  0  0  0  0  0  0  0  0
   38.8750   24.4100   35.9380 C   0  0  2  0  0  0  0  0  0  0  0  0
   39.0260   23.4470   37.0960 C   0  0  0  0  0  0  0  0  0  0  0  0
   39.9420   22.5240   35.2940 H   0  0  0  0  0  0  0  0  0  0  0  0
   39.7140   25.0690   35.6570 H   0  0  0  0  0  0  0  0  0  0  0  0
   40.0190   23.5050   37.5640 H   0  0  0  0  0  0  0  0  0  0  0  0
   38.1550   23.2590   37.7270 H   0  0  0  0  0  0  0  0  0  0  0  0
   37.7740   22.1670   35.3170 C   0  0  0  0  0  0  0  0  0  0  0  0
   37.5700   21.8590   33.9720 C   0  0  0  0  0  0  0  0  0  0  0  0
   36.4220   21.1040   33.6980 C   0  0  0  0  0  0  0  0  0  0  0  0
   35.5920   20.7210   34.7160 N   0  0  0  0  0  0  0  0  0  0  0  0
   35.8330   21.0450   36.0080 C   0  0  0  0  0  0  0  0  0  0  0  0
   36.9420   21.7810   36.3200 N   0  0  0  0  0  0  0  0  0  0  0  0
   38.2670   22.1930   33.2160 H   0  0  0  0  0  0  0  0  0  0  0  0
   36.2140   20.8360   32.6740 H   0  0  0  0  0  0  0  0  0  0  0  0
   35.1750   20.7410   36.8100 H   0  0  0  0  0  0  0  0  0  0  0  0
   37.6160   25.0280   35.8500 O   0  0  0  0  0  0  0  0  0  0  0  0
   36.8220   27.7390   35.4920 H   0  0  0  0  0  0  0  0  0  0  0  0
   36.9760   27.1370   34.6550 N   0  0  0  0  0  0  0  0  0  0  0  0
   37.3520   25.8500   34.7620 C   0  0  0  0  0  0  0  0  0  0  0  0
   37.4490   25.4150   33.4930 N   0  0  0  0  0  0  0  0  0  0  0  0
   37.1490   26.3770   32.6120 C   0  0  0  0  0  0  0  0  0  0  0  0
   37.0680   26.5480   31.2460 C   0  0  0  0  0  0  0  0  0  0  0  0
   36.7180   27.7100   30.6830 N   0  0  0  0  0  0  0  0  0  0  0  0
   36.4230   28.7870   31.4460 C   0  0  0  0  0  0  0  0  0  0  0  0
   36.1520   29.6830   30.9160 H   0  0  0  0  0  0  0  0  0  0  0  0
   36.4940   28.6530   32.7850 N   0  0  0  0  0  0  0  0  0  0  0  0
   36.8410   27.5020   33.3810 C   0  0  0  0  0  0  0  0  0  0  0  0
   37.3700   25.4400   30.4360 N   0  0  0  0  0  0  0  0  0  0  0  0
   38.3330   25.0680   30.2160 H   0  0  0  0  0  0  0  0  0  0  0  0
   36.9800   24.6790   29.8450 H   0  0  0  0  0  0  0  0  0  0  0  0
  1  4  1  6  0  0  0
  1  2  1  0  0  0  0
  1  3  1  0  0  0  0
  2  5  1  6  0  0  0
  2  3  1  0  0  0  0
  3  6  1  0  0  0  0
  3  7  1  0  0  0  0
  8  1  1  0  0  0  0
  8 13  1  0  0  0  0
  9  8  2  0  0  0  0
 10  9  1  0  0  0  0
 10 11  2  0  0  0  0
 11 12  1  0  0  0  0
 12 13  2  0  0  0  0
 12 16  1  0  0  0  0
 14  9  1  0  0  0  0
 15 10  1  0  0  0  0
 17  2  1  0  0  0  0
 19 20  1  0  0  0  0
 19 18  1  0  0  0  0
 20 17  1  0  0  0  0
 21 20  2  0  0  0  0
 22 28  1  0  0  0  0
 22 21  1  0  0  0  0
 23 22  2  0  0  0  0
 24 23  1  0  0  0  0
 24 25  2  0  0  0  0
 25 27  1  0  0  0  0
 26 25  1  0  0  0  0
 27 28  2  0  0  0  0
 28 19  1  0  0  0  0
 29 23  1  0  0  0  0
 30 29  1  0  0  0  0
 31 29  1  0  0  0  0
M  END
>  <minimizedAffinity>
-4.8920331

$$$$

 OpenBabel03272507173D

 31 34  0  0  1  0  0  0  0  0999 V2000
   39.5490   25.9090   35.2320 C   0  0  1  0  0  0  0  0  0  0  0  0
   39.0110   26.8910   34.3170 C   0  0  2  0  0  0  0  0  0  0  0  0
   38.8740   27.1640   35.7990 C   0  0  0  0  0  0  0  0  0  0  0  0
   40.6330   25.8420   35.4920 H   0  0  0  0  0  0  0  0  0  0  0  0
   39.7240   27.4760   33.7130 H   0  0  0  0  0  0  0  0  0  0  0  0
   39.5430   27.9670   36.1420 H   0  0  0  0  0  0  0  0  0  0  0  0
   37.8840   27.0750   36.2510 H   0  0  0  0  0  0  0  0  0  0  0  0
   38.7870   24.6530   35.5710 C   0  0  0  0  0  0  0  0  0  0  0  0
   38.2230   24.6050   36.8450 C   0  0  0  0  0  0  0  0  0  0  0  0
   37.5400   23.4200   37.1540 C   0  0  0  0  0  0  0  0  0  0  0  0
   37.4630   22.4120   36.2330 N   0  0  0  0  0  0  0  0  0  0  0  0
   38.0280   22.5060   35.0060 C   0  0  0  0  0  0  0  0  0  0  0  0
   38.7030   23.6440   34.6640 N   0  0  0  0  0  0  0  0  0  0  0  0
   38.3200   25.4390   37.5260 H   0  0  0  0  0  0  0  0  0  0  0  0
   37.0830   23.3270   38.1270 H   0  0  0  0  0  0  0  0  0  0  0  0
   37.9650   21.7070   34.2810 H   0  0  0  0  0  0  0  0  0  0  0  0
   37.8010   26.6170   33.6580 O   0  0  0  0  0  0  0  0  0  0  0  0
   35.8510   28.2260   34.9700 H   0  0  0  0  0  0  0  0  0  0  0  0
   36.0730   28.4080   33.9680 N   0  0  0  0  0  0  0  0  0  0  0  0
   36.9840   27.6810   33.2960 C   0  0  0  0  0  0  0  0  0  0  0  0
   36.9920   28.2030   32.0560 N   0  0  0  0  0  0  0  0  0  0  0  0
   36.1270   29.2180   31.9370 C   0  0  0  0  0  0  0  0  0  0  0  0
   35.6960   30.1090   30.9770 C   0  0  0  0  0  0  0  0  0  0  0  0
   34.7660   31.0400   31.2230 N   0  0  0  0  0  0  0  0  0  0  0  0
   34.1990   31.1460   32.4460 C   0  0  0  0  0  0  0  0  0  0  0  0
   33.4610   31.9200   32.5600 H   0  0  0  0  0  0  0  0  0  0  0  0
   34.6000   30.2890   33.4060 N   0  0  0  0  0  0  0  0  0  0  0  0
   35.5280   29.3460   33.1930 C   0  0  0  0  0  0  0  0  0  0  0  0
   36.2720   30.0130   29.6990 N   0  0  0  0  0  0  0  0  0  0  0  0
   37.2320   30.3530   29.4180 H   0  0  0  0  0  0  0  0  0  0  0  0
   36.1380   29.6910   28.7210 H   0  0  0  0  0  0  0  0  0  0  0  0
  1  4  1  1  0  0  0
  1  8  1  0  0  0  0
  1  3  1  0  0  0  0
  2  5  1  6  0  0  0
  2  1  1  0  0  0  0
  2  3  1  0  0  0  0
  3  6  1  0  0  0  0
  3  7  1  0  0  0  0
  8  9  1  0  0  0  0
  9 10  2  0  0  0  0
  9 14  1  0  0  0  0
 10 15  1  0  0  0  0
 11 10  1  0  0  0  0
 12 11  2  0  0  0  0
 13 12  1  0  0  0  0
 13  8  2  0  0  0  0
 16 12  1  0  0  0  0
 17  2  1  0  0  0  0
 19 18  1  0  0  0  0
 20 17  1  0  0  0  0
 20 19  1  0  0  0  0
 21 20  2  0  0  0  0
 22 21  1  0  0  0  0
 22 28  1  0  0  0  0
 23 24  1  0  0  0  0
 23 22  2  0  0  0  0
 24 25  2  0  0  0  0
 25 26  1  0  0  0  0
 25 27  1  0  0  0  0
 28 27  2  0  0  0  0
 28 19  1  0  0  0  0
 29 23  1  0  0  0  0
 30 29  1  0  0  0  0
 31 29  1  0  0  0  0
M  END
>  <minimizedAffinity>
-4.82976294

$$$$
