
     RDKit          3D

 34 37  0  0  0  0  0  0  0  0999 V2000
   36.3742   30.4794   46.3937 Cl  0  0  0  0  0  0  0  0  0  0  0  0
   36.8013   30.5395   48.0820 C   0  0  0  0  0  0  0  0  0  0  0  0
   38.0317   31.0833   48.3884 C   0  0  0  0  0  0  0  0  0  0  0  0
   38.3823   31.1365   49.7271 C   0  0  0  0  0  0  0  0  0  0  0  0
   37.5289   30.6640   50.6861 C   0  0  0  0  0  0  0  0  0  0  0  0
   36.3133   30.1330   50.3052 C   0  0  0  0  0  0  0  0  0  0  0  0
   35.8904   30.0438   48.9988 C   0  0  0  0  0  0  0  0  0  0  0  0
   39.9903   33.4256   46.4007 C   0  0  0  0  0  0  0  0  0  0  0  0
   40.5603   32.6145   45.3860 C   0  0  0  0  0  0  0  0  0  0  0  0
   40.2567   31.2611   45.4045 C   0  0  0  0  0  0  0  0  0  0  0  0
   39.4350   30.7967   46.3898 N   0  0  0  0  0  0  0  0  0  0  0  0
   38.9173   31.5793   47.3250 C   0  0  0  0  0  0  0  0  0  0  0  0
   39.1966   32.8962   47.3289 N   0  0  0  0  0  0  0  0  0  0  0  0
   34.3386   29.3682   48.4858 S   0  0  0  0  0  0  0  0  0  0  0  0
   39.3492   31.5640   49.9665 H   0  0  0  0  0  0  0  0  0  0  0  0
   37.8209   30.7137   51.7337 H   0  0  0  0  0  0  0  0  0  0  0  0
   35.6502   29.7630   51.0855 H   0  0  0  0  0  0  0  0  0  0  0  0
   40.2632   34.4722   46.3344 H   0  0  0  0  0  0  0  0  0  0  0  0
   41.2050   32.9560   44.6061 H   0  0  0  0  0  0  0  0  0  0  0  0
   40.6519   30.5983   44.6716 H   0  0  0  0  0  0  0  0  0  0  0  0
   36.3949   27.0580   48.0209 H   0  0  0  0  0  0  0  0  0  0  0  0
   35.4215   26.7354   47.9876 N   0  0  0  0  0  0  0  0  0  0  0  0
   34.4415   27.6315   48.1725 C   0  0  0  0  0  0  0  0  0  0  0  0
   33.2632   26.9546   48.0810 N   0  0  0  0  0  0  0  0  0  0  0  0
   33.5644   25.6485   47.8398 C   0  0  0  0  0  0  0  0  0  0  0  0
   32.8208   24.4913   47.6514 C   0  0  0  0  0  0  0  0  0  0  0  0
   31.3944   24.6471   47.7152 N   0  0  0  0  0  0  0  0  0  0  0  0
   30.6687   24.4712   48.4634 H   0  0  0  0  0  0  0  0  0  0  0  0
   33.4164   23.3054   47.4244 N   0  0  0  0  0  0  0  0  0  0  0  0
   34.7528   23.1909   47.3702 C   0  0  0  0  0  0  0  0  0  0  0  0
   35.1495   22.2166   47.1860 H   0  0  0  0  0  0  0  0  0  0  0  0
   35.5087   24.3126   47.5520 N   0  0  0  0  0  0  0  0  0  0  0  0
   34.9248   25.5021   47.7794 C   0  0  0  0  0  0  0  0  0  0  0  0
   31.0098   25.0177   46.8106 H   0  0  0  0  0  0  0  0  0  0  0  0
  1  2  1  0
  2  3  2  0
  2  7  1  0
  3  4  1  0
  4  5  2  0
  6  5  1  0
  7  6  2  0
  8 13  2  0
  9 10  2  0
  9  8  1  0
 10 11  1  0
 11 12  2  0
 12  3  1  0
 13 12  1  0
 14  7  1  0
  4 15  1  0
  5 16  1  0
  6 17  1  0
  8 18  1  0
  9 19  1  0
 10 20  1  0
 21 22  1  0
 22 23  1  0
 23 24  2  0
 24 25  1  0
 25 26  2  0
 26 27  1  0
 27 28  1  0
 26 29  1  0
 29 30  2  0
 30 31  1  0
 30 32  1  0
 32 33  2  0
 33 22  1  0
 33 25  1  0
 27 34  1  0
 14 23  1  0
M  ISO  8  15  14  16  14  17  14  18  14  19  14  20  14  21   9  28   5
M  ISO  1  31  16
M  END
>  <DihAtoms>  (1) 
6,13,22,21

>  <DihDeg>  (1) 
0.0011250448656556183

$$$$
