
 OpenBabel03262520493D

 53 58  0  0  1  0  0  0  0  0999 V2000
   39.3590   28.8700   43.1090 C   0  0  0  0  0  0  0  0  0  0  0  0
   40.3620   29.7850   42.8430 C   0  0  0  0  0  0  0  0  0  0  0  0
   41.1910   29.6140   41.7280 C   0  0  0  0  0  0  0  0  0  0  0  0
   41.0150   28.5330   40.8880 C   0  0  0  0  0  0  0  0  0  0  0  0
   41.6740   28.1600   39.7740 N   0  0  0  0  0  0  0  0  0  0  0  0
   41.0920   27.0300   39.3490 C   0  0  0  0  0  0  0  0  0  0  0  0
   40.0590   26.6410   40.1590 C   0  0  0  0  0  0  0  0  0  0  0  0
   40.0190   27.6150   41.1450 C   0  0  0  0  0  0  0  0  0  0  0  0
   39.2080   27.7940   42.2470 C   0  0  0  0  0  0  0  0  0  0  0  0
   38.6630   28.9030   43.9340 H   0  0  0  0  0  0  0  0  0  0  0  0
   41.9650   30.3580   41.5590 H   0  0  0  0  0  0  0  0  0  0  0  0
   42.4780   28.6860   39.3580 H   0  0  0  0  0  0  0  0  0  0  0  0
   41.4420   26.5240   38.4600 H   0  0  0  0  0  0  0  0  0  0  0  0
   39.4190   25.7770   40.0580 H   0  0  0  0  0  0  0  0  0  0  0  0
   38.1930   26.8180   42.4690 N   0  0  0  0  0  0  0  0  0  0  0  0
   36.9700   27.0230   41.9080 C   0  0  0  0  0  0  0  0  0  0  0  0
   36.5950   27.8370   41.2850 H   0  0  0  0  0  0  0  0  0  0  0  0
   36.1890   25.9680   42.2610 N   0  0  0  0  0  0  0  0  0  0  0  0
   36.9200   25.1280   43.0250 C   0  0  0  0  0  0  0  0  0  0  0  0
   36.7310   23.9220   43.6800 C   0  0  0  0  0  0  0  0  0  0  0  0
   37.7260   23.3640   44.3710 N   0  0  0  0  0  0  0  0  0  0  0  0
   38.9430   23.9180   44.4750 C   0  0  0  0  0  0  0  0  0  0  0  0
   39.6670   23.3770   45.0590 H   0  0  0  0  0  0  0  0  0  0  0  0
   39.1770   25.0990   43.8510 N   0  0  0  0  0  0  0  0  0  0  0  0
   38.1930   25.6710   43.1560 C   0  0  0  0  0  0  0  0  0  0  0  0
   35.4430   23.3220   43.5790 N   0  0  0  0  0  0  0  0  0  0  0  0
   35.0310   22.8680   44.4430 H   0  0  0  0  0  0  0  0  0  0  0  0
   34.8190   23.2580   42.7520 H   0  0  0  0  0  0  0  0  0  0  0  0
   40.5310   30.9500   43.7680 C   0  0  0  0  0  0  0  0  0  0  0  0
   40.1450   31.8360   43.1980 H   0  0  0  0  0  0  0  0  0  0  0  0
   41.5980   31.0960   44.0380 H   0  0  0  0  0  0  0  0  0  0  0  0
   39.6620   30.6980   44.9800 C   0  0  0  0  0  0  0  0  0  0  0  0
   39.8520   29.6400   45.3000 H   0  0  0  0  0  0  0  0  0  0  0  0
   38.6090   30.8550   44.6360 H   0  0  0  0  0  0  0  0  0  0  0  0
   38.8540   32.3160   46.7410 C   0  0  1  0  0  0  0  0  0  0  0  0
   40.0030   33.0360   46.0740 C   0  0  0  0  0  0  0  0  0  0  0  0
   39.9730   31.5620   46.1470 C   0  0  2  0  0  0  0  0  0  0  0  0
   37.8600   32.3060   46.2280 H   0  0  0  0  0  0  0  0  0  0  0  0
   39.8430   33.4580   45.0530 H   0  0  0  0  0  0  0  0  0  0  0  0
   40.7250   33.6130   46.6550 H   0  0  0  0  0  0  0  0  0  0  0  0
   40.6890   31.1460   46.9180 H   0  0  0  0  0  0  0  0  0  0  0  0
   38.7430   32.5310   48.2150 C   0  0  0  0  0  0  0  0  0  0  0  0
   38.2260   33.5140   48.3730 H   0  0  0  0  0  0  0  0  0  0  0  0
   39.7440   32.6150   48.6850 H   0  0  0  0  0  0  0  0  0  0  0  0
   37.5570   30.1540   50.8620 C   0  0  0  0  0  0  0  0  0  0  0  0
   38.2440   31.2110   50.2000 C   0  0  0  0  0  0  0  0  0  0  0  0
   38.0080   31.4220   48.8710 C   0  0  0  0  0  0  0  0  0  0  0  0
   37.1350   30.6180   48.2550 N   0  0  0  0  0  0  0  0  0  0  0  0
   36.4880   29.6260   48.8710 C   0  0  0  0  0  0  0  0  0  0  0  0
   36.7110   29.4090   50.1740 N   0  0  0  0  0  0  0  0  0  0  0  0
   37.7900   30.0360   51.9290 H   0  0  0  0  0  0  0  0  0  0  0  0
   38.9440   31.8370   50.7420 H   0  0  0  0  0  0  0  0  0  0  0  0
   35.7830   28.9770   48.3710 H   0  0  0  0  0  0  0  0  0  0  0  0
  1 10  1  0  0  0  0
  2  1  1  0  0  0  0
  2 29  1  0  0  0  0
  3  2  2  0  0  0  0
  4  8  2  0  0  0  0
  4  3  1  0  0  0  0
  5  4  1  0  0  0  0
  6  5  1  0  0  0  0
  6  7  2  0  0  0  0
  7  8  1  0  0  0  0
  8  9  1  0  0  0  0
  9 15  1  0  0  0  0
  9  1  2  0  0  0  0
 11  3  1  0  0  0  0
 12  5  1  0  0  0  0
 13  6  1  0  0  0  0
 14  7  1  0  0  0  0
 15 25  1  0  0  0  0
 16 18  2  0  0  0  0
 16 15  1  0  0  0  0
 17 16  1  0  0  0  0
 18 19  1  0  0  0  0
 19 25  2  0  0  0  0
 19 20  1  0  0  0  0
 20 21  2  0  0  0  0
 21 22  1  0  0  0  0
 22 23  1  0  0  0  0
 24 22  2  0  0  0  0
 25 24  1  0  0  0  0
 26 20  1  0  0  0  0
 26 27  1  0  0  0  0
 28 26  1  0  0  0  0
 29 31  1  0  0  0  0
 29 32  1  0  0  0  0
 30 29  1  0  0  0  0
 32 33  1  0  0  0  0
 32 37  1  0  0  0  0
 34 32  1  0  0  0  0
 35 38  1  6  0  0  0
 35 42  1  0  0  0  0
 36 37  1  0  0  0  0
 36 40  1  0  0  0  0
 36 35  1  0  0  0  0
 37 35  1  0  0  0  0
 37 41  1  1  0  0  0
 39 36  1  0  0  0  0
 42 43  1  0  0  0  0
 42 44  1  0  0  0  0
 42 47  1  0  0  0  0
 45 51  1  0  0  0  0
 46 52  1  0  0  0  0
 46 45  1  0  0  0  0
 47 46  2  0  0  0  0
 48 47  1  0  0  0  0
 48 49  2  0  0  0  0
 49 50  1  0  0  0  0
 50 45  2  0  0  0  0
 53 49  1  0  0  0  0
M  END
>  <minimizedAffinity>
-6.21265125

>  <minimizedRMSD>
0.36756438

$$$$
