
 OpenBabel03272509183D

 38 41  0  0  0  0  0  0  0  0999 V2000
   38.0480   31.3360   47.8090 C   0  0  0  0  0  0  0  0  0  0  0  0
   37.0930   31.3250   48.8190 C   0  0  0  0  0  0  0  0  0  0  0  0
   37.1640   32.4150   49.6870 C   0  0  0  0  0  0  0  0  0  0  0  0
   38.1240   33.4130   49.5250 C   0  0  0  0  0  0  0  0  0  0  0  0
   39.0420   33.3340   48.4750 C   0  0  0  0  0  0  0  0  0  0  0  0
   38.9960   32.2690   47.6020 C   0  0  0  0  0  0  0  0  0  0  0  0
   36.4630   32.4960   50.5060 H   0  0  0  0  0  0  0  0  0  0  0  0
   38.1440   34.2480   50.2260 H   0  0  0  0  0  0  0  0  0  0  0  0
   39.7750   34.1130   48.3670 H   0  0  0  0  0  0  0  0  0  0  0  0
   34.9550   30.3090   48.1830 C   0  0  0  0  0  0  0  0  0  0  0  0
   36.1110   30.3010   48.9840 C   0  0  0  0  0  0  0  0  0  0  0  0
   36.2450   29.2760   49.9170 C   0  0  0  0  0  0  0  0  0  0  0  0
   35.2530   28.3440   50.0000 N   0  0  0  0  0  0  0  0  0  0  0  0
   34.1470   28.3840   49.2070 C   0  0  0  0  0  0  0  0  0  0  0  0
   34.0040   29.3650   48.3050 N   0  0  0  0  0  0  0  0  0  0  0  0
   34.8200   31.0960   47.4450 H   0  0  0  0  0  0  0  0  0  0  0  0
   33.3670   27.6420   49.2800 H   0  0  0  0  0  0  0  0  0  0  0  0
   37.4300   29.2120   50.7850 C   0  0  0  0  0  0  0  0  0  0  0  0
   37.0590   29.0360   51.8320 H   0  0  0  0  0  0  0  0  0  0  0  0
   38.0580   28.3510   50.4910 H   0  0  0  0  0  0  0  0  0  0  0  0
   37.9750   30.1700   50.7190 H   0  0  0  0  0  0  0  0  0  0  0  0
   38.0390   30.2590   46.8850 O   0  0  0  0  0  0  0  0  0  0  0  0
   38.8210   29.6180   46.9760 H   0  0  0  0  0  0  0  0  0  0  0  0
   39.9140   32.2200   46.5770 O   0  0  0  0  0  0  0  0  0  0  0  0
   41.1930   31.8600   44.0580 H   0  0  0  0  0  0  0  0  0  0  0  0
   40.2000   32.1040   44.0890 N   0  0  0  0  0  0  0  0  0  0  0  0
   39.5550   32.2830   45.2560 C   0  0  0  0  0  0  0  0  0  0  0  0
   38.2780   32.5920   44.9180 N   0  0  0  0  0  0  0  0  0  0  0  0
   38.1530   32.5980   43.5810 C   0  0  0  0  0  0  0  0  0  0  0  0
   37.1580   32.8260   42.6320 C   0  0  0  0  0  0  0  0  0  0  0  0
   37.4120   32.7400   41.3140 N   0  0  0  0  0  0  0  0  0  0  0  0
   38.6550   32.4260   40.8600 C   0  0  0  0  0  0  0  0  0  0  0  0
   38.9190   32.3420   39.8170 H   0  0  0  0  0  0  0  0  0  0  0  0
   39.6740   32.1910   41.7200 N   0  0  0  0  0  0  0  0  0  0  0  0
   39.3850   32.2850   43.0340 C   0  0  0  0  0  0  0  0  0  0  0  0
   35.8620   33.1540   43.1270 N   0  0  0  0  0  0  0  0  0  0  0  0
   35.5280   34.0400   43.5780 H   0  0  0  0  0  0  0  0  0  0  0  0
   35.2530   32.3190   42.9610 H   0  0  0  0  0  0  0  0  0  0  0  0
  1  2  1  0  0  0  0
  2 11  1  0  0  0  0
  2  3  2  0  0  0  0
  3  7  1  0  0  0  0
  4  3  1  0  0  0  0
  4  8  1  0  0  0  0
  5  4  2  0  0  0  0
  6  1  2  0  0  0  0
  6  5  1  0  0  0  0
  9  5  1  0  0  0  0
 10 15  2  0  0  0  0
 10 11  1  0  0  0  0
 11 12  2  0  0  0  0
 12 13  1  0  0  0  0
 12 18  1  0  0  0  0
 14 17  1  0  0  0  0
 14 13  2  0  0  0  0
 15 14  1  0  0  0  0
 16 10  1  0  0  0  0
 18 19  1  0  0  0  0
 20 18  1  0  0  0  0
 21 18  1  0  0  0  0
 22 23  1  0  0  0  0
 22  1  1  0  0  0  0
 24  6  1  0  0  0  0
 25 26  1  0  0  0  0
 26 27  1  0  0  0  0
 27 24  1  0  0  0  0
 28 27  2  0  0  0  0
 29 28  1  0  0  0  0
 30 36  1  0  0  0  0
 30 29  2  0  0  0  0
 31 30  1  0  0  0  0
 32 31  2  0  0  0  0
 32 34  1  0  0  0  0
 33 32  1  0  0  0  0
 34 35  2  0  0  0  0
 35 29  1  0  0  0  0
 35 26  1  0  0  0  0
 36 37  1  0  0  0  0
 38 36  1  0  0  0  0
M  END
>  <minimizedAffinity>
-7.52467537

>  <minimizedRMSD>
0.257100075

$$$$
