
     RDKit          3D

 28 30  0  0  0  0  0  0  0  0999 V2000
   37.7657   30.5171   49.3523 C   0  0  0  0  0  0  0  0  0  0  0  0
   38.2407   31.7286   49.8379 C   0  0  0  0  0  0  0  0  0  0  0  0
   38.6289   32.7028   48.9059 C   0  0  0  0  0  0  0  0  0  0  0  0
   38.5278   32.4304   47.5713 N   0  0  0  0  0  0  0  0  0  0  0  0
   38.0543   31.2240   47.1677 C   0  0  0  0  0  0  0  0  0  0  0  0
   37.6867   30.3011   48.0315 N   0  0  0  0  0  0  0  0  0  0  0  0
   37.2941   29.3350   50.5900 S   0  0  0  0  0  0  0  0  0  0  0  0
   35.4993   29.3366   50.7310 C   0  0  0  0  0  0  0  0  0  0  0  0
   34.6865   28.4084   49.3844 S   0  0  0  0  0  0  0  0  0  0  0  0
   38.3306   31.9690   50.8877 H   0  0  0  0  0  0  0  0  0  0  0  0
   39.0060   33.6638   49.2372 H   0  0  0  0  0  0  0  0  0  0  0  0
   37.9792   31.0209   46.1015 H   0  0  0  0  0  0  0  0  0  0  0  0
   35.0865   30.3759   50.7189 H   0  0  0  0  0  0  0  0  0  0  0  0
   35.1745   28.9060   51.7064 H   0  0  0  0  0  0  0  0  0  0  0  0
   32.3354   27.1877   51.0467 H   0  0  0  0  0  0  0  0  0  0  0  0
   31.9810   27.8525   50.3339 N   0  0  0  0  0  0  0  0  0  0  0  0
   32.9165   28.4354   49.5620 C   0  0  0  0  0  0  0  0  0  0  0  0
   32.2768   29.2637   48.6972 N   0  0  0  0  0  0  0  0  0  0  0  0
   30.9473   29.2256   48.8968 C   0  0  0  0  0  0  0  0  0  0  0  0
   29.8257   29.8147   48.3601 C   0  0  0  0  0  0  0  0  0  0  0  0
   30.0032   30.7389   47.2901 N   0  0  0  0  0  0  0  0  0  0  0  0
   29.5954   30.3287   46.4239 H   0  0  0  0  0  0  0  0  0  0  0  0
   28.6079   29.4931   48.8686 N   0  0  0  0  0  0  0  0  0  0  0  0
   28.4992   28.6031   49.8915 C   0  0  0  0  0  0  0  0  0  0  0  0
   27.4802   28.3979   50.2443 H   0  0  0  0  0  0  0  0  0  0  0  0
   29.6022   28.0110   50.4338 N   0  0  0  0  0  0  0  0  0  0  0  0
   30.8105   28.3275   49.9325 C   0  0  0  0  0  0  0  0  0  0  0  0
   30.4555   31.6791   47.3090 H   0  0  0  0  0  0  0  0  0  0  0  0
  1  2  2  0
  1  7  1  0
  3  2  1  0
  4  3  2  0
  5  4  1  0
  5  6  2  0
  6  1  1  0
  7  8  1  0
  9  8  1  0
  2 10  1  0
  3 11  1  0
  5 12  1  0
  8 13  1  0
  8 14  1  0
 15 16  1  0
 16 17  1  0
 17 18  2  0
 18 19  1  0
 19 20  2  0
 20 21  1  0
 21 22  1  0
 20 23  1  0
 23 24  2  0
 24 25  1  0
 24 26  1  0
 26 27  2  0
 27 16  1  0
 27 19  1  0
 21 28  1  0
  9 17  1  0
M  ISO  8  10  14  11  14  12  14  13   8  14   8  15   9  22   5  25  16
M  END
>  <DihAtoms>  (1) 
7,8,16,15

>  <DihDeg>  (1) 
89.99909254573495

$$$$
