
 OpenBabel03272501193D

 35 38  0  0  0  0  0  0  0  0999 V2000
   37.1390   25.8840   32.1850 C   0  0  0  0  0  0  0  0  0  0  0  0
   36.0970   26.4840   31.4920 C   0  0  0  0  0  0  0  0  0  0  0  0
   35.1730   25.5980   30.9360 C   0  0  0  0  0  0  0  0  0  0  0  0
   35.3080   24.2150   31.0780 C   0  0  0  0  0  0  0  0  0  0  0  0
   36.3840   23.6990   31.7900 C   0  0  0  0  0  0  0  0  0  0  0  0
   37.3200   24.5480   32.3550 C   0  0  0  0  0  0  0  0  0  0  0  0
   34.3350   25.9960   30.3830 H   0  0  0  0  0  0  0  0  0  0  0  0
   34.5970   23.5220   30.6510 H   0  0  0  0  0  0  0  0  0  0  0  0
   36.4890   22.6170   31.9000 H   0  0  0  0  0  0  0  0  0  0  0  0
   35.1820   28.6310   32.2470 C   0  0  0  0  0  0  0  0  0  0  0  0
   35.9600   27.8950   31.3470 C   0  0  0  0  0  0  0  0  0  0  0  0
   36.5910   28.6080   30.3080 C   0  0  0  0  0  0  0  0  0  0  0  0
   36.4060   29.9580   30.2440 N   0  0  0  0  0  0  0  0  0  0  0  0
   35.6460   30.6210   31.1350 C   0  0  0  0  0  0  0  0  0  0  0  0
   35.0330   29.9610   32.1370 N   0  0  0  0  0  0  0  0  0  0  0  0
   34.7050   28.0600   33.0400 H   0  0  0  0  0  0  0  0  0  0  0  0
   37.2060   28.0790   29.5830 H   0  0  0  0  0  0  0  0  0  0  0  0
   35.4970   31.6960   31.0860 H   0  0  0  0  0  0  0  0  0  0  0  0
   38.1140   26.6970   32.7770 O   0  0  0  0  0  0  0  0  0  0  0  0
   38.6290   27.3990   32.2610 H   0  0  0  0  0  0  0  0  0  0  0  0
   38.3690   23.9900   33.0500 O   0  0  0  0  0  0  0  0  0  0  0  0
   37.1840   25.4450   35.1920 H   0  0  0  0  0  0  0  0  0  0  0  0
   37.8460   24.6850   35.3840 N   0  0  0  0  0  0  0  0  0  0  0  0
   38.4470   23.9530   34.4280 C   0  0  0  0  0  0  0  0  0  0  0  0
   39.2330   23.0670   35.0540 N   0  0  0  0  0  0  0  0  0  0  0  0
   39.1260   23.2410   36.3920 C   0  0  0  0  0  0  0  0  0  0  0  0
   39.6600   22.6670   37.5280 C   0  0  0  0  0  0  0  0  0  0  0  0
   39.3380   23.0870   38.7430 N   0  0  0  0  0  0  0  0  0  0  0  0
   38.4650   24.1040   38.9080 C   0  0  0  0  0  0  0  0  0  0  0  0
   38.1700   24.4830   39.8830 H   0  0  0  0  0  0  0  0  0  0  0  0
   37.9310   24.6810   37.8360 N   0  0  0  0  0  0  0  0  0  0  0  0
   38.2420   24.2740   36.5990 C   0  0  0  0  0  0  0  0  0  0  0  0
   40.5820   21.5900   37.3090 N   0  0  0  0  0  0  0  0  0  0  0  0
   39.9940   20.7450   37.0580 H   0  0  0  0  0  0  0  0  0  0  0  0
   41.6240   21.4040   37.3240 H   0  0  0  0  0  0  0  0  0  0  0  0
  1  6  1  0  0  0  0
  1 19  1  0  0  0  0
  2  1  2  0  0  0  0
  3  4  2  0  0  0  0
  3  2  1  0  0  0  0
  4  5  1  0  0  0  0
  5  9  1  0  0  0  0
  5  6  2  0  0  0  0
  6 21  1  0  0  0  0
  7  3  1  0  0  0  0
  8  4  1  0  0  0  0
 10 16  1  0  0  0  0
 11  2  1  0  0  0  0
 11 10  2  0  0  0  0
 12 11  1  0  0  0  0
 13 12  2  0  0  0  0
 13 14  1  0  0  0  0
 14 15  2  0  0  0  0
 15 10  1  0  0  0  0
 17 12  1  0  0  0  0
 18 14  1  0  0  0  0
 20 19  1  0  0  0  0
 21 24  1  0  0  0  0
 22 23  1  0  0  0  0
 23 32  1  0  0  0  0
 24 25  2  0  0  0  0
 24 23  1  0  0  0  0
 25 26  1  0  0  0  0
 26 32  2  0  0  0  0
 26 27  1  0  0  0  0
 27 28  2  0  0  0  0
 28 29  1  0  0  0  0
 29 30  1  0  0  0  0
 31 29  2  0  0  0  0
 32 31  1  0  0  0  0
 33 35  1  0  0  0  0
 33 27  1  0  0  0  0
 34 33  1  0  0  0  0
M  END
>  <minimizedAffinity>
-6.10416317

$$$$

 OpenBabel03272501193D

 35 38  0  0  0  0  0  0  0  0999 V2000
   37.1520   23.5020   32.7530 C   0  0  0  0  0  0  0  0  0  0  0  0
   36.2420   22.9840   31.8420 C   0  0  0  0  0  0  0  0  0  0  0  0
   35.5450   23.9390   31.1000 C   0  0  0  0  0  0  0  0  0  0  0  0
   35.7630   25.3070   31.2790 C   0  0  0  0  0  0  0  0  0  0  0  0
   36.6950   25.7380   32.2150 C   0  0  0  0  0  0  0  0  0  0  0  0
   37.4040   24.8190   32.9690 C   0  0  0  0  0  0  0  0  0  0  0  0
   34.8200   23.6070   30.3710 H   0  0  0  0  0  0  0  0  0  0  0  0
   35.2280   26.0520   30.7080 H   0  0  0  0  0  0  0  0  0  0  0  0
   36.8640   26.8090   32.3540 H   0  0  0  0  0  0  0  0  0  0  0  0
   35.0250   20.9250   32.3870 C   0  0  0  0  0  0  0  0  0  0  0  0
   36.0200   21.5880   31.6610 C   0  0  0  0  0  0  0  0  0  0  0  0
   36.7780   20.8190   30.7560 C   0  0  0  0  0  0  0  0  0  0  0  0
   36.4980   19.4880   30.6450 N   0  0  0  0  0  0  0  0  0  0  0  0
   35.5290   18.8960   31.3660 C   0  0  0  0  0  0  0  0  0  0  0  0
   34.7910   19.6110   32.2380 N   0  0  0  0  0  0  0  0  0  0  0  0
   34.4530   21.5390   33.0780 H   0  0  0  0  0  0  0  0  0  0  0  0
   37.5640   21.2900   30.1690 H   0  0  0  0  0  0  0  0  0  0  0  0
   35.3040   17.8370   31.2800 H   0  0  0  0  0  0  0  0  0  0  0  0
   37.8970   22.6160   33.5430 O   0  0  0  0  0  0  0  0  0  0  0  0
   37.4680   21.8970   34.1130 H   0  0  0  0  0  0  0  0  0  0  0  0
   38.3160   25.2940   33.8840 O   0  0  0  0  0  0  0  0  0  0  0  0
   40.8570   24.0930   33.4240 H   0  0  0  0  0  0  0  0  0  0  0  0
   40.3710   23.9550   34.3170 N   0  0  0  0  0  0  0  0  0  0  0  0
   39.1700   24.4870   34.6100 C   0  0  0  0  0  0  0  0  0  0  0  0
   38.8600   24.0900   35.8510 N   0  0  0  0  0  0  0  0  0  0  0  0
   39.8600   23.3150   36.3340 C   0  0  0  0  0  0  0  0  0  0  0  0
   40.1270   22.6310   37.5030 C   0  0  0  0  0  0  0  0  0  0  0  0
   41.2430   21.9350   37.6670 N   0  0  0  0  0  0  0  0  0  0  0  0
   42.1650   21.8750   36.6810 C   0  0  0  0  0  0  0  0  0  0  0  0
   43.0950   21.3180   36.7700 H   0  0  0  0  0  0  0  0  0  0  0  0
   41.9400   22.5220   35.5430 N   0  0  0  0  0  0  0  0  0  0  0  0
   40.8200   23.2300   35.3540 C   0  0  0  0  0  0  0  0  0  0  0  0
   39.1240   22.7210   38.5240 N   0  0  0  0  0  0  0  0  0  0  0  0
   39.2350   23.6800   38.9620 H   0  0  0  0  0  0  0  0  0  0  0  0
   38.3460   22.1390   38.9440 H   0  0  0  0  0  0  0  0  0  0  0  0
  1  6  1  0  0  0  0
  1 19  1  0  0  0  0
  2  1  2  0  0  0  0
  3  4  2  0  0  0  0
  3  2  1  0  0  0  0
  4  5  1  0  0  0  0
  5  9  1  0  0  0  0
  5  6  2  0  0  0  0
  6 21  1  0  0  0  0
  7  3  1  0  0  0  0
  8  4  1  0  0  0  0
 10 16  1  0  0  0  0
 11  2  1  0  0  0  0
 11 10  2  0  0  0  0
 12 11  1  0  0  0  0
 13 12  2  0  0  0  0
 13 14  1  0  0  0  0
 14 15  2  0  0  0  0
 15 10  1  0  0  0  0
 17 12  1  0  0  0  0
 18 14  1  0  0  0  0
 19 20  1  0  0  0  0
 21 24  1  0  0  0  0
 22 23  1  0  0  0  0
 23 24  1  0  0  0  0
 23 32  1  0  0  0  0
 24 25  2  0  0  0  0
 25 26  1  0  0  0  0
 26 27  1  0  0  0  0
 27 28  2  0  0  0  0
 27 33  1  0  0  0  0
 29 30  1  0  0  0  0
 29 28  1  0  0  0  0
 31 29  2  0  0  0  0
 32 31  1  0  0  0  0
 32 26  2  0  0  0  0
 33 35  1  0  0  0  0
 33 34  1  0  0  0  0
M  END
>  <minimizedAffinity>
-5.97648573

$$$$

 OpenBabel03272501193D

 35 38  0  0  0  0  0  0  0  0999 V2000
   37.7690   26.2480   33.4800 C   0  0  0  0  0  0  0  0  0  0  0  0
   37.3060   27.4660   33.9570 C   0  0  0  0  0  0  0  0  0  0  0  0
   37.6940   27.7710   35.2630 C   0  0  0  0  0  0  0  0  0  0  0  0
   38.4880   26.9000   36.0130 C   0  0  0  0  0  0  0  0  0  0  0  0
   38.9080   25.6990   35.4560 C   0  0  0  0  0  0  0  0  0  0  0  0
   38.5420   25.3640   34.1630 C   0  0  0  0  0  0  0  0  0  0  0  0
   37.3700   28.7040   35.7000 H   0  0  0  0  0  0  0  0  0  0  0  0
   38.7920   27.1290   37.0250 H   0  0  0  0  0  0  0  0  0  0  0  0
   39.5280   25.0180   36.0430 H   0  0  0  0  0  0  0  0  0  0  0  0
   35.3320   28.9030   33.7360 C   0  0  0  0  0  0  0  0  0  0  0  0
   36.4970   28.3540   33.1910 C   0  0  0  0  0  0  0  0  0  0  0  0
   36.8230   28.7160   31.8690 C   0  0  0  0  0  0  0  0  0  0  0  0
   35.9910   29.5730   31.2080 N   0  0  0  0  0  0  0  0  0  0  0  0
   34.8810   30.0750   31.7780 C   0  0  0  0  0  0  0  0  0  0  0  0
   34.5480   29.7430   33.0410 N   0  0  0  0  0  0  0  0  0  0  0  0
   35.1000   28.6090   34.7570 H   0  0  0  0  0  0  0  0  0  0  0  0
   37.7200   28.3140   31.4020 H   0  0  0  0  0  0  0  0  0  0  0  0
   34.2170   30.7570   31.2540 H   0  0  0  0  0  0  0  0  0  0  0  0
   37.4290   25.8590   32.1770 O   0  0  0  0  0  0  0  0  0  0  0  0
   36.4720   25.8230   31.8490 H   0  0  0  0  0  0  0  0  0  0  0  0
   38.9810   24.1630   33.6530 O   0  0  0  0  0  0  0  0  0  0  0  0
   38.2790   22.9690   31.1650 H   0  0  0  0  0  0  0  0  0  0  0  0
   37.8610   22.6320   32.0390 N   0  0  0  0  0  0  0  0  0  0  0  0
   38.1410   23.1440   33.2520 C   0  0  0  0  0  0  0  0  0  0  0  0
   37.4110   22.4570   34.1420 N   0  0  0  0  0  0  0  0  0  0  0  0
   36.6800   21.5210   33.4910 C   0  0  0  0  0  0  0  0  0  0  0  0
   35.7700   20.5410   33.8310 C   0  0  0  0  0  0  0  0  0  0  0  0
   35.2090   19.7590   32.9190 N   0  0  0  0  0  0  0  0  0  0  0  0
   35.5180   19.9010   31.6110 C   0  0  0  0  0  0  0  0  0  0  0  0
   35.0840   19.2830   30.8280 H   0  0  0  0  0  0  0  0  0  0  0  0
   36.3900   20.8350   31.2490 N   0  0  0  0  0  0  0  0  0  0  0  0
   36.9680   21.6360   32.1520 C   0  0  0  0  0  0  0  0  0  0  0  0
   35.4700   20.4230   35.2290 N   0  0  0  0  0  0  0  0  0  0  0  0
   36.2970   19.9230   35.6660 H   0  0  0  0  0  0  0  0  0  0  0  0
   34.7050   20.6760   35.9150 H   0  0  0  0  0  0  0  0  0  0  0  0
  1  2  2  0  0  0  0
  1  6  1  0  0  0  0
  2  3  1  0  0  0  0
  3  7  1  0  0  0  0
  3  4  2  0  0  0  0
  4  8  1  0  0  0  0
  5  4  1  0  0  0  0
  5  9  1  0  0  0  0
  6  5  2  0  0  0  0
 10 16  1  0  0  0  0
 11 10  1  0  0  0  0
 11  2  1  0  0  0  0
 12 11  2  0  0  0  0
 13 14  2  0  0  0  0
 13 12  1  0  0  0  0
 14 15  1  0  0  0  0
 15 10  2  0  0  0  0
 17 12  1  0  0  0  0
 18 14  1  0  0  0  0
 19  1  1  0  0  0  0
 20 19  1  0  0  0  0
 21  6  1  0  0  0  0
 22 23  1  0  0  0  0
 23 32  1  0  0  0  0
 23 24  1  0  0  0  0
 24 21  1  0  0  0  0
 24 25  2  0  0  0  0
 26 27  1  0  0  0  0
 26 25  1  0  0  0  0
 27 33  1  0  0  0  0
 28 27  2  0  0  0  0
 29 28  1  0  0  0  0
 30 29  1  0  0  0  0
 31 29  2  0  0  0  0
 31 32  1  0  0  0  0
 32 26  2  0  0  0  0
 33 34  1  0  0  0  0
 33 35  1  0  0  0  0
M  END
>  <minimizedAffinity>
-5.79062319

$$$$

 OpenBabel03272501193D

 35 38  0  0  0  0  0  0  0  0999 V2000
   36.3830   28.1520   33.5460 C   0  0  0  0  0  0  0  0  0  0  0  0
   36.0030   28.4910   32.2550 C   0  0  0  0  0  0  0  0  0  0  0  0
   36.1350   27.4660   31.3160 C   0  0  0  0  0  0  0  0  0  0  0  0
   36.6160   26.2050   31.6720 C   0  0  0  0  0  0  0  0  0  0  0  0
   36.9750   25.9520   32.9900 C   0  0  0  0  0  0  0  0  0  0  0  0
   36.8570   26.9440   33.9480 C   0  0  0  0  0  0  0  0  0  0  0  0
   35.8570   27.6590   30.2900 H   0  0  0  0  0  0  0  0  0  0  0  0
   36.7220   25.4070   30.9500 H   0  0  0  0  0  0  0  0  0  0  0  0
   37.3520   24.9640   33.2670 H   0  0  0  0  0  0  0  0  0  0  0  0
   34.1740   30.1180   32.1140 C   0  0  0  0  0  0  0  0  0  0  0  0
   35.5120   29.7780   31.8930 C   0  0  0  0  0  0  0  0  0  0  0  0
   36.3360   30.7580   31.3040 C   0  0  0  0  0  0  0  0  0  0  0  0
   35.7840   31.9650   30.9880 N   0  0  0  0  0  0  0  0  0  0  0  0
   34.4890   32.2430   31.2220 C   0  0  0  0  0  0  0  0  0  0  0  0
   33.6810   31.3230   31.7840 N   0  0  0  0  0  0  0  0  0  0  0  0
   33.5570   29.3470   32.5700 H   0  0  0  0  0  0  0  0  0  0  0  0
   37.3850   30.5400   31.1110 H   0  0  0  0  0  0  0  0  0  0  0  0
   34.0460   33.2030   30.9720 H   0  0  0  0  0  0  0  0  0  0  0  0
   36.2850   29.1190   34.5550 O   0  0  0  0  0  0  0  0  0  0  0  0
   36.7120   30.0340   34.4810 H   0  0  0  0  0  0  0  0  0  0  0  0
   37.2250   26.6470   35.2410 O   0  0  0  0  0  0  0  0  0  0  0  0
   39.6800   25.6890   34.1590 H   0  0  0  0  0  0  0  0  0  0  0  0
   39.2840   25.2650   35.0060 N   0  0  0  0  0  0  0  0  0  0  0  0
   38.1310   25.6600   35.5760 C   0  0  0  0  0  0  0  0  0  0  0  0
   37.9400   24.8800   36.6490 N   0  0  0  0  0  0  0  0  0  0  0  0
   38.9670   24.0030   36.7510 C   0  0  0  0  0  0  0  0  0  0  0  0
   39.3370   22.9820   37.6030 C   0  0  0  0  0  0  0  0  0  0  0  0
   40.4480   22.2840   37.4190 N   0  0  0  0  0  0  0  0  0  0  0  0
   41.2640   22.5560   36.3770 C   0  0  0  0  0  0  0  0  0  0  0  0
   42.1860   22.0120   36.1850 H   0  0  0  0  0  0  0  0  0  0  0  0
   40.9390   23.5330   35.5360 N   0  0  0  0  0  0  0  0  0  0  0  0
   39.8210   24.2500   35.7020 C   0  0  0  0  0  0  0  0  0  0  0  0
   38.4440   22.7260   38.6960 N   0  0  0  0  0  0  0  0  0  0  0  0
   38.6200   23.4940   39.4060 H   0  0  0  0  0  0  0  0  0  0  0  0
   37.7000   22.0300   38.9850 H   0  0  0  0  0  0  0  0  0  0  0  0
  1  6  1  0  0  0  0
  1 19  1  0  0  0  0
  2  1  2  0  0  0  0
  3  4  2  0  0  0  0
  3  2  1  0  0  0  0
  4  5  1  0  0  0  0
  5  9  1  0  0  0  0
  5  6  2  0  0  0  0
  6 21  1  0  0  0  0
  7  3  1  0  0  0  0
  8  4  1  0  0  0  0
 10 16  1  0  0  0  0
 11 10  1  0  0  0  0
 11  2  1  0  0  0  0
 12 11  2  0  0  0  0
 13 14  2  0  0  0  0
 13 12  1  0  0  0  0
 14 15  1  0  0  0  0
 15 10  2  0  0  0  0
 17 12  1  0  0  0  0
 18 14  1  0  0  0  0
 20 19  1  0  0  0  0
 21 24  1  0  0  0  0
 22 23  1  0  0  0  0
 23 24  1  0  0  0  0
 23 32  1  0  0  0  0
 24 25  2  0  0  0  0
 25 26  1  0  0  0  0
 26 27  1  0  0  0  0
 27 33  1  0  0  0  0
 28 27  2  0  0  0  0
 29 28  1  0  0  0  0
 30 29  1  0  0  0  0
 31 32  1  0  0  0  0
 31 29  2  0  0  0  0
 32 26  2  0  0  0  0
 33 35  1  0  0  0  0
 33 34  1  0  0  0  0
M  END
>  <minimizedAffinity>
-5.65384293

$$$$

 OpenBabel03272501193D

 35 38  0  0  0  0  0  0  0  0999 V2000
   37.7710   25.6870   34.0270 C   0  0  0  0  0  0  0  0  0  0  0  0
   38.5110   25.5430   35.1920 C   0  0  0  0  0  0  0  0  0  0  0  0
   38.4960   26.6520   36.0390 C   0  0  0  0  0  0  0  0  0  0  0  0
   37.7830   27.8090   35.7170 C   0  0  0  0  0  0  0  0  0  0  0  0
   37.0670   27.8670   34.5280 C   0  0  0  0  0  0  0  0  0  0  0  0
   37.0600   26.7860   33.6630 C   0  0  0  0  0  0  0  0  0  0  0  0
   39.0510   26.6110   36.9650 H   0  0  0  0  0  0  0  0  0  0  0  0
   37.7660   28.6720   36.3670 H   0  0  0  0  0  0  0  0  0  0  0  0
   36.5110   28.7730   34.2760 H   0  0  0  0  0  0  0  0  0  0  0  0
   40.5840   24.2330   35.1630 C   0  0  0  0  0  0  0  0  0  0  0  0
   39.2390   24.3620   35.5200 C   0  0  0  0  0  0  0  0  0  0  0  0
   38.6480   23.2840   36.2100 C   0  0  0  0  0  0  0  0  0  0  0  0
   39.4190   22.1910   36.4840 N   0  0  0  0  0  0  0  0  0  0  0  0
   40.7110   22.1150   36.1180 C   0  0  0  0  0  0  0  0  0  0  0  0
   41.2970   23.1340   35.4580 N   0  0  0  0  0  0  0  0  0  0  0  0
   41.0180   25.0770   34.6320 H   0  0  0  0  0  0  0  0  0  0  0  0
   37.6030   23.3370   36.5080 H   0  0  0  0  0  0  0  0  0  0  0  0
   41.3270   21.2470   36.3350 H   0  0  0  0  0  0  0  0  0  0  0  0
   37.7290   24.6220   33.1170 O   0  0  0  0  0  0  0  0  0  0  0  0
   38.5640   24.1890   32.7420 H   0  0  0  0  0  0  0  0  0  0  0  0
   36.3380   26.8900   32.4960 O   0  0  0  0  0  0  0  0  0  0  0  0
   35.6580   29.6040   31.9660 H   0  0  0  0  0  0  0  0  0  0  0  0
   36.2550   29.0810   31.3150 N   0  0  0  0  0  0  0  0  0  0  0  0
   36.6190   27.7990   31.4950 C   0  0  0  0  0  0  0  0  0  0  0  0
   37.3890   27.4620   30.4510 N   0  0  0  0  0  0  0  0  0  0  0  0
   37.5070   28.5270   29.6230 C   0  0  0  0  0  0  0  0  0  0  0  0
   38.1400   28.8070   28.4290 C   0  0  0  0  0  0  0  0  0  0  0  0
   38.0540   29.9970   27.8530 N   0  0  0  0  0  0  0  0  0  0  0  0
   37.3340   30.9860   28.4260 C   0  0  0  0  0  0  0  0  0  0  0  0
   37.2340   31.9780   27.9920 H   0  0  0  0  0  0  0  0  0  0  0  0
   36.7110   30.7510   29.5760 N   0  0  0  0  0  0  0  0  0  0  0  0
   36.7830   29.5560   30.1750 C   0  0  0  0  0  0  0  0  0  0  0  0
   38.8940   27.7310   27.8540 N   0  0  0  0  0  0  0  0  0  0  0  0
   39.7940   27.6700   28.4120 H   0  0  0  0  0  0  0  0  0  0  0  0
   38.8190   27.0170   27.0760 H   0  0  0  0  0  0  0  0  0  0  0  0
  1  2  1  0  0  0  0
  2 11  1  0  0  0  0
  2  3  2  0  0  0  0
  3  7  1  0  0  0  0
  4  3  1  0  0  0  0
  4  8  1  0  0  0  0
  5  4  2  0  0  0  0
  6  1  2  0  0  0  0
  6  5  1  0  0  0  0
  9  5  1  0  0  0  0
 10 15  2  0  0  0  0
 10 11  1  0  0  0  0
 11 12  2  0  0  0  0
 12 13  1  0  0  0  0
 12 17  1  0  0  0  0
 14 18  1  0  0  0  0
 14 13  2  0  0  0  0
 15 14  1  0  0  0  0
 16 10  1  0  0  0  0
 19  1  1  0  0  0  0
 20 19  1  0  0  0  0
 21  6  1  0  0  0  0
 23 24  1  0  0  0  0
 23 22  1  0  0  0  0
 24 21  1  0  0  0  0
 25 24  2  0  0  0  0
 26 32  1  0  0  0  0
 26 25  1  0  0  0  0
 27 26  2  0  0  0  0
 28 29  2  0  0  0  0
 28 27  1  0  0  0  0
 29 31  1  0  0  0  0
 30 29  1  0  0  0  0
 31 32  2  0  0  0  0
 32 23  1  0  0  0  0
 33 34  1  0  0  0  0
 33 27  1  0  0  0  0
 35 33  1  0  0  0  0
M  END
>  <minimizedAffinity>
-5.61642742

$$$$

 OpenBabel03272501193D

 35 38  0  0  0  0  0  0  0  0999 V2000
   36.4050   26.8930   31.5940 C   0  0  0  0  0  0  0  0  0  0  0  0
   36.1840   27.9670   32.4450 C   0  0  0  0  0  0  0  0  0  0  0  0
   36.7560   27.8390   33.7120 C   0  0  0  0  0  0  0  0  0  0  0  0
   37.4900   26.7080   34.0740 C   0  0  0  0  0  0  0  0  0  0  0  0
   37.6620   25.6780   33.1570 C   0  0  0  0  0  0  0  0  0  0  0  0
   37.1090   25.7700   31.8910 C   0  0  0  0  0  0  0  0  0  0  0  0
   36.6250   28.6380   34.4280 H   0  0  0  0  0  0  0  0  0  0  0  0
   37.9350   26.6020   35.0520 H   0  0  0  0  0  0  0  0  0  0  0  0
   38.2360   24.7920   33.4410 H   0  0  0  0  0  0  0  0  0  0  0  0
   35.9960   30.0990   31.2480 C   0  0  0  0  0  0  0  0  0  0  0  0
   35.4350   29.1220   32.0760 C   0  0  0  0  0  0  0  0  0  0  0  0
   34.1140   29.3330   32.5200 C   0  0  0  0  0  0  0  0  0  0  0  0
   33.4700   30.4670   32.1180 N   0  0  0  0  0  0  0  0  0  0  0  0
   34.0530   31.3780   31.3180 C   0  0  0  0  0  0  0  0  0  0  0  0
   35.3160   31.1980   30.8820 N   0  0  0  0  0  0  0  0  0  0  0  0
   37.0150   29.9140   30.9180 H   0  0  0  0  0  0  0  0  0  0  0  0
   33.6350   28.6010   33.1660 H   0  0  0  0  0  0  0  0  0  0  0  0
   33.5430   32.2810   30.9970 H   0  0  0  0  0  0  0  0  0  0  0  0
   35.8670   26.9340   30.3010 O   0  0  0  0  0  0  0  0  0  0  0  0
   34.8850   27.1010   30.1210 H   0  0  0  0  0  0  0  0  0  0  0  0
   37.3050   24.7240   31.0180 O   0  0  0  0  0  0  0  0  0  0  0  0
   34.9460   23.6420   32.1910 H   0  0  0  0  0  0  0  0  0  0  0  0
   35.6530   23.0230   31.7780 N   0  0  0  0  0  0  0  0  0  0  0  0
   36.7910   23.4570   31.2060 C   0  0  0  0  0  0  0  0  0  0  0  0
   37.4540   22.3710   30.7860 N   0  0  0  0  0  0  0  0  0  0  0  0
   36.7360   21.2640   31.0920 C   0  0  0  0  0  0  0  0  0  0  0  0
   36.8730   19.9000   30.9310 C   0  0  0  0  0  0  0  0  0  0  0  0
   35.9530   19.0480   31.3600 N   0  0  0  0  0  0  0  0  0  0  0  0
   34.8380   19.4970   31.9770 C   0  0  0  0  0  0  0  0  0  0  0  0
   34.0560   18.8370   32.3460 H   0  0  0  0  0  0  0  0  0  0  0  0
   34.6730   20.8040   32.1490 N   0  0  0  0  0  0  0  0  0  0  0  0
   35.5890   21.6830   31.7240 C   0  0  0  0  0  0  0  0  0  0  0  0
   38.0700   19.4660   30.2710 N   0  0  0  0  0  0  0  0  0  0  0  0
   37.9230   19.6560   29.2380 H   0  0  0  0  0  0  0  0  0  0  0  0
   39.0080   19.0330   30.5020 H   0  0  0  0  0  0  0  0  0  0  0  0
  1  6  2  0  0  0  0
  1  2  1  0  0  0  0
  2  3  2  0  0  0  0
  3  4  1  0  0  0  0
  3  7  1  0  0  0  0
  4  8  1  0  0  0  0
  5  9  1  0  0  0  0
  5  4  2  0  0  0  0
  6  5  1  0  0  0  0
 10 11  1  0  0  0  0
 11  2  1  0  0  0  0
 11 12  2  0  0  0  0
 12 17  1  0  0  0  0
 13 12  1  0  0  0  0
 14 13  2  0  0  0  0
 15 10  2  0  0  0  0
 15 14  1  0  0  0  0
 16 10  1  0  0  0  0
 18 14  1  0  0  0  0
 19  1  1  0  0  0  0
 20 19  1  0  0  0  0
 21 24  1  0  0  0  0
 21  6  1  0  0  0  0
 23 22  1  0  0  0  0
 24 23  1  0  0  0  0
 25 26  1  0  0  0  0
 25 24  2  0  0  0  0
 26 32  1  0  0  0  0
 27 26  2  0  0  0  0
 27 28  1  0  0  0  0
 28 29  2  0  0  0  0
 29 31  1  0  0  0  0
 29 30  1  0  0  0  0
 32 23  1  0  0  0  0
 32 31  2  0  0  0  0
 33 35  1  0  0  0  0
 33 27  1  0  0  0  0
 34 33  1  0  0  0  0
M  END
>  <minimizedAffinity>
-5.51985025

$$$$

 OpenBabel03272501193D

 35 38  0  0  0  0  0  0  0  0999 V2000
   38.4470   23.8110   33.6710 C   0  0  0  0  0  0  0  0  0  0  0  0
   38.0760   22.8960   34.6460 C   0  0  0  0  0  0  0  0  0  0  0  0
   37.2980   21.8320   34.1860 C   0  0  0  0  0  0  0  0  0  0  0  0
   36.9320   21.7190   32.8430 C   0  0  0  0  0  0  0  0  0  0  0  0
   37.3490   22.6830   31.9330 C   0  0  0  0  0  0  0  0  0  0  0  0
   38.1220   23.7520   32.3540 C   0  0  0  0  0  0  0  0  0  0  0  0
   36.9720   21.0800   34.8900 H   0  0  0  0  0  0  0  0  0  0  0  0
   36.3300   20.8980   32.4790 H   0  0  0  0  0  0  0  0  0  0  0  0
   37.0620   22.5940   30.8830 H   0  0  0  0  0  0  0  0  0  0  0  0
   37.5920   23.6220   36.9370 C   0  0  0  0  0  0  0  0  0  0  0  0
   38.4480   23.0110   36.0160 C   0  0  0  0  0  0  0  0  0  0  0  0
   39.6780   22.5250   36.5030 C   0  0  0  0  0  0  0  0  0  0  0  0
   39.9540   22.6780   37.8310 N   0  0  0  0  0  0  0  0  0  0  0  0
   39.0950   23.2730   38.6780 C   0  0  0  0  0  0  0  0  0  0  0  0
   37.9140   23.7460   38.2360 N   0  0  0  0  0  0  0  0  0  0  0  0
   36.6490   23.9890   36.5390 H   0  0  0  0  0  0  0  0  0  0  0  0
   40.3780   22.0420   35.8240 H   0  0  0  0  0  0  0  0  0  0  0  0
   39.3130   23.3960   39.7350 H   0  0  0  0  0  0  0  0  0  0  0  0
   39.2290   24.9130   34.0430 O   0  0  0  0  0  0  0  0  0  0  0  0
   38.9660   25.5460   34.7870 H   0  0  0  0  0  0  0  0  0  0  0  0
   38.5100   24.6830   31.4170 O   0  0  0  0  0  0  0  0  0  0  0  0
   38.1000   26.5220   29.2820 H   0  0  0  0  0  0  0  0  0  0  0  0
   37.7790   26.7470   30.2310 N   0  0  0  0  0  0  0  0  0  0  0  0
   37.9360   25.9320   31.2890 C   0  0  0  0  0  0  0  0  0  0  0  0
   37.3990   26.5580   32.3450 N   0  0  0  0  0  0  0  0  0  0  0  0
   36.9090   27.7570   31.9510 C   0  0  0  0  0  0  0  0  0  0  0  0
   36.2630   28.8240   32.5420 C   0  0  0  0  0  0  0  0  0  0  0  0
   35.9010   29.8950   31.8510 N   0  0  0  0  0  0  0  0  0  0  0  0
   36.1580   29.9750   30.5270 C   0  0  0  0  0  0  0  0  0  0  0  0
   35.8800   30.8320   29.9180 H   0  0  0  0  0  0  0  0  0  0  0  0
   36.7780   28.9660   29.9240 N   0  0  0  0  0  0  0  0  0  0  0  0
   37.1530   27.8750   30.6030 C   0  0  0  0  0  0  0  0  0  0  0  0
   36.0090   28.6990   33.9490 N   0  0  0  0  0  0  0  0  0  0  0  0
   35.1840   28.0410   34.0420 H   0  0  0  0  0  0  0  0  0  0  0  0
   36.3870   29.0540   34.8720 H   0  0  0  0  0  0  0  0  0  0  0  0
  1 19  1  0  0  0  0
  1  2  1  0  0  0  0
  2 11  1  0  0  0  0
  3  2  2  0  0  0  0
  3  7  1  0  0  0  0
  4  3  1  0  0  0  0
  5  6  1  0  0  0  0
  5  4  2  0  0  0  0
  6  1  2  0  0  0  0
  8  4  1  0  0  0  0
  9  5  1  0  0  0  0
 10 15  1  0  0  0  0
 11 12  1  0  0  0  0
 11 10  2  0  0  0  0
 12 13  2  0  0  0  0
 13 14  1  0  0  0  0
 14 18  1  0  0  0  0
 15 14  2  0  0  0  0
 16 10  1  0  0  0  0
 17 12  1  0  0  0  0
 19 20  1  0  0  0  0
 21  6  1  0  0  0  0
 22 23  1  0  0  0  0
 23 32  1  0  0  0  0
 23 24  1  0  0  0  0
 24 21  1  0  0  0  0
 24 25  2  0  0  0  0
 26 25  1  0  0  0  0
 26 27  1  0  0  0  0
 27 33  1  0  0  0  0
 28 27  2  0  0  0  0
 29 28  1  0  0  0  0
 30 29  1  0  0  0  0
 31 29  2  0  0  0  0
 31 32  1  0  0  0  0
 32 26  2  0  0  0  0
 33 34  1  0  0  0  0
 33 35  1  0  0  0  0
M  END
>  <minimizedAffinity>
-5.45881891

$$$$

 OpenBabel03272501193D

 35 38  0  0  0  0  0  0  0  0999 V2000
   37.7960   24.2260   33.8270 C   0  0  0  0  0  0  0  0  0  0  0  0
   38.5470   24.8180   34.8330 C   0  0  0  0  0  0  0  0  0  0  0  0
   38.5760   26.2130   34.8000 C   0  0  0  0  0  0  0  0  0  0  0  0
   37.8950   26.9370   33.8190 C   0  0  0  0  0  0  0  0  0  0  0  0
   37.1660   26.2620   32.8480 C   0  0  0  0  0  0  0  0  0  0  0  0
   37.1140   24.8790   32.8500 C   0  0  0  0  0  0  0  0  0  0  0  0
   39.1420   26.7420   35.5530 H   0  0  0  0  0  0  0  0  0  0  0  0
   37.9140   28.0170   33.7870 H   0  0  0  0  0  0  0  0  0  0  0  0
   36.6340   26.8290   32.0810 H   0  0  0  0  0  0  0  0  0  0  0  0
   38.6260   23.7760   37.0510 C   0  0  0  0  0  0  0  0  0  0  0  0
   39.2420   24.0790   35.8330 C   0  0  0  0  0  0  0  0  0  0  0  0
   40.5630   23.6230   35.6480 C   0  0  0  0  0  0  0  0  0  0  0  0
   41.1530   22.9220   36.6590 N   0  0  0  0  0  0  0  0  0  0  0  0
   40.5170   22.6560   37.8140 C   0  0  0  0  0  0  0  0  0  0  0  0
   39.2540   23.0810   38.0140 N   0  0  0  0  0  0  0  0  0  0  0  0
   37.6070   24.1370   37.1710 H   0  0  0  0  0  0  0  0  0  0  0  0
   41.0840   23.8350   34.7170 H   0  0  0  0  0  0  0  0  0  0  0  0
   40.9850   22.0980   38.6200 H   0  0  0  0  0  0  0  0  0  0  0  0
   37.7100   22.8280   33.7810 O   0  0  0  0  0  0  0  0  0  0  0  0
   38.5260   22.2290   33.7660 H   0  0  0  0  0  0  0  0  0  0  0  0
   36.3800   24.2540   31.8670 O   0  0  0  0  0  0  0  0  0  0  0  0
   38.3850   22.8850   30.3790 H   0  0  0  0  0  0  0  0  0  0  0  0
   37.5750   22.3760   30.7510 N   0  0  0  0  0  0  0  0  0  0  0  0
   36.5880   22.9510   31.4610 C   0  0  0  0  0  0  0  0  0  0  0  0
   35.7150   21.9820   31.7700 N   0  0  0  0  0  0  0  0  0  0  0  0
   36.1530   20.8070   31.2560 C   0  0  0  0  0  0  0  0  0  0  0  0
   35.7200   19.4970   31.2300 C   0  0  0  0  0  0  0  0  0  0  0  0
   36.4060   18.5450   30.6160 N   0  0  0  0  0  0  0  0  0  0  0  0
   37.5680   18.8330   29.9890 C   0  0  0  0  0  0  0  0  0  0  0  0
   38.1660   18.0860   29.4720 H   0  0  0  0  0  0  0  0  0  0  0  0
   38.0150   20.0840   29.9940 N   0  0  0  0  0  0  0  0  0  0  0  0
   37.3380   21.0620   30.6070 C   0  0  0  0  0  0  0  0  0  0  0  0
   34.4830   19.2340   31.9080 N   0  0  0  0  0  0  0  0  0  0  0  0
   34.7110   19.2250   32.9430 H   0  0  0  0  0  0  0  0  0  0  0  0
   33.4640   19.0560   31.6860 H   0  0  0  0  0  0  0  0  0  0  0  0
  1  2  1  0  0  0  0
  2 11  1  0  0  0  0
  3  2  2  0  0  0  0
  3  7  1  0  0  0  0
  4  3  1  0  0  0  0
  5  6  1  0  0  0  0
  5  4  2  0  0  0  0
  6  1  2  0  0  0  0
  8  4  1  0  0  0  0
  9  5  1  0  0  0  0
 10 16  1  0  0  0  0
 10 15  1  0  0  0  0
 11 10  2  0  0  0  0
 12 11  1  0  0  0  0
 12 13  2  0  0  0  0
 13 14  1  0  0  0  0
 14 15  2  0  0  0  0
 14 18  1  0  0  0  0
 17 12  1  0  0  0  0
 19  1  1  0  0  0  0
 20 19  1  0  0  0  0
 21  6  1  0  0  0  0
 22 23  1  0  0  0  0
 23 24  1  0  0  0  0
 24 25  2  0  0  0  0
 24 21  1  0  0  0  0
 26 25  1  0  0  0  0
 27 26  1  0  0  0  0
 27 33  1  0  0  0  0
 28 27  2  0  0  0  0
 29 31  2  0  0  0  0
 29 28  1  0  0  0  0
 30 29  1  0  0  0  0
 31 32  1  0  0  0  0
 32 23  1  0  0  0  0
 32 26  2  0  0  0  0
 33 34  1  0  0  0  0
 35 33  1  0  0  0  0
M  END
>  <minimizedAffinity>
-5.45801544

$$$$

 OpenBabel03272501193D

 35 38  0  0  0  0  0  0  0  0999 V2000
   36.0900   24.5500   31.7310 C   0  0  0  0  0  0  0  0  0  0  0  0
   36.7390   23.4360   32.2430 C   0  0  0  0  0  0  0  0  0  0  0  0
   37.7490   23.7170   33.1650 C   0  0  0  0  0  0  0  0  0  0  0  0
   38.0640   25.0280   33.5290 C   0  0  0  0  0  0  0  0  0  0  0  0
   37.3610   26.0860   32.9660 C   0  0  0  0  0  0  0  0  0  0  0  0
   36.3530   25.8440   32.0480 C   0  0  0  0  0  0  0  0  0  0  0  0
   38.2980   22.8970   33.6050 H   0  0  0  0  0  0  0  0  0  0  0  0
   38.8450   25.2540   34.2410 H   0  0  0  0  0  0  0  0  0  0  0  0
   37.6090   27.1110   33.2500 H   0  0  0  0  0  0  0  0  0  0  0  0
   37.1710   21.4280   30.9030 C   0  0  0  0  0  0  0  0  0  0  0  0
   36.4180   22.0980   31.8710 C   0  0  0  0  0  0  0  0  0  0  0  0
   35.3430   21.3960   32.4520 C   0  0  0  0  0  0  0  0  0  0  0  0
   35.1050   20.1180   32.0370 N   0  0  0  0  0  0  0  0  0  0  0  0
   35.8600   19.5160   31.1000 C   0  0  0  0  0  0  0  0  0  0  0  0
   36.8940   20.1680   30.5310 N   0  0  0  0  0  0  0  0  0  0  0  0
   37.9950   21.9900   30.4690 H   0  0  0  0  0  0  0  0  0  0  0  0
   34.7270   21.8760   33.2100 H   0  0  0  0  0  0  0  0  0  0  0  0
   35.6740   18.4990   30.7680 H   0  0  0  0  0  0  0  0  0  0  0  0
   35.0610   24.3630   30.7980 O   0  0  0  0  0  0  0  0  0  0  0  0
   35.1830   23.8260   29.9490 H   0  0  0  0  0  0  0  0  0  0  0  0
   35.6850   26.9240   31.5160 O   0  0  0  0  0  0  0  0  0  0  0  0
   36.9530   26.9590   28.9660 H   0  0  0  0  0  0  0  0  0  0  0  0
   36.8660   27.8220   29.5160 N   0  0  0  0  0  0  0  0  0  0  0  0
   36.2820   27.8860   30.7260 C   0  0  0  0  0  0  0  0  0  0  0  0
   36.3590   29.1620   31.1280 N   0  0  0  0  0  0  0  0  0  0  0  0
   36.9860   29.8930   30.1750 C   0  0  0  0  0  0  0  0  0  0  0  0
   37.3570   31.2110   30.0000 C   0  0  0  0  0  0  0  0  0  0  0  0
   37.9850   31.6220   28.9080 N   0  0  0  0  0  0  0  0  0  0  0  0
   38.2850   30.7500   27.9200 C   0  0  0  0  0  0  0  0  0  0  0  0
   38.7980   31.0410   27.0060 H   0  0  0  0  0  0  0  0  0  0  0  0
   37.9430   29.4740   28.0560 N   0  0  0  0  0  0  0  0  0  0  0  0
   37.3090   29.0360   29.1500 C   0  0  0  0  0  0  0  0  0  0  0  0
   37.0190   32.1030   31.0710 N   0  0  0  0  0  0  0  0  0  0  0  0
   35.9810   32.2960   30.9780 H   0  0  0  0  0  0  0  0  0  0  0  0
   37.4810   32.5980   31.8850 H   0  0  0  0  0  0  0  0  0  0  0  0
  1  6  2  0  0  0  0
  1  2  1  0  0  0  0
  2  3  2  0  0  0  0
  3  4  1  0  0  0  0
  3  7  1  0  0  0  0
  4  8  1  0  0  0  0
  5  9  1  0  0  0  0
  5  4  2  0  0  0  0
  6  5  1  0  0  0  0
 10 11  1  0  0  0  0
 11  2  1  0  0  0  0
 11 12  2  0  0  0  0
 12 17  1  0  0  0  0
 13 12  1  0  0  0  0
 14 13  2  0  0  0  0
 15 10  2  0  0  0  0
 15 14  1  0  0  0  0
 16 10  1  0  0  0  0
 18 14  1  0  0  0  0
 19  1  1  0  0  0  0
 20 19  1  0  0  0  0
 21  6  1  0  0  0  0
 22 23  1  0  0  0  0
 23 24  1  0  0  0  0
 24 25  2  0  0  0  0
 24 21  1  0  0  0  0
 26 25  1  0  0  0  0
 27 26  1  0  0  0  0
 27 33  1  0  0  0  0
 28 27  2  0  0  0  0
 29 31  2  0  0  0  0
 29 28  1  0  0  0  0
 30 29  1  0  0  0  0
 31 32  1  0  0  0  0
 32 23  1  0  0  0  0
 32 26  2  0  0  0  0
 33 35  1  0  0  0  0
 34 33  1  0  0  0  0
M  END
>  <minimizedAffinity>
-5.42017698

$$$$
