
     RDKit          3D

 28 30  0  0  0  0  0  0  0  0999 V2000
   37.7657   30.5171   49.3523 C   0  0  0  0  0  0  0  0  0  0  0  0
   38.2407   31.7286   49.8379 C   0  0  0  0  0  0  0  0  0  0  0  0
   38.6289   32.7028   48.9059 C   0  0  0  0  0  0  0  0  0  0  0  0
   38.5278   32.4304   47.5713 N   0  0  0  0  0  0  0  0  0  0  0  0
   38.0543   31.2240   47.1677 C   0  0  0  0  0  0  0  0  0  0  0  0
   37.6867   30.3011   48.0315 N   0  0  0  0  0  0  0  0  0  0  0  0
   37.2941   29.3350   50.5900 S   0  0  0  0  0  0  0  0  0  0  0  0
   35.4993   29.3366   50.7310 C   0  0  0  0  0  0  0  0  0  0  0  0
   34.6865   28.4084   49.3844 S   0  0  0  0  0  0  0  0  0  0  0  0
   38.3306   31.9690   50.8877 H   0  0  0  0  0  0  0  0  0  0  0  0
   39.0060   33.6638   49.2372 H   0  0  0  0  0  0  0  0  0  0  0  0
   37.9792   31.0209   46.1015 H   0  0  0  0  0  0  0  0  0  0  0  0
   35.0865   30.3759   50.7189 H   0  0  0  0  0  0  0  0  0  0  0  0
   35.1745   28.9060   51.7064 H   0  0  0  0  0  0  0  0  0  0  0  0
   32.3925   28.0659   51.4824 H   0  0  0  0  0  0  0  0  0  0  0  0
   32.0081   28.2699   50.5409 N   0  0  0  0  0  0  0  0  0  0  0  0
   32.9165   28.4354   49.5620 C   0  0  0  0  0  0  0  0  0  0  0  0
   32.2396   28.6917   48.4134 N   0  0  0  0  0  0  0  0  0  0  0  0
   30.9128   28.6944   48.6332 C   0  0  0  0  0  0  0  0  0  0  0  0
   29.7651   28.8838   47.8983 C   0  0  0  0  0  0  0  0  0  0  0  0
   29.9005   29.1602   46.5070 N   0  0  0  0  0  0  0  0  0  0  0  0
   29.5196   28.3544   45.9681 H   0  0  0  0  0  0  0  0  0  0  0  0
   28.5628   28.8000   48.5247 N   0  0  0  0  0  0  0  0  0  0  0  0
   28.4947   28.5331   49.8567 C   0  0  0  0  0  0  0  0  0  0  0  0
   27.4857   28.4822   50.2860 H   0  0  0  0  0  0  0  0  0  0  0  0
   29.6238   28.3430   50.5984 N   0  0  0  0  0  0  0  0  0  0  0  0
   30.8168   28.4254   49.9810 C   0  0  0  0  0  0  0  0  0  0  0  0
   30.3033   30.0055   46.0463 H   0  0  0  0  0  0  0  0  0  0  0  0
  1  2  2  0
  1  7  1  0
  3  2  1  0
  4  3  2  0
  5  4  1  0
  5  6  2  0
  6  1  1  0
  7  8  1  0
  9  8  1  0
  2 10  1  0
  3 11  1  0
  5 12  1  0
  8 13  1  0
  8 14  1  0
 15 16  1  0
 16 17  1  0
 17 18  2  0
 18 19  1  0
 19 20  2  0
 20 21  1  0
 21 22  1  0
 20 23  1  0
 23 24  2  0
 24 25  1  0
 24 26  1  0
 26 27  2  0
 27 16  1  0
 27 19  1  0
 21 28  1  0
  9 17  1  0
M  ISO  8  10  14  11  14  12  14  13   8  14   8  15   9  22   5  25  16
M  END
>  <DihAtoms>  (1) 
7,8,16,15

>  <DihDeg>  (1) 
89.99909254573495

$$$$
