REMARK  Name = 
REMARK  3 active torsions:
REMARK  status: ('A' for Active; 'I' for Inactive)
REMARK    1  A    between atoms: C_5  and  S_7
REMARK    2  A    between atoms: S_7  and  C_13
REMARK    3  A    between atoms: C_16  and  N_17
REMARK                            x       y       z     vdW  Elec       q    Type
REMARK                         _______ _______ _______ _____ _____    ______ ____
ROOT
ATOM      1  H   UNL     1      33.764  25.629  47.773  0.00  0.00    +0.000 HD
ATOM      2  N   UNL     1      34.545  25.472  48.420  0.00  0.00    +0.000 N 
ATOM      3  C   UNL     1      34.992  26.518  49.145  0.00  0.00    +0.000 A 
ATOM      4  N   UNL     1      35.997  26.101  49.909  0.00  0.00    +0.000 NA
ATOM      5  C   UNL     1      36.194  24.786  49.673  0.00  0.00    +0.000 A 
ATOM      6  C   UNL     1      37.054  23.824  50.139  0.00  0.00    +0.000 A 
ATOM      7  N   UNL     1      36.967  22.571  49.669  0.00  0.00    +0.000 NA
ATOM      8  C   UNL     1      36.067  22.203  48.752  0.00  0.00    +0.000 A 
ATOM      9  H   UNL     1      36.079  21.170  48.439  0.00  0.00    +0.000 HD
ATOM     10  N   UNL     1      35.194  23.129  48.264  0.00  0.00    +0.000 NA
ATOM     11  C   UNL     1      35.273  24.388  48.729  0.00  0.00    +0.000 A 
ENDROOT
BRANCH   6  12
ATOM     12  N   UNL     1      38.005  24.249  51.118  0.00  0.00    +0.000 N 
ATOM     13  H   UNL     1      38.624  25.014  50.727  0.00  0.00    +0.000 HD
ATOM     14  H   UNL     1      38.249  24.009  52.103  0.00  0.00    +0.000 HD
ENDBRANCH   6  12
BRANCH   3  15
ATOM     15  S   UNL     1      34.546  28.249  49.289  0.00  0.00    +0.000 S 
BRANCH  15  20
ATOM     16  C   UNL     1      37.266  30.179  51.419  0.00  0.00    +0.000 A 
ATOM     17  C   UNL     1      38.113  30.756  50.471  0.00  0.00    +0.000 A 
ATOM     18  C   UNL     1      37.845  30.548  49.108  0.00  0.00    +0.000 A 
ATOM     19  N   UNL     1      36.760  29.786  48.788  0.00  0.00    +0.000 NA
ATOM     20  C   UNL     1      35.966  29.246  49.719  0.00  0.00    +0.000 A 
ATOM     21  N   UNL     1      36.207  29.435  51.039  0.00  0.00    +0.000 NA
ATOM     22  H   UNL     1      37.468  30.337  52.468  0.00  0.00    +0.000 HD
ATOM     23  H   UNL     1      38.982  31.366  50.765  0.00  0.00    +0.000 HD
ATOM     24  H   UNL     1      38.471  30.973  48.330  0.00  0.00    +0.000 HD
ENDBRANCH  15  20
ENDBRANCH   3  15
TORSDOF 3
