
 OpenBabel03272501093D

 45 49  0  0  1  0  0  0  0  0999 V2000
   38.6040   26.5570   34.3330 Cl  0  0  0  0  0  0  0  0  0  0  0  0
   37.6260   25.6160   33.2410 C   0  0  0  0  0  0  0  0  0  0  0  0
   36.8240   26.3780   32.4050 C   0  0  0  0  0  0  0  0  0  0  0  0
   36.0420   25.6350   31.5310 C   0  0  0  0  0  0  0  0  0  0  0  0
   36.0560   24.2600   31.4940 C   0  0  0  0  0  0  0  0  0  0  0  0
   36.8810   23.5690   32.3580 C   0  0  0  0  0  0  0  0  0  0  0  0
   37.6750   24.2440   33.2410 C   0  0  0  0  0  0  0  0  0  0  0  0
   35.3540   26.0480   30.8060 H   0  0  0  0  0  0  0  0  0  0  0  0
   35.4680   23.6510   30.8360 H   0  0  0  0  0  0  0  0  0  0  0  0
   36.9220   22.4880   32.3600 H   0  0  0  0  0  0  0  0  0  0  0  0
   38.5470   23.6120   34.1590 N   0  0  0  0  0  0  0  0  0  0  0  0
   39.6550   22.9350   33.8300 C   0  0  0  0  0  0  0  0  0  0  0  0
   40.1050   22.7280   32.8720 H   0  0  0  0  0  0  0  0  0  0  0  0
   40.2630   22.4560   34.9290 N   0  0  0  0  0  0  0  0  0  0  0  0
   39.5540   22.8160   36.0190 C   0  0  0  0  0  0  0  0  0  0  0  0
   39.6510   22.6410   37.3840 C   0  0  0  0  0  0  0  0  0  0  0  0
   38.7130   23.1690   38.2100 N   0  0  0  0  0  0  0  0  0  0  0  0
   37.6680   23.8760   37.7070 C   0  0  0  0  0  0  0  0  0  0  0  0
   36.9470   24.2760   38.4130 H   0  0  0  0  0  0  0  0  0  0  0  0
   37.5790   24.0450   36.3700 N   0  0  0  0  0  0  0  0  0  0  0  0
   38.4860   23.5390   35.5120 C   0  0  0  0  0  0  0  0  0  0  0  0
   40.7610   21.8940   37.8710 N   0  0  0  0  0  0  0  0  0  0  0  0
   41.6040   21.9900   38.4750 H   0  0  0  0  0  0  0  0  0  0  0  0
   41.1040   20.8970   37.7520 H   0  0  0  0  0  0  0  0  0  0  0  0
   36.6370   27.7040   32.2540 O   0  0  0  0  0  0  0  0  0  0  0  0
   35.7590   28.5120   31.6190 C   0  0  2  0  0  0  0  0  0  0  0  0
   36.3690   29.9240   31.3230 C   0  0  2  0  0  0  0  0  0  0  0  0
   35.1640   30.7380   31.2870 C   0  0  0  0  0  0  0  0  0  0  0  0
   34.2790   30.2440   32.2340 O   0  0  0  0  0  0  0  0  0  0  0  0
   34.7150   29.0330   32.6450 C   0  0  0  0  0  0  0  0  0  0  0  0
   35.1890   28.1490   30.7690 H   0  0  0  0  0  0  0  0  0  0  0  0
   36.9810   30.1540   32.2220 H   0  0  0  0  0  0  0  0  0  0  0  0
   35.4400   31.7920   31.5840 H   0  0  0  0  0  0  0  0  0  0  0  0
   34.6210   30.7860   30.3380 H   0  0  0  0  0  0  0  0  0  0  0  0
   33.9030   28.2900   32.7470 H   0  0  0  0  0  0  0  0  0  0  0  0
   35.2650   29.1120   33.6130 H   0  0  0  0  0  0  0  0  0  0  0  0
   38.2010   28.7970   28.2320 C   0  0  0  0  0  0  0  0  0  0  0  0
   37.3190   28.7460   29.3520 C   0  0  0  0  0  0  0  0  0  0  0  0
   37.2340   29.9100   30.1720 C   0  0  0  0  0  0  0  0  0  0  0  0
   37.9950   31.0200   29.8580 N   0  0  0  0  0  0  0  0  0  0  0  0
   38.8070   31.0070   28.7920 C   0  0  0  0  0  0  0  0  0  0  0  0
   38.9220   29.9180   27.9790 N   0  0  0  0  0  0  0  0  0  0  0  0
   38.2340   27.9050   27.6460 H   0  0  0  0  0  0  0  0  0  0  0  0
   36.7600   27.8670   29.5440 H   0  0  0  0  0  0  0  0  0  0  0  0
   39.3740   31.9060   28.6030 H   0  0  0  0  0  0  0  0  0  0  0  0
  2  7  1  0  0  0  0
  2  1  1  0  0  0  0
  3  2  2  0  0  0  0
  4  3  1  0  0  0  0
  5  4  2  0  0  0  0
  5  6  1  0  0  0  0
  6 10  1  0  0  0  0
  6  7  2  0  0  0  0
  7 11  1  0  0  0  0
  8  4  1  0  0  0  0
  9  5  1  0  0  0  0
 11 21  1  0  0  0  0
 12 11  1  0  0  0  0
 12 14  2  0  0  0  0
 13 12  1  0  0  0  0
 14 15  1  0  0  0  0
 15 16  1  0  0  0  0
 16 22  1  0  0  0  0
 16 17  2  0  0  0  0
 18 17  1  0  0  0  0
 18 19  1  0  0  0  0
 20 18  2  0  0  0  0
 21 15  2  0  0  0  0
 21 20  1  0  0  0  0
 22 23  1  0  0  0  0
 24 22  1  0  0  0  0
 25  3  1  0  0  0  0
 26 31  1  6  0  0  0
 26 25  1  0  0  0  0
 26 30  1  0  0  0  0
 27 26  1  0  0  0  0
 27 32  1  1  0  0  0
 28 27  1  0  0  0  0
 28 33  1  0  0  0  0
 28 29  1  0  0  0  0
 29 30  1  0  0  0  0
 30 35  1  0  0  0  0
 30 36  1  0  0  0  0
 34 28  1  0  0  0  0
 37 38  1  0  0  0  0
 38 44  1  0  0  0  0
 38 39  2  0  0  0  0
 39 27  1  0  0  0  0
 40 39  1  0  0  0  0
 41 40  2  0  0  0  0
 42 37  2  0  0  0  0
 42 41  1  0  0  0  0
 43 37  1  0  0  0  0
 45 41  1  0  0  0  0
M  END
>  <minimizedAffinity>
-6.36163998

$$$$

 OpenBabel03272501093D

 45 49  0  0  1  0  0  0  0  0999 V2000
   39.4680   23.1790   33.1060 Cl  0  0  0  0  0  0  0  0  0  0  0  0
   39.2910   24.7550   33.8260 C   0  0  0  0  0  0  0  0  0  0  0  0
   38.8750   25.7360   32.9370 C   0  0  0  0  0  0  0  0  0  0  0  0
   38.7310   26.9950   33.5030 C   0  0  0  0  0  0  0  0  0  0  0  0
   38.9780   27.2550   34.8320 C   0  0  0  0  0  0  0  0  0  0  0  0
   39.3890   26.2270   35.6570 C   0  0  0  0  0  0  0  0  0  0  0  0
   39.5490   24.9660   35.1570 C   0  0  0  0  0  0  0  0  0  0  0  0
   38.4170   27.8850   32.9730 H   0  0  0  0  0  0  0  0  0  0  0  0
   38.8790   28.2110   35.3060 H   0  0  0  0  0  0  0  0  0  0  0  0
   39.5930   26.3900   36.7060 H   0  0  0  0  0  0  0  0  0  0  0  0
   39.9670   23.8580   35.9340 N   0  0  0  0  0  0  0  0  0  0  0  0
   39.1950   23.1880   36.8000 C   0  0  0  0  0  0  0  0  0  0  0  0
   38.1650   23.3210   37.0860 H   0  0  0  0  0  0  0  0  0  0  0  0
   39.8870   22.1910   37.3780 N   0  0  0  0  0  0  0  0  0  0  0  0
   41.1460   22.1870   36.8940 C   0  0  0  0  0  0  0  0  0  0  0  0
   42.2930   21.4430   37.0820 C   0  0  0  0  0  0  0  0  0  0  0  0
   43.4220   21.7410   36.3920 N   0  0  0  0  0  0  0  0  0  0  0  0
   43.4420   22.7740   35.5100 C   0  0  0  0  0  0  0  0  0  0  0  0
   44.3720   22.9680   34.9850 H   0  0  0  0  0  0  0  0  0  0  0  0
   42.3170   23.4990   35.3300 N   0  0  0  0  0  0  0  0  0  0  0  0
   41.1720   23.2390   35.9930 C   0  0  0  0  0  0  0  0  0  0  0  0
   42.2310   20.3690   38.0150 N   0  0  0  0  0  0  0  0  0  0  0  0
   42.3250   19.3340   38.0700 H   0  0  0  0  0  0  0  0  0  0  0  0
   42.0500   20.2910   39.0570 H   0  0  0  0  0  0  0  0  0  0  0  0
   38.5770   25.7310   31.6230 O   0  0  0  0  0  0  0  0  0  0  0  0
   37.4810   25.5180   30.8610 C   0  0  2  0  0  0  0  0  0  0  0  0
   36.2210   26.2600   31.4260 C   0  0  2  0  0  0  0  0  0  0  0  0
   35.1550   25.4120   30.9130 C   0  0  0  0  0  0  0  0  0  0  0  0
   35.5980   24.0980   30.9370 O   0  0  0  0  0  0  0  0  0  0  0  0
   36.9330   24.0930   31.1470 C   0  0  0  0  0  0  0  0  0  0  0  0
   37.5330   25.6090   29.7800 H   0  0  0  0  0  0  0  0  0  0  0  0
   36.3150   26.1610   32.5290 H   0  0  0  0  0  0  0  0  0  0  0  0
   34.2710   25.4950   31.6110 H   0  0  0  0  0  0  0  0  0  0  0  0
   34.8040   25.6120   29.8960 H   0  0  0  0  0  0  0  0  0  0  0  0
   37.4700   23.3630   30.5150 H   0  0  0  0  0  0  0  0  0  0  0  0
   37.1690   23.8940   32.2200 H   0  0  0  0  0  0  0  0  0  0  0  0
   35.5030   29.9550   31.4760 C   0  0  0  0  0  0  0  0  0  0  0  0
   35.4670   28.5850   31.8690 C   0  0  0  0  0  0  0  0  0  0  0  0
   36.2200   27.6590   31.0890 C   0  0  0  0  0  0  0  0  0  0  0  0
   36.9400   28.1150   30.0010 N   0  0  0  0  0  0  0  0  0  0  0  0
   36.9340   29.4170   29.6790 C   0  0  0  0  0  0  0  0  0  0  0  0
   36.2300   30.3380   30.3960 N   0  0  0  0  0  0  0  0  0  0  0  0
   34.9260   30.6140   32.0860 H   0  0  0  0  0  0  0  0  0  0  0  0
   34.8970   28.2930   32.7130 H   0  0  0  0  0  0  0  0  0  0  0  0
   37.5180   29.7060   28.8190 H   0  0  0  0  0  0  0  0  0  0  0  0
  1  2  1  0  0  0  0
  2  7  1  0  0  0  0
  3  4  1  0  0  0  0
  3  2  2  0  0  0  0
  4  5  2  0  0  0  0
  5  9  1  0  0  0  0
  5  6  1  0  0  0  0
  6 10  1  0  0  0  0
  7  6  2  0  0  0  0
  7 11  1  0  0  0  0
  8  4  1  0  0  0  0
 11 21  1  0  0  0  0
 11 12  1  0  0  0  0
 12 13  1  0  0  0  0
 12 14  2  0  0  0  0
 15 16  1  0  0  0  0
 15 14  1  0  0  0  0
 16 22  1  0  0  0  0
 17 16  2  0  0  0  0
 18 17  1  0  0  0  0
 19 18  1  0  0  0  0
 20 18  2  0  0  0  0
 20 21  1  0  0  0  0
 21 15  2  0  0  0  0
 22 23  1  0  0  0  0
 22 24  1  0  0  0  0
 25  3  1  0  0  0  0
 26 31  1  6  0  0  0
 26 30  1  0  0  0  0
 26 27  1  0  0  0  0
 26 25  1  0  0  0  0
 27 32  1  1  0  0  0
 28 29  1  0  0  0  0
 28 27  1  0  0  0  0
 28 33  1  0  0  0  0
 29 30  1  0  0  0  0
 30 36  1  0  0  0  0
 34 28  1  0  0  0  0
 35 30  1  0  0  0  0
 37 38  1  0  0  0  0
 37 43  1  0  0  0  0
 38 44  1  0  0  0  0
 39 27  1  0  0  0  0
 39 38  2  0  0  0  0
 40 39  1  0  0  0  0
 41 40  2  0  0  0  0
 41 42  1  0  0  0  0
 42 37  2  0  0  0  0
 45 41  1  0  0  0  0
M  END
>  <minimizedAffinity>
-6.29295969

$$$$

 OpenBabel03272501093D

 45 49  0  0  1  0  0  0  0  0999 V2000
   38.1980   27.5180   35.7400 Cl  0  0  0  0  0  0  0  0  0  0  0  0
   37.5180   26.8880   34.2660 C   0  0  0  0  0  0  0  0  0  0  0  0
   36.6720   27.7720   33.6130 C   0  0  0  0  0  0  0  0  0  0  0  0
   36.1270   27.2770   32.4370 C   0  0  0  0  0  0  0  0  0  0  0  0
   36.3970   26.0170   31.9540 C   0  0  0  0  0  0  0  0  0  0  0  0
   37.2510   25.1930   32.6590 C   0  0  0  0  0  0  0  0  0  0  0  0
   37.8190   25.6230   33.8240 C   0  0  0  0  0  0  0  0  0  0  0  0
   35.4460   27.8160   31.7900 H   0  0  0  0  0  0  0  0  0  0  0  0
   35.9970   25.5990   31.0510 H   0  0  0  0  0  0  0  0  0  0  0  0
   37.4890   24.1970   32.3130 H   0  0  0  0  0  0  0  0  0  0  0  0
   38.7020   24.8410   34.6060 N   0  0  0  0  0  0  0  0  0  0  0  0
   39.9440   24.4890   34.2480 C   0  0  0  0  0  0  0  0  0  0  0  0
   40.5150   24.6990   33.3580 H   0  0  0  0  0  0  0  0  0  0  0  0
   40.5220   23.7470   35.2080 N   0  0  0  0  0  0  0  0  0  0  0  0
   39.6570   23.5960   36.2320 C   0  0  0  0  0  0  0  0  0  0  0  0
   39.6530   22.9670   37.4600 C   0  0  0  0  0  0  0  0  0  0  0  0
   38.5580   23.0300   38.2580 N   0  0  0  0  0  0  0  0  0  0  0  0
   37.4510   23.7120   37.8610 C   0  0  0  0  0  0  0  0  0  0  0  0
   36.6030   23.7300   38.5380 H   0  0  0  0  0  0  0  0  0  0  0  0
   37.4610   24.3250   36.6570 N   0  0  0  0  0  0  0  0  0  0  0  0
   38.5260   24.2890   35.8320 C   0  0  0  0  0  0  0  0  0  0  0  0
   40.8310   22.2640   37.8400 N   0  0  0  0  0  0  0  0  0  0  0  0
   41.5790   22.2620   38.5650 H   0  0  0  0  0  0  0  0  0  0  0  0
   41.3660   21.4330   37.4540 H   0  0  0  0  0  0  0  0  0  0  0  0
   36.2590   29.0270   33.8780 O   0  0  0  0  0  0  0  0  0  0  0  0
   35.6490   30.0290   33.2050 C   0  0  2  0  0  0  0  0  0  0  0  0
   34.2740   29.5790   32.6040 C   0  0  2  0  0  0  0  0  0  0  0  0
   34.1630   30.4880   31.4720 C   0  0  0  0  0  0  0  0  0  0  0  0
   35.4330   30.6840   30.9480 O   0  0  0  0  0  0  0  0  0  0  0  0
   36.3430   30.2090   31.8270 C   0  0  0  0  0  0  0  0  0  0  0  0
   35.5780   31.0220   33.6370 H   0  0  0  0  0  0  0  0  0  0  0  0
   34.4500   28.5350   32.2620 H   0  0  0  0  0  0  0  0  0  0  0  0
   33.5320   29.9900   30.6790 H   0  0  0  0  0  0  0  0  0  0  0  0
   33.7420   31.4790   31.6670 H   0  0  0  0  0  0  0  0  0  0  0  0
   37.2210   30.8700   31.9440 H   0  0  0  0  0  0  0  0  0  0  0  0
   36.6880   29.1890   31.5320 H   0  0  0  0  0  0  0  0  0  0  0  0
   30.9760   28.9930   34.3210 C   0  0  0  0  0  0  0  0  0  0  0  0
   31.9710   28.9620   33.3000 C   0  0  0  0  0  0  0  0  0  0  0  0
   33.2280   29.5680   33.5920 C   0  0  0  0  0  0  0  0  0  0  0  0
   33.4300   30.1520   34.8280 N   0  0  0  0  0  0  0  0  0  0  0  0
   32.4550   30.1510   35.7480 C   0  0  0  0  0  0  0  0  0  0  0  0
   31.2380   29.5840   35.5140 N   0  0  0  0  0  0  0  0  0  0  0  0
   30.0500   28.5290   34.0610 H   0  0  0  0  0  0  0  0  0  0  0  0
   31.7590   28.4990   32.3710 H   0  0  0  0  0  0  0  0  0  0  0  0
   32.6780   30.6240   36.6920 H   0  0  0  0  0  0  0  0  0  0  0  0
  2  1  1  0  0  0  0
  3 25  1  0  0  0  0
  3  2  2  0  0  0  0
  4  3  1  0  0  0  0
  5  4  2  0  0  0  0
  5  6  1  0  0  0  0
  6  7  2  0  0  0  0
  7  2  1  0  0  0  0
  7 11  1  0  0  0  0
  8  4  1  0  0  0  0
  9  5  1  0  0  0  0
 10  6  1  0  0  0  0
 11 21  1  0  0  0  0
 12 11  1  0  0  0  0
 12 14  2  0  0  0  0
 13 12  1  0  0  0  0
 14 15  1  0  0  0  0
 15 16  1  0  0  0  0
 16 22  1  0  0  0  0
 16 17  2  0  0  0  0
 18 17  1  0  0  0  0
 18 19  1  0  0  0  0
 20 18  2  0  0  0  0
 21 15  2  0  0  0  0
 21 20  1  0  0  0  0
 22 23  1  0  0  0  0
 24 22  1  0  0  0  0
 26 31  1  1  0  0  0
 26 25  1  0  0  0  0
 27 32  1  6  0  0  0
 27 26  1  0  0  0  0
 27 39  1  0  0  0  0
 28 34  1  0  0  0  0
 28 27  1  0  0  0  0
 29 28  1  0  0  0  0
 29 30  1  0  0  0  0
 30 35  1  0  0  0  0
 30 26  1  0  0  0  0
 33 28  1  0  0  0  0
 36 30  1  0  0  0  0
 37 42  1  0  0  0  0
 38 39  1  0  0  0  0
 38 37  2  0  0  0  0
 39 40  2  0  0  0  0
 40 41  1  0  0  0  0
 41 45  1  0  0  0  0
 42 41  2  0  0  0  0
 43 37  1  0  0  0  0
 44 38  1  0  0  0  0
M  END
>  <minimizedAffinity>
-6.28411913

$$$$

 OpenBabel03272501093D

 45 49  0  0  1  0  0  0  0  0999 V2000
   38.7940   26.3260   33.9940 Cl  0  0  0  0  0  0  0  0  0  0  0  0
   37.7000   25.3720   33.0310 C   0  0  0  0  0  0  0  0  0  0  0  0
   36.9140   26.1190   32.1660 C   0  0  0  0  0  0  0  0  0  0  0  0
   36.0400   25.3650   31.3950 C   0  0  0  0  0  0  0  0  0  0  0  0
   35.9550   23.9940   31.4770 C   0  0  0  0  0  0  0  0  0  0  0  0
   36.7710   23.3190   32.3620 C   0  0  0  0  0  0  0  0  0  0  0  0
   37.6530   24.0050   33.1480 C   0  0  0  0  0  0  0  0  0  0  0  0
   35.3480   25.7650   30.6660 H   0  0  0  0  0  0  0  0  0  0  0  0
   35.2950   23.3770   30.9000 H   0  0  0  0  0  0  0  0  0  0  0  0
   36.7360   22.2420   32.4560 H   0  0  0  0  0  0  0  0  0  0  0  0
   38.5220   23.3900   34.0800 N   0  0  0  0  0  0  0  0  0  0  0  0
   39.5920   22.6480   33.7640 C   0  0  0  0  0  0  0  0  0  0  0  0
   40.0070   22.3670   32.8090 H   0  0  0  0  0  0  0  0  0  0  0  0
   40.2080   22.2060   34.8740 N   0  0  0  0  0  0  0  0  0  0  0  0
   39.5440   22.6590   35.9580 C   0  0  0  0  0  0  0  0  0  0  0  0
   39.6700   22.5570   37.3280 C   0  0  0  0  0  0  0  0  0  0  0  0
   38.7780   23.1710   38.1450 N   0  0  0  0  0  0  0  0  0  0  0  0
   37.7490   23.8930   37.6270 C   0  0  0  0  0  0  0  0  0  0  0  0
   37.0650   24.3630   38.3260 H   0  0  0  0  0  0  0  0  0  0  0  0
   37.6320   23.9890   36.2850 N   0  0  0  0  0  0  0  0  0  0  0  0
   38.4940   23.3960   35.4360 C   0  0  0  0  0  0  0  0  0  0  0  0
   40.7600   21.7920   37.8310 N   0  0  0  0  0  0  0  0  0  0  0  0
   41.6230   21.8860   38.4070 H   0  0  0  0  0  0  0  0  0  0  0  0
   41.0590   20.7760   37.7620 H   0  0  0  0  0  0  0  0  0  0  0  0
   36.8130   27.4380   31.9080 O   0  0  0  0  0  0  0  0  0  0  0  0
   36.5390   28.2160   30.8380 C   0  0  2  0  0  0  0  0  0  0  0  0
   37.7750   29.0780   30.4080 C   0  0  2  0  0  0  0  0  0  0  0  0
   37.1110   30.2080   29.7750 C   0  0  0  0  0  0  0  0  0  0  0  0
   35.9420   30.4700   30.4750 O   0  0  0  0  0  0  0  0  0  0  0  0
   35.6870   29.4300   31.2990 C   0  0  0  0  0  0  0  0  0  0  0  0
   36.0320   27.8050   29.9710 H   0  0  0  0  0  0  0  0  0  0  0  0
   38.2490   29.3790   31.3680 H   0  0  0  0  0  0  0  0  0  0  0  0
   37.7830   31.1110   29.8680 H   0  0  0  0  0  0  0  0  0  0  0  0
   36.8350   30.0990   28.7220 H   0  0  0  0  0  0  0  0  0  0  0  0
   34.6200   29.1410   31.3160 H   0  0  0  0  0  0  0  0  0  0  0  0
   36.0240   29.6520   32.3400 H   0  0  0  0  0  0  0  0  0  0  0  0
   40.6970   26.8880   29.4910 C   0  0  0  0  0  0  0  0  0  0  0  0
   39.7820   27.6170   30.3060 C   0  0  0  0  0  0  0  0  0  0  0  0
   38.7290   28.3150   29.6460 C   0  0  0  0  0  0  0  0  0  0  0  0
   38.6370   28.2630   28.2680 N   0  0  0  0  0  0  0  0  0  0  0  0
   39.5290   27.5600   27.5550 C   0  0  0  0  0  0  0  0  0  0  0  0
   40.5520   26.8760   28.1420 N   0  0  0  0  0  0  0  0  0  0  0  0
   41.4690   26.3800   30.0250 H   0  0  0  0  0  0  0  0  0  0  0  0
   39.9010   27.6220   31.3590 H   0  0  0  0  0  0  0  0  0  0  0  0
   39.4000   27.5600   26.4830 H   0  0  0  0  0  0  0  0  0  0  0  0
  2  7  1  0  0  0  0
  2  1  1  0  0  0  0
  3  2  2  0  0  0  0
  4  5  2  0  0  0  0
  4  3  1  0  0  0  0
  5  6  1  0  0  0  0
  6 10  1  0  0  0  0
  6  7  2  0  0  0  0
  7 11  1  0  0  0  0
  8  4  1  0  0  0  0
  9  5  1  0  0  0  0
 11 21  1  0  0  0  0
 12 11  1  0  0  0  0
 12 14  2  0  0  0  0
 13 12  1  0  0  0  0
 14 15  1  0  0  0  0
 15 16  1  0  0  0  0
 16 22  1  0  0  0  0
 16 17  2  0  0  0  0
 18 17  1  0  0  0  0
 18 19  1  0  0  0  0
 20 18  2  0  0  0  0
 21 15  2  0  0  0  0
 21 20  1  0  0  0  0
 22 23  1  0  0  0  0
 24 22  1  0  0  0  0
 25  3  1  0  0  0  0
 26 31  1  6  0  0  0
 26 30  1  0  0  0  0
 26 25  1  0  0  0  0
 27 26  1  0  0  0  0
 27 32  1  1  0  0  0
 28 33  1  0  0  0  0
 28 27  1  0  0  0  0
 28 29  1  0  0  0  0
 29 30  1  0  0  0  0
 30 35  1  0  0  0  0
 30 36  1  0  0  0  0
 34 28  1  0  0  0  0
 37 43  1  0  0  0  0
 37 38  1  0  0  0  0
 38 44  1  0  0  0  0
 39 38  2  0  0  0  0
 39 27  1  0  0  0  0
 40 39  1  0  0  0  0
 41 42  1  0  0  0  0
 41 40  2  0  0  0  0
 42 37  2  0  0  0  0
 45 41  1  0  0  0  0
M  END
>  <minimizedAffinity>
-6.24122047

$$$$

 OpenBabel03272501093D

 45 49  0  0  1  0  0  0  0  0999 V2000
   38.5120   27.1150   33.7790 Cl  0  0  0  0  0  0  0  0  0  0  0  0
   37.7310   25.7450   33.0390 C   0  0  0  0  0  0  0  0  0  0  0  0
   38.1150   24.5230   33.5730 C   0  0  0  0  0  0  0  0  0  0  0  0
   37.4970   23.4260   32.9900 C   0  0  0  0  0  0  0  0  0  0  0  0
   36.5820   23.5340   31.9670 C   0  0  0  0  0  0  0  0  0  0  0  0
   36.2490   24.7840   31.4870 C   0  0  0  0  0  0  0  0  0  0  0  0
   36.8240   25.9030   32.0220 C   0  0  0  0  0  0  0  0  0  0  0  0
   37.6650   22.3940   33.2680 H   0  0  0  0  0  0  0  0  0  0  0  0
   36.0830   22.7130   31.4910 H   0  0  0  0  0  0  0  0  0  0  0  0
   35.5350   24.9120   30.6860 H   0  0  0  0  0  0  0  0  0  0  0  0
   36.5390   27.2190   31.5870 N   0  0  0  0  0  0  0  0  0  0  0  0
   35.5900   28.0130   32.1010 C   0  0  0  0  0  0  0  0  0  0  0  0
   34.8820   27.8530   32.8970 H   0  0  0  0  0  0  0  0  0  0  0  0
   35.5720   29.2000   31.4710 N   0  0  0  0  0  0  0  0  0  0  0  0
   36.5240   29.2080   30.5150 C   0  0  0  0  0  0  0  0  0  0  0  0
   36.9880   30.0960   29.5660 C   0  0  0  0  0  0  0  0  0  0  0  0
   38.0060   29.7450   28.7400 N   0  0  0  0  0  0  0  0  0  0  0  0
   38.5820   28.5180   28.8350 C   0  0  0  0  0  0  0  0  0  0  0  0
   39.3920   28.2900   28.1500 H   0  0  0  0  0  0  0  0  0  0  0  0
   38.1240   27.6540   29.7660 N   0  0  0  0  0  0  0  0  0  0  0  0
   37.1150   27.9590   30.6070 C   0  0  0  0  0  0  0  0  0  0  0  0
   36.3590   31.3710   29.4980 N   0  0  0  0  0  0  0  0  0  0  0  0
   36.5630   32.3860   29.6110 H   0  0  0  0  0  0  0  0  0  0  0  0
   35.3760   31.7120   29.2880 H   0  0  0  0  0  0  0  0  0  0  0  0
   38.9700   24.1660   34.5510 O   0  0  0  0  0  0  0  0  0  0  0  0
   39.0950   24.3790   35.8800 C   0  0  2  0  0  0  0  0  0  0  0  0
   39.4360   23.0610   36.6560 C   0  0  2  0  0  0  0  0  0  0  0  0
   38.8840   23.3680   37.9670 C   0  0  0  0  0  0  0  0  0  0  0  0
   37.7290   24.1160   37.7870 O   0  0  0  0  0  0  0  0  0  0  0  0
   37.6800   24.5360   36.5030 C   0  0  0  0  0  0  0  0  0  0  0  0
   39.6810   25.2130   36.2540 H   0  0  0  0  0  0  0  0  0  0  0  0
   38.8370   22.2770   36.1440 H   0  0  0  0  0  0  0  0  0  0  0  0
   38.5960   22.3970   38.4660 H   0  0  0  0  0  0  0  0  0  0  0  0
   39.5210   23.9280   38.6590 H   0  0  0  0  0  0  0  0  0  0  0  0
   37.3520   25.5870   36.4020 H   0  0  0  0  0  0  0  0  0  0  0  0
   37.0130   23.8820   35.8930 H   0  0  0  0  0  0  0  0  0  0  0  0
   42.6910   21.1880   36.9200 C   0  0  0  0  0  0  0  0  0  0  0  0
   41.2980   21.4640   37.0470 C   0  0  0  0  0  0  0  0  0  0  0  0
   40.8290   22.7160   36.5510 C   0  0  0  0  0  0  0  0  0  0  0  0
   41.7250   23.5980   35.9790 N   0  0  0  0  0  0  0  0  0  0  0  0
   43.0250   23.2830   35.8870 C   0  0  0  0  0  0  0  0  0  0  0  0
   43.5190   22.0990   36.3470 N   0  0  0  0  0  0  0  0  0  0  0  0
   42.9990   20.2410   37.3030 H   0  0  0  0  0  0  0  0  0  0  0  0
   40.6570   20.7490   37.4960 H   0  0  0  0  0  0  0  0  0  0  0  0
   43.6710   24.0170   35.4290 H   0  0  0  0  0  0  0  0  0  0  0  0
  2  3  1  0  0  0  0
  2  1  1  0  0  0  0
  3 25  1  0  0  0  0
  4  8  1  0  0  0  0
  4  3  2  0  0  0  0
  5  4  1  0  0  0  0
  6  5  2  0  0  0  0
  6  7  1  0  0  0  0
  7  2  2  0  0  0  0
  9  5  1  0  0  0  0
 10  6  1  0  0  0  0
 11  7  1  0  0  0  0
 11 12  1  0  0  0  0
 12 13  1  0  0  0  0
 14 12  2  0  0  0  0
 15 21  1  0  0  0  0
 15 14  1  0  0  0  0
 16 15  2  0  0  0  0
 17 18  2  0  0  0  0
 17 16  1  0  0  0  0
 18 20  1  0  0  0  0
 19 18  1  0  0  0  0
 20 21  2  0  0  0  0
 21 11  1  0  0  0  0
 22 16  1  0  0  0  0
 22 23  1  0  0  0  0
 24 22  1  0  0  0  0
 25 26  1  0  0  0  0
 26 31  1  1  0  0  0
 26 30  1  0  0  0  0
 26 27  1  0  0  0  0
 27 32  1  6  0  0  0
 27 28  1  0  0  0  0
 28 33  1  0  0  0  0
 28 34  1  0  0  0  0
 29 28  1  0  0  0  0
 30 29  1  0  0  0  0
 35 30  1  0  0  0  0
 36 30  1  0  0  0  0
 37 38  1  0  0  0  0
 37 43  1  0  0  0  0
 38 44  1  0  0  0  0
 39 27  1  0  0  0  0
 39 38  2  0  0  0  0
 40 39  1  0  0  0  0
 41 40  2  0  0  0  0
 41 42  1  0  0  0  0
 42 37  2  0  0  0  0
 45 41  1  0  0  0  0
M  END
>  <minimizedAffinity>
-6.18700695

$$$$

 OpenBabel03272501093D

 45 49  0  0  1  0  0  0  0  0999 V2000
   38.2420   26.6090   33.5340 Cl  0  0  0  0  0  0  0  0  0  0  0  0
   37.2990   25.4040   32.7040 C   0  0  0  0  0  0  0  0  0  0  0  0
   36.2640   25.9260   31.9400 C   0  0  0  0  0  0  0  0  0  0  0  0
   35.5080   24.9710   31.2750 C   0  0  0  0  0  0  0  0  0  0  0  0
   35.7570   23.6200   31.3610 C   0  0  0  0  0  0  0  0  0  0  0  0
   36.8050   23.1750   32.1410 C   0  0  0  0  0  0  0  0  0  0  0  0
   37.5860   24.0660   32.8210 C   0  0  0  0  0  0  0  0  0  0  0  0
   34.6630   25.1820   30.6340 H   0  0  0  0  0  0  0  0  0  0  0  0
   35.1970   22.8530   30.8640 H   0  0  0  0  0  0  0  0  0  0  0  0
   37.0330   22.1230   32.2350 H   0  0  0  0  0  0  0  0  0  0  0  0
   38.6770   23.6930   33.6410 N   0  0  0  0  0  0  0  0  0  0  0  0
   39.9190   23.4410   33.2060 C   0  0  0  0  0  0  0  0  0  0  0  0
   40.3440   23.4610   32.2160 H   0  0  0  0  0  0  0  0  0  0  0  0
   40.7230   23.1120   34.2320 N   0  0  0  0  0  0  0  0  0  0  0  0
   40.0120   23.1420   35.3790 C   0  0  0  0  0  0  0  0  0  0  0  0
   40.2550   22.9120   36.7170 C   0  0  0  0  0  0  0  0  0  0  0  0
   39.2560   23.0440   37.6260 N   0  0  0  0  0  0  0  0  0  0  0  0
   38.0060   23.4030   37.2330 C   0  0  0  0  0  0  0  0  0  0  0  0
   37.2450   23.4940   38.0010 H   0  0  0  0  0  0  0  0  0  0  0  0
   37.7750   23.6270   35.9210 N   0  0  0  0  0  0  0  0  0  0  0  0
   38.7360   23.5080   34.9840 C   0  0  0  0  0  0  0  0  0  0  0  0
   41.5770   22.5380   37.0890 N   0  0  0  0  0  0  0  0  0  0  0  0
   42.3830   22.8630   37.6630 H   0  0  0  0  0  0  0  0  0  0  0  0
   42.2150   21.7200   36.8670 H   0  0  0  0  0  0  0  0  0  0  0  0
   35.8300   27.1790   31.7010 O   0  0  0  0  0  0  0  0  0  0  0  0
   36.3800   28.4060   31.5680 C   0  0  2  0  0  0  0  0  0  0  0  0
   35.2930   29.5330   31.5100 C   0  0  2  0  0  0  0  0  0  0  0  0
   35.9980   30.5500   30.7450 C   0  0  0  0  0  0  0  0  0  0  0  0
   36.7850   29.9120   29.7980 O   0  0  0  0  0  0  0  0  0  0  0  0
   36.8460   28.5970   30.0990 C   0  0  0  0  0  0  0  0  0  0  0  0
   37.2180   28.7070   32.1900 H   0  0  0  0  0  0  0  0  0  0  0  0
   34.4660   29.0870   30.9140 H   0  0  0  0  0  0  0  0  0  0  0  0
   35.2330   31.1760   30.1990 H   0  0  0  0  0  0  0  0  0  0  0  0
   36.6540   31.2280   31.3010 H   0  0  0  0  0  0  0  0  0  0  0  0
   37.8580   28.1690   29.9790 H   0  0  0  0  0  0  0  0  0  0  0  0
   36.1240   28.0110   29.4800 H   0  0  0  0  0  0  0  0  0  0  0  0
   35.0210   30.9390   34.9910 C   0  0  0  0  0  0  0  0  0  0  0  0
   35.5770   30.6500   33.7100 C   0  0  0  0  0  0  0  0  0  0  0  0
   34.7890   29.8680   32.8160 C   0  0  0  0  0  0  0  0  0  0  0  0
   33.5420   29.4260   33.2160 N   0  0  0  0  0  0  0  0  0  0  0  0
   33.0730   29.7300   34.4350 C   0  0  0  0  0  0  0  0  0  0  0  0
   33.7900   30.4750   35.3240 N   0  0  0  0  0  0  0  0  0  0  0  0
   35.6430   31.5270   35.6290 H   0  0  0  0  0  0  0  0  0  0  0  0
   36.5380   31.0160   33.4570 H   0  0  0  0  0  0  0  0  0  0  0  0
   32.0930   29.3540   34.6850 H   0  0  0  0  0  0  0  0  0  0  0  0
  2  7  1  0  0  0  0
  2  1  1  0  0  0  0
  3  2  2  0  0  0  0
  4  5  2  0  0  0  0
  4  3  1  0  0  0  0
  5  6  1  0  0  0  0
  6 10  1  0  0  0  0
  6  7  2  0  0  0  0
  7 11  1  0  0  0  0
  8  4  1  0  0  0  0
  9  5  1  0  0  0  0
 11 21  1  0  0  0  0
 12 11  1  0  0  0  0
 12 14  2  0  0  0  0
 13 12  1  0  0  0  0
 14 15  1  0  0  0  0
 15 16  1  0  0  0  0
 16 22  1  0  0  0  0
 16 17  2  0  0  0  0
 18 17  1  0  0  0  0
 18 19  1  0  0  0  0
 20 18  2  0  0  0  0
 21 15  2  0  0  0  0
 21 20  1  0  0  0  0
 22 23  1  0  0  0  0
 24 22  1  0  0  0  0
 25  3  1  0  0  0  0
 26 25  1  0  0  0  0
 26 31  1  1  0  0  0
 27 32  1  6  0  0  0
 27 26  1  0  0  0  0
 27 39  1  0  0  0  0
 28 34  1  0  0  0  0
 28 27  1  0  0  0  0
 29 30  1  0  0  0  0
 29 28  1  0  0  0  0
 30 26  1  0  0  0  0
 33 28  1  0  0  0  0
 35 30  1  0  0  0  0
 36 30  1  0  0  0  0
 37 42  1  0  0  0  0
 37 43  1  0  0  0  0
 38 37  2  0  0  0  0
 39 40  2  0  0  0  0
 39 38  1  0  0  0  0
 40 41  1  0  0  0  0
 41 45  1  0  0  0  0
 41 42  2  0  0  0  0
 44 38  1  0  0  0  0
M  END
>  <minimizedAffinity>
-6.13487053

$$$$

 OpenBabel03272501093D

 45 49  0  0  1  0  0  0  0  0999 V2000
   37.8200   27.0530   33.4010 Cl  0  0  0  0  0  0  0  0  0  0  0  0
   36.8090   26.0560   32.3920 C   0  0  0  0  0  0  0  0  0  0  0  0
   37.0020   24.6940   32.5730 C   0  0  0  0  0  0  0  0  0  0  0  0
   36.2000   23.8930   31.7730 C   0  0  0  0  0  0  0  0  0  0  0  0
   35.2880   24.4000   30.8740 C   0  0  0  0  0  0  0  0  0  0  0  0
   35.1510   25.7670   30.7500 C   0  0  0  0  0  0  0  0  0  0  0  0
   35.9130   26.6080   31.5100 C   0  0  0  0  0  0  0  0  0  0  0  0
   36.2050   22.8110   31.7690 H   0  0  0  0  0  0  0  0  0  0  0  0
   34.6510   23.8160   30.2400 H   0  0  0  0  0  0  0  0  0  0  0  0
   34.4470   26.2050   30.0560 H   0  0  0  0  0  0  0  0  0  0  0  0
   35.8350   28.0200   31.4430 N   0  0  0  0  0  0  0  0  0  0  0  0
   35.1600   28.7970   32.3010 C   0  0  0  0  0  0  0  0  0  0  0  0
   34.5690   28.5540   33.1680 H   0  0  0  0  0  0  0  0  0  0  0  0
   35.2820   30.0930   31.9640 N   0  0  0  0  0  0  0  0  0  0  0  0
   36.0530   30.1920   30.8600 C   0  0  0  0  0  0  0  0  0  0  0  0
   36.5300   31.2070   30.0570 C   0  0  0  0  0  0  0  0  0  0  0  0
   37.3120   30.9210   28.9850 N   0  0  0  0  0  0  0  0  0  0  0  0
   37.6350   29.6350   28.6890 C   0  0  0  0  0  0  0  0  0  0  0  0
   38.2640   29.4630   27.8210 H   0  0  0  0  0  0  0  0  0  0  0  0
   37.1660   28.6460   29.4800 N   0  0  0  0  0  0  0  0  0  0  0  0
   36.3860   28.8840   30.5540 C   0  0  0  0  0  0  0  0  0  0  0  0
   36.1680   32.5400   30.4000 N   0  0  0  0  0  0  0  0  0  0  0  0
   36.5890   33.4480   30.6890 H   0  0  0  0  0  0  0  0  0  0  0  0
   35.2540   33.0740   30.4740 H   0  0  0  0  0  0  0  0  0  0  0  0
   37.8130   23.9700   33.3690 O   0  0  0  0  0  0  0  0  0  0  0  0
   39.1290   23.6660   33.4230 C   0  0  2  0  0  0  0  0  0  0  0  0
   39.8830   24.5140   34.5030 C   0  0  2  0  0  0  0  0  0  0  0  0
   41.2290   24.5220   33.9500 C   0  0  0  0  0  0  0  0  0  0  0  0
   41.1290   24.5800   32.5680 O   0  0  0  0  0  0  0  0  0  0  0  0
   39.8510   24.3210   32.2140 C   0  0  0  0  0  0  0  0  0  0  0  0
   39.4560   22.6310   33.4440 H   0  0  0  0  0  0  0  0  0  0  0  0
   39.4170   25.5220   34.4370 H   0  0  0  0  0  0  0  0  0  0  0  0
   41.7500   25.4600   34.3020 H   0  0  0  0  0  0  0  0  0  0  0  0
   41.8710   23.6690   34.1880 H   0  0  0  0  0  0  0  0  0  0  0  0
   39.7690   23.6540   31.3360 H   0  0  0  0  0  0  0  0  0  0  0  0
   39.2920   25.2660   32.0110 H   0  0  0  0  0  0  0  0  0  0  0  0
   40.3280   22.5830   37.7040 C   0  0  0  0  0  0  0  0  0  0  0  0
   40.5920   23.0560   36.3850 C   0  0  0  0  0  0  0  0  0  0  0  0
   39.6800   24.0030   35.8330 C   0  0  0  0  0  0  0  0  0  0  0  0
   38.5950   24.4170   36.5810 N   0  0  0  0  0  0  0  0  0  0  0  0
   38.3980   23.9350   37.8170 C   0  0  0  0  0  0  0  0  0  0  0  0
   39.2430   23.0300   38.3870 N   0  0  0  0  0  0  0  0  0  0  0  0
   41.0350   21.8770   38.0790 H   0  0  0  0  0  0  0  0  0  0  0  0
   41.4410   22.7030   35.8580 H   0  0  0  0  0  0  0  0  0  0  0  0
   37.5320   24.3000   38.3480 H   0  0  0  0  0  0  0  0  0  0  0  0
  2  3  1  0  0  0  0
  2  1  1  0  0  0  0
  3 25  1  0  0  0  0
  4  3  2  0  0  0  0
  5  4  1  0  0  0  0
  6  5  2  0  0  0  0
  6  7  1  0  0  0  0
  7  2  2  0  0  0  0
  8  4  1  0  0  0  0
  9  5  1  0  0  0  0
 10  6  1  0  0  0  0
 11  7  1  0  0  0  0
 11 12  1  0  0  0  0
 12 13  1  0  0  0  0
 14 12  2  0  0  0  0
 15 14  1  0  0  0  0
 16 22  1  0  0  0  0
 16 15  2  0  0  0  0
 17 16  1  0  0  0  0
 18 17  2  0  0  0  0
 18 20  1  0  0  0  0
 19 18  1  0  0  0  0
 20 21  2  0  0  0  0
 21 15  1  0  0  0  0
 21 11  1  0  0  0  0
 22 24  1  0  0  0  0
 22 23  1  0  0  0  0
 25 26  1  0  0  0  0
 26 31  1  1  0  0  0
 26 27  1  0  0  0  0
 27 32  1  6  0  0  0
 27 39  1  0  0  0  0
 28 34  1  0  0  0  0
 28 33  1  0  0  0  0
 28 27  1  0  0  0  0
 29 28  1  0  0  0  0
 30 29  1  0  0  0  0
 30 26  1  0  0  0  0
 35 30  1  0  0  0  0
 36 30  1  0  0  0  0
 37 43  1  0  0  0  0
 37 42  1  0  0  0  0
 38 37  2  0  0  0  0
 39 38  1  0  0  0  0
 39 40  2  0  0  0  0
 40 41  1  0  0  0  0
 41 45  1  0  0  0  0
 41 42  2  0  0  0  0
 44 38  1  0  0  0  0
M  END
>  <minimizedAffinity>
-6.13020563

$$$$

 OpenBabel03272501093D

 45 49  0  0  1  0  0  0  0  0999 V2000
   37.4340   25.7420   34.3740 Cl  0  0  0  0  0  0  0  0  0  0  0  0
   39.0810   25.1780   34.3580 C   0  0  0  0  0  0  0  0  0  0  0  0
   39.9330   25.9490   33.5810 C   0  0  0  0  0  0  0  0  0  0  0  0
   41.2480   25.5060   33.5630 C   0  0  0  0  0  0  0  0  0  0  0  0
   41.6770   24.3950   34.2550 C   0  0  0  0  0  0  0  0  0  0  0  0
   40.7700   23.6770   35.0080 C   0  0  0  0  0  0  0  0  0  0  0  0
   39.4610   24.0640   35.0650 C   0  0  0  0  0  0  0  0  0  0  0  0
   42.0560   25.9730   33.0170 H   0  0  0  0  0  0  0  0  0  0  0  0
   42.6810   24.0210   34.2670 H   0  0  0  0  0  0  0  0  0  0  0  0
   41.0670   22.8000   35.5650 H   0  0  0  0  0  0  0  0  0  0  0  0
   38.4700   23.3830   35.8120 N   0  0  0  0  0  0  0  0  0  0  0  0
   38.2500   23.5390   37.1240 C   0  0  0  0  0  0  0  0  0  0  0  0
   38.7330   24.1630   37.8580 H   0  0  0  0  0  0  0  0  0  0  0  0
   37.2410   22.7500   37.5320 N   0  0  0  0  0  0  0  0  0  0  0  0
   36.7710   22.0510   36.4780 C   0  0  0  0  0  0  0  0  0  0  0  0
   35.7830   21.1140   36.2530 C   0  0  0  0  0  0  0  0  0  0  0  0
   35.5890   20.6090   35.0090 N   0  0  0  0  0  0  0  0  0  0  0  0
   36.3620   21.0180   33.9690 C   0  0  0  0  0  0  0  0  0  0  0  0
   36.1640   20.5820   32.9950 H   0  0  0  0  0  0  0  0  0  0  0  0
   37.3270   21.9360   34.1950 N   0  0  0  0  0  0  0  0  0  0  0  0
   37.5550   22.4640   35.4130 C   0  0  0  0  0  0  0  0  0  0  0  0
   34.9950   20.7120   37.3690 N   0  0  0  0  0  0  0  0  0  0  0  0
   34.0130   20.7160   37.7130 H   0  0  0  0  0  0  0  0  0  0  0  0
   35.1940   20.2320   38.2930 H   0  0  0  0  0  0  0  0  0  0  0  0
   39.7570   27.0530   32.8290 O   0  0  0  0  0  0  0  0  0  0  0  0
   39.5140   27.3330   31.5290 C   0  0  2  0  0  0  0  0  0  0  0  0
   39.1980   26.0420   30.7000 C   0  0  2  0  0  0  0  0  0  0  0  0
   39.6240   26.4600   29.3730 C   0  0  0  0  0  0  0  0  0  0  0  0
   40.7390   27.2730   29.5120 O   0  0  0  0  0  0  0  0  0  0  0  0
   40.8620   27.6220   30.8120 C   0  0  0  0  0  0  0  0  0  0  0  0
   38.8490   28.1450   31.2530 H   0  0  0  0  0  0  0  0  0  0  0  0
   39.8830   25.2720   31.1160 H   0  0  0  0  0  0  0  0  0  0  0  0
   39.9320   25.5410   28.7940 H   0  0  0  0  0  0  0  0  0  0  0  0
   38.9000   27.0140   28.7670 H   0  0  0  0  0  0  0  0  0  0  0  0
   41.1300   28.6840   30.9540 H   0  0  0  0  0  0  0  0  0  0  0  0
   41.6160   26.9800   31.3280 H   0  0  0  0  0  0  0  0  0  0  0  0
   36.1840   23.8320   31.1570 C   0  0  0  0  0  0  0  0  0  0  0  0
   37.5490   24.2040   30.9800 C   0  0  0  0  0  0  0  0  0  0  0  0
   37.8410   25.5970   30.8870 C   0  0  0  0  0  0  0  0  0  0  0  0
   36.8120   26.5150   30.9680 N   0  0  0  0  0  0  0  0  0  0  0  0
   35.5470   26.1040   31.1340 C   0  0  0  0  0  0  0  0  0  0  0  0
   35.2190   24.7840   31.2290 N   0  0  0  0  0  0  0  0  0  0  0  0
   36.0090   22.7810   31.2210 H   0  0  0  0  0  0  0  0  0  0  0  0
   38.2970   23.4570   30.9240 H   0  0  0  0  0  0  0  0  0  0  0  0
   34.7900   26.8720   31.1900 H   0  0  0  0  0  0  0  0  0  0  0  0
  2  1  1  0  0  0  0
  2  7  1  0  0  0  0
  3  2  2  0  0  0  0
  4  3  1  0  0  0  0
  4  5  2  0  0  0  0
  5  9  1  0  0  0  0
  5  6  1  0  0  0  0
  6  7  2  0  0  0  0
  6 10  1  0  0  0  0
  7 11  1  0  0  0  0
  8  4  1  0  0  0  0
 11 12  1  0  0  0  0
 12 14  2  0  0  0  0
 12 13  1  0  0  0  0
 15 14  1  0  0  0  0
 16 15  1  0  0  0  0
 16 22  1  0  0  0  0
 17 16  2  0  0  0  0
 18 20  2  0  0  0  0
 18 17  1  0  0  0  0
 19 18  1  0  0  0  0
 20 21  1  0  0  0  0
 21 11  1  0  0  0  0
 21 15  2  0  0  0  0
 22 23  1  0  0  0  0
 22 24  1  0  0  0  0
 25  3  1  0  0  0  0
 26 31  1  6  0  0  0
 26 25  1  0  0  0  0
 27 39  1  0  0  0  0
 27 32  1  1  0  0  0
 27 26  1  0  0  0  0
 28 29  1  0  0  0  0
 28 27  1  0  0  0  0
 29 30  1  0  0  0  0
 30 35  1  0  0  0  0
 30 36  1  0  0  0  0
 30 26  1  0  0  0  0
 33 28  1  0  0  0  0
 34 28  1  0  0  0  0
 37 43  1  0  0  0  0
 37 42  1  0  0  0  0
 38 37  2  0  0  0  0
 39 40  2  0  0  0  0
 39 38  1  0  0  0  0
 40 41  1  0  0  0  0
 41 45  1  0  0  0  0
 41 42  2  0  0  0  0
 44 38  1  0  0  0  0
M  END
>  <minimizedAffinity>
-6.11266136

$$$$

 OpenBabel03272501093D

 45 49  0  0  1  0  0  0  0  0999 V2000
   36.4910   27.9140   34.4080 Cl  0  0  0  0  0  0  0  0  0  0  0  0
   35.9670   29.0220   33.1710 C   0  0  0  0  0  0  0  0  0  0  0  0
   35.2020   30.0770   33.6470 C   0  0  0  0  0  0  0  0  0  0  0  0
   34.7820   30.9640   32.6660 C   0  0  0  0  0  0  0  0  0  0  0  0
   35.0920   30.8160   31.3330 C   0  0  0  0  0  0  0  0  0  0  0  0
   35.8590   29.7400   30.9340 C   0  0  0  0  0  0  0  0  0  0  0  0
   36.3030   28.8310   31.8530 C   0  0  0  0  0  0  0  0  0  0  0  0
   34.1790   31.8450   32.8400 H   0  0  0  0  0  0  0  0  0  0  0  0
   34.7880   31.4780   30.5480 H   0  0  0  0  0  0  0  0  0  0  0  0
   36.1250   29.5880   29.8980 H   0  0  0  0  0  0  0  0  0  0  0  0
   37.0920   27.7020   31.5270 N   0  0  0  0  0  0  0  0  0  0  0  0
   38.4210   27.7110   31.3590 C   0  0  0  0  0  0  0  0  0  0  0  0
   39.1410   28.5100   31.4260 H   0  0  0  0  0  0  0  0  0  0  0  0
   38.8690   26.4810   31.0560 N   0  0  0  0  0  0  0  0  0  0  0  0
   37.8260   25.6260   31.0190 C   0  0  0  0  0  0  0  0  0  0  0  0
   37.6360   24.2810   30.7750 C   0  0  0  0  0  0  0  0  0  0  0  0
   36.3910   23.7450   30.8280 N   0  0  0  0  0  0  0  0  0  0  0  0
   35.3150   24.5220   31.1200 C   0  0  0  0  0  0  0  0  0  0  0  0
   34.3420   24.0420   31.1490 H   0  0  0  0  0  0  0  0  0  0  0  0
   35.5070   25.8370   31.3580 N   0  0  0  0  0  0  0  0  0  0  0  0
   36.7250   26.4130   31.3170 C   0  0  0  0  0  0  0  0  0  0  0  0
   38.7880   23.5020   30.4720 N   0  0  0  0  0  0  0  0  0  0  0  0
   39.3430   22.6970   30.8320 H   0  0  0  0  0  0  0  0  0  0  0  0
   39.5140   23.5060   29.6990 H   0  0  0  0  0  0  0  0  0  0  0  0
   34.7740   30.4310   34.8740 O   0  0  0  0  0  0  0  0  0  0  0  0
   33.8900   31.3120   35.3940 C   0  0  2  0  0  0  0  0  0  0  0  0
   34.4840   32.0810   36.6240 C   0  0  2  0  0  0  0  0  0  0  0  0
   33.2680   32.4030   37.3550 C   0  0  0  0  0  0  0  0  0  0  0  0
   32.3810   31.3470   37.2080 O   0  0  0  0  0  0  0  0  0  0  0  0
   32.8300   30.5370   36.2240 C   0  0  0  0  0  0  0  0  0  0  0  0
   33.3330   31.9840   34.7480 H   0  0  0  0  0  0  0  0  0  0  0  0
   35.0840   31.3160   37.1640 H   0  0  0  0  0  0  0  0  0  0  0  0
   33.5270   32.4920   38.4510 H   0  0  0  0  0  0  0  0  0  0  0  0
   32.7330   33.3110   37.0590 H   0  0  0  0  0  0  0  0  0  0  0  0
   32.0270   30.1850   35.5500 H   0  0  0  0  0  0  0  0  0  0  0  0
   33.3690   29.6550   36.6450 H   0  0  0  0  0  0  0  0  0  0  0  0
   37.4350   33.9670   35.2420 C   0  0  0  0  0  0  0  0  0  0  0  0
   36.6130   32.8610   35.6070 C   0  0  0  0  0  0  0  0  0  0  0  0
   35.3600   33.1510   36.2230 C   0  0  0  0  0  0  0  0  0  0  0  0
   34.9980   34.4660   36.4410 N   0  0  0  0  0  0  0  0  0  0  0  0
   35.8140   35.4650   36.0770 C   0  0  0  0  0  0  0  0  0  0  0  0
   37.0210   35.2370   35.4840 N   0  0  0  0  0  0  0  0  0  0  0  0
   38.3630   33.7060   34.7840 H   0  0  0  0  0  0  0  0  0  0  0  0
   36.9420   31.8720   35.4150 H   0  0  0  0  0  0  0  0  0  0  0  0
   35.4710   36.4690   36.2750 H   0  0  0  0  0  0  0  0  0  0  0  0
  2  3  1  0  0  0  0
  2  1  1  0  0  0  0
  3 25  1  0  0  0  0
  4  8  1  0  0  0  0
  4  3  2  0  0  0  0
  5  4  1  0  0  0  0
  6  5  2  0  0  0  0
  6  7  1  0  0  0  0
  7  2  2  0  0  0  0
  9  5  1  0  0  0  0
 10  6  1  0  0  0  0
 11  7  1  0  0  0  0
 12 13  1  0  0  0  0
 12 11  1  0  0  0  0
 14 12  2  0  0  0  0
 15 14  1  0  0  0  0
 15 21  1  0  0  0  0
 16 17  1  0  0  0  0
 16 15  2  0  0  0  0
 17 18  2  0  0  0  0
 18 19  1  0  0  0  0
 18 20  1  0  0  0  0
 21 20  2  0  0  0  0
 21 11  1  0  0  0  0
 22 16  1  0  0  0  0
 22 23  1  0  0  0  0
 24 22  1  0  0  0  0
 25 26  1  0  0  0  0
 26 31  1  6  0  0  0
 26 30  1  0  0  0  0
 26 27  1  0  0  0  0
 27 32  1  1  0  0  0
 27 28  1  0  0  0  0
 28 33  1  0  0  0  0
 29 28  1  0  0  0  0
 30 36  1  0  0  0  0
 30 29  1  0  0  0  0
 34 28  1  0  0  0  0
 35 30  1  0  0  0  0
 37 42  2  0  0  0  0
 37 38  1  0  0  0  0
 38 39  2  0  0  0  0
 39 40  1  0  0  0  0
 39 27  1  0  0  0  0
 41 45  1  0  0  0  0
 41 40  2  0  0  0  0
 42 41  1  0  0  0  0
 43 37  1  0  0  0  0
 44 38  1  0  0  0  0
M  END
>  <minimizedAffinity>
-6.10242176

$$$$
