
     RDKit          3D

 45 49  0  0  0  0  0  0  0  0999 V2000
   38.9559   32.3670   47.7914 C   0  0  2  0  0  0  0  0  0  0  0  0
   38.0014   32.7456   48.9739 C   0  0  2  0  0  0  0  0  0  0  0  0
   38.8948   33.5458   49.7983 C   0  0  0  0  0  0  0  0  0  0  0  0
   39.7300   34.2668   48.9570 O   0  0  0  0  0  0  0  0  0  0  0  0
   39.6220   33.7682   47.7063 C   0  0  0  0  0  0  0  0  0  0  0  0
   37.3632   29.6942   51.0835 C   0  0  0  0  0  0  0  0  0  0  0  0
   38.0405   30.8326   50.5595 C   0  0  0  0  0  0  0  0  0  0  0  0
   37.3698   31.5887   49.5526 C   0  0  0  0  0  0  0  0  0  0  0  0
   36.1136   31.1964   49.1317 N   0  0  0  0  0  0  0  0  0  0  0  0
   35.5274   30.1141   49.6634 C   0  0  0  0  0  0  0  0  0  0  0  0
   36.1289   29.3615   50.6270 N   0  0  0  0  0  0  0  0  0  0  0  0
   38.2750   32.1321   46.6474 O   0  0  0  0  0  0  0  0  0  0  0  0
   40.9440   31.2644   45.3708 Cl  0  0  0  0  0  0  0  0  0  0  0  0
   39.3670   30.6936   44.8999 C   0  0  0  0  0  0  0  0  0  0  0  0
   38.3268   31.2428   45.6356 C   0  0  0  0  0  0  0  0  0  0  0  0
   37.0673   30.7941   45.2662 C   0  0  0  0  0  0  0  0  0  0  0  0
   36.8604   29.8813   44.2566 C   0  0  0  0  0  0  0  0  0  0  0  0
   37.9451   29.3776   43.5677 C   0  0  0  0  0  0  0  0  0  0  0  0
   39.2110   29.7822   43.8862 C   0  0  0  0  0  0  0  0  0  0  0  0
   39.7335   31.6851   48.1222 H   0  0  0  0  0  0  0  0  0  0  0  0
   37.2170   33.3789   48.5040 H   0  0  0  0  0  0  0  0  0  0  0  0
   38.2707   34.2821   50.3854 H   0  0  0  0  0  0  0  0  0  0  0  0
   39.5379   33.0098   50.5030 H   0  0  0  0  0  0  0  0  0  0  0  0
   40.5940   33.6782   47.1879 H   0  0  0  0  0  0  0  0  0  0  0  0
   38.9307   34.3884   47.0856 H   0  0  0  0  0  0  0  0  0  0  0  0
   37.8997   29.1573   51.8342 H   0  0  0  0  0  0  0  0  0  0  0  0
   39.0044   31.0873   50.9197 H   0  0  0  0  0  0  0  0  0  0  0  0
   34.5462   29.8624   49.2900 H   0  0  0  0  0  0  0  0  0  0  0  0
   36.1358   31.1054   45.7207 H   0  0  0  0  0  0  0  0  0  0  0  0
   35.9052   29.5103   43.9419 H   0  0  0  0  0  0  0  0  0  0  0  0
   37.8255   28.6599   42.7690 H   0  0  0  0  0  0  0  0  0  0  0  0
   40.3746   29.3153   43.2302 N   0  0  0  0  0  0  0  0  0  0  0  0
   41.5835   29.1916   43.7961 C   0  0  0  0  0  0  0  0  0  0  0  0
   41.9254   29.4001   44.7965 H   0  0  0  0  0  0  0  0  0  0  0  0
   42.4762   28.7219   42.9084 N   0  0  0  0  0  0  0  0  0  0  0  0
   41.8620   28.5249   41.7238 C   0  0  0  0  0  0  0  0  0  0  0  0
   42.2189   28.0763   40.4685 C   0  0  0  0  0  0  0  0  0  0  0  0
   43.5763   27.6959   40.2703 N   0  0  0  0  0  0  0  0  0  0  0  0
   44.1621   26.8709   40.0230 H   0  0  0  0  0  0  0  0  0  0  0  0
   41.2954   28.0090   39.4777 N   0  0  0  0  0  0  0  0  0  0  0  0
   40.0089   28.3808   39.7049 C   0  0  0  0  0  0  0  0  0  0  0  0
   39.3107   28.3070   38.8765 H   0  0  0  0  0  0  0  0  0  0  0  0
   39.6650   28.8191   40.9351 N   0  0  0  0  0  0  0  0  0  0  0  0
   40.5491   28.9027   41.9495 C   0  0  0  0  0  0  0  0  0  0  0  0
   44.5114   28.1968   40.3205 H   0  0  0  0  0  0  0  0  0  0  0  0
  1  2  1  0
  2  8  1  0
  2  3  1  0
  4  3  1  0
  5  1  1  0
  5  4  1  0
  7  6  2  0
  8  7  1  0
  9  8  2  0
  9 10  1  0
 10 11  2  0
 11  6  1  0
 12  1  1  0
 14 13  1  0
 14 15  2  0
 15 12  1  0
 16 15  1  0
 17 16  2  0
 18 19  2  0
 18 17  1  0
 19 14  1  0
  1 20  1  1
  2 21  1  6
  3 22  1  0
  3 23  1  0
  5 24  1  0
  5 25  1  0
  6 26  1  0
  7 27  1  0
 10 28  1  0
 16 29  1  0
 17 30  1  0
 18 31  1  0
 32 33  1  0
 33 34  1  0
 33 35  2  0
 35 36  1  0
 36 37  2  0
 37 38  1  0
 38 39  1  0
 37 40  1  0
 40 41  2  0
 41 42  1  0
 41 43  1  0
 43 44  2  0
 44 32  1  0
 44 36  1  0
 38 45  1  0
 19 32  1  0
M  ISO  8  20  13  21  13  22  13  23  13  24  13  25  13  26  14  27  14
M  ISO  7  28  14  29  14  30  14  31  14  34  15  39   5  42  16
M  END
>  <DihAtoms>  (1) 
17,18,31,32

>  <DihDeg>  (1) 
135.3834558888966

$$$$
