
 OpenBabel03272508273D

 43 47  0  0  1  0  0  0  0  0999 V2000
   33.7980   28.9050   47.2150 C   0  0  2  0  0  0  0  0  0  0  0  0
   34.5080   28.1320   48.3130 C   0  0  2  0  0  0  0  0  0  0  0  0
   33.5960   27.9960   49.3220 O   0  0  0  0  0  0  0  0  0  0  0  0
   32.3260   28.0820   48.8310 C   0  0  0  0  0  0  0  0  0  0  0  0
   32.4080   28.2740   47.3330 C   0  0  1  0  0  0  0  0  0  0  0  0
   33.6840   29.9700   47.4560 H   0  0  0  0  0  0  0  0  0  0  0  0
   34.7850   27.1570   47.8500 H   0  0  0  0  0  0  0  0  0  0  0  0
   31.7830   27.1050   48.9860 H   0  0  0  0  0  0  0  0  0  0  0  0
   31.7650   28.8700   49.3450 H   0  0  0  0  0  0  0  0  0  0  0  0
   32.4890   27.2810   46.8410 H   0  0  0  0  0  0  0  0  0  0  0  0
   35.6110   30.3630   49.0250 C   0  0  1  0  0  0  0  0  0  0  0  0
   35.6840   28.9500   48.7430 C   0  0  1  0  0  0  0  0  0  0  0  0
   35.8730   29.3680   50.1660 C   0  0  0  0  0  0  0  0  0  0  0  0
   34.7100   30.9660   49.2490 H   0  0  0  0  0  0  0  0  0  0  0  0
   36.6390   28.5980   48.2540 H   0  0  0  0  0  0  0  0  0  0  0  0
   35.0180   29.0840   50.8140 H   0  0  0  0  0  0  0  0  0  0  0  0
   36.8690   29.3530   50.6310 H   0  0  0  0  0  0  0  0  0  0  0  0
   36.8030   31.2760   48.7880 C   0  0  0  0  0  0  0  0  0  0  0  0
   37.0420   32.2720   49.7360 C   0  0  0  0  0  0  0  0  0  0  0  0
   38.1290   33.0910   49.4510 C   0  0  0  0  0  0  0  0  0  0  0  0
   38.8840   32.9080   48.3210 N   0  0  0  0  0  0  0  0  0  0  0  0
   38.6080   31.9240   47.4340 C   0  0  0  0  0  0  0  0  0  0  0  0
   37.5570   31.1020   47.6720 N   0  0  0  0  0  0  0  0  0  0  0  0
   36.4380   32.3880   50.6020 H   0  0  0  0  0  0  0  0  0  0  0  0
   38.4000   33.8940   50.1210 H   0  0  0  0  0  0  0  0  0  0  0  0
   39.2340   31.8240   46.5610 H   0  0  0  0  0  0  0  0  0  0  0  0
   34.3410   28.7070   45.9590 O   0  0  0  0  0  0  0  0  0  0  0  0
   33.7250   29.0750   45.3050 H   0  0  0  0  0  0  0  0  0  0  0  0
   31.4350   29.0690   46.7930 O   0  0  0  0  0  0  0  0  0  0  0  0
   29.5890   30.1080   44.8890 H   0  0  0  0  0  0  0  0  0  0  0  0
   29.5800   29.1030   45.1530 N   0  0  0  0  0  0  0  0  0  0  0  0
   30.4060   28.5190   46.0380 C   0  0  0  0  0  0  0  0  0  0  0  0
   30.0270   27.2250   46.0570 N   0  0  0  0  0  0  0  0  0  0  0  0
   29.0000   27.0080   45.2120 C   0  0  0  0  0  0  0  0  0  0  0  0
   28.2620   25.8950   44.8660 C   0  0  0  0  0  0  0  0  0  0  0  0
   27.2560   25.9530   43.9660 N   0  0  0  0  0  0  0  0  0  0  0  0
   26.9890   27.1580   43.4050 C   0  0  0  0  0  0  0  0  0  0  0  0
   26.2320   27.4110   42.6710 H   0  0  0  0  0  0  0  0  0  0  0  0
   27.7020   28.2570   43.7330 N   0  0  0  0  0  0  0  0  0  0  0  0
   28.7090   28.2300   44.6250 C   0  0  0  0  0  0  0  0  0  0  0  0
   28.5690   24.6450   45.4750 N   0  0  0  0  0  0  0  0  0  0  0  0
   28.9280   23.7770   44.9820 H   0  0  0  0  0  0  0  0  0  0  0  0
   28.4100   24.6330   46.4910 H   0  0  0  0  0  0  0  0  0  0  0  0
  1  5  1  0  0  0  0
  1  6  1  1  0  0  0
  1  2  1  0  0  0  0
  2  7  1  6  0  0  0
  2 12  1  0  0  0  0
  2  3  1  0  0  0  0
  4  8  1  0  0  0  0
  4  3  1  0  0  0  0
  4  9  1  0  0  0  0
  5 10  1  6  0  0  0
  5  4  1  0  0  0  0
 11 14  1  6  0  0  0
 11 13  1  0  0  0  0
 12 15  1  6  0  0  0
 12 11  1  0  0  0  0
 12 13  1  0  0  0  0
 13 17  1  0  0  0  0
 13 16  1  0  0  0  0
 18 11  1  0  0  0  0
 18 19  1  0  0  0  0
 19 24  1  0  0  0  0
 20 19  2  0  0  0  0
 20 25  1  0  0  0  0
 21 20  1  0  0  0  0
 22 23  1  0  0  0  0
 22 21  2  0  0  0  0
 23 18  2  0  0  0  0
 26 22  1  0  0  0  0
 27  1  1  0  0  0  0
 28 27  1  0  0  0  0
 29  5  1  0  0  0  0
 30 31  1  0  0  0  0
 31 32  1  0  0  0  0
 32 33  2  0  0  0  0
 32 29  1  0  0  0  0
 34 33  1  0  0  0  0
 35 34  1  0  0  0  0
 35 41  1  0  0  0  0
 36 35  2  0  0  0  0
 37 39  2  0  0  0  0
 37 36  1  0  0  0  0
 38 37  1  0  0  0  0
 39 40  1  0  0  0  0
 40 31  1  0  0  0  0
 40 34  2  0  0  0  0
 41 43  1  0  0  0  0
 42 41  1  0  0  0  0
M  END
>  <minimizedAffinity>
-5.37910557

>  <minimizedRMSD>
0.978293657

$$$$
