
 OpenBabel03272508283D

 43 47  0  0  1  0  0  0  0  0999 V2000
   33.8730   28.9410   47.2670 C   0  0  2  0  0  0  0  0  0  0  0  0
   34.5960   28.1650   48.3550 C   0  0  2  0  0  0  0  0  0  0  0  0
   33.6890   28.0090   49.3650 O   0  0  0  0  0  0  0  0  0  0  0  0
   32.4170   28.0850   48.8800 C   0  0  0  0  0  0  0  0  0  0  0  0
   32.4910   28.2940   47.3840 C   0  0  1  0  0  0  0  0  0  0  0  0
   33.7480   30.0030   47.5200 H   0  0  0  0  0  0  0  0  0  0  0  0
   34.8820   27.1990   47.8800 H   0  0  0  0  0  0  0  0  0  0  0  0
   31.8850   27.0990   49.0270 H   0  0  0  0  0  0  0  0  0  0  0  0
   31.8480   28.8610   49.4040 H   0  0  0  0  0  0  0  0  0  0  0  0
   32.5810   27.3060   46.8800 H   0  0  0  0  0  0  0  0  0  0  0  0
   35.6830   30.4090   49.0520 C   0  0  1  0  0  0  0  0  0  0  0  0
   35.7640   28.9920   48.7890 C   0  0  1  0  0  0  0  0  0  0  0  0
   35.9340   29.4280   50.2090 C   0  0  0  0  0  0  0  0  0  0  0  0
   34.7770   31.0110   49.2580 H   0  0  0  0  0  0  0  0  0  0  0  0
   36.7260   28.6380   48.3150 H   0  0  0  0  0  0  0  0  0  0  0  0
   35.0720   29.1490   50.8490 H   0  0  0  0  0  0  0  0  0  0  0  0
   36.9250   29.4220   50.6860 H   0  0  0  0  0  0  0  0  0  0  0  0
   36.8750   31.3230   48.8190 C   0  0  0  0  0  0  0  0  0  0  0  0
   37.0670   32.3650   49.7260 C   0  0  0  0  0  0  0  0  0  0  0  0
   38.1560   33.1820   49.4450 C   0  0  0  0  0  0  0  0  0  0  0  0
   38.9580   32.9540   48.3570 N   0  0  0  0  0  0  0  0  0  0  0  0
   38.7260   31.9250   47.5070 C   0  0  0  0  0  0  0  0  0  0  0  0
   37.6750   31.1040   47.7430 N   0  0  0  0  0  0  0  0  0  0  0  0
   36.4270   32.5160   50.5610 H   0  0  0  0  0  0  0  0  0  0  0  0
   38.3930   34.0190   50.0860 H   0  0  0  0  0  0  0  0  0  0  0  0
   39.3880   31.7910   46.6650 H   0  0  0  0  0  0  0  0  0  0  0  0
   34.4130   28.7630   46.0080 O   0  0  0  0  0  0  0  0  0  0  0  0
   33.7910   29.1310   45.3600 H   0  0  0  0  0  0  0  0  0  0  0  0
   31.5060   29.0830   46.8560 O   0  0  0  0  0  0  0  0  0  0  0  0
   30.2010   26.5510   46.8130 H   0  0  0  0  0  0  0  0  0  0  0  0
   29.9310   27.3060   46.1540 N   0  0  0  0  0  0  0  0  0  0  0  0
   30.4840   28.5300   46.0950 C   0  0  0  0  0  0  0  0  0  0  0  0
   29.8210   29.1570   45.1010 N   0  0  0  0  0  0  0  0  0  0  0  0
   28.8870   28.3520   44.5580 C   0  0  0  0  0  0  0  0  0  0  0  0
   27.9650   28.5040   43.5430 C   0  0  0  0  0  0  0  0  0  0  0  0
   27.1210   27.5100   43.1870 N   0  0  0  0  0  0  0  0  0  0  0  0
   27.2090   26.3410   43.8710 C   0  0  0  0  0  0  0  0  0  0  0  0
   26.6280   25.4350   43.7390 H   0  0  0  0  0  0  0  0  0  0  0  0
   28.1050   26.1790   44.8670 N   0  0  0  0  0  0  0  0  0  0  0  0
   28.9590   27.1490   45.2430 C   0  0  0  0  0  0  0  0  0  0  0  0
   27.9000   29.7440   42.8450 N   0  0  0  0  0  0  0  0  0  0  0  0
   27.0780   30.4140   42.8310 H   0  0  0  0  0  0  0  0  0  0  0  0
   28.7560   29.9640   42.3200 H   0  0  0  0  0  0  0  0  0  0  0  0
  1  5  1  0  0  0  0
  1  6  1  1  0  0  0
  1  2  1  0  0  0  0
  2  7  1  6  0  0  0
  2 12  1  0  0  0  0
  2  3  1  0  0  0  0
  4  8  1  0  0  0  0
  4  3  1  0  0  0  0
  4  9  1  0  0  0  0
  5 10  1  6  0  0  0
  5  4  1  0  0  0  0
 11 14  1  6  0  0  0
 11 13  1  0  0  0  0
 12 15  1  6  0  0  0
 12 11  1  0  0  0  0
 12 13  1  0  0  0  0
 13 17  1  0  0  0  0
 13 16  1  0  0  0  0
 18 11  1  0  0  0  0
 18 19  1  0  0  0  0
 19 24  1  0  0  0  0
 20 19  2  0  0  0  0
 20 25  1  0  0  0  0
 21 20  1  0  0  0  0
 22 23  1  0  0  0  0
 22 21  2  0  0  0  0
 23 18  2  0  0  0  0
 26 22  1  0  0  0  0
 27  1  1  0  0  0  0
 28 27  1  0  0  0  0
 29  5  1  0  0  0  0
 31 30  1  0  0  0  0
 32 31  1  0  0  0  0
 32 29  1  0  0  0  0
 33 32  2  0  0  0  0
 34 33  1  0  0  0  0
 34 40  1  0  0  0  0
 35 34  2  0  0  0  0
 36 35  1  0  0  0  0
 36 37  2  0  0  0  0
 37 39  1  0  0  0  0
 38 37  1  0  0  0  0
 39 40  2  0  0  0  0
 40 31  1  0  0  0  0
 41 35  1  0  0  0  0
 42 41  1  0  0  0  0
 43 41  1  0  0  0  0
M  END
>  <minimizedAffinity>
-5.27373409

>  <minimizedRMSD>
0.731004715

$$$$
