REMARK  Name = 
REMARK  4 active torsions:
REMARK  status: ('A' for Active; 'I' for Inactive)
REMARK    1  A    between atoms: C_1  and  C_7
REMARK    2  A    between atoms: C_8  and  O_10
REMARK    3  A    between atoms: O_10  and  C_20
REMARK    4  A    between atoms: C_23  and  N_24
REMARK                            x       y       z     vdW  Elec       q    Type
REMARK                         _______ _______ _______ _____ _____    ______ ____
ROOT
ATOM      1  C   UNL     1      36.639  31.037  50.494  0.00  0.00    +0.000 C 
ATOM      2  C   UNL     1      36.137  29.692  50.663  0.00  0.00    +0.000 C 
ATOM      3  C   UNL     1      37.346  30.097  51.479  0.00  0.00    +0.000 C 
ATOM      4  H   UNL     1      36.185  31.928  50.992  0.00  0.00    +0.000 HD
ATOM      5  H   UNL     1      35.158  29.566  51.155  0.00  0.00    +0.000 HD
ATOM      6  H   UNL     1      37.107  30.235  52.544  0.00  0.00    +0.000 HD
ATOM      7  H   UNL     1      38.316  29.677  51.207  0.00  0.00    +0.000 HD
ENDROOT
BRANCH   1   8
ATOM      8  C   UNL     1      37.521  31.404  49.328  0.00  0.00    +0.000 A 
ATOM      9  C   UNL     1      38.151  32.646  49.405  0.00  0.00    +0.000 A 
ATOM     10  C   UNL     1      38.947  32.983  48.301  0.00  0.00    +0.000 A 
ATOM     11  N   UNL     1      39.063  32.118  47.248  0.00  0.00    +0.000 NA
ATOM     12  C   UNL     1      38.431  30.921  47.220  0.00  0.00    +0.000 A 
ATOM     13  N   UNL     1      37.645  30.553  48.276  0.00  0.00    +0.000 NA
ATOM     14  H   UNL     1      38.017  33.283  50.268  0.00  0.00    +0.000 HD
ATOM     15  H   UNL     1      39.459  33.933  48.306  0.00  0.00    +0.000 HD
ATOM     16  H   UNL     1      38.525  30.240  46.386  0.00  0.00    +0.000 HD
ENDBRANCH   1   8
BRANCH   2  17
ATOM     17  O   UNL     1      36.397  28.737  49.666  0.00  0.00    +0.000 OA
BRANCH  17  20
ATOM     18  H   UNL     1      36.300  25.892  49.758  0.00  0.00    +0.000 HD
ATOM     19  N   UNL     1      35.450  26.423  49.468  0.00  0.00    +0.000 N 
ATOM     20  C   UNL     1      35.437  27.767  49.406  0.00  0.00    +0.000 A 
ATOM     21  N   UNL     1      34.193  28.078  49.002  0.00  0.00    +0.000 NA
ATOM     22  C   UNL     1      33.442  26.986  48.813  0.00  0.00    +0.000 A 
ATOM     23  C   UNL     1      32.159  26.660  48.425  0.00  0.00    +0.000 A 
ATOM     24  N   UNL     1      31.729  25.396  48.344  0.00  0.00    +0.000 NA
ATOM     25  C   UNL     1      32.551  24.365  48.647  0.00  0.00    +0.000 A 
ATOM     26  H   UNL     1      32.128  23.380  48.557  0.00  0.00    +0.000 HD
ATOM     27  N   UNL     1      33.810  24.651  49.030  0.00  0.00    +0.000 NA
ATOM     28  C   UNL     1      34.273  25.906  49.121  0.00  0.00    +0.000 A 
BRANCH  23  29
ATOM     29  N   UNL     1      31.291  27.718  48.106  0.00  0.00    +0.000 N 
ATOM     30  H   UNL     1      30.798  28.352  48.791  0.00  0.00    +0.000 HD
ATOM     31  H   UNL     1      30.834  28.250  47.339  0.00  0.00    +0.000 HD
ENDBRANCH  23  29
ENDBRANCH  17  20
ENDBRANCH   2  17
TORSDOF 4
