
 OpenBabel03262522163D

 50 54  0  0  1  0  0  0  0  0999 V2000
   38.8100   29.7800   42.3810 C   0  0  1  0  0  0  0  0  0  0  0  0
   38.8210   31.2770   42.1100 C   0  0  0  0  0  0  0  0  0  0  0  0
   39.9510   31.7400   42.9800 C   0  0  2  0  0  0  0  0  0  0  0  0
   40.3520   30.6900   43.7500 O   0  0  0  0  0  0  0  0  0  0  0  0
   39.3200   29.7710   43.8120 C   0  0  0  0  0  0  0  0  0  0  0  0
   39.5760   29.2560   41.7630 H   0  0  0  0  0  0  0  0  0  0  0  0
   37.8890   31.6830   42.5150 H   0  0  0  0  0  0  0  0  0  0  0  0
   38.9910   31.4800   41.0350 H   0  0  0  0  0  0  0  0  0  0  0  0
   40.8070   32.0350   42.3230 H   0  0  0  0  0  0  0  0  0  0  0  0
   39.7870   28.7930   44.0820 H   0  0  0  0  0  0  0  0  0  0  0  0
   38.5150   30.0770   44.5060 H   0  0  0  0  0  0  0  0  0  0  0  0
   39.5640   32.9490   43.7920 C   0  0  0  0  0  0  0  0  0  0  0  0
   38.4970   32.9870   44.0370 H   0  0  0  0  0  0  0  0  0  0  0  0
   39.8120   33.8560   43.1880 H   0  0  0  0  0  0  0  0  0  0  0  0
   40.6560   33.0070   45.2360 S   0  0  0  0  0  0  0  0  0  0  0  0
   37.7760   31.7600   47.6620 C   0  0  0  0  0  0  0  0  0  0  0  0
   37.9340   32.5360   48.8100 C   0  0  0  0  0  0  0  0  0  0  0  0
   38.9340   33.4810   48.8940 C   0  0  0  0  0  0  0  0  0  0  0  0
   39.7440   33.6030   47.7960 C   0  0  0  0  0  0  0  0  0  0  0  0
   39.5770   32.8370   46.6810 C   0  0  0  0  0  0  0  0  0  0  0  0
   38.5970   31.9070   46.5920 N   0  0  0  0  0  0  0  0  0  0  0  0
   37.2580   32.3900   49.6470 H   0  0  0  0  0  0  0  0  0  0  0  0
   39.0570   34.0880   49.7940 H   0  0  0  0  0  0  0  0  0  0  0  0
   40.5550   34.3240   47.7810 H   0  0  0  0  0  0  0  0  0  0  0  0
   36.7050   30.7940   47.6530 C   0  0  0  0  0  0  0  0  0  0  0  0
   36.2080   30.3920   46.6000 O   0  0  0  0  0  0  0  0  0  0  0  0
   37.0330   29.6330   49.8090 C   0  0  0  0  0  0  0  0  0  0  0  0
   36.1440   30.2310   48.8980 C   0  0  0  0  0  0  0  0  0  0  0  0
   34.7680   30.2780   49.1860 C   0  0  0  0  0  0  0  0  0  0  0  0
   34.3470   29.7270   50.3700 N   0  0  0  0  0  0  0  0  0  0  0  0
   35.2130   29.1590   51.2280 C   0  0  0  0  0  0  0  0  0  0  0  0
   36.5270   29.1150   50.9510 N   0  0  0  0  0  0  0  0  0  0  0  0
   38.0750   29.6030   49.5800 H   0  0  0  0  0  0  0  0  0  0  0  0
   34.1220   30.7420   48.4670 H   0  0  0  0  0  0  0  0  0  0  0  0
   34.7090   28.7820   52.0960 H   0  0  0  0  0  0  0  0  0  0  0  0
   37.5330   29.2650   42.2820 O   0  0  0  0  0  0  0  0  0  0  0  0
   35.6050   28.5820   40.2990 H   0  0  0  0  0  0  0  0  0  0  0  0
   36.2240   27.8220   40.6570 N   0  0  0  0  0  0  0  0  0  0  0  0
   37.1500   28.1310   41.6050 C   0  0  0  0  0  0  0  0  0  0  0  0
   37.8460   27.0030   41.9300 N   0  0  0  0  0  0  0  0  0  0  0  0
   37.3490   25.9880   41.1790 C   0  0  0  0  0  0  0  0  0  0  0  0
   37.6150   24.6350   41.0410 C   0  0  0  0  0  0  0  0  0  0  0  0
   36.8970   23.9220   40.1720 N   0  0  0  0  0  0  0  0  0  0  0  0
   35.9150   24.4380   39.4080 C   0  0  0  0  0  0  0  0  0  0  0  0
   35.3590   23.8020   38.7110 H   0  0  0  0  0  0  0  0  0  0  0  0
   35.6210   25.7670   39.5140 N   0  0  0  0  0  0  0  0  0  0  0  0
   36.3410   26.5080   40.3920 C   0  0  0  0  0  0  0  0  0  0  0  0
   38.6560   24.1100   41.8590 N   0  0  0  0  0  0  0  0  0  0  0  0
   39.6770   23.8850   41.6770 H   0  0  0  0  0  0  0  0  0  0  0  0
   38.4240   23.8830   42.8490 H   0  0  0  0  0  0  0  0  0  0  0  0
  1  6  1  6  0  0  0
  1  5  1  0  0  0  0
  2  1  1  0  0  0  0
  2  7  1  0  0  0  0
  2  3  1  0  0  0  0
  3  9  1  6  0  0  0
  3  4  1  0  0  0  0
  3 12  1  0  0  0  0
  4  5  1  0  0  0  0
  5 10  1  0  0  0  0
  5 11  1  0  0  0  0
  8  2  1  0  0  0  0
 12 13  1  0  0  0  0
 12 15  1  0  0  0  0
 14 12  1  0  0  0  0
 15 20  1  0  0  0  0
 16 17  1  0  0  0  0
 17 18  2  0  0  0  0
 17 22  1  0  0  0  0
 18 23  1  0  0  0  0
 19 18  1  0  0  0  0
 20 19  2  0  0  0  0
 21 20  1  0  0  0  0
 21 16  2  0  0  0  0
 24 19  1  0  0  0  0
 25 16  1  0  0  0  0
 25 28  1  0  0  0  0
 26 25  2  0  0  0  0
 27 32  1  0  0  0  0
 28 29  1  0  0  0  0
 28 27  2  0  0  0  0
 29 30  2  0  0  0  0
 30 31  1  0  0  0  0
 31 35  1  0  0  0  0
 32 31  2  0  0  0  0
 33 27  1  0  0  0  0
 34 29  1  0  0  0  0
 36  1  1  0  0  0  0
 37 38  1  0  0  0  0
 38 39  1  0  0  0  0
 39 40  2  0  0  0  0
 39 36  1  0  0  0  0
 41 40  1  0  0  0  0
 42 41  1  0  0  0  0
 42 48  1  0  0  0  0
 43 42  2  0  0  0  0
 44 46  2  0  0  0  0
 44 43  1  0  0  0  0
 45 44  1  0  0  0  0
 46 47  1  0  0  0  0
 47 38  1  0  0  0  0
 47 41  2  0  0  0  0
 48 50  1  0  0  0  0
 49 48  1  0  0  0  0
M  END
>  <minimizedAffinity>
-5.22571516

>  <minimizedRMSD>
0.261733085

$$$$
