
 OpenBabel03262522153D

 50 54  0  0  1  0  0  0  0  0999 V2000
   39.1030   29.8100   42.6130 C   0  0  1  0  0  0  0  0  0  0  0  0
   38.8990   31.2840   42.2920 C   0  0  0  0  0  0  0  0  0  0  0  0
   39.9550   31.9320   43.1360 C   0  0  2  0  0  0  0  0  0  0  0  0
   40.5050   30.9770   43.9360 O   0  0  0  0  0  0  0  0  0  0  0  0
   39.6150   29.9230   44.0380 C   0  0  0  0  0  0  0  0  0  0  0  0
   39.9340   29.3800   42.0060 H   0  0  0  0  0  0  0  0  0  0  0  0
   37.9200   31.5650   42.6920 H   0  0  0  0  0  0  0  0  0  0  0  0
   39.0330   31.4710   41.2090 H   0  0  0  0  0  0  0  0  0  0  0  0
   40.7570   32.3240   42.4610 H   0  0  0  0  0  0  0  0  0  0  0  0
   40.2180   29.0320   44.3360 H   0  0  0  0  0  0  0  0  0  0  0  0
   38.7780   30.1340   44.7290 H   0  0  0  0  0  0  0  0  0  0  0  0
   39.4020   33.1010   43.9110 C   0  0  0  0  0  0  0  0  0  0  0  0
   38.3440   32.9890   44.1740 H   0  0  0  0  0  0  0  0  0  0  0  0
   39.5040   34.0110   43.2700 H   0  0  0  0  0  0  0  0  0  0  0  0
   40.4910   33.3750   45.3320 S   0  0  0  0  0  0  0  0  0  0  0  0
   37.7680   31.8320   47.7670 C   0  0  0  0  0  0  0  0  0  0  0  0
   37.9430   32.5270   48.9640 C   0  0  0  0  0  0  0  0  0  0  0  0
   38.9060   33.5040   49.0800 C   0  0  0  0  0  0  0  0  0  0  0  0
   39.6650   33.7420   47.9630 C   0  0  0  0  0  0  0  0  0  0  0  0
   39.4810   33.0540   46.8010 C   0  0  0  0  0  0  0  0  0  0  0  0
   38.5360   32.0920   46.6800 N   0  0  0  0  0  0  0  0  0  0  0  0
   37.3080   32.2910   49.8120 H   0  0  0  0  0  0  0  0  0  0  0  0
   39.0430   34.0480   50.0170 H   0  0  0  0  0  0  0  0  0  0  0  0
   40.4450   34.4950   47.9710 H   0  0  0  0  0  0  0  0  0  0  0  0
   36.7360   30.8240   47.7270 C   0  0  0  0  0  0  0  0  0  0  0  0
   36.2940   30.3950   46.6600 O   0  0  0  0  0  0  0  0  0  0  0  0
   37.0200   29.6280   49.8700 C   0  0  0  0  0  0  0  0  0  0  0  0
   36.1510   30.2480   48.9550 C   0  0  0  0  0  0  0  0  0  0  0  0
   34.7720   30.3060   49.2240 C   0  0  0  0  0  0  0  0  0  0  0  0
   34.3280   29.7420   50.3940 N   0  0  0  0  0  0  0  0  0  0  0  0
   35.1750   29.1530   51.2560 C   0  0  0  0  0  0  0  0  0  0  0  0
   36.4920   29.0980   50.9970 N   0  0  0  0  0  0  0  0  0  0  0  0
   38.0650   29.5900   49.6550 H   0  0  0  0  0  0  0  0  0  0  0  0
   34.1410   30.7870   48.5030 H   0  0  0  0  0  0  0  0  0  0  0  0
   34.6550   28.7680   52.1110 H   0  0  0  0  0  0  0  0  0  0  0  0
   37.9120   29.1150   42.5420 O   0  0  0  0  0  0  0  0  0  0  0  0
   36.0800   27.1250   43.4310 H   0  0  0  0  0  0  0  0  0  0  0  0
   36.8720   26.8190   42.8260 N   0  0  0  0  0  0  0  0  0  0  0  0
   37.7570   27.7570   42.3930 C   0  0  0  0  0  0  0  0  0  0  0  0
   38.7070   27.1490   41.6210 N   0  0  0  0  0  0  0  0  0  0  0  0
   38.4080   25.8270   41.5770 C   0  0  0  0  0  0  0  0  0  0  0  0
   38.9630   24.7050   40.9810 C   0  0  0  0  0  0  0  0  0  0  0  0
   38.3750   23.5220   41.1640 N   0  0  0  0  0  0  0  0  0  0  0  0
   37.2610   23.3410   41.8990 C   0  0  0  0  0  0  0  0  0  0  0  0
   36.8240   22.3440   42.0130 H   0  0  0  0  0  0  0  0  0  0  0  0
   36.6840   24.4210   42.5030 N   0  0  0  0  0  0  0  0  0  0  0  0
   37.2660   25.6330   42.3290 C   0  0  0  0  0  0  0  0  0  0  0  0
   40.1390   24.9190   40.2090 N   0  0  0  0  0  0  0  0  0  0  0  0
   40.3130   25.0220   39.1660 H   0  0  0  0  0  0  0  0  0  0  0  0
   41.0440   24.9960   40.7200 H   0  0  0  0  0  0  0  0  0  0  0  0
  1  6  1  6  0  0  0
  1  5  1  0  0  0  0
  2  1  1  0  0  0  0
  2  7  1  0  0  0  0
  2  3  1  0  0  0  0
  3  9  1  6  0  0  0
  3 12  1  0  0  0  0
  3  4  1  0  0  0  0
  4  5  1  0  0  0  0
  5 10  1  0  0  0  0
  5 11  1  0  0  0  0
  8  2  1  0  0  0  0
 12 13  1  0  0  0  0
 12 15  1  0  0  0  0
 14 12  1  0  0  0  0
 15 20  1  0  0  0  0
 16 17  1  0  0  0  0
 17 18  2  0  0  0  0
 17 22  1  0  0  0  0
 18 23  1  0  0  0  0
 19 24  1  0  0  0  0
 19 18  1  0  0  0  0
 20 19  2  0  0  0  0
 21 20  1  0  0  0  0
 21 16  2  0  0  0  0
 25 16  1  0  0  0  0
 25 28  1  0  0  0  0
 26 25  2  0  0  0  0
 27 32  1  0  0  0  0
 28 29  1  0  0  0  0
 28 27  2  0  0  0  0
 29 30  2  0  0  0  0
 30 31  1  0  0  0  0
 31 35  1  0  0  0  0
 32 31  2  0  0  0  0
 33 27  1  0  0  0  0
 34 29  1  0  0  0  0
 36  1  1  0  0  0  0
 38 37  1  0  0  0  0
 39 36  1  0  0  0  0
 39 38  1  0  0  0  0
 40 39  2  0  0  0  0
 41 40  1  0  0  0  0
 41 47  1  0  0  0  0
 42 43  1  0  0  0  0
 42 41  2  0  0  0  0
 43 44  2  0  0  0  0
 44 45  1  0  0  0  0
 44 46  1  0  0  0  0
 47 46  2  0  0  0  0
 47 38  1  0  0  0  0
 48 50  1  0  0  0  0
 48 42  1  0  0  0  0
 49 48  1  0  0  0  0
M  END
>  <minimizedAffinity>
-5.63575554

>  <minimizedRMSD>
1.69870448

$$$$
