
     RDKit          3D

 28 30  0  0  0  0  0  0  0  0999 V2000
   37.7657   30.5171   49.3523 C   0  0  0  0  0  0  0  0  0  0  0  0
   38.2407   31.7286   49.8379 C   0  0  0  0  0  0  0  0  0  0  0  0
   38.6289   32.7028   48.9059 C   0  0  0  0  0  0  0  0  0  0  0  0
   38.5278   32.4304   47.5713 N   0  0  0  0  0  0  0  0  0  0  0  0
   38.0543   31.2240   47.1677 C   0  0  0  0  0  0  0  0  0  0  0  0
   37.6867   30.3011   48.0315 N   0  0  0  0  0  0  0  0  0  0  0  0
   37.2941   29.3350   50.5900 S   0  0  0  0  0  0  0  0  0  0  0  0
   35.4993   29.3366   50.7310 C   0  0  0  0  0  0  0  0  0  0  0  0
   34.6865   28.4084   49.3844 S   0  0  0  0  0  0  0  0  0  0  0  0
   38.3306   31.9690   50.8877 H   0  0  0  0  0  0  0  0  0  0  0  0
   39.0060   33.6638   49.2372 H   0  0  0  0  0  0  0  0  0  0  0  0
   37.9792   31.0209   46.1015 H   0  0  0  0  0  0  0  0  0  0  0  0
   35.0865   30.3759   50.7189 H   0  0  0  0  0  0  0  0  0  0  0  0
   35.1745   28.9060   51.7064 H   0  0  0  0  0  0  0  0  0  0  0  0
   32.4034   28.5598   51.5165 H   0  0  0  0  0  0  0  0  0  0  0  0
   32.0133   28.5046   50.5571 N   0  0  0  0  0  0  0  0  0  0  0  0
   32.9165   28.4354   49.5620 C   0  0  0  0  0  0  0  0  0  0  0  0
   32.2325   28.3700   48.3911 N   0  0  0  0  0  0  0  0  0  0  0  0
   30.9061   28.3957   48.6125 C   0  0  0  0  0  0  0  0  0  0  0  0
   29.7535   28.3602   47.8620 C   0  0  0  0  0  0  0  0  0  0  0  0
   29.8808   28.2723   46.4455 N   0  0  0  0  0  0  0  0  0  0  0  0
   29.5210   27.3456   46.1350 H   0  0  0  0  0  0  0  0  0  0  0  0
   28.5541   28.4101   48.4976 N   0  0  0  0  0  0  0  0  0  0  0  0
   28.4938   28.4937   49.8540 C   0  0  0  0  0  0  0  0  0  0  0  0
   27.4867   28.5295   50.2893 H   0  0  0  0  0  0  0  0  0  0  0  0
   29.6279   28.5297   50.6113 N   0  0  0  0  0  0  0  0  0  0  0  0
   30.8181   28.4805   49.9848 C   0  0  0  0  0  0  0  0  0  0  0  0
   30.2609   28.9804   45.7798 H   0  0  0  0  0  0  0  0  0  0  0  0
  1  2  2  0
  1  7  1  0
  3  2  1  0
  4  3  2  0
  5  4  1  0
  5  6  2  0
  6  1  1  0
  7  8  1  0
  9  8  1  0
  2 10  1  0
  3 11  1  0
  5 12  1  0
  8 13  1  0
  8 14  1  0
 15 16  1  0
 16 17  1  0
 17 18  2  0
 18 19  1  0
 19 20  2  0
 20 21  1  0
 21 22  1  0
 20 23  1  0
 23 24  2  0
 24 25  1  0
 24 26  1  0
 26 27  2  0
 27 16  1  0
 27 19  1  0
 21 28  1  0
  9 17  1  0
M  ISO  8  10  14  11  14  12  14  13   8  14   8  15   9  22   5  25  16
M  END
>  <DihAtoms>  (1) 
7,8,16,15

>  <DihDeg>  (1) 
89.99909254573495

$$$$
