
 OpenBabel03272509433D

 43 46  0  0  1  0  0  0  0  0999 V2000
   37.2350   30.9560   49.0540 C   0  0  0  0  0  0  0  0  0  0  0  0
   37.0100   31.9410   50.0180 C   0  0  0  0  0  0  0  0  0  0  0  0
   37.6030   33.1920   49.9370 C   0  0  0  0  0  0  0  0  0  0  0  0
   38.4490   33.4820   48.8630 C   0  0  0  0  0  0  0  0  0  0  0  0
   38.6590   32.5100   47.9300 C   0  0  0  0  0  0  0  0  0  0  0  0
   38.0500   31.2690   48.0420 C   0  0  0  0  0  0  0  0  0  0  0  0
   36.3430   31.6850   50.8450 H   0  0  0  0  0  0  0  0  0  0  0  0
   37.3510   33.8620   50.7400 H   0  0  0  0  0  0  0  0  0  0  0  0
   38.8690   34.4760   48.8760 H   0  0  0  0  0  0  0  0  0  0  0  0
   39.3410   32.8810   47.1590 H   0  0  0  0  0  0  0  0  0  0  0  0
   36.6440   29.6390   49.1540 C   0  0  2  0  0  0  0  0  0  0  0  0
   37.1290   29.0200   48.3040 H   0  0  0  0  0  0  0  0  0  0  0  0
   33.7100   29.8820   47.0250 C   0  0  0  0  0  0  0  0  0  0  0  0
   33.0030   28.7240   47.2930 C   0  0  0  0  0  0  0  0  0  0  0  0
   33.4980   27.8710   48.2610 C   0  0  0  0  0  0  0  0  0  0  0  0
   34.6650   28.1980   48.9180 N   0  0  0  0  0  0  0  0  0  0  0  0
   35.2920   29.3150   48.6150 C   0  0  0  0  0  0  0  0  0  0  0  0
   34.8230   30.1640   47.6720 N   0  0  0  0  0  0  0  0  0  0  0  0
   33.3260   30.5540   46.2670 H   0  0  0  0  0  0  0  0  0  0  0  0
   32.0850   28.4310   46.8000 H   0  0  0  0  0  0  0  0  0  0  0  0
   33.0120   26.9490   48.5350 H   0  0  0  0  0  0  0  0  0  0  0  0
   37.1220   28.9580   50.1350 O   0  0  0  0  0  0  0  0  0  0  0  0
   36.9700   29.2470   51.0770 H   0  0  0  0  0  0  0  0  0  0  0  0
   38.3850   30.3260   47.0000 C   0  0  0  0  0  3  0  0  0  0  0  0
   38.5810   30.6650   45.7210 C   0  0  0  0  0  3  0  0  0  0  0  0
   38.9670   29.7960   44.5850 C   0  0  0  0  0  0  0  0  0  0  0  0
   38.0560   29.6340   43.9730 H   0  0  0  0  0  0  0  0  0  0  0  0
   39.3000   28.7940   44.9270 H   0  0  0  0  0  0  0  0  0  0  0  0
   40.2080   30.6210   43.5830 S   0  0  0  0  0  0  0  0  0  0  0  0
   39.7140   27.8150   42.2940 H   0  0  0  0  0  0  0  0  0  0  0  0
   40.3400   28.4510   41.7520 N   0  0  0  0  0  0  0  0  0  0  0  0
   40.6640   29.6940   42.1530 C   0  0  0  0  0  0  0  0  0  0  0  0
   41.4830   30.2730   41.2560 N   0  0  0  0  0  0  0  0  0  0  0  0
   41.7100   29.4020   40.2380 C   0  0  0  0  0  0  0  0  0  0  0  0
   42.4510   29.4550   39.0740 C   0  0  0  0  0  0  0  0  0  0  0  0
   42.4610   28.3700   38.2480 N   0  0  0  0  0  0  0  0  0  0  0  0
   41.7430   27.2660   38.5930 C   0  0  0  0  0  0  0  0  0  0  0  0
   41.7820   26.4260   37.9030 H   0  0  0  0  0  0  0  0  0  0  0  0
   41.0140   27.2260   39.7460 N   0  0  0  0  0  0  0  0  0  0  0  0
   40.9840   28.2820   40.5830 C   0  0  0  0  0  0  0  0  0  0  0  0
   43.1700   30.6570   38.8040 N   0  0  0  0  0  0  0  0  0  0  0  0
   42.7920   31.6130   38.9490 H   0  0  0  0  0  0  0  0  0  0  0  0
   44.1300   30.4660   38.4400 H   0  0  0  0  0  0  0  0  0  0  0  0
  1 11  1  0  0  0  0
  1  2  1  0  0  0  0
  2  7  1  0  0  0  0
  3  2  2  0  0  0  0
  3  8  1  0  0  0  0
  4  9  1  0  0  0  0
  4  3  1  0  0  0  0
  5  6  1  0  0  0  0
  5  4  2  0  0  0  0
  6  1  2  0  0  0  0
 10  5  1  0  0  0  0
 11 12  1  6  0  0  0
 11 22  1  0  0  0  0
 13 14  2  0  0  0  0
 13 18  1  0  0  0  0
 14 15  1  0  0  0  0
 15 21  1  0  0  0  0
 15 16  2  0  0  0  0
 17 16  1  0  0  0  0
 17 11  1  0  0  0  0
 18 17  2  0  0  0  0
 19 13  1  0  0  0  0
 20 14  1  0  0  0  0
 22 23  1  0  0  0  0
 24  6  1  0  0  0  0
 25 24  2  0  0  0  0
 26 28  1  0  0  0  0
 26 25  1  0  0  0  0
 27 26  1  0  0  0  0
 29 26  1  0  0  0  0
 31 32  1  0  0  0  0
 31 30  1  0  0  0  0
 32 29  1  0  0  0  0
 33 32  2  0  0  0  0
 34 40  1  0  0  0  0
 34 33  1  0  0  0  0
 35 34  2  0  0  0  0
 36 37  2  0  0  0  0
 36 35  1  0  0  0  0
 37 39  1  0  0  0  0
 38 37  1  0  0  0  0
 39 40  2  0  0  0  0
 40 31  1  0  0  0  0
 41 42  1  0  0  0  0
 41 35  1  0  0  0  0
 43 41  1  0  0  0  0
M  END
>  <minimizedAffinity>
-6.15477276

>  <minimizedRMSD>
0.659488618

$$$$
