REMARK  Name = 
REMARK  3 active torsions:
REMARK  status: ('A' for Active; 'I' for Inactive)
REMARK    1  A    between atoms: C_5  and  S_7
REMARK    2  A    between atoms: S_7  and  C_13
REMARK    3  A    between atoms: C_16  and  N_17
REMARK                            x       y       z     vdW  Elec       q    Type
REMARK                         _______ _______ _______ _____ _____    ______ ____
ROOT
ATOM      1  H   UNL     1      36.551  26.127  50.410  0.00  0.00    +0.000 HD
ATOM      2  N   UNL     1      35.915  25.717  49.716  0.00  0.00    +0.000 N 
ATOM      3  C   UNL     1      34.992  26.518  49.145  0.00  0.00    +0.000 A 
ATOM      4  N   UNL     1      34.282  25.794  48.285  0.00  0.00    +0.000 NA
ATOM      5  C   UNL     1      34.749  24.528  48.306  0.00  0.00    +0.000 A 
ATOM      6  C   UNL     1      34.439  23.357  47.663  0.00  0.00    +0.000 A 
ATOM      7  N   UNL     1      35.136  22.244  47.935  0.00  0.00    +0.000 NA
ATOM      8  C   UNL     1      36.138  22.216  48.819  0.00  0.00    +0.000 A 
ATOM      9  H   UNL     1      36.637  21.269  48.967  0.00  0.00    +0.000 HD
ATOM     10  N   UNL     1      36.478  23.359  49.480  0.00  0.00    +0.000 NA
ATOM     11  C   UNL     1      35.785  24.480  49.214  0.00  0.00    +0.000 A 
ENDROOT
BRANCH   6  12
ATOM     12  N   UNL     1      33.362  23.419  46.724  0.00  0.00    +0.000 N 
ATOM     13  H   UNL     1      32.468  23.722  47.204  0.00  0.00    +0.000 HD
ATOM     14  H   UNL     1      33.225  23.248  45.705  0.00  0.00    +0.000 HD
ENDBRANCH   6  12
BRANCH   3  15
ATOM     15  S   UNL     1      34.546  28.249  49.289  0.00  0.00    +0.000 S 
BRANCH  15  20
ATOM     16  C   UNL     1      37.266  30.179  51.419  0.00  0.00    +0.000 A 
ATOM     17  C   UNL     1      38.113  30.756  50.471  0.00  0.00    +0.000 A 
ATOM     18  C   UNL     1      37.845  30.548  49.108  0.00  0.00    +0.000 A 
ATOM     19  N   UNL     1      36.760  29.786  48.788  0.00  0.00    +0.000 NA
ATOM     20  C   UNL     1      35.966  29.246  49.719  0.00  0.00    +0.000 A 
ATOM     21  N   UNL     1      36.207  29.435  51.039  0.00  0.00    +0.000 NA
ATOM     22  H   UNL     1      37.468  30.337  52.468  0.00  0.00    +0.000 HD
ATOM     23  H   UNL     1      38.982  31.366  50.765  0.00  0.00    +0.000 HD
ATOM     24  H   UNL     1      38.471  30.973  48.330  0.00  0.00    +0.000 HD
ENDBRANCH  15  20
ENDBRANCH   3  15
TORSDOF 3
