
     RDKit          3D

 24 26  0  0  0  0  0  0  0  0999 V2000
   37.2655   30.1792   51.4194 C   0  0  0  0  0  0  0  0  0  0  0  0
   38.1129   30.7558   50.4711 C   0  0  0  0  0  0  0  0  0  0  0  0
   37.8448   30.5477   49.1083 C   0  0  0  0  0  0  0  0  0  0  0  0
   36.7599   29.7859   48.7885 N   0  0  0  0  0  0  0  0  0  0  0  0
   35.9657   29.2462   49.7190 C   0  0  0  0  0  0  0  0  0  0  0  0
   36.2069   29.4348   51.0386 N   0  0  0  0  0  0  0  0  0  0  0  0
   34.5463   28.2494   49.2892 S   0  0  0  0  0  0  0  0  0  0  0  0
   37.4683   30.3369   52.4680 H   0  0  0  0  0  0  0  0  0  0  0  0
   38.9818   31.3665   50.7653 H   0  0  0  0  0  0  0  0  0  0  0  0
   38.4712   30.9727   48.3295 H   0  0  0  0  0  0  0  0  0  0  0  0
   33.7641   25.6289   47.7729 H   0  0  0  0  0  0  0  0  0  0  0  0
   34.5454   25.4723   48.4196 N   0  0  0  0  0  0  0  0  0  0  0  0
   34.9925   26.5176   49.1448 C   0  0  0  0  0  0  0  0  0  0  0  0
   35.9970   26.1009   49.9091 N   0  0  0  0  0  0  0  0  0  0  0  0
   36.1941   24.7864   49.6734 C   0  0  0  0  0  0  0  0  0  0  0  0
   37.0545   23.8239   50.1386 C   0  0  0  0  0  0  0  0  0  0  0  0
   38.0055   24.2489   51.1185 N   0  0  0  0  0  0  0  0  0  0  0  0
   38.6242   25.0141   50.7269 H   0  0  0  0  0  0  0  0  0  0  0  0
   36.9673   22.5714   49.6690 N   0  0  0  0  0  0  0  0  0  0  0  0
   36.0673   22.2032   48.7523 C   0  0  0  0  0  0  0  0  0  0  0  0
   36.0786   21.1696   48.4390 H   0  0  0  0  0  0  0  0  0  0  0  0
   35.1938   23.1293   48.2641 N   0  0  0  0  0  0  0  0  0  0  0  0
   35.2731   24.3884   48.7286 C   0  0  0  0  0  0  0  0  0  0  0  0
   38.2488   24.0088   52.1033 H   0  0  0  0  0  0  0  0  0  0  0  0
  2  1  2  0
  3  2  1  0
  4  3  2  0
  4  5  1  0
  5  6  2  0
  6  1  1  0
  7  5  1  0
  1  8  1  0
  2  9  1  0
  3 10  1  0
 11 12  1  0
 12 13  1  0
 13 14  2  0
 14 15  1  0
 15 16  2  0
 16 17  1  0
 17 18  1  0
 16 19  1  0
 19 20  2  0
 20 21  1  0
 20 22  1  0
 22 23  2  0
 23 12  1  0
 23 15  1  0
 17 24  1  0
  7 13  1  0
M  ISO  6   8  14   9  14  10  14  11   9  18   5  21  16
M  END
>  <DihAtoms>  (1) 
4,6,12,11

>  <DihDeg>  (1) 
-0.001295915944830496

$$$$
