
 OpenBabel03262522153D

 50 54  0  0  1  0  0  0  0  0999 V2000
   39.3950   29.7110   42.2390 C   0  0  1  0  0  0  0  0  0  0  0  0
   38.9180   31.1360   42.0020 C   0  0  0  0  0  0  0  0  0  0  0  0
   39.9080   31.9300   42.8000 C   0  0  2  0  0  0  0  0  0  0  0  0
   40.6730   31.0600   43.5150 O   0  0  0  0  0  0  0  0  0  0  0  0
   39.9880   29.8640   43.6290 C   0  0  0  0  0  0  0  0  0  0  0  0
   40.2390   29.4530   41.5570 H   0  0  0  0  0  0  0  0  0  0  0  0
   37.9390   31.2280   42.4810 H   0  0  0  0  0  0  0  0  0  0  0  0
   38.9340   31.3800   40.9220 H   0  0  0  0  0  0  0  0  0  0  0  0
   40.5770   32.4780   42.0900 H   0  0  0  0  0  0  0  0  0  0  0  0
   40.7570   29.0820   43.8430 H   0  0  0  0  0  0  0  0  0  0  0  0
   39.1830   29.9010   44.3860 H   0  0  0  0  0  0  0  0  0  0  0  0
   39.2240   32.9580   43.6640 C   0  0  0  0  0  0  0  0  0  0  0  0
   38.2190   32.6600   43.9840 H   0  0  0  0  0  0  0  0  0  0  0  0
   39.1320   33.8970   43.0650 H   0  0  0  0  0  0  0  0  0  0  0  0
   40.3460   33.3530   45.0300 S   0  0  0  0  0  0  0  0  0  0  0  0
   37.7550   31.7800   47.5880 C   0  0  0  0  0  0  0  0  0  0  0  0
   38.0050   32.4500   48.7860 C   0  0  0  0  0  0  0  0  0  0  0  0
   38.9820   33.4180   48.8650 C   0  0  0  0  0  0  0  0  0  0  0  0
   39.6770   33.6720   47.7120 C   0  0  0  0  0  0  0  0  0  0  0  0
   39.4200   33.0090   46.5490 C   0  0  0  0  0  0  0  0  0  0  0  0
   38.4620   32.0570   46.4630 N   0  0  0  0  0  0  0  0  0  0  0  0
   37.4190   32.2010   49.6650 H   0  0  0  0  0  0  0  0  0  0  0  0
   39.1770   33.9420   49.8030 H   0  0  0  0  0  0  0  0  0  0  0  0
   40.4620   34.4200   47.6890 H   0  0  0  0  0  0  0  0  0  0  0  0
   36.7150   30.7800   47.5880 C   0  0  0  0  0  0  0  0  0  0  0  0
   36.2420   30.3420   46.5390 O   0  0  0  0  0  0  0  0  0  0  0  0
   37.0500   29.6370   49.7520 C   0  0  0  0  0  0  0  0  0  0  0  0
   36.1580   30.2260   48.8390 C   0  0  0  0  0  0  0  0  0  0  0  0
   34.7830   30.2720   49.1290 C   0  0  0  0  0  0  0  0  0  0  0  0
   34.3660   29.7290   50.3180 N   0  0  0  0  0  0  0  0  0  0  0  0
   35.2340   29.1700   51.1790 C   0  0  0  0  0  0  0  0  0  0  0  0
   36.5480   29.1260   50.9000 N   0  0  0  0  0  0  0  0  0  0  0  0
   38.0910   29.6080   49.5210 H   0  0  0  0  0  0  0  0  0  0  0  0
   34.1340   30.7290   48.4080 H   0  0  0  0  0  0  0  0  0  0  0  0
   34.7340   28.7980   52.0510 H   0  0  0  0  0  0  0  0  0  0  0  0
   38.3400   28.8210   42.2200 O   0  0  0  0  0  0  0  0  0  0  0  0
   40.3020   26.9160   43.0130 H   0  0  0  0  0  0  0  0  0  0  0  0
   39.3040   26.6180   43.0270 N   0  0  0  0  0  0  0  0  0  0  0  0
   38.3520   27.5160   42.6510 C   0  0  0  0  0  0  0  0  0  0  0  0
   37.1230   26.9250   42.7420 N   0  0  0  0  0  0  0  0  0  0  0  0
   37.3140   25.6550   43.1760 C   0  0  0  0  0  0  0  0  0  0  0  0
   36.4980   24.5730   43.4640 C   0  0  0  0  0  0  0  0  0  0  0  0
   37.0580   23.4380   43.8860 N   0  0  0  0  0  0  0  0  0  0  0  0
   38.3820   23.2700   44.0530 C   0  0  0  0  0  0  0  0  0  0  0  0
   38.7840   22.3130   44.4020 H   0  0  0  0  0  0  0  0  0  0  0  0
   39.2220   24.3120   43.7800 N   0  0  0  0  0  0  0  0  0  0  0  0
   38.6730   25.4740   43.3500 C   0  0  0  0  0  0  0  0  0  0  0  0
   35.1000   24.7710   43.2810 N   0  0  0  0  0  0  0  0  0  0  0  0
   34.3060   24.9940   43.9490 H   0  0  0  0  0  0  0  0  0  0  0  0
   34.7250   24.6960   42.3110 H   0  0  0  0  0  0  0  0  0  0  0  0
  1  6  1  6  0  0  0
  1  5  1  0  0  0  0
  2  1  1  0  0  0  0
  2  7  1  0  0  0  0
  2  3  1  0  0  0  0
  3  9  1  6  0  0  0
  3  4  1  0  0  0  0
  3 12  1  0  0  0  0
  4  5  1  0  0  0  0
  5 10  1  0  0  0  0
  5 11  1  0  0  0  0
  8  2  1  0  0  0  0
 12 13  1  0  0  0  0
 12 15  1  0  0  0  0
 14 12  1  0  0  0  0
 15 20  1  0  0  0  0
 16 25  1  0  0  0  0
 16 17  1  0  0  0  0
 17 18  2  0  0  0  0
 17 22  1  0  0  0  0
 18 23  1  0  0  0  0
 19 18  1  0  0  0  0
 20 19  2  0  0  0  0
 21 20  1  0  0  0  0
 21 16  2  0  0  0  0
 24 19  1  0  0  0  0
 25 28  1  0  0  0  0
 26 25  2  0  0  0  0
 27 32  1  0  0  0  0
 28 29  1  0  0  0  0
 28 27  2  0  0  0  0
 29 30  2  0  0  0  0
 30 31  1  0  0  0  0
 31 35  1  0  0  0  0
 32 31  2  0  0  0  0
 33 27  1  0  0  0  0
 34 29  1  0  0  0  0
 36  1  1  0  0  0  0
 36 39  1  0  0  0  0
 37 38  1  0  0  0  0
 38 47  1  0  0  0  0
 39 40  2  0  0  0  0
 39 38  1  0  0  0  0
 40 41  1  0  0  0  0
 41 47  2  0  0  0  0
 41 42  1  0  0  0  0
 42 43  2  0  0  0  0
 43 44  1  0  0  0  0
 44 45  1  0  0  0  0
 46 44  2  0  0  0  0
 47 46  1  0  0  0  0
 48 42  1  0  0  0  0
 48 49  1  0  0  0  0
 50 48  1  0  0  0  0
M  END
>  <minimizedAffinity>
-5.66823864

>  <minimizedRMSD>
2.3795023

$$$$
