
 OpenBabel03262522153D

 50 54  0  0  1  0  0  0  0  0999 V2000
   38.6910   30.0050   42.0710 C   0  0  1  0  0  0  0  0  0  0  0  0
   38.9150   31.5020   41.9150 C   0  0  0  0  0  0  0  0  0  0  0  0
   39.9690   31.7650   42.9470 C   0  0  2  0  0  0  0  0  0  0  0  0
   40.1400   30.6290   43.6800 O   0  0  0  0  0  0  0  0  0  0  0  0
   39.0070   29.8470   43.5480 C   0  0  0  0  0  0  0  0  0  0  0  0
   39.4640   29.4250   41.5130 H   0  0  0  0  0  0  0  0  0  0  0  0
   37.9930   31.9970   42.2330 H   0  0  0  0  0  0  0  0  0  0  0  0
   39.2450   31.7440   40.8860 H   0  0  0  0  0  0  0  0  0  0  0  0
   40.9320   31.9870   42.4230 H   0  0  0  0  0  0  0  0  0  0  0  0
   39.3160   28.8030   43.7990 H   0  0  0  0  0  0  0  0  0  0  0  0
   38.1610   30.2100   44.1600 H   0  0  0  0  0  0  0  0  0  0  0  0
   39.6270   32.9640   43.7940 C   0  0  0  0  0  0  0  0  0  0  0  0
   38.5600   33.0400   44.0320 H   0  0  0  0  0  0  0  0  0  0  0  0
   39.9180   33.8780   43.2210 H   0  0  0  0  0  0  0  0  0  0  0  0
   40.7060   32.9300   45.2480 S   0  0  0  0  0  0  0  0  0  0  0  0
   37.7810   31.7610   47.6580 C   0  0  0  0  0  0  0  0  0  0  0  0
   37.9310   32.5590   48.7930 C   0  0  0  0  0  0  0  0  0  0  0  0
   38.9390   33.4950   48.8710 C   0  0  0  0  0  0  0  0  0  0  0  0
   39.7660   33.5870   47.7830 C   0  0  0  0  0  0  0  0  0  0  0  0
   39.6060   32.8000   46.6810 C   0  0  0  0  0  0  0  0  0  0  0  0
   38.6180   31.8780   46.5970 N   0  0  0  0  0  0  0  0  0  0  0  0
   37.2410   32.4370   49.6220 H   0  0  0  0  0  0  0  0  0  0  0  0
   39.0560   34.1190   49.7600 H   0  0  0  0  0  0  0  0  0  0  0  0
   40.5840   34.2990   47.7650 H   0  0  0  0  0  0  0  0  0  0  0  0
   36.7000   30.8050   47.6540 C   0  0  0  0  0  0  0  0  0  0  0  0
   36.1870   30.4170   46.6040 O   0  0  0  0  0  0  0  0  0  0  0  0
   37.0430   29.6450   49.8070 C   0  0  0  0  0  0  0  0  0  0  0  0
   36.1480   30.2380   48.9010 C   0  0  0  0  0  0  0  0  0  0  0  0
   34.7730   30.2780   49.1950 C   0  0  0  0  0  0  0  0  0  0  0  0
   34.3600   29.7230   50.3800 N   0  0  0  0  0  0  0  0  0  0  0  0
   35.2320   29.1600   51.2340 C   0  0  0  0  0  0  0  0  0  0  0  0
   36.5450   29.1220   50.9510 N   0  0  0  0  0  0  0  0  0  0  0  0
   38.0840   29.6200   49.5730 H   0  0  0  0  0  0  0  0  0  0  0  0
   34.1210   30.7390   48.4790 H   0  0  0  0  0  0  0  0  0  0  0  0
   34.7340   28.7790   52.1040 H   0  0  0  0  0  0  0  0  0  0  0  0
   37.3850   29.6630   41.7790 O   0  0  0  0  0  0  0  0  0  0  0  0
   37.0300   26.8450   41.9780 H   0  0  0  0  0  0  0  0  0  0  0  0
   36.4230   27.4530   42.5700 N   0  0  0  0  0  0  0  0  0  0  0  0
   36.5800   28.8020   42.4860 C   0  0  0  0  0  0  0  0  0  0  0  0
   35.6950   29.4050   43.3350 N   0  0  0  0  0  0  0  0  0  0  0  0
   34.9870   28.4240   43.9480 C   0  0  0  0  0  0  0  0  0  0  0  0
   33.9710   28.3760   44.8900 C   0  0  0  0  0  0  0  0  0  0  0  0
   33.5010   27.1870   45.2690 N   0  0  0  0  0  0  0  0  0  0  0  0
   33.9550   26.0120   44.7930 C   0  0  0  0  0  0  0  0  0  0  0  0
   33.5310   25.0660   45.1440 H   0  0  0  0  0  0  0  0  0  0  0  0
   34.9560   26.0160   43.8640 N   0  0  0  0  0  0  0  0  0  0  0  0
   35.4470   27.2150   43.4650 C   0  0  0  0  0  0  0  0  0  0  0  0
   33.5050   29.6290   45.3790 N   0  0  0  0  0  0  0  0  0  0  0  0
   33.7060   30.1820   46.2630 H   0  0  0  0  0  0  0  0  0  0  0  0
   32.8260   30.1550   44.7890 H   0  0  0  0  0  0  0  0  0  0  0  0
  1  6  1  6  0  0  0
  1  5  1  0  0  0  0
  2  1  1  0  0  0  0
  2  7  1  0  0  0  0
  2  3  1  0  0  0  0
  3  9  1  6  0  0  0
  3  4  1  0  0  0  0
  3 12  1  0  0  0  0
  5  4  1  0  0  0  0
  5 10  1  0  0  0  0
  5 11  1  0  0  0  0
  8  2  1  0  0  0  0
 12 13  1  0  0  0  0
 12 15  1  0  0  0  0
 14 12  1  0  0  0  0
 15 20  1  0  0  0  0
 16 17  1  0  0  0  0
 17 18  2  0  0  0  0
 17 22  1  0  0  0  0
 18 23  1  0  0  0  0
 19 18  1  0  0  0  0
 20 19  2  0  0  0  0
 21 20  1  0  0  0  0
 21 16  2  0  0  0  0
 24 19  1  0  0  0  0
 25 16  1  0  0  0  0
 25 28  1  0  0  0  0
 26 25  2  0  0  0  0
 27 32  1  0  0  0  0
 28 29  1  0  0  0  0
 28 27  2  0  0  0  0
 29 30  2  0  0  0  0
 30 31  1  0  0  0  0
 31 35  1  0  0  0  0
 32 31  2  0  0  0  0
 33 27  1  0  0  0  0
 34 29  1  0  0  0  0
 36  1  1  0  0  0  0
 36 39  1  0  0  0  0
 37 38  1  0  0  0  0
 38 47  1  0  0  0  0
 39 38  1  0  0  0  0
 39 40  2  0  0  0  0
 40 41  1  0  0  0  0
 41 42  1  0  0  0  0
 42 43  2  0  0  0  0
 42 48  1  0  0  0  0
 44 45  1  0  0  0  0
 44 43  1  0  0  0  0
 46 44  2  0  0  0  0
 47 46  1  0  0  0  0
 47 41  2  0  0  0  0
 48 49  1  0  0  0  0
 50 48  1  0  0  0  0
M  END
>  <minimizedAffinity>
-5.48272181

>  <minimizedRMSD>
2.6553359

$$$$
