
 OpenBabel03272509433D

 43 46  0  0  1  0  0  0  0  0999 V2000
   37.6950   31.1130   48.8630 C   0  0  0  0  0  0  0  0  0  0  0  0
   37.6550   32.1300   49.8210 C   0  0  0  0  0  0  0  0  0  0  0  0
   38.2940   33.3450   49.6240 C   0  0  0  0  0  0  0  0  0  0  0  0
   38.9980   33.5650   48.4370 C   0  0  0  0  0  0  0  0  0  0  0  0
   39.0290   32.5640   47.5120 C   0  0  0  0  0  0  0  0  0  0  0  0
   38.3790   31.3610   47.7410 C   0  0  0  0  0  0  0  0  0  0  0  0
   37.0950   31.9280   50.7370 H   0  0  0  0  0  0  0  0  0  0  0  0
   38.1880   34.0450   50.4340 H   0  0  0  0  0  0  0  0  0  0  0  0
   39.4650   34.5360   48.3640 H   0  0  0  0  0  0  0  0  0  0  0  0
   39.6160   32.8820   46.6460 H   0  0  0  0  0  0  0  0  0  0  0  0
   37.0580   29.8330   49.0800 C   0  0  2  0  0  0  0  0  0  0  0  0
   37.4760   29.1390   48.2540 H   0  0  0  0  0  0  0  0  0  0  0  0
   33.9820   30.1600   47.1740 C   0  0  0  0  0  0  0  0  0  0  0  0
   33.2900   28.9960   47.4520 C   0  0  0  0  0  0  0  0  0  0  0  0
   33.8460   28.1080   48.3530 C   0  0  0  0  0  0  0  0  0  0  0  0
   35.0590   28.4070   48.9370 N   0  0  0  0  0  0  0  0  0  0  0  0
   35.6700   29.5330   48.6280 C   0  0  0  0  0  0  0  0  0  0  0  0
   35.1400   30.4150   47.7500 N   0  0  0  0  0  0  0  0  0  0  0  0
   33.5490   30.8590   46.4690 H   0  0  0  0  0  0  0  0  0  0  0  0
   32.3370   28.7220   47.0160 H   0  0  0  0  0  0  0  0  0  0  0  0
   33.3760   27.1780   48.6290 H   0  0  0  0  0  0  0  0  0  0  0  0
   37.5560   29.1990   50.0820 O   0  0  0  0  0  0  0  0  0  0  0  0
   37.4620   29.5560   51.0080 H   0  0  0  0  0  0  0  0  0  0  0  0
   38.5200   30.3790   46.6910 C   0  0  0  0  0  0  0  0  0  0  0  0
   38.8670   30.6750   45.4340 C   0  0  0  0  0  0  0  0  0  0  0  0
   39.0810   29.7530   44.2950 C   0  0  0  0  0  0  0  0  0  0  0  0
   38.1190   29.6810   43.7460 H   0  0  0  0  0  0  0  0  0  0  0  0
   39.3270   28.7260   44.6350 H   0  0  0  0  0  0  0  0  0  0  0  0
   40.3330   30.4240   43.1960 S   0  0  0  0  0  0  0  0  0  0  0  0
   39.3230   27.7650   41.8980 H   0  0  0  0  0  0  0  0  0  0  0  0
   40.1440   28.2040   41.4310 N   0  0  0  0  0  0  0  0  0  0  0  0
   40.7150   29.3490   41.8500 C   0  0  0  0  0  0  0  0  0  0  0  0
   41.7520   29.6720   41.0550 N   0  0  0  0  0  0  0  0  0  0  0  0
   41.8760   28.7250   40.0880 C   0  0  0  0  0  0  0  0  0  0  0  0
   42.7420   28.5440   39.0270 C   0  0  0  0  0  0  0  0  0  0  0  0
   42.5830   27.4510   38.2260 N   0  0  0  0  0  0  0  0  0  0  0  0
   41.5800   26.5710   38.4940 C   0  0  0  0  0  0  0  0  0  0  0  0
   41.4930   25.7150   37.8270 H   0  0  0  0  0  0  0  0  0  0  0  0
   40.7320   26.7620   39.5460 N   0  0  0  0  0  0  0  0  0  0  0  0
   40.8620   27.8320   40.3550 C   0  0  0  0  0  0  0  0  0  0  0  0
   43.7610   29.5220   38.8310 N   0  0  0  0  0  0  0  0  0  0  0  0
   43.6160   30.5470   38.9120 H   0  0  0  0  0  0  0  0  0  0  0  0
   44.6810   29.0880   38.5950 H   0  0  0  0  0  0  0  0  0  0  0  0
  1 11  1  0  0  0  0
  1  2  1  0  0  0  0
  2  7  1  0  0  0  0
  3  2  2  0  0  0  0
  3  8  1  0  0  0  0
  4  3  1  0  0  0  0
  5  6  1  0  0  0  0
  5  4  2  0  0  0  0
  6  1  2  0  0  0  0
  9  4  1  0  0  0  0
 10  5  1  0  0  0  0
 11 12  1  6  0  0  0
 11 22  1  0  0  0  0
 13 14  2  0  0  0  0
 13 18  1  0  0  0  0
 14 15  1  0  0  0  0
 15 21  1  0  0  0  0
 15 16  2  0  0  0  0
 17 16  1  0  0  0  0
 17 11  1  0  0  0  0
 18 17  2  0  0  0  0
 19 13  1  0  0  0  0
 20 14  1  0  0  0  0
 22 23  1  0  0  0  0
 24  6  1  0  0  0  0
 25 24  2  0  0  0  0
 26 28  1  0  0  0  0
 26 25  1  0  0  0  0
 27 26  1  0  0  0  0
 29 26  1  0  0  0  0
 31 32  1  0  0  0  0
 31 30  1  0  0  0  0
 32 29  1  0  0  0  0
 33 32  2  0  0  0  0
 34 40  1  0  0  0  0
 34 33  1  0  0  0  0
 35 34  2  0  0  0  0
 36 37  2  0  0  0  0
 36 35  1  0  0  0  0
 37 39  1  0  0  0  0
 38 37  1  0  0  0  0
 39 40  2  0  0  0  0
 40 31  1  0  0  0  0
 41 42  1  0  0  0  0
 41 35  1  0  0  0  0
 43 41  1  0  0  0  0
M  END
>  <minimizedAffinity>
-6.45013094

>  <minimizedRMSD>
1.31927299

$$$$
