
 OpenBabel03262520493D

 53 58  0  0  1  0  0  0  0  0999 V2000
   39.4830   28.7850   43.2970 C   0  0  0  0  0  0  0  0  0  0  0  0
   40.3460   29.8060   42.9370 C   0  0  0  0  0  0  0  0  0  0  0  0
   41.0800   29.7160   41.7480 C   0  0  0  0  0  0  0  0  0  0  0  0
   40.9510   28.6120   40.9300 C   0  0  0  0  0  0  0  0  0  0  0  0
   41.5400   28.3030   39.7590 N   0  0  0  0  0  0  0  0  0  0  0  0
   41.0530   27.1090   39.3930 C   0  0  0  0  0  0  0  0  0  0  0  0
   40.1520   26.6160   40.2970 C   0  0  0  0  0  0  0  0  0  0  0  0
   40.0940   27.5900   41.2820 C   0  0  0  0  0  0  0  0  0  0  0  0
   39.3750   27.6900   42.4550 C   0  0  0  0  0  0  0  0  0  0  0  0
   38.8690   28.7500   44.1850 H   0  0  0  0  0  0  0  0  0  0  0  0
   41.7450   30.5410   41.5060 H   0  0  0  0  0  0  0  0  0  0  0  0
   42.2360   28.9120   39.2680 H   0  0  0  0  0  0  0  0  0  0  0  0
   41.3730   26.6360   38.4750 H   0  0  0  0  0  0  0  0  0  0  0  0
   39.6080   25.6830   40.2580 H   0  0  0  0  0  0  0  0  0  0  0  0
   38.5030   26.6070   42.7730 N   0  0  0  0  0  0  0  0  0  0  0  0
   39.0210   25.5390   43.4370 C   0  0  0  0  0  0  0  0  0  0  0  0
   40.0330   25.3390   43.7930 H   0  0  0  0  0  0  0  0  0  0  0  0
   38.0040   24.6540   43.6190 N   0  0  0  0  0  0  0  0  0  0  0  0
   36.8820   25.1700   43.0760 C   0  0  0  0  0  0  0  0  0  0  0  0
   35.5570   24.7950   42.9280 C   0  0  0  0  0  0  0  0  0  0  0  0
   34.6910   25.5990   42.3060 N   0  0  0  0  0  0  0  0  0  0  0  0
   35.0360   26.7910   41.8000 C   0  0  0  0  0  0  0  0  0  0  0  0
   34.2530   27.3520   41.3210 H   0  0  0  0  0  0  0  0  0  0  0  0
   36.3220   27.2030   41.9220 N   0  0  0  0  0  0  0  0  0  0  0  0
   37.2010   26.4120   42.5400 C   0  0  0  0  0  0  0  0  0  0  0  0
   35.1760   23.5300   43.4620 N   0  0  0  0  0  0  0  0  0  0  0  0
   34.5110   22.9280   42.8970 H   0  0  0  0  0  0  0  0  0  0  0  0
   35.4620   23.0900   44.3560 H   0  0  0  0  0  0  0  0  0  0  0  0
   40.4660   30.9930   43.8400 C   0  0  0  0  0  0  0  0  0  0  0  0
   40.0680   31.8560   43.2450 H   0  0  0  0  0  0  0  0  0  0  0  0
   41.5250   31.1730   44.1250 H   0  0  0  0  0  0  0  0  0  0  0  0
   39.5830   30.7430   45.0410 C   0  0  0  0  0  0  0  0  0  0  0  0
   39.7380   29.6730   45.3390 H   0  0  0  0  0  0  0  0  0  0  0  0
   38.5380   30.9400   44.6950 H   0  0  0  0  0  0  0  0  0  0  0  0
   38.8020   32.2910   46.8760 C   0  0  1  0  0  0  0  0  0  0  0  0
   39.9250   33.0470   46.2040 C   0  0  0  0  0  0  0  0  0  0  0  0
   39.9140   31.5710   46.2280 C   0  0  2  0  0  0  0  0  0  0  0  0
   37.7950   32.2860   46.3880 H   0  0  0  0  0  0  0  0  0  0  0  0
   39.7340   33.5000   45.2030 H   0  0  0  0  0  0  0  0  0  0  0  0
   40.6550   33.6130   46.7860 H   0  0  0  0  0  0  0  0  0  0  0  0
   40.6540   31.1380   46.9670 H   0  0  0  0  0  0  0  0  0  0  0  0
   38.7260   32.4560   48.3590 C   0  0  0  0  0  0  0  0  0  0  0  0
   38.2400   33.4450   48.5620 H   0  0  0  0  0  0  0  0  0  0  0  0
   39.7380   32.4950   48.8100 H   0  0  0  0  0  0  0  0  0  0  0  0
   37.4800   30.0580   50.9580 C   0  0  0  0  0  0  0  0  0  0  0  0
   38.1850   31.1170   50.3200 C   0  0  0  0  0  0  0  0  0  0  0  0
   37.9730   31.3440   48.9900 C   0  0  0  0  0  0  0  0  0  0  0  0
   37.1060   30.5520   48.3490 N   0  0  0  0  0  0  0  0  0  0  0  0
   36.4420   29.5580   48.9440 C   0  0  0  0  0  0  0  0  0  0  0  0
   36.6410   29.3250   50.2480 N   0  0  0  0  0  0  0  0  0  0  0  0
   37.6940   29.9260   52.0270 H   0  0  0  0  0  0  0  0  0  0  0  0
   38.8790   31.7320   50.8800 H   0  0  0  0  0  0  0  0  0  0  0  0
   35.7410   28.9190   48.4250 H   0  0  0  0  0  0  0  0  0  0  0  0
  1 10  1  0  0  0  0
  2  1  1  0  0  0  0
  2 29  1  0  0  0  0
  3  2  2  0  0  0  0
  4  8  2  0  0  0  0
  4  3  1  0  0  0  0
  5  4  1  0  0  0  0
  6  5  1  0  0  0  0
  6  7  2  0  0  0  0
  7  8  1  0  0  0  0
  8  9  1  0  0  0  0
  9 15  1  0  0  0  0
  9  1  2  0  0  0  0
 11  3  1  0  0  0  0
 12  5  1  0  0  0  0
 13  6  1  0  0  0  0
 14  7  1  0  0  0  0
 15 16  1  0  0  0  0
 16 18  2  0  0  0  0
 16 17  1  0  0  0  0
 19 18  1  0  0  0  0
 20 19  1  0  0  0  0
 20 26  1  0  0  0  0
 21 20  2  0  0  0  0
 22 24  2  0  0  0  0
 22 21  1  0  0  0  0
 23 22  1  0  0  0  0
 24 25  1  0  0  0  0
 25 15  1  0  0  0  0
 25 19  2  0  0  0  0
 26 28  1  0  0  0  0
 27 26  1  0  0  0  0
 29 31  1  0  0  0  0
 29 32  1  0  0  0  0
 30 29  1  0  0  0  0
 32 33  1  0  0  0  0
 32 37  1  0  0  0  0
 34 32  1  0  0  0  0
 35 38  1  6  0  0  0
 35 42  1  0  0  0  0
 36 37  1  0  0  0  0
 36 40  1  0  0  0  0
 36 35  1  0  0  0  0
 37 35  1  0  0  0  0
 37 41  1  1  0  0  0
 39 36  1  0  0  0  0
 42 43  1  0  0  0  0
 42 44  1  0  0  0  0
 42 47  1  0  0  0  0
 45 51  1  0  0  0  0
 46 52  1  0  0  0  0
 46 45  1  0  0  0  0
 47 46  2  0  0  0  0
 48 49  2  0  0  0  0
 48 47  1  0  0  0  0
 49 50  1  0  0  0  0
 50 45  2  0  0  0  0
 53 49  1  0  0  0  0
M  END
>  <minimizedAffinity>
-6.10383606

>  <minimizedRMSD>
0.339760691

$$$$
