
 OpenBabel03272506443D

 37 40  0  0  1  0  0  0  0  0999 V2000
   32.3530   27.2720   48.3420 C   0  0  2  0  0  0  0  0  0  0  0  0
   33.8700   27.2890   48.3250 C   0  0  1  0  0  0  0  0  0  0  0  0
   34.2980   26.3860   47.3780 O   0  0  0  0  0  0  0  0  0  0  0  0
   33.2070   25.9260   46.6850 C   0  0  0  0  0  0  0  0  0  0  0  0
   32.0980   26.9690   46.8920 C   0  0  1  0  0  0  0  0  0  0  0  0
   31.9630   26.4330   48.9600 H   0  0  0  0  0  0  0  0  0  0  0  0
   34.2450   27.0790   49.3390 H   0  0  0  0  0  0  0  0  0  0  0  0
   32.8680   24.9110   46.9450 H   0  0  0  0  0  0  0  0  0  0  0  0
   33.4590   25.9760   45.5960 H   0  0  0  0  0  0  0  0  0  0  0  0
   32.2540   27.8390   46.2400 H   0  0  0  0  0  0  0  0  0  0  0  0
   31.8410   28.5010   48.7450 O   0  0  0  0  0  0  0  0  0  0  0  0
   31.9500   28.5140   49.7430 H   0  0  0  0  0  0  0  0  0  0  0  0
   34.3590   28.9510   47.7610 S   0  0  0  0  0  0  0  0  0  0  0  0
   37.0830   29.2500   50.6100 C   0  0  0  0  0  0  0  0  0  0  0  0
   37.4150   30.5980   50.6740 C   0  0  0  0  0  0  0  0  0  0  0  0
   36.7590   31.4660   49.7850 C   0  0  0  0  0  0  0  0  0  0  0  0
   35.8490   30.9380   48.9250 N   0  0  0  0  0  0  0  0  0  0  0  0
   35.5520   29.6260   48.8920 C   0  0  0  0  0  0  0  0  0  0  0  0
   36.1740   28.7720   49.7410 N   0  0  0  0  0  0  0  0  0  0  0  0
   37.6190   28.6220   51.3190 H   0  0  0  0  0  0  0  0  0  0  0  0
   38.1170   31.0600   51.3240 H   0  0  0  0  0  0  0  0  0  0  0  0
   36.9030   32.5530   49.7030 H   0  0  0  0  0  0  0  0  0  0  0  0
   30.8560   26.4000   46.6660 O   0  0  0  0  0  0  0  0  0  0  0  0
   29.9590   29.0640   47.0980 H   0  0  0  0  0  0  0  0  0  0  0  0
   29.4190   28.4500   46.4460 N   0  0  0  0  0  0  0  0  0  0  0  0
   29.8120   27.1820   46.2150 C   0  0  0  0  0  0  0  0  0  0  0  0
   28.9420   26.6350   45.3490 N   0  0  0  0  0  0  0  0  0  0  0  0
   28.0060   27.5350   45.0260 C   0  0  0  0  0  0  0  0  0  0  0  0
   26.8890   27.5770   44.2190 C   0  0  0  0  0  0  0  0  0  0  0  0
   26.1260   28.6990   44.1150 N   0  0  0  0  0  0  0  0  0  0  0  0
   26.4890   29.7920   44.8320 C   0  0  0  0  0  0  0  0  0  0  0  0
   25.8100   30.6390   44.6780 H   0  0  0  0  0  0  0  0  0  0  0  0
   27.5650   29.8110   45.6340 N   0  0  0  0  0  0  0  0  0  0  0  0
   28.3110   28.7000   45.7290 C   0  0  0  0  0  0  0  0  0  0  0  0
   26.5430   26.4140   43.4860 N   0  0  0  0  0  0  0  0  0  0  0  0
   25.5510   26.0910   43.5930 H   0  0  0  0  0  0  0  0  0  0  0  0
   27.1780   25.8500   42.8520 H   0  0  0  0  0  0  0  0  0  0  0  0
  1 11  1  0  0  0  0
  1  6  1  1  0  0  0
  2  1  1  0  0  0  0
  2  7  1  1  0  0  0
  3  2  1  0  0  0  0
  4  5  1  0  0  0  0
  4  8  1  0  0  0  0
  4  3  1  0  0  0  0
  5 10  1  6  0  0  0
  5  1  1  0  0  0  0
  9  4  1  0  0  0  0
 11 12  1  0  0  0  0
 13  2  1  0  0  0  0
 13 18  1  0  0  0  0
 14 15  1  0  0  0  0
 14 20  1  0  0  0  0
 15 21  1  0  0  0  0
 16 15  2  0  0  0  0
 17 16  1  0  0  0  0
 18 17  2  0  0  0  0
 18 19  1  0  0  0  0
 19 14  2  0  0  0  0
 22 16  1  0  0  0  0
 23  5  1  0  0  0  0
 25 24  1  0  0  0  0
 26 25  1  0  0  0  0
 26 23  1  0  0  0  0
 27 26  2  0  0  0  0
 28 27  1  0  0  0  0
 28 34  1  0  0  0  0
 29 28  2  0  0  0  0
 30 29  1  0  0  0  0
 30 31  2  0  0  0  0
 31 33  1  0  0  0  0
 32 31  1  0  0  0  0
 33 34  2  0  0  0  0
 34 25  1  0  0  0  0
 35 36  1  0  0  0  0
 35 29  1  0  0  0  0
 37 35  1  0  0  0  0
M  END
>  <minimizedAffinity>
-4.51893902

>  <minimizedRMSD>
3.58974743

$$$$
