
 OpenBabel03272506433D

 37 40  0  0  1  0  0  0  0  0999 V2000
   32.3920   28.3420   47.4390 C   0  0  2  0  0  0  0  0  0  0  0  0
   33.6510   28.2690   48.2820 C   0  0  1  0  0  0  0  0  0  0  0  0
   34.2130   27.0250   48.1050 O   0  0  0  0  0  0  0  0  0  0  0  0
   33.5290   26.3700   47.1130 C   0  0  0  0  0  0  0  0  0  0  0  0
   32.8140   27.4580   46.2980 C   0  0  1  0  0  0  0  0  0  0  0  0
   31.5270   27.8730   47.9580 H   0  0  0  0  0  0  0  0  0  0  0  0
   33.3980   28.4970   49.3300 H   0  0  0  0  0  0  0  0  0  0  0  0
   32.8330   25.5860   47.4490 H   0  0  0  0  0  0  0  0  0  0  0  0
   34.2890   25.9330   46.4180 H   0  0  0  0  0  0  0  0  0  0  0  0
   33.5120   27.9530   45.6100 H   0  0  0  0  0  0  0  0  0  0  0  0
   32.1220   29.6500   47.0490 O   0  0  0  0  0  0  0  0  0  0  0  0
   31.7220   30.0850   47.8610 H   0  0  0  0  0  0  0  0  0  0  0  0
   34.8040   29.4980   47.5900 S   0  0  0  0  0  0  0  0  0  0  0  0
   37.3120   29.3110   50.6410 C   0  0  0  0  0  0  0  0  0  0  0  0
   37.8190   30.5960   50.7920 C   0  0  0  0  0  0  0  0  0  0  0  0
   37.3590   31.5790   49.8980 C   0  0  0  0  0  0  0  0  0  0  0  0
   36.4550   31.2150   48.9510 N   0  0  0  0  0  0  0  0  0  0  0  0
   35.9860   29.9590   48.8360 C   0  0  0  0  0  0  0  0  0  0  0  0
   36.4170   28.9960   49.6870 N   0  0  0  0  0  0  0  0  0  0  0  0
   37.6990   28.5890   51.3570 H   0  0  0  0  0  0  0  0  0  0  0  0
   38.5240   30.9320   51.5120 H   0  0  0  0  0  0  0  0  0  0  0  0
   37.6550   32.6370   49.8790 H   0  0  0  0  0  0  0  0  0  0  0  0
   31.7430   26.9150   45.6080 O   0  0  0  0  0  0  0  0  0  0  0  0
   30.5650   25.8860   43.2320 H   0  0  0  0  0  0  0  0  0  0  0  0
   30.8270   26.8990   43.2660 N   0  0  0  0  0  0  0  0  0  0  0  0
   31.3890   27.4230   44.3740 C   0  0  0  0  0  0  0  0  0  0  0  0
   31.6180   28.7250   44.1390 N   0  0  0  0  0  0  0  0  0  0  0  0
   31.2130   29.0360   42.9020 C   0  0  0  0  0  0  0  0  0  0  0  0
   31.1830   30.1620   42.1080 C   0  0  0  0  0  0  0  0  0  0  0  0
   30.6820   30.1280   40.8430 N   0  0  0  0  0  0  0  0  0  0  0  0
   30.2070   28.9500   40.3700 C   0  0  0  0  0  0  0  0  0  0  0  0
   29.8290   29.0310   39.3440 H   0  0  0  0  0  0  0  0  0  0  0  0
   30.2120   27.8210   41.0970 N   0  0  0  0  0  0  0  0  0  0  0  0
   30.7070   27.8640   42.3420 C   0  0  0  0  0  0  0  0  0  0  0  0
   31.6870   31.3740   42.6390 N   0  0  0  0  0  0  0  0  0  0  0  0
   32.3950   31.8690   42.0440 H   0  0  0  0  0  0  0  0  0  0  0  0
   31.4250   31.8220   43.5630 H   0  0  0  0  0  0  0  0  0  0  0  0
  1  6  1  1  0  0  0
  1  2  1  0  0  0  0
  2  7  1  1  0  0  0
  3  2  1  0  0  0  0
  4  8  1  0  0  0  0
  4  3  1  0  0  0  0
  5 10  1  6  0  0  0
  5  4  1  0  0  0  0
  5  1  1  0  0  0  0
  9  4  1  0  0  0  0
 11  1  1  0  0  0  0
 11 12  1  0  0  0  0
 13  2  1  0  0  0  0
 13 18  1  0  0  0  0
 14 15  1  0  0  0  0
 14 20  1  0  0  0  0
 15 21  1  0  0  0  0
 16 15  2  0  0  0  0
 17 16  1  0  0  0  0
 18 17  2  0  0  0  0
 18 19  1  0  0  0  0
 19 14  2  0  0  0  0
 22 16  1  0  0  0  0
 23  5  1  0  0  0  0
 24 25  1  0  0  0  0
 25 26  1  0  0  0  0
 26 23  1  0  0  0  0
 27 26  2  0  0  0  0
 28 27  1  0  0  0  0
 29 35  1  0  0  0  0
 29 28  2  0  0  0  0
 30 29  1  0  0  0  0
 31 30  2  0  0  0  0
 31 33  1  0  0  0  0
 32 31  1  0  0  0  0
 33 34  2  0  0  0  0
 34 28  1  0  0  0  0
 34 25  1  0  0  0  0
 35 37  1  0  0  0  0
 36 35  1  0  0  0  0
M  END
>  <minimizedAffinity>
-3.8253274

>  <minimizedRMSD>
1.37740147

$$$$
