
 OpenBabel03272506443D

 37 40  0  0  1  0  0  0  0  0999 V2000
   32.2500   28.1580   47.5120 C   0  0  2  0  0  0  0  0  0  0  0  0
   33.5240   28.1080   48.3330 C   0  0  1  0  0  0  0  0  0  0  0  0
   34.1170   26.8820   48.1280 O   0  0  0  0  0  0  0  0  0  0  0  0
   33.4340   26.2240   47.1370 C   0  0  0  0  0  0  0  0  0  0  0  0
   32.6760   27.3040   46.3500 C   0  0  1  0  0  0  0  0  0  0  0  0
   31.4070   27.6580   48.0380 H   0  0  0  0  0  0  0  0  0  0  0  0
   33.2830   28.3120   49.3880 H   0  0  0  0  0  0  0  0  0  0  0  0
   32.7660   25.4160   47.4730 H   0  0  0  0  0  0  0  0  0  0  0  0
   34.1940   25.8180   46.4230 H   0  0  0  0  0  0  0  0  0  0  0  0
   33.3490   27.8270   45.6590 H   0  0  0  0  0  0  0  0  0  0  0  0
   31.9380   29.4640   47.1470 O   0  0  0  0  0  0  0  0  0  0  0  0
   31.5400   29.8760   47.9710 H   0  0  0  0  0  0  0  0  0  0  0  0
   34.6320   29.3770   47.6410 S   0  0  0  0  0  0  0  0  0  0  0  0
   37.1970   29.2500   50.6470 C   0  0  0  0  0  0  0  0  0  0  0  0
   37.6290   30.5590   50.8300 C   0  0  0  0  0  0  0  0  0  0  0  0
   37.0970   31.5380   49.9740 C   0  0  0  0  0  0  0  0  0  0  0  0
   36.2010   31.1490   49.0290 N   0  0  0  0  0  0  0  0  0  0  0  0
   35.8050   29.8710   48.8820 C   0  0  0  0  0  0  0  0  0  0  0  0
   36.3060   28.9110   49.6970 N   0  0  0  0  0  0  0  0  0  0  0  0
   37.6390   28.5320   51.3340 H   0  0  0  0  0  0  0  0  0  0  0  0
   38.3250   30.9140   51.5490 H   0  0  0  0  0  0  0  0  0  0  0  0
   37.3300   32.6120   49.9820 H   0  0  0  0  0  0  0  0  0  0  0  0
   31.6090   26.7410   45.6700 O   0  0  0  0  0  0  0  0  0  0  0  0
   29.0180   26.6480   44.5000 H   0  0  0  0  0  0  0  0  0  0  0  0
   29.6720   27.4140   44.2150 N   0  0  0  0  0  0  0  0  0  0  0  0
   30.9080   27.4910   44.7470 C   0  0  0  0  0  0  0  0  0  0  0  0
   31.5190   28.5580   44.2070 N   0  0  0  0  0  0  0  0  0  0  0  0
   30.6930   29.1570   43.3410 C   0  0  0  0  0  0  0  0  0  0  0  0
   30.7360   30.2520   42.5060 C   0  0  0  0  0  0  0  0  0  0  0  0
   29.6740   30.5970   41.7270 N   0  0  0  0  0  0  0  0  0  0  0  0
   28.5570   29.8320   41.7890 C   0  0  0  0  0  0  0  0  0  0  0  0
   27.7630   30.1940   41.1250 H   0  0  0  0  0  0  0  0  0  0  0  0
   28.4560   28.7540   42.5830 N   0  0  0  0  0  0  0  0  0  0  0  0
   29.5070   28.4240   43.3460 C   0  0  0  0  0  0  0  0  0  0  0  0
   31.9220   31.0270   42.4690 N   0  0  0  0  0  0  0  0  0  0  0  0
   32.3180   31.2030   41.5140 H   0  0  0  0  0  0  0  0  0  0  0  0
   32.4380   31.4380   43.2990 H   0  0  0  0  0  0  0  0  0  0  0  0
  1  6  1  1  0  0  0
  1  2  1  0  0  0  0
  2  7  1  1  0  0  0
  3  2  1  0  0  0  0
  4  8  1  0  0  0  0
  4  3  1  0  0  0  0
  5 10  1  6  0  0  0
  5  4  1  0  0  0  0
  5  1  1  0  0  0  0
  9  4  1  0  0  0  0
 11  1  1  0  0  0  0
 11 12  1  0  0  0  0
 13  2  1  0  0  0  0
 13 18  1  0  0  0  0
 14 15  1  0  0  0  0
 14 20  1  0  0  0  0
 15 21  1  0  0  0  0
 16 22  1  0  0  0  0
 16 15  2  0  0  0  0
 17 16  1  0  0  0  0
 18 17  2  0  0  0  0
 18 19  1  0  0  0  0
 19 14  2  0  0  0  0
 23  5  1  0  0  0  0
 25 24  1  0  0  0  0
 25 26  1  0  0  0  0
 26 23  1  0  0  0  0
 27 26  2  0  0  0  0
 28 34  1  0  0  0  0
 28 27  1  0  0  0  0
 29 28  2  0  0  0  0
 30 31  2  0  0  0  0
 30 29  1  0  0  0  0
 31 33  1  0  0  0  0
 32 31  1  0  0  0  0
 33 34  2  0  0  0  0
 34 25  1  0  0  0  0
 35 29  1  0  0  0  0
 35 37  1  0  0  0  0
 36 35  1  0  0  0  0
M  END
>  <minimizedAffinity>
-4.04994059

>  <minimizedRMSD>
2.2584641

$$$$
