
 OpenBabel03272506443D

 37 40  0  0  1  0  0  0  0  0999 V2000
   32.2640   28.8160   47.5070 C   0  0  2  0  0  0  0  0  0  0  0  0
   33.5030   28.5260   48.3320 C   0  0  1  0  0  0  0  0  0  0  0  0
   33.6970   27.1630   48.3490 O   0  0  0  0  0  0  0  0  0  0  0  0
   32.8040   26.5820   47.4850 C   0  0  0  0  0  0  0  0  0  0  0  0
   32.3630   27.6900   46.5170 C   0  0  1  0  0  0  0  0  0  0  0  0
   31.3360   28.6880   48.1080 H   0  0  0  0  0  0  0  0  0  0  0  0
   33.3830   28.9690   49.3340 H   0  0  0  0  0  0  0  0  0  0  0  0
   31.9430   26.0800   47.9530 H   0  0  0  0  0  0  0  0  0  0  0  0
   33.3760   25.8520   46.8580 H   0  0  0  0  0  0  0  0  0  0  0  0
   33.1280   27.8630   45.7480 H   0  0  0  0  0  0  0  0  0  0  0  0
   32.3350   30.0740   46.9170 O   0  0  0  0  0  0  0  0  0  0  0  0
   32.1160   30.7200   47.6540 H   0  0  0  0  0  0  0  0  0  0  0  0
   34.9030   29.2700   47.4350 S   0  0  0  0  0  0  0  0  0  0  0  0
   37.3770   29.4710   50.5130 C   0  0  0  0  0  0  0  0  0  0  0  0
   37.9410   30.7400   50.4600 C   0  0  0  0  0  0  0  0  0  0  0  0
   37.5340   31.5840   49.4120 C   0  0  0  0  0  0  0  0  0  0  0  0
   36.6220   31.1110   48.5230 N   0  0  0  0  0  0  0  0  0  0  0  0
   36.0960   29.8750   48.6060 C   0  0  0  0  0  0  0  0  0  0  0  0
   36.4750   29.0450   49.6090 N   0  0  0  0  0  0  0  0  0  0  0  0
   37.7250   28.8590   51.3410 H   0  0  0  0  0  0  0  0  0  0  0  0
   38.6550   31.1570   51.1270 H   0  0  0  0  0  0  0  0  0  0  0  0
   37.8790   32.6100   49.2250 H   0  0  0  0  0  0  0  0  0  0  0  0
   31.1470   27.3660   45.9390 O   0  0  0  0  0  0  0  0  0  0  0  0
   29.7870   29.8640   45.8910 H   0  0  0  0  0  0  0  0  0  0  0  0
   29.3630   29.0690   46.4230 N   0  0  0  0  0  0  0  0  0  0  0  0
   29.9760   27.8710   46.4690 C   0  0  0  0  0  0  0  0  0  0  0  0
   29.2160   27.0500   47.2140 N   0  0  0  0  0  0  0  0  0  0  0  0
   28.1320   27.7090   47.6400 C   0  0  0  0  0  0  0  0  0  0  0  0
   27.0210   27.4260   48.4070 C   0  0  0  0  0  0  0  0  0  0  0  0
   26.0690   28.3650   48.6550 N   0  0  0  0  0  0  0  0  0  0  0  0
   26.2330   29.6030   48.1270 C   0  0  0  0  0  0  0  0  0  0  0  0
   25.4120   30.2820   48.3850 H   0  0  0  0  0  0  0  0  0  0  0  0
   27.2920   29.9370   47.3710 N   0  0  0  0  0  0  0  0  0  0  0  0
   28.2250   29.0040   47.1320 C   0  0  0  0  0  0  0  0  0  0  0  0
   26.8870   26.1200   48.9410 N   0  0  0  0  0  0  0  0  0  0  0  0
   26.7050   26.0710   49.9740 H   0  0  0  0  0  0  0  0  0  0  0  0
   26.9510   25.2060   48.4100 H   0  0  0  0  0  0  0  0  0  0  0  0
  1  6  1  1  0  0  0
  1  2  1  0  0  0  0
  2  3  1  0  0  0  0
  2  7  1  1  0  0  0
  4  8  1  0  0  0  0
  4  3  1  0  0  0  0
  5 10  1  6  0  0  0
  5  4  1  0  0  0  0
  5  1  1  0  0  0  0
  9  4  1  0  0  0  0
 11  1  1  0  0  0  0
 11 12  1  0  0  0  0
 13  2  1  0  0  0  0
 13 18  1  0  0  0  0
 14 20  1  0  0  0  0
 15 14  1  0  0  0  0
 15 21  1  0  0  0  0
 16 15  2  0  0  0  0
 17 18  2  0  0  0  0
 17 16  1  0  0  0  0
 18 19  1  0  0  0  0
 19 14  2  0  0  0  0
 22 16  1  0  0  0  0
 23 26  1  0  0  0  0
 23  5  1  0  0  0  0
 24 25  1  0  0  0  0
 25 26  1  0  0  0  0
 25 34  1  0  0  0  0
 26 27  2  0  0  0  0
 27 28  1  0  0  0  0
 28 29  1  0  0  0  0
 29 30  2  0  0  0  0
 29 35  1  0  0  0  0
 31 32  1  0  0  0  0
 31 30  1  0  0  0  0
 33 31  2  0  0  0  0
 34 33  1  0  0  0  0
 34 28  2  0  0  0  0
 35 36  1  0  0  0  0
 37 35  1  0  0  0  0
M  END
>  <minimizedAffinity>
-5.58524036

>  <minimizedRMSD>
4.69489193

$$$$
