
 OpenBabel03272506453D

 37 40  0  0  1  0  0  0  0  0999 V2000
   36.8980   28.0150   31.5530 C   0  0  2  0  0  0  0  0  0  0  0  0
   37.2790   26.5680   31.7990 C   0  0  1  0  0  0  0  0  0  0  0  0
   37.3240   26.3630   33.1600 O   0  0  0  0  0  0  0  0  0  0  0  0
   36.8520   27.4870   33.7900 C   0  0  0  0  0  0  0  0  0  0  0  0
   36.0110   28.2390   32.7460 C   0  0  1  0  0  0  0  0  0  0  0  0
   37.7810   28.6870   31.6280 H   0  0  0  0  0  0  0  0  0  0  0  0
   38.2300   26.3520   31.2870 H   0  0  0  0  0  0  0  0  0  0  0  0
   37.6140   28.1350   34.2470 H   0  0  0  0  0  0  0  0  0  0  0  0
   36.1220   27.1490   34.5680 H   0  0  0  0  0  0  0  0  0  0  0  0
   35.0210   27.7780   32.6360 H   0  0  0  0  0  0  0  0  0  0  0  0
   36.2320   28.1600   30.3400 O   0  0  0  0  0  0  0  0  0  0  0  0
   36.9520   28.1280   29.6420 H   0  0  0  0  0  0  0  0  0  0  0  0
   35.9150   25.5570   31.1370 S   0  0  0  0  0  0  0  0  0  0  0  0
   38.1200   22.3240   30.5750 C   0  0  0  0  0  0  0  0  0  0  0  0
   37.3040   21.2490   30.9070 C   0  0  0  0  0  0  0  0  0  0  0  0
   35.9950   21.5400   31.3290 C   0  0  0  0  0  0  0  0  0  0  0  0
   35.6130   22.8420   31.3870 N   0  0  0  0  0  0  0  0  0  0  0  0
   36.4310   23.8580   31.0570 C   0  0  0  0  0  0  0  0  0  0  0  0
   37.6970   23.6000   30.6470 N   0  0  0  0  0  0  0  0  0  0  0  0
   39.1220   22.0450   30.2550 H   0  0  0  0  0  0  0  0  0  0  0  0
   37.5540   20.2170   30.8800 H   0  0  0  0  0  0  0  0  0  0  0  0
   35.2260   20.8130   31.6260 H   0  0  0  0  0  0  0  0  0  0  0  0
   35.8980   29.5750   33.0950 O   0  0  0  0  0  0  0  0  0  0  0  0
   33.0740   29.2520   33.1990 H   0  0  0  0  0  0  0  0  0  0  0  0
   33.5450   29.8090   33.9490 N   0  0  0  0  0  0  0  0  0  0  0  0
   34.8810   29.9840   33.9350 C   0  0  0  0  0  0  0  0  0  0  0  0
   35.2070   30.7290   35.0040 N   0  0  0  0  0  0  0  0  0  0  0  0
   34.1020   31.0290   35.6940 C   0  0  0  0  0  0  0  0  0  0  0  0
   33.7920   31.7350   36.8380 C   0  0  0  0  0  0  0  0  0  0  0  0
   32.5100   31.8470   37.2800 N   0  0  0  0  0  0  0  0  0  0  0  0
   31.5280   31.2450   36.5670 C   0  0  0  0  0  0  0  0  0  0  0  0
   30.5350   31.3950   37.0070 H   0  0  0  0  0  0  0  0  0  0  0  0
   31.7680   30.5440   35.4460 N   0  0  0  0  0  0  0  0  0  0  0  0
   33.0350   30.4390   35.0190 C   0  0  0  0  0  0  0  0  0  0  0  0
   34.8470   32.3500   37.5560 N   0  0  0  0  0  0  0  0  0  0  0  0
   34.7120   33.3690   37.7740 H   0  0  0  0  0  0  0  0  0  0  0  0
   35.7420   31.8920   37.8890 H   0  0  0  0  0  0  0  0  0  0  0  0
  1  6  1  1  0  0  0
  1  2  1  0  0  0  0
  1  5  1  0  0  0  0
  2  7  1  6  0  0  0
  2  3  1  0  0  0  0
  3  4  1  0  0  0  0
  4  8  1  0  0  0  0
  4  9  1  0  0  0  0
  5 10  1  6  0  0  0
  5 23  1  0  0  0  0
  5  4  1  0  0  0  0
 11  1  1  0  0  0  0
 12 11  1  0  0  0  0
 13  2  1  0  0  0  0
 14 19  2  0  0  0  0
 14 15  1  0  0  0  0
 15 16  2  0  0  0  0
 16 17  1  0  0  0  0
 16 22  1  0  0  0  0
 18 13  1  0  0  0  0
 18 17  2  0  0  0  0
 19 18  1  0  0  0  0
 20 14  1  0  0  0  0
 21 15  1  0  0  0  0
 23 26  1  0  0  0  0
 24 25  1  0  0  0  0
 25 34  1  0  0  0  0
 26 25  1  0  0  0  0
 26 27  2  0  0  0  0
 27 28  1  0  0  0  0
 28 29  1  0  0  0  0
 29 30  2  0  0  0  0
 29 35  1  0  0  0  0
 31 32  1  0  0  0  0
 31 30  1  0  0  0  0
 33 31  2  0  0  0  0
 34 33  1  0  0  0  0
 34 28  2  0  0  0  0
 35 36  1  0  0  0  0
 35 37  1  0  0  0  0
M  END
>  <minimizedAffinity>
-5.48488808

$$$$

 OpenBabel03272506453D

 37 40  0  0  1  0  0  0  0  0999 V2000
   36.7620   27.6660   34.6160 C   0  0  2  0  0  0  0  0  0  0  0  0
   37.1650   26.2320   34.3350 C   0  0  1  0  0  0  0  0  0  0  0  0
   36.8100   25.9340   33.0380 O   0  0  0  0  0  0  0  0  0  0  0  0
   36.3760   27.0820   32.4260 C   0  0  0  0  0  0  0  0  0  0  0  0
   36.9560   28.2470   33.2430 C   0  0  1  0  0  0  0  0  0  0  0  0
   35.6860   27.7410   34.8900 H   0  0  0  0  0  0  0  0  0  0  0  0
   36.7010   25.5720   35.0850 H   0  0  0  0  0  0  0  0  0  0  0  0
   35.2860   27.1730   32.2990 H   0  0  0  0  0  0  0  0  0  0  0  0
   36.8820   27.1390   31.4300 H   0  0  0  0  0  0  0  0  0  0  0  0
   38.0130   28.4100   32.9930 H   0  0  0  0  0  0  0  0  0  0  0  0
   37.5870   28.2420   35.5770 O   0  0  0  0  0  0  0  0  0  0  0  0
   37.2610   27.8750   36.4530 H   0  0  0  0  0  0  0  0  0  0  0  0
   38.9840   26.1810   34.4320 S   0  0  0  0  0  0  0  0  0  0  0  0
   38.9370   23.3360   37.1770 C   0  0  0  0  0  0  0  0  0  0  0  0
   40.1720   22.7040   37.0850 C   0  0  0  0  0  0  0  0  0  0  0  0
   41.0710   23.1840   36.1180 C   0  0  0  0  0  0  0  0  0  0  0  0
   40.6830   24.2280   35.3400 N   0  0  0  0  0  0  0  0  0  0  0  0
   39.4780   24.8160   35.4580 C   0  0  0  0  0  0  0  0  0  0  0  0
   38.5950   24.3680   36.3840 N   0  0  0  0  0  0  0  0  0  0  0  0
   38.2790   22.9270   37.9400 H   0  0  0  0  0  0  0  0  0  0  0  0
   40.5230   21.8870   37.6660 H   0  0  0  0  0  0  0  0  0  0  0  0
   42.0810   22.8010   35.9150 H   0  0  0  0  0  0  0  0  0  0  0  0
   36.2150   29.3970   33.0300 O   0  0  0  0  0  0  0  0  0  0  0  0
   33.4690   28.7030   33.2930 H   0  0  0  0  0  0  0  0  0  0  0  0
   33.8890   29.3700   33.9810 N   0  0  0  0  0  0  0  0  0  0  0  0
   35.1860   29.7230   33.8900 C   0  0  0  0  0  0  0  0  0  0  0  0
   35.4480   30.5800   34.8910 N   0  0  0  0  0  0  0  0  0  0  0  0
   34.3390   30.7760   35.6150 C   0  0  0  0  0  0  0  0  0  0  0  0
   33.9800   31.5120   36.7240 C   0  0  0  0  0  0  0  0  0  0  0  0
   32.7140   31.4800   37.2200 N   0  0  0  0  0  0  0  0  0  0  0  0
   31.7970   30.7010   36.5970 C   0  0  0  0  0  0  0  0  0  0  0  0
   30.8110   30.7470   37.0740 H   0  0  0  0  0  0  0  0  0  0  0  0
   32.0880   29.9620   35.5130 N   0  0  0  0  0  0  0  0  0  0  0  0
   33.3390   29.9990   35.0320 C   0  0  0  0  0  0  0  0  0  0  0  0
   34.9680   32.3140   37.3480 N   0  0  0  0  0  0  0  0  0  0  0  0
   34.7020   33.3180   37.5060 H   0  0  0  0  0  0  0  0  0  0  0  0
   35.9300   32.0060   37.6650 H   0  0  0  0  0  0  0  0  0  0  0  0
  1  6  1  1  0  0  0
  1 11  1  0  0  0  0
  2 13  1  0  0  0  0
  2  1  1  0  0  0  0
  2  7  1  1  0  0  0
  3  2  1  0  0  0  0
  4  3  1  0  0  0  0
  4  5  1  0  0  0  0
  5 10  1  6  0  0  0
  5  1  1  0  0  0  0
  8  4  1  0  0  0  0
  9  4  1  0  0  0  0
 11 12  1  0  0  0  0
 13 18  1  0  0  0  0
 14 20  1  0  0  0  0
 15 14  1  0  0  0  0
 15 21  1  0  0  0  0
 16 15  2  0  0  0  0
 17 18  2  0  0  0  0
 17 16  1  0  0  0  0
 18 19  1  0  0  0  0
 19 14  2  0  0  0  0
 22 16  1  0  0  0  0
 23  5  1  0  0  0  0
 23 26  1  0  0  0  0
 24 25  1  0  0  0  0
 25 34  1  0  0  0  0
 26 25  1  0  0  0  0
 26 27  2  0  0  0  0
 27 28  1  0  0  0  0
 28 29  1  0  0  0  0
 29 30  2  0  0  0  0
 29 35  1  0  0  0  0
 31 32  1  0  0  0  0
 31 30  1  0  0  0  0
 33 31  2  0  0  0  0
 34 33  1  0  0  0  0
 34 28  2  0  0  0  0
 35 36  1  0  0  0  0
 35 37  1  0  0  0  0
M  END
>  <minimizedAffinity>
-5.4447279

$$$$

 OpenBabel03272506453D

 37 40  0  0  1  0  0  0  0  0999 V2000
   36.9040   26.8570   33.8680 C   0  0  2  0  0  0  0  0  0  0  0  0
   37.4030   25.4440   33.6340 C   0  0  1  0  0  0  0  0  0  0  0  0
   37.5170   25.2510   32.2750 O   0  0  0  0  0  0  0  0  0  0  0  0
   37.2980   26.4470   31.6410 C   0  0  0  0  0  0  0  0  0  0  0  0
   37.5460   27.5400   32.6920 C   0  0  1  0  0  0  0  0  0  0  0  0
   35.7980   26.9210   33.7630 H   0  0  0  0  0  0  0  0  0  0  0  0
   36.7220   24.7330   34.1270 H   0  0  0  0  0  0  0  0  0  0  0  0
   36.3160   26.5590   31.1560 H   0  0  0  0  0  0  0  0  0  0  0  0
   38.1130   26.5760   30.8850 H   0  0  0  0  0  0  0  0  0  0  0  0
   38.6210   27.7110   32.8320 H   0  0  0  0  0  0  0  0  0  0  0  0
   37.3410   27.3490   35.0930 O   0  0  0  0  0  0  0  0  0  0  0  0
   36.7430   26.9190   35.7750 H   0  0  0  0  0  0  0  0  0  0  0  0
   39.0800   25.3680   34.3420 S   0  0  0  0  0  0  0  0  0  0  0  0
   37.9860   24.2390   37.9700 C   0  0  0  0  0  0  0  0  0  0  0  0
   38.8640   23.2220   38.3290 C   0  0  0  0  0  0  0  0  0  0  0  0
   39.8520   22.8650   37.3950 C   0  0  0  0  0  0  0  0  0  0  0  0
   39.8880   23.5290   36.2100 N   0  0  0  0  0  0  0  0  0  0  0  0
   39.0200   24.5090   35.8970 C   0  0  0  0  0  0  0  0  0  0  0  0
   38.0600   24.8690   36.7830 N   0  0  0  0  0  0  0  0  0  0  0  0
   37.2420   24.4770   38.7260 H   0  0  0  0  0  0  0  0  0  0  0  0
   38.8790   22.6740   39.2380 H   0  0  0  0  0  0  0  0  0  0  0  0
   40.6200   22.0880   37.5190 H   0  0  0  0  0  0  0  0  0  0  0  0
   36.9030   28.7110   32.3260 O   0  0  0  0  0  0  0  0  0  0  0  0
   36.6340   30.2670   34.6920 H   0  0  0  0  0  0  0  0  0  0  0  0
   35.7690   29.9270   34.2110 N   0  0  0  0  0  0  0  0  0  0  0  0
   35.8550   29.1880   33.0880 C   0  0  0  0  0  0  0  0  0  0  0  0
   34.6040   28.8960   32.6940 N   0  0  0  0  0  0  0  0  0  0  0  0
   33.7280   29.4370   33.5480 C   0  0  0  0  0  0  0  0  0  0  0  0
   32.3560   29.4910   33.6800 C   0  0  0  0  0  0  0  0  0  0  0  0
   31.7660   30.1570   34.7090 N   0  0  0  0  0  0  0  0  0  0  0  0
   32.5610   30.7750   35.6170 C   0  0  0  0  0  0  0  0  0  0  0  0
   31.9880   31.2800   36.4030 H   0  0  0  0  0  0  0  0  0  0  0  0
   33.9020   30.7580   35.5400 N   0  0  0  0  0  0  0  0  0  0  0  0
   34.4740   30.1000   34.5210 C   0  0  0  0  0  0  0  0  0  0  0  0
   31.5600   28.8320   32.7110 N   0  0  0  0  0  0  0  0  0  0  0  0
   30.8350   28.1750   33.0920 H   0  0  0  0  0  0  0  0  0  0  0  0
   31.6230   28.9360   31.6590 H   0  0  0  0  0  0  0  0  0  0  0  0
  1  6  1  6  0  0  0
  1 11  1  0  0  0  0
  2  1  1  0  0  0  0
  2  7  1  1  0  0  0
  2 13  1  0  0  0  0
  3  2  1  0  0  0  0
  4  3  1  0  0  0  0
  4  5  1  0  0  0  0
  5 10  1  1  0  0  0
  5  1  1  0  0  0  0
  8  4  1  0  0  0  0
  9  4  1  0  0  0  0
 11 12  1  0  0  0  0
 13 18  1  0  0  0  0
 14 15  1  0  0  0  0
 14 20  1  0  0  0  0
 15 21  1  0  0  0  0
 16 22  1  0  0  0  0
 16 15  2  0  0  0  0
 17 16  1  0  0  0  0
 18 17  2  0  0  0  0
 18 19  1  0  0  0  0
 19 14  2  0  0  0  0
 23  5  1  0  0  0  0
 23 26  1  0  0  0  0
 25 34  1  0  0  0  0
 25 24  1  0  0  0  0
 26 25  1  0  0  0  0
 27 26  2  0  0  0  0
 27 28  1  0  0  0  0
 28 29  2  0  0  0  0
 28 34  1  0  0  0  0
 29 30  1  0  0  0  0
 30 31  2  0  0  0  0
 31 32  1  0  0  0  0
 33 31  1  0  0  0  0
 34 33  2  0  0  0  0
 35 36  1  0  0  0  0
 35 29  1  0  0  0  0
 37 35  1  0  0  0  0
M  END
>  <minimizedAffinity>
-5.44056797

$$$$

 OpenBabel03272506453D

 37 40  0  0  1  0  0  0  0  0999 V2000
   36.9630   26.5040   31.0500 C   0  0  2  0  0  0  0  0  0  0  0  0
   37.2660   25.0350   31.2720 C   0  0  1  0  0  0  0  0  0  0  0  0
   37.8310   24.8980   32.5200 O   0  0  0  0  0  0  0  0  0  0  0  0
   37.7640   26.1050   33.1680 C   0  0  0  0  0  0  0  0  0  0  0  0
   36.6560   26.9050   32.4670 C   0  0  1  0  0  0  0  0  0  0  0  0
   37.8650   27.0580   30.7060 H   0  0  0  0  0  0  0  0  0  0  0  0
   37.9050   24.6690   30.4530 H   0  0  0  0  0  0  0  0  0  0  0  0
   38.7060   26.6710   33.2240 H   0  0  0  0  0  0  0  0  0  0  0  0
   37.3770   25.9070   34.1990 H   0  0  0  0  0  0  0  0  0  0  0  0
   35.6640   26.5730   32.7990 H   0  0  0  0  0  0  0  0  0  0  0  0
   35.8860   26.6720   30.1870 O   0  0  0  0  0  0  0  0  0  0  0  0
   36.2600   26.5090   29.2690 H   0  0  0  0  0  0  0  0  0  0  0  0
   35.6580   24.1780   31.3000 S   0  0  0  0  0  0  0  0  0  0  0  0
   35.2310   20.4720   32.6100 C   0  0  0  0  0  0  0  0  0  0  0  0
   36.2700   19.7480   32.0380 C   0  0  0  0  0  0  0  0  0  0  0  0
   37.1550   20.4460   31.1980 C   0  0  0  0  0  0  0  0  0  0  0  0
   36.9420   21.7730   30.9980 N   0  0  0  0  0  0  0  0  0  0  0  0
   35.9240   22.4410   31.5710 C   0  0  0  0  0  0  0  0  0  0  0  0
   35.0590   21.7880   32.3840 N   0  0  0  0  0  0  0  0  0  0  0  0
   34.5760   19.8870   33.2510 H   0  0  0  0  0  0  0  0  0  0  0  0
   36.4800   18.7140   32.1590 H   0  0  0  0  0  0  0  0  0  0  0  0
   38.0240   20.0270   30.6690 H   0  0  0  0  0  0  0  0  0  0  0  0
   36.8250   28.2610   32.6960 O   0  0  0  0  0  0  0  0  0  0  0  0
   36.5980   29.6540   35.1660 H   0  0  0  0  0  0  0  0  0  0  0  0
   35.7710   29.6260   34.5250 N   0  0  0  0  0  0  0  0  0  0  0  0
   35.8400   28.9770   33.3460 C   0  0  0  0  0  0  0  0  0  0  0  0
   34.6480   29.1050   32.7390 N   0  0  0  0  0  0  0  0  0  0  0  0
   33.8270   29.8240   33.5120 C   0  0  0  0  0  0  0  0  0  0  0  0
   32.5270   30.2810   33.4460 C   0  0  0  0  0  0  0  0  0  0  0  0
   31.9790   31.0190   34.4490 N   0  0  0  0  0  0  0  0  0  0  0  0
   32.7440   31.3020   35.5310 C   0  0  0  0  0  0  0  0  0  0  0  0
   32.2100   31.9000   36.2790 H   0  0  0  0  0  0  0  0  0  0  0  0
   34.0160   30.8860   35.6520 N   0  0  0  0  0  0  0  0  0  0  0  0
   34.5470   30.1600   34.6580 C   0  0  0  0  0  0  0  0  0  0  0  0
   31.7600   29.9640   32.2970 N   0  0  0  0  0  0  0  0  0  0  0  0
   30.8220   29.5310   32.4850 H   0  0  0  0  0  0  0  0  0  0  0  0
   32.0350   30.1180   31.2860 H   0  0  0  0  0  0  0  0  0  0  0  0
  1  6  1  6  0  0  0
  1  2  1  0  0  0  0
  1  5  1  0  0  0  0
  2  7  1  6  0  0  0
  2 13  1  0  0  0  0
  2  3  1  0  0  0  0
  3  4  1  0  0  0  0
  4  8  1  0  0  0  0
  4  9  1  0  0  0  0
  5 23  1  0  0  0  0
  5 10  1  1  0  0  0
  5  4  1  0  0  0  0
 11  1  1  0  0  0  0
 12 11  1  0  0  0  0
 13 18  1  0  0  0  0
 14 20  1  0  0  0  0
 15 21  1  0  0  0  0
 15 14  2  0  0  0  0
 16 15  1  0  0  0  0
 17 16  2  0  0  0  0
 17 18  1  0  0  0  0
 18 19  2  0  0  0  0
 19 14  1  0  0  0  0
 22 16  1  0  0  0  0
 23 26  1  0  0  0  0
 25 34  1  0  0  0  0
 25 24  1  0  0  0  0
 26 25  1  0  0  0  0
 27 26  2  0  0  0  0
 27 28  1  0  0  0  0
 28 34  1  0  0  0  0
 29 28  2  0  0  0  0
 29 30  1  0  0  0  0
 30 31  2  0  0  0  0
 31 33  1  0  0  0  0
 31 32  1  0  0  0  0
 34 33  2  0  0  0  0
 35 36  1  0  0  0  0
 35 29  1  0  0  0  0
 37 35  1  0  0  0  0
M  END
>  <minimizedAffinity>
-5.3164258

$$$$

 OpenBabel03272506453D

 37 40  0  0  1  0  0  0  0  0999 V2000
   37.2760   23.0670   31.4710 C   0  0  2  0  0  0  0  0  0  0  0  0
   38.3020   22.8350   32.5640 C   0  0  1  0  0  0  0  0  0  0  0  0
   38.7740   24.0620   32.9750 O   0  0  0  0  0  0  0  0  0  0  0  0
   38.0320   25.0440   32.3700 C   0  0  0  0  0  0  0  0  0  0  0  0
   36.7140   24.3800   31.9410 C   0  0  1  0  0  0  0  0  0  0  0  0
   37.7620   23.2160   30.4810 H   0  0  0  0  0  0  0  0  0  0  0  0
   39.0880   22.1620   32.1850 H   0  0  0  0  0  0  0  0  0  0  0  0
   38.5200   25.5650   31.5320 H   0  0  0  0  0  0  0  0  0  0  0  0
   37.7470   25.7800   33.1620 H   0  0  0  0  0  0  0  0  0  0  0  0
   36.0350   24.2730   32.7970 H   0  0  0  0  0  0  0  0  0  0  0  0
   36.3330   22.0460   31.4420 O   0  0  0  0  0  0  0  0  0  0  0  0
   36.7930   21.2800   30.9840 H   0  0  0  0  0  0  0  0  0  0  0  0
   37.4030   22.0950   33.9640 S   0  0  0  0  0  0  0  0  0  0  0  0
   38.2820   23.4320   37.5790 C   0  0  0  0  0  0  0  0  0  0  0  0
   39.5800   23.0020   37.8350 C   0  0  0  0  0  0  0  0  0  0  0  0
   40.2200   22.2560   36.8310 C   0  0  0  0  0  0  0  0  0  0  0  0
   39.5390   22.0020   35.6840 N   0  0  0  0  0  0  0  0  0  0  0  0
   38.2830   22.4350   35.4710 C   0  0  0  0  0  0  0  0  0  0  0  0
   37.6460   23.1560   36.4260 N   0  0  0  0  0  0  0  0  0  0  0  0
   37.8320   24.0050   38.3870 H   0  0  0  0  0  0  0  0  0  0  0  0
   40.1550   23.1720   38.7110 H   0  0  0  0  0  0  0  0  0  0  0  0
   41.2380   21.8430   36.8710 H   0  0  0  0  0  0  0  0  0  0  0  0
   36.1180   25.1100   30.9260 O   0  0  0  0  0  0  0  0  0  0  0  0
   36.9840   27.1420   29.1340 H   0  0  0  0  0  0  0  0  0  0  0  0
   36.6000   27.4220   30.0660 N   0  0  0  0  0  0  0  0  0  0  0  0
   36.1790   26.4890   30.9420 C   0  0  0  0  0  0  0  0  0  0  0  0
   35.7420   27.1270   32.0410 N   0  0  0  0  0  0  0  0  0  0  0  0
   35.8780   28.4480   31.8750 C   0  0  0  0  0  0  0  0  0  0  0  0
   35.6190   29.5850   32.6120 C   0  0  0  0  0  0  0  0  0  0  0  0
   35.8880   30.8260   32.1240 N   0  0  0  0  0  0  0  0  0  0  0  0
   36.4240   30.9280   30.8840 C   0  0  0  0  0  0  0  0  0  0  0  0
   36.6020   31.9680   30.5860 H   0  0  0  0  0  0  0  0  0  0  0  0
   36.6980   29.8570   30.1190 N   0  0  0  0  0  0  0  0  0  0  0  0
   36.4280   28.6380   30.6090 C   0  0  0  0  0  0  0  0  0  0  0  0
   35.0580   29.4360   33.9050 N   0  0  0  0  0  0  0  0  0  0  0  0
   35.5620   29.9390   34.6770 H   0  0  0  0  0  0  0  0  0  0  0  0
   34.1960   28.8780   34.1640 H   0  0  0  0  0  0  0  0  0  0  0  0
  1  6  1  6  0  0  0
  1  5  1  0  0  0  0
  1  2  1  0  0  0  0
  2  7  1  6  0  0  0
  2  3  1  0  0  0  0
  2 13  1  0  0  0  0
  4  3  1  0  0  0  0
  4  9  1  0  0  0  0
  5  4  1  0  0  0  0
  5 10  1  1  0  0  0
  8  4  1  0  0  0  0
 11  1  1  0  0  0  0
 12 11  1  0  0  0  0
 13 18  1  0  0  0  0
 14 15  1  0  0  0  0
 14 20  1  0  0  0  0
 15 21  1  0  0  0  0
 16 22  1  0  0  0  0
 16 15  2  0  0  0  0
 17 16  1  0  0  0  0
 18 17  2  0  0  0  0
 18 19  1  0  0  0  0
 19 14  2  0  0  0  0
 23 26  1  0  0  0  0
 23  5  1  0  0  0  0
 24 25  1  0  0  0  0
 25 34  1  0  0  0  0
 25 26  1  0  0  0  0
 26 27  2  0  0  0  0
 28 27  1  0  0  0  0
 28 29  1  0  0  0  0
 29 35  1  0  0  0  0
 30 29  2  0  0  0  0
 31 30  1  0  0  0  0
 32 31  1  0  0  0  0
 33 34  1  0  0  0  0
 33 31  2  0  0  0  0
 34 28  2  0  0  0  0
 35 37  1  0  0  0  0
 35 36  1  0  0  0  0
M  END
>  <minimizedAffinity>
-5.25743484

$$$$

 OpenBabel03272506453D

 37 40  0  0  1  0  0  0  0  0999 V2000
   36.7080   25.8570   32.3480 C   0  0  2  0  0  0  0  0  0  0  0  0
   36.6620   27.0180   31.3740 C   0  0  1  0  0  0  0  0  0  0  0  0
   36.7050   28.1880   32.0990 O   0  0  0  0  0  0  0  0  0  0  0  0
   36.9380   27.8800   33.4160 C   0  0  0  0  0  0  0  0  0  0  0  0
   37.5600   26.4750   33.4220 C   0  0  1  0  0  0  0  0  0  0  0  0
   35.7010   25.6380   32.7680 H   0  0  0  0  0  0  0  0  0  0  0  0
   35.7660   26.9230   30.7390 H   0  0  0  0  0  0  0  0  0  0  0  0
   36.0670   27.9460   34.0840 H   0  0  0  0  0  0  0  0  0  0  0  0
   37.7480   28.5620   33.7770 H   0  0  0  0  0  0  0  0  0  0  0  0
   38.6230   26.5170   33.1530 H   0  0  0  0  0  0  0  0  0  0  0  0
   37.2870   24.7340   31.7660 O   0  0  0  0  0  0  0  0  0  0  0  0
   36.5700   24.3440   31.1820 H   0  0  0  0  0  0  0  0  0  0  0  0
   38.1930   26.9250   30.3910 S   0  0  0  0  0  0  0  0  0  0  0  0
   39.9230   30.1770   28.9540 C   0  0  0  0  0  0  0  0  0  0  0  0
   38.9230   30.8700   28.2820 C   0  0  0  0  0  0  0  0  0  0  0  0
   37.6390   30.3000   28.2720 C   0  0  0  0  0  0  0  0  0  0  0  0
   37.4550   29.1160   28.9140 N   0  0  0  0  0  0  0  0  0  0  0  0
   38.4480   28.4740   29.5550 C   0  0  0  0  0  0  0  0  0  0  0  0
   39.6950   29.0060   29.5770 N   0  0  0  0  0  0  0  0  0  0  0  0
   40.8970   30.6600   28.9320 H   0  0  0  0  0  0  0  0  0  0  0  0
   39.0140   31.7940   27.7660 H   0  0  0  0  0  0  0  0  0  0  0  0
   36.7420   30.7140   27.7910 H   0  0  0  0  0  0  0  0  0  0  0  0
   37.3870   25.8800   34.6610 O   0  0  0  0  0  0  0  0  0  0  0  0
   39.8340   24.7870   33.7070 H   0  0  0  0  0  0  0  0  0  0  0  0
   39.4930   24.5070   34.6560 N   0  0  0  0  0  0  0  0  0  0  0  0
   38.3390   25.0040   35.1430 C   0  0  0  0  0  0  0  0  0  0  0  0
   38.1520   24.4790   36.3650 N   0  0  0  0  0  0  0  0  0  0  0  0
   39.1670   23.6590   36.6610 C   0  0  0  0  0  0  0  0  0  0  0  0
   39.5350   22.8580   37.7210 C   0  0  0  0  0  0  0  0  0  0  0  0
   40.6800   22.1240   37.6950 N   0  0  0  0  0  0  0  0  0  0  0  0
   41.4650   22.1940   36.5920 C   0  0  0  0  0  0  0  0  0  0  0  0
   42.3610   21.5670   36.6720 H   0  0  0  0  0  0  0  0  0  0  0  0
   41.1590   22.9570   35.5290 N   0  0  0  0  0  0  0  0  0  0  0  0
   40.0280   23.6770   35.5650 C   0  0  0  0  0  0  0  0  0  0  0  0
   38.6880   22.8110   38.8560 N   0  0  0  0  0  0  0  0  0  0  0  0
   38.4140   21.8500   39.1770 H   0  0  0  0  0  0  0  0  0  0  0  0
   38.3120   23.6360   39.4030 H   0  0  0  0  0  0  0  0  0  0  0  0
  1  6  1  1  0  0  0
  1  5  1  0  0  0  0
  2  7  1  6  0  0  0
  2  3  1  0  0  0  0
  2  1  1  0  0  0  0
  3  4  1  0  0  0  0
  4  5  1  0  0  0  0
  4  9  1  0  0  0  0
  4  8  1  0  0  0  0
  5 10  1  6  0  0  0
  5 23  1  0  0  0  0
 11  1  1  0  0  0  0
 12 11  1  0  0  0  0
 13  2  1  0  0  0  0
 14 19  1  0  0  0  0
 15 14  2  0  0  0  0
 16 15  1  0  0  0  0
 16 17  2  0  0  0  0
 17 18  1  0  0  0  0
 18 19  2  0  0  0  0
 18 13  1  0  0  0  0
 20 14  1  0  0  0  0
 21 15  1  0  0  0  0
 22 16  1  0  0  0  0
 23 26  1  0  0  0  0
 24 25  1  0  0  0  0
 25 26  1  0  0  0  0
 25 34  1  0  0  0  0
 26 27  2  0  0  0  0
 27 28  1  0  0  0  0
 28 29  1  0  0  0  0
 29 35  1  0  0  0  0
 30 29  2  0  0  0  0
 31 32  1  0  0  0  0
 31 30  1  0  0  0  0
 33 34  1  0  0  0  0
 33 31  2  0  0  0  0
 34 28  2  0  0  0  0
 35 36  1  0  0  0  0
 35 37  1  0  0  0  0
M  END
>  <minimizedAffinity>
-5.19763041

$$$$

 OpenBabel03272506453D

 37 40  0  0  1  0  0  0  0  0999 V2000
   38.1290   23.7900   31.9410 C   0  0  2  0  0  0  0  0  0  0  0  0
   39.2130   23.7180   32.9990 C   0  0  1  0  0  0  0  0  0  0  0  0
   39.0590   24.7950   33.8430 O   0  0  0  0  0  0  0  0  0  0  0  0
   37.8940   25.4430   33.5220 C   0  0  0  0  0  0  0  0  0  0  0  0
   37.0360   24.4230   32.7560 C   0  0  1  0  0  0  0  0  0  0  0  0
   38.4110   24.4810   31.1160 H   0  0  0  0  0  0  0  0  0  0  0  0
   40.1980   23.6780   32.5070 H   0  0  0  0  0  0  0  0  0  0  0  0
   38.0080   26.3840   32.9630 H   0  0  0  0  0  0  0  0  0  0  0  0
   37.3440   25.6310   34.4780 H   0  0  0  0  0  0  0  0  0  0  0  0
   36.5560   23.7190   33.4480 H   0  0  0  0  0  0  0  0  0  0  0  0
   37.7990   22.5220   31.4720 O   0  0  0  0  0  0  0  0  0  0  0  0
   38.5390   22.2790   30.8380 H   0  0  0  0  0  0  0  0  0  0  0  0
   38.8870   22.2100   33.9680 S   0  0  0  0  0  0  0  0  0  0  0  0
   40.0450   22.8150   37.7000 C   0  0  0  0  0  0  0  0  0  0  0  0
   38.9100   23.2350   38.3830 C   0  0  0  0  0  0  0  0  0  0  0  0
   37.7160   23.3370   37.6480 C   0  0  0  0  0  0  0  0  0  0  0  0
   37.7450   23.0230   36.3270 N   0  0  0  0  0  0  0  0  0  0  0  0
   38.8650   22.6180   35.6980 C   0  0  0  0  0  0  0  0  0  0  0  0
   40.0270   22.5130   36.3880 N   0  0  0  0  0  0  0  0  0  0  0  0
   40.9410   22.7520   38.3130 H   0  0  0  0  0  0  0  0  0  0  0  0
   38.8340   23.4930   39.4110 H   0  0  0  0  0  0  0  0  0  0  0  0
   36.7350   23.6520   38.0320 H   0  0  0  0  0  0  0  0  0  0  0  0
   36.0910   25.0770   31.9830 O   0  0  0  0  0  0  0  0  0  0  0  0
   35.6060   27.5620   33.2780 H   0  0  0  0  0  0  0  0  0  0  0  0
   36.0150   27.5670   32.3150 N   0  0  0  0  0  0  0  0  0  0  0  0
   36.2600   26.4100   31.6690 C   0  0  0  0  0  0  0  0  0  0  0  0
   36.7790   26.7150   30.4680 N   0  0  0  0  0  0  0  0  0  0  0  0
   36.8670   28.0440   30.3420 C   0  0  0  0  0  0  0  0  0  0  0  0
   37.3000   28.9360   29.3830 C   0  0  0  0  0  0  0  0  0  0  0  0
   37.2490   30.2800   29.5870 N   0  0  0  0  0  0  0  0  0  0  0  0
   36.7580   30.7350   30.7660 C   0  0  0  0  0  0  0  0  0  0  0  0
   36.7610   31.8290   30.8290 H   0  0  0  0  0  0  0  0  0  0  0  0
   36.3230   29.9150   31.7370 N   0  0  0  0  0  0  0  0  0  0  0  0
   36.3780   28.5910   31.5270 C   0  0  0  0  0  0  0  0  0  0  0  0
   37.8060   28.4210   28.1640 N   0  0  0  0  0  0  0  0  0  0  0  0
   37.3800   28.8220   27.2920 H   0  0  0  0  0  0  0  0  0  0  0  0
   38.5590   27.6860   28.0480 H   0  0  0  0  0  0  0  0  0  0  0  0
  1  6  1  6  0  0  0
  1  5  1  0  0  0  0
  1  2  1  0  0  0  0
  2  7  1  6  0  0  0
  2  3  1  0  0  0  0
  2 13  1  0  0  0  0
  4  3  1  0  0  0  0
  4  9  1  0  0  0  0
  5 10  1  1  0  0  0
  5  4  1  0  0  0  0
  8  4  1  0  0  0  0
 11  1  1  0  0  0  0
 12 11  1  0  0  0  0
 13 18  1  0  0  0  0
 14 20  1  0  0  0  0
 14 15  1  0  0  0  0
 15 21  1  0  0  0  0
 16 22  1  0  0  0  0
 16 15  2  0  0  0  0
 17 16  1  0  0  0  0
 18 17  2  0  0  0  0
 18 19  1  0  0  0  0
 19 14  2  0  0  0  0
 23  5  1  0  0  0  0
 25 24  1  0  0  0  0
 26 23  1  0  0  0  0
 26 25  1  0  0  0  0
 27 26  2  0  0  0  0
 28 27  1  0  0  0  0
 28 34  1  0  0  0  0
 29 30  1  0  0  0  0
 29 28  2  0  0  0  0
 30 31  2  0  0  0  0
 31 32  1  0  0  0  0
 31 33  1  0  0  0  0
 34 33  2  0  0  0  0
 34 25  1  0  0  0  0
 35 29  1  0  0  0  0
 36 35  1  0  0  0  0
 37 35  1  0  0  0  0
M  END
>  <minimizedAffinity>
-5.14245033

$$$$

 OpenBabel03272506453D

 37 40  0  0  1  0  0  0  0  0999 V2000
   37.0570   28.2270   32.6130 C   0  0  2  0  0  0  0  0  0  0  0  0
   36.2240   29.4240   32.1970 C   0  0  1  0  0  0  0  0  0  0  0  0
   36.0070   29.3450   30.8400 O   0  0  0  0  0  0  0  0  0  0  0  0
   36.4770   28.1370   30.3900 C   0  0  0  0  0  0  0  0  0  0  0  0
   36.5450   27.2200   31.6200 C   0  0  1  0  0  0  0  0  0  0  0  0
   38.1400   28.4000   32.4260 H   0  0  0  0  0  0  0  0  0  0  0  0
   36.7360   30.3480   32.5100 H   0  0  0  0  0  0  0  0  0  0  0  0
   37.4350   28.1680   29.8480 H   0  0  0  0  0  0  0  0  0  0  0  0
   35.6840   27.6950   29.7360 H   0  0  0  0  0  0  0  0  0  0  0  0
   35.5490   26.8350   31.8760 H   0  0  0  0  0  0  0  0  0  0  0  0
   36.8040   27.8720   33.9340 O   0  0  0  0  0  0  0  0  0  0  0  0
   37.3120   28.5410   34.4840 H   0  0  0  0  0  0  0  0  0  0  0  0
   34.6110   29.2400   33.0230 S   0  0  0  0  0  0  0  0  0  0  0  0
   35.7680   31.5210   36.0380 C   0  0  0  0  0  0  0  0  0  0  0  0
   34.6080   31.8480   36.7300 C   0  0  0  0  0  0  0  0  0  0  0  0
   33.3970   31.3340   36.2360 C   0  0  0  0  0  0  0  0  0  0  0  0
   33.4340   30.5560   35.1230 N   0  0  0  0  0  0  0  0  0  0  0  0
   34.5780   30.2600   34.4790 C   0  0  0  0  0  0  0  0  0  0  0  0
   35.7570   30.7450   34.9380 N   0  0  0  0  0  0  0  0  0  0  0  0
   36.6770   31.9430   36.4610 H   0  0  0  0  0  0  0  0  0  0  0  0
   34.5240   32.4500   37.6010 H   0  0  0  0  0  0  0  0  0  0  0  0
   32.3950   31.4950   36.6600 H   0  0  0  0  0  0  0  0  0  0  0  0
   37.4320   26.1810   31.3950 O   0  0  0  0  0  0  0  0  0  0  0  0
   35.7490   24.3990   29.9520 H   0  0  0  0  0  0  0  0  0  0  0  0
   36.2080   24.0590   30.8280 N   0  0  0  0  0  0  0  0  0  0  0  0
   37.0130   24.8730   31.5390 C   0  0  0  0  0  0  0  0  0  0  0  0
   37.4590   24.1810   32.6010 N   0  0  0  0  0  0  0  0  0  0  0  0
   36.9510   22.9440   32.5750 C   0  0  0  0  0  0  0  0  0  0  0  0
   37.0300   21.8090   33.3530 C   0  0  0  0  0  0  0  0  0  0  0  0
   36.3580   20.6720   33.0260 N   0  0  0  0  0  0  0  0  0  0  0  0
   35.5980   20.6750   31.9040 C   0  0  0  0  0  0  0  0  0  0  0  0
   35.1000   19.7130   31.7300 H   0  0  0  0  0  0  0  0  0  0  0  0
   35.4820   21.7490   31.1060 N   0  0  0  0  0  0  0  0  0  0  0  0
   36.1490   22.8650   31.4380 C   0  0  0  0  0  0  0  0  0  0  0  0
   37.8360   21.8460   34.5180 N   0  0  0  0  0  0  0  0  0  0  0  0
   37.3670   21.5310   35.4030 H   0  0  0  0  0  0  0  0  0  0  0  0
   38.8470   22.1540   34.5830 H   0  0  0  0  0  0  0  0  0  0  0  0
  1  6  1  6  0  0  0
  1 11  1  0  0  0  0
  2  7  1  1  0  0  0
  2  1  1  0  0  0  0
  2 13  1  0  0  0  0
  3  2  1  0  0  0  0
  4  3  1  0  0  0  0
  4  5  1  0  0  0  0
  5 10  1  1  0  0  0
  5  1  1  0  0  0  0
  8  4  1  0  0  0  0
  9  4  1  0  0  0  0
 11 12  1  0  0  0  0
 13 18  1  0  0  0  0
 14 20  1  0  0  0  0
 14 15  1  0  0  0  0
 15 21  1  0  0  0  0
 16 22  1  0  0  0  0
 16 15  2  0  0  0  0
 17 16  1  0  0  0  0
 18 19  1  0  0  0  0
 18 17  2  0  0  0  0
 19 14  2  0  0  0  0
 23 26  1  0  0  0  0
 23  5  1  0  0  0  0
 24 25  1  0  0  0  0
 25 34  1  0  0  0  0
 25 26  1  0  0  0  0
 26 27  2  0  0  0  0
 28 27  1  0  0  0  0
 28 29  1  0  0  0  0
 29 35  1  0  0  0  0
 30 29  2  0  0  0  0
 31 30  1  0  0  0  0
 32 31  1  0  0  0  0
 33 34  1  0  0  0  0
 33 31  2  0  0  0  0
 34 28  2  0  0  0  0
 35 37  1  0  0  0  0
 35 36  1  0  0  0  0
M  END
>  <minimizedAffinity>
-5.13946867

$$$$

 OpenBabel03272506453D

 37 40  0  0  1  0  0  0  0  0999 V2000
   38.5980   25.6880   32.3770 C   0  0  2  0  0  0  0  0  0  0  0  0
   39.3680   24.9380   33.4470 C   0  0  1  0  0  0  0  0  0  0  0  0
   39.6980   25.8310   34.4420 O   0  0  0  0  0  0  0  0  0  0  0  0
   39.0730   27.0250   34.1870 C   0  0  0  0  0  0  0  0  0  0  0  0
   37.9040   26.7020   33.2440 C   0  0  1  0  0  0  0  0  0  0  0  0
   39.2830   26.2190   31.6790 H   0  0  0  0  0  0  0  0  0  0  0  0
   40.2400   24.4450   32.9870 H   0  0  0  0  0  0  0  0  0  0  0  0
   39.7150   27.8240   33.7850 H   0  0  0  0  0  0  0  0  0  0  0  0
   38.5980   27.3620   35.1410 H   0  0  0  0  0  0  0  0  0  0  0  0
   37.0580   26.2790   33.8020 H   0  0  0  0  0  0  0  0  0  0  0  0
   37.7180   24.8450   31.7060 O   0  0  0  0  0  0  0  0  0  0  0  0
   38.2920   24.3250   31.0680 H   0  0  0  0  0  0  0  0  0  0  0  0
   38.2110   23.7250   34.1580 S   0  0  0  0  0  0  0  0  0  0  0  0
   37.8510   24.0740   38.0800 C   0  0  0  0  0  0  0  0  0  0  0  0
   38.9290   23.3820   38.6210 C   0  0  0  0  0  0  0  0  0  0  0  0
   39.8190   22.7710   37.7200 C   0  0  0  0  0  0  0  0  0  0  0  0
   39.5730   22.8940   36.3900 N   0  0  0  0  0  0  0  0  0  0  0  0
   38.5190   23.5740   35.9030 C   0  0  0  0  0  0  0  0  0  0  0  0
   37.6480   24.1700   36.7530 N   0  0  0  0  0  0  0  0  0  0  0  0
   37.1940   24.5270   38.8180 H   0  0  0  0  0  0  0  0  0  0  0  0
   39.1650   23.2560   39.6480 H   0  0  0  0  0  0  0  0  0  0  0  0
   40.7160   22.1900   37.9780 H   0  0  0  0  0  0  0  0  0  0  0  0
   37.5200   27.8370   32.5500 O   0  0  0  0  0  0  0  0  0  0  0  0
   36.1170   28.2240   34.9950 H   0  0  0  0  0  0  0  0  0  0  0  0
   35.7730   28.7090   34.1340 N   0  0  0  0  0  0  0  0  0  0  0  0
   36.4110   28.5510   32.9580 C   0  0  0  0  0  0  0  0  0  0  0  0
   35.7570   29.2820   32.0380 N   0  0  0  0  0  0  0  0  0  0  0  0
   34.7180   29.8980   32.6110 C   0  0  0  0  0  0  0  0  0  0  0  0
   33.7120   30.7520   32.2130 C   0  0  0  0  0  0  0  0  0  0  0  0
   32.7780   31.2110   33.0890 N   0  0  0  0  0  0  0  0  0  0  0  0
   32.8540   30.8070   34.3810 C   0  0  0  0  0  0  0  0  0  0  0  0
   32.0570   31.2330   35.0020 H   0  0  0  0  0  0  0  0  0  0  0  0
   33.8110   29.9780   34.8280 N   0  0  0  0  0  0  0  0  0  0  0  0
   34.7280   29.5320   33.9560 C   0  0  0  0  0  0  0  0  0  0  0  0
   33.6660   31.1510   30.8540 N   0  0  0  0  0  0  0  0  0  0  0  0
   32.7410   31.0190   30.3740 H   0  0  0  0  0  0  0  0  0  0  0  0
   34.4590   31.5620   30.2840 H   0  0  0  0  0  0  0  0  0  0  0  0
  1  6  1  6  0  0  0
  1  5  1  0  0  0  0
  1  2  1  0  0  0  0
  2  7  1  6  0  0  0
  2 13  1  0  0  0  0
  2  3  1  0  0  0  0
  4  3  1  0  0  0  0
  4  9  1  0  0  0  0
  5 10  1  1  0  0  0
  5  4  1  0  0  0  0
  8  4  1  0  0  0  0
 11  1  1  0  0  0  0
 12 11  1  0  0  0  0
 13 18  1  0  0  0  0
 14 15  1  0  0  0  0
 14 20  1  0  0  0  0
 15 21  1  0  0  0  0
 16 22  1  0  0  0  0
 16 15  2  0  0  0  0
 17 16  1  0  0  0  0
 18 17  2  0  0  0  0
 18 19  1  0  0  0  0
 19 14  2  0  0  0  0
 23 26  1  0  0  0  0
 23  5  1  0  0  0  0
 25 24  1  0  0  0  0
 26 25  1  0  0  0  0
 27 28  1  0  0  0  0
 27 26  2  0  0  0  0
 28 34  1  0  0  0  0
 29 28  2  0  0  0  0
 29 30  1  0  0  0  0
 30 31  2  0  0  0  0
 31 33  1  0  0  0  0
 31 32  1  0  0  0  0
 34 25  1  0  0  0  0
 34 33  2  0  0  0  0
 35 29  1  0  0  0  0
 36 35  1  0  0  0  0
 37 35  1  0  0  0  0
M  END
>  <minimizedAffinity>
-5.12705612

$$$$
