
 OpenBabel03272506443D

 37 40  0  0  1  0  0  0  0  0999 V2000
   32.3930   28.3600   47.4820 C   0  0  2  0  0  0  0  0  0  0  0  0
   33.6270   28.4210   48.3630 C   0  0  1  0  0  0  0  0  0  0  0  0
   34.1950   27.1670   48.3900 O   0  0  0  0  0  0  0  0  0  0  0  0
   33.5410   26.3680   47.4880 C   0  0  0  0  0  0  0  0  0  0  0  0
   32.8480   27.3180   46.4990 C   0  0  1  0  0  0  0  0  0  0  0  0
   31.5140   27.9700   48.0410 H   0  0  0  0  0  0  0  0  0  0  0  0
   33.3430   28.8010   49.3570 H   0  0  0  0  0  0  0  0  0  0  0  0
   32.8360   25.6400   47.9180 H   0  0  0  0  0  0  0  0  0  0  0  0
   34.3210   25.8350   46.8890 H   0  0  0  0  0  0  0  0  0  0  0  0
   33.5660   27.7070   45.7650 H   0  0  0  0  0  0  0  0  0  0  0  0
   32.1340   29.5940   46.8940 O   0  0  0  0  0  0  0  0  0  0  0  0
   31.7100   30.1440   47.6190 H   0  0  0  0  0  0  0  0  0  0  0  0
   34.7990   29.5380   47.5280 S   0  0  0  0  0  0  0  0  0  0  0  0
   37.3880   29.4910   50.5150 C   0  0  0  0  0  0  0  0  0  0  0  0
   37.9990   30.7400   50.5050 C   0  0  0  0  0  0  0  0  0  0  0  0
   37.5860   31.6500   49.5170 C   0  0  0  0  0  0  0  0  0  0  0  0
   36.6250   31.2570   48.6410 N   0  0  0  0  0  0  0  0  0  0  0  0
   36.0560   30.0380   48.6820 C   0  0  0  0  0  0  0  0  0  0  0  0
   36.4390   29.1450   49.6260 N   0  0  0  0  0  0  0  0  0  0  0  0
   37.7430   28.8250   51.2980 H   0  0  0  0  0  0  0  0  0  0  0  0
   38.7520   31.0950   51.1640 H   0  0  0  0  0  0  0  0  0  0  0  0
   37.9630   32.6720   49.3690 H   0  0  0  0  0  0  0  0  0  0  0  0
   31.7980   26.6720   45.8680 O   0  0  0  0  0  0  0  0  0  0  0  0
   32.1240   24.6760   43.8670 H   0  0  0  0  0  0  0  0  0  0  0  0
   31.9060   25.6560   43.5710 N   0  0  0  0  0  0  0  0  0  0  0  0
   31.7440   26.6290   44.4890 C   0  0  0  0  0  0  0  0  0  0  0  0
   31.4750   27.7710   43.8330 N   0  0  0  0  0  0  0  0  0  0  0  0
   31.4640   27.5370   42.5160 C   0  0  0  0  0  0  0  0  0  0  0  0
   31.2580   28.2730   41.3680 C   0  0  0  0  0  0  0  0  0  0  0  0
   31.3210   27.6990   40.1350 N   0  0  0  0  0  0  0  0  0  0  0  0
   31.5940   26.3740   40.0540 C   0  0  0  0  0  0  0  0  0  0  0  0
   31.6230   26.0130   39.0190 H   0  0  0  0  0  0  0  0  0  0  0  0
   31.8040   25.6080   41.1360 N   0  0  0  0  0  0  0  0  0  0  0  0
   31.7400   26.1810   42.3470 C   0  0  0  0  0  0  0  0  0  0  0  0
   30.9740   29.6540   41.4940 N   0  0  0  0  0  0  0  0  0  0  0  0
   31.5730   30.2940   40.9180 H   0  0  0  0  0  0  0  0  0  0  0  0
   30.2290   30.0970   42.1040 H   0  0  0  0  0  0  0  0  0  0  0  0
  1  6  1  1  0  0  0
  1  2  1  0  0  0  0
  2  3  1  0  0  0  0
  2  7  1  1  0  0  0
  4  8  1  0  0  0  0
  4  3  1  0  0  0  0
  5 10  1  6  0  0  0
  5  1  1  0  0  0  0
  5  4  1  0  0  0  0
  9  4  1  0  0  0  0
 11  1  1  0  0  0  0
 11 12  1  0  0  0  0
 13  2  1  0  0  0  0
 13 18  1  0  0  0  0
 14 20  1  0  0  0  0
 15 14  1  0  0  0  0
 15 21  1  0  0  0  0
 16 15  2  0  0  0  0
 17 18  2  0  0  0  0
 17 16  1  0  0  0  0
 18 19  1  0  0  0  0
 19 14  2  0  0  0  0
 22 16  1  0  0  0  0
 23  5  1  0  0  0  0
 25 24  1  0  0  0  0
 25 26  1  0  0  0  0
 26 23  1  0  0  0  0
 27 26  2  0  0  0  0
 28 27  1  0  0  0  0
 29 35  1  0  0  0  0
 29 28  2  0  0  0  0
 30 29  1  0  0  0  0
 31 30  2  0  0  0  0
 31 33  1  0  0  0  0
 32 31  1  0  0  0  0
 33 34  2  0  0  0  0
 34 28  1  0  0  0  0
 34 25  1  0  0  0  0
 35 37  1  0  0  0  0
 36 35  1  0  0  0  0
M  END
>  <minimizedAffinity>
-3.70097661

>  <minimizedRMSD>
0.0680028722

$$$$
