REMARK  Name = 
REMARK  6 active torsions:
REMARK  status: ('A' for Active; 'I' for Inactive)
REMARK    1  A    between atoms: S_1  and  C_6
REMARK    2  A    between atoms: S_1  and  C_9
REMARK    3  A    between atoms: C_8  and  O_13
REMARK    4  A    between atoms: C_12  and  O_14
REMARK    5  A    between atoms: O_14  and  C_26
REMARK    6  A    between atoms: C_29  and  N_30
REMARK                            x       y       z     vdW  Elec       q    Type
REMARK                         _______ _______ _______ _____ _____    ______ ____
ROOT
ATOM      1  C   UNL     1      32.394  28.356  47.466  0.00  0.00    +0.000 C 
ATOM      2  C   UNL     1      33.632  28.402  48.341  0.00  0.00    +0.000 C 
ATOM      3  O   UNL     1      34.203  27.149  48.341  0.00  0.00    +0.000 OA
ATOM      4  C   UNL     1      33.545  26.366  47.427  0.00  0.00    +0.000 C 
ATOM      5  C   UNL     1      32.846  27.334  46.460  0.00  0.00    +0.000 C 
ATOM      6  H   UNL     1      31.518  27.953  48.021  0.00  0.00    +0.000 HD
ATOM      7  H   UNL     1      33.353  28.762  49.344  0.00  0.00    +0.000 HD
ATOM      8  H   UNL     1      32.844  25.628  47.846  0.00  0.00    +0.000 HD
ATOM      9  H   UNL     1      34.323  25.847  46.813  0.00  0.00    +0.000 HD
ATOM     10  H   UNL     1      33.559  27.739  45.730  0.00  0.00    +0.000 HD
ENDROOT
BRANCH   1  11
ATOM     11  O   UNL     1      32.129  29.600  46.903  0.00  0.00    +0.000 OA
ATOM     12  H   UNL     1      31.708  30.135  47.641  0.00  0.00    +0.000 HD
ENDBRANCH   1  11
BRANCH   2  13
ATOM     13  S   UNL     1      34.798  29.537  47.522  0.00  0.00    +0.000 S 
BRANCH  13  18
ATOM     14  C   UNL     1      37.362  29.483  50.531  0.00  0.00    +0.000 A 
ATOM     15  C   UNL     1      37.980  30.728  50.522  0.00  0.00    +0.000 A 
ATOM     16  C   UNL     1      37.581  31.638  49.528  0.00  0.00    +0.000 A 
ATOM     17  N   UNL     1      36.625  31.248  48.645  0.00  0.00    +0.000 NA
ATOM     18  C   UNL     1      36.048  30.033  48.685  0.00  0.00    +0.000 A 
ATOM     19  N   UNL     1      36.418  29.140  49.635  0.00  0.00    +0.000 NA
ATOM     20  H   UNL     1      37.706  28.817  51.319  0.00  0.00    +0.000 HD
ATOM     21  H   UNL     1      38.730  31.081  51.186  0.00  0.00    +0.000 HD
ATOM     22  H   UNL     1      37.966  32.657  49.380  0.00  0.00    +0.000 HD
ENDBRANCH  13  18
ENDBRANCH   2  13
BRANCH   5  23
ATOM     23  O   UNL     1      31.794  26.698  45.822  0.00  0.00    +0.000 OA
BRANCH  23  26
ATOM     24  H   UNL     1      29.825  27.112  43.811  0.00  0.00    +0.000 HD
ATOM     25  N   UNL     1      30.795  26.849  43.520  0.00  0.00    +0.000 N 
ATOM     26  C   UNL     1      31.756  26.644  44.443  0.00  0.00    +0.000 A 
ATOM     27  N   UNL     1      32.886  26.324  43.792  0.00  0.00    +0.000 NA
ATOM     28  C   UNL     1      32.659  26.322  42.474  0.00  0.00    +0.000 A 
ATOM     29  C   UNL     1      33.390  26.082  41.330  0.00  0.00    +0.000 A 
ATOM     30  N   UNL     1      32.826  26.170  40.093  0.00  0.00    +0.000 NA
ATOM     31  C   UNL     1      31.515  26.503  40.006  0.00  0.00    +0.000 A 
ATOM     32  H   UNL     1      31.161  26.546  38.970  0.00  0.00    +0.000 HD
ATOM     33  N   UNL     1      30.754  26.748  41.085  0.00  0.00    +0.000 NA
ATOM     34  C   UNL     1      31.318  26.658  42.298  0.00  0.00    +0.000 A 
BRANCH  29  35
ATOM     35  N   UNL     1      34.757  25.736  41.462  0.00  0.00    +0.000 N 
ATOM     36  H   UNL     1      35.056  24.869  40.954  0.00  0.00    +0.000 HD
ATOM     37  H   UNL     1      35.494  26.260  42.016  0.00  0.00    +0.000 HD
ENDBRANCH  29  35
ENDBRANCH  23  26
ENDBRANCH   5  23
TORSDOF 6
