REMARK  Name = 
REMARK  3 active torsions:
REMARK  status: ('A' for Active; 'I' for Inactive)
REMARK    1  A    between atoms: C_1  and  C_13
REMARK    2  A    between atoms: C_3  and  C_6
REMARK    3  A    between atoms: C_34  and  N_35
REMARK                            x       y       z     vdW  Elec       q    Type
REMARK                         _______ _______ _______ _____ _____    ______ ____
ROOT
ATOM      1  C   UNL     1      37.917  31.362  43.368  0.00  0.00    +0.000 A 
ATOM      2  C   UNL     1      38.539  31.304  44.684  0.00  0.00    +0.000 A 
ATOM      3  C   UNL     1      39.889  31.134  44.767  0.00  0.00    +0.000 A 
ATOM      4  N   UNL     1      40.585  31.023  43.578  0.00  0.00    +0.000 NA
ATOM      5  C   UNL     1      39.990  31.076  42.374  0.00  0.00    +0.000 A 
ATOM      6  N   UNL     1      38.668  31.246  42.278  0.00  0.00    +0.000 NA
ATOM      7  N   UNL     1      40.733  30.920  41.181  0.00  0.00    +0.000 N 
ATOM      8  H   UNL     1      36.843  31.500  43.362  0.00  0.00    +0.000 HD
ATOM      9  H   UNL     1      40.665  29.876  41.029  0.00  0.00    +0.000 HD
ATOM     10  H   UNL     1      41.200  31.657  40.639  0.00  0.00    +0.000 HD
ATOM     11  N   UNL     1      40.623  31.065  45.981  0.00  0.00    +0.000 N 
ATOM     12  C   UNL     1      40.096  30.832  47.220  0.00  0.00    +0.000 A 
ATOM     13  H   UNL     1      39.039  30.669  47.409  0.00  0.00    +0.000 HD
ATOM     14  N   UNL     1      41.128  30.847  48.113  0.00  0.00    +0.000 NA
ATOM     15  C   UNL     1      42.293  31.083  47.477  0.00  0.00    +0.000 A 
ATOM     16  C   UNL     1      43.618  31.208  47.827  0.00  0.00    +0.000 A 
ATOM     17  N   UNL     1      44.576  31.452  46.930  0.00  0.00    +0.000 NA
ATOM     18  C   UNL     1      44.256  31.584  45.632  0.00  0.00    +0.000 A 
ATOM     19  H   UNL     1      45.078  31.781  44.957  0.00  0.00    +0.000 HD
ATOM     20  N   UNL     1      42.968  31.470  45.235  0.00  0.00    +0.000 NA
ATOM     21  C   UNL     1      41.973  31.222  46.122  0.00  0.00    +0.000 A 
ENDROOT
BRANCH   2  22
ATOM     22  C   UNL     1      37.748  31.490  45.951  0.00  0.00    +0.000 C 
ATOM     23  C   UNL     1      36.334  31.270  45.957  0.00  0.00    +0.000 C 
ATOM     24  C   UNL     1      37.179  30.163  46.560  0.00  0.00    +0.000 C 
ATOM     25  H   UNL     1      38.322  31.971  46.787  0.00  0.00    +0.000 HD
ATOM     26  H   UNL     1      35.686  31.841  46.686  0.00  0.00    +0.000 HD
ATOM     27  H   UNL     1      35.740  30.989  45.071  0.00  0.00    +0.000 HD
ATOM     28  H   UNL     1      36.914  29.261  46.003  0.00  0.00    +0.000 HD
BRANCH  24  31
ATOM     29 CL   UNL     1      34.799  28.734  47.938  0.00  0.00    +0.000 Cl
ATOM     30  C   UNL     1      36.125  29.463  48.811  0.00  0.00    +0.000 A 
ATOM     31  C   UNL     1      37.056  30.092  48.018  0.00  0.00    +0.000 A 
ATOM     32  C   UNL     1      38.111  30.695  48.691  0.00  0.00    +0.000 A 
ATOM     33  C   UNL     1      38.212  30.665  50.083  0.00  0.00    +0.000 A 
ATOM     34  C   UNL     1      37.224  30.008  50.839  0.00  0.00    +0.000 A 
ATOM     35 CL   UNL     1      37.214  29.945  52.588  0.00  0.00    +0.000 Cl
ATOM     36  C   UNL     1      36.164  29.397  50.166  0.00  0.00    +0.000 A 
ATOM     37  H   UNL     1      38.987  31.238  48.376  0.00  0.00    +0.000 HD
ATOM     38  H   UNL     1      38.971  31.089  50.717  0.00  0.00    +0.000 HD
ATOM     39  H   UNL     1      35.376  28.876  50.681  0.00  0.00    +0.000 HD
ENDBRANCH  24  31
ENDBRANCH   2  22
BRANCH  16  40
ATOM     40  N   UNL     1      43.945  31.067  49.202  0.00  0.00    +0.000 N 
ATOM     41  H   UNL     1      44.899  30.985  49.596  0.00  0.00    +0.000 HD
ATOM     42  H   UNL     1      43.245  31.034  49.954  0.00  0.00    +0.000 HD
ENDBRANCH  16  40
TORSDOF 3
