
 OpenBabel03262522453D

 42 46  0  0  1  0  0  0  0  0999 V2000
   35.0460   27.5140   42.0210 C   0  0  0  0  0  0  0  0  0  0  0  0
   35.4270   28.5760   42.9420 C   0  0  0  0  0  0  0  0  0  0  0  0
   36.5850   29.2600   42.7160 C   0  0  0  0  0  0  0  0  0  0  0  0
   37.3300   28.8900   41.6130 N   0  0  0  0  0  0  0  0  0  0  0  0
   36.9610   27.9040   40.7770 C   0  0  0  0  0  0  0  0  0  0  0  0
   35.8270   27.2290   40.9850 N   0  0  0  0  0  0  0  0  0  0  0  0
   37.7720   27.5310   39.6800 N   0  0  0  0  0  0  0  0  0  0  0  0
   34.1170   27.0070   42.2480 H   0  0  0  0  0  0  0  0  0  0  0  0
   38.3680   26.7710   40.1120 H   0  0  0  0  0  0  0  0  0  0  0  0
   37.7520   27.9230   38.7310 H   0  0  0  0  0  0  0  0  0  0  0  0
   37.0720   30.3180   43.5290 N   0  0  0  0  0  0  0  0  0  0  0  0
   36.3060   31.1650   44.2790 C   0  0  0  0  0  0  0  0  0  0  0  0
   35.2220   31.1160   44.3340 H   0  0  0  0  0  0  0  0  0  0  0  0
   37.1520   32.0350   44.9050 N   0  0  0  0  0  0  0  0  0  0  0  0
   38.4300   31.7640   44.5750 C   0  0  0  0  0  0  0  0  0  0  0  0
   39.6720   32.2730   44.8770 C   0  0  0  0  0  0  0  0  0  0  0  0
   40.7970   31.7650   44.3680 N   0  0  0  0  0  0  0  0  0  0  0  0
   40.7360   30.7170   43.5290 C   0  0  0  0  0  0  0  0  0  0  0  0
   41.6830   30.3530   43.1530 H   0  0  0  0  0  0  0  0  0  0  0  0
   39.5390   30.1790   43.2000 N   0  0  0  0  0  0  0  0  0  0  0  0
   38.3800   30.6730   43.7000 C   0  0  0  0  0  0  0  0  0  0  0  0
   34.5530   28.9850   44.0970 C   0  0  1  0  0  0  0  0  0  0  0  0
   33.2270   28.4600   44.2190 C   0  0  0  0  0  0  0  0  0  0  0  0
   34.2700   27.8420   45.1320 C   0  0  2  0  0  0  0  0  0  0  0  0
   34.9600   29.8340   44.7070 H   0  0  0  0  0  0  0  0  0  0  0  0
   32.4310   29.0750   44.7340 H   0  0  0  0  0  0  0  0  0  0  0  0
   32.7570   27.7720   43.4960 H   0  0  0  0  0  0  0  0  0  0  0  0
   34.2450   26.7710   44.9160 H   0  0  0  0  0  0  0  0  0  0  0  0
   32.7790   26.0370   47.1630 Cl  0  0  0  0  0  0  0  0  0  0  0  0
   33.5270   27.5580   47.5880 C   0  0  0  0  0  0  0  0  0  0  0  0
   34.0940   28.2320   46.5320 C   0  0  0  0  0  0  0  0  0  0  0  0
   34.6790   29.4530   46.8430 C   0  0  0  0  0  0  0  0  0  0  0  0
   34.6840   29.9600   48.1440 C   0  0  0  0  0  0  0  0  0  0  0  0
   34.0830   29.2230   49.1800 C   0  0  0  0  0  0  0  0  0  0  0  0
   33.9810   29.7740   50.8380 Cl  0  0  0  0  0  0  0  0  0  0  0  0
   33.4970   27.9930   48.8730 C   0  0  0  0  0  0  0  0  0  0  0  0
   35.2060   30.1980   46.2690 H   0  0  0  0  0  0  0  0  0  0  0  0
   35.0990   30.8820   48.5100 H   0  0  0  0  0  0  0  0  0  0  0  0
   33.0220   27.3770   49.6170 H   0  0  0  0  0  0  0  0  0  0  0  0
   39.7260   33.3800   45.7640 N   0  0  0  0  0  0  0  0  0  0  0  0
   40.5790   33.7710   46.2000 H   0  0  0  0  0  0  0  0  0  0  0  0
   38.8970   33.9100   46.0640 H   0  0  0  0  0  0  0  0  0  0  0  0
  1  8  1  0  0  0  0
  1  2  1  0  0  0  0
  2 22  1  0  0  0  0
  3  2  2  0  0  0  0
  3 11  1  0  0  0  0
  4  3  1  0  0  0  0
  5  6  1  0  0  0  0
  5  4  2  0  0  0  0
  6  1  2  0  0  0  0
  7  9  1  0  0  0  0
  7  5  1  0  0  0  0
 10  7  1  0  0  0  0
 11 21  1  0  0  0  0
 11 12  1  0  0  0  0
 12 13  1  0  0  0  0
 12 14  2  0  0  0  0
 15 16  1  0  0  0  0
 15 14  1  0  0  0  0
 16 40  1  0  0  0  0
 17 16  2  0  0  0  0
 18 17  1  0  0  0  0
 19 18  1  0  0  0  0
 20 18  2  0  0  0  0
 20 21  1  0  0  0  0
 21 15  2  0  0  0  0
 22 23  1  0  0  0  0
 22 25  1  1  0  0  0
 22 24  1  0  0  0  0
 23 26  1  0  0  0  0
 23 24  1  0  0  0  0
 24 28  1  6  0  0  0
 24 31  1  0  0  0  0
 27 23  1  0  0  0  0
 29 30  1  0  0  0  0
 30 36  1  0  0  0  0
 31 32  1  0  0  0  0
 31 30  2  0  0  0  0
 32 33  2  0  0  0  0
 33 38  1  0  0  0  0
 33 34  1  0  0  0  0
 34 35  1  0  0  0  0
 36 34  2  0  0  0  0
 36 39  1  0  0  0  0
 37 32  1  0  0  0  0
 40 42  1  0  0  0  0
 40 41  1  0  0  0  0
M  END
>  <minimizedAffinity>
-5.02686739

>  <minimizedRMSD>
4.44715309

$$$$
