
     RDKit          3D

 42 46  0  0  0  0  0  0  0  0999 V2000
   37.7481   31.4896   45.9509 C   0  0  1  0  0  0  0  0  0  0  0  0
   36.3336   31.2700   45.9566 C   0  0  0  0  0  0  0  0  0  0  0  0
   37.1790   30.1625   46.5596 C   0  0  2  0  0  0  0  0  0  0  0  0
   34.7992   28.7343   47.9379 Cl  0  0  0  0  0  0  0  0  0  0  0  0
   36.1246   29.4631   48.8110 C   0  0  0  0  0  0  0  0  0  0  0  0
   37.0564   30.0921   48.0182 C   0  0  0  0  0  0  0  0  0  0  0  0
   38.1109   30.6953   48.6905 C   0  0  0  0  0  0  0  0  0  0  0  0
   38.2119   30.6650   50.0826 C   0  0  0  0  0  0  0  0  0  0  0  0
   37.2237   30.0076   50.8393 C   0  0  0  0  0  0  0  0  0  0  0  0
   37.2138   29.9447   52.5883 Cl  0  0  0  0  0  0  0  0  0  0  0  0
   36.1636   29.3970   50.1665 C   0  0  0  0  0  0  0  0  0  0  0  0
   37.9167   31.3616   43.3681 C   0  0  0  0  0  0  0  0  0  0  0  0
   38.5393   31.3037   44.6839 C   0  0  0  0  0  0  0  0  0  0  0  0
   39.8895   31.1342   44.7672 C   0  0  0  0  0  0  0  0  0  0  0  0
   40.5847   31.0227   43.5781 N   0  0  0  0  0  0  0  0  0  0  0  0
   39.9898   31.0761   42.3736 C   0  0  0  0  0  0  0  0  0  0  0  0
   38.6679   31.2459   42.2776 N   0  0  0  0  0  0  0  0  0  0  0  0
   40.7333   30.9197   41.1812 N   0  0  0  0  0  0  0  0  0  0  0  0
   38.3216   31.9714   46.7872 H   0  0  0  0  0  0  0  0  0  0  0  0
   35.6860   31.8406   46.6857 H   0  0  0  0  0  0  0  0  0  0  0  0
   35.7401   30.9892   45.0712 H   0  0  0  0  0  0  0  0  0  0  0  0
   36.9140   29.2606   46.0032 H   0  0  0  0  0  0  0  0  0  0  0  0
   38.9867   31.2377   48.3761 H   0  0  0  0  0  0  0  0  0  0  0  0
   38.9705   31.0887   50.7165 H   0  0  0  0  0  0  0  0  0  0  0  0
   35.3762   28.8759   50.6808 H   0  0  0  0  0  0  0  0  0  0  0  0
   36.8431   31.5002   43.3621 H   0  0  0  0  0  0  0  0  0  0  0  0
   40.6650   29.8757   41.0294 H   0  0  0  0  0  0  0  0  0  0  0  0
   41.2003   31.6572   40.6389 H   0  0  0  0  0  0  0  0  0  0  0  0
   40.6229   31.0654   45.9812 N   0  0  0  0  0  0  0  0  0  0  0  0
   40.2723   31.6596   47.1602 C   0  0  0  0  0  0  0  0  0  0  0  0
   39.3758   32.2582   47.2954 H   0  0  0  0  0  0  0  0  0  0  0  0
   41.2377   31.3541   48.0753 N   0  0  0  0  0  0  0  0  0  0  0  0
   42.1897   30.5839   47.5114 C   0  0  0  0  0  0  0  0  0  0  0  0
   43.3621   29.9857   47.9125 C   0  0  0  0  0  0  0  0  0  0  0  0
   43.7598   30.1713   49.2634 N   0  0  0  0  0  0  0  0  0  0  0  0
   44.5238   29.6681   49.7479 H   0  0  0  0  0  0  0  0  0  0  0  0
   44.1131   29.2557   47.0849 N   0  0  0  0  0  0  0  0  0  0  0  0
   43.7284   29.0862   45.8094 C   0  0  0  0  0  0  0  0  0  0  0  0
   44.3810   28.4842   45.1913 H   0  0  0  0  0  0  0  0  0  0  0  0
   42.5832   29.6534   45.3642 N   0  0  0  0  0  0  0  0  0  0  0  0
   41.7998   30.3998   46.1803 C   0  0  0  0  0  0  0  0  0  0  0  0
   43.3127   30.8417   49.9019 H   0  0  0  0  0  0  0  0  0  0  0  0
  1  3  1  0
  2  1  1  0
  2  3  1  0
  3  6  1  0
  4  5  1  0
  5 11  2  0
  6  7  2  0
  6  5  1  0
  7  8  1  0
  8  9  2  0
  9 10  1  0
 11  9  1  0
 12 13  2  0
 13 14  1  0
 13  1  1  0
 15 14  2  0
 16 15  1  0
 17 16  2  0
 17 12  1  0
 18 16  1  0
  1 19  1  1
  2 20  1  0
  2 21  1  0
  3 22  1  6
  7 23  1  0
  8 24  1  0
 11 25  1  0
 12 26  1  0
 18 27  1  0
 18 28  1  0
 29 30  1  0
 30 31  1  0
 30 32  2  0
 32 33  1  0
 33 34  2  0
 34 35  1  0
 35 36  1  0
 34 37  1  0
 37 38  2  0
 38 39  1  0
 38 40  1  0
 40 41  2  0
 41 29  1  0
 41 33  1  0
 35 42  1  0
 14 29  1  0
M  ISO  8  19  13  20  13  21  13  22  13  23  14  24  14  25  14  26  14
M  ISO  3  31  15  36   5  39  16
M  END
>  <DihAtoms>  (1) 
12,13,28,29

>  <DihDeg>  (1) 
-88.08874112329765

$$$$
