REMARK  Name = 
REMARK  4 active torsions:
REMARK  status: ('A' for Active; 'I' for Inactive)
REMARK    1  A    between atoms: C_2  and  S_8
REMARK    2  A    between atoms: C_6  and  O_7
REMARK    3  A    between atoms: S_8  and  C_9
REMARK    4  A    between atoms: C_30  and  N_31
REMARK                            x       y       z     vdW  Elec       q    Type
REMARK                         _______ _______ _______ _____ _____    ______ ____
ROOT
ATOM      1  C   UNL     1      37.288  30.740  48.813  0.00  0.00    +0.000 A 
ATOM      2  C   UNL     1      37.222  31.854  49.659  0.00  0.00    +0.000 A 
ATOM      3  C   UNL     1      38.045  32.945  49.374  0.00  0.00    +0.000 A 
ATOM      4  N   UNL     1      38.870  32.854  48.277  0.00  0.00    +0.000 NA
ATOM      5  C   UNL     1      38.903  31.776  47.497  0.00  0.00    +0.000 A 
ATOM      6  N   UNL     1      38.118  30.733  47.766  0.00  0.00    +0.000 NA
ATOM      7  H   UNL     1      36.622  32.013  50.522  0.00  0.00    +0.000 HD
ATOM      8  H   UNL     1      38.070  33.844  49.959  0.00  0.00    +0.000 HD
ATOM      9  N   UNL     1      39.750  31.667  46.358  0.00  0.00    +0.000 N 
ATOM     10  C   UNL     1      40.604  32.602  45.852  0.00  0.00    +0.000 A 
ATOM     11  H   UNL     1      40.684  33.568  46.345  0.00  0.00    +0.000 HD
ATOM     12  N   UNL     1      41.214  32.073  44.756  0.00  0.00    +0.000 NA
ATOM     13  C   UNL     1      40.744  30.848  44.598  0.00  0.00    +0.000 A 
ATOM     14  C   UNL     1      41.065  29.913  43.617  0.00  0.00    +0.000 A 
ATOM     15  N   UNL     1      40.427  28.723  43.693  0.00  0.00    +0.000 NA
ATOM     16  C   UNL     1      39.528  28.474  44.677  0.00  0.00    +0.000 A 
ATOM     17  H   UNL     1      39.084  27.472  44.623  0.00  0.00    +0.000 HD
ATOM     18  N   UNL     1      39.225  29.386  45.620  0.00  0.00    +0.000 NA
ATOM     19  C   UNL     1      39.828  30.587  45.596  0.00  0.00    +0.000 A 
ENDROOT
BRANCH  14  20
ATOM     20  N   UNL     1      42.018  30.222  42.603  0.00  0.00    +0.000 N 
ATOM     21  H   UNL     1      41.678  30.261  41.619  0.00  0.00    +0.000 HD
ATOM     22  H   UNL     1      42.912  30.346  43.150  0.00  0.00    +0.000 HD
ENDBRANCH  14  20
BRANCH   1  23
ATOM     23  S   UNL     1      36.186  29.445  49.309  0.00  0.00    +0.000 S 
BRANCH  23  25
ATOM     24  N   UNL     1      33.588  28.721  49.036  0.00  0.00    +0.000 NA
ATOM     25  C   UNL     1      34.435  29.875  48.923  0.00  0.00    +0.000 C 
ATOM     26  C   UNL     1      34.374  30.385  47.497  0.00  0.00    +0.000 C 
ATOM     27  O   UNL     1      33.249  29.854  46.835  0.00  0.00    +0.000 OA
ATOM     28  C   UNL     1      33.540  28.501  46.662  0.00  0.00    +0.000 C 
ATOM     29  C   UNL     1      33.927  27.820  47.953  0.00  0.00    +0.000 C 
ATOM     30  H   UNL     1      33.725  28.260  49.959  0.00  0.00    +0.000 HD
ATOM     31  H   UNL     1      34.077  30.616  49.666  0.00  0.00    +0.000 HD
ATOM     32  H   UNL     1      34.211  31.480  47.549  0.00  0.00    +0.000 HD
ATOM     33  H   UNL     1      35.298  30.218  46.928  0.00  0.00    +0.000 HD
ATOM     34  H   UNL     1      34.402  28.423  45.950  0.00  0.00    +0.000 HD
ATOM     35  H   UNL     1      32.681  28.020  46.165  0.00  0.00    +0.000 HD
ATOM     36  H   UNL     1      35.012  27.579  47.950  0.00  0.00    +0.000 HD
BRANCH  29  37
ATOM     37  O   UNL     1      33.181  26.635  48.130  0.00  0.00    +0.000 OA
ATOM     38  H   UNL     1      33.531  25.992  47.466  0.00  0.00    +0.000 HD
ENDBRANCH  29  37
ENDBRANCH  23  25
ENDBRANCH   1  23
TORSDOF 4
