
 OpenBabel03272502043D

 44 48  0  0  0  0  0  0  0  0999 V2000
   34.4250   30.6960   47.2520 F   0  0  0  0  0  0  0  0  0  0  0  0
   34.8640   30.1180   46.0900 C   0  0  0  0  0  0  0  0  0  0  0  0
   34.0000   29.4840   45.2120 C   0  0  0  0  0  0  0  0  0  0  0  0
   34.5150   28.9380   44.0520 C   0  0  0  0  0  0  0  0  0  0  0  0
   35.8830   29.0230   43.7660 C   0  0  0  0  0  0  0  0  0  0  0  0
   36.6870   29.6690   44.6870 C   0  0  0  0  0  0  0  0  0  0  0  0
   36.2300   30.2130   45.8270 C   0  0  0  0  0  0  0  0  0  0  0  0
   33.7990   28.4590   43.4100 H   0  0  0  0  0  0  0  0  0  0  0  0
   36.2420   28.5820   42.8460 H   0  0  0  0  0  0  0  0  0  0  0  0
   37.7210   29.6910   44.3930 H   0  0  0  0  0  0  0  0  0  0  0  0
   32.2700   28.5420   46.5940 C   0  0  0  0  0  0  0  0  0  0  0  0
   32.6260   29.4640   45.6190 C   0  0  0  0  0  0  0  0  0  0  0  0
   31.6360   30.2920   45.1230 C   0  0  0  0  0  0  0  0  0  0  0  0
   30.3670   30.1940   45.5850 N   0  0  0  0  0  0  0  0  0  0  0  0
   30.0590   29.2930   46.5270 C   0  0  0  0  0  0  0  0  0  0  0  0
   30.9820   28.4840   47.0240 N   0  0  0  0  0  0  0  0  0  0  0  0
   33.0090   27.8670   47.0170 H   0  0  0  0  0  0  0  0  0  0  0  0
   31.9560   31.0080   44.3520 H   0  0  0  0  0  0  0  0  0  0  0  0
   28.6780   29.3400   46.8860 N   0  0  0  0  0  0  0  0  0  0  0  0
   27.6390   30.0210   46.3270 C   0  0  0  0  0  0  0  0  0  0  0  0
   27.7450   30.6610   45.4740 H   0  0  0  0  0  0  0  0  0  0  0  0
   26.5080   29.7430   47.0260 N   0  0  0  0  0  0  0  0  0  0  0  0
   26.8500   28.9080   47.9940 C   0  0  0  0  0  0  0  0  0  0  0  0
   26.1460   28.2880   49.0030 C   0  0  0  0  0  0  0  0  0  0  0  0
   26.7480   27.4530   49.8910 N   0  0  0  0  0  0  0  0  0  0  0  0
   28.0700   27.2000   49.8150 C   0  0  0  0  0  0  0  0  0  0  0  0
   28.5080   26.5310   50.5420 H   0  0  0  0  0  0  0  0  0  0  0  0
   28.7700   27.7990   48.8350 N   0  0  0  0  0  0  0  0  0  0  0  0
   28.1930   28.6280   47.9470 C   0  0  0  0  0  0  0  0  0  0  0  0
   24.7480   28.4760   49.1830 N   0  0  0  0  0  0  0  0  0  0  0  0
   23.7970   28.1310   48.9320 H   0  0  0  0  0  0  0  0  0  0  0  0
   24.6330   29.3050   49.8390 H   0  0  0  0  0  0  0  0  0  0  0  0
   38.0700   32.4890   44.7080 Br  0  0  0  0  0  0  0  0  0  0  0  0
   38.0060   31.8980   46.5190 C   0  0  0  0  0  0  0  0  0  0  0  0
   37.1350   30.8670   46.7540 C   0  0  0  0  0  0  0  0  0  0  0  0
   37.0590   30.3530   48.0610 C   0  0  0  0  0  0  0  0  0  0  0  0
   37.8260   30.8670   49.0560 C   0  0  0  0  0  0  0  0  0  0  0  0
   38.6840   31.9090   48.7520 C   0  0  0  0  0  0  0  0  0  0  0  0
   38.7870   32.4440   47.4670 C   0  0  0  0  0  0  0  0  0  0  0  0
   36.4000   29.5400   48.3360 H   0  0  0  0  0  0  0  0  0  0  0  0
   37.7820   30.4840   50.0680 H   0  0  0  0  0  0  0  0  0  0  0  0
   39.3160   32.3500   49.5210 H   0  0  0  0  0  0  0  0  0  0  0  0
   39.6030   33.4660   47.0920 O   0  0  0  0  0  0  0  0  0  0  0  0
   40.4930   33.3370   46.6640 H   0  0  0  0  0  0  0  0  0  0  0  0
  2  1  1  0  0  0  0
  3 12  1  0  0  0  0
  3  2  2  0  0  0  0
  4  3  1  0  0  0  0
  5  4  2  0  0  0  0
  5  6  1  0  0  0  0
  6  7  2  0  0  0  0
  7  2  1  0  0  0  0
  7 35  1  0  0  0  0
  8  4  1  0  0  0  0
  9  5  1  0  0  0  0
 10  6  1  0  0  0  0
 11 17  1  0  0  0  0
 11 16  1  0  0  0  0
 12 11  2  0  0  0  0
 13 14  2  0  0  0  0
 13 12  1  0  0  0  0
 14 15  1  0  0  0  0
 15 19  1  0  0  0  0
 15 16  2  0  0  0  0
 18 13  1  0  0  0  0
 19 29  1  0  0  0  0
 20 19  1  0  0  0  0
 20 22  2  0  0  0  0
 21 20  1  0  0  0  0
 22 23  1  0  0  0  0
 23 24  1  0  0  0  0
 24 30  1  0  0  0  0
 24 25  2  0  0  0  0
 26 25  1  0  0  0  0
 26 27  1  0  0  0  0
 28 26  2  0  0  0  0
 29 23  2  0  0  0  0
 29 28  1  0  0  0  0
 30 32  1  0  0  0  0
 31 30  1  0  0  0  0
 33 34  1  0  0  0  0
 34 35  2  0  0  0  0
 34 39  1  0  0  0  0
 35 36  1  0  0  0  0
 36 40  1  0  0  0  0
 36 37  2  0  0  0  0
 37 41  1  0  0  0  0
 38 37  1  0  0  0  0
 38 42  1  0  0  0  0
 39 38  2  0  0  0  0
 43 39  1  0  0  0  0
 44 43  1  0  0  0  0
M  END
>  <minimizedAffinity>
-8.04798985

>  <minimizedRMSD>
0.613479793

$$$$
