
 OpenBabel03272502053D

 44 48  0  0  0  0  0  0  0  0999 V2000
   34.2910   30.6090   47.5480 F   0  0  0  0  0  0  0  0  0  0  0  0
   34.8030   30.1220   46.3730 C   0  0  0  0  0  0  0  0  0  0  0  0
   34.0070   29.5040   45.4240 C   0  0  0  0  0  0  0  0  0  0  0  0
   34.5940   29.0530   44.2570 C   0  0  0  0  0  0  0  0  0  0  0  0
   35.9660   29.2180   44.0350 C   0  0  0  0  0  0  0  0  0  0  0  0
   36.7000   29.8430   45.0260 C   0  0  0  0  0  0  0  0  0  0  0  0
   36.1720   30.2960   46.1750 C   0  0  0  0  0  0  0  0  0  0  0  0
   33.9270   28.5820   43.5590 H   0  0  0  0  0  0  0  0  0  0  0  0
   36.3820   28.8500   43.1070 H   0  0  0  0  0  0  0  0  0  0  0  0
   37.7430   29.9300   44.7780 H   0  0  0  0  0  0  0  0  0  0  0  0
   32.2580   28.3510   46.6080 C   0  0  0  0  0  0  0  0  0  0  0  0
   32.6200   29.3970   45.7700 C   0  0  0  0  0  0  0  0  0  0  0  0
   31.6230   30.2540   45.3420 C   0  0  0  0  0  0  0  0  0  0  0  0
   30.3420   30.0650   45.7370 N   0  0  0  0  0  0  0  0  0  0  0  0
   30.0290   29.0450   46.5470 C   0  0  0  0  0  0  0  0  0  0  0  0
   30.9580   28.2050   46.9760 N   0  0  0  0  0  0  0  0  0  0  0  0
   33.0020   27.6470   46.9730 H   0  0  0  0  0  0  0  0  0  0  0  0
   31.9480   31.0690   44.6790 H   0  0  0  0  0  0  0  0  0  0  0  0
   28.6350   29.0100   46.8540 N   0  0  0  0  0  0  0  0  0  0  0  0
   27.5490   29.2680   46.0730 C   0  0  0  0  0  0  0  0  0  0  0  0
   27.6180   29.5540   45.0430 H   0  0  0  0  0  0  0  0  0  0  0  0
   26.4250   29.1000   46.8190 N   0  0  0  0  0  0  0  0  0  0  0  0
   26.8180   28.7460   48.0320 C   0  0  0  0  0  0  0  0  0  0  0  0
   26.1450   28.4440   49.1950 C   0  0  0  0  0  0  0  0  0  0  0  0
   26.8010   28.1000   50.3360 N   0  0  0  0  0  0  0  0  0  0  0  0
   28.1480   28.0430   50.3680 C   0  0  0  0  0  0  0  0  0  0  0  0
   28.6280   27.7660   51.2960 H   0  0  0  0  0  0  0  0  0  0  0  0
   28.8170   28.3340   49.2400 N   0  0  0  0  0  0  0  0  0  0  0  0
   28.1880   28.6770   48.1010 C   0  0  0  0  0  0  0  0  0  0  0  0
   24.7260   28.4700   49.2830 N   0  0  0  0  0  0  0  0  0  0  0  0
   23.8500   27.9160   49.1740 H   0  0  0  0  0  0  0  0  0  0  0  0
   24.4560   29.4550   49.5780 H   0  0  0  0  0  0  0  0  0  0  0  0
   38.1860   32.4930   45.2110 Br  0  0  0  0  0  0  0  0  0  0  0  0
   37.9310   31.9310   47.0130 C   0  0  0  0  0  0  0  0  0  0  0  0
   37.0080   30.9330   47.1760 C   0  0  0  0  0  0  0  0  0  0  0  0
   36.7900   30.4420   48.4760 C   0  0  0  0  0  0  0  0  0  0  0  0
   37.4770   30.9450   49.5340 C   0  0  0  0  0  0  0  0  0  0  0  0
   38.3950   31.9530   49.3000 C   0  0  0  0  0  0  0  0  0  0  0  0
   38.6370   32.4660   48.0250 C   0  0  0  0  0  0  0  0  0  0  0  0
   36.0810   29.6550   48.6960 H   0  0  0  0  0  0  0  0  0  0  0  0
   37.3240   30.5790   50.5410 H   0  0  0  0  0  0  0  0  0  0  0  0
   38.9660   32.3850   50.1210 H   0  0  0  0  0  0  0  0  0  0  0  0
   39.5190   33.4550   47.7180 O   0  0  0  0  0  0  0  0  0  0  0  0
   40.4410   33.2910   47.3780 H   0  0  0  0  0  0  0  0  0  0  0  0
  2  1  1  0  0  0  0
  3 12  1  0  0  0  0
  3  2  2  0  0  0  0
  4  3  1  0  0  0  0
  5  4  2  0  0  0  0
  5  6  1  0  0  0  0
  6  7  2  0  0  0  0
  7  2  1  0  0  0  0
  7 35  1  0  0  0  0
  8  4  1  0  0  0  0
  9  5  1  0  0  0  0
 10  6  1  0  0  0  0
 11 17  1  0  0  0  0
 11 16  1  0  0  0  0
 12 11  2  0  0  0  0
 13 14  2  0  0  0  0
 13 12  1  0  0  0  0
 14 15  1  0  0  0  0
 15 19  1  0  0  0  0
 15 16  2  0  0  0  0
 18 13  1  0  0  0  0
 19 29  1  0  0  0  0
 20 22  2  0  0  0  0
 20 19  1  0  0  0  0
 21 20  1  0  0  0  0
 22 23  1  0  0  0  0
 23 29  2  0  0  0  0
 23 24  1  0  0  0  0
 24 30  1  0  0  0  0
 24 25  2  0  0  0  0
 25 26  1  0  0  0  0
 26 27  1  0  0  0  0
 28 26  2  0  0  0  0
 29 28  1  0  0  0  0
 30 32  1  0  0  0  0
 31 30  1  0  0  0  0
 33 34  1  0  0  0  0
 34 35  2  0  0  0  0
 34 39  1  0  0  0  0
 35 36  1  0  0  0  0
 36 40  1  0  0  0  0
 36 37  2  0  0  0  0
 37 41  1  0  0  0  0
 38 37  1  0  0  0  0
 38 42  1  0  0  0  0
 39 38  2  0  0  0  0
 43 39  1  0  0  0  0
 44 43  1  0  0  0  0
M  END
>  <minimizedAffinity>
-8.42331028

>  <minimizedRMSD>
0.473608404

$$$$
