
     RDKit          3D

 44 48  0  0  0  0  0  0  0  0999 V2000
   34.3243   30.4609   47.6050 F   0  0  0  0  0  0  0  0  0  0  0  0
   34.7415   29.9906   46.3867 C   0  0  0  0  0  0  0  0  0  0  0  0
   33.8771   29.3686   45.5026 C   0  0  0  0  0  0  0  0  0  0  0  0
   34.3692   28.9359   44.2858 C   0  0  0  0  0  0  0  0  0  0  0  0
   35.7147   29.1218   43.9511 C   0  0  0  0  0  0  0  0  0  0  0  0
   36.5218   29.7502   44.8815 C   0  0  0  0  0  0  0  0  0  0  0  0
   36.0866   30.1864   46.0764 C   0  0  0  0  0  0  0  0  0  0  0  0
   37.9753   32.4269   44.9676 Br  0  0  0  0  0  0  0  0  0  0  0  0
   37.8851   31.8419   46.7795 C   0  0  0  0  0  0  0  0  0  0  0  0
   36.9946   30.8269   47.0093 C   0  0  0  0  0  0  0  0  0  0  0  0
   36.8977   30.3178   48.3171 C   0  0  0  0  0  0  0  0  0  0  0  0
   37.6647   30.8215   49.3183 C   0  0  0  0  0  0  0  0  0  0  0  0
   38.5427   31.8477   49.0181 C   0  0  0  0  0  0  0  0  0  0  0  0
   38.6672   32.3783   47.7334 C   0  0  0  0  0  0  0  0  0  0  0  0
   39.5034   33.3854   47.3630 O   0  0  0  0  0  0  0  0  0  0  0  0
   32.2574   28.2032   46.8469 C   0  0  0  0  0  0  0  0  0  0  0  0
   32.5259   29.2391   45.9633 C   0  0  0  0  0  0  0  0  0  0  0  0
   31.4776   30.0661   45.6028 C   0  0  0  0  0  0  0  0  0  0  0  0
   30.2375   29.8579   46.1053 N   0  0  0  0  0  0  0  0  0  0  0  0
   30.0153   28.8483   46.9563 C   0  0  0  0  0  0  0  0  0  0  0  0
   30.9954   28.0365   47.3230 N   0  0  0  0  0  0  0  0  0  0  0  0
   33.6517   28.4606   43.6421 H   0  0  0  0  0  0  0  0  0  0  0  0
   36.0573   28.7682   42.9883 H   0  0  0  0  0  0  0  0  0  0  0  0
   37.5389   29.8540   44.5479 H   0  0  0  0  0  0  0  0  0  0  0  0
   36.2226   29.5168   48.5876 H   0  0  0  0  0  0  0  0  0  0  0  0
   37.6047   30.4431   50.3296 H   0  0  0  0  0  0  0  0  0  0  0  0
   39.1756   32.2805   49.7919 H   0  0  0  0  0  0  0  0  0  0  0  0
   40.3954   33.2396   46.9426 H   0  0  0  0  0  0  0  0  0  0  0  0
   33.0449   27.5234   47.1628 H   0  0  0  0  0  0  0  0  0  0  0  0
   31.7292   30.8744   44.9013 H   0  0  0  0  0  0  0  0  0  0  0  0
   28.6516   28.7893   47.3765 N   0  0  0  0  0  0  0  0  0  0  0  0
   27.5007   29.0079   46.6842 C   0  0  0  0  0  0  0  0  0  0  0  0
   27.4791   29.2749   45.6456 H   0  0  0  0  0  0  0  0  0  0  0  0
   26.4448   28.8309   47.5216 N   0  0  0  0  0  0  0  0  0  0  0  0
   26.9438   28.5098   48.7051 C   0  0  0  0  0  0  0  0  0  0  0  0
   26.3755   28.2174   49.9248 C   0  0  0  0  0  0  0  0  0  0  0  0
   24.9675   28.2155   50.1283 N   0  0  0  0  0  0  0  0  0  0  0  0
   24.0994   27.6403   50.1024 H   0  0  0  0  0  0  0  0  0  0  0  0
   27.1298   27.9112   51.0142 N   0  0  0  0  0  0  0  0  0  0  0  0
   28.4760   27.8829   50.9370 C   0  0  0  0  0  0  0  0  0  0  0  0
   29.0364   27.6348   51.8268 H   0  0  0  0  0  0  0  0  0  0  0  0
   29.0444   28.1664   49.7520 N   0  0  0  0  0  0  0  0  0  0  0  0
   28.3161   28.4717   48.6625 C   0  0  0  0  0  0  0  0  0  0  0  0
   24.7009   29.2003   50.4267 H   0  0  0  0  0  0  0  0  0  0  0  0
  2  1  1  0
  3 17  1  0
  3  2  2  0
  4  3  1  0
  5  4  2  0
  5  6  1  0
  6  7  2  0
  7  2  1  0
  7 10  1  0
  8  9  1  0
  9 10  2  0
  9 14  1  0
 10 11  1  0
 11 12  2  0
 13 12  1  0
 14 13  2  0
 15 14  1  0
 16 21  2  0
 17 16  1  0
 18 17  2  0
 18 19  1  0
 19 20  2  0
 20 21  1  0
  4 22  1  0
  5 23  1  0
  6 24  1  0
 11 25  1  0
 12 26  1  0
 13 27  1  0
 15 28  1  0
 16 29  1  0
 18 30  1  0
 31 32  1  0
 32 33  1  0
 32 34  2  0
 34 35  1  0
 35 36  2  0
 36 37  1  0
 37 38  1  0
 36 39  1  0
 39 40  2  0
 40 41  1  0
 40 42  1  0
 42 43  2  0
 43 31  1  0
 43 35  1  0
 37 44  1  0
 20 31  1  0
M  ISO  8  22  14  23  14  24  14  25  14  26  14  27  14  28   3  29  14
M  ISO  4  30  14  33  15  38   5  41  16
M  END
>  <DihAtoms>  (1) 
18,19,30,31

>  <DihDeg>  (1) 
53.5990769311919

$$$$
