
     RDKit          3D

 29 31  0  0  0  0  0  0  0  0999 V2000
   35.6462   30.4755   49.7417 C   0  0  0  0  0  0  0  0  0  0  0  0
   35.9634   29.4776   50.6759 C   0  0  0  0  0  0  0  0  0  0  0  0
   37.2254   29.5123   51.2619 C   0  0  0  0  0  0  0  0  0  0  0  0
   38.0961   30.5017   50.9116 N   0  0  0  0  0  0  0  0  0  0  0  0
   37.7594   31.4505   50.0063 C   0  0  0  0  0  0  0  0  0  0  0  0
   36.5291   31.4396   49.4170 N   0  0  0  0  0  0  0  0  0  0  0  0
   34.4383   30.5842   49.0697 O   0  0  0  0  0  0  0  0  0  0  0  0
   35.5016   30.1625   46.6342 O   0  0  0  0  0  0  0  0  0  0  0  0
   34.2384   30.0095   47.4584 P   0  0  0  0  0  0  0  0  0  0  0  0
   33.7614   28.3906   47.5858 O   0  0  0  0  0  0  0  0  0  0  0  0
   33.0426   30.9460   46.6945 O   0  0  0  0  0  0  0  0  0  0  0  0
   35.1948   28.7442   50.8757 H   0  0  0  0  0  0  0  0  0  0  0  0
   38.4561   32.2242   49.7399 H   0  0  0  0  0  0  0  0  0  0  0  0
   34.0981   27.9337   46.7611 H   0  0  0  0  0  0  0  0  0  0  0  0
   32.2043   30.8779   47.2512 H   0  0  0  0  0  0  0  0  0  0  0  0
   37.5385   28.4956   52.2089 N   0  0  0  0  0  0  0  0  0  0  0  0
   37.5261   28.4457   53.5543 C   0  0  0  0  0  0  0  0  0  0  0  0
   37.2241   29.3289   54.1285 H   0  0  0  0  0  0  0  0  0  0  0  0
   37.9177   27.2241   53.9749 N   0  0  0  0  0  0  0  0  0  0  0  0
   38.1764   26.5090   52.8463 C   0  0  0  0  0  0  0  0  0  0  0  0
   38.6072   25.2068   52.6781 C   0  0  0  0  0  0  0  0  0  0  0  0
   38.8604   24.3617   53.7984 N   0  0  0  0  0  0  0  0  0  0  0  0
   38.0114   23.7685   53.9348 H   0  0  0  0  0  0  0  0  0  0  0  0
   38.7984   24.7048   51.4414 N   0  0  0  0  0  0  0  0  0  0  0  0
   38.5703   25.4704   50.3666 C   0  0  0  0  0  0  0  0  0  0  0  0
   38.6771   25.2132   49.3198 H   0  0  0  0  0  0  0  0  0  0  0  0
   38.1523   26.7367   50.4927 N   0  0  0  0  0  0  0  0  0  0  0  0
   37.9413   27.2999   51.7179 C   0  0  0  0  0  0  0  0  0  0  0  0
   39.8072   24.4763   54.2679 H   0  0  0  0  0  0  0  0  0  0  0  0
  1  2  2  0
  2  3  1  0
  4  3  2  0
  5  4  1  0
  6  1  1  0
  6  5  2  0
  7  1  1  0
  8  9  2  0
  9 10  1  0
  9  7  1  0
 11  9  1  0
  2 12  1  0
  5 13  1  0
 10 14  1  0
 11 15  1  0
 16 17  1  0
 17 18  1  0
 17 19  2  0
 19 20  1  0
 20 21  2  0
 21 22  1  0
 22 23  1  0
 21 24  1  0
 24 25  2  0
 25 26  1  0
 25 27  1  0
 27 28  2  0
 28 16  1  0
 28 20  1  0
 22 29  1  0
  3 16  1  0
M  ISO  7  12  14  13  14  14   3  15   3  18  15  23   5  26  16
M  END
>  <DihAtoms>  (1) 
1,2,15,16

>  <DihDeg>  (1) 
111.6367728333508

$$$$
