REMARK  Name = 
REMARK  5 active torsions:
REMARK  status: ('A' for Active; 'I' for Inactive)
REMARK    1  A    between atoms: C_1  and  O_7
REMARK    2  A    between atoms: O_7  and  P_9
REMARK    3  A    between atoms: P_9  and  O_10
REMARK    4  A    between atoms: P_9  and  O_11
REMARK    5  A    between atoms: C_21  and  N_22
REMARK                            x       y       z     vdW  Elec       q    Type
REMARK                         _______ _______ _______ _____ _____    ______ ____
ROOT
ATOM      1  C   UNL     1      35.646  30.476  49.742  0.00  0.00    +0.000 A 
ATOM      2  C   UNL     1      35.963  29.478  50.676  0.00  0.00    +0.000 A 
ATOM      3  C   UNL     1      37.225  29.512  51.262  0.00  0.00    +0.000 A 
ATOM      4  N   UNL     1      38.096  30.502  50.912  0.00  0.00    +0.000 NA
ATOM      5  C   UNL     1      37.759  31.451  50.006  0.00  0.00    +0.000 A 
ATOM      6  N   UNL     1      36.529  31.440  49.417  0.00  0.00    +0.000 NA
ATOM      7  H   UNL     1      35.195  28.744  50.876  0.00  0.00    +0.000 HD
ATOM      8  H   UNL     1      38.456  32.224  49.740  0.00  0.00    +0.000 HD
ATOM      9  N   UNL     1      37.538  28.496  52.209  0.00  0.00    +0.000 N 
ATOM     10  C   UNL     1      37.526  28.446  53.554  0.00  0.00    +0.000 A 
ATOM     11  H   UNL     1      37.224  29.329  54.129  0.00  0.00    +0.000 HD
ATOM     12  N   UNL     1      37.918  27.224  53.975  0.00  0.00    +0.000 NA
ATOM     13  C   UNL     1      38.176  26.509  52.846  0.00  0.00    +0.000 A 
ATOM     14  C   UNL     1      38.607  25.207  52.678  0.00  0.00    +0.000 A 
ATOM     15  N   UNL     1      38.798  24.705  51.441  0.00  0.00    +0.000 NA
ATOM     16  C   UNL     1      38.570  25.470  50.367  0.00  0.00    +0.000 A 
ATOM     17  H   UNL     1      38.677  25.213  49.320  0.00  0.00    +0.000 HD
ATOM     18  N   UNL     1      38.152  26.737  50.493  0.00  0.00    +0.000 NA
ATOM     19  C   UNL     1      37.941  27.300  51.718  0.00  0.00    +0.000 A 
ENDROOT
BRANCH  14  20
ATOM     20  N   UNL     1      38.860  24.362  53.798  0.00  0.00    +0.000 N 
ATOM     21  H   UNL     1      38.011  23.768  53.935  0.00  0.00    +0.000 HD
ATOM     22  H   UNL     1      39.807  24.476  54.268  0.00  0.00    +0.000 HD
ENDBRANCH  14  20
BRANCH   1  23
ATOM     23  O   UNL     1      34.438  30.584  49.070  0.00  0.00    +0.000 OA
BRANCH  23  25
ATOM     24  O   UNL     1      35.502  30.163  46.634  0.00  0.00    +0.000 OA
ATOM     25  P   UNL     1      34.238  30.009  47.458  0.00  0.00    +0.000 P 
BRANCH  25  26
ATOM     26  O   UNL     1      33.761  28.391  47.586  0.00  0.00    +0.000 OA
ATOM     27  H   UNL     1      34.098  27.934  46.761  0.00  0.00    +0.000 HD
ENDBRANCH  25  26
BRANCH  25  28
ATOM     28  O   UNL     1      33.043  30.946  46.694  0.00  0.00    +0.000 OA
ATOM     29  H   UNL     1      32.204  30.878  47.251  0.00  0.00    +0.000 HD
ENDBRANCH  25  28
ENDBRANCH  23  25
ENDBRANCH   1  23
TORSDOF 5
