
 OpenBabel03272510253D

 50 55  0  0  1  0  0  0  0  0999 V2000
   38.2960   31.7550   41.3230 N   0  0  0  0  0  0  0  0  0  0  0  0
   38.7890   33.1480   41.4030 C   0  0  1  0  0  0  0  0  0  0  0  0
   37.6620   34.0480   41.1890 C   0  0  0  0  0  0  0  0  0  0  0  0
   37.1970   33.8750   39.8730 O   0  0  0  0  0  0  0  0  0  0  0  0
   36.8480   32.5980   39.5420 C   0  0  0  0  0  0  0  0  0  0  0  0
   37.8920   31.5820   39.9460 C   0  0  1  0  0  0  0  0  0  0  0  0
   39.1250   31.1460   41.4990 H   0  0  0  0  0  0  0  0  0  0  0  0
   39.5540   33.3270   40.6320 H   0  0  0  0  0  0  0  0  0  0  0  0
   36.7790   34.0770   41.7670 H   0  0  0  0  0  0  0  0  0  0  0  0
   38.0730   35.1040   41.1750 H   0  0  0  0  0  0  0  0  0  0  0  0
   36.7910   32.5470   38.4350 H   0  0  0  0  0  0  0  0  0  0  0  0
   35.8330   32.3180   39.9040 H   0  0  0  0  0  0  0  0  0  0  0  0
   37.4700   30.5770   39.7590 H   0  0  0  0  0  0  0  0  0  0  0  0
   39.0690   31.7820   39.0930 N   0  0  0  0  0  0  0  0  0  0  0  0
   39.2150   32.5650   38.0090 C   0  0  0  0  0  0  0  0  0  0  0  0
   38.4450   33.1930   37.5870 H   0  0  0  0  0  0  0  0  0  0  0  0
   40.4620   32.4570   37.5160 N   0  0  0  0  0  0  0  0  0  0  0  0
   41.1430   31.5990   38.2780 C   0  0  0  0  0  0  0  0  0  0  0  0
   42.4500   31.1670   38.1750 C   0  0  0  0  0  0  0  0  0  0  0  0
   42.8510   30.2840   39.1100 N   0  0  0  0  0  0  0  0  0  0  0  0
   41.9970   29.8640   40.0850 C   0  0  0  0  0  0  0  0  0  0  0  0
   42.3350   29.1470   40.8380 H   0  0  0  0  0  0  0  0  0  0  0  0
   40.7270   30.3010   40.1640 N   0  0  0  0  0  0  0  0  0  0  0  0
   40.2720   31.1720   39.2720 C   0  0  0  0  0  0  0  0  0  0  0  0
   43.3340   31.6120   37.1540 N   0  0  0  0  0  0  0  0  0  0  0  0
   43.6020   32.5830   37.4620 H   0  0  0  0  0  0  0  0  0  0  0  0
   43.6060   31.0440   36.3160 H   0  0  0  0  0  0  0  0  0  0  0  0
   39.3170   33.2450   42.7200 O   0  0  0  0  0  0  0  0  0  0  0  0
   36.1070   30.2100   46.6520 C   0  0  0  0  0  0  0  0  0  0  0  0
   37.0500   30.7550   47.5220 C   0  0  0  0  0  0  0  0  0  0  0  0
   38.0630   31.5800   47.0580 C   0  0  0  0  0  0  0  0  0  0  0  0
   38.0880   31.8300   45.6930 C   0  0  0  0  0  0  0  0  0  0  0  0
   38.9790   32.6040   45.0040 N   0  0  0  0  0  0  0  0  0  0  0  0
   38.6090   32.5510   43.7180 C   0  0  0  0  0  0  0  0  0  0  0  0
   37.5460   31.7890   43.5750 N   0  0  0  0  0  0  0  0  0  0  0  0
   37.1790   31.3140   44.7940 C   0  0  0  0  0  0  0  0  0  0  0  0
   36.1660   30.4850   45.2910 C   0  0  0  0  0  0  0  0  0  0  0  0
   35.2980   29.5640   46.9570 H   0  0  0  0  0  0  0  0  0  0  0  0
   38.7880   31.9970   47.7440 H   0  0  0  0  0  0  0  0  0  0  0  0
   39.7830   33.1250   45.4310 H   0  0  0  0  0  0  0  0  0  0  0  0
   35.4590   30.0870   44.5760 H   0  0  0  0  0  0  0  0  0  0  0  0
   37.6220   30.3390   51.2120 C   0  0  0  0  0  0  0  0  0  0  0  0
   37.8470   30.7390   49.8990 C   0  0  0  0  0  0  0  0  0  0  0  0
   36.9160   30.4000   48.9230 C   0  0  0  0  0  0  0  0  0  0  0  0
   35.8200   29.6860   49.3120 N   0  0  0  0  0  0  0  0  0  0  0  0
   35.6120   29.3050   50.5890 C   0  0  0  0  0  0  0  0  0  0  0  0
   36.5020   29.6300   51.5150 N   0  0  0  0  0  0  0  0  0  0  0  0
   38.3890   30.6420   51.9000 H   0  0  0  0  0  0  0  0  0  0  0  0
   38.7220   31.3040   49.6090 H   0  0  0  0  0  0  0  0  0  0  0  0
   34.7310   28.7380   50.8670 H   0  0  0  0  0  0  0  0  0  0  0  0
  1  2  1  0  0  0  0
  1  7  1  0  0  0  0
  2  8  1  6  0  0  0
  2 28  1  0  0  0  0
  3  2  1  0  0  0  0
  3  9  1  0  0  0  0
  4  3  1  0  0  0  0
  5  4  1  0  0  0  0
  5 12  1  0  0  0  0
  5  6  1  0  0  0  0
  6 13  1  6  0  0  0
  6  1  1  0  0  0  0
 10  3  1  0  0  0  0
 11  5  1  0  0  0  0
 14 24  1  0  0  0  0
 14  6  1  0  0  0  0
 15 14  1  0  0  0  0
 16 15  1  0  0  0  0
 17 15  2  0  0  0  0
 17 18  1  0  0  0  0
 18 24  1  0  0  0  0
 19 18  2  0  0  0  0
 19 20  1  0  0  0  0
 20 21  2  0  0  0  0
 21 23  1  0  0  0  0
 21 22  1  0  0  0  0
 24 23  2  0  0  0  0
 25 26  1  0  0  0  0
 25 19  1  0  0  0  0
 27 25  1  0  0  0  0
 28 34  1  0  0  0  0
 29 38  1  0  0  0  0
 29 30  1  0  0  0  0
 30 44  1  0  0  0  0
 31 30  2  0  0  0  0
 31 39  1  0  0  0  0
 32 31  1  0  0  0  0
 33 40  1  0  0  0  0
 33 32  1  0  0  0  0
 34 33  1  0  0  0  0
 35 34  2  0  0  0  0
 35 36  1  0  0  0  0
 36 37  1  0  0  0  0
 36 32  2  0  0  0  0
 37 29  2  0  0  0  0
 41 37  1  0  0  0  0
 42 47  1  0  0  0  0
 42 48  1  0  0  0  0
 43 42  2  0  0  0  0
 44 45  2  0  0  0  0
 44 43  1  0  0  0  0
 45 46  1  0  0  0  0
 46 50  1  0  0  0  0
 46 47  2  0  0  0  0
 49 43  1  0  0  0  0
M  END
>  <minimizedAffinity>
-5.99807405

>  <minimizedRMSD>
1.37690902

$$$$
