
 OpenBabel03272502053D

 44 48  0  0  0  0  0  0  0  0999 V2000
   34.4400   30.7120   46.9000 F   0  0  0  0  0  0  0  0  0  0  0  0
   34.8230   30.0910   45.7390 C   0  0  0  0  0  0  0  0  0  0  0  0
   33.9150   29.4450   44.9170 C   0  0  0  0  0  0  0  0  0  0  0  0
   34.3750   28.8550   43.7550 C   0  0  0  0  0  0  0  0  0  0  0  0
   35.7310   28.9080   43.4130 C   0  0  0  0  0  0  0  0  0  0  0  0
   36.5810   29.5680   44.2800 C   0  0  0  0  0  0  0  0  0  0  0  0
   36.1790   30.1550   45.4200 C   0  0  0  0  0  0  0  0  0  0  0  0
   33.6250   28.3700   43.1570 H   0  0  0  0  0  0  0  0  0  0  0  0
   36.0460   28.4330   42.4930 H   0  0  0  0  0  0  0  0  0  0  0  0
   37.6030   29.5640   43.9450 H   0  0  0  0  0  0  0  0  0  0  0  0
   32.2940   28.8300   46.5850 C   0  0  0  0  0  0  0  0  0  0  0  0
   32.5580   29.4620   45.3780 C   0  0  0  0  0  0  0  0  0  0  0  0
   31.5000   30.0610   44.7200 C   0  0  0  0  0  0  0  0  0  0  0  0
   30.2550   30.0240   45.2500 N   0  0  0  0  0  0  0  0  0  0  0  0
   30.0370   29.4050   46.4180 C   0  0  0  0  0  0  0  0  0  0  0  0
   31.0270   28.8210   47.0750 N   0  0  0  0  0  0  0  0  0  0  0  0
   33.0900   28.3430   47.1440 H   0  0  0  0  0  0  0  0  0  0  0  0
   31.7480   30.5500   43.7670 H   0  0  0  0  0  0  0  0  0  0  0  0
   28.6670   29.4720   46.8150 N   0  0  0  0  0  0  0  0  0  0  0  0
   27.6780   30.3320   46.4480 C   0  0  0  0  0  0  0  0  0  0  0  0
   27.8240   31.1360   45.7530 H   0  0  0  0  0  0  0  0  0  0  0  0
   26.5350   29.9900   47.0980 N   0  0  0  0  0  0  0  0  0  0  0  0
   26.8210   28.9380   47.8500 C   0  0  0  0  0  0  0  0  0  0  0  0
   26.0820   28.1630   48.7160 C   0  0  0  0  0  0  0  0  0  0  0  0
   26.6280   27.1110   49.3820 N   0  0  0  0  0  0  0  0  0  0  0  0
   27.9260   26.7870   49.2170 C   0  0  0  0  0  0  0  0  0  0  0  0
   28.3190   25.9420   49.7660 H   0  0  0  0  0  0  0  0  0  0  0  0
   28.6600   27.5350   48.3750 N   0  0  0  0  0  0  0  0  0  0  0  0
   28.1390   28.5800   47.7060 C   0  0  0  0  0  0  0  0  0  0  0  0
   24.7040   28.4090   48.9700 N   0  0  0  0  0  0  0  0  0  0  0  0
   23.7290   28.1970   48.6760 H   0  0  0  0  0  0  0  0  0  0  0  0
   24.6620   29.0780   49.7950 H   0  0  0  0  0  0  0  0  0  0  0  0
   37.9280   32.4430   44.1870 Br  0  0  0  0  0  0  0  0  0  0  0  0
   37.9760   31.8580   46.0000 C   0  0  0  0  0  0  0  0  0  0  0  0
   37.1310   30.8210   46.2900 C   0  0  0  0  0  0  0  0  0  0  0  0
   37.1360   30.3110   47.6010 C   0  0  0  0  0  0  0  0  0  0  0  0
   37.9560   30.8370   48.5480 C   0  0  0  0  0  0  0  0  0  0  0  0
   38.7840   31.8850   48.1890 C   0  0  0  0  0  0  0  0  0  0  0  0
   38.8070   32.4160   46.8990 C   0  0  0  0  0  0  0  0  0  0  0  0
   36.5020   29.4930   47.9170 H   0  0  0  0  0  0  0  0  0  0  0  0
   37.9750   30.4580   49.5620 H   0  0  0  0  0  0  0  0  0  0  0  0
   39.4570   32.3360   48.9190 H   0  0  0  0  0  0  0  0  0  0  0  0
   39.5890   33.4440   46.4730 O   0  0  0  0  0  0  0  0  0  0  0  0
   40.4540   33.3220   45.9940 H   0  0  0  0  0  0  0  0  0  0  0  0
  2  1  1  0  0  0  0
  3 12  1  0  0  0  0
  3  2  2  0  0  0  0
  4  3  1  0  0  0  0
  5  4  2  0  0  0  0
  5  6  1  0  0  0  0
  6  7  2  0  0  0  0
  7  2  1  0  0  0  0
  7 35  1  0  0  0  0
  8  4  1  0  0  0  0
  9  5  1  0  0  0  0
 10  6  1  0  0  0  0
 11 16  1  0  0  0  0
 11 17  1  0  0  0  0
 12 11  2  0  0  0  0
 13 14  2  0  0  0  0
 13 12  1  0  0  0  0
 14 15  1  0  0  0  0
 15 19  1  0  0  0  0
 15 16  2  0  0  0  0
 18 13  1  0  0  0  0
 19 29  1  0  0  0  0
 20 19  1  0  0  0  0
 20 22  2  0  0  0  0
 21 20  1  0  0  0  0
 22 23  1  0  0  0  0
 23 24  1  0  0  0  0
 24 30  1  0  0  0  0
 24 25  2  0  0  0  0
 26 25  1  0  0  0  0
 26 27  1  0  0  0  0
 28 26  2  0  0  0  0
 29 23  2  0  0  0  0
 29 28  1  0  0  0  0
 30 32  1  0  0  0  0
 31 30  1  0  0  0  0
 33 34  1  0  0  0  0
 34 35  2  0  0  0  0
 34 39  1  0  0  0  0
 35 36  1  0  0  0  0
 36 40  1  0  0  0  0
 36 37  2  0  0  0  0
 37 41  1  0  0  0  0
 38 37  1  0  0  0  0
 38 42  1  0  0  0  0
 39 38  2  0  0  0  0
 43 39  1  0  0  0  0
 44 43  1  0  0  0  0
M  END
>  <minimizedAffinity>
-7.56011057

>  <minimizedRMSD>
0.920615792

$$$$
