
     RDKit          3D

 24 26  0  0  0  0  0  0  0  0999 V2000
   37.3047   29.9896   51.1885 C   0  0  0  0  0  0  0  0  0  0  0  0
   37.9444   30.9148   50.3515 C   0  0  0  0  0  0  0  0  0  0  0  0
   37.2740   31.3918   49.2271 C   0  0  0  0  0  0  0  0  0  0  0  0
   36.0175   30.9329   48.9917 N   0  0  0  0  0  0  0  0  0  0  0  0
   35.4153   30.0324   49.8204 C   0  0  0  0  0  0  0  0  0  0  0  0
   36.0481   29.5731   50.8943 N   0  0  0  0  0  0  0  0  0  0  0  0
   38.0899   29.6094   52.2586 O   0  0  0  0  0  0  0  0  0  0  0  0
   38.9534   31.2947   50.5249 H   0  0  0  0  0  0  0  0  0  0  0  0
   37.7121   32.1018   48.5481 H   0  0  0  0  0  0  0  0  0  0  0  0
   37.8323   28.9135   52.9414 H   0  0  0  0  0  0  0  0  0  0  0  0
   34.0989   29.5431   49.5854 N   0  0  0  0  0  0  0  0  0  0  0  0
   33.0121   30.3523   49.4420 C   0  0  0  0  0  0  0  0  0  0  0  0
   32.9532   31.4436   49.4780 H   0  0  0  0  0  0  0  0  0  0  0  0
   31.8797   29.6218   49.2270 N   0  0  0  0  0  0  0  0  0  0  0  0
   32.2527   28.3159   49.2332 C   0  0  0  0  0  0  0  0  0  0  0  0
   31.6310   27.0792   49.0803 C   0  0  0  0  0  0  0  0  0  0  0  0
   30.2488   27.0609   48.8543 N   0  0  0  0  0  0  0  0  0  0  0  0
   29.7440   26.1844   48.5681 H   0  0  0  0  0  0  0  0  0  0  0  0
   32.3546   25.9687   49.1520 N   0  0  0  0  0  0  0  0  0  0  0  0
   33.6898   25.9925   49.3706 C   0  0  0  0  0  0  0  0  0  0  0  0
   34.2492   25.0562   49.4227 H   0  0  0  0  0  0  0  0  0  0  0  0
   34.3760   27.1585   49.5311 N   0  0  0  0  0  0  0  0  0  0  0  0
   33.6266   28.2811   49.4558 C   0  0  0  0  0  0  0  0  0  0  0  0
   29.6381   27.8934   48.9512 H   0  0  0  0  0  0  0  0  0  0  0  0
  1  7  1  0
  2  1  2  0
  3  2  1  0
  4  3  2  0
  4  5  1  0
  5  6  2  0
  6  1  1  0
  2  8  1  0
  3  9  1  0
  7 10  1  0
 11 12  1  0
 12 13  1  0
 12 14  2  0
 14 15  1  0
 15 16  2  0
 16 17  1  0
 17 18  1  0
 16 19  1  0
 19 20  2  0
 20 21  1  0
 20 22  1  0
 22 23  2  0
 23 11  1  0
 23 15  1  0
 17 24  1  0
  5 11  1  0
M  ISO  6   8  14   9  14  10   3  13  15  18   5  21  16
M  END
>  <DihAtoms>  (1) 
3,4,10,11

>  <DihDeg>  (1) 
-100.61158116682546

$$$$
