
 OpenBabel03272505303D

 45 49  0  0  0  0  0  0  0  0999 V2000
   36.6340   31.0310   43.1080 C   0  0  0  0  0  0  0  0  0  0  0  0
   37.0370   30.0000   42.3060 C   0  0  0  0  0  0  0  0  0  0  0  0
   36.5210   29.7110   41.0680 C   0  0  0  0  0  0  0  0  0  0  0  0
   35.5060   30.5120   40.5600 C   0  0  0  0  0  0  0  0  0  0  0  0
   35.1150   31.5540   41.3980 C   0  0  0  0  0  0  0  0  0  0  0  0
   35.6510   31.7920   42.5990 N   0  0  0  0  0  0  0  0  0  0  0  0
   37.8280   29.3340   42.6430 H   0  0  0  0  0  0  0  0  0  0  0  0
   36.8570   28.8880   40.4510 H   0  0  0  0  0  0  0  0  0  0  0  0
   35.0200   30.3970   39.6180 H   0  0  0  0  0  0  0  0  0  0  0  0
   34.0760   32.4930   41.0490 N   0  0  0  0  0  0  0  0  0  0  0  0
   33.7030   32.8540   39.7870 C   0  0  0  0  0  0  0  0  0  0  0  0
   34.2070   32.4180   38.9230 H   0  0  0  0  0  0  0  0  0  0  0  0
   32.6920   33.7600   39.9070 N   0  0  0  0  0  0  0  0  0  0  0  0
   32.4610   33.9410   41.2270 C   0  0  0  0  0  0  0  0  0  0  0  0
   31.5620   34.7360   41.9080 C   0  0  0  0  0  0  0  0  0  0  0  0
   31.5390   34.7300   43.2700 N   0  0  0  0  0  0  0  0  0  0  0  0
   32.3910   33.9510   43.9730 C   0  0  0  0  0  0  0  0  0  0  0  0
   32.4220   33.9010   45.0570 H   0  0  0  0  0  0  0  0  0  0  0  0
   33.2770   33.1690   43.3000 N   0  0  0  0  0  0  0  0  0  0  0  0
   33.3290   33.1470   41.9570 C   0  0  0  0  0  0  0  0  0  0  0  0
   37.2520   31.1030   46.8100 N   0  0  0  0  0  0  0  0  0  0  0  0
   36.6810   30.8110   45.6060 C   0  0  0  0  0  0  0  0  0  0  0  0
   37.2020   31.3100   44.4160 C   0  0  0  0  0  0  0  0  0  0  0  0
   38.3350   32.1240   44.4920 C   0  0  0  0  0  0  0  0  0  0  0  0
   38.8300   32.5880   43.4440 O   0  0  0  0  0  0  0  0  0  0  0  0
   38.9020   32.4110   45.7060 N   0  0  0  0  0  0  0  0  0  0  0  0
   38.3180   31.8790   46.7760 C   0  0  0  0  0  0  0  0  0  0  0  0
   38.8650   32.1630   47.8650 O   0  0  0  0  0  0  0  0  0  0  0  0
   35.7980   30.1790   45.5300 H   0  0  0  0  0  0  0  0  0  0  0  0
   36.9820   29.4000   50.1060 C   0  0  0  0  0  0  0  0  0  0  0  0
   37.5120   29.9100   48.9100 C   0  0  0  0  0  0  0  0  0  0  0  0
   36.7200   30.5960   48.0020 C   0  0  0  0  0  0  0  0  0  0  0  0
   35.4190   30.7550   48.3150 N   0  0  0  0  0  0  0  0  0  0  0  0
   34.8740   30.2720   49.4700 C   0  0  0  0  0  0  0  0  0  0  0  0
   35.6770   29.5960   50.3540 N   0  0  0  0  0  0  0  0  0  0  0  0
   37.6590   28.8790   50.7620 H   0  0  0  0  0  0  0  0  0  0  0  0
   38.5580   29.8000   48.6260 H   0  0  0  0  0  0  0  0  0  0  0  0
   33.8250   30.4300   49.6660 H   0  0  0  0  0  0  0  0  0  0  0  0
   40.0700   33.2500   45.7720 C   0  0  0  0  0  0  0  0  0  0  0  0
   39.9970   34.2550   44.8590 F   0  0  0  0  0  0  0  0  0  0  0  0
   41.2540   32.5670   45.5120 F   0  0  0  0  0  0  0  0  0  0  0  0
   40.1260   33.8380   47.0390 F   0  0  0  0  0  0  0  0  0  0  0  0
   30.6730   35.5490   41.1650 N   0  0  0  0  0  0  0  0  0  0  0  0
   29.6940   35.3390   41.4650 H   0  0  0  0  0  0  0  0  0  0  0  0
   30.7270   36.2680   40.4290 H   0  0  0  0  0  0  0  0  0  0  0  0
  1 23  1  0  0  0  0
  2  7  1  0  0  0  0
  2  1  2  0  0  0  0
  3  2  1  0  0  0  0
  4  3  2  0  0  0  0
  4  5  1  0  0  0  0
  5  6  2  0  0  0  0
  6  1  1  0  0  0  0
  8  3  1  0  0  0  0
  9  4  1  0  0  0  0
 10  5  1  0  0  0  0
 10 20  1  0  0  0  0
 11 13  2  0  0  0  0
 11 10  1  0  0  0  0
 12 11  1  0  0  0  0
 13 14  1  0  0  0  0
 14 15  2  0  0  0  0
 14 20  1  0  0  0  0
 15 16  1  0  0  0  0
 16 17  2  0  0  0  0
 17 18  1  0  0  0  0
 19 17  1  0  0  0  0
 20 19  2  0  0  0  0
 21 32  1  0  0  0  0
 22 21  1  0  0  0  0
 23 24  1  0  0  0  0
 23 22  2  0  0  0  0
 24 26  1  0  0  0  0
 25 24  2  0  0  0  0
 26 39  1  0  0  0  0
 26 27  1  0  0  0  0
 27 21  1  0  0  0  0
 27 28  2  0  0  0  0
 29 22  1  0  0  0  0
 30 35  1  0  0  0  0
 30 36  1  0  0  0  0
 31 30  2  0  0  0  0
 32 33  2  0  0  0  0
 32 31  1  0  0  0  0
 33 34  1  0  0  0  0
 34 38  1  0  0  0  0
 34 35  2  0  0  0  0
 37 31  1  0  0  0  0
 39 42  1  0  0  0  0
 40 39  1  0  0  0  0
 41 39  1  0  0  0  0
 43 44  1  0  0  0  0
 43 15  1  0  0  0  0
 45 43  1  0  0  0  0
M  END
>  <minimizedAffinity>
-7.23950291

>  <minimizedRMSD>
0.354624271

$$$$
