
 OpenBabel03272506353D

 24 26  0  0  0  0  0  0  0  0999 V2000
   38.8960   27.1440   31.9830 C   0  0  0  0  0  0  0  0  0  0  0  0
   37.5880   27.6040   32.1810 C   0  0  0  0  0  0  0  0  0  0  0  0
   36.8260   27.0670   33.2160 C   0  0  0  0  0  0  0  0  0  0  0  0
   37.3960   26.1110   33.9960 N   0  0  0  0  0  0  0  0  0  0  0  0
   38.6710   25.6780   33.7850 C   0  0  0  0  0  0  0  0  0  0  0  0
   39.4030   26.1860   32.7990 N   0  0  0  0  0  0  0  0  0  0  0  0
   37.1140   28.3710   31.5640 H   0  0  0  0  0  0  0  0  0  0  0  0
   35.8160   27.3790   33.4170 H   0  0  0  0  0  0  0  0  0  0  0  0
   39.2790   24.6770   34.5940 N   0  0  0  0  0  0  0  0  0  0  0  0
   40.2910   23.8730   34.1610 C   0  0  0  0  0  0  0  0  0  0  0  0
   40.7840   23.8500   33.1850 H   0  0  0  0  0  0  0  0  0  0  0  0
   40.6850   23.0060   35.1370 N   0  0  0  0  0  0  0  0  0  0  0  0
   39.9070   23.2630   36.2210 C   0  0  0  0  0  0  0  0  0  0  0  0
   39.7730   22.7710   37.5170 C   0  0  0  0  0  0  0  0  0  0  0  0
   38.8590   23.2960   38.3260 N   0  0  0  0  0  0  0  0  0  0  0  0
   38.0440   24.3030   37.9340 C   0  0  0  0  0  0  0  0  0  0  0  0
   37.3050   24.7070   38.6290 H   0  0  0  0  0  0  0  0  0  0  0  0
   38.1090   24.8410   36.6840 N   0  0  0  0  0  0  0  0  0  0  0  0
   39.0430   24.2980   35.8720 C   0  0  0  0  0  0  0  0  0  0  0  0
   40.6190   21.7290   37.9170 N   0  0  0  0  0  0  0  0  0  0  0  0
   40.6870   21.4230   38.9190 H   0  0  0  0  0  0  0  0  0  0  0  0
   41.2260   21.1980   37.2650 H   0  0  0  0  0  0  0  0  0  0  0  0
   39.5260   27.7660   30.9230 O   0  0  0  0  0  0  0  0  0  0  0  0
   40.4480   27.5360   30.5870 H   0  0  0  0  0  0  0  0  0  0  0  0
  1  2  2  0  0  0  0
  1  6  1  0  0  0  0
  2  3  1  0  0  0  0
  3  8  1  0  0  0  0
  3  4  2  0  0  0  0
  5  4  1  0  0  0  0
  5  9  1  0  0  0  0
  6  5  2  0  0  0  0
  7  2  1  0  0  0  0
  9 19  1  0  0  0  0
 10  9  1  0  0  0  0
 10 12  2  0  0  0  0
 11 10  1  0  0  0  0
 12 13  1  0  0  0  0
 13 14  1  0  0  0  0
 14 20  1  0  0  0  0
 14 15  2  0  0  0  0
 16 15  1  0  0  0  0
 16 17  1  0  0  0  0
 18 16  2  0  0  0  0
 19 13  2  0  0  0  0
 19 18  1  0  0  0  0
 20 21  1  0  0  0  0
 22 20  1  0  0  0  0
 23  1  1  0  0  0  0
 24 23  1  0  0  0  0
M  END
>  <minimizedAffinity>
-5.17848396

$$$$

 OpenBabel03272506353D

 24 26  0  0  0  0  0  0  0  0999 V2000
   39.7510   22.7040   37.2780 C   0  0  0  0  0  0  0  0  0  0  0  0
   38.8320   23.3960   38.0780 C   0  0  0  0  0  0  0  0  0  0  0  0
   38.0590   24.4060   37.5090 C   0  0  0  0  0  0  0  0  0  0  0  0
   38.2340   24.6750   36.1890 N   0  0  0  0  0  0  0  0  0  0  0  0
   39.1350   23.9880   35.4290 C   0  0  0  0  0  0  0  0  0  0  0  0
   39.8750   23.0240   35.9650 N   0  0  0  0  0  0  0  0  0  0  0  0
   38.6780   23.1930   39.1400 H   0  0  0  0  0  0  0  0  0  0  0  0
   37.3380   24.9720   38.0720 H   0  0  0  0  0  0  0  0  0  0  0  0
   39.3280   24.2600   34.0460 N   0  0  0  0  0  0  0  0  0  0  0  0
   40.4900   23.9970   33.3840 C   0  0  0  0  0  0  0  0  0  0  0  0
   41.4180   23.5620   33.7650 H   0  0  0  0  0  0  0  0  0  0  0  0
   40.4010   24.3550   32.0710 N   0  0  0  0  0  0  0  0  0  0  0  0
   39.1530   24.8590   31.8890 C   0  0  0  0  0  0  0  0  0  0  0  0
   38.4140   25.3920   30.8360 C   0  0  0  0  0  0  0  0  0  0  0  0
   37.1670   25.7970   31.0500 N   0  0  0  0  0  0  0  0  0  0  0  0
   36.5800   25.7110   32.2660 C   0  0  0  0  0  0  0  0  0  0  0  0
   35.5530   26.0550   32.4000 H   0  0  0  0  0  0  0  0  0  0  0  0
   37.2320   25.2030   33.3490 N   0  0  0  0  0  0  0  0  0  0  0  0
   38.5000   24.7940   33.1170 C   0  0  0  0  0  0  0  0  0  0  0  0
   39.0260   25.4780   29.5790 N   0  0  0  0  0  0  0  0  0  0  0  0
   38.4820   25.7130   28.7120 H   0  0  0  0  0  0  0  0  0  0  0  0
   40.0380   25.3200   29.4200 H   0  0  0  0  0  0  0  0  0  0  0  0
   40.4430   21.7350   37.9780 O   0  0  0  0  0  0  0  0  0  0  0  0
   41.1840   21.1690   37.5940 H   0  0  0  0  0  0  0  0  0  0  0  0
  1 23  1  0  0  0  0
  1  2  1  0  0  0  0
  2  7  1  0  0  0  0
  3  8  1  0  0  0  0
  3  2  2  0  0  0  0
  4  3  1  0  0  0  0
  5  6  1  0  0  0  0
  5  4  2  0  0  0  0
  6  1  2  0  0  0  0
  9  5  1  0  0  0  0
 10 11  1  0  0  0  0
 10  9  1  0  0  0  0
 12 10  2  0  0  0  0
 13 12  1  0  0  0  0
 13 19  1  0  0  0  0
 14 15  1  0  0  0  0
 14 13  2  0  0  0  0
 15 16  2  0  0  0  0
 16 17  1  0  0  0  0
 16 18  1  0  0  0  0
 19 18  2  0  0  0  0
 19  9  1  0  0  0  0
 20 14  1  0  0  0  0
 21 20  1  0  0  0  0
 22 20  1  0  0  0  0
 24 23  1  0  0  0  0
M  END
>  <minimizedAffinity>
-5.01465225

$$$$

 OpenBabel03272506353D

 24 26  0  0  0  0  0  0  0  0999 V2000
   38.2790   23.1250   35.8580 C   0  0  0  0  0  0  0  0  0  0  0  0
   38.3390   23.9380   36.9980 C   0  0  0  0  0  0  0  0  0  0  0  0
   38.2160   25.3190   36.8560 C   0  0  0  0  0  0  0  0  0  0  0  0
   38.0410   25.8180   35.6050 N   0  0  0  0  0  0  0  0  0  0  0  0
   37.9860   25.0070   34.5100 C   0  0  0  0  0  0  0  0  0  0  0  0
   38.1020   23.6900   34.6370 N   0  0  0  0  0  0  0  0  0  0  0  0
   38.4790   23.5550   38.0110 H   0  0  0  0  0  0  0  0  0  0  0  0
   38.2550   25.9940   37.6930 H   0  0  0  0  0  0  0  0  0  0  0  0
   37.8030   25.5170   33.1930 N   0  0  0  0  0  0  0  0  0  0  0  0
   38.2270   24.8690   32.0720 C   0  0  0  0  0  0  0  0  0  0  0  0
   38.7470   23.9110   31.9830 H   0  0  0  0  0  0  0  0  0  0  0  0
   37.9230   25.5800   30.9480 N   0  0  0  0  0  0  0  0  0  0  0  0
   37.2890   26.7080   31.3610 C   0  0  0  0  0  0  0  0  0  0  0  0
   36.7260   27.8350   30.7670 C   0  0  0  0  0  0  0  0  0  0  0  0
   36.1720   28.7700   31.5310 N   0  0  0  0  0  0  0  0  0  0  0  0
   36.1340   28.6690   32.8790 C   0  0  0  0  0  0  0  0  0  0  0  0
   35.6680   29.4600   33.4710 H   0  0  0  0  0  0  0  0  0  0  0  0
   36.6610   27.6010   33.5400 N   0  0  0  0  0  0  0  0  0  0  0  0
   37.2210   26.6560   32.7510 C   0  0  0  0  0  0  0  0  0  0  0  0
   36.7690   27.9330   29.3710 N   0  0  0  0  0  0  0  0  0  0  0  0
   36.2250   28.6660   28.8490 H   0  0  0  0  0  0  0  0  0  0  0  0
   37.3290   27.3050   28.7660 H   0  0  0  0  0  0  0  0  0  0  0  0
   38.4150   21.7830   36.1540 O   0  0  0  0  0  0  0  0  0  0  0  0
   38.4540   21.0450   35.4680 H   0  0  0  0  0  0  0  0  0  0  0  0
  1 23  1  0  0  0  0
  1  2  1  0  0  0  0
  2  7  1  0  0  0  0
  3  2  2  0  0  0  0
  3  8  1  0  0  0  0
  4  3  1  0  0  0  0
  5  6  1  0  0  0  0
  5  4  2  0  0  0  0
  6  1  2  0  0  0  0
  9  5  1  0  0  0  0
 10  9  1  0  0  0  0
 11 10  1  0  0  0  0
 12 13  1  0  0  0  0
 12 10  2  0  0  0  0
 13 19  1  0  0  0  0
 14 13  2  0  0  0  0
 14 15  1  0  0  0  0
 15 16  2  0  0  0  0
 16 17  1  0  0  0  0
 16 18  1  0  0  0  0
 19  9  1  0  0  0  0
 19 18  2  0  0  0  0
 20 14  1  0  0  0  0
 21 20  1  0  0  0  0
 22 20  1  0  0  0  0
 24 23  1  0  0  0  0
M  END
>  <minimizedAffinity>
-5.00882578

$$$$

 OpenBabel03272506353D

 24 26  0  0  0  0  0  0  0  0999 V2000
   35.1910   19.4680   32.1280 C   0  0  0  0  0  0  0  0  0  0  0  0
   35.6990   20.0660   30.9670 C   0  0  0  0  0  0  0  0  0  0  0  0
   36.5680   21.1500   31.0850 C   0  0  0  0  0  0  0  0  0  0  0  0
   36.8850   21.5800   32.3340 N   0  0  0  0  0  0  0  0  0  0  0  0
   36.3780   20.9810   33.4490 C   0  0  0  0  0  0  0  0  0  0  0  0
   35.5490   19.9480   33.3450 N   0  0  0  0  0  0  0  0  0  0  0  0
   35.4560   19.7350   29.9560 H   0  0  0  0  0  0  0  0  0  0  0  0
   36.9900   21.6510   30.2310 H   0  0  0  0  0  0  0  0  0  0  0  0
   36.7020   21.4220   34.7640 N   0  0  0  0  0  0  0  0  0  0  0  0
   35.8920   21.2280   35.8410 C   0  0  0  0  0  0  0  0  0  0  0  0
   34.9160   20.7360   35.8920 H   0  0  0  0  0  0  0  0  0  0  0  0
   36.4450   21.7480   36.9740 N   0  0  0  0  0  0  0  0  0  0  0  0
   37.6380   22.2870   36.6110 C   0  0  0  0  0  0  0  0  0  0  0  0
   38.6850   22.9570   37.2390 C   0  0  0  0  0  0  0  0  0  0  0  0
   39.7340   23.3490   36.5240 N   0  0  0  0  0  0  0  0  0  0  0  0
   39.8250   23.1190   35.1940 C   0  0  0  0  0  0  0  0  0  0  0  0
   40.7050   23.4570   34.6420 H   0  0  0  0  0  0  0  0  0  0  0  0
   38.8460   22.4710   34.5030 N   0  0  0  0  0  0  0  0  0  0  0  0
   37.7850   22.0780   35.2430 C   0  0  0  0  0  0  0  0  0  0  0  0
   38.5850   23.1920   38.6160 N   0  0  0  0  0  0  0  0  0  0  0  0
   39.4000   23.5400   39.1800 H   0  0  0  0  0  0  0  0  0  0  0  0
   37.7190   23.0420   39.1640 H   0  0  0  0  0  0  0  0  0  0  0  0
   34.3460   18.4100   31.8550 O   0  0  0  0  0  0  0  0  0  0  0  0
   33.8380   17.8860   32.5510 H   0  0  0  0  0  0  0  0  0  0  0  0
  1  6  1  0  0  0  0
  2  3  1  0  0  0  0
  2  1  2  0  0  0  0
  3  4  2  0  0  0  0
  4  5  1  0  0  0  0
  5  9  1  0  0  0  0
  6  5  2  0  0  0  0
  7  2  1  0  0  0  0
  8  3  1  0  0  0  0
  9 19  1  0  0  0  0
  9 10  1  0  0  0  0
 10 11  1  0  0  0  0
 10 12  2  0  0  0  0
 13 12  1  0  0  0  0
 13 14  1  0  0  0  0
 14 20  1  0  0  0  0
 15 14  2  0  0  0  0
 16 15  1  0  0  0  0
 17 16  1  0  0  0  0
 18 16  2  0  0  0  0
 18 19  1  0  0  0  0
 19 13  2  0  0  0  0
 20 22  1  0  0  0  0
 20 21  1  0  0  0  0
 23  1  1  0  0  0  0
 23 24  1  0  0  0  0
M  END
>  <minimizedAffinity>
-4.91501808

$$$$

 OpenBabel03272506353D

 24 26  0  0  0  0  0  0  0  0999 V2000
   36.8010   27.9960   30.2170 C   0  0  0  0  0  0  0  0  0  0  0  0
   36.2570   29.0870   30.9080 C   0  0  0  0  0  0  0  0  0  0  0  0
   36.0780   28.9990   32.2870 C   0  0  0  0  0  0  0  0  0  0  0  0
   36.4450   27.8450   32.9050 N   0  0  0  0  0  0  0  0  0  0  0  0
   36.9720   26.7960   32.2110 C   0  0  0  0  0  0  0  0  0  0  0  0
   37.1450   26.8730   30.8960 N   0  0  0  0  0  0  0  0  0  0  0  0
   35.9570   30.0210   30.4290 H   0  0  0  0  0  0  0  0  0  0  0  0
   35.6650   29.8020   32.8720 H   0  0  0  0  0  0  0  0  0  0  0  0
   37.3600   25.5820   32.8460 N   0  0  0  0  0  0  0  0  0  0  0  0
   37.4060   24.3810   32.2040 C   0  0  0  0  0  0  0  0  0  0  0  0
   37.1710   24.1450   31.1620 H   0  0  0  0  0  0  0  0  0  0  0  0
   37.8090   23.3870   33.0470 N   0  0  0  0  0  0  0  0  0  0  0  0
   38.0270   23.9670   34.2550 C   0  0  0  0  0  0  0  0  0  0  0  0
   38.4380   23.5580   35.5220 C   0  0  0  0  0  0  0  0  0  0  0  0
   38.5360   24.4520   36.4990 N   0  0  0  0  0  0  0  0  0  0  0  0
   38.2500   25.7610   36.3090 C   0  0  0  0  0  0  0  0  0  0  0  0
   38.3440   26.4650   37.1390 H   0  0  0  0  0  0  0  0  0  0  0  0
   37.8410   26.2440   35.1030 N   0  0  0  0  0  0  0  0  0  0  0  0
   37.7460   25.3240   34.1180 C   0  0  0  0  0  0  0  0  0  0  0  0
   38.7330   22.2020   35.7120 N   0  0  0  0  0  0  0  0  0  0  0  0
   39.2010   21.8530   36.5850 H   0  0  0  0  0  0  0  0  0  0  0  0
   38.5150   21.4630   35.0190 H   0  0  0  0  0  0  0  0  0  0  0  0
   36.9180   28.2290   28.8610 O   0  0  0  0  0  0  0  0  0  0  0  0
   37.2340   27.5500   28.1870 H   0  0  0  0  0  0  0  0  0  0  0  0
  1  6  2  0  0  0  0
  1  2  1  0  0  0  0
  2  3  2  0  0  0  0
  3  8  1  0  0  0  0
  3  4  1  0  0  0  0
  5  9  1  0  0  0  0
  5  4  2  0  0  0  0
  6  5  1  0  0  0  0
  7  2  1  0  0  0  0
  9 19  1  0  0  0  0
 10  9  1  0  0  0  0
 10 12  2  0  0  0  0
 11 10  1  0  0  0  0
 12 13  1  0  0  0  0
 13 14  1  0  0  0  0
 14 20  1  0  0  0  0
 14 15  2  0  0  0  0
 16 15  1  0  0  0  0
 16 17  1  0  0  0  0
 18 16  2  0  0  0  0
 19 13  2  0  0  0  0
 19 18  1  0  0  0  0
 20 21  1  0  0  0  0
 22 20  1  0  0  0  0
 23  1  1  0  0  0  0
 24 23  1  0  0  0  0
M  END
>  <minimizedAffinity>
-4.86708879

$$$$

 OpenBabel03272506353D

 24 26  0  0  0  0  0  0  0  0999 V2000
   42.1540   21.0210   37.3320 C   0  0  0  0  0  0  0  0  0  0  0  0
   43.2660   21.0570   36.4810 C   0  0  0  0  0  0  0  0  0  0  0  0
   43.2850   21.9650   35.4240 C   0  0  0  0  0  0  0  0  0  0  0  0
   42.2120   22.7830   35.2680 N   0  0  0  0  0  0  0  0  0  0  0  0
   41.1400   22.7300   36.1090 C   0  0  0  0  0  0  0  0  0  0  0  0
   41.1150   21.8670   37.1190 N   0  0  0  0  0  0  0  0  0  0  0  0
   44.1370   20.4070   36.5910 H   0  0  0  0  0  0  0  0  0  0  0  0
   44.1090   22.0390   34.7370 H   0  0  0  0  0  0  0  0  0  0  0  0
   40.0090   23.5810   35.9570 N   0  0  0  0  0  0  0  0  0  0  0  0
   38.7630   23.2610   36.4040 C   0  0  0  0  0  0  0  0  0  0  0  0
   38.4260   22.3600   36.9230 H   0  0  0  0  0  0  0  0  0  0  0  0
   37.8690   24.2540   36.1270 N   0  0  0  0  0  0  0  0  0  0  0  0
   38.5620   25.2320   35.4880 C   0  0  0  0  0  0  0  0  0  0  0  0
   38.2870   26.4830   34.9410 C   0  0  0  0  0  0  0  0  0  0  0  0
   39.2650   27.1790   34.3720 N   0  0  0  0  0  0  0  0  0  0  0  0
   40.5340   26.7140   34.3040 C   0  0  0  0  0  0  0  0  0  0  0  0
   41.3100   27.3170   33.8280 H   0  0  0  0  0  0  0  0  0  0  0  0
   40.8880   25.5010   34.8140 N   0  0  0  0  0  0  0  0  0  0  0  0
   39.8830   24.8040   35.3890 C   0  0  0  0  0  0  0  0  0  0  0  0
   36.9720   26.9590   35.0150 N   0  0  0  0  0  0  0  0  0  0  0  0
   36.7260   27.9520   34.7740 H   0  0  0  0  0  0  0  0  0  0  0  0
   36.1650   26.3780   35.3060 H   0  0  0  0  0  0  0  0  0  0  0  0
   42.2770   20.0730   38.3300 O   0  0  0  0  0  0  0  0  0  0  0  0
   41.5630   19.8560   39.0070 H   0  0  0  0  0  0  0  0  0  0  0  0
  1 23  1  0  0  0  0
  2  7  1  0  0  0  0
  2  1  2  0  0  0  0
  3  2  1  0  0  0  0
  4  3  2  0  0  0  0
  4  5  1  0  0  0  0
  5  6  2  0  0  0  0
  6  1  1  0  0  0  0
  8  3  1  0  0  0  0
  9  5  1  0  0  0  0
  9 10  1  0  0  0  0
 10 11  1  0  0  0  0
 12 10  2  0  0  0  0
 13 12  1  0  0  0  0
 14 20  1  0  0  0  0
 14 13  2  0  0  0  0
 15 14  1  0  0  0  0
 16 15  2  0  0  0  0
 16 18  1  0  0  0  0
 17 16  1  0  0  0  0
 18 19  2  0  0  0  0
 19 13  1  0  0  0  0
 19  9  1  0  0  0  0
 20 22  1  0  0  0  0
 21 20  1  0  0  0  0
 23 24  1  0  0  0  0
M  END
>  <minimizedAffinity>
-4.83358097

$$$$

 OpenBabel03272506353D

 24 26  0  0  0  0  0  0  0  0999 V2000
   37.9600   25.6980   31.2680 C   0  0  0  0  0  0  0  0  0  0  0  0
   39.1610   25.5260   30.5680 C   0  0  0  0  0  0  0  0  0  0  0  0
   40.2730   25.0180   31.2360 C   0  0  0  0  0  0  0  0  0  0  0  0
   40.1370   24.7070   32.5520 N   0  0  0  0  0  0  0  0  0  0  0  0
   38.9580   24.8830   33.2140 C   0  0  0  0  0  0  0  0  0  0  0  0
   37.8940   25.3670   32.5820 N   0  0  0  0  0  0  0  0  0  0  0  0
   39.2880   25.7700   29.5110 H   0  0  0  0  0  0  0  0  0  0  0  0
   41.2210   24.8640   30.7530 H   0  0  0  0  0  0  0  0  0  0  0  0
   38.8030   24.5610   34.5920 N   0  0  0  0  0  0  0  0  0  0  0  0
   37.8780   25.1500   35.4000 C   0  0  0  0  0  0  0  0  0  0  0  0
   37.1400   25.9200   35.1590 H   0  0  0  0  0  0  0  0  0  0  0  0
   37.9470   24.6570   36.6700 N   0  0  0  0  0  0  0  0  0  0  0  0
   38.9400   23.7300   36.6730 C   0  0  0  0  0  0  0  0  0  0  0  0
   39.5280   22.8700   37.5970 C   0  0  0  0  0  0  0  0  0  0  0  0
   40.5200   22.0750   37.2140 N   0  0  0  0  0  0  0  0  0  0  0  0
   40.9880   22.0680   35.9440 C   0  0  0  0  0  0  0  0  0  0  0  0
   41.8050   21.3980   35.6690 H   0  0  0  0  0  0  0  0  0  0  0  0
   40.4700   22.8770   34.9790 N   0  0  0  0  0  0  0  0  0  0  0  0
   39.4600   23.6810   35.3820 C   0  0  0  0  0  0  0  0  0  0  0  0
   39.0390   22.8820   38.9100 N   0  0  0  0  0  0  0  0  0  0  0  0
   39.3180   22.1530   39.6130 H   0  0  0  0  0  0  0  0  0  0  0  0
   38.3820   23.5960   39.2730 H   0  0  0  0  0  0  0  0  0  0  0  0
   36.9500   26.2090   30.4770 O   0  0  0  0  0  0  0  0  0  0  0  0
   36.0300   26.4540   30.8080 H   0  0  0  0  0  0  0  0  0  0  0  0
  1  6  1  0  0  0  0
  2  3  1  0  0  0  0
  2  1  2  0  0  0  0
  3  4  2  0  0  0  0
  4  5  1  0  0  0  0
  5  9  1  0  0  0  0
  6  5  2  0  0  0  0
  7  2  1  0  0  0  0
  8  3  1  0  0  0  0
  9 19  1  0  0  0  0
  9 10  1  0  0  0  0
 10 12  2  0  0  0  0
 11 10  1  0  0  0  0
 12 13  1  0  0  0  0
 13 14  1  0  0  0  0
 14 20  1  0  0  0  0
 15 14  2  0  0  0  0
 16 15  1  0  0  0  0
 17 16  1  0  0  0  0
 18 19  1  0  0  0  0
 18 16  2  0  0  0  0
 19 13  2  0  0  0  0
 20 22  1  0  0  0  0
 20 21  1  0  0  0  0
 23 24  1  0  0  0  0
 23  1  1  0  0  0  0
M  END
>  <minimizedAffinity>
-4.81768608

$$$$

 OpenBabel03272506353D

 24 26  0  0  0  0  0  0  0  0999 V2000
   36.4530   28.1040   32.1380 C   0  0  0  0  0  0  0  0  0  0  0  0
   36.8790   27.6130   30.8960 C   0  0  0  0  0  0  0  0  0  0  0  0
   37.6450   26.4500   30.8500 C   0  0  0  0  0  0  0  0  0  0  0  0
   37.9440   25.8370   32.0260 N   0  0  0  0  0  0  0  0  0  0  0  0
   37.5180   26.3330   33.2230 C   0  0  0  0  0  0  0  0  0  0  0  0
   36.7880   27.4420   33.2740 N   0  0  0  0  0  0  0  0  0  0  0  0
   36.6490   28.0920   29.9420 H   0  0  0  0  0  0  0  0  0  0  0  0
   38.0010   26.0250   29.9290 H   0  0  0  0  0  0  0  0  0  0  0  0
   37.8250   25.7010   34.4610 N   0  0  0  0  0  0  0  0  0  0  0  0
   37.8770   26.3650   35.6490 C   0  0  0  0  0  0  0  0  0  0  0  0
   37.7070   27.4260   35.8560 H   0  0  0  0  0  0  0  0  0  0  0  0
   38.1920   25.5200   36.6730 N   0  0  0  0  0  0  0  0  0  0  0  0
   38.3440   24.2860   36.1250 C   0  0  0  0  0  0  0  0  0  0  0  0
   38.6550   23.0050   36.5720 C   0  0  0  0  0  0  0  0  0  0  0  0
   38.7150   22.0030   35.7020 N   0  0  0  0  0  0  0  0  0  0  0  0
   38.4820   22.1820   34.3810 C   0  0  0  0  0  0  0  0  0  0  0  0
   38.5400   21.3320   33.6980 H   0  0  0  0  0  0  0  0  0  0  0  0
   38.1710   23.4020   33.8610 N   0  0  0  0  0  0  0  0  0  0  0  0
   38.1140   24.4120   34.7570 C   0  0  0  0  0  0  0  0  0  0  0  0
   38.8950   22.8260   37.9410 N   0  0  0  0  0  0  0  0  0  0  0  0
   38.9720   21.8710   38.3700 H   0  0  0  0  0  0  0  0  0  0  0  0
   39.0110   23.6070   38.6120 H   0  0  0  0  0  0  0  0  0  0  0  0
   35.7070   29.2610   32.0260 O   0  0  0  0  0  0  0  0  0  0  0  0
   35.3570   29.7960   32.8050 H   0  0  0  0  0  0  0  0  0  0  0  0
  1  6  1  0  0  0  0
  2  1  2  0  0  0  0
  3  2  1  0  0  0  0
  3  4  2  0  0  0  0
  4  5  1  0  0  0  0
  5  6  2  0  0  0  0
  5  9  1  0  0  0  0
  7  2  1  0  0  0  0
  8  3  1  0  0  0  0
  9 19  1  0  0  0  0
  9 10  1  0  0  0  0
 10 11  1  0  0  0  0
 10 12  2  0  0  0  0
 13 14  1  0  0  0  0
 13 12  1  0  0  0  0
 14 20  1  0  0  0  0
 15 14  2  0  0  0  0
 16 15  1  0  0  0  0
 17 16  1  0  0  0  0
 18 16  2  0  0  0  0
 18 19  1  0  0  0  0
 19 13  2  0  0  0  0
 20 21  1  0  0  0  0
 20 22  1  0  0  0  0
 23  1  1  0  0  0  0
 23 24  1  0  0  0  0
M  END
>  <minimizedAffinity>
-4.71875858

$$$$

 OpenBabel03272506353D

 24 26  0  0  0  0  0  0  0  0999 V2000
   35.1150   20.1050   31.9810 C   0  0  0  0  0  0  0  0  0  0  0  0
   36.3210   19.4200   32.1780 C   0  0  0  0  0  0  0  0  0  0  0  0
   37.5090   20.1440   32.2600 C   0  0  0  0  0  0  0  0  0  0  0  0
   37.4400   21.4960   32.1450 N   0  0  0  0  0  0  0  0  0  0  0  0
   36.2540   22.1410   31.9540 C   0  0  0  0  0  0  0  0  0  0  0  0
   35.1180   21.4570   31.8750 N   0  0  0  0  0  0  0  0  0  0  0  0
   36.3960   18.3350   32.2720 H   0  0  0  0  0  0  0  0  0  0  0  0
   38.4660   19.6750   32.4090 H   0  0  0  0  0  0  0  0  0  0  0  0
   36.1680   23.5570   31.8320 N   0  0  0  0  0  0  0  0  0  0  0  0
   35.1630   24.1930   31.1670 C   0  0  0  0  0  0  0  0  0  0  0  0
   34.3030   23.7670   30.6440 H   0  0  0  0  0  0  0  0  0  0  0  0
   35.3270   25.5470   31.2060 N   0  0  0  0  0  0  0  0  0  0  0  0
   36.4630   25.7810   31.9130 C   0  0  0  0  0  0  0  0  0  0  0  0
   37.1970   26.8910   32.3230 C   0  0  0  0  0  0  0  0  0  0  0  0
   38.3070   26.7180   33.0310 N   0  0  0  0  0  0  0  0  0  0  0  0
   38.7570   25.4900   33.3750 C   0  0  0  0  0  0  0  0  0  0  0  0
   39.6750   25.3900   33.9590 H   0  0  0  0  0  0  0  0  0  0  0  0
   38.1010   24.3520   33.0140 N   0  0  0  0  0  0  0  0  0  0  0  0
   36.9730   24.5430   32.2940 C   0  0  0  0  0  0  0  0  0  0  0  0
   36.7250   28.1610   31.9640 N   0  0  0  0  0  0  0  0  0  0  0  0
   37.1300   29.0390   32.3730 H   0  0  0  0  0  0  0  0  0  0  0  0
   35.9590   28.3190   31.2840 H   0  0  0  0  0  0  0  0  0  0  0  0
   34.0260   19.2570   31.9200 O   0  0  0  0  0  0  0  0  0  0  0  0
   33.0800   19.5510   31.7300 H   0  0  0  0  0  0  0  0  0  0  0  0
  1  2  1  0  0  0  0
  2  3  2  0  0  0  0
  2  7  1  0  0  0  0
  3  8  1  0  0  0  0
  4  3  1  0  0  0  0
  5  4  2  0  0  0  0
  6  5  1  0  0  0  0
  6  1  2  0  0  0  0
  9  5  1  0  0  0  0
  9 19  1  0  0  0  0
 10 12  2  0  0  0  0
 10  9  1  0  0  0  0
 11 10  1  0  0  0  0
 12 13  1  0  0  0  0
 13 19  2  0  0  0  0
 13 14  1  0  0  0  0
 14 15  2  0  0  0  0
 15 16  1  0  0  0  0
 16 17  1  0  0  0  0
 18 16  2  0  0  0  0
 19 18  1  0  0  0  0
 20 14  1  0  0  0  0
 20 21  1  0  0  0  0
 22 20  1  0  0  0  0
 23  1  1  0  0  0  0
 24 23  1  0  0  0  0
M  END
>  <minimizedAffinity>
-4.67600584

$$$$
