
 OpenBabel03272502033D

 47 52  0  0  0  0  0  0  0  0999 V2000
   36.9990   29.1550   30.4790 C   0  0  0  0  0  0  0  0  0  0  0  0
   38.0760   28.9220   30.6960 H   0  0  0  0  0  0  0  0  0  0  0  0
   36.9400   29.2360   29.3830 H   0  0  0  0  0  0  0  0  0  0  0  0
   36.8220   32.7580   31.3010 C   0  0  0  0  0  0  0  0  0  0  0  0
   36.1650   32.7460   32.5570 C   0  0  0  0  0  0  0  0  0  0  0  0
   35.7950   31.4880   33.0980 C   0  0  0  0  0  0  0  0  0  0  0  0
   36.0930   30.3880   32.3810 N   0  0  0  0  0  0  0  0  0  0  0  0
   36.7220   30.4420   31.1820 C   0  0  0  0  0  0  0  0  0  0  0  0
   37.0720   31.6040   30.6660 N   0  0  0  0  0  0  0  0  0  0  0  0
   37.1060   33.7300   30.8860 H   0  0  0  0  0  0  0  0  0  0  0  0
   35.9400   33.6450   33.1090 H   0  0  0  0  0  0  0  0  0  0  0  0
   35.1340   31.4240   34.3570 N   0  0  0  0  0  0  0  0  0  0  0  0
   35.4680   31.9820   35.5480 C   0  0  0  0  0  0  0  0  0  0  0  0
   36.3490   32.5930   35.7000 H   0  0  0  0  0  0  0  0  0  0  0  0
   34.5180   31.6330   36.4630 N   0  0  0  0  0  0  0  0  0  0  0  0
   33.6080   30.8630   35.8290 C   0  0  0  0  0  0  0  0  0  0  0  0
   32.4460   30.2290   36.2230 C   0  0  0  0  0  0  0  0  0  0  0  0
   31.7090   29.5000   35.3420 N   0  0  0  0  0  0  0  0  0  0  0  0
   32.0880   29.3740   34.0530 C   0  0  0  0  0  0  0  0  0  0  0  0
   31.5510   28.8110   33.3010 H   0  0  0  0  0  0  0  0  0  0  0  0
   33.2220   29.9990   33.6880 N   0  0  0  0  0  0  0  0  0  0  0  0
   33.9870   30.7310   34.5170 C   0  0  0  0  0  0  0  0  0  0  0  0
   31.9990   30.3280   37.5720 N   0  0  0  0  0  0  0  0  0  0  0  0
   32.4880   29.5750   38.1110 H   0  0  0  0  0  0  0  0  0  0  0  0
   31.4040   30.8170   38.2570 H   0  0  0  0  0  0  0  0  0  0  0  0
   36.0890   28.0650   31.0240 C   0  0  0  0  0  0  0  0  0  0  0  0
   35.6040   27.5390   30.1840 H   0  0  0  0  0  0  0  0  0  0  0  0
   35.4130   28.4650   31.7810 H   0  0  0  0  0  0  0  0  0  0  0  0
   37.0050   27.0690   31.6860 C   0  0  0  0  0  0  0  0  0  0  0  0
   38.0200   26.3500   31.0760 C   0  0  0  0  0  0  0  0  0  0  0  0
   38.6230   25.5450   32.0290 C   0  0  0  0  0  0  0  0  0  0  0  0
   37.9610   25.7970   33.1800 N   0  0  0  0  0  0  0  0  0  0  0  0
   37.0190   26.6890   32.9620 N   0  0  0  0  0  0  0  0  0  0  0  0
   39.4040   24.2640   34.5430 N   0  0  0  0  0  0  0  0  0  0  0  0
   38.3640   25.1010   34.3580 C   0  0  0  0  0  0  0  0  0  0  0  0
   37.7100   25.1910   35.5520 N   0  0  0  0  0  0  0  0  0  0  0  0
   38.3280   24.4270   36.4580 C   0  0  0  0  0  0  0  0  0  0  0  0
   38.0440   24.1970   37.7810 C   0  0  0  0  0  0  0  0  0  0  0  0
   38.8380   23.3680   38.4880 N   0  0  0  0  0  0  0  0  0  0  0  0
   39.8980   22.7830   37.8720 C   0  0  0  0  0  0  0  0  0  0  0  0
   40.1840   23.0060   36.5660 N   0  0  0  0  0  0  0  0  0  0  0  0
   39.4100   23.8270   35.8370 C   0  0  0  0  0  0  0  0  0  0  0  0
   38.2460   26.4540   30.0290 H   0  0  0  0  0  0  0  0  0  0  0  0
   39.4480   24.9000   31.7480 H   0  0  0  0  0  0  0  0  0  0  0  0
   40.0950   23.9920   33.8170 H   0  0  0  0  0  0  0  0  0  0  0  0
   37.1930   24.6780   38.2410 H   0  0  0  0  0  0  0  0  0  0  0  0
   40.5600   22.1130   38.4010 H   0  0  0  0  0  0  0  0  0  0  0  0
  1  2  1  0  0  0  0
  1 26  1  0  0  0  0
  1  8  1  0  0  0  0
  3  1  1  0  0  0  0
  4  5  1  0  0  0  0
  5  6  2  0  0  0  0
  5 11  1  0  0  0  0
  6 12  1  0  0  0  0
  7  6  1  0  0  0  0
  8  7  2  0  0  0  0
  9  8  1  0  0  0  0
  9  4  2  0  0  0  0
 10  4  1  0  0  0  0
 12 22  1  0  0  0  0
 12 13  1  0  0  0  0
 13 14  1  0  0  0  0
 13 15  2  0  0  0  0
 16 17  1  0  0  0  0
 16 15  1  0  0  0  0
 17 23  1  0  0  0  0
 18 17  2  0  0  0  0
 19 18  1  0  0  0  0
 20 19  1  0  0  0  0
 21 19  2  0  0  0  0
 21 22  1  0  0  0  0
 22 16  2  0  0  0  0
 23 24  1  0  0  0  0
 23 25  1  0  0  0  0
 26 29  1  0  0  0  0
 26 28  1  0  0  0  0
 27 26  1  0  0  0  0
 29 33  2  0  0  0  0
 30 29  1  0  0  0  0
 30 31  2  0  0  0  0
 31 32  1  0  0  0  0
 32 35  1  0  0  0  0
 33 32  1  0  0  0  0
 34 42  1  0  0  0  0
 35 34  1  0  0  0  0
 35 36  2  0  0  0  0
 36 37  1  0  0  0  0
 37 38  1  0  0  0  0
 38 46  1  0  0  0  0
 38 39  2  0  0  0  0
 40 47  1  0  0  0  0
 40 39  1  0  0  0  0
 41 40  2  0  0  0  0
 42 37  2  0  0  0  0
 42 41  1  0  0  0  0
 43 30  1  0  0  0  0
 44 31  1  0  0  0  0
 45 34  1  0  0  0  0
M  END
>  <minimizedAffinity>
-6.94465733

$$$$

 OpenBabel03272502033D

 47 52  0  0  0  0  0  0  0  0999 V2000
   38.5480   26.5510   35.2820 C   0  0  0  0  0  0  0  0  0  0  0  0
   38.5300   27.6530   35.5000 H   0  0  0  0  0  0  0  0  0  0  0  0
   39.5950   26.2490   35.4300 H   0  0  0  0  0  0  0  0  0  0  0  0
   37.7080   27.3130   31.7610 C   0  0  0  0  0  0  0  0  0  0  0  0
   37.2210   26.0670   31.2930 C   0  0  0  0  0  0  0  0  0  0  0  0
   37.1920   24.9840   32.2080 C   0  0  0  0  0  0  0  0  0  0  0  0
   37.6290   25.2110   33.4610 N   0  0  0  0  0  0  0  0  0  0  0  0
   38.0880   26.4190   33.8680 C   0  0  0  0  0  0  0  0  0  0  0  0
   38.1220   27.4360   33.0300 N   0  0  0  0  0  0  0  0  0  0  0  0
   37.7300   28.1480   31.0530 H   0  0  0  0  0  0  0  0  0  0  0  0
   36.8770   25.9150   30.2830 H   0  0  0  0  0  0  0  0  0  0  0  0
   36.7100   23.7120   31.7850 N   0  0  0  0  0  0  0  0  0  0  0  0
   35.5540   23.3810   31.1570 C   0  0  0  0  0  0  0  0  0  0  0  0
   34.7930   24.1000   30.8780 H   0  0  0  0  0  0  0  0  0  0  0  0
   35.5470   22.0310   30.9620 N   0  0  0  0  0  0  0  0  0  0  0  0
   36.6980   21.5410   31.4720 C   0  0  0  0  0  0  0  0  0  0  0  0
   37.2440   20.2760   31.5660 C   0  0  0  0  0  0  0  0  0  0  0  0
   38.4580   20.0760   32.1480 N   0  0  0  0  0  0  0  0  0  0  0  0
   39.1680   21.1080   32.6510 C   0  0  0  0  0  0  0  0  0  0  0  0
   40.1370   21.0210   33.1260 H   0  0  0  0  0  0  0  0  0  0  0  0
   38.6200   22.3320   32.5500 N   0  0  0  0  0  0  0  0  0  0  0  0
   37.4260   22.5850   31.9850 C   0  0  0  0  0  0  0  0  0  0  0  0
   36.5380   19.1520   31.0520 N   0  0  0  0  0  0  0  0  0  0  0  0
   35.8870   18.8300   31.8070 H   0  0  0  0  0  0  0  0  0  0  0  0
   36.3820   18.5100   30.2610 H   0  0  0  0  0  0  0  0  0  0  0  0
   37.5980   25.8010   36.2040 C   0  0  0  0  0  0  0  0  0  0  0  0
   36.7900   25.3470   35.6060 H   0  0  0  0  0  0  0  0  0  0  0  0
   37.2720   26.4370   37.0280 H   0  0  0  0  0  0  0  0  0  0  0  0
   38.4040   24.6630   36.7740 C   0  0  0  0  0  0  0  0  0  0  0  0
   38.1870   24.0250   37.9840 C   0  0  0  0  0  0  0  0  0  0  0  0
   39.1440   23.0350   38.1380 C   0  0  0  0  0  0  0  0  0  0  0  0
   39.9070   23.1010   37.0240 N   0  0  0  0  0  0  0  0  0  0  0  0
   39.4610   24.0570   36.2380 N   0  0  0  0  0  0  0  0  0  0  0  0
   41.3480   21.1600   37.6930 N   0  0  0  0  0  0  0  0  0  0  0  0
   40.9940   22.1870   36.8950 C   0  0  0  0  0  0  0  0  0  0  0  0
   41.8960   22.2220   35.8720 N   0  0  0  0  0  0  0  0  0  0  0  0
   42.7900   21.2400   36.0300 C   0  0  0  0  0  0  0  0  0  0  0  0
   43.8720   20.8810   35.2660 C   0  0  0  0  0  0  0  0  0  0  0  0
   44.6280   19.8330   35.6520 N   0  0  0  0  0  0  0  0  0  0  0  0
   44.2980   19.1620   36.7850 C   0  0  0  0  0  0  0  0  0  0  0  0
   43.2310   19.5120   37.5440 N   0  0  0  0  0  0  0  0  0  0  0  0
   42.4600   20.5520   37.1850 C   0  0  0  0  0  0  0  0  0  0  0  0
   37.3860   24.3070   38.6450 H   0  0  0  0  0  0  0  0  0  0  0  0
   39.1450   22.4170   39.0290 H   0  0  0  0  0  0  0  0  0  0  0  0
   40.8540   20.8740   38.5610 H   0  0  0  0  0  0  0  0  0  0  0  0
   44.1070   21.4370   34.3700 H   0  0  0  0  0  0  0  0  0  0  0  0
   44.8760   18.3170   37.1300 H   0  0  0  0  0  0  0  0  0  0  0  0
  1  3  1  0  0  0  0
  1  2  1  0  0  0  0
  1 26  1  0  0  0  0
  4  9  1  0  0  0  0
  5  4  2  0  0  0  0
  5  6  1  0  0  0  0
  6  7  2  0  0  0  0
  7  8  1  0  0  0  0
  8  1  1  0  0  0  0
  9  8  2  0  0  0  0
 10  4  1  0  0  0  0
 11  5  1  0  0  0  0
 12 22  1  0  0  0  0
 12  6  1  0  0  0  0
 13 12  1  0  0  0  0
 14 13  1  0  0  0  0
 15 13  2  0  0  0  0
 15 16  1  0  0  0  0
 16 17  2  0  0  0  0
 16 22  1  0  0  0  0
 17 18  1  0  0  0  0
 18 19  2  0  0  0  0
 19 20  1  0  0  0  0
 21 19  1  0  0  0  0
 22 21  2  0  0  0  0
 23 17  1  0  0  0  0
 23 24  1  0  0  0  0
 25 23  1  0  0  0  0
 26 29  1  0  0  0  0
 26 28  1  0  0  0  0
 27 26  1  0  0  0  0
 29 30  1  0  0  0  0
 30 31  2  0  0  0  0
 30 43  1  0  0  0  0
 31 44  1  0  0  0  0
 32 31  1  0  0  0  0
 33 29  2  0  0  0  0
 33 32  1  0  0  0  0
 34 45  1  0  0  0  0
 35 32  1  0  0  0  0
 35 34  1  0  0  0  0
 36 37  1  0  0  0  0
 36 35  2  0  0  0  0
 37 42  1  0  0  0  0
 38 39  1  0  0  0  0
 38 37  2  0  0  0  0
 39 40  2  0  0  0  0
 40 47  1  0  0  0  0
 40 41  1  0  0  0  0
 42 41  2  0  0  0  0
 42 34  1  0  0  0  0
 46 38  1  0  0  0  0
M  END
>  <minimizedAffinity>
-6.6728735

$$$$

 OpenBabel03272502033D

 47 52  0  0  0  0  0  0  0  0999 V2000
   36.2220   26.9210   31.2450 C   0  0  0  0  0  0  0  0  0  0  0  0
   36.1010   27.3880   32.2600 H   0  0  0  0  0  0  0  0  0  0  0  0
   35.2190   26.5580   30.9770 H   0  0  0  0  0  0  0  0  0  0  0  0
   38.9710   24.5170   30.6560 C   0  0  0  0  0  0  0  0  0  0  0  0
   39.0020   23.7930   31.8740 C   0  0  0  0  0  0  0  0  0  0  0  0
   38.0670   24.1510   32.8790 C   0  0  0  0  0  0  0  0  0  0  0  0
   37.2130   25.1560   32.6090 N   0  0  0  0  0  0  0  0  0  0  0  0
   37.2170   25.8240   31.4300 C   0  0  0  0  0  0  0  0  0  0  0  0
   38.0800   25.5030   30.4860 N   0  0  0  0  0  0  0  0  0  0  0  0
   39.6940   24.2390   29.8820 H   0  0  0  0  0  0  0  0  0  0  0  0
   39.6980   22.9910   32.0620 H   0  0  0  0  0  0  0  0  0  0  0  0
   38.0580   23.4520   34.1200 N   0  0  0  0  0  0  0  0  0  0  0  0
   38.0120   22.1200   34.3720 C   0  0  0  0  0  0  0  0  0  0  0  0
   37.9730   21.3630   33.5990 H   0  0  0  0  0  0  0  0  0  0  0  0
   38.0230   21.9420   35.7240 N   0  0  0  0  0  0  0  0  0  0  0  0
   38.0750   23.1640   36.2940 C   0  0  0  0  0  0  0  0  0  0  0  0
   38.1090   23.6140   37.6000 C   0  0  0  0  0  0  0  0  0  0  0  0
   38.1620   24.9440   37.8840 N   0  0  0  0  0  0  0  0  0  0  0  0
   38.1830   25.8670   36.9000 C   0  0  0  0  0  0  0  0  0  0  0  0
   38.2240   26.9370   37.0540 H   0  0  0  0  0  0  0  0  0  0  0  0
   38.1490   25.4100   35.6360 N   0  0  0  0  0  0  0  0  0  0  0  0
   38.0970   24.1090   35.2990 C   0  0  0  0  0  0  0  0  0  0  0  0
   38.0890   22.6840   38.6780 N   0  0  0  0  0  0  0  0  0  0  0  0
   37.0830   22.4660   38.8730 H   0  0  0  0  0  0  0  0  0  0  0  0
   38.6290   22.1250   39.3550 H   0  0  0  0  0  0  0  0  0  0  0  0
   36.7530   27.9340   30.2430 C   0  0  0  0  0  0  0  0  0  0  0  0
   36.1440   27.8940   29.3240 H   0  0  0  0  0  0  0  0  0  0  0  0
   37.8280   27.8140   30.1000 H   0  0  0  0  0  0  0  0  0  0  0  0
   36.5070   29.2840   30.8650 C   0  0  0  0  0  0  0  0  0  0  0  0
   36.6410   30.5150   30.2430 C   0  0  0  0  0  0  0  0  0  0  0  0
   36.3220   31.5070   31.1570 C   0  0  0  0  0  0  0  0  0  0  0  0
   36.0080   30.8530   32.2970 N   0  0  0  0  0  0  0  0  0  0  0  0
   36.1210   29.5560   32.1100 N   0  0  0  0  0  0  0  0  0  0  0  0
   35.4410   32.9540   33.5440 N   0  0  0  0  0  0  0  0  0  0  0  0
   35.6320   31.6250   33.4360 C   0  0  0  0  0  0  0  0  0  0  0  0
   35.3940   31.0900   34.6690 N   0  0  0  0  0  0  0  0  0  0  0  0
   35.0630   32.0640   35.5230 C   0  0  0  0  0  0  0  0  0  0  0  0
   34.7400   32.0170   36.8560 C   0  0  0  0  0  0  0  0  0  0  0  0
   34.4400   33.1640   37.4990 N   0  0  0  0  0  0  0  0  0  0  0  0
   34.4650   34.3340   36.8090 C   0  0  0  0  0  0  0  0  0  0  0  0
   34.7830   34.3870   35.4930 N   0  0  0  0  0  0  0  0  0  0  0  0
   35.0870   33.2610   34.8260 C   0  0  0  0  0  0  0  0  0  0  0  0
   36.9450   30.6070   29.2150 H   0  0  0  0  0  0  0  0  0  0  0  0
   36.3650   32.5490   30.8610 H   0  0  0  0  0  0  0  0  0  0  0  0
   35.5450   33.6430   32.7720 H   0  0  0  0  0  0  0  0  0  0  0  0
   34.7300   31.0700   37.3740 H   0  0  0  0  0  0  0  0  0  0  0  0
   34.2310   35.2750   37.2860 H   0  0  0  0  0  0  0  0  0  0  0  0
  1  8  1  0  0  0  0
  1  2  1  0  0  0  0
  3  1  1  0  0  0  0
  4  5  1  0  0  0  0
  5 11  1  0  0  0  0
  5  6  2  0  0  0  0
  6 12  1  0  0  0  0
  7  6  1  0  0  0  0
  8  7  2  0  0  0  0
  9  4  2  0  0  0  0
  9  8  1  0  0  0  0
 10  4  1  0  0  0  0
 12 13  1  0  0  0  0
 12 22  1  0  0  0  0
 13 15  2  0  0  0  0
 14 13  1  0  0  0  0
 15 16  1  0  0  0  0
 16 17  1  0  0  0  0
 17 18  2  0  0  0  0
 17 23  1  0  0  0  0
 19 20  1  0  0  0  0
 19 18  1  0  0  0  0
 21 19  2  0  0  0  0
 22 21  1  0  0  0  0
 22 16  2  0  0  0  0
 23 24  1  0  0  0  0
 23 25  1  0  0  0  0
 26 29  1  0  0  0  0
 26  1  1  0  0  0  0
 27 26  1  0  0  0  0
 28 26  1  0  0  0  0
 29 33  2  0  0  0  0
 30 29  1  0  0  0  0
 30 31  2  0  0  0  0
 31 32  1  0  0  0  0
 32 35  1  0  0  0  0
 33 32  1  0  0  0  0
 34 42  1  0  0  0  0
 35 34  1  0  0  0  0
 35 36  2  0  0  0  0
 36 37  1  0  0  0  0
 37 38  1  0  0  0  0
 38 46  1  0  0  0  0
 38 39  2  0  0  0  0
 40 47  1  0  0  0  0
 40 39  1  0  0  0  0
 41 40  2  0  0  0  0
 42 41  1  0  0  0  0
 42 37  2  0  0  0  0
 43 30  1  0  0  0  0
 44 31  1  0  0  0  0
 45 34  1  0  0  0  0
M  END
>  <minimizedAffinity>
-6.63144875

$$$$

 OpenBabel03272502033D

 47 52  0  0  0  0  0  0  0  0999 V2000
   36.9590   28.5760   30.5810 C   0  0  0  0  0  0  0  0  0  0  0  0
   37.6930   28.7530   29.7480 H   0  0  0  0  0  0  0  0  0  0  0  0
   36.0850   28.1160   30.0960 H   0  0  0  0  0  0  0  0  0  0  0  0
   36.7640   32.2410   31.0400 C   0  0  0  0  0  0  0  0  0  0  0  0
   36.1070   32.3520   32.2910 C   0  0  0  0  0  0  0  0  0  0  0  0
   35.7430   31.1520   32.9540 C   0  0  0  0  0  0  0  0  0  0  0  0
   36.0460   29.9870   32.3500 N   0  0  0  0  0  0  0  0  0  0  0  0
   36.6760   29.9260   31.1520 C   0  0  0  0  0  0  0  0  0  0  0  0
   37.0200   31.0320   30.5230 N   0  0  0  0  0  0  0  0  0  0  0  0
   37.0440   33.1690   30.5300 H   0  0  0  0  0  0  0  0  0  0  0  0
   35.8770   33.3000   32.7510 H   0  0  0  0  0  0  0  0  0  0  0  0
   35.0810   31.2100   34.2140 N   0  0  0  0  0  0  0  0  0  0  0  0
   35.4120   31.8850   35.3430 C   0  0  0  0  0  0  0  0  0  0  0  0
   36.2900   32.5130   35.4340 H   0  0  0  0  0  0  0  0  0  0  0  0
   34.4630   31.6240   36.2880 N   0  0  0  0  0  0  0  0  0  0  0  0
   33.5570   30.7910   35.7340 C   0  0  0  0  0  0  0  0  0  0  0  0
   32.3980   30.1930   36.1890 C   0  0  0  0  0  0  0  0  0  0  0  0
   31.6650   29.3770   35.3850 N   0  0  0  0  0  0  0  0  0  0  0  0
   32.0460   29.1250   34.1150 C   0  0  0  0  0  0  0  0  0  0  0  0
   31.5120   28.4870   33.4220 H   0  0  0  0  0  0  0  0  0  0  0  0
   33.1760   29.7160   33.6890 N   0  0  0  0  0  0  0  0  0  0  0  0
   33.9370   30.5310   34.4420 C   0  0  0  0  0  0  0  0  0  0  0  0
   31.9500   30.4240   37.5210 N   0  0  0  0  0  0  0  0  0  0  0  0
   32.4420   29.7310   38.1330 H   0  0  0  0  0  0  0  0  0  0  0  0
   31.3520   30.9750   38.1540 H   0  0  0  0  0  0  0  0  0  0  0  0
   37.5610   27.6800   31.6510 C   0  0  0  0  0  0  0  0  0  0  0  0
   37.2680   28.0520   32.6480 H   0  0  0  0  0  0  0  0  0  0  0  0
   38.6330   27.5510   31.4950 H   0  0  0  0  0  0  0  0  0  0  0  0
   36.8930   26.3400   31.4790 C   0  0  0  0  0  0  0  0  0  0  0  0
   35.5590   26.1160   31.1820 C   0  0  0  0  0  0  0  0  0  0  0  0
   35.3470   24.7490   31.1090 C   0  0  0  0  0  0  0  0  0  0  0  0
   36.5510   24.1880   31.3610 N   0  0  0  0  0  0  0  0  0  0  0  0
   37.4430   25.1310   31.5750 N   0  0  0  0  0  0  0  0  0  0  0  0
   35.7160   21.8460   31.0340 N   0  0  0  0  0  0  0  0  0  0  0  0
   36.6480   22.7650   31.3550 C   0  0  0  0  0  0  0  0  0  0  0  0
   37.7780   22.0820   31.6970 N   0  0  0  0  0  0  0  0  0  0  0  0
   37.5540   20.7670   31.5910 C   0  0  0  0  0  0  0  0  0  0  0  0
   38.3800   19.6960   31.8240 C   0  0  0  0  0  0  0  0  0  0  0  0
   37.9020   18.4480   31.6400 N   0  0  0  0  0  0  0  0  0  0  0  0
   36.6180   18.2860   31.2270 C   0  0  0  0  0  0  0  0  0  0  0  0
   35.7990   19.3400   30.9940 N   0  0  0  0  0  0  0  0  0  0  0  0
   36.2470   20.5950   31.1700 C   0  0  0  0  0  0  0  0  0  0  0  0
   34.8600   26.9230   31.0440 H   0  0  0  0  0  0  0  0  0  0  0  0
   34.3580   24.3660   30.8840 H   0  0  0  0  0  0  0  0  0  0  0  0
   34.7450   22.0530   30.7300 H   0  0  0  0  0  0  0  0  0  0  0  0
   39.3950   19.8600   32.1530 H   0  0  0  0  0  0  0  0  0  0  0  0
   36.1960   17.3050   31.0670 H   0  0  0  0  0  0  0  0  0  0  0  0
  1  8  1  0  0  0  0
  1 26  1  0  0  0  0
  2  1  1  0  0  0  0
  3  1  1  0  0  0  0
  4  5  1  0  0  0  0
  5 11  1  0  0  0  0
  5  6  2  0  0  0  0
  6 12  1  0  0  0  0
  7  6  1  0  0  0  0
  8  7  2  0  0  0  0
  9  4  2  0  0  0  0
  9  8  1  0  0  0  0
 10  4  1  0  0  0  0
 12 22  1  0  0  0  0
 12 13  1  0  0  0  0
 13 14  1  0  0  0  0
 13 15  2  0  0  0  0
 16 17  1  0  0  0  0
 16 15  1  0  0  0  0
 17 23  1  0  0  0  0
 18 17  2  0  0  0  0
 19 18  1  0  0  0  0
 20 19  1  0  0  0  0
 21 19  2  0  0  0  0
 21 22  1  0  0  0  0
 22 16  2  0  0  0  0
 23 24  1  0  0  0  0
 23 25  1  0  0  0  0
 26 27  1  0  0  0  0
 28 26  1  0  0  0  0
 29 33  2  0  0  0  0
 29 26  1  0  0  0  0
 30 29  1  0  0  0  0
 31 30  2  0  0  0  0
 31 32  1  0  0  0  0
 32 33  1  0  0  0  0
 34 42  1  0  0  0  0
 34 35  1  0  0  0  0
 35 32  1  0  0  0  0
 35 36  2  0  0  0  0
 37 36  1  0  0  0  0
 37 38  1  0  0  0  0
 38 46  1  0  0  0  0
 39 38  2  0  0  0  0
 40 39  1  0  0  0  0
 41 42  1  0  0  0  0
 41 40  2  0  0  0  0
 42 37  2  0  0  0  0
 43 30  1  0  0  0  0
 44 31  1  0  0  0  0
 45 34  1  0  0  0  0
 47 40  1  0  0  0  0
M  END
>  <minimizedAffinity>
-6.62110138

$$$$

 OpenBabel03272502033D

 47 52  0  0  0  0  0  0  0  0999 V2000
   35.7800   26.0690   31.0960 C   0  0  0  0  0  0  0  0  0  0  0  0
   35.1450   25.9390   32.0140 H   0  0  0  0  0  0  0  0  0  0  0  0
   35.1470   25.7290   30.2630 H   0  0  0  0  0  0  0  0  0  0  0  0
   38.9420   24.2230   30.5710 C   0  0  0  0  0  0  0  0  0  0  0  0
   39.1420   23.6060   31.8320 C   0  0  0  0  0  0  0  0  0  0  0  0
   38.1750   23.8420   32.8430 C   0  0  0  0  0  0  0  0  0  0  0  0
   37.1320   24.6360   32.5370 N   0  0  0  0  0  0  0  0  0  0  0  0
   36.9780   25.2070   31.3180 C   0  0  0  0  0  0  0  0  0  0  0  0
   37.8680   24.9980   30.3680 N   0  0  0  0  0  0  0  0  0  0  0  0
   39.6900   24.0400   29.7930 H   0  0  0  0  0  0  0  0  0  0  0  0
   39.9890   22.9750   32.0470 H   0  0  0  0  0  0  0  0  0  0  0  0
   38.3310   23.2440   34.1260 N   0  0  0  0  0  0  0  0  0  0  0  0
   38.5590   21.9500   34.4650 C   0  0  0  0  0  0  0  0  0  0  0  0
   38.6570   21.1480   33.7440 H   0  0  0  0  0  0  0  0  0  0  0  0
   38.6330   21.8730   35.8250 N   0  0  0  0  0  0  0  0  0  0  0  0
   38.4500   23.1190   36.3120 C   0  0  0  0  0  0  0  0  0  0  0  0
   38.4200   23.6580   37.5840 C   0  0  0  0  0  0  0  0  0  0  0  0
   38.2120   24.9880   37.7800 N   0  0  0  0  0  0  0  0  0  0  0  0
   38.0270   25.8250   36.7380 C   0  0  0  0  0  0  0  0  0  0  0  0
   37.8560   26.8910   36.8200 H   0  0  0  0  0  0  0  0  0  0  0  0
   38.0600   25.2830   35.5070 N   0  0  0  0  0  0  0  0  0  0  0  0
   38.2630   23.9770   35.2580 C   0  0  0  0  0  0  0  0  0  0  0  0
   38.6090   22.8200   38.7200 N   0  0  0  0  0  0  0  0  0  0  0  0
   37.6710   22.4210   38.9630 H   0  0  0  0  0  0  0  0  0  0  0  0
   39.2630   22.4290   39.4130 H   0  0  0  0  0  0  0  0  0  0  0  0
   36.2110   27.5180   30.9360 C   0  0  0  0  0  0  0  0  0  0  0  0
   35.6490   27.9780   30.1060 H   0  0  0  0  0  0  0  0  0  0  0  0
   37.2970   27.5960   30.8690 H   0  0  0  0  0  0  0  0  0  0  0  0
   35.7640   28.2140   32.1960 C   0  0  0  0  0  0  0  0  0  0  0  0
   36.4210   28.2130   33.4150 C   0  0  0  0  0  0  0  0  0  0  0  0
   35.6840   28.9680   34.3130 C   0  0  0  0  0  0  0  0  0  0  0  0
   34.6090   29.4010   33.6170 N   0  0  0  0  0  0  0  0  0  0  0  0
   34.6710   28.9510   32.3820 N   0  0  0  0  0  0  0  0  0  0  0  0
   33.6880   30.7270   35.5360 N   0  0  0  0  0  0  0  0  0  0  0  0
   33.6520   30.2170   34.2900 C   0  0  0  0  0  0  0  0  0  0  0  0
   32.4780   30.6270   33.7270 N   0  0  0  0  0  0  0  0  0  0  0  0
   31.8000   31.3750   34.6050 C   0  0  0  0  0  0  0  0  0  0  0  0
   30.5840   32.0030   34.4970 C   0  0  0  0  0  0  0  0  0  0  0  0
   30.1160   32.7080   35.5460 N   0  0  0  0  0  0  0  0  0  0  0  0
   30.8600   32.7790   36.6810 C   0  0  0  0  0  0  0  0  0  0  0  0
   32.0610   32.1620   36.7930 N   0  0  0  0  0  0  0  0  0  0  0  0
   32.5530   31.4520   35.7640 C   0  0  0  0  0  0  0  0  0  0  0  0
   37.3490   27.6900   33.5660 H   0  0  0  0  0  0  0  0  0  0  0  0
   36.0340   29.0920   35.3320 H   0  0  0  0  0  0  0  0  0  0  0  0
   34.4580   30.5920   36.2200 H   0  0  0  0  0  0  0  0  0  0  0  0
   30.0180   31.9260   33.5810 H   0  0  0  0  0  0  0  0  0  0  0  0
   30.5220   33.3340   37.5440 H   0  0  0  0  0  0  0  0  0  0  0  0
  1  8  1  0  0  0  0
  1  2  1  0  0  0  0
  3  1  1  0  0  0  0
  4  5  1  0  0  0  0
  5 11  1  0  0  0  0
  5  6  2  0  0  0  0
  6 12  1  0  0  0  0
  7  6  1  0  0  0  0
  8  7  2  0  0  0  0
  9  4  2  0  0  0  0
  9  8  1  0  0  0  0
 10  4  1  0  0  0  0
 12 13  1  0  0  0  0
 12 22  1  0  0  0  0
 13 15  2  0  0  0  0
 14 13  1  0  0  0  0
 15 16  1  0  0  0  0
 16 17  1  0  0  0  0
 17 18  2  0  0  0  0
 17 23  1  0  0  0  0
 19 20  1  0  0  0  0
 19 18  1  0  0  0  0
 21 19  2  0  0  0  0
 22 21  1  0  0  0  0
 22 16  2  0  0  0  0
 23 24  1  0  0  0  0
 23 25  1  0  0  0  0
 26  1  1  0  0  0  0
 26 29  1  0  0  0  0
 27 26  1  0  0  0  0
 28 26  1  0  0  0  0
 29 33  2  0  0  0  0
 29 30  1  0  0  0  0
 30 43  1  0  0  0  0
 30 31  2  0  0  0  0
 31 44  1  0  0  0  0
 32 35  1  0  0  0  0
 32 31  1  0  0  0  0
 33 32  1  0  0  0  0
 34 42  1  0  0  0  0
 34 45  1  0  0  0  0
 35 34  1  0  0  0  0
 36 35  2  0  0  0  0
 36 37  1  0  0  0  0
 37 42  1  0  0  0  0
 38 37  2  0  0  0  0
 38 39  1  0  0  0  0
 39 40  2  0  0  0  0
 40 41  1  0  0  0  0
 40 47  1  0  0  0  0
 42 41  2  0  0  0  0
 46 38  1  0  0  0  0
M  END
>  <minimizedAffinity>
-6.58811951

$$$$

 OpenBabel03272502033D

 47 52  0  0  0  0  0  0  0  0999 V2000
   38.1250   26.2990   35.1870 C   0  0  0  0  0  0  0  0  0  0  0  0
   38.2410   27.3530   35.5580 H   0  0  0  0  0  0  0  0  0  0  0  0
   39.1530   25.9200   35.0850 H   0  0  0  0  0  0  0  0  0  0  0  0
   36.6650   25.5040   31.8820 C   0  0  0  0  0  0  0  0  0  0  0  0
   36.0640   26.7350   31.5170 C   0  0  0  0  0  0  0  0  0  0  0  0
   36.1750   27.8200   32.4240 C   0  0  0  0  0  0  0  0  0  0  0  0
   36.8460   27.6080   33.5720 N   0  0  0  0  0  0  0  0  0  0  0  0
   37.4070   26.4140   33.8830 C   0  0  0  0  0  0  0  0  0  0  0  0
   37.3110   25.3970   33.0520 N   0  0  0  0  0  0  0  0  0  0  0  0
   36.5760   24.6680   31.1810 H   0  0  0  0  0  0  0  0  0  0  0  0
   35.5320   26.8750   30.5890 H   0  0  0  0  0  0  0  0  0  0  0  0
   35.5890   29.0770   32.1020 N   0  0  0  0  0  0  0  0  0  0  0  0
   35.7060   29.8330   30.9810 C   0  0  0  0  0  0  0  0  0  0  0  0
   36.3080   29.5530   30.1260 H   0  0  0  0  0  0  0  0  0  0  0  0
   34.9510   30.9570   31.1470 N   0  0  0  0  0  0  0  0  0  0  0  0
   34.3760   30.8850   32.3660 C   0  0  0  0  0  0  0  0  0  0  0  0
   33.5240   31.7080   33.0770 C   0  0  0  0  0  0  0  0  0  0  0  0
   33.0950   31.3680   34.3220 N   0  0  0  0  0  0  0  0  0  0  0  0
   33.4870   30.2160   34.9050 C   0  0  0  0  0  0  0  0  0  0  0  0
   33.1850   29.8840   35.8900 H   0  0  0  0  0  0  0  0  0  0  0  0
   34.3160   29.4280   34.1980 N   0  0  0  0  0  0  0  0  0  0  0  0
   34.7700   29.7150   32.9650 C   0  0  0  0  0  0  0  0  0  0  0  0
   33.0790   32.9360   32.5100 N   0  0  0  0  0  0  0  0  0  0  0  0
   33.8100   33.6540   32.7270 H   0  0  0  0  0  0  0  0  0  0  0  0
   32.3520   33.4350   31.9770 H   0  0  0  0  0  0  0  0  0  0  0  0
   37.3010   25.4700   36.1580 C   0  0  0  0  0  0  0  0  0  0  0  0
   36.5290   24.9130   35.6000 H   0  0  0  0  0  0  0  0  0  0  0  0
   36.9330   26.0840   36.9810 H   0  0  0  0  0  0  0  0  0  0  0  0
   38.2500   24.4440   36.7200 C   0  0  0  0  0  0  0  0  0  0  0  0
   38.3070   24.0060   38.0330 C   0  0  0  0  0  0  0  0  0  0  0  0
   39.3150   23.0610   38.1390 C   0  0  0  0  0  0  0  0  0  0  0  0
   39.8360   22.9560   36.8960 N   0  0  0  0  0  0  0  0  0  0  0  0
   39.2030   23.7700   36.0800 N   0  0  0  0  0  0  0  0  0  0  0  0
   41.4610   21.1600   37.5480 N   0  0  0  0  0  0  0  0  0  0  0  0
   40.9130   22.0420   36.6910 C   0  0  0  0  0  0  0  0  0  0  0  0
   41.5890   21.9220   35.5120 N   0  0  0  0  0  0  0  0  0  0  0  0
   42.5370   20.9870   35.6340 C   0  0  0  0  0  0  0  0  0  0  0  0
   43.4570   20.5200   34.7300 C   0  0  0  0  0  0  0  0  0  0  0  0
   44.3180   19.5540   35.1100 N   0  0  0  0  0  0  0  0  0  0  0  0
   44.2500   19.0690   36.3770 C   0  0  0  0  0  0  0  0  0  0  0  0
   43.3420   19.5250   37.2740 N   0  0  0  0  0  0  0  0  0  0  0  0
   42.4730   20.4880   36.9240 C   0  0  0  0  0  0  0  0  0  0  0  0
   37.6430   24.3820   38.7920 H   0  0  0  0  0  0  0  0  0  0  0  0
   39.5200   22.5930   39.0950 H   0  0  0  0  0  0  0  0  0  0  0  0
   41.1630   21.0100   38.5330 H   0  0  0  0  0  0  0  0  0  0  0  0
   43.4850   20.9280   33.7300 H   0  0  0  0  0  0  0  0  0  0  0  0
   44.9190   18.2940   36.7220 H   0  0  0  0  0  0  0  0  0  0  0  0
  1  2  1  0  0  0  0
  1 26  1  0  0  0  0
  3  1  1  0  0  0  0
  4  9  1  0  0  0  0
  5  4  2  0  0  0  0
  5  6  1  0  0  0  0
  6  7  2  0  0  0  0
  7  8  1  0  0  0  0
  8  1  1  0  0  0  0
  9  8  2  0  0  0  0
 10  4  1  0  0  0  0
 11  5  1  0  0  0  0
 12  6  1  0  0  0  0
 12 22  1  0  0  0  0
 13 15  2  0  0  0  0
 13 12  1  0  0  0  0
 14 13  1  0  0  0  0
 15 16  1  0  0  0  0
 16 22  2  0  0  0  0
 16 17  1  0  0  0  0
 17 18  2  0  0  0  0
 18 19  1  0  0  0  0
 19 20  1  0  0  0  0
 21 19  2  0  0  0  0
 22 21  1  0  0  0  0
 23 24  1  0  0  0  0
 23 17  1  0  0  0  0
 25 23  1  0  0  0  0
 26 29  1  0  0  0  0
 26 28  1  0  0  0  0
 27 26  1  0  0  0  0
 29 30  1  0  0  0  0
 30 31  2  0  0  0  0
 30 43  1  0  0  0  0
 31 44  1  0  0  0  0
 32 31  1  0  0  0  0
 33 29  2  0  0  0  0
 33 32  1  0  0  0  0
 34 45  1  0  0  0  0
 35 32  1  0  0  0  0
 35 34  1  0  0  0  0
 36 37  1  0  0  0  0
 36 35  2  0  0  0  0
 37 42  1  0  0  0  0
 38 39  1  0  0  0  0
 38 37  2  0  0  0  0
 39 40  2  0  0  0  0
 40 47  1  0  0  0  0
 40 41  1  0  0  0  0
 42 41  2  0  0  0  0
 42 34  1  0  0  0  0
 46 38  1  0  0  0  0
M  END
>  <minimizedAffinity>
-6.56227875

$$$$

 OpenBabel03272502033D

 47 52  0  0  0  0  0  0  0  0999 V2000
   36.8590   28.7180   30.1710 C   0  0  0  0  0  0  0  0  0  0  0  0
   36.6900   28.5610   29.0710 H   0  0  0  0  0  0  0  0  0  0  0  0
   36.0900   28.1050   30.6660 H   0  0  0  0  0  0  0  0  0  0  0  0
   36.4930   32.3540   29.6000 C   0  0  0  0  0  0  0  0  0  0  0  0
   36.3480   32.8510   30.9190 C   0  0  0  0  0  0  0  0  0  0  0  0
   36.3790   31.9160   31.9850 C   0  0  0  0  0  0  0  0  0  0  0  0
   36.5450   30.6170   31.6720 N   0  0  0  0  0  0  0  0  0  0  0  0
   36.6800   30.1830   30.3950 C   0  0  0  0  0  0  0  0  0  0  0  0
   36.6530   31.0390   29.3940 N   0  0  0  0  0  0  0  0  0  0  0  0
   36.4680   33.0780   28.7790 H   0  0  0  0  0  0  0  0  0  0  0  0
   36.2160   33.8990   31.1390 H   0  0  0  0  0  0  0  0  0  0  0  0
   36.2380   32.3660   33.3280 N   0  0  0  0  0  0  0  0  0  0  0  0
   36.9020   33.3430   33.9960 C   0  0  0  0  0  0  0  0  0  0  0  0
   37.6840   33.9490   33.5550 H   0  0  0  0  0  0  0  0  0  0  0  0
   36.4090   33.4010   35.2660 N   0  0  0  0  0  0  0  0  0  0  0  0
   35.4470   32.4590   35.3720 C   0  0  0  0  0  0  0  0  0  0  0  0
   34.6090   32.0520   36.3920 C   0  0  0  0  0  0  0  0  0  0  0  0
   33.7110   31.0480   36.2050 N   0  0  0  0  0  0  0  0  0  0  0  0
   33.6080   30.4160   35.0170 C   0  0  0  0  0  0  0  0  0  0  0  0
   32.9180   29.6110   34.8000 H   0  0  0  0  0  0  0  0  0  0  0  0
   34.4320   30.8260   34.0360 N   0  0  0  0  0  0  0  0  0  0  0  0
   35.3360   31.8130   34.1670 C   0  0  0  0  0  0  0  0  0  0  0  0
   34.6750   32.6840   37.6660 N   0  0  0  0  0  0  0  0  0  0  0  0
   35.4270   32.1970   38.2090 H   0  0  0  0  0  0  0  0  0  0  0  0
   34.3090   33.4140   38.2950 H   0  0  0  0  0  0  0  0  0  0  0  0
   38.2670   28.3040   30.5670 C   0  0  0  0  0  0  0  0  0  0  0  0
   38.8150   29.1840   30.9440 H   0  0  0  0  0  0  0  0  0  0  0  0
   38.7550   27.7580   29.7580 H   0  0  0  0  0  0  0  0  0  0  0  0
   38.0990   27.3680   31.7350 C   0  0  0  0  0  0  0  0  0  0  0  0
   36.9110   27.0460   32.3710 C   0  0  0  0  0  0  0  0  0  0  0  0
   37.1860   26.1540   33.3940 C   0  0  0  0  0  0  0  0  0  0  0  0
   38.5230   25.9620   33.3500 N   0  0  0  0  0  0  0  0  0  0  0  0
   39.0420   26.6780   32.3750 N   0  0  0  0  0  0  0  0  0  0  0  0
   38.5150   24.2920   35.2210 N   0  0  0  0  0  0  0  0  0  0  0  0
   39.1110   25.0760   34.3010 C   0  0  0  0  0  0  0  0  0  0  0  0
   40.4560   24.8810   34.4250 N   0  0  0  0  0  0  0  0  0  0  0  0
   40.6900   23.9960   35.4000 C   0  0  0  0  0  0  0  0  0  0  0  0
   41.8700   23.4890   35.8850 C   0  0  0  0  0  0  0  0  0  0  0  0
   41.8330   22.5930   36.8920 N   0  0  0  0  0  0  0  0  0  0  0  0
   40.6300   22.2160   37.3980 C   0  0  0  0  0  0  0  0  0  0  0  0
   39.4620   22.7130   36.9230 N   0  0  0  0  0  0  0  0  0  0  0  0
   39.4680   23.6080   35.9210 C   0  0  0  0  0  0  0  0  0  0  0  0
   35.9670   27.4610   32.0630 H   0  0  0  0  0  0  0  0  0  0  0  0
   36.3810   25.7780   34.0150 H   0  0  0  0  0  0  0  0  0  0  0  0
   37.4900   24.2170   35.3770 H   0  0  0  0  0  0  0  0  0  0  0  0
   42.8100   23.8100   35.4600 H   0  0  0  0  0  0  0  0  0  0  0  0
   40.5550   21.5010   38.2040 H   0  0  0  0  0  0  0  0  0  0  0  0
  1  8  1  0  0  0  0
  1 26  1  0  0  0  0
  1  3  1  0  0  0  0
  2  1  1  0  0  0  0
  4  5  1  0  0  0  0
  5 11  1  0  0  0  0
  5  6  2  0  0  0  0
  6 12  1  0  0  0  0
  7  6  1  0  0  0  0
  8  7  2  0  0  0  0
  9  4  2  0  0  0  0
  9  8  1  0  0  0  0
 10  4  1  0  0  0  0
 12 13  1  0  0  0  0
 12 22  1  0  0  0  0
 13 15  2  0  0  0  0
 14 13  1  0  0  0  0
 15 16  1  0  0  0  0
 16 17  1  0  0  0  0
 17 23  1  0  0  0  0
 18 17  2  0  0  0  0
 19 18  1  0  0  0  0
 20 19  1  0  0  0  0
 21 22  1  0  0  0  0
 21 19  2  0  0  0  0
 22 16  2  0  0  0  0
 23 24  1  0  0  0  0
 23 25  1  0  0  0  0
 26 27  1  0  0  0  0
 26 29  1  0  0  0  0
 28 26  1  0  0  0  0
 29 30  1  0  0  0  0
 29 33  2  0  0  0  0
 30 31  2  0  0  0  0
 31 44  1  0  0  0  0
 32 31  1  0  0  0  0
 32 35  1  0  0  0  0
 33 32  1  0  0  0  0
 34 45  1  0  0  0  0
 34 42  1  0  0  0  0
 35 36  2  0  0  0  0
 35 34  1  0  0  0  0
 36 37  1  0  0  0  0
 37 38  2  0  0  0  0
 37 42  1  0  0  0  0
 38 39  1  0  0  0  0
 39 40  2  0  0  0  0
 40 47  1  0  0  0  0
 41 40  1  0  0  0  0
 42 41  2  0  0  0  0
 43 30  1  0  0  0  0
 46 38  1  0  0  0  0
M  END
>  <minimizedAffinity>
-6.50537395

$$$$

 OpenBabel03272502033D

 47 52  0  0  0  0  0  0  0  0999 V2000
   37.6730   26.5010   30.9400 C   0  0  0  0  0  0  0  0  0  0  0  0
   37.6310   25.5250   30.3850 H   0  0  0  0  0  0  0  0  0  0  0  0
   37.5400   27.2730   30.1670 H   0  0  0  0  0  0  0  0  0  0  0  0
   41.1300   27.4680   31.8350 C   0  0  0  0  0  0  0  0  0  0  0  0
   41.4650   26.5050   32.8190 C   0  0  0  0  0  0  0  0  0  0  0  0
   40.4850   25.5360   33.1550 C   0  0  0  0  0  0  0  0  0  0  0  0
   39.3010   25.5960   32.5160 N   0  0  0  0  0  0  0  0  0  0  0  0
   39.0210   26.5350   31.5800 C   0  0  0  0  0  0  0  0  0  0  0  0
   39.9210   27.4420   31.2580 N   0  0  0  0  0  0  0  0  0  0  0  0
   41.8880   28.2160   31.5770 H   0  0  0  0  0  0  0  0  0  0  0  0
   42.4230   26.4820   33.3140 H   0  0  0  0  0  0  0  0  0  0  0  0
   40.7740   24.5460   34.1380 N   0  0  0  0  0  0  0  0  0  0  0  0
   41.8310   23.7020   34.2420 C   0  0  0  0  0  0  0  0  0  0  0  0
   42.6500   23.6730   33.5340 H   0  0  0  0  0  0  0  0  0  0  0  0
   41.6580   22.9390   35.3590 N   0  0  0  0  0  0  0  0  0  0  0  0
   40.4960   23.3180   35.9330 C   0  0  0  0  0  0  0  0  0  0  0  0
   39.8080   22.9180   37.0620 C   0  0  0  0  0  0  0  0  0  0  0  0
   38.6250   23.4970   37.4070 N   0  0  0  0  0  0  0  0  0  0  0  0
   38.0870   24.4810   36.6570 C   0  0  0  0  0  0  0  0  0  0  0  0
   37.1520   24.9840   36.8710 H   0  0  0  0  0  0  0  0  0  0  0  0
   38.7710   24.8570   35.5620 N   0  0  0  0  0  0  0  0  0  0  0  0
   39.9430   24.3200   35.1770 C   0  0  0  0  0  0  0  0  0  0  0  0
   40.3300   21.8840   37.8890 N   0  0  0  0  0  0  0  0  0  0  0  0
   40.0090   20.9750   37.4800 H   0  0  0  0  0  0  0  0  0  0  0  0
   40.8890   21.6310   38.7180 H   0  0  0  0  0  0  0  0  0  0  0  0
   36.5940   26.5650   32.0080 C   0  0  0  0  0  0  0  0  0  0  0  0
   37.0050   26.2050   32.9670 H   0  0  0  0  0  0  0  0  0  0  0  0
   35.6830   26.0680   31.6720 H   0  0  0  0  0  0  0  0  0  0  0  0
   36.2930   28.0300   32.1910 C   0  0  0  0  0  0  0  0  0  0  0  0
   36.2960   29.0020   31.2040 C   0  0  0  0  0  0  0  0  0  0  0  0
   35.9680   30.2180   31.7820 C   0  0  0  0  0  0  0  0  0  0  0  0
   35.7780   29.9490   33.0930 N   0  0  0  0  0  0  0  0  0  0  0  0
   35.9720   28.6670   33.3160 N   0  0  0  0  0  0  0  0  0  0  0  0
   35.1450   32.3100   33.6580 N   0  0  0  0  0  0  0  0  0  0  0  0
   35.4240   31.0260   33.9590 C   0  0  0  0  0  0  0  0  0  0  0  0
   35.3080   30.9030   35.3130 N   0  0  0  0  0  0  0  0  0  0  0  0
   34.9650   32.0830   35.8410 C   0  0  0  0  0  0  0  0  0  0  0  0
   34.7350   32.4490   37.1440 C   0  0  0  0  0  0  0  0  0  0  0  0
   34.3970   33.7260   37.4160 N   0  0  0  0  0  0  0  0  0  0  0  0
   34.2910   34.6140   36.3930 C   0  0  0  0  0  0  0  0  0  0  0  0
   34.5160   34.2580   35.1050 N   0  0  0  0  0  0  0  0  0  0  0  0
   34.8560   32.9930   34.8040 C   0  0  0  0  0  0  0  0  0  0  0  0
   36.5230   28.7750   30.1780 H   0  0  0  0  0  0  0  0  0  0  0  0
   35.9160   31.1110   31.1700 H   0  0  0  0  0  0  0  0  0  0  0  0
   35.1480   32.7190   32.7030 H   0  0  0  0  0  0  0  0  0  0  0  0
   34.8290   31.7180   37.9330 H   0  0  0  0  0  0  0  0  0  0  0  0
   34.0220   35.6460   36.5670 H   0  0  0  0  0  0  0  0  0  0  0  0
  1  8  1  0  0  0  0
  1 26  1  0  0  0  0
  2  1  1  0  0  0  0
  3  1  1  0  0  0  0
  4  5  1  0  0  0  0
  5  6  2  0  0  0  0
  5 11  1  0  0  0  0
  6 12  1  0  0  0  0
  7  6  1  0  0  0  0
  8  7  2  0  0  0  0
  9  8  1  0  0  0  0
  9  4  2  0  0  0  0
 10  4  1  0  0  0  0
 12 13  1  0  0  0  0
 12 22  1  0  0  0  0
 13 15  2  0  0  0  0
 14 13  1  0  0  0  0
 15 16  1  0  0  0  0
 16 17  1  0  0  0  0
 17 18  2  0  0  0  0
 17 23  1  0  0  0  0
 19 20  1  0  0  0  0
 19 18  1  0  0  0  0
 21 19  2  0  0  0  0
 22 21  1  0  0  0  0
 22 16  2  0  0  0  0
 23 25  1  0  0  0  0
 24 23  1  0  0  0  0
 26 29  1  0  0  0  0
 26 27  1  0  0  0  0
 28 26  1  0  0  0  0
 29 33  2  0  0  0  0
 30 31  2  0  0  0  0
 30 29  1  0  0  0  0
 31 32  1  0  0  0  0
 32 33  1  0  0  0  0
 32 35  1  0  0  0  0
 34 35  1  0  0  0  0
 34 42  1  0  0  0  0
 35 36  2  0  0  0  0
 36 37  1  0  0  0  0
 37 38  1  0  0  0  0
 38 39  2  0  0  0  0
 38 46  1  0  0  0  0
 40 47  1  0  0  0  0
 40 39  1  0  0  0  0
 41 40  2  0  0  0  0
 42 41  1  0  0  0  0
 42 37  2  0  0  0  0
 43 30  1  0  0  0  0
 44 31  1  0  0  0  0
 45 34  1  0  0  0  0
M  END
>  <minimizedAffinity>
-6.48461723

$$$$

 OpenBabel03272502033D

 47 52  0  0  0  0  0  0  0  0999 V2000
   37.7990   25.8900   34.5800 C   0  0  0  0  0  0  0  0  0  0  0  0
   38.5710   26.6760   34.8040 H   0  0  0  0  0  0  0  0  0  0  0  0
   36.9910   26.0720   35.3040 H   0  0  0  0  0  0  0  0  0  0  0  0
   39.9310   23.2110   35.9820 C   0  0  0  0  0  0  0  0  0  0  0  0
   39.7140   22.1480   35.0700 C   0  0  0  0  0  0  0  0  0  0  0  0
   38.8320   22.3790   33.9840 C   0  0  0  0  0  0  0  0  0  0  0  0
   38.2590   23.5940   33.8920 N   0  0  0  0  0  0  0  0  0  0  0  0
   38.4930   24.5840   34.7860 C   0  0  0  0  0  0  0  0  0  0  0  0
   39.3100   24.3850   35.8010 N   0  0  0  0  0  0  0  0  0  0  0  0
   40.6130   23.0300   36.8200 H   0  0  0  0  0  0  0  0  0  0  0  0
   40.1880   21.1840   35.1700 H   0  0  0  0  0  0  0  0  0  0  0  0
   38.5820   21.3410   33.0400 N   0  0  0  0  0  0  0  0  0  0  0  0
   39.4510   20.5720   32.3380 C   0  0  0  0  0  0  0  0  0  0  0  0
   40.5280   20.6590   32.4140 H   0  0  0  0  0  0  0  0  0  0  0  0
   38.7280   19.7160   31.5600 N   0  0  0  0  0  0  0  0  0  0  0  0
   37.4210   19.9650   31.7890 C   0  0  0  0  0  0  0  0  0  0  0  0
   36.2430   19.4300   31.3050 C   0  0  0  0  0  0  0  0  0  0  0  0
   35.0350   19.8910   31.7280 N   0  0  0  0  0  0  0  0  0  0  0  0
   34.9480   20.8870   32.6350 C   0  0  0  0  0  0  0  0  0  0  0  0
   34.0230   21.3030   33.0140 H   0  0  0  0  0  0  0  0  0  0  0  0
   36.1060   21.3950   33.0940 N   0  0  0  0  0  0  0  0  0  0  0  0
   37.3250   20.9760   32.7110 C   0  0  0  0  0  0  0  0  0  0  0  0
   36.2760   18.3770   30.3470 N   0  0  0  0  0  0  0  0  0  0  0  0
   36.3550   18.8270   29.4040 H   0  0  0  0  0  0  0  0  0  0  0  0
   36.2570   17.3630   30.1680 H   0  0  0  0  0  0  0  0  0  0  0  0
   37.3190   25.9960   33.1420 C   0  0  0  0  0  0  0  0  0  0  0  0
   36.5160   25.2590   32.9680 H   0  0  0  0  0  0  0  0  0  0  0  0
   38.1580   25.9480   32.4460 H   0  0  0  0  0  0  0  0  0  0  0  0
   36.6850   27.3580   33.0270 C   0  0  0  0  0  0  0  0  0  0  0  0
   36.2630   27.9750   31.8610 C   0  0  0  0  0  0  0  0  0  0  0  0
   35.7370   29.2150   32.1850 C   0  0  0  0  0  0  0  0  0  0  0  0
   35.8560   29.3130   33.5270 N   0  0  0  0  0  0  0  0  0  0  0  0
   36.4110   28.2200   34.0040 N   0  0  0  0  0  0  0  0  0  0  0  0
   34.7410   31.5570   33.6310 N   0  0  0  0  0  0  0  0  0  0  0  0
   35.3910   30.5040   34.1620 C   0  0  0  0  0  0  0  0  0  0  0  0
   35.5500   30.7650   35.4920 N   0  0  0  0  0  0  0  0  0  0  0  0
   35.0110   31.9540   35.7810 C   0  0  0  0  0  0  0  0  0  0  0  0
   34.9260   32.6340   36.9690 C   0  0  0  0  0  0  0  0  0  0  0  0
   34.3210   33.8390   36.9930 N   0  0  0  0  0  0  0  0  0  0  0  0
   33.8110   34.3460   35.8400 C   0  0  0  0  0  0  0  0  0  0  0  0
   33.8920   33.6780   34.6640 N   0  0  0  0  0  0  0  0  0  0  0  0
   34.4890   32.4760   34.6090 C   0  0  0  0  0  0  0  0  0  0  0  0
   36.3580   27.5050   30.8980 H   0  0  0  0  0  0  0  0  0  0  0  0
   35.3490   29.8590   31.4030 H   0  0  0  0  0  0  0  0  0  0  0  0
   34.4700   31.6590   32.6330 H   0  0  0  0  0  0  0  0  0  0  0  0
   35.3420   32.2030   37.8680 H   0  0  0  0  0  0  0  0  0  0  0  0
   33.3180   35.3070   35.8150 H   0  0  0  0  0  0  0  0  0  0  0  0
  1  8  1  0  0  0  0
  1  2  1  0  0  0  0
  1  3  1  0  0  0  0
  4 10  1  0  0  0  0
  5 11  1  0  0  0  0
  5  4  2  0  0  0  0
  6  5  1  0  0  0  0
  7  6  2  0  0  0  0
  7  8  1  0  0  0  0
  8  9  2  0  0  0  0
  9  4  1  0  0  0  0
 12  6  1  0  0  0  0
 13 14  1  0  0  0  0
 13 12  1  0  0  0  0
 15 16  1  0  0  0  0
 15 13  2  0  0  0  0
 16 22  1  0  0  0  0
 17 18  1  0  0  0  0
 17 16  2  0  0  0  0
 18 19  2  0  0  0  0
 19 20  1  0  0  0  0
 19 21  1  0  0  0  0
 22 12  1  0  0  0  0
 22 21  2  0  0  0  0
 23 17  1  0  0  0  0
 24 23  1  0  0  0  0
 25 23  1  0  0  0  0
 26  1  1  0  0  0  0
 27 26  1  0  0  0  0
 28 26  1  0  0  0  0
 29 26  1  0  0  0  0
 29 33  2  0  0  0  0
 30 31  2  0  0  0  0
 30 29  1  0  0  0  0
 31 32  1  0  0  0  0
 32 33  1  0  0  0  0
 32 35  1  0  0  0  0
 34 35  1  0  0  0  0
 34 42  1  0  0  0  0
 35 36  2  0  0  0  0
 36 37  1  0  0  0  0
 37 38  1  0  0  0  0
 38 39  2  0  0  0  0
 38 46  1  0  0  0  0
 40 39  1  0  0  0  0
 41 40  2  0  0  0  0
 42 41  1  0  0  0  0
 42 37  2  0  0  0  0
 43 30  1  0  0  0  0
 44 31  1  0  0  0  0
 45 34  1  0  0  0  0
 47 40  1  0  0  0  0
M  END
>  <minimizedAffinity>
-6.42738581

$$$$
