
 OpenBabel03272501433D

 39 43  0  0  0  0  0  0  0  0999 V2000
   35.6340   29.3030   48.7910 C   0  0  0  0  0  0  0  0  0  0  0  0
   35.5370   30.0830   47.6010 C   0  0  0  0  0  0  0  0  0  0  0  0
   34.3530   30.0060   46.8760 C   0  0  0  0  0  0  0  0  0  0  0  0
   33.3690   29.1990   47.3430 N   0  0  0  0  0  0  0  0  0  0  0  0
   33.4750   28.4710   48.4660 C   0  0  0  0  0  0  0  0  0  0  0  0
   34.6130   28.5290   49.1840 N   0  0  0  0  0  0  0  0  0  0  0  0
   36.4550   29.2210   49.4830 H   0  0  0  0  0  0  0  0  0  0  0  0
   34.3360   30.6030   46.0050 H   0  0  0  0  0  0  0  0  0  0  0  0
   37.4530   31.3670   48.3640 C   0  0  0  0  0  0  0  0  0  0  0  0
   36.7210   30.8660   47.3120 C   0  0  0  0  0  0  0  0  0  0  0  0
   37.1720   31.1440   46.0250 C   0  0  0  0  0  0  0  0  0  0  0  0
   38.3290   31.9090   45.8640 C   0  0  0  0  0  0  0  0  0  0  0  0
   38.9960   32.3340   44.7750 N   0  0  0  0  0  0  0  0  0  0  0  0
   40.0690   33.0500   45.1510 C   0  0  0  0  0  0  0  0  0  0  0  0
   40.0950   33.0890   46.5110 N   0  0  0  0  0  0  0  0  0  0  0  0
   39.0330   32.3920   46.9340 C   0  0  0  0  0  0  0  0  0  0  0  0
   38.5950   32.1210   48.1950 C   0  0  0  0  0  0  0  0  0  0  0  0
   37.2010   31.2210   49.4280 H   0  0  0  0  0  0  0  0  0  0  0  0
   36.6210   30.7660   45.1990 H   0  0  0  0  0  0  0  0  0  0  0  0
   38.6750   32.1050   43.8100 H   0  0  0  0  0  0  0  0  0  0  0  0
   40.7610   33.4980   44.4390 H   0  0  0  0  0  0  0  0  0  0  0  0
   39.1740   32.5190   49.0440 H   0  0  0  0  0  0  0  0  0  0  0  0
   32.3180   27.6210   48.8730 C   0  0  0  0  0  0  0  0  0  0  0  0
   32.6080   27.1780   49.8570 H   0  0  0  0  0  0  0  0  0  0  0  0
   31.4150   28.2070   49.0700 H   0  0  0  0  0  0  0  0  0  0  0  0
   32.1290   26.5650   47.9130 N   0  0  0  0  0  0  0  0  0  0  0  0
   32.9870   25.6970   47.3430 C   0  0  0  0  0  0  0  0  0  0  0  0
   34.0400   25.7280   47.5990 H   0  0  0  0  0  0  0  0  0  0  0  0
   32.2850   24.9030   46.4990 N   0  0  0  0  0  0  0  0  0  0  0  0
   31.0050   25.2540   46.5270 C   0  0  0  0  0  0  0  0  0  0  0  0
   29.9090   24.7370   45.8380 C   0  0  0  0  0  0  0  0  0  0  0  0
   28.7040   25.3060   46.0710 N   0  0  0  0  0  0  0  0  0  0  0  0
   28.6030   26.3410   46.9510 C   0  0  0  0  0  0  0  0  0  0  0  0
   27.6560   26.8210   47.1640 H   0  0  0  0  0  0  0  0  0  0  0  0
   29.6540   26.8470   47.6210 N   0  0  0  0  0  0  0  0  0  0  0  0
   30.8890   26.3080   47.4190 C   0  0  0  0  0  0  0  0  0  0  0  0
   30.0420   23.6490   44.9200 N   0  0  0  0  0  0  0  0  0  0  0  0
   29.3770   22.8940   45.2520 H   0  0  0  0  0  0  0  0  0  0  0  0
   30.7060   23.7070   44.1090 H   0  0  0  0  0  0  0  0  0  0  0  0
  1  6  1  0  0  0  0
  1  7  1  0  0  0  0
  2  1  2  0  0  0  0
  3  4  2  0  0  0  0
  3  2  1  0  0  0  0
  4  5  1  0  0  0  0
  5 23  1  0  0  0  0
  5  6  2  0  0  0  0
  8  3  1  0  0  0  0
  9 18  1  0  0  0  0
 10  2  1  0  0  0  0
 10  9  2  0  0  0  0
 11 10  1  0  0  0  0
 12 11  2  0  0  0  0
 12 16  1  0  0  0  0
 13 14  1  0  0  0  0
 13 12  1  0  0  0  0
 14 15  2  0  0  0  0
 15 16  1  0  0  0  0
 16 17  2  0  0  0  0
 17  9  1  0  0  0  0
 17 22  1  0  0  0  0
 19 11  1  0  0  0  0
 20 13  1  0  0  0  0
 21 14  1  0  0  0  0
 23 25  1  0  0  0  0
 23 24  1  0  0  0  0
 26 23  1  0  0  0  0
 27 28  1  0  0  0  0
 27 26  1  0  0  0  0
 29 30  1  0  0  0  0
 29 27  2  0  0  0  0
 30 36  1  0  0  0  0
 31 32  1  0  0  0  0
 31 30  2  0  0  0  0
 32 33  2  0  0  0  0
 33 34  1  0  0  0  0
 33 35  1  0  0  0  0
 36 35  2  0  0  0  0
 36 26  1  0  0  0  0
 37 38  1  0  0  0  0
 37 31  1  0  0  0  0
 39 37  1  0  0  0  0
M  END
>  <minimizedAffinity>
-5.9005599

>  <minimizedRMSD>
0.998909652

$$$$
