REMARK  Name = 
REMARK  5 active torsions:
REMARK  status: ('A' for Active; 'I' for Inactive)
REMARK    1  A    between atoms: C_3  and  C_13
REMARK    2  A    between atoms: C_8  and  C_15
REMARK    3  A    between atoms: C_15  and  C_18
REMARK    4  A    between atoms: C_22  and  N_33
REMARK    5  A    between atoms: C_38  and  N_39
REMARK                            x       y       z     vdW  Elec       q    Type
REMARK                         _______ _______ _______ _____ _____    ______ ____
ROOT
ATOM      1  F   UNL     1      35.290  27.962  49.108  0.00  0.00    +0.000 F 
ATOM      2  C   UNL     1      35.999  28.878  49.854  0.00  0.00    +0.000 A 
ATOM      3  C   UNL     1      35.839  30.257  49.679  0.00  0.00    +0.000 A 
ATOM      4  C   UNL     1      36.567  31.102  50.479  0.00  0.00    +0.000 A 
ATOM      5  C   UNL     1      37.444  30.615  51.435  0.00  0.00    +0.000 A 
ATOM      6  C   UNL     1      37.588  29.222  51.593  0.00  0.00    +0.000 A 
ATOM      7  C   UNL     1      36.856  28.334  50.792  0.00  0.00    +0.000 A 
ATOM      8  H   UNL     1      36.468  32.175  50.484  0.00  0.00    +0.000 HD
ATOM      9  H   UNL     1      38.043  31.225  52.089  0.00  0.00    +0.000 HD
ATOM     10  H   UNL     1      38.257  28.825  52.322  0.00  0.00    +0.000 HD
ENDROOT
BRANCH   7  11
ATOM     11  N   UNL     1      37.007  26.931  50.959  0.00  0.00    +0.000 N 
ATOM     12  C   UNL     1      36.348  25.978  50.242  0.00  0.00    +0.000 A 
ATOM     13  H   UNL     1      35.636  26.197  49.465  0.00  0.00    +0.000 HD
ATOM     14  N   UNL     1      36.768  24.765  50.702  0.00  0.00    +0.000 NA
ATOM     15  C   UNL     1      37.663  24.971  51.678  0.00  0.00    +0.000 A 
ATOM     16  C   UNL     1      38.432  24.193  52.519  0.00  0.00    +0.000 A 
ATOM     17  N   UNL     1      39.281  24.719  53.443  0.00  0.00    +0.000 NA
ATOM     18  C   UNL     1      39.392  26.071  53.562  0.00  0.00    +0.000 A 
ATOM     19  H   UNL     1      40.087  26.354  54.320  0.00  0.00    +0.000 HD
ATOM     20  N   UNL     1      38.665  26.880  52.769  0.00  0.00    +0.000 NA
ATOM     21  C   UNL     1      37.836  26.342  51.865  0.00  0.00    +0.000 A 
BRANCH  16  22
ATOM     22  N   UNL     1      38.320  22.780  52.399  0.00  0.00    +0.000 N 
ATOM     23  H   UNL     1      38.794  21.973  51.895  0.00  0.00    +0.000 HD
ATOM     24  H   UNL     1      37.507  22.475  53.012  0.00  0.00    +0.000 HD
ENDBRANCH  16  22
ENDBRANCH   7  11
BRANCH   3  25
ATOM     25  C   UNL     1      34.901  30.715  48.636  0.00  0.00    +0.000 C 
ATOM     26  H   UNL     1      33.911  30.242  48.714  0.00  0.00    +0.000 HD
ATOM     27  H   UNL     1      34.806  31.831  48.746  0.00  0.00    +0.000 HD
BRANCH  25  35
ATOM     28 CL   UNL     1      37.554  32.057  48.126  0.00  0.00    +0.000 Cl
ATOM     29  C   UNL     1      36.681  31.089  47.000  0.00  0.00    +0.000 A 
ATOM     30  C   UNL     1      37.207  30.880  45.733  0.00  0.00    +0.000 A 
ATOM     31  C   UNL     1      36.546  30.120  44.799  0.00  0.00    +0.000 A 
ATOM     32  C   UNL     1      35.333  29.543  45.099  0.00  0.00    +0.000 A 
ATOM     33  C   UNL     1      34.777  29.728  46.349  0.00  0.00    +0.000 A 
ATOM     34 CL   UNL     1      33.239  29.055  46.856  0.00  0.00    +0.000 Cl
ATOM     35  C   UNL     1      35.475  30.500  47.262  0.00  0.00    +0.000 A 
ATOM     36  H   UNL     1      36.998  29.989  43.830  0.00  0.00    +0.000 HD
ATOM     37  H   UNL     1      34.780  28.943  44.404  0.00  0.00    +0.000 HD
BRANCH  30  42
ATOM     38  C   UNL     1      39.767  33.220  44.547  0.00  0.00    +0.000 A 
ATOM     39  C   UNL     1      40.962  32.557  44.815  0.00  0.00    +0.000 A 
ATOM     40  C   UNL     1      40.871  31.274  45.418  0.00  0.00    +0.000 A 
ATOM     41  N   UNL     1      39.633  30.793  45.686  0.00  0.00    +0.000 NA
ATOM     42  C   UNL     1      38.487  31.481  45.404  0.00  0.00    +0.000 A 
ATOM     43  N   UNL     1      38.576  32.685  44.838  0.00  0.00    +0.000 NA
ATOM     44  H   UNL     1      39.811  34.200  44.087  0.00  0.00    +0.000 HD
ATOM     45  H   UNL     1      41.937  32.965  44.591  0.00  0.00    +0.000 HD
ATOM     46  H   UNL     1      41.754  30.697  45.658  0.00  0.00    +0.000 HD
ENDBRANCH  30  42
ENDBRANCH  25  35
ENDBRANCH   3  25
TORSDOF 5
