
 OpenBabel03272506013D

 51 55  0  0  1  0  0  0  0  0999 V2000
   35.0490   30.0330   49.4070 C   0  0  2  0  0  0  0  0  0  0  0  0
   35.9960   31.1010   49.1260 C   0  0  0  0  0  0  0  0  0  0  0  0
   37.4740   30.5930   49.0420 C   0  0  2  0  0  0  0  0  0  0  0  0
   37.9210   29.9450   50.2530 C   0  0  0  0  0  0  0  0  0  0  0  0
   36.8520   29.0670   50.9130 C   0  0  0  0  0  0  0  0  0  0  0  0
   35.7340   28.7750   49.9590 C   0  0  0  0  0  0  0  0  0  0  0  0
   34.3500   30.3210   50.2470 H   0  0  0  0  0  0  0  0  0  0  0  0
   35.9120   31.7700   48.3000 H   0  0  0  0  0  0  0  0  0  0  0  0
   36.0670   31.7780   50.0460 H   0  0  0  0  0  0  0  0  0  0  0  0
   37.5560   29.9820   48.1460 H   0  0  0  0  0  0  0  0  0  0  0  0
   38.8190   29.3210   50.0140 H   0  0  0  0  0  0  0  0  0  0  0  0
   38.2670   30.6100   51.0720 H   0  0  0  0  0  0  0  0  0  0  0  0
   36.4520   29.5130   51.8400 H   0  0  0  0  0  0  0  0  0  0  0  0
   37.3140   28.1010   51.1600 H   0  0  0  0  0  0  0  0  0  0  0  0
   35.0140   28.1390   50.4800 H   0  0  0  0  0  0  0  0  0  0  0  0
   36.1470   28.1880   49.1120 H   0  0  0  0  0  0  0  0  0  0  0  0
   34.2120   29.5950   48.2920 C   0  0  0  0  0  0  0  0  0  0  0  0
   34.1670   30.4840   47.2270 C   0  0  0  0  0  0  0  0  0  0  0  0
   33.4190   30.1430   46.1030 C   0  0  0  0  0  0  0  0  0  0  0  0
   32.7540   28.9330   46.1000 N   0  0  0  0  0  0  0  0  0  0  0  0
   32.8130   28.0820   47.1530 C   0  0  0  0  0  0  0  0  0  0  0  0
   33.5460   28.4560   48.2090 N   0  0  0  0  0  0  0  0  0  0  0  0
   34.5660   31.4560   46.9710 H   0  0  0  0  0  0  0  0  0  0  0  0
   33.2380   30.6580   45.1730 H   0  0  0  0  0  0  0  0  0  0  0  0
   32.1090   26.8410   47.1040 N   0  0  0  0  0  0  0  0  0  0  0  0
   30.8090   26.5030   47.2070 C   0  0  0  0  0  0  0  0  0  0  0  0
   30.0520   27.2570   47.3600 H   0  0  0  0  0  0  0  0  0  0  0  0
   30.6860   25.1640   47.0870 N   0  0  0  0  0  0  0  0  0  0  0  0
   31.9220   24.6380   46.9060 C   0  0  0  0  0  0  0  0  0  0  0  0
   32.3530   23.3290   46.7320 C   0  0  0  0  0  0  0  0  0  0  0  0
   33.6770   23.1560   46.5760 N   0  0  0  0  0  0  0  0  0  0  0  0
   34.5700   24.1360   46.5790 C   0  0  0  0  0  0  0  0  0  0  0  0
   35.6460   23.9710   46.4500 H   0  0  0  0  0  0  0  0  0  0  0  0
   34.1390   25.3930   46.7490 N   0  0  0  0  0  0  0  0  0  0  0  0
   32.8230   25.6980   46.9170 C   0  0  0  0  0  0  0  0  0  0  0  0
   31.4550   22.2260   46.7160 N   0  0  0  0  0  0  0  0  0  0  0  0
   31.8020   21.2740   46.9530 H   0  0  0  0  0  0  0  0  0  0  0  0
   30.4480   22.3540   46.4710 H   0  0  0  0  0  0  0  0  0  0  0  0
   38.3940   30.9920   46.2760 Cl  0  0  0  0  0  0  0  0  0  0  0  0
   38.7560   32.1300   47.5540 C   0  0  0  0  0  0  0  0  0  0  0  0
   38.2370   31.8620   48.7970 C   0  0  0  0  0  0  0  0  0  0  0  0
   38.5400   32.8320   49.7430 C   0  0  0  0  0  0  0  0  0  0  0  0
   39.2930   33.9540   49.4490 C   0  0  0  0  0  0  0  0  0  0  0  0
   39.7840   34.1480   48.1610 C   0  0  0  0  0  0  0  0  0  0  0  0
   39.5050   33.2100   47.1930 C   0  0  0  0  0  0  0  0  0  0  0  0
   38.1370   32.6460   50.7510 H   0  0  0  0  0  0  0  0  0  0  0  0
   39.4660   34.6440   50.2690 H   0  0  0  0  0  0  0  0  0  0  0  0
   40.3700   35.0350   47.9610 H   0  0  0  0  0  0  0  0  0  0  0  0
   40.0040   33.4040   45.8750 N   0  0  0  0  0  0  0  0  0  0  0  0
   40.8740   32.9420   45.5170 H   0  0  0  0  0  0  0  0  0  0  0  0
   39.5080   34.0270   45.2040 H   0  0  0  0  0  0  0  0  0  0  0  0
  1  6  1  0  0  0  0
  1  7  1  1  0  0  0
  2  1  1  0  0  0  0
  2  9  1  0  0  0  0
  3 10  1  6  0  0  0
  3  2  1  0  0  0  0
  3  4  1  0  0  0  0
  4  5  1  0  0  0  0
  4 12  1  0  0  0  0
  5 14  1  0  0  0  0
  5 13  1  0  0  0  0
  6 15  1  0  0  0  0
  6  5  1  0  0  0  0
  8  2  1  0  0  0  0
 11  4  1  0  0  0  0
 16  6  1  0  0  0  0
 17  1  1  0  0  0  0
 18 17  2  0  0  0  0
 19 18  1  0  0  0  0
 20 19  2  0  0  0  0
 20 21  1  0  0  0  0
 21 22  2  0  0  0  0
 22 17  1  0  0  0  0
 23 18  1  0  0  0  0
 24 19  1  0  0  0  0
 25 21  1  0  0  0  0
 25 26  1  0  0  0  0
 26 27  1  0  0  0  0
 28 26  2  0  0  0  0
 29 35  1  0  0  0  0
 29 28  1  0  0  0  0
 30 29  2  0  0  0  0
 31 32  2  0  0  0  0
 31 30  1  0  0  0  0
 32 34  1  0  0  0  0
 33 32  1  0  0  0  0
 34 35  2  0  0  0  0
 35 25  1  0  0  0  0
 36 30  1  0  0  0  0
 36 37  1  0  0  0  0
 38 36  1  0  0  0  0
 39 40  1  0  0  0  0
 40 41  1  0  0  0  0
 41  3  1  0  0  0  0
 41 42  2  0  0  0  0
 42 46  1  0  0  0  0
 43 42  1  0  0  0  0
 43 47  1  0  0  0  0
 44 43  2  0  0  0  0
 45 40  2  0  0  0  0
 45 44  1  0  0  0  0
 48 44  1  0  0  0  0
 49 45  1  0  0  0  0
 50 49  1  0  0  0  0
 51 49  1  0  0  0  0
M  END
>  <minimizedAffinity>
-7.7896719

>  <minimizedRMSD>
1.44842458

$$$$
