
 OpenBabel03272501433D

 39 43  0  0  0  0  0  0  0  0999 V2000
   35.2420   28.7360   48.8060 C   0  0  0  0  0  0  0  0  0  0  0  0
   35.4760   29.7610   47.8430 C   0  0  0  0  0  0  0  0  0  0  0  0
   34.8400   29.6460   46.6120 C   0  0  0  0  0  0  0  0  0  0  0  0
   34.0400   28.5710   46.4050 N   0  0  0  0  0  0  0  0  0  0  0  0
   33.8290   27.6140   47.3210 C   0  0  0  0  0  0  0  0  0  0  0  0
   34.4350   27.7040   48.5210 N   0  0  0  0  0  0  0  0  0  0  0  0
   35.6350   28.6380   49.8030 H   0  0  0  0  0  0  0  0  0  0  0  0
   35.0500   30.4320   45.9390 H   0  0  0  0  0  0  0  0  0  0  0  0
   36.2580   31.2440   49.6020 C   0  0  0  0  0  0  0  0  0  0  0  0
   36.3700   30.8060   48.3020 C   0  0  0  0  0  0  0  0  0  0  0  0
   37.3440   31.3980   47.5050 C   0  0  0  0  0  0  0  0  0  0  0  0
   38.1520   32.3960   48.0540 C   0  0  0  0  0  0  0  0  0  0  0  0
   39.1550   33.1370   47.5460 N   0  0  0  0  0  0  0  0  0  0  0  0
   39.6210   33.9740   48.4890 C   0  0  0  0  0  0  0  0  0  0  0  0
   38.9040   33.7690   49.6270 N   0  0  0  0  0  0  0  0  0  0  0  0
   38.0140   32.8090   49.3510 C   0  0  0  0  0  0  0  0  0  0  0  0
   37.0610   32.2300   50.1340 C   0  0  0  0  0  0  0  0  0  0  0  0
   35.5270   30.8600   50.3320 H   0  0  0  0  0  0  0  0  0  0  0  0
   37.4460   31.0730   46.4990 H   0  0  0  0  0  0  0  0  0  0  0  0
   39.4750   33.0270   46.5610 H   0  0  0  0  0  0  0  0  0  0  0  0
   40.4370   34.6740   48.3080 H   0  0  0  0  0  0  0  0  0  0  0  0
   36.9650   32.5760   51.1770 H   0  0  0  0  0  0  0  0  0  0  0  0
   32.9230   26.4810   46.9680 C   0  0  0  0  0  0  0  0  0  0  0  0
   32.2330   26.3700   47.8410 H   0  0  0  0  0  0  0  0  0  0  0  0
   32.2800   26.7090   46.1130 H   0  0  0  0  0  0  0  0  0  0  0  0
   33.6930   25.2740   46.8140 N   0  0  0  0  0  0  0  0  0  0  0  0
   33.8790   24.2120   47.6190 C   0  0  0  0  0  0  0  0  0  0  0  0
   33.3960   24.1740   48.5880 H   0  0  0  0  0  0  0  0  0  0  0  0
   34.7060   23.3420   46.9870 N   0  0  0  0  0  0  0  0  0  0  0  0
   35.0400   23.8390   45.8020 C   0  0  0  0  0  0  0  0  0  0  0  0
   35.8600   23.3170   44.8010 C   0  0  0  0  0  0  0  0  0  0  0  0
   36.0210   24.0590   43.6810 N   0  0  0  0  0  0  0  0  0  0  0  0
   35.3930   25.2630   43.5690 C   0  0  0  0  0  0  0  0  0  0  0  0
   35.4970   25.8840   42.6900 H   0  0  0  0  0  0  0  0  0  0  0  0
   34.6000   25.7730   44.5290 N   0  0  0  0  0  0  0  0  0  0  0  0
   34.4070   25.0640   45.6760 C   0  0  0  0  0  0  0  0  0  0  0  0
   36.5080   22.0510   44.9430 N   0  0  0  0  0  0  0  0  0  0  0  0
   36.2080   21.4650   44.1120 H   0  0  0  0  0  0  0  0  0  0  0  0
   37.1390   21.8560   45.7590 H   0  0  0  0  0  0  0  0  0  0  0  0
  1  7  1  0  0  0  0
  2 10  1  0  0  0  0
  2  1  2  0  0  0  0
  3  2  1  0  0  0  0
  4  3  2  0  0  0  0
  4  5  1  0  0  0  0
  5  6  2  0  0  0  0
  6  1  1  0  0  0  0
  8  3  1  0  0  0  0
  9 17  1  0  0  0  0
  9 18  1  0  0  0  0
 10  9  2  0  0  0  0
 11 12  2  0  0  0  0
 11 10  1  0  0  0  0
 12 16  1  0  0  0  0
 13 12  1  0  0  0  0
 13 14  1  0  0  0  0
 14 15  2  0  0  0  0
 16 15  1  0  0  0  0
 16 17  2  0  0  0  0
 17 22  1  0  0  0  0
 19 11  1  0  0  0  0
 20 13  1  0  0  0  0
 21 14  1  0  0  0  0
 23  5  1  0  0  0  0
 23 24  1  0  0  0  0
 25 23  1  0  0  0  0
 26 23  1  0  0  0  0
 26 27  1  0  0  0  0
 27 28  1  0  0  0  0
 29 27  2  0  0  0  0
 30 29  1  0  0  0  0
 31 37  1  0  0  0  0
 31 30  2  0  0  0  0
 32 31  1  0  0  0  0
 33 32  2  0  0  0  0
 33 35  1  0  0  0  0
 34 33  1  0  0  0  0
 35 36  2  0  0  0  0
 36 30  1  0  0  0  0
 36 26  1  0  0  0  0
 37 39  1  0  0  0  0
 38 37  1  0  0  0  0
M  END
>  <minimizedAffinity>
-5.68446827

>  <minimizedRMSD>
2.11934209

$$$$
