
 OpenBabel03272510053D

 42 45  0  0  0  0  0  0  0  0999 V2000
   37.4370   23.9260   32.9260 C   0  0  0  0  0  0  0  0  0  0  0  0
   37.6560   22.7620   33.6010 C   0  0  0  0  0  0  0  0  0  0  0  0
   37.0180   21.6000   33.1860 C   0  0  0  0  0  0  0  0  0  0  0  0
   36.1570   21.5610   32.1090 C   0  0  0  0  0  0  0  0  0  0  0  0
   35.9150   22.7180   31.4130 C   0  0  0  0  0  0  0  0  0  0  0  0
   36.5600   23.8540   31.8430 C   0  0  0  0  0  0  0  0  0  0  0  0
   37.2140   20.6750   33.7470 H   0  0  0  0  0  0  0  0  0  0  0  0
   35.7200   20.6190   31.8730 H   0  0  0  0  0  0  0  0  0  0  0  0
   35.2440   22.6380   30.5940 H   0  0  0  0  0  0  0  0  0  0  0  0
   36.2810   24.7060   31.2100 H   0  0  0  0  0  0  0  0  0  0  0  0
   40.6040   22.1730   35.7160 C   0  0  0  0  0  0  0  0  0  0  0  0
   39.7620   22.2480   34.6120 C   0  0  0  0  0  0  0  0  0  0  0  0
   38.4930   22.7120   34.7510 C   0  0  0  0  0  0  0  0  0  0  0  0
   38.1010   23.0970   35.9990 N   0  0  0  0  0  0  0  0  0  0  0  0
   38.9100   23.0300   37.0620 C   0  0  0  0  0  0  0  0  0  0  0  0
   40.1550   22.5650   36.9100 N   0  0  0  0  0  0  0  0  0  0  0  0
   41.6270   21.8290   35.7810 H   0  0  0  0  0  0  0  0  0  0  0  0
   40.3670   21.9180   33.8030 H   0  0  0  0  0  0  0  0  0  0  0  0
   38.3750   23.5530   38.3460 C   0  0  0  0  0  0  0  0  0  0  0  0
   39.3620   23.6490   39.3140 F   0  0  0  0  0  0  0  0  0  0  0  0
   37.9850   24.9330   38.1530 F   0  0  0  0  0  0  0  0  0  0  0  0
   37.2880   22.9880   38.8180 F   0  0  0  0  0  0  0  0  0  0  0  0
   38.2050   25.4200   33.3250 S   0  0  0  0  0  0  0  0  0  0  0  0
   39.5640   25.1820   33.8600 O   0  0  0  0  0  0  0  0  0  0  0  0
   37.5370   25.6330   34.6690 O   0  0  0  0  0  0  0  0  0  0  0  0
   37.7200   26.9850   32.9360 C   0  0  0  0  0  0  0  0  0  0  0  0
   36.5850   26.9250   32.8060 H   0  0  0  0  0  0  0  0  0  0  0  0
   37.8460   27.8990   33.4710 H   0  0  0  0  0  0  0  0  0  0  0  0
   38.1470   27.2720   31.5670 N   0  0  0  0  0  0  0  0  0  0  0  0
   39.0220   26.4930   30.8850 C   0  0  0  0  0  0  0  0  0  0  0  0
   39.4940   25.5870   31.2760 H   0  0  0  0  0  0  0  0  0  0  0  0
   39.2260   27.0060   29.6510 N   0  0  0  0  0  0  0  0  0  0  0  0
   38.4900   28.1100   29.5250 C   0  0  0  0  0  0  0  0  0  0  0  0
   38.2490   29.0680   28.5580 C   0  0  0  0  0  0  0  0  0  0  0  0
   37.4030   30.0820   28.8100 N   0  0  0  0  0  0  0  0  0  0  0  0
   36.7460   30.2380   29.9860 C   0  0  0  0  0  0  0  0  0  0  0  0
   36.0690   31.0370   30.2080 H   0  0  0  0  0  0  0  0  0  0  0  0
   36.9810   29.3040   30.9290 N   0  0  0  0  0  0  0  0  0  0  0  0
   37.8230   28.2720   30.7160 C   0  0  0  0  0  0  0  0  0  0  0  0
   38.9230   28.9350   27.3060 N   0  0  0  0  0  0  0  0  0  0  0  0
   39.9690   28.8020   27.1700 H   0  0  0  0  0  0  0  0  0  0  0  0
   38.3380   28.9710   26.4380 H   0  0  0  0  0  0  0  0  0  0  0  0
  1 23  1  0  0  0  0
  1  2  1  0  0  0  0
  2 13  1  0  0  0  0
  3  2  2  0  0  0  0
  3  7  1  0  0  0  0
  4  3  1  0  0  0  0
  5  6  1  0  0  0  0
  5  4  2  0  0  0  0
  6  1  2  0  0  0  0
  8  4  1  0  0  0  0
  9  5  1  0  0  0  0
 10  6  1  0  0  0  0
 11 17  1  0  0  0  0
 11 16  1  0  0  0  0
 12 13  1  0  0  0  0
 12 11  2  0  0  0  0
 13 14  2  0  0  0  0
 14 15  1  0  0  0  0
 15 19  1  0  0  0  0
 16 15  2  0  0  0  0
 18 12  1  0  0  0  0
 19 22  1  0  0  0  0
 19 20  1  0  0  0  0
 21 19  1  0  0  0  0
 23 24  2  0  0  0  0
 23 25  2  0  0  0  0
 26 23  1  0  0  0  0
 26 28  1  0  0  0  0
 27 26  1  0  0  0  0
 29 26  1  0  0  0  0
 30 31  1  0  0  0  0
 30 29  1  0  0  0  0
 32 30  2  0  0  0  0
 33 32  1  0  0  0  0
 33 39  1  0  0  0  0
 34 35  1  0  0  0  0
 34 33  2  0  0  0  0
 35 36  2  0  0  0  0
 36 37  1  0  0  0  0
 36 38  1  0  0  0  0
 39 38  2  0  0  0  0
 39 29  1  0  0  0  0
 40 34  1  0  0  0  0
 41 40  1  0  0  0  0
 42 40  1  0  0  0  0
M  END
>  <minimizedAffinity>
-6.47946548

$$$$

 OpenBabel03272510053D

 42 45  0  0  0  0  0  0  0  0999 V2000
   38.9990   23.4990   36.0040 C   0  0  0  0  0  0  0  0  0  0  0  0
   38.4110   24.7210   35.8730 C   0  0  0  0  0  0  0  0  0  0  0  0
   37.9300   25.3730   37.0020 C   0  0  0  0  0  0  0  0  0  0  0  0
   38.0130   24.8360   38.2700 C   0  0  0  0  0  0  0  0  0  0  0  0
   38.5960   23.6050   38.4300 C   0  0  0  0  0  0  0  0  0  0  0  0
   39.0660   22.9830   37.2980 C   0  0  0  0  0  0  0  0  0  0  0  0
   37.4620   26.3590   36.8680 H   0  0  0  0  0  0  0  0  0  0  0  0
   37.6130   25.4180   39.0680 H   0  0  0  0  0  0  0  0  0  0  0  0
   38.6340   23.2340   39.4250 H   0  0  0  0  0  0  0  0  0  0  0  0
   39.5030   22.0100   37.5600 H   0  0  0  0  0  0  0  0  0  0  0  0
   38.8980   27.0110   33.0390 C   0  0  0  0  0  0  0  0  0  0  0  0
   39.0450   26.3790   34.2680 C   0  0  0  0  0  0  0  0  0  0  0  0
   38.2400   25.3360   34.6010 C   0  0  0  0  0  0  0  0  0  0  0  0
   37.3080   24.9490   33.6850 N   0  0  0  0  0  0  0  0  0  0  0  0
   37.1670   25.5530   32.4990 C   0  0  0  0  0  0  0  0  0  0  0  0
   37.9630   26.5810   32.1890 N   0  0  0  0  0  0  0  0  0  0  0  0
   39.4450   27.8460   32.6230 H   0  0  0  0  0  0  0  0  0  0  0  0
   39.8650   26.8820   34.7210 H   0  0  0  0  0  0  0  0  0  0  0  0
   36.1600   24.9790   31.5690 C   0  0  0  0  0  0  0  0  0  0  0  0
   35.3790   25.9620   30.9850 F   0  0  0  0  0  0  0  0  0  0  0  0
   36.8550   24.4110   30.4340 F   0  0  0  0  0  0  0  0  0  0  0  0
   35.4300   23.9810   32.0150 F   0  0  0  0  0  0  0  0  0  0  0  0
   39.6690   22.6160   34.6800 S   0  0  0  0  0  0  0  0  0  0  0  0
   40.6600   21.6270   35.1610 O   0  0  0  0  0  0  0  0  0  0  0  0
   40.6810   23.6560   34.2390 O   0  0  0  0  0  0  0  0  0  0  0  0
   39.1490   22.5710   33.0790 C   0  0  0  0  0  0  0  0  0  0  0  0
   38.6890   23.6000   32.8830 H   0  0  0  0  0  0  0  0  0  0  0  0
   39.6960   22.3850   32.1820 H   0  0  0  0  0  0  0  0  0  0  0  0
   37.9690   21.7120   33.0020 N   0  0  0  0  0  0  0  0  0  0  0  0
   37.0780   21.5840   34.0170 C   0  0  0  0  0  0  0  0  0  0  0  0
   37.1460   22.0960   34.9810 H   0  0  0  0  0  0  0  0  0  0  0  0
   36.0970   20.7260   33.6580 N   0  0  0  0  0  0  0  0  0  0  0  0
   36.3410   20.2970   32.4200 C   0  0  0  0  0  0  0  0  0  0  0  0
   35.7540   19.4450   31.5040 C   0  0  0  0  0  0  0  0  0  0  0  0
   36.3200   19.2570   30.3000 N   0  0  0  0  0  0  0  0  0  0  0  0
   37.4660   19.8650   29.9050 C   0  0  0  0  0  0  0  0  0  0  0  0
   37.9350   19.7300   28.9520 H   0  0  0  0  0  0  0  0  0  0  0  0
   38.0390   20.6960   30.7980 N   0  0  0  0  0  0  0  0  0  0  0  0
   37.5030   20.9110   32.0170 C   0  0  0  0  0  0  0  0  0  0  0  0
   34.5440   18.7880   31.8850 N   0  0  0  0  0  0  0  0  0  0  0  0
   34.3910   18.2280   32.7750 H   0  0  0  0  0  0  0  0  0  0  0  0
   33.7300   18.8620   31.2310 H   0  0  0  0  0  0  0  0  0  0  0  0
  1  6  1  0  0  0  0
  2  1  2  0  0  0  0
  2  3  1  0  0  0  0
  3  4  2  0  0  0  0
  4  5  1  0  0  0  0
  4  8  1  0  0  0  0
  5  9  1  0  0  0  0
  6 10  1  0  0  0  0
  6  5  2  0  0  0  0
  7  3  1  0  0  0  0
 11 12  1  0  0  0  0
 12 13  2  0  0  0  0
 12 18  1  0  0  0  0
 13  2  1  0  0  0  0
 14 13  1  0  0  0  0
 15 14  2  0  0  0  0
 16 15  1  0  0  0  0
 16 11  2  0  0  0  0
 17 11  1  0  0  0  0
 19 22  1  0  0  0  0
 19 15  1  0  0  0  0
 20 19  1  0  0  0  0
 21 19  1  0  0  0  0
 23 24  2  0  0  0  0
 23  1  1  0  0  0  0
 25 23  2  0  0  0  0
 26 23  1  0  0  0  0
 27 26  1  0  0  0  0
 28 26  1  0  0  0  0
 29 26  1  0  0  0  0
 29 30  1  0  0  0  0
 30 31  1  0  0  0  0
 32 30  2  0  0  0  0
 33 32  1  0  0  0  0
 34 40  1  0  0  0  0
 34 33  2  0  0  0  0
 35 34  1  0  0  0  0
 36 35  2  0  0  0  0
 36 38  1  0  0  0  0
 37 36  1  0  0  0  0
 38 39  2  0  0  0  0
 39 33  1  0  0  0  0
 39 29  1  0  0  0  0
 40 41  1  0  0  0  0
 42 40  1  0  0  0  0
M  END
>  <minimizedAffinity>
-6.26151085

$$$$

 OpenBabel03272510053D

 42 45  0  0  0  0  0  0  0  0999 V2000
   38.1770   25.1860   35.8450 C   0  0  0  0  0  0  0  0  0  0  0  0
   38.1860   23.8660   35.5070 C   0  0  0  0  0  0  0  0  0  0  0  0
   38.1500   22.9030   36.5080 C   0  0  0  0  0  0  0  0  0  0  0  0
   38.1080   23.2190   37.8500 C   0  0  0  0  0  0  0  0  0  0  0  0
   38.1020   24.5400   38.2200 C   0  0  0  0  0  0  0  0  0  0  0  0
   38.1360   25.4730   37.2100 C   0  0  0  0  0  0  0  0  0  0  0  0
   38.1560   21.8460   36.2080 H   0  0  0  0  0  0  0  0  0  0  0  0
   38.0820   22.4060   38.5380 H   0  0  0  0  0  0  0  0  0  0  0  0
   38.0710   24.7320   39.2640 H   0  0  0  0  0  0  0  0  0  0  0  0
   38.1310   26.4850   37.6350 H   0  0  0  0  0  0  0  0  0  0  0  0
   39.6220   22.9460   32.2510 C   0  0  0  0  0  0  0  0  0  0  0  0
   39.5000   23.3440   33.5770 C   0  0  0  0  0  0  0  0  0  0  0  0
   38.2730   23.4430   34.1520 C   0  0  0  0  0  0  0  0  0  0  0  0
   37.1940   23.1310   33.3780 N   0  0  0  0  0  0  0  0  0  0  0  0
   37.3080   22.7430   32.1030 C   0  0  0  0  0  0  0  0  0  0  0  0
   38.5230   22.6580   31.5500 N   0  0  0  0  0  0  0  0  0  0  0  0
   40.5100   22.8210   31.6470 H   0  0  0  0  0  0  0  0  0  0  0  0
   40.5050   23.4720   33.9010 H   0  0  0  0  0  0  0  0  0  0  0  0
   36.0540   22.3640   31.4020 C   0  0  0  0  0  0  0  0  0  0  0  0
   36.2110   21.2080   30.6540 F   0  0  0  0  0  0  0  0  0  0  0  0
   35.0760   21.9690   32.3930 F   0  0  0  0  0  0  0  0  0  0  0  0
   35.4390   23.3030   30.7200 F   0  0  0  0  0  0  0  0  0  0  0  0
   38.1780   26.4680   34.6870 S   0  0  0  0  0  0  0  0  0  0  0  0
   39.5580   26.7720   34.2480 O   0  0  0  0  0  0  0  0  0  0  0  0
   38.0630   27.6190   35.6660 O   0  0  0  0  0  0  0  0  0  0  0  0
   36.8700   27.1460   33.8720 C   0  0  0  0  0  0  0  0  0  0  0  0
   36.0740   26.3240   33.8440 H   0  0  0  0  0  0  0  0  0  0  0  0
   36.2980   28.0180   34.0930 H   0  0  0  0  0  0  0  0  0  0  0  0
   37.2160   27.2540   32.4560 N   0  0  0  0  0  0  0  0  0  0  0  0
   37.8040   26.2500   31.7570 C   0  0  0  0  0  0  0  0  0  0  0  0
   38.0770   25.2740   32.1690 H   0  0  0  0  0  0  0  0  0  0  0  0
   38.0030   26.6390   30.4790 N   0  0  0  0  0  0  0  0  0  0  0  0
   37.5490   27.8840   30.3390 C   0  0  0  0  0  0  0  0  0  0  0  0
   37.4540   28.8260   29.3320 C   0  0  0  0  0  0  0  0  0  0  0  0
   36.9090   30.0290   29.5830 N   0  0  0  0  0  0  0  0  0  0  0  0
   36.4300   30.3980   30.7970 C   0  0  0  0  0  0  0  0  0  0  0  0
   35.9930   31.3490   31.0190 H   0  0  0  0  0  0  0  0  0  0  0  0
   36.5220   29.4790   31.7780 N   0  0  0  0  0  0  0  0  0  0  0  0
   37.0630   28.2620   31.5680 C   0  0  0  0  0  0  0  0  0  0  0  0
   37.9480   28.4720   28.0390 N   0  0  0  0  0  0  0  0  0  0  0  0
   38.9110   28.0770   27.8250 H   0  0  0  0  0  0  0  0  0  0  0  0
   37.3070   28.6120   27.2230 H   0  0  0  0  0  0  0  0  0  0  0  0
  1  6  1  0  0  0  0
  2  1  2  0  0  0  0
  2  3  1  0  0  0  0
  3  4  2  0  0  0  0
  4  5  1  0  0  0  0
  4  8  1  0  0  0  0
  5  9  1  0  0  0  0
  6 10  1  0  0  0  0
  6  5  2  0  0  0  0
  7  3  1  0  0  0  0
 11 12  1  0  0  0  0
 12 18  1  0  0  0  0
 12 13  2  0  0  0  0
 13  2  1  0  0  0  0
 14 13  1  0  0  0  0
 15 14  2  0  0  0  0
 16 15  1  0  0  0  0
 16 11  2  0  0  0  0
 17 11  1  0  0  0  0
 19 15  1  0  0  0  0
 19 21  1  0  0  0  0
 20 19  1  0  0  0  0
 22 19  1  0  0  0  0
 23 25  2  0  0  0  0
 23  1  1  0  0  0  0
 24 23  2  0  0  0  0
 26 28  1  0  0  0  0
 26 23  1  0  0  0  0
 27 26  1  0  0  0  0
 29 26  1  0  0  0  0
 30 31  1  0  0  0  0
 30 29  1  0  0  0  0
 32 30  2  0  0  0  0
 33 32  1  0  0  0  0
 33 39  1  0  0  0  0
 34 35  1  0  0  0  0
 34 33  2  0  0  0  0
 35 36  2  0  0  0  0
 36 37  1  0  0  0  0
 36 38  1  0  0  0  0
 39 38  2  0  0  0  0
 39 29  1  0  0  0  0
 40 34  1  0  0  0  0
 41 40  1  0  0  0  0
 42 40  1  0  0  0  0
M  END
>  <minimizedAffinity>
-6.25722027

$$$$

 OpenBabel03272510053D

 42 45  0  0  0  0  0  0  0  0999 V2000
   37.9770   25.5810   31.7840 C   0  0  0  0  0  0  0  0  0  0  0  0
   36.7170   26.0720   31.6160 C   0  0  0  0  0  0  0  0  0  0  0  0
   35.6870   25.2070   31.2670 C   0  0  0  0  0  0  0  0  0  0  0  0
   35.8770   23.8550   31.0730 C   0  0  0  0  0  0  0  0  0  0  0  0
   37.1370   23.3340   31.2310 C   0  0  0  0  0  0  0  0  0  0  0  0
   38.1370   24.2110   31.5790 C   0  0  0  0  0  0  0  0  0  0  0  0
   34.6790   25.6280   31.1400 H   0  0  0  0  0  0  0  0  0  0  0  0
   35.0210   23.2790   30.8070 H   0  0  0  0  0  0  0  0  0  0  0  0
   37.2330   22.2890   31.0690 H   0  0  0  0  0  0  0  0  0  0  0  0
   39.0900   23.6740   31.6690 H   0  0  0  0  0  0  0  0  0  0  0  0
   36.1460   29.5930   30.7290 C   0  0  0  0  0  0  0  0  0  0  0  0
   36.4100   28.2320   30.6330 C   0  0  0  0  0  0  0  0  0  0  0  0
   36.4310   27.4590   31.7510 C   0  0  0  0  0  0  0  0  0  0  0  0
   36.1800   28.0750   32.9410 N   0  0  0  0  0  0  0  0  0  0  0  0
   35.9220   29.3840   33.0350 C   0  0  0  0  0  0  0  0  0  0  0  0
   35.9110   30.1320   31.9270 N   0  0  0  0  0  0  0  0  0  0  0  0
   36.0960   30.3420   29.9500 H   0  0  0  0  0  0  0  0  0  0  0  0
   36.5210   28.0630   29.5900 H   0  0  0  0  0  0  0  0  0  0  0  0
   35.5930   29.9080   34.3870 C   0  0  0  0  0  0  0  0  0  0  0  0
   34.4040   29.3840   34.8680 F   0  0  0  0  0  0  0  0  0  0  0  0
   36.5680   29.3960   35.3260 F   0  0  0  0  0  0  0  0  0  0  0  0
   35.6540   31.2090   34.5590 F   0  0  0  0  0  0  0  0  0  0  0  0
   39.3240   26.5530   32.2560 S   0  0  0  0  0  0  0  0  0  0  0  0
   39.6900   27.4970   31.1770 O   0  0  0  0  0  0  0  0  0  0  0  0
   40.4130   25.5400   31.9610 O   0  0  0  0  0  0  0  0  0  0  0  0
   40.0140   26.7170   33.7840 C   0  0  0  0  0  0  0  0  0  0  0  0
   40.9980   26.1360   33.7350 H   0  0  0  0  0  0  0  0  0  0  0  0
   40.2880   27.5950   34.3250 H   0  0  0  0  0  0  0  0  0  0  0  0
   39.2490   25.9010   34.7250 N   0  0  0  0  0  0  0  0  0  0  0  0
   38.1390   26.3490   35.3630 C   0  0  0  0  0  0  0  0  0  0  0  0
   37.7060   27.3470   35.2460 H   0  0  0  0  0  0  0  0  0  0  0  0
   37.6500   25.3780   36.1650 N   0  0  0  0  0  0  0  0  0  0  0  0
   38.4300   24.3030   36.0540 C   0  0  0  0  0  0  0  0  0  0  0  0
   38.4860   23.0260   36.5800 C   0  0  0  0  0  0  0  0  0  0  0  0
   39.4690   22.1870   36.2110 N   0  0  0  0  0  0  0  0  0  0  0  0
   40.4440   22.5150   35.3280 C   0  0  0  0  0  0  0  0  0  0  0  0
   41.2360   21.8640   35.0210 H   0  0  0  0  0  0  0  0  0  0  0  0
   40.3900   23.7600   34.8150 N   0  0  0  0  0  0  0  0  0  0  0  0
   39.4210   24.6320   35.1600 C   0  0  0  0  0  0  0  0  0  0  0  0
   37.4730   22.6450   37.5130 N   0  0  0  0  0  0  0  0  0  0  0  0
   37.1890   23.1860   38.3830 H   0  0  0  0  0  0  0  0  0  0  0  0
   36.9590   21.7520   37.3270 H   0  0  0  0  0  0  0  0  0  0  0  0
  1 23  1  0  0  0  0
  2 13  1  0  0  0  0
  2  1  1  0  0  0  0
  3  2  2  0  0  0  0
  4  5  2  0  0  0  0
  4  3  1  0  0  0  0
  5  6  1  0  0  0  0
  6 10  1  0  0  0  0
  6  1  2  0  0  0  0
  7  3  1  0  0  0  0
  8  4  1  0  0  0  0
  9  5  1  0  0  0  0
 11 16  1  0  0  0  0
 12 11  2  0  0  0  0
 12 13  1  0  0  0  0
 13 14  2  0  0  0  0
 14 15  1  0  0  0  0
 15 19  1  0  0  0  0
 16 15  2  0  0  0  0
 17 11  1  0  0  0  0
 18 12  1  0  0  0  0
 19 22  1  0  0  0  0
 19 20  1  0  0  0  0
 19 21  1  0  0  0  0
 23 26  1  0  0  0  0
 24 23  2  0  0  0  0
 25 23  2  0  0  0  0
 26 28  1  0  0  0  0
 26 29  1  0  0  0  0
 27 26  1  0  0  0  0
 29 39  1  0  0  0  0
 29 30  1  0  0  0  0
 30 32  2  0  0  0  0
 31 30  1  0  0  0  0
 33 32  1  0  0  0  0
 33 34  1  0  0  0  0
 34 40  1  0  0  0  0
 35 34  2  0  0  0  0
 36 35  1  0  0  0  0
 37 36  1  0  0  0  0
 38 39  1  0  0  0  0
 38 36  2  0  0  0  0
 39 33  2  0  0  0  0
 40 41  1  0  0  0  0
 42 40  1  0  0  0  0
M  END
>  <minimizedAffinity>
-6.16265917

$$$$

 OpenBabel03272510053D

 42 45  0  0  0  0  0  0  0  0999 V2000
   40.3120   24.9130   33.0540 C   0  0  0  0  0  0  0  0  0  0  0  0
   40.7960   25.1710   34.3010 C   0  0  0  0  0  0  0  0  0  0  0  0
   41.5420   26.3220   34.5210 C   0  0  0  0  0  0  0  0  0  0  0  0
   41.8290   27.2310   33.5240 C   0  0  0  0  0  0  0  0  0  0  0  0
   41.3590   26.9940   32.2570 C   0  0  0  0  0  0  0  0  0  0  0  0
   40.6210   25.8500   32.0670 C   0  0  0  0  0  0  0  0  0  0  0  0
   41.9180   26.5080   35.5370 H   0  0  0  0  0  0  0  0  0  0  0  0
   42.4100   28.0820   33.7970 H   0  0  0  0  0  0  0  0  0  0  0  0
   41.6070   27.7220   31.5240 H   0  0  0  0  0  0  0  0  0  0  0  0
   40.3090   25.7750   31.0170 H   0  0  0  0  0  0  0  0  0  0  0  0
   41.4100   22.4960   36.7460 C   0  0  0  0  0  0  0  0  0  0  0  0
   41.5810   23.3990   35.7030 C   0  0  0  0  0  0  0  0  0  0  0  0
   40.5900   24.2710   35.3830 C   0  0  0  0  0  0  0  0  0  0  0  0
   39.4480   24.2180   36.1270 N   0  0  0  0  0  0  0  0  0  0  0  0
   39.2820   23.3540   37.1340 C   0  0  0  0  0  0  0  0  0  0  0  0
   40.2650   22.4980   37.4320 N   0  0  0  0  0  0  0  0  0  0  0  0
   42.0870   21.7430   37.1240 H   0  0  0  0  0  0  0  0  0  0  0  0
   42.5710   23.2130   35.3610 H   0  0  0  0  0  0  0  0  0  0  0  0
   38.0160   23.4580   37.9060 C   0  0  0  0  0  0  0  0  0  0  0  0
   38.0410   22.6700   39.0460 F   0  0  0  0  0  0  0  0  0  0  0  0
   37.9180   24.7960   38.4480 F   0  0  0  0  0  0  0  0  0  0  0  0
   36.8930   23.3110   37.2410 F   0  0  0  0  0  0  0  0  0  0  0  0
   39.3400   23.5370   32.6730 S   0  0  0  0  0  0  0  0  0  0  0  0
   40.1570   22.3040   32.6770 O   0  0  0  0  0  0  0  0  0  0  0  0
   39.3250   23.7160   31.1670 O   0  0  0  0  0  0  0  0  0  0  0  0
   37.6610   23.4310   32.5880 C   0  0  0  0  0  0  0  0  0  0  0  0
   37.4440   22.8520   31.6260 H   0  0  0  0  0  0  0  0  0  0  0  0
   36.9630   23.0120   33.2760 H   0  0  0  0  0  0  0  0  0  0  0  0
   37.1330   24.7520   32.2510 N   0  0  0  0  0  0  0  0  0  0  0  0
   36.6740   25.0730   31.0160 C   0  0  0  0  0  0  0  0  0  0  0  0
   36.6510   24.3950   30.1570 H   0  0  0  0  0  0  0  0  0  0  0  0
   36.2520   26.3570   31.0050 N   0  0  0  0  0  0  0  0  0  0  0  0
   36.4310   26.8720   32.2210 C   0  0  0  0  0  0  0  0  0  0  0  0
   36.2180   28.0810   32.8560 C   0  0  0  0  0  0  0  0  0  0  0  0
   36.5400   28.2270   34.1520 N   0  0  0  0  0  0  0  0  0  0  0  0
   37.0790   27.2400   34.9090 C   0  0  0  0  0  0  0  0  0  0  0  0
   37.3440   27.3340   35.9420 H   0  0  0  0  0  0  0  0  0  0  0  0
   37.2870   26.0610   34.2900 N   0  0  0  0  0  0  0  0  0  0  0  0
   36.9780   25.8730   32.9900 C   0  0  0  0  0  0  0  0  0  0  0  0
   35.6510   29.1450   32.0900 N   0  0  0  0  0  0  0  0  0  0  0  0
   36.0020   29.4960   31.1510 H   0  0  0  0  0  0  0  0  0  0  0  0
   34.8100   29.6280   32.4860 H   0  0  0  0  0  0  0  0  0  0  0  0
  1  2  1  0  0  0  0
  2  3  2  0  0  0  0
  2 13  1  0  0  0  0
  3  7  1  0  0  0  0
  4  8  1  0  0  0  0
  4  3  1  0  0  0  0
  5  4  2  0  0  0  0
  6  5  1  0  0  0  0
  6  1  2  0  0  0  0
  9  5  1  0  0  0  0
 10  6  1  0  0  0  0
 11 17  1  0  0  0  0
 11 16  1  0  0  0  0
 12 11  2  0  0  0  0
 13 12  1  0  0  0  0
 13 14  2  0  0  0  0
 14 15  1  0  0  0  0
 15 16  2  0  0  0  0
 15 19  1  0  0  0  0
 18 12  1  0  0  0  0
 19 21  1  0  0  0  0
 19 20  1  0  0  0  0
 22 19  1  0  0  0  0
 23 24  2  0  0  0  0
 23  1  1  0  0  0  0
 25 23  2  0  0  0  0
 26 23  1  0  0  0  0
 26 28  1  0  0  0  0
 27 26  1  0  0  0  0
 29 26  1  0  0  0  0
 29 39  1  0  0  0  0
 30 29  1  0  0  0  0
 31 30  1  0  0  0  0
 32 30  2  0  0  0  0
 32 33  1  0  0  0  0
 33 34  2  0  0  0  0
 33 39  1  0  0  0  0
 34 35  1  0  0  0  0
 35 36  2  0  0  0  0
 36 37  1  0  0  0  0
 38 36  1  0  0  0  0
 39 38  2  0  0  0  0
 40 42  1  0  0  0  0
 40 34  1  0  0  0  0
 41 40  1  0  0  0  0
M  END
>  <minimizedAffinity>
-6.12492323

$$$$

 OpenBabel03272510053D

 42 45  0  0  0  0  0  0  0  0999 V2000
   37.0690   23.3120   32.4890 C   0  0  0  0  0  0  0  0  0  0  0  0
   37.3860   22.2920   33.3350 C   0  0  0  0  0  0  0  0  0  0  0  0
   36.7760   21.0540   33.1730 C   0  0  0  0  0  0  0  0  0  0  0  0
   35.8480   20.8000   32.1850 C   0  0  0  0  0  0  0  0  0  0  0  0
   35.5060   21.8100   31.3220 C   0  0  0  0  0  0  0  0  0  0  0  0
   36.1250   23.0240   31.5030 C   0  0  0  0  0  0  0  0  0  0  0  0
   37.0520   20.2480   33.8670 H   0  0  0  0  0  0  0  0  0  0  0  0
   35.4400   19.8160   32.1470 H   0  0  0  0  0  0  0  0  0  0  0  0
   34.7860   21.5650   30.5800 H   0  0  0  0  0  0  0  0  0  0  0  0
   35.7650   23.7430   30.7560 H   0  0  0  0  0  0  0  0  0  0  0  0
   40.5240   22.3010   35.2490 C   0  0  0  0  0  0  0  0  0  0  0  0
   39.6050   22.1510   34.2170 C   0  0  0  0  0  0  0  0  0  0  0  0
   38.2990   22.4710   34.4110 C   0  0  0  0  0  0  0  0  0  0  0  0
   37.9480   22.9410   35.6430 N   0  0  0  0  0  0  0  0  0  0  0  0
   38.8300   23.0900   36.6360 C   0  0  0  0  0  0  0  0  0  0  0  0
   40.1110   22.7650   36.4310 N   0  0  0  0  0  0  0  0  0  0  0  0
   41.5850   22.0930   35.2640 H   0  0  0  0  0  0  0  0  0  0  0  0
   40.1910   21.8090   33.3980 H   0  0  0  0  0  0  0  0  0  0  0  0
   38.3220   23.6820   37.9020 C   0  0  0  0  0  0  0  0  0  0  0  0
   37.2720   22.9470   38.4290 F   0  0  0  0  0  0  0  0  0  0  0  0
   39.3450   23.5440   38.9160 F   0  0  0  0  0  0  0  0  0  0  0  0
   38.0600   24.9690   37.9000 F   0  0  0  0  0  0  0  0  0  0  0  0
   37.7910   24.8790   32.5700 S   0  0  0  0  0  0  0  0  0  0  0  0
   37.0970   25.7220   33.5690 O   0  0  0  0  0  0  0  0  0  0  0  0
   37.1090   25.4750   31.3550 O   0  0  0  0  0  0  0  0  0  0  0  0
   39.2460   25.3990   31.8990 C   0  0  0  0  0  0  0  0  0  0  0  0
   39.6950   24.4730   31.4000 H   0  0  0  0  0  0  0  0  0  0  0  0
   39.4390   26.1660   31.1850 H   0  0  0  0  0  0  0  0  0  0  0  0
   40.1980   25.6260   32.9850 N   0  0  0  0  0  0  0  0  0  0  0  0
   39.9600   26.4780   34.0130 C   0  0  0  0  0  0  0  0  0  0  0  0
   39.0510   27.0740   34.1390 H   0  0  0  0  0  0  0  0  0  0  0  0
   41.0150   26.4810   34.8570 N   0  0  0  0  0  0  0  0  0  0  0  0
   41.9360   25.6390   34.3880 C   0  0  0  0  0  0  0  0  0  0  0  0
   43.1920   25.1950   34.7560 C   0  0  0  0  0  0  0  0  0  0  0  0
   43.8410   24.2990   33.9930 N   0  0  0  0  0  0  0  0  0  0  0  0
   43.3330   23.7810   32.8480 C   0  0  0  0  0  0  0  0  0  0  0  0
   43.8320   23.0670   32.2250 H   0  0  0  0  0  0  0  0  0  0  0  0
   42.1080   24.2130   32.4890 N   0  0  0  0  0  0  0  0  0  0  0  0
   41.4250   25.1110   33.2260 C   0  0  0  0  0  0  0  0  0  0  0  0
   43.7580   25.7200   35.9580 N   0  0  0  0  0  0  0  0  0  0  0  0
   43.8500   26.7480   36.2090 H   0  0  0  0  0  0  0  0  0  0  0  0
   44.1160   25.0320   36.6620 H   0  0  0  0  0  0  0  0  0  0  0  0
  1 23  1  0  0  0  0
  1  2  1  0  0  0  0
  2 13  1  0  0  0  0
  3  2  2  0  0  0  0
  3  7  1  0  0  0  0
  4  3  1  0  0  0  0
  5  6  1  0  0  0  0
  5  4  2  0  0  0  0
  6  1  2  0  0  0  0
  8  4  1  0  0  0  0
  9  5  1  0  0  0  0
 10  6  1  0  0  0  0
 11 17  1  0  0  0  0
 11 16  1  0  0  0  0
 12 13  1  0  0  0  0
 12 11  2  0  0  0  0
 13 14  2  0  0  0  0
 14 15  1  0  0  0  0
 15 19  1  0  0  0  0
 16 15  2  0  0  0  0
 18 12  1  0  0  0  0
 19 20  1  0  0  0  0
 19 21  1  0  0  0  0
 22 19  1  0  0  0  0
 23 24  2  0  0  0  0
 25 23  2  0  0  0  0
 26 23  1  0  0  0  0
 26 29  1  0  0  0  0
 27 26  1  0  0  0  0
 28 26  1  0  0  0  0
 29 39  1  0  0  0  0
 29 30  1  0  0  0  0
 30 31  1  0  0  0  0
 30 32  2  0  0  0  0
 33 34  1  0  0  0  0
 33 32  1  0  0  0  0
 34 40  1  0  0  0  0
 35 34  2  0  0  0  0
 36 35  1  0  0  0  0
 37 36  1  0  0  0  0
 38 36  2  0  0  0  0
 38 39  1  0  0  0  0
 39 33  2  0  0  0  0
 40 41  1  0  0  0  0
 40 42  1  0  0  0  0
M  END
>  <minimizedAffinity>
-6.11067677

$$$$

 OpenBabel03272510053D

 42 45  0  0  0  0  0  0  0  0999 V2000
   41.1540   25.1080   34.9980 C   0  0  0  0  0  0  0  0  0  0  0  0
   40.9280   23.9320   35.6480 C   0  0  0  0  0  0  0  0  0  0  0  0
   41.9990   23.2340   36.1920 C   0  0  0  0  0  0  0  0  0  0  0  0
   43.3030   23.6740   36.1030 C   0  0  0  0  0  0  0  0  0  0  0  0
   43.5610   24.8530   35.4510 C   0  0  0  0  0  0  0  0  0  0  0  0
   42.4830   25.5250   34.9240 C   0  0  0  0  0  0  0  0  0  0  0  0
   41.7880   22.2890   36.7130 H   0  0  0  0  0  0  0  0  0  0  0  0
   44.0510   23.0640   36.5540 H   0  0  0  0  0  0  0  0  0  0  0  0
   44.5800   25.1490   35.4070 H   0  0  0  0  0  0  0  0  0  0  0  0
   42.8210   26.4440   34.4280 H   0  0  0  0  0  0  0  0  0  0  0  0
   37.6540   23.0170   37.0460 C   0  0  0  0  0  0  0  0  0  0  0  0
   38.9270   23.5570   36.9050 C   0  0  0  0  0  0  0  0  0  0  0  0
   39.6230   23.3750   35.7520 C   0  0  0  0  0  0  0  0  0  0  0  0
   39.0180   22.6560   34.7640 N   0  0  0  0  0  0  0  0  0  0  0  0
   37.7910   22.1390   34.8960 C   0  0  0  0  0  0  0  0  0  0  0  0
   37.1220   22.3220   36.0390 N   0  0  0  0  0  0  0  0  0  0  0  0
   36.9740   23.0650   37.8860 H   0  0  0  0  0  0  0  0  0  0  0  0
   39.0890   24.0800   37.8160 H   0  0  0  0  0  0  0  0  0  0  0  0
   37.2260   21.4410   33.7110 C   0  0  0  0  0  0  0  0  0  0  0  0
   36.0750   20.7380   34.0280 F   0  0  0  0  0  0  0  0  0  0  0  0
   36.7430   22.4370   32.7800 F   0  0  0  0  0  0  0  0  0  0  0  0
   38.0520   20.7180   32.9900 F   0  0  0  0  0  0  0  0  0  0  0  0
   39.8980   26.0800   34.3190 S   0  0  0  0  0  0  0  0  0  0  0  0
   40.4610   27.2980   33.6950 O   0  0  0  0  0  0  0  0  0  0  0  0
   39.4500   26.7500   35.6030 O   0  0  0  0  0  0  0  0  0  0  0  0
   38.2820   25.6800   34.0670 C   0  0  0  0  0  0  0  0  0  0  0  0
   38.3020   24.6820   33.5090 H   0  0  0  0  0  0  0  0  0  0  0  0
   37.4900   25.5400   34.7680 H   0  0  0  0  0  0  0  0  0  0  0  0
   37.7420   26.5690   33.0400 N   0  0  0  0  0  0  0  0  0  0  0  0
   37.9610   26.3890   31.7140 C   0  0  0  0  0  0  0  0  0  0  0  0
   38.5530   25.5780   31.2790 H   0  0  0  0  0  0  0  0  0  0  0  0
   37.3410   27.3620   31.0120 N   0  0  0  0  0  0  0  0  0  0  0  0
   36.7190   28.1730   31.8690 C   0  0  0  0  0  0  0  0  0  0  0  0
   35.9380   29.3110   31.8100 C   0  0  0  0  0  0  0  0  0  0  0  0
   35.4720   29.8680   32.9400 N   0  0  0  0  0  0  0  0  0  0  0  0
   35.7230   29.3760   34.1790 C   0  0  0  0  0  0  0  0  0  0  0  0
   35.3620   29.8030   35.0920 H   0  0  0  0  0  0  0  0  0  0  0  0
   36.4840   28.2660   34.2370 N   0  0  0  0  0  0  0  0  0  0  0  0
   36.9720   27.6770   33.1260 C   0  0  0  0  0  0  0  0  0  0  0  0
   35.6530   29.8580   30.5210 N   0  0  0  0  0  0  0  0  0  0  0  0
   36.3670   30.0900   29.7690 H   0  0  0  0  0  0  0  0  0  0  0  0
   34.6490   30.0480   30.2900 H   0  0  0  0  0  0  0  0  0  0  0  0
  1  2  1  0  0  0  0
  2 13  1  0  0  0  0
  2  3  2  0  0  0  0
  3  7  1  0  0  0  0
  4  3  1  0  0  0  0
  4  8  1  0  0  0  0
  5  4  2  0  0  0  0
  6  1  2  0  0  0  0
  6  5  1  0  0  0  0
  9  5  1  0  0  0  0
 10  6  1  0  0  0  0
 11 17  1  0  0  0  0
 12 11  1  0  0  0  0
 12 18  1  0  0  0  0
 13 12  2  0  0  0  0
 14 15  2  0  0  0  0
 14 13  1  0  0  0  0
 15 16  1  0  0  0  0
 16 11  2  0  0  0  0
 19 20  1  0  0  0  0
 19 15  1  0  0  0  0
 21 19  1  0  0  0  0
 22 19  1  0  0  0  0
 23  1  1  0  0  0  0
 23 25  2  0  0  0  0
 24 23  2  0  0  0  0
 26 23  1  0  0  0  0
 26 28  1  0  0  0  0
 27 26  1  0  0  0  0
 29 39  1  0  0  0  0
 29 26  1  0  0  0  0
 30 29  1  0  0  0  0
 31 30  1  0  0  0  0
 32 30  2  0  0  0  0
 32 33  1  0  0  0  0
 33 39  1  0  0  0  0
 34 33  2  0  0  0  0
 34 35  1  0  0  0  0
 35 36  2  0  0  0  0
 36 38  1  0  0  0  0
 36 37  1  0  0  0  0
 39 38  2  0  0  0  0
 40 34  1  0  0  0  0
 41 40  1  0  0  0  0
 42 40  1  0  0  0  0
M  END
>  <minimizedAffinity>
-6.08992434

$$$$

 OpenBabel03272510053D

 42 45  0  0  0  0  0  0  0  0999 V2000
   38.2150   22.4620   31.9730 C   0  0  0  0  0  0  0  0  0  0  0  0
   36.9030   22.8000   32.1160 C   0  0  0  0  0  0  0  0  0  0  0  0
   35.9750   21.8190   32.4420 C   0  0  0  0  0  0  0  0  0  0  0  0
   36.3170   20.4950   32.6270 C   0  0  0  0  0  0  0  0  0  0  0  0
   37.6310   20.1260   32.4850 C   0  0  0  0  0  0  0  0  0  0  0  0
   38.5290   21.1160   32.1650 C   0  0  0  0  0  0  0  0  0  0  0  0
   34.9230   22.1190   32.5530 H   0  0  0  0  0  0  0  0  0  0  0  0
   35.5300   19.8220   32.8740 H   0  0  0  0  0  0  0  0  0  0  0  0
   37.8440   19.0960   32.6360 H   0  0  0  0  0  0  0  0  0  0  0  0
   39.5380   20.6920   32.0770 H   0  0  0  0  0  0  0  0  0  0  0  0
   34.9660   25.6250   30.7820 C   0  0  0  0  0  0  0  0  0  0  0  0
   35.4290   24.3370   31.0260 C   0  0  0  0  0  0  0  0  0  0  0  0
   36.4470   24.1310   31.9020 C   0  0  0  0  0  0  0  0  0  0  0  0
   36.9740   25.2280   32.5170 N   0  0  0  0  0  0  0  0  0  0  0  0
   36.5270   26.4680   32.2880 C   0  0  0  0  0  0  0  0  0  0  0  0
   35.5280   26.6540   31.4190 N   0  0  0  0  0  0  0  0  0  0  0  0
   34.1770   25.9610   30.1230 H   0  0  0  0  0  0  0  0  0  0  0  0
   34.7980   23.7200   30.4330 H   0  0  0  0  0  0  0  0  0  0  0  0
   37.1440   27.5610   33.0840 C   0  0  0  0  0  0  0  0  0  0  0  0
   38.5260   27.4670   33.1040 F   0  0  0  0  0  0  0  0  0  0  0  0
   36.9220   28.8130   32.3930 F   0  0  0  0  0  0  0  0  0  0  0  0
   36.6560   27.7800   34.2840 F   0  0  0  0  0  0  0  0  0  0  0  0
   39.4610   23.6020   31.6110 S   0  0  0  0  0  0  0  0  0  0  0  0
   39.2690   24.1730   30.2600 O   0  0  0  0  0  0  0  0  0  0  0  0
   40.5330   22.6060   31.2150 O   0  0  0  0  0  0  0  0  0  0  0  0
   40.5990   24.2770   32.6530 C   0  0  0  0  0  0  0  0  0  0  0  0
   41.6020   23.8270   32.3370 H   0  0  0  0  0  0  0  0  0  0  0  0
   40.8480   25.2990   32.8320 H   0  0  0  0  0  0  0  0  0  0  0  0
   40.4240   23.6800   33.9760 N   0  0  0  0  0  0  0  0  0  0  0  0
   41.0940   22.5740   34.3850 C   0  0  0  0  0  0  0  0  0  0  0  0
   41.8210   22.0210   33.7820 H   0  0  0  0  0  0  0  0  0  0  0  0
   40.7270   22.2580   35.6460 N   0  0  0  0  0  0  0  0  0  0  0  0
   39.8260   23.1480   36.0610 C   0  0  0  0  0  0  0  0  0  0  0  0
   39.0820   23.3880   37.2010 C   0  0  0  0  0  0  0  0  0  0  0  0
   38.2390   24.4330   37.2480 N   0  0  0  0  0  0  0  0  0  0  0  0
   38.0590   25.3000   36.2210 C   0  0  0  0  0  0  0  0  0  0  0  0
   37.3930   26.1380   36.2360 H   0  0  0  0  0  0  0  0  0  0  0  0
   38.7850   25.0660   35.1090 N   0  0  0  0  0  0  0  0  0  0  0  0
   39.6410   24.0280   35.0210 C   0  0  0  0  0  0  0  0  0  0  0  0
   39.2470   22.4950   38.3040 N   0  0  0  0  0  0  0  0  0  0  0  0
   39.1800   21.4350   38.2660 H   0  0  0  0  0  0  0  0  0  0  0  0
   39.4530   22.9190   39.2400 H   0  0  0  0  0  0  0  0  0  0  0  0
  1  2  2  0  0  0  0
  1  6  1  0  0  0  0
  2  3  1  0  0  0  0
  3  7  1  0  0  0  0
  3  4  2  0  0  0  0
  4  8  1  0  0  0  0
  5  4  1  0  0  0  0
  5  9  1  0  0  0  0
  6  5  2  0  0  0  0
 10  6  1  0  0  0  0
 11 12  2  0  0  0  0
 11 16  1  0  0  0  0
 12 13  1  0  0  0  0
 13  2  1  0  0  0  0
 13 14  2  0  0  0  0
 15 14  1  0  0  0  0
 15 19  1  0  0  0  0
 16 15  2  0  0  0  0
 17 11  1  0  0  0  0
 18 12  1  0  0  0  0
 19 20  1  0  0  0  0
 19 22  1  0  0  0  0
 21 19  1  0  0  0  0
 23  1  1  0  0  0  0
 23 26  1  0  0  0  0
 24 23  2  0  0  0  0
 25 23  2  0  0  0  0
 26 28  1  0  0  0  0
 26 29  1  0  0  0  0
 27 26  1  0  0  0  0
 29 30  1  0  0  0  0
 29 39  1  0  0  0  0
 30 32  2  0  0  0  0
 31 30  1  0  0  0  0
 32 33  1  0  0  0  0
 33 34  1  0  0  0  0
 34 35  2  0  0  0  0
 34 40  1  0  0  0  0
 36 37  1  0  0  0  0
 36 35  1  0  0  0  0
 38 36  2  0  0  0  0
 39 38  1  0  0  0  0
 39 33  2  0  0  0  0
 40 42  1  0  0  0  0
 41 40  1  0  0  0  0
M  END
>  <minimizedAffinity>
-6.07287502

$$$$

 OpenBabel03272510053D

 42 45  0  0  0  0  0  0  0  0999 V2000
   36.7700   29.6380   30.7380 C   0  0  0  0  0  0  0  0  0  0  0  0
   37.6250   28.5780   30.7080 C   0  0  0  0  0  0  0  0  0  0  0  0
   38.5200   28.4510   29.6530 C   0  0  0  0  0  0  0  0  0  0  0  0
   38.5870   29.3560   28.6140 C   0  0  0  0  0  0  0  0  0  0  0  0
   37.7350   30.4310   28.6170 C   0  0  0  0  0  0  0  0  0  0  0  0
   36.8610   30.5340   29.6730 C   0  0  0  0  0  0  0  0  0  0  0  0
   39.2000   27.5870   29.6540 H   0  0  0  0  0  0  0  0  0  0  0  0
   39.3090   29.1670   27.8540 H   0  0  0  0  0  0  0  0  0  0  0  0
   37.8240   31.0980   27.7950 H   0  0  0  0  0  0  0  0  0  0  0  0
   36.2360   31.4290   29.5550 H   0  0  0  0  0  0  0  0  0  0  0  0
   36.7180   25.5030   32.5060 C   0  0  0  0  0  0  0  0  0  0  0  0
   36.7780   26.5010   31.5410 C   0  0  0  0  0  0  0  0  0  0  0  0
   37.6000   27.5690   31.7110 C   0  0  0  0  0  0  0  0  0  0  0  0
   38.3490   27.6050   32.8500 N   0  0  0  0  0  0  0  0  0  0  0  0
   38.2980   26.6440   33.7780 C   0  0  0  0  0  0  0  0  0  0  0  0
   37.4790   25.6020   33.5990 N   0  0  0  0  0  0  0  0  0  0  0  0
   36.1250   24.5990   32.5290 H   0  0  0  0  0  0  0  0  0  0  0  0
   36.1180   26.1630   30.7790 H   0  0  0  0  0  0  0  0  0  0  0  0
   39.2240   26.7760   34.9340 C   0  0  0  0  0  0  0  0  0  0  0  0
   39.5600   25.5430   35.4680 F   0  0  0  0  0  0  0  0  0  0  0  0
   40.4950   27.2690   34.4480 F   0  0  0  0  0  0  0  0  0  0  0  0
   38.8970   27.6370   35.8700 F   0  0  0  0  0  0  0  0  0  0  0  0
   35.6440   29.9200   32.0180 S   0  0  0  0  0  0  0  0  0  0  0  0
   34.3680   30.4450   31.4830 O   0  0  0  0  0  0  0  0  0  0  0  0
   36.1910   31.2590   32.4720 O   0  0  0  0  0  0  0  0  0  0  0  0
   35.7420   29.4340   33.6270 C   0  0  0  0  0  0  0  0  0  0  0  0
   35.6360   28.2950   33.6050 H   0  0  0  0  0  0  0  0  0  0  0  0
   36.5170   29.5830   34.3450 H   0  0  0  0  0  0  0  0  0  0  0  0
   34.5050   29.8220   34.3010 N   0  0  0  0  0  0  0  0  0  0  0  0
   33.2900   29.3170   33.9710 C   0  0  0  0  0  0  0  0  0  0  0  0
   33.1090   28.5810   33.1810 H   0  0  0  0  0  0  0  0  0  0  0  0
   32.3380   29.8590   34.7620 N   0  0  0  0  0  0  0  0  0  0  0  0
   32.9230   30.7110   35.6040 C   0  0  0  0  0  0  0  0  0  0  0  0
   32.5370   31.5580   36.6270 C   0  0  0  0  0  0  0  0  0  0  0  0
   33.4560   32.2940   37.2740 N   0  0  0  0  0  0  0  0  0  0  0  0
   34.7800   32.2660   36.9860 C   0  0  0  0  0  0  0  0  0  0  0  0
   35.5290   32.8430   37.4890 H   0  0  0  0  0  0  0  0  0  0  0  0
   35.1560   31.4400   35.9900 N   0  0  0  0  0  0  0  0  0  0  0  0
   34.2660   30.6850   35.3140 C   0  0  0  0  0  0  0  0  0  0  0  0
   31.1490   31.6130   36.9580 N   0  0  0  0  0  0  0  0  0  0  0  0
   30.3490   31.7780   36.2770 H   0  0  0  0  0  0  0  0  0  0  0  0
   30.8880   31.4780   37.9630 H   0  0  0  0  0  0  0  0  0  0  0  0
  1 23  1  0  0  0  0
  2  1  1  0  0  0  0
  2 13  1  0  0  0  0
  3  7  1  0  0  0  0
  3  2  2  0  0  0  0
  4  5  2  0  0  0  0
  4  3  1  0  0  0  0
  5  6  1  0  0  0  0
  6  1  2  0  0  0  0
  8  4  1  0  0  0  0
  9  5  1  0  0  0  0
 10  6  1  0  0  0  0
 11 17  1  0  0  0  0
 11 16  1  0  0  0  0
 12 13  1  0  0  0  0
 12 11  2  0  0  0  0
 13 14  2  0  0  0  0
 14 15  1  0  0  0  0
 15 19  1  0  0  0  0
 16 15  2  0  0  0  0
 18 12  1  0  0  0  0
 19 20  1  0  0  0  0
 19 22  1  0  0  0  0
 21 19  1  0  0  0  0
 23 25  2  0  0  0  0
 23 26  1  0  0  0  0
 24 23  2  0  0  0  0
 26 29  1  0  0  0  0
 26 28  1  0  0  0  0
 27 26  1  0  0  0  0
 29 39  1  0  0  0  0
 30 29  1  0  0  0  0
 30 32  2  0  0  0  0
 31 30  1  0  0  0  0
 32 33  1  0  0  0  0
 33 34  1  0  0  0  0
 34 40  1  0  0  0  0
 34 35  2  0  0  0  0
 36 35  1  0  0  0  0
 36 37  1  0  0  0  0
 38 36  2  0  0  0  0
 39 33  2  0  0  0  0
 39 38  1  0  0  0  0
 40 42  1  0  0  0  0
 41 40  1  0  0  0  0
M  END
>  <minimizedAffinity>
-6.05746555

$$$$
