REMARK  Name = 
REMARK  6 active torsions:
REMARK  status: ('A' for Active; 'I' for Inactive)
REMARK    1  A    between atoms: C_1  and  S_17
REMARK    2  A    between atoms: C_2  and  C_9
REMARK    3  A    between atoms: C_11  and  C_13
REMARK    4  A    between atoms: S_17  and  C_20
REMARK    5  A    between atoms: C_20  and  N_29
REMARK    6  A    between atoms: C_34  and  N_35
REMARK                            x       y       z     vdW  Elec       q    Type
REMARK                         _______ _______ _______ _____ _____    ______ ____
ROOT
ATOM      1  C   UNL     1      38.164  31.241  44.924  0.00  0.00    +0.000 A 
ATOM      2  C   UNL     1      37.345  30.941  45.971  0.00  0.00    +0.000 A 
ATOM      3  C   UNL     1      36.112  30.349  45.727  0.00  0.00    +0.000 A 
ATOM      4  C   UNL     1      35.663  30.048  44.458  0.00  0.00    +0.000 A 
ATOM      5  C   UNL     1      36.465  30.343  43.385  0.00  0.00    +0.000 A 
ATOM      6  C   UNL     1      37.681  30.926  43.654  0.00  0.00    +0.000 A 
ATOM      7  H   UNL     1      35.472  30.115  46.590  0.00  0.00    +0.000 HD
ATOM      8  H   UNL     1      34.702  29.595  44.380  0.00  0.00    +0.000 HD
ATOM      9  H   UNL     1      36.075  30.094  42.429  0.00  0.00    +0.000 HD
ATOM     10  H   UNL     1      38.221  31.114  42.717  0.00  0.00    +0.000 HD
ENDROOT
BRANCH   2  13
ATOM     11  C   UNL     1      38.684  32.777  48.860  0.00  0.00    +0.000 A 
ATOM     12  C   UNL     1      38.310  32.443  47.564  0.00  0.00    +0.000 A 
ATOM     13  C   UNL     1      37.702  31.254  47.312  0.00  0.00    +0.000 A 
ATOM     14  N   UNL     1      37.479  30.429  48.375  0.00  0.00    +0.000 NA
ATOM     15  C   UNL     1      37.834  30.750  49.624  0.00  0.00    +0.000 A 
ATOM     16  N   UNL     1      38.437  31.921  49.854  0.00  0.00    +0.000 NA
ATOM     17  H   UNL     1      39.173  33.668  49.229  0.00  0.00    +0.000 HD
ATOM     18  H   UNL     1      38.582  33.295  46.989  0.00  0.00    +0.000 HD
BRANCH  15  19
ATOM     19  C   UNL     1      37.463  29.788  50.695  0.00  0.00    +0.000 C 
ATOM     20  F   UNL     1      37.725  30.296  51.957  0.00  0.00    +0.000 F 
ATOM     21  F   UNL     1      36.023  29.645  50.704  0.00  0.00    +0.000 F 
ATOM     22  F   UNL     1      37.895  28.554  50.570  0.00  0.00    +0.000 F 
ENDBRANCH  15  19
ENDBRANCH   2  13
BRANCH   1  23
ATOM     23  S   UNL     1      39.733  31.939  45.109  0.00  0.00    +0.000 S 
ATOM     24  O   UNL     1      39.684  33.400  44.880  0.00  0.00    +0.000 OA
ATOM     25  O   UNL     1      40.273  31.579  43.739  0.00  0.00    +0.000 OA
BRANCH  23  26
ATOM     26  C   UNL     1      41.125  31.236  45.745  0.00  0.00    +0.000 C 
ATOM     27  H   UNL     1      40.944  31.176  46.873  0.00  0.00    +0.000 HD
ATOM     28  H   UNL     1      41.581  30.296  45.531  0.00  0.00    +0.000 HD
BRANCH  26  29
ATOM     29  N   UNL     1      42.206  32.218  45.683  0.00  0.00    +0.000 N 
ATOM     30  C   UNL     1      43.037  32.340  44.618  0.00  0.00    +0.000 A 
ATOM     31  H   UNL     1      42.990  31.730  43.711  0.00  0.00    +0.000 HD
ATOM     32  N   UNL     1      43.932  33.326  44.847  0.00  0.00    +0.000 NA
ATOM     33  C   UNL     1      43.690  33.847  46.050  0.00  0.00    +0.000 A 
ATOM     34  C   UNL     1      44.215  34.842  46.853  0.00  0.00    +0.000 A 
ATOM     35  N   UNL     1      43.678  35.087  48.060  0.00  0.00    +0.000 NA
ATOM     36  C   UNL     1      42.621  34.404  48.565  0.00  0.00    +0.000 A 
ATOM     37  H   UNL     1      42.178  34.582  49.523  0.00  0.00    +0.000 HD
ATOM     38  N   UNL     1      42.109  33.434  47.782  0.00  0.00    +0.000 NA
ATOM     39  C   UNL     1      42.619  33.156  46.565  0.00  0.00    +0.000 A 
BRANCH  34  40
ATOM     40  N   UNL     1      45.329  35.583  46.353  0.00  0.00    +0.000 N 
ATOM     41  H   UNL     1      46.229  35.173  45.964  0.00  0.00    +0.000 HD
ATOM     42  H   UNL     1      45.258  36.628  46.368  0.00  0.00    +0.000 HD
ENDBRANCH  34  40
ENDBRANCH  26  29
ENDBRANCH  23  26
ENDBRANCH   1  23
TORSDOF 6
