
 OpenBabel03272506013D

 51 55  0  0  1  0  0  0  0  0999 V2000
   35.2980   29.9910   49.1710 C   0  0  2  0  0  0  0  0  0  0  0  0
   36.2270   31.0540   48.8230 C   0  0  0  0  0  0  0  0  0  0  0  0
   37.7110   30.7000   49.1710 C   0  0  2  0  0  0  0  0  0  0  0  0
   37.9120   30.4090   50.5710 C   0  0  0  0  0  0  0  0  0  0  0  0
   36.7700   29.6060   51.2050 C   0  0  0  0  0  0  0  0  0  0  0  0
   35.9080   28.9790   50.1520 C   0  0  0  0  0  0  0  0  0  0  0  0
   34.4160   30.3950   49.7510 H   0  0  0  0  0  0  0  0  0  0  0  0
   36.2930   31.4950   47.8550 H   0  0  0  0  0  0  0  0  0  0  0  0
   36.0580   31.9340   49.5350 H   0  0  0  0  0  0  0  0  0  0  0  0
   38.0210   29.9040   48.4960 H   0  0  0  0  0  0  0  0  0  0  0  0
   38.8720   29.8450   50.6860 H   0  0  0  0  0  0  0  0  0  0  0  0
   38.0330   31.2830   51.2460 H   0  0  0  0  0  0  0  0  0  0  0  0
   36.1530   30.2160   51.8870 H   0  0  0  0  0  0  0  0  0  0  0  0
   37.2160   28.7810   51.7770 H   0  0  0  0  0  0  0  0  0  0  0  0
   35.1240   28.4140   50.6620 H   0  0  0  0  0  0  0  0  0  0  0  0
   36.5280   28.2550   49.5840 H   0  0  0  0  0  0  0  0  0  0  0  0
   34.7520   29.2140   48.0600 C   0  0  0  0  0  0  0  0  0  0  0  0
   34.8720   29.8270   46.8200 C   0  0  0  0  0  0  0  0  0  0  0  0
   34.4080   29.1530   45.6940 C   0  0  0  0  0  0  0  0  0  0  0  0
   33.8470   27.9020   45.8620 N   0  0  0  0  0  0  0  0  0  0  0  0
   33.7410   27.3250   47.0830 C   0  0  0  0  0  0  0  0  0  0  0  0
   34.2020   28.0140   48.1350 N   0  0  0  0  0  0  0  0  0  0  0  0
   35.2460   30.7570   46.4140 H   0  0  0  0  0  0  0  0  0  0  0  0
   34.3930   29.4190   44.6490 H   0  0  0  0  0  0  0  0  0  0  0  0
   33.1540   26.0300   47.2080 N   0  0  0  0  0  0  0  0  0  0  0  0
   32.0770   25.5550   47.8620 C   0  0  0  0  0  0  0  0  0  0  0  0
   31.4510   26.2110   48.4500 H   0  0  0  0  0  0  0  0  0  0  0  0
   31.9700   24.2270   47.6410 N   0  0  0  0  0  0  0  0  0  0  0  0
   32.9920   23.8480   46.8350 C   0  0  0  0  0  0  0  0  0  0  0  0
   33.3460   22.6110   46.3090 C   0  0  0  0  0  0  0  0  0  0  0  0
   34.4400   22.5890   45.5320 N   0  0  0  0  0  0  0  0  0  0  0  0
   35.1820   23.6490   45.2450 C   0  0  0  0  0  0  0  0  0  0  0  0
   36.0740   23.6050   44.6060 H   0  0  0  0  0  0  0  0  0  0  0  0
   34.8300   24.8330   45.7590 N   0  0  0  0  0  0  0  0  0  0  0  0
   33.7410   24.9870   46.5610 C   0  0  0  0  0  0  0  0  0  0  0  0
   32.5980   21.4290   46.5730 N   0  0  0  0  0  0  0  0  0  0  0  0
   33.0570   20.5000   46.4930 H   0  0  0  0  0  0  0  0  0  0  0  0
   31.5920   21.4780   46.8460 H   0  0  0  0  0  0  0  0  0  0  0  0
   38.7280   30.7260   46.4100 Cl  0  0  0  0  0  0  0  0  0  0  0  0
   39.0030   32.0500   47.5190 C   0  0  0  0  0  0  0  0  0  0  0  0
   38.4430   31.9470   48.7690 C   0  0  0  0  0  0  0  0  0  0  0  0
   38.6770   33.0540   49.5730 C   0  0  0  0  0  0  0  0  0  0  0  0
   39.4050   34.1490   49.1440 C   0  0  0  0  0  0  0  0  0  0  0  0
   39.9410   34.1720   47.8590 C   0  0  0  0  0  0  0  0  0  0  0  0
   39.7320   33.0940   47.0300 C   0  0  0  0  0  0  0  0  0  0  0  0
   38.2400   33.0030   50.5820 H   0  0  0  0  0  0  0  0  0  0  0  0
   39.5240   34.9570   49.8590 H   0  0  0  0  0  0  0  0  0  0  0  0
   40.5070   35.0410   47.5520 H   0  0  0  0  0  0  0  0  0  0  0  0
   40.2760   33.1110   45.7170 N   0  0  0  0  0  0  0  0  0  0  0  0
   41.1740   32.6350   45.4610 H   0  0  0  0  0  0  0  0  0  0  0  0
   39.7880   33.6120   44.9440 H   0  0  0  0  0  0  0  0  0  0  0  0
  1  7  1  1  0  0  0
  1  6  1  0  0  0  0
  2  1  1  0  0  0  0
  2  3  1  0  0  0  0
  2  9  1  0  0  0  0
  3 10  1  6  0  0  0
  3  4  1  0  0  0  0
  4 11  1  0  0  0  0
  4  5  1  0  0  0  0
  4 12  1  0  0  0  0
  5 14  1  0  0  0  0
  5 13  1  0  0  0  0
  6 15  1  0  0  0  0
  6  5  1  0  0  0  0
  8  2  1  0  0  0  0
 16  6  1  0  0  0  0
 17 22  1  0  0  0  0
 17  1  1  0  0  0  0
 18 17  2  0  0  0  0
 19 20  2  0  0  0  0
 19 18  1  0  0  0  0
 20 21  1  0  0  0  0
 21 25  1  0  0  0  0
 21 22  2  0  0  0  0
 23 18  1  0  0  0  0
 24 19  1  0  0  0  0
 25 26  1  0  0  0  0
 26 27  1  0  0  0  0
 28 26  2  0  0  0  0
 29 28  1  0  0  0  0
 30 36  1  0  0  0  0
 30 29  2  0  0  0  0
 31 30  1  0  0  0  0
 32 31  2  0  0  0  0
 32 34  1  0  0  0  0
 33 32  1  0  0  0  0
 34 35  2  0  0  0  0
 35 29  1  0  0  0  0
 35 25  1  0  0  0  0
 36 38  1  0  0  0  0
 37 36  1  0  0  0  0
 39 40  1  0  0  0  0
 40 41  1  0  0  0  0
 41  3  1  0  0  0  0
 41 42  2  0  0  0  0
 42 46  1  0  0  0  0
 43 42  1  0  0  0  0
 43 47  1  0  0  0  0
 44 43  2  0  0  0  0
 45 40  2  0  0  0  0
 45 44  1  0  0  0  0
 48 44  1  0  0  0  0
 49 45  1  0  0  0  0
 50 49  1  0  0  0  0
 51 49  1  0  0  0  0
M  END
>  <minimizedAffinity>
-8.08767319

>  <minimizedRMSD>
1.43894851

$$$$
