REMARK  Name = 
REMARK  7 active torsions:
REMARK  status: ('A' for Active; 'I' for Inactive)
REMARK    1  A    between atoms: C_1  and  C_7
REMARK    2  A    between atoms: C_5  and  S_15
REMARK    3  A    between atoms: C_7  and  C_10
REMARK    4  A    between atoms: S_15  and  C_16
REMARK    5  A    between atoms: C_16  and  C_19
REMARK    6  A    between atoms: C_17  and  O_22
REMARK    7  A    between atoms: O_22  and  C_39
REMARK                            x       y       z     vdW  Elec       q    Type
REMARK                         _______ _______ _______ _____ _____    ______ ____
ROOT
ATOM      1  C   UNL     1      39.566  32.927  43.798  0.00  0.00    +0.000 C 
ATOM      2  H   UNL     1      39.689  33.837  43.155  0.00  0.00    +0.000 HD
ATOM      3  H   UNL     1      38.504  32.826  44.042  0.00  0.00    +0.000 HD
ENDROOT
BRANCH   1   6
ATOM      4  C   UNL     1      38.777  29.794  42.341  0.00  0.00    +0.000 C 
ATOM      5  C   UNL     1      38.797  31.294  42.081  0.00  0.00    +0.000 C 
ATOM      6  C   UNL     1      39.941  31.713  42.976  0.00  0.00    +0.000 C 
ATOM      7  O   UNL     1      40.308  30.654  43.747  0.00  0.00    +0.000 OA
ATOM      8  C   UNL     1      39.249  29.757  43.786  0.00  0.00    +0.000 C 
ATOM      9  H   UNL     1      39.495  29.296  41.668  0.00  0.00    +0.000 HD
ATOM     10  H   UNL     1      39.075  31.496  41.021  0.00  0.00    +0.000 HD
ATOM     11  H   UNL     1      37.859  31.777  42.400  0.00  0.00    +0.000 HD
ATOM     12  H   UNL     1      40.820  32.008  42.355  0.00  0.00    +0.000 HD
ATOM     13  H   UNL     1      38.399  30.163  44.383  0.00  0.00    +0.000 HD
ATOM     14  H   UNL     1      39.563  28.754  44.096  0.00  0.00    +0.000 HD
BRANCH   4  15
ATOM     15  O   UNL     1      37.502  29.281  42.211  0.00  0.00    +0.000 OA
BRANCH  15  18
ATOM     16 CL   UNL     1      37.000  26.789  43.645  0.00  0.00    +0.000 Cl
ATOM     17  C   UNL     1      36.767  27.053  41.932  0.00  0.00    +0.000 A 
ATOM     18  C   UNL     1      37.048  28.290  41.398  0.00  0.00    +0.000 A 
ATOM     19  C   UNL     1      36.837  28.411  40.049  0.00  0.00    +0.000 A 
ATOM     20  H   UNL     1      37.037  29.349  39.565  0.00  0.00    +0.000 HD
ATOM     21  C   UNL     1      36.381  27.389  39.272  0.00  0.00    +0.000 A 
ATOM     22  C   UNL     1      36.112  26.165  39.851  0.00  0.00    +0.000 A 
ATOM     23 CL   UNL     1      35.524  24.830  38.884  0.00  0.00    +0.000 Cl
ATOM     24  C   UNL     1      36.307  25.993  41.204  0.00  0.00    +0.000 A 
ATOM     25  H   UNL     1      36.096  25.028  41.667  0.00  0.00    +0.000 HD
ENDBRANCH  15  18
ENDBRANCH   4  15
ENDBRANCH   1   6
BRANCH   1  26
ATOM     26  S   UNL     1      40.667  32.981  45.233  0.00  0.00    +0.000 S 
BRANCH  26  31
ATOM     27  C   UNL     1      37.764  31.742  47.658  0.00  0.00    +0.000 A 
ATOM     28  C   UNL     1      37.931  32.536  48.802  0.00  0.00    +0.000 A 
ATOM     29  C   UNL     1      38.932  33.482  48.887  0.00  0.00    +0.000 A 
ATOM     30  C   UNL     1      39.752  33.597  47.785  0.00  0.00    +0.000 A 
ATOM     31  C   UNL     1      39.575  32.820  46.686  0.00  0.00    +0.000 A 
ATOM     32  N   UNL     1      38.595  31.890  46.597  0.00  0.00    +0.000 NA
ATOM     33  H   UNL     1      37.276  32.430  49.658  0.00  0.00    +0.000 HD
ATOM     34  H   UNL     1      39.050  34.089  49.778  0.00  0.00    +0.000 HD
ATOM     35  H   UNL     1      40.560  34.318  47.781  0.00  0.00    +0.000 HD
BRANCH  27  36
ATOM     36  C   UNL     1      36.701  30.786  47.654  0.00  0.00    +0.000 C 
ATOM     37  O   UNL     1      36.208  30.382  46.603  0.00  0.00    +0.000 OA
BRANCH  36  39
ATOM     38  C   UNL     1      37.023  29.631  49.811  0.00  0.00    +0.000 A 
ATOM     39  C   UNL     1      36.135  30.233  48.891  0.00  0.00    +0.000 A 
ATOM     40  C   UNL     1      34.768  30.277  49.190  0.00  0.00    +0.000 A 
ATOM     41  N   UNL     1      34.348  29.730  50.374  0.00  0.00    +0.000 NA
ATOM     42  C   UNL     1      35.214  29.163  51.232  0.00  0.00    +0.000 A 
ATOM     43  N   UNL     1      36.514  29.117  50.955  0.00  0.00    +0.000 NA
ATOM     44  H   UNL     1      38.074  29.614  49.548  0.00  0.00    +0.000 HD
ATOM     45  H   UNL     1      34.110  30.732  48.491  0.00  0.00    +0.000 HD
ATOM     46  H   UNL     1      34.914  28.723  52.175  0.00  0.00    +0.000 HD
ENDBRANCH  36  39
ENDBRANCH  27  36
ENDBRANCH  26  31
ENDBRANCH   1  26
TORSDOF 7
