
 OpenBabel03272500363D

 22 23  0  0  0  0  0  0  0  0999 V2000
   38.6470   23.7050   37.2030 C   0  0  0  0  0  0  0  0  0  0  0  0
   39.6070   22.7480   36.8690 C   0  0  0  0  0  0  0  0  0  0  0  0
   40.0100   22.6600   35.5220 C   0  0  0  0  0  0  0  0  0  0  0  0
   39.4230   23.5330   34.6290 N   0  0  0  0  0  0  0  0  0  0  0  0
   38.5060   24.4330   35.0060 C   0  0  0  0  0  0  0  0  0  0  0  0
   38.1210   24.5190   36.2780 N   0  0  0  0  0  0  0  0  0  0  0  0
   40.0570   22.0760   37.5610 H   0  0  0  0  0  0  0  0  0  0  0  0
   40.7470   21.9370   35.2180 H   0  0  0  0  0  0  0  0  0  0  0  0
   38.8080   27.4070   35.6230 Cl  0  0  0  0  0  0  0  0  0  0  0  0
   37.9960   26.7200   34.2140 C   0  0  0  0  0  0  0  0  0  0  0  0
   37.9120   25.3360   34.0250 C   0  0  0  0  0  0  0  0  0  0  0  0
   37.2590   24.8400   32.8940 C   0  0  0  0  0  0  0  0  0  0  0  0
   37.2050   23.7490   32.7630 H   0  0  0  0  0  0  0  0  0  0  0  0
   36.7160   25.7380   31.9970 C   0  0  0  0  0  3  0  0  0  0  0  0
   36.7960   27.1030   32.1810 C   0  0  0  0  0  0  0  0  0  0  0  0
   36.0930   28.2190   31.0210 Cl  0  0  0  0  0  0  0  0  0  0  0  0
   37.4430   27.5930   33.3000 C   0  0  0  0  0  0  0  0  0  0  0  0
   37.4990   28.6790   33.4320 H   0  0  0  0  0  0  0  0  0  0  0  0
   38.2150   23.7990   38.6450 C   0  0  0  0  0  0  0  0  0  0  0  0
   37.7300   25.0640   38.9050 F   0  0  0  0  0  0  0  0  0  0  0  0
   37.2950   22.8050   38.8630 F   0  0  0  0  0  0  0  0  0  0  0  0
   39.3470   23.6320   39.4220 F   0  0  0  0  0  0  0  0  0  0  0  0
  1 19  1  0  0  0  0
  2  1  1  0  0  0  0
  2  7  1  0  0  0  0
  3  2  2  0  0  0  0
  4  5  2  0  0  0  0
  4  3  1  0  0  0  0
  5  6  1  0  0  0  0
  6  1  2  0  0  0  0
  8  3  1  0  0  0  0
 10  9  1  0  0  0  0
 11 10  1  0  0  0  0
 11  5  1  0  0  0  0
 12 11  2  0  0  0  0
 13 12  1  0  0  0  0
 14 15  2  0  0  0  0
 14 12  1  0  0  0  0
 15 17  1  0  0  0  0
 16 15  1  0  0  0  0
 17 18  1  0  0  0  0
 17 10  2  0  0  0  0
 19 21  1  0  0  0  0
 19 20  1  0  0  0  0
 19 22  1  0  0  0  0
M  END
>  <minimizedAffinity>
-5.52311563

$$$$

 OpenBabel03272500363D

 22 23  0  0  0  0  0  0  0  0999 V2000
   38.5550   24.1480   36.9660 C   0  0  0  0  0  0  0  0  0  0  0  0
   39.5710   23.3910   36.3800 C   0  0  0  0  0  0  0  0  0  0  0  0
   39.8780   23.6340   35.0270 C   0  0  0  0  0  0  0  0  0  0  0  0
   39.1470   24.6080   34.3790 N   0  0  0  0  0  0  0  0  0  0  0  0
   38.1820   25.3040   34.9920 C   0  0  0  0  0  0  0  0  0  0  0  0
   37.8880   25.0780   36.2710 N   0  0  0  0  0  0  0  0  0  0  0  0
   40.1330   22.6390   36.8840 H   0  0  0  0  0  0  0  0  0  0  0  0
   40.6530   23.0740   34.5340 H   0  0  0  0  0  0  0  0  0  0  0  0
   37.3150   24.5280   32.1700 Cl  0  0  0  0  0  0  0  0  0  0  0  0
   36.9900   26.0710   32.9640 C   0  0  0  0  0  0  0  0  0  0  0  0
   37.4350   26.3260   34.2660 C   0  0  0  0  0  0  0  0  0  0  0  0
   37.1530   27.5630   34.8520 C   0  0  0  0  0  0  0  0  0  0  0  0
   37.5100   27.7450   35.8760 H   0  0  0  0  0  0  0  0  0  0  0  0
   36.4410   28.4950   34.1220 C   0  0  0  0  0  3  0  0  0  0  0  0
   36.0020   28.2440   32.8380 C   0  0  0  0  0  0  0  0  0  0  0  0
   35.1000   29.4510   31.9350 Cl  0  0  0  0  0  0  0  0  0  0  0  0
   36.2810   27.0210   32.2590 C   0  0  0  0  0  0  0  0  0  0  0  0
   35.9250   26.8370   31.2390 H   0  0  0  0  0  0  0  0  0  0  0  0
   38.2270   23.8880   38.4150 C   0  0  0  0  0  0  0  0  0  0  0  0
   39.3360   23.3810   39.0610 F   0  0  0  0  0  0  0  0  0  0  0  0
   37.7740   25.0670   38.9520 F   0  0  0  0  0  0  0  0  0  0  0  0
   37.2560   22.9040   38.4440 F   0  0  0  0  0  0  0  0  0  0  0  0
  1 19  1  0  0  0  0
  2  7  1  0  0  0  0
  2  1  1  0  0  0  0
  3  2  2  0  0  0  0
  4  5  2  0  0  0  0
  4  3  1  0  0  0  0
  5  6  1  0  0  0  0
  6  1  2  0  0  0  0
  8  3  1  0  0  0  0
  9 10  1  0  0  0  0
 10 11  1  0  0  0  0
 11 12  2  0  0  0  0
 11  5  1  0  0  0  0
 12 13  1  0  0  0  0
 14 12  1  0  0  0  0
 15 14  2  0  0  0  0
 16 15  1  0  0  0  0
 17 15  1  0  0  0  0
 17 10  2  0  0  0  0
 18 17  1  0  0  0  0
 19 22  1  0  0  0  0
 19 21  1  0  0  0  0
 19 20  1  0  0  0  0
M  END
>  <minimizedAffinity>
-5.41786957

$$$$

 OpenBabel03272500363D

 22 23  0  0  0  0  0  0  0  0999 V2000
   39.9780   23.0600   36.8550 C   0  0  0  0  0  0  0  0  0  0  0  0
   39.1760   23.0470   37.9980 C   0  0  0  0  0  0  0  0  0  0  0  0
   37.9600   23.7580   37.9580 C   0  0  0  0  0  0  0  0  0  0  0  0
   37.6510   24.4160   36.7860 N   0  0  0  0  0  0  0  0  0  0  0  0
   38.4590   24.3940   35.7190 C   0  0  0  0  0  0  0  0  0  0  0  0
   39.6100   23.7250   35.7510 N   0  0  0  0  0  0  0  0  0  0  0  0
   39.4180   22.5380   38.9010 H   0  0  0  0  0  0  0  0  0  0  0  0
   37.3100   23.7750   38.8160 H   0  0  0  0  0  0  0  0  0  0  0  0
   38.7200   27.4320   35.8530 Cl  0  0  0  0  0  0  0  0  0  0  0  0
   38.1750   26.5020   34.4560 C   0  0  0  0  0  0  0  0  0  0  0  0
   38.0910   25.1060   34.5000 C   0  0  0  0  0  0  0  0  0  0  0  0
   37.6530   24.4140   33.3670 C   0  0  0  0  0  0  0  0  0  0  0  0
   37.5950   23.3160   33.4210 H   0  0  0  0  0  0  0  0  0  0  0  0
   37.3180   25.1350   32.2380 C   0  0  0  0  0  3  0  0  0  0  0  0
   37.4000   26.5110   32.1940 C   0  0  0  0  0  0  0  0  0  0  0  0
   36.9650   27.4010   30.7420 Cl  0  0  0  0  0  0  0  0  0  0  0  0
   37.8330   27.1960   33.3130 C   0  0  0  0  0  0  0  0  0  0  0  0
   37.8930   28.2890   33.2620 H   0  0  0  0  0  0  0  0  0  0  0  0
   41.2800   22.3000   36.8970 C   0  0  0  0  0  0  0  0  0  0  0  0
   41.3890   21.5010   35.7780 F   0  0  0  0  0  0  0  0  0  0  0  0
   42.2900   23.2210   37.0110 F   0  0  0  0  0  0  0  0  0  0  0  0
   41.2260   21.4580   37.9920 F   0  0  0  0  0  0  0  0  0  0  0  0
  1 19  1  0  0  0  0
  1  2  1  0  0  0  0
  2  7  1  0  0  0  0
  3  2  2  0  0  0  0
  3  8  1  0  0  0  0
  4  3  1  0  0  0  0
  5  6  1  0  0  0  0
  5  4  2  0  0  0  0
  6  1  2  0  0  0  0
 10 11  1  0  0  0  0
 10  9  1  0  0  0  0
 11  5  1  0  0  0  0
 12 13  1  0  0  0  0
 12 11  2  0  0  0  0
 14 12  1  0  0  0  0
 15 14  2  0  0  0  0
 15 17  1  0  0  0  0
 16 15  1  0  0  0  0
 17 10  2  0  0  0  0
 18 17  1  0  0  0  0
 19 21  1  0  0  0  0
 19 22  1  0  0  0  0
 20 19  1  0  0  0  0
M  END
>  <minimizedAffinity>
-5.19204187

$$$$

 OpenBabel03272500363D

 22 23  0  0  0  0  0  0  0  0999 V2000
   38.7960   23.7010   37.1320 C   0  0  0  0  0  0  0  0  0  0  0  0
   39.8100   22.7730   36.8910 C   0  0  0  0  0  0  0  0  0  0  0  0
   40.3030   22.6590   35.5760 C   0  0  0  0  0  0  0  0  0  0  0  0
   39.7430   23.4800   34.6190 N   0  0  0  0  0  0  0  0  0  0  0  0
   38.7700   24.3540   34.9070 C   0  0  0  0  0  0  0  0  0  0  0  0
   38.3010   24.4640   36.1480 N   0  0  0  0  0  0  0  0  0  0  0  0
   40.2400   22.1410   37.6330 H   0  0  0  0  0  0  0  0  0  0  0  0
   41.0850   21.9570   35.3440 H   0  0  0  0  0  0  0  0  0  0  0  0
   37.1060   22.8990   32.8020 Cl  0  0  0  0  0  0  0  0  0  0  0  0
   37.4270   24.6340   32.8480 C   0  0  0  0  0  0  0  0  0  0  0  0
   38.2070   25.2020   33.8610 C   0  0  0  0  0  0  0  0  0  0  0  0
   38.4340   26.5810   33.8550 C   0  0  0  0  0  0  0  0  0  0  0  0
   39.0490   27.0090   34.6600 H   0  0  0  0  0  0  0  0  0  0  0  0
   37.8770   27.3390   32.8430 C   0  0  0  0  0  3  0  0  0  0  0  0
   37.1090   26.7800   31.8430 C   0  0  0  0  0  0  0  0  0  0  0  0
   36.4150   27.7710   30.5690 Cl  0  0  0  0  0  0  0  0  0  0  0  0
   36.8840   25.4160   31.8500 C   0  0  0  0  0  0  0  0  0  0  0  0
   36.2720   24.9880   31.0490 H   0  0  0  0  0  0  0  0  0  0  0  0
   38.2680   23.8220   38.5390 C   0  0  0  0  0  0  0  0  0  0  0  0
   37.8030   25.1030   38.7540 F   0  0  0  0  0  0  0  0  0  0  0  0
   37.3060   22.8570   38.7010 F   0  0  0  0  0  0  0  0  0  0  0  0
   39.3370   23.6300   39.3950 F   0  0  0  0  0  0  0  0  0  0  0  0
  1 19  1  0  0  0  0
  2  1  1  0  0  0  0
  2  7  1  0  0  0  0
  3  2  2  0  0  0  0
  4  5  2  0  0  0  0
  4  3  1  0  0  0  0
  5  6  1  0  0  0  0
  6  1  2  0  0  0  0
  8  3  1  0  0  0  0
  9 10  1  0  0  0  0
 10 11  1  0  0  0  0
 11  5  1  0  0  0  0
 12 11  2  0  0  0  0
 12 13  1  0  0  0  0
 14 12  1  0  0  0  0
 15 17  1  0  0  0  0
 15 14  2  0  0  0  0
 16 15  1  0  0  0  0
 17 10  2  0  0  0  0
 18 17  1  0  0  0  0
 19 21  1  0  0  0  0
 19 20  1  0  0  0  0
 19 22  1  0  0  0  0
M  END
>  <minimizedAffinity>
-5.11353731

$$$$

 OpenBabel03272500363D

 22 23  0  0  0  0  0  0  0  0999 V2000
   38.1250   23.9820   36.8770 C   0  0  0  0  0  0  0  0  0  0  0  0
   38.1920   25.3060   36.4410 C   0  0  0  0  0  0  0  0  0  0  0  0
   38.1780   25.5450   35.0520 C   0  0  0  0  0  0  0  0  0  0  0  0
   38.0990   24.4450   34.2230 N   0  0  0  0  0  0  0  0  0  0  0  0
   38.0380   23.1950   34.6980 C   0  0  0  0  0  0  0  0  0  0  0  0
   38.0510   22.9640   36.0090 N   0  0  0  0  0  0  0  0  0  0  0  0
   38.2530   26.1520   37.0850 H   0  0  0  0  0  0  0  0  0  0  0  0
   38.2270   26.5500   34.6710 H   0  0  0  0  0  0  0  0  0  0  0  0
   40.7030   22.2500   33.5480 Cl  0  0  0  0  0  0  0  0  0  0  0  0
   39.1200   21.5500   33.2000 C   0  0  0  0  0  0  0  0  0  0  0  0
   37.9550   22.0620   33.7820 C   0  0  0  0  0  0  0  0  0  0  0  0
   36.7250   21.4740   33.4750 C   0  0  0  0  0  0  0  0  0  0  0  0
   35.8200   21.8890   33.9440 H   0  0  0  0  0  0  0  0  0  0  0  0
   36.7020   20.4020   32.6040 C   0  0  0  0  0  3  0  0  0  0  0  0
   37.8500   19.8980   32.0280 C   0  0  0  0  0  0  0  0  0  0  0  0
   37.7870   18.5340   30.9220 Cl  0  0  0  0  0  0  0  0  0  0  0  0
   39.0660   20.4790   32.3320 C   0  0  0  0  0  0  0  0  0  0  0  0
   39.9690   20.0660   31.8670 H   0  0  0  0  0  0  0  0  0  0  0  0
   38.1400   23.7260   38.3630 C   0  0  0  0  0  0  0  0  0  0  0  0
   37.8910   24.9010   39.0410 F   0  0  0  0  0  0  0  0  0  0  0  0
   37.2190   22.7420   38.6200 F   0  0  0  0  0  0  0  0  0  0  0  0
   39.4220   23.3300   38.6970 F   0  0  0  0  0  0  0  0  0  0  0  0
  1 19  1  0  0  0  0
  2  1  1  0  0  0  0
  2  7  1  0  0  0  0
  3  2  2  0  0  0  0
  4  5  2  0  0  0  0
  4  3  1  0  0  0  0
  5  6  1  0  0  0  0
  6  1  2  0  0  0  0
  8  3  1  0  0  0  0
 10  9  1  0  0  0  0
 10 11  1  0  0  0  0
 11  5  1  0  0  0  0
 12 11  2  0  0  0  0
 12 13  1  0  0  0  0
 14 12  1  0  0  0  0
 15 17  1  0  0  0  0
 15 14  2  0  0  0  0
 16 15  1  0  0  0  0
 17 10  2  0  0  0  0
 18 17  1  0  0  0  0
 19 21  1  0  0  0  0
 19 22  1  0  0  0  0
 19 20  1  0  0  0  0
M  END
>  <minimizedAffinity>
-4.89993095

$$$$

 OpenBabel03272500363D

 22 23  0  0  0  0  0  0  0  0999 V2000
   37.3410   26.0350   33.4530 C   0  0  0  0  0  0  0  0  0  0  0  0
   37.1340   27.2610   34.0870 C   0  0  0  0  0  0  0  0  0  0  0  0
   37.7920   27.4900   35.3120 C   0  0  0  0  0  0  0  0  0  0  0  0
   38.5950   26.4780   35.7960 N   0  0  0  0  0  0  0  0  0  0  0  0
   38.7570   25.3200   35.1440 C   0  0  0  0  0  0  0  0  0  0  0  0
   38.1380   25.0990   33.9860 N   0  0  0  0  0  0  0  0  0  0  0  0
   36.5120   28.0390   33.7100 H   0  0  0  0  0  0  0  0  0  0  0  0
   37.6620   28.4210   35.8360 H   0  0  0  0  0  0  0  0  0  0  0  0
   37.4730   23.5630   37.2840 Cl  0  0  0  0  0  0  0  0  0  0  0  0
   39.1260   23.4170   36.6810 C   0  0  0  0  0  0  0  0  0  0  0  0
   39.6180   24.2780   35.6950 C   0  0  0  0  0  0  0  0  0  0  0  0
   40.9340   24.1230   35.2490 C   0  0  0  0  0  0  0  0  0  0  0  0
   41.3020   24.8090   34.4720 H   0  0  0  0  0  0  0  0  0  0  0  0
   41.7060   23.1200   35.8020 C   0  0  0  0  0  3  0  0  0  0  0  0
   41.2230   22.2710   36.7750 C   0  0  0  0  0  0  0  0  0  0  0  0
   42.2310   21.0060   37.4600 Cl  0  0  0  0  0  0  0  0  0  0  0  0
   39.9210   22.4240   37.2150 C   0  0  0  0  0  0  0  0  0  0  0  0
   39.5520   21.7410   37.9890 H   0  0  0  0  0  0  0  0  0  0  0  0
   36.6370   25.7900   32.1420 C   0  0  0  0  0  0  0  0  0  0  0  0
   35.9980   24.5680   32.1770 F   0  0  0  0  0  0  0  0  0  0  0  0
   35.7870   26.8450   31.9290 F   0  0  0  0  0  0  0  0  0  0  0  0
   37.6110   25.7090   31.1640 F   0  0  0  0  0  0  0  0  0  0  0  0
  1  6  2  0  0  0  0
  1  2  1  0  0  0  0
  2  3  2  0  0  0  0
  3  4  1  0  0  0  0
  3  8  1  0  0  0  0
  5 11  1  0  0  0  0
  5  4  2  0  0  0  0
  6  5  1  0  0  0  0
  7  2  1  0  0  0  0
 10 17  1  0  0  0  0
 10  9  1  0  0  0  0
 11 10  2  0  0  0  0
 12 11  1  0  0  0  0
 12 14  2  0  0  0  0
 13 12  1  0  0  0  0
 14 15  1  0  0  0  0
 15 17  2  0  0  0  0
 15 16  1  0  0  0  0
 17 18  1  0  0  0  0
 19 20  1  0  0  0  0
 19  1  1  0  0  0  0
 21 19  1  0  0  0  0
 22 19  1  0  0  0  0
M  END
>  <minimizedAffinity>
-4.85044432

$$$$

 OpenBabel03272500363D

 22 23  0  0  0  0  0  0  0  0999 V2000
   36.6850   27.6080   33.6450 C   0  0  0  0  0  0  0  0  0  0  0  0
   36.4730   27.6990   32.2680 C   0  0  0  0  0  0  0  0  0  0  0  0
   35.7880   28.8290   31.7790 C   0  0  0  0  0  0  0  0  0  0  0  0
   35.3750   29.7660   32.7030 N   0  0  0  0  0  0  0  0  0  0  0  0
   35.6060   29.6270   34.0150 C   0  0  0  0  0  0  0  0  0  0  0  0
   36.2530   28.5610   34.4820 N   0  0  0  0  0  0  0  0  0  0  0  0
   36.7930   26.9730   31.5580 H   0  0  0  0  0  0  0  0  0  0  0  0
   35.6020   28.9410   30.7250 H   0  0  0  0  0  0  0  0  0  0  0  0
   32.6670   29.4400   34.8170 Cl  0  0  0  0  0  0  0  0  0  0  0  0
   33.8200   30.6480   35.3890 C   0  0  0  0  0  0  0  0  0  0  0  0
   35.1500   30.6450   34.9560 C   0  0  0  0  0  0  0  0  0  0  0  0
   36.0260   31.6230   35.4360 C   0  0  0  0  0  0  0  0  0  0  0  0
   37.0680   31.6030   35.0850 H   0  0  0  0  0  0  0  0  0  0  0  0
   35.5440   32.5620   36.3270 C   0  0  0  0  0  3  0  0  0  0  0  0
   34.2330   32.5670   36.7540 C   0  0  0  0  0  0  0  0  0  0  0  0
   33.6510   33.7780   37.8870 Cl  0  0  0  0  0  0  0  0  0  0  0  0
   33.3670   31.6000   36.2790 C   0  0  0  0  0  0  0  0  0  0  0  0
   32.3290   31.6170   36.6280 H   0  0  0  0  0  0  0  0  0  0  0  0
   37.4180   26.3990   34.1690 C   0  0  0  0  0  0  0  0  0  0  0  0
   38.7790   26.6240   34.1250 F   0  0  0  0  0  0  0  0  0  0  0  0
   36.9470   26.1480   35.4330 F   0  0  0  0  0  0  0  0  0  0  0  0
   37.1530   25.3530   33.3040 F   0  0  0  0  0  0  0  0  0  0  0  0
  1 19  1  0  0  0  0
  1  6  1  0  0  0  0
  2  1  2  0  0  0  0
  3  2  1  0  0  0  0
  3  4  2  0  0  0  0
  4  5  1  0  0  0  0
  5  6  2  0  0  0  0
  5 11  1  0  0  0  0
  7  2  1  0  0  0  0
  8  3  1  0  0  0  0
  9 10  1  0  0  0  0
 10 17  1  0  0  0  0
 11 10  2  0  0  0  0
 11 12  1  0  0  0  0
 12 14  2  0  0  0  0
 13 12  1  0  0  0  0
 14 15  1  0  0  0  0
 15 16  1  0  0  0  0
 17 18  1  0  0  0  0
 17 15  2  0  0  0  0
 19 21  1  0  0  0  0
 20 19  1  0  0  0  0
 22 19  1  0  0  0  0
M  END
>  <minimizedAffinity>
-4.82482958

$$$$

 OpenBabel03272500363D

 22 23  0  0  0  0  0  0  0  0999 V2000
   36.6230   28.7820   31.9250 C   0  0  0  0  0  0  0  0  0  0  0  0
   37.0970   27.5550   32.3920 C   0  0  0  0  0  0  0  0  0  0  0  0
   36.9420   27.2660   33.7620 C   0  0  0  0  0  0  0  0  0  0  0  0
   36.3290   28.2240   34.5440 N   0  0  0  0  0  0  0  0  0  0  0  0
   35.8940   29.3850   34.0410 C   0  0  0  0  0  0  0  0  0  0  0  0
   36.0380   29.6630   32.7470 N   0  0  0  0  0  0  0  0  0  0  0  0
   37.5700   26.8180   31.7850 H   0  0  0  0  0  0  0  0  0  0  0  0
   37.2920   26.3330   34.1670 H   0  0  0  0  0  0  0  0  0  0  0  0
   32.8420   29.3480   34.0150 Cl  0  0  0  0  0  0  0  0  0  0  0  0
   33.8540   30.4350   34.9690 C   0  0  0  0  0  0  0  0  0  0  0  0
   35.2510   30.3690   34.9060 C   0  0  0  0  0  0  0  0  0  0  0  0
   36.0100   31.2510   35.6800 C   0  0  0  0  0  0  0  0  0  0  0  0
   37.1060   31.1830   35.6190 H   0  0  0  0  0  0  0  0  0  0  0  0
   35.3510   32.1620   36.4840 C   0  0  0  0  0  3  0  0  0  0  0  0
   33.9750   32.2280   36.5450 C   0  0  0  0  0  0  0  0  0  0  0  0
   33.1680   33.3990   37.5770 Cl  0  0  0  0  0  0  0  0  0  0  0  0
   33.2250   31.3560   35.7810 C   0  0  0  0  0  0  0  0  0  0  0  0
   32.1320   31.4210   35.8410 H   0  0  0  0  0  0  0  0  0  0  0  0
   36.7890   29.0910   30.4580 C   0  0  0  0  0  0  0  0  0  0  0  0
   36.5150   27.9650   29.7100 F   0  0  0  0  0  0  0  0  0  0  0  0
   35.9700   30.1530   30.1660 F   0  0  0  0  0  0  0  0  0  0  0  0
   38.1220   29.3980   30.2530 F   0  0  0  0  0  0  0  0  0  0  0  0
  1  2  2  0  0  0  0
  1  6  1  0  0  0  0
  2  3  1  0  0  0  0
  3  8  1  0  0  0  0
  3  4  2  0  0  0  0
  5  4  1  0  0  0  0
  5 11  1  0  0  0  0
  6  5  2  0  0  0  0
  7  2  1  0  0  0  0
  9 10  1  0  0  0  0
 10 17  1  0  0  0  0
 11 10  2  0  0  0  0
 11 12  1  0  0  0  0
 12 14  2  0  0  0  0
 13 12  1  0  0  0  0
 14 15  1  0  0  0  0
 15 16  1  0  0  0  0
 17 18  1  0  0  0  0
 17 15  2  0  0  0  0
 19  1  1  0  0  0  0
 20 19  1  0  0  0  0
 21 19  1  0  0  0  0
 22 19  1  0  0  0  0
M  END
>  <minimizedAffinity>
-4.79093266

$$$$

 OpenBabel03272500363D

 22 23  0  0  0  0  0  0  0  0999 V2000
   37.4260   26.7180   33.8230 C   0  0  0  0  0  0  0  0  0  0  0  0
   36.9410   27.7840   33.0640 C   0  0  0  0  0  0  0  0  0  0  0  0
   36.3820   27.4950   31.8030 C   0  0  0  0  0  0  0  0  0  0  0  0
   36.3550   26.1720   31.4130 N   0  0  0  0  0  0  0  0  0  0  0  0
   36.8360   25.1890   32.1830 C   0  0  0  0  0  0  0  0  0  0  0  0
   37.3650   25.4570   33.3750 N   0  0  0  0  0  0  0  0  0  0  0  0
   36.9640   28.8040   33.3690 H   0  0  0  0  0  0  0  0  0  0  0  0
   35.9960   28.2850   31.1830 H   0  0  0  0  0  0  0  0  0  0  0  0
   39.4730   24.0650   31.1370 Cl  0  0  0  0  0  0  0  0  0  0  0  0
   37.9410   23.1920   31.2300 C   0  0  0  0  0  0  0  0  0  0  0  0
   36.7860   23.8040   31.7280 C   0  0  0  0  0  0  0  0  0  0  0  0
   35.5960   23.0720   31.7830 C   0  0  0  0  0  0  0  0  0  0  0  0
   34.6990   23.5690   32.1780 H   0  0  0  0  0  0  0  0  0  0  0  0
   35.6040   21.7630   31.3410 C   0  0  0  0  0  3  0  0  0  0  0  0
   36.7420   21.1590   30.8490 C   0  0  0  0  0  0  0  0  0  0  0  0
   36.7180   19.4920   30.2930 Cl  0  0  0  0  0  0  0  0  0  0  0  0
   37.9180   21.8830   30.7960 C   0  0  0  0  0  0  0  0  0  0  0  0
   38.8140   21.3890   30.4030 H   0  0  0  0  0  0  0  0  0  0  0  0
   38.0250   27.0270   35.1730 C   0  0  0  0  0  0  0  0  0  0  0  0
   37.5550   28.2430   35.6240 F   0  0  0  0  0  0  0  0  0  0  0  0
   37.7210   25.9810   36.0060 F   0  0  0  0  0  0  0  0  0  0  0  0
   39.3890   27.1620   34.9930 F   0  0  0  0  0  0  0  0  0  0  0  0
  1 19  1  0  0  0  0
  2  7  1  0  0  0  0
  2  1  2  0  0  0  0
  3  2  1  0  0  0  0
  4  3  2  0  0  0  0
  4  5  1  0  0  0  0
  5  6  2  0  0  0  0
  6  1  1  0  0  0  0
  8  3  1  0  0  0  0
  9 10  1  0  0  0  0
 10 11  1  0  0  0  0
 11 12  2  0  0  0  0
 11  5  1  0  0  0  0
 12 13  1  0  0  0  0
 14 12  1  0  0  0  0
 15 14  2  0  0  0  0
 16 15  1  0  0  0  0
 17 15  1  0  0  0  0
 17 10  2  0  0  0  0
 18 17  1  0  0  0  0
 19 20  1  0  0  0  0
 19 21  1  0  0  0  0
 22 19  1  0  0  0  0
M  END
>  <minimizedAffinity>
-4.76099539

$$$$
