
 OpenBabel03272503333D

 42 45  0  0  1  0  0  0  0  0999 V2000
   35.4220   29.4110   47.8140 C   0  0  0  0  0  0  0  0  0  0  0  0
   35.3610   29.9800   46.5420 C   0  0  0  0  0  0  0  0  0  0  0  0
   34.2980   29.5980   45.7150 C   0  0  0  0  0  0  0  0  0  0  0  0
   33.3930   28.6900   46.2220 N   0  0  0  0  0  0  0  0  0  0  0  0
   33.4920   28.1710   47.4470 C   0  0  0  0  0  0  0  0  0  0  0  0
   34.5080   28.5350   48.2400 N   0  0  0  0  0  0  0  0  0  0  0  0
   36.0700   30.6910   46.1420 H   0  0  0  0  0  0  0  0  0  0  0  0
   34.1650   29.9770   44.7240 H   0  0  0  0  0  0  0  0  0  0  0  0
   36.5150   29.8090   48.6530 N   0  0  0  0  0  0  0  0  0  0  0  0
   37.6680   30.5680   48.2720 C   0  0  0  0  0  0  0  0  0  0  0  0
   38.0540   31.2520   49.5760 C   0  0  2  0  0  0  0  0  0  0  0  0
   36.9550   30.9100   50.5800 C   0  0  0  0  0  0  0  0  0  0  0  0
   36.6550   29.5070   50.0750 C   0  0  0  0  0  0  0  0  0  0  0  0
   37.4360   31.3450   47.4940 H   0  0  0  0  0  0  0  0  0  0  0  0
   38.5210   29.9250   47.9480 H   0  0  0  0  0  0  0  0  0  0  0  0
   38.9890   30.8110   49.9980 H   0  0  0  0  0  0  0  0  0  0  0  0
   36.0970   31.5620   50.4120 H   0  0  0  0  0  0  0  0  0  0  0  0
   37.3250   30.9160   51.6120 H   0  0  0  0  0  0  0  0  0  0  0  0
   35.6930   29.1660   50.4900 H   0  0  0  0  0  0  0  0  0  0  0  0
   37.5060   28.8500   50.2780 H   0  0  0  0  0  0  0  0  0  0  0  0
   38.2070   32.7390   49.4110 C   0  0  0  0  0  0  0  0  0  0  0  0
   37.0600   33.3160   49.9210 F   0  0  0  0  0  0  0  0  0  0  0  0
   38.2090   32.9960   48.0650 F   0  0  0  0  0  0  0  0  0  0  0  0
   39.3370   33.2360   50.0030 F   0  0  0  0  0  0  0  0  0  0  0  0
   32.2900   27.0020   48.0470 S   0  0  0  0  0  0  0  0  0  0  0  0
   30.8500   27.6070   48.6850 C   0  0  0  0  0  0  0  0  0  0  0  0
   30.0900   27.5580   49.8160 C   0  0  0  0  0  0  0  0  0  0  0  0
   28.9160   28.2030   50.0020 C   0  0  0  0  0  0  0  0  0  0  0  0
   28.5020   29.0030   48.8260 C   0  0  0  0  0  0  0  0  0  0  0  0
   29.8240   28.7420   47.6070 S   0  0  0  0  0  0  0  0  0  0  0  0
   30.5530   26.9270   50.5600 H   0  0  0  0  0  0  0  0  0  0  0  0
   28.3230   28.1610   50.8920 H   0  0  0  0  0  0  0  0  0  0  0  0
   26.2390   28.0420   50.4910 Cl  0  0  0  0  0  0  0  0  0  0  0  0
   26.2400   29.4210   49.4150 C   0  0  0  0  0  0  0  0  0  0  0  0
   27.3450   29.7890   48.6800 C   0  0  0  0  0  0  0  0  0  0  0  0
   27.4080   30.8590   47.8190 C   0  0  0  0  0  0  0  0  0  0  0  0
   28.2980   31.1040   47.2680 H   0  0  0  0  0  0  0  0  0  0  0  0
   26.2480   31.6350   47.6830 C   0  0  0  0  0  3  0  0  0  0  0  0
   25.0970   31.3040   48.4080 C   0  0  0  0  0  0  0  0  0  0  0  0
   23.6300   32.2510   48.2620 Cl  0  0  0  0  0  0  0  0  0  0  0  0
   25.0850   30.2020   49.2720 C   0  0  0  0  0  0  0  0  0  0  0  0
   24.1880   29.9610   49.8240 H   0  0  0  0  0  0  0  0  0  0  0  0
  1  6  1  0  0  0  0
  1  9  1  0  0  0  0
  2  1  2  0  0  0  0
  3  4  2  0  0  0  0
  3  2  1  0  0  0  0
  4  5  1  0  0  0  0
  5 25  1  0  0  0  0
  5  6  2  0  0  0  0
  7  2  1  0  0  0  0
  8  3  1  0  0  0  0
  9 13  1  0  0  0  0
 10  9  1  0  0  0  0
 10 11  1  0  0  0  0
 11 16  1  1  0  0  0
 11 12  1  0  0  0  0
 12 18  1  0  0  0  0
 13 20  1  0  0  0  0
 13 19  1  0  0  0  0
 13 12  1  0  0  0  0
 14 10  1  0  0  0  0
 15 10  1  0  0  0  0
 17 12  1  0  0  0  0
 21 11  1  0  0  0  0
 21 22  1  0  0  0  0
 21 24  1  0  0  0  0
 23 21  1  0  0  0  0
 25 26  1  0  0  0  0
 26 27  2  0  0  0  0
 27 28  1  0  0  0  0
 27 31  1  0  0  0  0
 28 32  1  0  0  0  0
 29 28  2  0  0  0  0
 30 26  1  0  0  0  0
 30 29  1  0  0  0  0
 34 33  1  0  0  0  0
 35 29  1  0  0  0  0
 35 34  2  0  0  0  0
 36 35  1  0  0  0  0
 37 36  1  0  0  0  0
 38 36  2  0  0  0  0
 38 39  1  0  0  0  0
 39 41  2  0  0  0  0
 40 39  1  0  0  0  0
 41 34  1  0  0  0  0
 41 42  1  0  0  0  0
M  END
>  <minimizedAffinity>
-6.99533796

>  <minimizedRMSD>
0.550314903

$$$$
