REMARK  Name = 
REMARK  6 active torsions:
REMARK  status: ('A' for Active; 'I' for Inactive)
REMARK    1  A    between atoms: C_1  and  C_4
REMARK    2  A    between atoms: C_3  and  O_11
REMARK    3  A    between atoms: O_11  and  P_13
REMARK    4  A    between atoms: P_13  and  O_14
REMARK    5  A    between atoms: P_13  and  O_15
REMARK    6  A    between atoms: O_15  and  C_27
REMARK                            x       y       z     vdW  Elec       q    Type
REMARK                         _______ _______ _______ _____ _____    ______ ____
ROOT
ATOM      1  C   UNL     1      36.987  31.568  48.669  0.00  0.00    +0.000 C 
ATOM      2  C   UNL     1      36.215  30.919  47.636  0.00  0.00    +0.000 C 
ATOM      3  C   UNL     1      37.176  30.133  48.465  0.00  0.00    +0.000 C 
ATOM      4  H   UNL     1      36.542  31.838  49.689  0.00  0.00    +0.000 HD
ATOM      5  H   UNL     1      36.529  31.121  46.590  0.00  0.00    +0.000 HD
ATOM      6  H   UNL     1      35.185  31.177  47.790  0.00  0.00    +0.000 HD
ATOM      7  H   UNL     1      37.867  29.606  47.832  0.00  0.00    +0.000 HD
ENDROOT
BRANCH   1   8
ATOM      8  C   UNL     1      38.149  32.459  48.326  0.00  0.00    +0.000 A 
ATOM      9  C   UNL     1      38.530  33.379  49.325  0.00  0.00    +0.000 A 
ATOM     10  C   UNL     1      39.596  34.182  48.988  0.00  0.00    +0.000 A 
ATOM     11  N   UNL     1      40.197  34.054  47.774  0.00  0.00    +0.000 NA
ATOM     12  C   UNL     1      39.795  33.149  46.838  0.00  0.00    +0.000 A 
ATOM     13  N   UNL     1      38.735  32.333  47.140  0.00  0.00    +0.000 NA
ATOM     14  N   UNL     1      40.408  33.001  45.586  0.00  0.00    +0.000 N 
ATOM     15  H   UNL     1      38.069  33.487  50.273  0.00  0.00    +0.000 HD
ATOM     16  H   UNL     1      39.959  34.913  49.682  0.00  0.00    +0.000 HD
ATOM     17  H   UNL     1      40.584  33.881  45.068  0.00  0.00    +0.000 HD
ATOM     18  H   UNL     1      40.637  32.020  45.283  0.00  0.00    +0.000 HD
ENDBRANCH   1   8
BRANCH   3  19
ATOM     19  O   UNL     1      36.592  29.308  49.439  0.00  0.00    +0.000 OA
BRANCH  19  21
ATOM     20  O   UNL     1      34.633  27.662  49.694  0.00  0.00    +0.000 OA
ATOM     21  P   UNL     1      35.016  28.950  49.031  0.00  0.00    +0.000 P 
BRANCH  21  22
ATOM     22  O   UNL     1      33.972  30.149  49.733  0.00  0.00    +0.000 OA
ATOM     23  H   UNL     1      34.425  30.578  50.490  0.00  0.00    +0.000 HD
ENDBRANCH  21  22
BRANCH  21  24
ATOM     24  O   UNL     1      34.850  28.960  47.371  0.00  0.00    +0.000 OA
BRANCH  24  27
ATOM     25 CL   UNL     1      35.061  26.213  48.294  0.00  0.00    +0.000 Cl
ATOM     26  C   UNL     1      35.696  26.913  46.800  0.00  0.00    +0.000 A 
ATOM     27  C   UNL     1      35.544  28.257  46.438  0.00  0.00    +0.000 A 
ATOM     28  C   UNL     1      36.102  28.646  45.234  0.00  0.00    +0.000 A 
ATOM     29  H   UNL     1      35.941  29.697  45.028  0.00  0.00    +0.000 HD
ATOM     30  C   UNL     1      36.775  27.767  44.422  0.00  0.00    +0.000 A 
ATOM     31  C   UNL     1      36.906  26.452  44.808  0.00  0.00    +0.000 A 
ATOM     32 CL   UNL     1      37.767  25.356  43.757  0.00  0.00    +0.000 Cl
ATOM     33  C   UNL     1      36.377  26.012  45.986  0.00  0.00    +0.000 A 
ATOM     34  H   UNL     1      36.504  24.970  46.249  0.00  0.00    +0.000 HD
ENDBRANCH  24  27
ENDBRANCH  21  24
ENDBRANCH  19  21
ENDBRANCH   3  19
TORSDOF 6
