
 OpenBabel03272510303D

 29 31  0  0  0  0  0  0  0  0999 V2000
   37.2720   31.3690   49.3190 C   0  0  0  0  0  0  0  0  0  0  0  0
   37.4720   32.6520   49.8330 C   0  0  0  0  0  0  0  0  0  0  0  0
   38.3610   33.4420   49.1390 C   0  0  0  0  0  0  0  0  0  0  0  0
   38.9860   32.9490   48.0180 N   0  0  0  0  0  0  0  0  0  0  0  0
   38.7560   31.6880   47.5580 C   0  0  0  0  0  0  0  0  0  0  0  0
   37.8780   30.8780   48.2250 N   0  0  0  0  0  0  0  0  0  0  0  0
   36.9430   32.9720   50.7230 H   0  0  0  0  0  0  0  0  0  0  0  0
   38.5640   34.4490   49.4820 H   0  0  0  0  0  0  0  0  0  0  0  0
   36.2800   30.4850   50.0330 C   0  0  0  0  0  0  0  0  0  0  0  0
   36.2700   29.0510   49.9060 C   0  0  0  0  0  0  0  0  0  0  0  0
   36.9250   29.6410   51.1420 C   0  0  0  0  0  0  0  0  0  0  0  0
   35.3430   31.0240   50.3380 H   0  0  0  0  0  0  0  0  0  0  0  0
   35.3300   28.4960   50.0100 H   0  0  0  0  0  0  0  0  0  0  0  0
   36.9660   28.6120   49.1370 H   0  0  0  0  0  0  0  0  0  0  0  0
   36.3270   29.5910   52.0580 H   0  0  0  0  0  0  0  0  0  0  0  0
   38.0220   29.6370   51.2450 H   0  0  0  0  0  0  0  0  0  0  0  0
   39.4010   31.1570   46.3590 C   0  0  0  0  0  0  0  0  0  0  0  0
   39.5200   30.0390   46.4530 H   0  0  0  0  0  0  0  0  0  0  0  0
   40.4010   31.5910   46.1860 H   0  0  0  0  0  0  0  0  0  0  0  0
   40.0710   33.6620   44.7360 Cl  0  0  0  0  0  0  0  0  0  0  0  0
   38.8260   32.4790   44.3930 C   0  0  0  0  0  0  0  0  0  0  0  0
   38.5390   31.3540   45.1400 C   0  0  0  0  0  0  0  0  0  0  0  0
   37.5220   30.5210   44.7310 C   0  0  0  0  0  0  0  0  0  0  0  0
   37.3410   29.6510   45.3560 H   0  0  0  0  0  0  0  0  0  0  0  0
   36.7940   30.7870   43.6050 C   0  0  0  0  0  3  0  0  0  0  0  0
   37.0730   31.9220   42.8400 C   0  0  0  0  0  0  0  0  0  0  0  0
   36.1140   32.2200   41.4080 Cl  0  0  0  0  0  0  0  0  0  0  0  0
   38.0940   32.7700   43.2390 C   0  0  0  0  0  0  0  0  0  0  0  0
   38.2530   33.6270   42.6000 H   0  0  0  0  0  0  0  0  0  0  0  0
  1  2  1  0  0  0  0
  1  9  1  0  0  0  0
  2  7  1  0  0  0  0
  3  8  1  0  0  0  0
  3  2  2  0  0  0  0
  4  3  1  0  0  0  0
  5  4  2  0  0  0  0
  5  6  1  0  0  0  0
  6  1  2  0  0  0  0
  9 12  1  0  0  0  0
  9 11  1  0  0  0  0
 10 13  1  0  0  0  0
 10  9  1  0  0  0  0
 10 11  1  0  0  0  0
 11 16  1  0  0  0  0
 11 15  1  0  0  0  0
 14 10  1  0  0  0  0
 17 18  1  0  0  0  0
 17  5  1  0  0  0  0
 19 17  1  0  0  0  0
 21 20  1  0  0  0  0
 21 22  1  0  0  0  0
 22 17  1  0  0  0  0
 23 22  2  0  0  0  0
 23 24  1  0  0  0  0
 25 23  1  0  0  0  0
 26 28  1  0  0  0  0
 26 25  2  0  0  0  0
 27 26  1  0  0  0  0
 28 21  2  0  0  0  0
 29 28  1  0  0  0  0
M  END
>  <minimizedAffinity>
-5.73392916

>  <minimizedRMSD>
0.726725757

$$$$
