
 OpenBabel03272503333D

 42 45  0  0  1  0  0  0  0  0999 V2000
   35.4990   29.4250   47.7910 C   0  0  0  0  0  0  0  0  0  0  0  0
   35.4330   30.0380   46.5400 C   0  0  0  0  0  0  0  0  0  0  0  0
   34.4040   29.6380   45.6790 C   0  0  0  0  0  0  0  0  0  0  0  0
   33.5360   28.6680   46.1350 N   0  0  0  0  0  0  0  0  0  0  0  0
   33.6400   28.1080   47.3410 C   0  0  0  0  0  0  0  0  0  0  0  0
   34.6220   28.4900   48.1660 N   0  0  0  0  0  0  0  0  0  0  0  0
   36.1120   30.7980   46.1810 H   0  0  0  0  0  0  0  0  0  0  0  0
   34.2700   30.0470   44.7010 H   0  0  0  0  0  0  0  0  0  0  0  0
   36.5570   29.8430   48.6650 N   0  0  0  0  0  0  0  0  0  0  0  0
   37.7290   30.5860   48.3130 C   0  0  0  0  0  0  0  0  0  0  0  0
   38.0620   31.3060   49.6130 C   0  0  2  0  0  0  0  0  0  0  0  0
   36.9190   30.9970   50.5770 C   0  0  0  0  0  0  0  0  0  0  0  0
   36.6340   29.5820   50.1000 C   0  0  0  0  0  0  0  0  0  0  0  0
   37.5350   31.3410   47.5040 H   0  0  0  0  0  0  0  0  0  0  0  0
   38.5920   29.9310   48.0460 H   0  0  0  0  0  0  0  0  0  0  0  0
   38.9760   30.8740   50.0880 H   0  0  0  0  0  0  0  0  0  0  0  0
   36.0720   31.6480   50.3530 H   0  0  0  0  0  0  0  0  0  0  0  0
   37.2430   31.0320   51.6240 H   0  0  0  0  0  0  0  0  0  0  0  0
   35.6530   29.2570   50.4820 H   0  0  0  0  0  0  0  0  0  0  0  0
   37.4720   28.9280   50.3590 H   0  0  0  0  0  0  0  0  0  0  0  0
   38.2290   32.7870   49.4120 C   0  0  0  0  0  0  0  0  0  0  0  0
   37.0830   33.3870   49.8960 F   0  0  0  0  0  0  0  0  0  0  0  0
   38.2460   33.0100   48.0600 F   0  0  0  0  0  0  0  0  0  0  0  0
   39.3580   33.2890   50.0020 F   0  0  0  0  0  0  0  0  0  0  0  0
   32.4860   26.8600   47.8740 S   0  0  0  0  0  0  0  0  0  0  0  0
   31.0000   27.3700   48.4900 C   0  0  0  0  0  0  0  0  0  0  0  0
   30.1500   27.1380   49.5310 C   0  0  0  0  0  0  0  0  0  0  0  0
   28.9660   27.7610   49.7310 C   0  0  0  0  0  0  0  0  0  0  0  0
   28.6510   28.7580   48.6810 C   0  0  0  0  0  0  0  0  0  0  0  0
   30.0680   28.6890   47.5460 S   0  0  0  0  0  0  0  0  0  0  0  0
   30.5500   26.3820   50.1890 H   0  0  0  0  0  0  0  0  0  0  0  0
   28.3020   27.5760   50.5500 H   0  0  0  0  0  0  0  0  0  0  0  0
   26.5250   28.0110   50.6160 Cl  0  0  0  0  0  0  0  0  0  0  0  0
   26.4690   29.3060   49.4400 C   0  0  0  0  0  0  0  0  0  0  0  0
   27.5110   29.5750   48.5820 C   0  0  0  0  0  0  0  0  0  0  0  0
   27.5280   30.5760   47.6380 C   0  0  0  0  0  0  0  0  0  0  0  0
   28.3690   30.7450   46.9920 H   0  0  0  0  0  0  0  0  0  0  0  0
   26.3870   31.3840   47.5500 C   0  0  0  0  0  3  0  0  0  0  0  0
   25.2980   31.1530   48.3990 C   0  0  0  0  0  0  0  0  0  0  0  0
   23.8550   32.1430   48.3160 Cl  0  0  0  0  0  0  0  0  0  0  0  0
   25.3320   30.1200   49.3430 C   0  0  0  0  0  0  0  0  0  0  0  0
   24.4830   29.9550   49.9920 H   0  0  0  0  0  0  0  0  0  0  0  0
  1  6  1  0  0  0  0
  1  9  1  0  0  0  0
  2  1  2  0  0  0  0
  3  4  2  0  0  0  0
  3  2  1  0  0  0  0
  4  5  1  0  0  0  0
  5 25  1  0  0  0  0
  5  6  2  0  0  0  0
  7  2  1  0  0  0  0
  8  3  1  0  0  0  0
  9 13  1  0  0  0  0
 10  9  1  0  0  0  0
 10 11  1  0  0  0  0
 11 16  1  1  0  0  0
 11 12  1  0  0  0  0
 12 18  1  0  0  0  0
 13 20  1  0  0  0  0
 13 19  1  0  0  0  0
 13 12  1  0  0  0  0
 14 10  1  0  0  0  0
 15 10  1  0  0  0  0
 17 12  1  0  0  0  0
 21 11  1  0  0  0  0
 21 22  1  0  0  0  0
 21 24  1  0  0  0  0
 23 21  1  0  0  0  0
 25 26  1  0  0  0  0
 26 27  2  0  0  0  0
 27 28  1  0  0  0  0
 27 31  1  0  0  0  0
 28 32  1  0  0  0  0
 29 28  2  0  0  0  0
 30 26  1  0  0  0  0
 30 29  1  0  0  0  0
 34 33  1  0  0  0  0
 35 29  1  0  0  0  0
 35 34  2  0  0  0  0
 36 35  1  0  0  0  0
 37 36  1  0  0  0  0
 38 36  2  0  0  0  0
 38 39  1  0  0  0  0
 39 41  2  0  0  0  0
 40 39  1  0  0  0  0
 41 34  1  0  0  0  0
 41 42  1  0  0  0  0
M  END
>  <minimizedAffinity>
-7.06293011

>  <minimizedRMSD>
0.701322019

$$$$
