
 OpenBabel03272501563D

 32 34  0  0  0  0  0  0  0  0999 V2000
   32.6500   27.4760   48.3630 C   0  0  0  0  0  0  0  0  0  0  0  0
   32.1630   26.2930   47.8290 C   0  0  0  0  0  0  0  0  0  0  0  0
   30.7900   26.3450   47.6840 C   0  0  0  0  0  0  0  0  0  0  0  0
   30.4840   27.5740   48.1430 N   0  0  0  0  0  0  0  0  0  0  0  0
   31.5510   28.2450   48.5410 N   0  0  0  0  0  0  0  0  0  0  0  0
   32.7340   25.3980   47.5370 H   0  0  0  0  0  0  0  0  0  0  0  0
   30.0460   25.6810   47.3280 H   0  0  0  0  0  0  0  0  0  0  0  0
   29.1510   26.9610   50.6910 Cl  0  0  0  0  0  0  0  0  0  0  0  0
   28.5770   28.0570   49.4630 C   0  0  0  0  0  0  0  0  0  0  0  0
   29.2630   28.2930   48.2850 C   0  0  0  0  0  0  0  0  0  0  0  0
   28.7610   29.1810   47.3300 C   0  0  0  0  0  0  0  0  0  0  0  0
   29.4010   29.2660   46.4660 H   0  0  0  0  0  0  0  0  0  0  0  0
   27.5660   29.8330   47.5570 C   0  0  0  0  0  3  0  0  0  0  0  0
   26.8720   29.6010   48.7350 C   0  0  0  0  0  0  0  0  0  0  0  0
   25.3510   30.4600   48.9760 Cl  0  0  0  0  0  0  0  0  0  0  0  0
   27.3720   28.7170   49.6850 C   0  0  0  0  0  0  0  0  0  0  0  0
   26.8040   28.5580   50.5980 H   0  0  0  0  0  0  0  0  0  0  0  0
   34.1060   27.7570   48.6520 C   0  0  0  0  0  0  0  0  0  0  0  0
   34.6290   26.8010   48.9010 H   0  0  0  0  0  0  0  0  0  0  0  0
   34.5710   28.2080   47.7570 H   0  0  0  0  0  0  0  0  0  0  0  0
   34.1350   28.6780   49.8310 C   0  0  0  0  0  0  0  0  0  0  0  0
   33.9100   28.1780   50.7990 H   0  0  0  0  0  0  0  0  0  0  0  0
   33.3920   29.5160   49.7470 H   0  0  0  0  0  0  0  0  0  0  0  0
   37.2690   30.0170   51.2690 C   0  0  0  0  0  0  0  0  0  0  0  0
   38.0020   30.3980   50.1350 C   0  0  0  0  0  0  0  0  0  0  0  0
   37.3950   30.1850   48.8740 C   0  0  0  0  0  0  0  0  0  0  0  0
   36.1610   29.6350   48.8200 N   0  0  0  0  0  0  0  0  0  0  0  0
   35.5040   29.2860   49.9570 C   0  0  0  0  0  0  0  0  0  0  0  0
   36.0570   29.4790   51.1480 N   0  0  0  0  0  0  0  0  0  0  0  0
   37.7800   30.2020   52.2030 H   0  0  0  0  0  0  0  0  0  0  0  0
   38.9710   30.8360   50.0740 H   0  0  0  0  0  0  0  0  0  0  0  0
   37.8050   30.4150   47.9050 H   0  0  0  0  0  0  0  0  0  0  0  0
  1  5  2  0  0  0  0
  1 18  1  0  0  0  0
  2  1  1  0  0  0  0
  3  2  2  0  0  0  0
  3  4  1  0  0  0  0
  4 10  1  0  0  0  0
  4  5  1  0  0  0  0
  6  2  1  0  0  0  0
  7  3  1  0  0  0  0
  9 16  1  0  0  0  0
  9  8  1  0  0  0  0
 10  9  2  0  0  0  0
 11 13  2  0  0  0  0
 11 10  1  0  0  0  0
 12 11  1  0  0  0  0
 13 14  1  0  0  0  0
 14 15  1  0  0  0  0
 14 16  2  0  0  0  0
 16 17  1  0  0  0  0
 18 19  1  0  0  0  0
 18 21  1  0  0  0  0
 20 18  1  0  0  0  0
 21 28  1  0  0  0  0
 21 22  1  0  0  0  0
 23 21  1  0  0  0  0
 24 30  1  0  0  0  0
 25 24  2  0  0  0  0
 26 25  1  0  0  0  0
 27 26  2  0  0  0  0
 27 28  1  0  0  0  0
 28 29  2  0  0  0  0
 29 24  1  0  0  0  0
 31 25  1  0  0  0  0
 32 26  1  0  0  0  0
M  END
>  <minimizedAffinity>
-5.97246981

>  <minimizedRMSD>
2.63024092

$$$$
