
     RDKit          3D

 22 23  0  0  0  0  0  0  0  0999 V2000
   37.3544   30.2300   51.3733 C   0  0  0  0  0  0  0  0  0  0  0  0
   38.0149   30.7584   50.2618 C   0  0  0  0  0  0  0  0  0  0  0  0
   37.5680   30.4221   48.9903 C   0  0  0  0  0  0  0  0  0  0  0  0
   36.5051   29.5913   48.8978 N   0  0  0  0  0  0  0  0  0  0  0  0
   35.8841   29.0939   49.9956 C   0  0  0  0  0  0  0  0  0  0  0  0
   36.3014   29.4075   51.2250 N   0  0  0  0  0  0  0  0  0  0  0  0
   38.2053   30.9332   47.7975 C   0  0  0  0  0  0  0  0  0  0  0  0
   39.0258   31.8745   47.8205 O   0  0  0  0  0  0  0  0  0  0  0  0
   37.7873   30.5589   52.3138 H   0  0  0  0  0  0  0  0  0  0  0  0
   38.8689   31.4259   50.3462 H   0  0  0  0  0  0  0  0  0  0  0  0
   35.0214   28.4200   49.8736 H   0  0  0  0  0  0  0  0  0  0  0  0
   40.5881   30.3811   46.0395 Cl  0  0  0  0  0  0  0  0  0  0  0  0
   38.9122   30.0455   45.6240 C   0  0  0  0  0  0  0  0  0  0  0  0
   37.8894   30.3372   46.5035 C   0  0  0  0  0  0  0  0  0  0  0  0
   36.6199   30.0268   46.0604 C   0  0  0  0  0  0  0  0  0  0  0  0
   35.7947   30.2409   46.7214 H   0  0  0  0  0  0  0  0  0  0  0  0
   36.3829   29.4638   44.8251 C   0  0  0  0  0  0  0  0  0  0  0  0
   37.4285   29.1845   43.9693 C   0  0  0  0  0  0  0  0  0  0  0  0
   37.0520   28.4688   42.4147 Cl  0  0  0  0  0  0  0  0  0  0  0  0
   38.7175   29.4762   44.3656 C   0  0  0  0  0  0  0  0  0  0  0  0
   39.5381   29.2583   43.6968 H   0  0  0  0  0  0  0  0  0  0  0  0
   35.3571   29.2506   44.5531 H   0  0  0  0  0  0  0  0  0  0  0  0
  2  1  2  0
  3  2  1  0
  4  3  2  0
  4  5  1  0
  5  6  2  0
  6  1  1  0
  7  3  1  0
  8  7  2  0
  1  9  1  0
  2 10  1  0
  5 11  1  0
 12 13  1  0
 13 14  2  0
 14 15  1  0
 15 16  1  0
 15 17  2  0
 17 18  1  0
 18 19  1  0
 18 20  2  0
 20 21  1  0
 20 13  1  0
 17 22  1  0
  7 14  1  0
M  ISO  5   9  14  10  14  11  14  16  16  21  15
M  END
>  <DihAtoms>  (1) 
2,6,13,12

>  <DihDeg>  (1) 
-134.98963994748806

$$$$
