
 OpenBabel03272509243D

 25 26  0  0  0  0  0  0  0  0999 V2000
   35.1610   30.2830   44.8430 C   0  0  0  0  0  0  0  0  0  0  0  0
   34.8130   30.6760   43.8650 H   0  0  0  0  0  0  0  0  0  0  0  0
   34.6670   30.7870   45.6850 H   0  0  0  0  0  0  0  0  0  0  0  0
   36.1330   30.6180   47.6120 Cl  0  0  0  0  0  0  0  0  0  0  0  0
   37.1690   30.6600   46.1820 C   0  0  0  0  0  0  0  0  0  0  0  0
   36.6360   30.4930   44.9070 C   0  0  0  0  0  0  0  0  0  0  0  0
   37.5200   30.5390   43.8520 C   0  0  0  0  0  0  0  0  0  0  0  0
   37.0670   30.4060   42.8810 H   0  0  0  0  0  0  0  0  0  0  0  0
   38.8620   30.7460   44.0880 C   0  0  0  0  0  3  0  0  0  0  0  0
   39.3670   30.9090   45.3470 C   0  0  0  0  0  0  0  0  0  0  0  0
   41.0820   31.1710   45.6250 Cl  0  0  0  0  0  0  0  0  0  0  0  0
   38.5080   30.8660   46.4200 C   0  0  0  0  0  0  0  0  0  0  0  0
   38.9230   30.9980   47.4110 H   0  0  0  0  0  0  0  0  0  0  0  0
   34.8960   28.7800   44.8420 C   0  0  0  0  0  0  0  0  0  0  0  0
   33.8970   28.6190   45.3440 H   0  0  0  0  0  0  0  0  0  0  0  0
   35.6610   28.2460   45.4110 H   0  0  0  0  0  0  0  0  0  0  0  0
   34.0490   28.2270   41.1660 C   0  0  0  0  0  0  0  0  0  0  0  0
   34.0260   28.7290   42.4620 C   0  0  0  0  0  0  0  0  0  0  0  0
   34.8810   28.2750   43.4500 C   0  0  0  0  0  0  0  0  0  0  0  0
   35.7560   27.3030   43.0930 N   0  0  0  0  0  0  0  0  0  0  0  0
   35.7780   26.8130   41.8290 C   0  0  0  0  0  0  0  0  0  0  0  0
   34.9340   27.2720   40.8840 N   0  0  0  0  0  0  0  0  0  0  0  0
   33.3960   28.5670   40.3920 H   0  0  0  0  0  0  0  0  0  0  0  0
   33.3120   29.4910   42.6740 H   0  0  0  0  0  0  0  0  0  0  0  0
   36.5300   26.0380   41.6910 H   0  0  0  0  0  0  0  0  0  0  0  0
  1  6  1  0  0  0  0
  1  3  1  0  0  0  0
  2  1  1  0  0  0  0
  5 12  1  0  0  0  0
  5  4  1  0  0  0  0
  6  5  2  0  0  0  0
  7  9  2  0  0  0  0
  7  6  1  0  0  0  0
  8  7  1  0  0  0  0
  9 10  1  0  0  0  0
 10 11  1  0  0  0  0
 10 12  2  0  0  0  0
 12 13  1  0  0  0  0
 14  1  1  0  0  0  0
 14 15  1  0  0  0  0
 14 16  1  0  0  0  0
 17 18  1  0  0  0  0
 18 24  1  0  0  0  0
 18 19  2  0  0  0  0
 19 14  1  0  0  0  0
 20 19  1  0  0  0  0
 21 20  2  0  0  0  0
 22 17  2  0  0  0  0
 22 21  1  0  0  0  0
 23 17  1  0  0  0  0
 25 21  1  0  0  0  0
M  END
>  <minimizedAffinity>
-2.6334734

>  <minimizedRMSD>
6.57648849

$$$$
