
 OpenBabel03272503403D

 42 45  0  0  1  0  0  0  0  0999 V2000
   39.5200   31.1200   41.5770 C   0  0  2  0  0  0  0  0  0  0  0  0
   39.6280   32.2480   42.6300 C   0  0  1  0  0  0  0  0  0  0  0  0
   38.5590   33.1540   42.1130 C   0  0  0  0  0  0  0  0  0  0  0  0
   38.5910   33.0870   40.7420 O   0  0  0  0  0  0  0  0  0  0  0  0
   39.3640   32.0400   40.3460 C   0  0  0  0  0  0  0  0  0  0  0  0
   40.4480   30.5540   41.5230 H   0  0  0  0  0  0  0  0  0  0  0  0
   40.6010   32.7410   42.5970 H   0  0  0  0  0  0  0  0  0  0  0  0
   37.5660   32.8230   42.4970 H   0  0  0  0  0  0  0  0  0  0  0  0
   38.7140   34.1700   42.4960 H   0  0  0  0  0  0  0  0  0  0  0  0
   38.8490   31.4810   39.5370 H   0  0  0  0  0  0  0  0  0  0  0  0
   40.3630   32.3950   40.0030 H   0  0  0  0  0  0  0  0  0  0  0  0
   38.3700   31.0800   45.7920 C   0  0  0  0  0  0  0  0  0  0  0  0
   39.7040   30.8520   45.9640 C   0  0  0  0  0  0  0  0  0  0  0  0
   40.2970   31.2750   44.7760 C   0  0  0  0  0  0  0  0  0  0  0  0
   39.3490   31.7330   43.9460 N   0  0  0  0  0  0  0  0  0  0  0  0
   38.1740   31.6150   44.5650 N   0  0  0  0  0  0  0  0  0  0  0  0
   40.1830   30.4260   46.8480 H   0  0  0  0  0  0  0  0  0  0  0  0
   41.3890   31.1880   44.6730 H   0  0  0  0  0  0  0  0  0  0  0  0
   36.4810   30.6200   48.9950 C   0  0  0  0  0  0  0  0  0  0  0  0
   37.5110   30.9020   48.1200 C   0  0  0  0  0  0  0  0  0  0  0  0
   37.3340   30.8000   46.7590 C   0  0  0  0  0  0  0  0  0  0  0  0
   36.1100   30.4150   46.3350 N   0  0  0  0  0  0  0  0  0  0  0  0
   35.1010   30.1390   47.2110 C   0  0  0  0  0  0  0  0  0  0  0  0
   35.2700   30.2360   48.5110 N   0  0  0  0  0  0  0  0  0  0  0  0
   38.5150   31.2170   48.4210 H   0  0  0  0  0  0  0  0  0  0  0  0
   34.1220   29.8300   46.8440 H   0  0  0  0  0  0  0  0  0  0  0  0
   36.8560   30.7810   50.3340 O   0  0  0  0  0  0  0  0  0  0  0  0
   36.9010   29.7120   51.2520 C   0  0  0  0  0  0  0  0  0  0  0  0
   35.6350   29.2750   51.6160 F   0  0  0  0  0  0  0  0  0  0  0  0
   37.6200   30.1010   52.3480 F   0  0  0  0  0  0  0  0  0  0  0  0
   37.5900   28.6680   50.6610 F   0  0  0  0  0  0  0  0  0  0  0  0
   38.3440   30.4850   41.8150 O   0  0  0  0  0  0  0  0  0  0  0  0
   39.1820   28.0470   43.5520 Cl  0  0  0  0  0  0  0  0  0  0  0  0
   38.0580   28.0130   42.2250 C   0  0  0  0  0  0  0  0  0  0  0  0
   37.8690   29.2390   41.6280 C   0  0  0  0  0  0  0  0  0  0  0  0
   36.9640   29.2270   40.5540 C   0  0  0  0  0  0  0  0  0  0  0  0
   36.6580   30.0830   39.9300 H   0  0  0  0  0  0  0  0  0  0  0  0
   36.3130   28.0860   40.1260 C   0  0  0  0  0  3  0  0  0  0  0  0
   36.5620   26.8960   40.7820 C   0  0  0  0  0  0  0  0  0  0  0  0
   35.7930   25.3970   40.3220 Cl  0  0  0  0  0  0  0  0  0  0  0  0
   37.4410   26.8600   41.8400 C   0  0  0  0  0  0  0  0  0  0  0  0
   37.6800   25.9690   42.3940 H   0  0  0  0  0  0  0  0  0  0  0  0
  1  6  1  6  0  0  0
  1 32  1  0  0  0  0
  1  2  1  0  0  0  0
  2  7  1  6  0  0  0
  2 15  1  0  0  0  0
  3  9  1  0  0  0  0
  3  8  1  0  0  0  0
  3  2  1  0  0  0  0
  4  3  1  0  0  0  0
  5  4  1  0  0  0  0
  5  1  1  0  0  0  0
 10  5  1  0  0  0  0
 11  5  1  0  0  0  0
 12 13  1  0  0  0  0
 12 21  1  0  0  0  0
 13 17  1  0  0  0  0
 14 13  2  0  0  0  0
 15 16  1  0  0  0  0
 15 14  1  0  0  0  0
 16 12  2  0  0  0  0
 18 14  1  0  0  0  0
 19 27  1  0  0  0  0
 20 25  1  0  0  0  0
 20 19  2  0  0  0  0
 21 20  1  0  0  0  0
 22 21  2  0  0  0  0
 22 23  1  0  0  0  0
 23 24  2  0  0  0  0
 24 19  1  0  0  0  0
 26 23  1  0  0  0  0
 27 28  1  0  0  0  0
 28 29  1  0  0  0  0
 28 30  1  0  0  0  0
 31 28  1  0  0  0  0
 34 33  1  0  0  0  0
 35 32  1  0  0  0  0
 35 34  2  0  0  0  0
 36 35  1  0  0  0  0
 37 36  1  0  0  0  0
 38 36  2  0  0  0  0
 38 39  1  0  0  0  0
 39 41  2  0  0  0  0
 40 39  1  0  0  0  0
 41 34  1  0  0  0  0
 41 42  1  0  0  0  0
M  END
>  <minimizedAffinity>
-5.91686726

>  <minimizedRMSD>
1.23410666

$$$$
