
 OpenBabel03262523143D

 30 32  0  0  0  0  0  0  0  0999 V2000
   40.0810   23.1220   36.8050 C   0  0  0  0  0  0  0  0  0  0  0  0
   39.4140   23.0580   38.0020 C   0  0  0  0  0  0  0  0  0  0  0  0
   38.2310   23.7510   38.0170 C   0  0  0  0  0  0  0  0  0  0  0  0
   37.7460   24.4490   36.9360 C   0  0  0  0  0  0  0  0  0  0  0  0
   38.4870   24.4560   35.7730 C   0  0  0  0  0  0  0  0  0  0  0  0
   39.6550   23.7900   35.7150 N   0  0  0  0  0  0  0  0  0  0  0  0
   39.8230   22.5080   38.8100 H   0  0  0  0  0  0  0  0  0  0  0  0
   37.6370   23.7460   38.9460 H   0  0  0  0  0  0  0  0  0  0  0  0
   36.8220   24.9560   37.0390 H   0  0  0  0  0  0  0  0  0  0  0  0
   38.6620   27.4740   35.8850 Cl  0  0  0  0  0  0  0  0  0  0  0  0
   38.0700   26.5480   34.5390 C   0  0  0  0  0  0  0  0  0  0  0  0
   38.0330   25.1770   34.5900 C   0  0  0  0  0  0  0  0  0  0  0  0
   37.5400   24.5830   33.4490 C   0  0  0  0  0  0  0  0  0  0  0  0
   37.4760   23.5050   33.4060 H   0  0  0  0  0  0  0  0  0  0  0  0
   37.1130   25.2570   32.3390 C   0  0  0  0  0  3  0  0  0  0  0  0
   37.1680   26.6370   32.3280 C   0  0  0  0  0  0  0  0  0  0  0  0
   36.6310   27.5290   30.9260 Cl  0  0  0  0  0  0  0  0  0  0  0  0
   37.6510   27.2710   33.4420 C   0  0  0  0  0  0  0  0  0  0  0  0
   37.6740   28.3570   33.3840 H   0  0  0  0  0  0  0  0  0  0  0  0
   42.6890   20.5360   37.0480 C   0  0  0  0  0  0  0  0  0  0  0  0
   43.7720   21.1130   36.3670 C   0  0  0  0  0  0  0  0  0  0  0  0
   43.5910   22.3820   35.8340 C   0  0  0  0  0  0  0  0  0  0  0  0
   42.3880   22.9740   36.0060 N   0  0  0  0  0  0  0  0  0  0  0  0
   41.3670   22.4220   36.6520 C   0  0  0  0  0  0  0  0  0  0  0  0
   41.5350   21.1880   37.1730 N   0  0  0  0  0  0  0  0  0  0  0  0
   44.6800   20.5630   36.2860 H   0  0  0  0  0  0  0  0  0  0  0  0
   44.3990   22.8660   35.3000 H   0  0  0  0  0  0  0  0  0  0  0  0
   42.7580   19.2220   37.6440 N   0  0  0  0  0  0  0  0  0  0  0  0
   41.9280   18.6010   37.4760 H   0  0  0  0  0  0  0  0  0  0  0  0
   43.5470   18.8230   38.2270 H   0  0  0  0  0  0  0  0  0  0  0  0
  1  2  1  0  0  0  0
  2  3  2  0  0  0  0
  2  7  1  0  0  0  0
  3  8  1  0  0  0  0
  4  9  1  0  0  0  0
  4  3  1  0  0  0  0
  5  4  2  0  0  0  0
  6  5  1  0  0  0  0
  6  1  2  0  0  0  0
 11 12  1  0  0  0  0
 11 10  1  0  0  0  0
 12  5  1  0  0  0  0
 13 12  2  0  0  0  0
 14 13  1  0  0  0  0
 15 13  1  0  0  0  0
 16 15  2  0  0  0  0
 16 18  1  0  0  0  0
 17 16  1  0  0  0  0
 18 11  2  0  0  0  0
 19 18  1  0  0  0  0
 20 25  1  0  0  0  0
 20 28  1  0  0  0  0
 21 20  2  0  0  0  0
 22 23  2  0  0  0  0
 22 21  1  0  0  0  0
 23 24  1  0  0  0  0
 24  1  1  0  0  0  0
 24 25  2  0  0  0  0
 26 21  1  0  0  0  0
 27 22  1  0  0  0  0
 28 30  1  0  0  0  0
 29 28  1  0  0  0  0
M  END
>  <minimizedAffinity>
-5.94186306

$$$$

 OpenBabel03262523143D

 30 32  0  0  0  0  0  0  0  0999 V2000
   38.1170   24.1190   34.5220 C   0  0  0  0  0  0  0  0  0  0  0  0
   37.9840   25.4190   34.1050 C   0  0  0  0  0  0  0  0  0  0  0  0
   37.7200   25.5480   32.7650 C   0  0  0  0  0  0  0  0  0  0  0  0
   37.5990   24.4790   31.9090 C   0  0  0  0  0  0  0  0  0  0  0  0
   37.7490   23.2070   32.4210 C   0  0  0  0  0  0  0  0  0  0  0  0
   38.0090   23.0350   33.7290 N   0  0  0  0  0  0  0  0  0  0  0  0
   38.0860   26.2130   34.7980 H   0  0  0  0  0  0  0  0  0  0  0  0
   37.6000   26.5640   32.3540 H   0  0  0  0  0  0  0  0  0  0  0  0
   37.3940   24.6740   30.8880 H   0  0  0  0  0  0  0  0  0  0  0  0
   35.0410   21.8610   32.3440 Cl  0  0  0  0  0  0  0  0  0  0  0  0
   36.4480   21.3450   31.4650 C   0  0  0  0  0  0  0  0  0  0  0  0
   37.6330   22.0300   31.5690 C   0  0  0  0  0  0  0  0  0  0  0  0
   38.6580   21.5020   30.8140 C   0  0  0  0  0  0  0  0  0  0  0  0
   39.6260   21.9820   30.8390 H   0  0  0  0  0  0  0  0  0  0  0  0
   38.5530   20.3980   30.0170 C   0  0  0  0  0  3  0  0  0  0  0  0
   37.3420   19.7380   29.9380 C   0  0  0  0  0  0  0  0  0  0  0  0
   37.1730   18.3240   28.9280 Cl  0  0  0  0  0  0  0  0  0  0  0  0
   36.2940   20.2260   30.6730 C   0  0  0  0  0  0  0  0  0  0  0  0
   35.3620   19.6730   30.5770 H   0  0  0  0  0  0  0  0  0  0  0  0
   39.6430   22.6880   37.5510 C   0  0  0  0  0  0  0  0  0  0  0  0
   38.9350   23.3120   38.5880 C   0  0  0  0  0  0  0  0  0  0  0  0
   37.9420   24.2160   38.2330 C   0  0  0  0  0  0  0  0  0  0  0  0
   37.7270   24.4320   36.9160 N   0  0  0  0  0  0  0  0  0  0  0  0
   38.4020   23.8370   35.9390 C   0  0  0  0  0  0  0  0  0  0  0  0
   39.3690   22.9580   36.2770 N   0  0  0  0  0  0  0  0  0  0  0  0
   39.1800   23.0720   39.5960 H   0  0  0  0  0  0  0  0  0  0  0  0
   37.3700   24.7210   39.0000 H   0  0  0  0  0  0  0  0  0  0  0  0
   40.6970   21.7310   37.7980 N   0  0  0  0  0  0  0  0  0  0  0  0
   41.5650   21.8490   37.2180 H   0  0  0  0  0  0  0  0  0  0  0  0
   40.6880   20.9310   38.4910 H   0  0  0  0  0  0  0  0  0  0  0  0
  1 24  1  0  0  0  0
  2  1  1  0  0  0  0
  2  7  1  0  0  0  0
  3  2  2  0  0  0  0
  4  5  2  0  0  0  0
  4  3  1  0  0  0  0
  5  6  1  0  0  0  0
  6  1  2  0  0  0  0
  8  3  1  0  0  0  0
  9  4  1  0  0  0  0
 11 12  1  0  0  0  0
 11 10  1  0  0  0  0
 12  5  1  0  0  0  0
 13 14  1  0  0  0  0
 13 12  2  0  0  0  0
 15 13  1  0  0  0  0
 16 15  2  0  0  0  0
 16 18  1  0  0  0  0
 17 16  1  0  0  0  0
 18 11  2  0  0  0  0
 19 18  1  0  0  0  0
 20 28  1  0  0  0  0
 20 21  1  0  0  0  0
 21 26  1  0  0  0  0
 22 21  2  0  0  0  0
 22 27  1  0  0  0  0
 23 22  1  0  0  0  0
 24 25  1  0  0  0  0
 24 23  2  0  0  0  0
 25 20  2  0  0  0  0
 28 30  1  0  0  0  0
 29 28  1  0  0  0  0
M  END
>  <minimizedAffinity>
-5.80722809

$$$$

 OpenBabel03262523143D

 30 32  0  0  0  0  0  0  0  0999 V2000
   38.1050   23.2610   34.2140 C   0  0  0  0  0  0  0  0  0  0  0  0
   37.9510   22.0540   33.5790 C   0  0  0  0  0  0  0  0  0  0  0  0
   37.6850   22.1610   32.2390 C   0  0  0  0  0  0  0  0  0  0  0  0
   37.5790   23.3620   31.5790 C   0  0  0  0  0  0  0  0  0  0  0  0
   37.7510   24.5250   32.3010 C   0  0  0  0  0  0  0  0  0  0  0  0
   38.0130   24.4660   33.6190 N   0  0  0  0  0  0  0  0  0  0  0  0
   38.0400   21.1510   34.1260 H   0  0  0  0  0  0  0  0  0  0  0  0
   37.5470   21.2330   31.6600 H   0  0  0  0  0  0  0  0  0  0  0  0
   37.3710   23.3490   30.5410 H   0  0  0  0  0  0  0  0  0  0  0  0
   35.0200   25.3190   31.2720 Cl  0  0  0  0  0  0  0  0  0  0  0  0
   36.4580   26.2880   31.1640 C   0  0  0  0  0  0  0  0  0  0  0  0
   37.6520   25.8340   31.6650 C   0  0  0  0  0  0  0  0  0  0  0  0
   38.7010   26.7110   31.5070 C   0  0  0  0  0  0  0  0  0  0  0  0
   39.6780   26.4310   31.8740 H   0  0  0  0  0  0  0  0  0  0  0  0
   38.6110   27.9370   30.9100 C   0  0  0  0  0  3  0  0  0  0  0  0
   37.3910   28.3580   30.4200 C   0  0  0  0  0  0  0  0  0  0  0  0
   37.2410   29.9200   29.6520 Cl  0  0  0  0  0  0  0  0  0  0  0  0
   36.3190   27.5180   30.5540 C   0  0  0  0  0  0  0  0  0  0  0  0
   35.3800   27.8940   30.1530 H   0  0  0  0  0  0  0  0  0  0  0  0
   39.6620   22.5340   37.4690 C   0  0  0  0  0  0  0  0  0  0  0  0
   38.9370   23.3440   38.3550 C   0  0  0  0  0  0  0  0  0  0  0  0
   37.9230   24.1300   37.8220 C   0  0  0  0  0  0  0  0  0  0  0  0
   37.7050   24.0590   36.4900 N   0  0  0  0  0  0  0  0  0  0  0  0
   38.3950   23.2900   35.6570 C   0  0  0  0  0  0  0  0  0  0  0  0
   39.3820   22.5240   36.1680 N   0  0  0  0  0  0  0  0  0  0  0  0
   39.1870   23.3270   39.3900 H   0  0  0  0  0  0  0  0  0  0  0  0
   37.3370   24.7700   38.4690 H   0  0  0  0  0  0  0  0  0  0  0  0
   40.7380   21.6750   37.9070 N   0  0  0  0  0  0  0  0  0  0  0  0
   41.6040   21.6910   37.3120 H   0  0  0  0  0  0  0  0  0  0  0  0
   40.7480   21.0390   38.7520 H   0  0  0  0  0  0  0  0  0  0  0  0
  1 24  1  0  0  0  0
  2  7  1  0  0  0  0
  2  1  2  0  0  0  0
  3  2  1  0  0  0  0
  4  3  2  0  0  0  0
  4  5  1  0  0  0  0
  5  6  2  0  0  0  0
  6  1  1  0  0  0  0
  8  3  1  0  0  0  0
  9  4  1  0  0  0  0
 11 10  1  0  0  0  0
 11 12  1  0  0  0  0
 12  5  1  0  0  0  0
 13 12  2  0  0  0  0
 13 14  1  0  0  0  0
 15 13  1  0  0  0  0
 16 18  1  0  0  0  0
 16 15  2  0  0  0  0
 17 16  1  0  0  0  0
 18 11  2  0  0  0  0
 19 18  1  0  0  0  0
 20 28  1  0  0  0  0
 20 21  1  0  0  0  0
 21 26  1  0  0  0  0
 22 21  2  0  0  0  0
 22 27  1  0  0  0  0
 23 22  1  0  0  0  0
 24 25  1  0  0  0  0
 24 23  2  0  0  0  0
 25 20  2  0  0  0  0
 28 30  1  0  0  0  0
 29 28  1  0  0  0  0
M  END
>  <minimizedAffinity>
-5.73165226

$$$$

 OpenBabel03262523143D

 30 32  0  0  0  0  0  0  0  0999 V2000
   37.1290   23.1020   31.5280 C   0  0  0  0  0  0  0  0  0  0  0  0
   38.0600   23.0790   30.5200 C   0  0  0  0  0  0  0  0  0  0  0  0
   38.5620   24.3130   30.1990 C   0  0  0  0  0  0  0  0  0  0  0  0
   38.1760   25.4770   30.8230 C   0  0  0  0  0  0  0  0  0  0  0  0
   37.2330   25.4010   31.8260 C   0  0  0  0  0  0  0  0  0  0  0  0
   36.7130   24.2100   32.1730 N   0  0  0  0  0  0  0  0  0  0  0  0
   38.3280   22.1600   30.0660 H   0  0  0  0  0  0  0  0  0  0  0  0
   39.3160   24.3760   29.3970 H   0  0  0  0  0  0  0  0  0  0  0  0
   38.6180   26.3860   30.5080 H   0  0  0  0  0  0  0  0  0  0  0  0
   38.2270   25.7580   34.6610 Cl  0  0  0  0  0  0  0  0  0  0  0  0
   37.1690   26.8490   33.8190 C   0  0  0  0  0  0  0  0  0  0  0  0
   36.7770   26.5950   32.5290 C   0  0  0  0  0  0  0  0  0  0  0  0
   35.9390   27.5490   31.9950 C   0  0  0  0  0  0  0  0  0  0  0  0
   35.5830   27.4250   30.9820 H   0  0  0  0  0  0  0  0  0  0  0  0
   35.5100   28.6680   32.6510 C   0  0  0  0  0  3  0  0  0  0  0  0
   35.9290   28.8880   33.9490 C   0  0  0  0  0  0  0  0  0  0  0  0
   35.3990   30.3080   34.8170 Cl  0  0  0  0  0  0  0  0  0  0  0  0
   36.7620   27.9650   34.5220 C   0  0  0  0  0  0  0  0  0  0  0  0
   37.0650   28.1830   35.5440 H   0  0  0  0  0  0  0  0  0  0  0  0
   35.6960   20.5040   33.7050 C   0  0  0  0  0  0  0  0  0  0  0  0
   35.3490   19.4890   32.8020 C   0  0  0  0  0  0  0  0  0  0  0  0
   35.6110   19.7110   31.4560 C   0  0  0  0  0  0  0  0  0  0  0  0
   36.1820   20.8870   31.1110 N   0  0  0  0  0  0  0  0  0  0  0  0
   36.5080   21.8430   31.9720 C   0  0  0  0  0  0  0  0  0  0  0  0
   36.2560   21.6340   33.2820 N   0  0  0  0  0  0  0  0  0  0  0  0
   34.9030   18.5970   33.1760 H   0  0  0  0  0  0  0  0  0  0  0  0
   35.3590   18.9560   30.7230 H   0  0  0  0  0  0  0  0  0  0  0  0
   35.4720   20.3860   35.1280 N   0  0  0  0  0  0  0  0  0  0  0  0
   35.0660   21.2330   35.5970 H   0  0  0  0  0  0  0  0  0  0  0  0
   35.6720   19.5470   35.7420 H   0  0  0  0  0  0  0  0  0  0  0  0
  1 24  1  0  0  0  0
  1  6  1  0  0  0  0
  2  1  2  0  0  0  0
  3  2  1  0  0  0  0
  3  4  2  0  0  0  0
  4  5  1  0  0  0  0
  5  6  2  0  0  0  0
  5 12  1  0  0  0  0
  7  2  1  0  0  0  0
  8  3  1  0  0  0  0
  9  4  1  0  0  0  0
 11 18  1  0  0  0  0
 11 10  1  0  0  0  0
 12 11  2  0  0  0  0
 13 12  1  0  0  0  0
 13 15  2  0  0  0  0
 14 13  1  0  0  0  0
 15 16  1  0  0  0  0
 16 18  2  0  0  0  0
 16 17  1  0  0  0  0
 18 19  1  0  0  0  0
 20 28  1  0  0  0  0
 21 26  1  0  0  0  0
 21 20  2  0  0  0  0
 22 21  1  0  0  0  0
 23 22  2  0  0  0  0
 23 24  1  0  0  0  0
 24 25  2  0  0  0  0
 25 20  1  0  0  0  0
 27 22  1  0  0  0  0
 28 29  1  0  0  0  0
 28 30  1  0  0  0  0
M  END
>  <minimizedAffinity>
-5.67639446

$$$$

 OpenBabel03262523143D

 30 32  0  0  0  0  0  0  0  0999 V2000
   36.8660   27.3920   33.6520 C   0  0  0  0  0  0  0  0  0  0  0  0
   36.9150   27.5060   32.2850 C   0  0  0  0  0  0  0  0  0  0  0  0
   36.3840   28.6750   31.8050 C   0  0  0  0  0  0  0  0  0  0  0  0
   35.8470   29.6520   32.6100 C   0  0  0  0  0  0  0  0  0  0  0  0
   35.8410   29.4490   33.9740 C   0  0  0  0  0  0  0  0  0  0  0  0
   36.3520   28.3150   34.4880 N   0  0  0  0  0  0  0  0  0  0  0  0
   37.3380   26.7290   31.7020 H   0  0  0  0  0  0  0  0  0  0  0  0
   36.3880   28.8400   30.7150 H   0  0  0  0  0  0  0  0  0  0  0  0
   35.4590   30.5240   32.1510 H   0  0  0  0  0  0  0  0  0  0  0  0
   32.8480   29.3630   34.4020 Cl  0  0  0  0  0  0  0  0  0  0  0  0
   33.9410   30.4900   35.1480 C   0  0  0  0  0  0  0  0  0  0  0  0
   35.2870   30.4430   34.8860 C   0  0  0  0  0  0  0  0  0  0  0  0
   36.0250   31.3980   35.5500 C   0  0  0  0  0  0  0  0  0  0  0  0
   37.0950   31.4310   35.3990 H   0  0  0  0  0  0  0  0  0  0  0  0
   35.5080   32.3310   36.4040 C   0  0  0  0  0  3  0  0  0  0  0  0
   34.1470   32.3440   36.6410 C   0  0  0  0  0  0  0  0  0  0  0  0
   33.4530   33.5220   37.7270 Cl  0  0  0  0  0  0  0  0  0  0  0  0
   33.3730   31.4120   36.0020 C   0  0  0  0  0  0  0  0  0  0  0  0
   32.3090   31.4630   36.2220 H   0  0  0  0  0  0  0  0  0  0  0  0
   38.1550   23.9780   34.1310 C   0  0  0  0  0  0  0  0  0  0  0  0
   38.4070   23.9250   35.5100 C   0  0  0  0  0  0  0  0  0  0  0  0
   38.1300   25.0630   36.2560 C   0  0  0  0  0  0  0  0  0  0  0  0
   37.6390   26.1400   35.6050 N   0  0  0  0  0  0  0  0  0  0  0  0
   37.4030   26.1840   34.2990 C   0  0  0  0  0  0  0  0  0  0  0  0
   37.6690   25.0810   33.5670 N   0  0  0  0  0  0  0  0  0  0  0  0
   38.7950   23.0260   35.9280 H   0  0  0  0  0  0  0  0  0  0  0  0
   38.3090   25.0670   37.3240 H   0  0  0  0  0  0  0  0  0  0  0  0
   38.4030   22.8580   33.2530 N   0  0  0  0  0  0  0  0  0  0  0  0
   38.8810   23.0870   32.3470 H   0  0  0  0  0  0  0  0  0  0  0  0
   38.1570   21.8420   33.4230 H   0  0  0  0  0  0  0  0  0  0  0  0
  1 24  1  0  0  0  0
  1  6  1  0  0  0  0
  2  1  2  0  0  0  0
  3  2  1  0  0  0  0
  3  4  2  0  0  0  0
  4  5  1  0  0  0  0
  5  6  2  0  0  0  0
  5 12  1  0  0  0  0
  7  2  1  0  0  0  0
  8  3  1  0  0  0  0
  9  4  1  0  0  0  0
 10 11  1  0  0  0  0
 11 18  1  0  0  0  0
 12 11  2  0  0  0  0
 12 13  1  0  0  0  0
 13 15  2  0  0  0  0
 14 13  1  0  0  0  0
 15 16  1  0  0  0  0
 16 17  1  0  0  0  0
 18 19  1  0  0  0  0
 18 16  2  0  0  0  0
 20 21  1  0  0  0  0
 21 26  1  0  0  0  0
 21 22  2  0  0  0  0
 22 27  1  0  0  0  0
 23 22  1  0  0  0  0
 24 23  2  0  0  0  0
 25 20  2  0  0  0  0
 25 24  1  0  0  0  0
 28 30  1  0  0  0  0
 28 20  1  0  0  0  0
 29 28  1  0  0  0  0
M  END
>  <minimizedAffinity>
-5.66870975

$$$$

 OpenBabel03262523143D

 30 32  0  0  0  0  0  0  0  0999 V2000
   35.1300   30.0840   33.4580 C   0  0  0  0  0  0  0  0  0  0  0  0
   35.6530   31.0720   32.6610 C   0  0  0  0  0  0  0  0  0  0  0  0
   36.3680   30.6020   31.5900 C   0  0  0  0  0  0  0  0  0  0  0  0
   36.5520   29.2650   31.3280 C   0  0  0  0  0  0  0  0  0  0  0  0
   35.9870   28.3440   32.1850 C   0  0  0  0  0  0  0  0  0  0  0  0
   35.2780   28.7620   33.2500 N   0  0  0  0  0  0  0  0  0  0  0  0
   35.4870   32.0910   32.9000 H   0  0  0  0  0  0  0  0  0  0  0  0
   36.8200   31.3360   30.9030 H   0  0  0  0  0  0  0  0  0  0  0  0
   37.1200   28.9930   30.4760 H   0  0  0  0  0  0  0  0  0  0  0  0
   38.3110   27.0120   33.5910 Cl  0  0  0  0  0  0  0  0  0  0  0  0
   37.1660   26.2120   32.5590 C   0  0  0  0  0  0  0  0  0  0  0  0
   36.1430   26.9100   31.9670 C   0  0  0  0  0  0  0  0  0  0  0  0
   35.3170   26.1420   31.1780 C   0  0  0  0  0  0  0  0  0  0  0  0
   34.4850   26.6140   30.6750 H   0  0  0  0  0  0  0  0  0  0  0  0
   35.4620   24.7990   30.9710 C   0  0  0  0  0  3  0  0  0  0  0  0
   36.5040   24.1320   31.5860 C   0  0  0  0  0  0  0  0  0  0  0  0
   36.7170   22.4160   31.3430 Cl  0  0  0  0  0  0  0  0  0  0  0  0
   37.3520   24.8570   32.3800 C   0  0  0  0  0  0  0  0  0  0  0  0
   38.1560   24.2870   32.8420 H   0  0  0  0  0  0  0  0  0  0  0  0
   34.1620   31.6190   36.6600 C   0  0  0  0  0  0  0  0  0  0  0  0
   32.8600   31.1380   36.8620 C   0  0  0  0  0  0  0  0  0  0  0  0
   32.3320   30.2930   35.8940 C   0  0  0  0  0  0  0  0  0  0  0  0
   33.1060   29.9930   34.8280 N   0  0  0  0  0  0  0  0  0  0  0  0
   34.3390   30.4520   34.6440 C   0  0  0  0  0  0  0  0  0  0  0  0
   34.8590   31.2730   35.5800 N   0  0  0  0  0  0  0  0  0  0  0  0
   32.3320   31.4340   37.7370 H   0  0  0  0  0  0  0  0  0  0  0  0
   31.3300   29.8990   36.0080 H   0  0  0  0  0  0  0  0  0  0  0  0
   34.8160   32.5030   37.5970 N   0  0  0  0  0  0  0  0  0  0  0  0
   35.3280   33.3170   37.1750 H   0  0  0  0  0  0  0  0  0  0  0  0
   34.8370   32.4190   38.6520 H   0  0  0  0  0  0  0  0  0  0  0  0
  1 24  1  0  0  0  0
  2  7  1  0  0  0  0
  2  1  2  0  0  0  0
  3  2  1  0  0  0  0
  4  3  2  0  0  0  0
  4  5  1  0  0  0  0
  5  6  2  0  0  0  0
  6  1  1  0  0  0  0
  8  3  1  0  0  0  0
  9  4  1  0  0  0  0
 11 10  1  0  0  0  0
 12  5  1  0  0  0  0
 12 11  2  0  0  0  0
 13 12  1  0  0  0  0
 14 13  1  0  0  0  0
 15 13  2  0  0  0  0
 15 16  1  0  0  0  0
 16 18  2  0  0  0  0
 17 16  1  0  0  0  0
 18 11  1  0  0  0  0
 18 19  1  0  0  0  0
 20 21  1  0  0  0  0
 20 28  1  0  0  0  0
 21 26  1  0  0  0  0
 22 27  1  0  0  0  0
 22 21  2  0  0  0  0
 23 22  1  0  0  0  0
 24 23  2  0  0  0  0
 24 25  1  0  0  0  0
 25 20  2  0  0  0  0
 28 30  1  0  0  0  0
 29 28  1  0  0  0  0
M  END
>  <minimizedAffinity>
-5.63708353

$$$$

 OpenBabel03262523143D

 30 32  0  0  0  0  0  0  0  0999 V2000
   38.2560   22.9610   34.1310 C   0  0  0  0  0  0  0  0  0  0  0  0
   37.5870   21.8980   33.5760 C   0  0  0  0  0  0  0  0  0  0  0  0
   36.7470   22.2450   32.5500 C   0  0  0  0  0  0  0  0  0  0  0  0
   36.5810   23.5360   32.1070 C   0  0  0  0  0  0  0  0  0  0  0  0
   37.2970   24.5400   32.7270 C   0  0  0  0  0  0  0  0  0  0  0  0
   38.1330   24.2440   33.7390 N   0  0  0  0  0  0  0  0  0  0  0  0
   37.7450   20.9190   33.9480 H   0  0  0  0  0  0  0  0  0  0  0  0
   36.1740   21.4450   32.0530 H   0  0  0  0  0  0  0  0  0  0  0  0
   35.9100   23.7110   31.3080 H   0  0  0  0  0  0  0  0  0  0  0  0
   36.9040   26.5760   34.9290 Cl  0  0  0  0  0  0  0  0  0  0  0  0
   36.9860   26.9320   33.2300 C   0  0  0  0  0  0  0  0  0  0  0  0
   37.1680   25.9310   32.3090 C   0  0  0  0  0  0  0  0  0  0  0  0
   37.2130   26.3660   31.0030 C   0  0  0  0  0  0  0  0  0  0  0  0
   37.3540   25.6410   30.2140 H   0  0  0  0  0  0  0  0  0  0  0  0
   37.0920   27.6690   30.6100 C   0  0  0  0  0  3  0  0  0  0  0  0
   36.9100   28.6470   31.5680 C   0  0  0  0  0  0  0  0  0  0  0  0
   36.7520   30.3220   31.0990 Cl  0  0  0  0  0  0  0  0  0  0  0  0
   36.8590   28.2600   32.8800 C   0  0  0  0  0  0  0  0  0  0  0  0
   36.7150   29.0660   33.5970 H   0  0  0  0  0  0  0  0  0  0  0  0
   39.6180   22.7060   37.5400 C   0  0  0  0  0  0  0  0  0  0  0  0
   40.9410   22.2930   37.3240 C   0  0  0  0  0  0  0  0  0  0  0  0
   41.3470   22.1070   36.0080 C   0  0  0  0  0  0  0  0  0  0  0  0
   40.4430   22.3370   35.0310 N   0  0  0  0  0  0  0  0  0  0  0  0
   39.1910   22.7280   35.2430 C   0  0  0  0  0  0  0  0  0  0  0  0
   38.7900   22.9110   36.5190 N   0  0  0  0  0  0  0  0  0  0  0  0
   41.5770   22.1400   38.1640 H   0  0  0  0  0  0  0  0  0  0  0  0
   42.3590   21.7890   35.7940 H   0  0  0  0  0  0  0  0  0  0  0  0
   39.0830   22.9320   38.8630 N   0  0  0  0  0  0  0  0  0  0  0  0
   38.1260   22.5380   39.0410 H   0  0  0  0  0  0  0  0  0  0  0  0
   39.5460   23.4470   39.6640 H   0  0  0  0  0  0  0  0  0  0  0  0
  1 24  1  0  0  0  0
  2  7  1  0  0  0  0
  2  1  2  0  0  0  0
  3  2  1  0  0  0  0
  4  3  2  0  0  0  0
  4  5  1  0  0  0  0
  5  6  2  0  0  0  0
  6  1  1  0  0  0  0
  8  3  1  0  0  0  0
  9  4  1  0  0  0  0
 11 10  1  0  0  0  0
 12  5  1  0  0  0  0
 12 11  2  0  0  0  0
 13 12  1  0  0  0  0
 14 13  1  0  0  0  0
 15 13  2  0  0  0  0
 15 16  1  0  0  0  0
 16 18  2  0  0  0  0
 17 16  1  0  0  0  0
 18 11  1  0  0  0  0
 18 19  1  0  0  0  0
 20 28  1  0  0  0  0
 21 20  1  0  0  0  0
 21 26  1  0  0  0  0
 22 21  2  0  0  0  0
 23 24  2  0  0  0  0
 23 22  1  0  0  0  0
 24 25  1  0  0  0  0
 25 20  2  0  0  0  0
 27 22  1  0  0  0  0
 28 29  1  0  0  0  0
 28 30  1  0  0  0  0
M  END
>  <minimizedAffinity>
-5.6162467

$$$$

 OpenBabel03262523143D

 30 32  0  0  0  0  0  0  0  0999 V2000
   37.9240   23.4430   34.4090 C   0  0  0  0  0  0  0  0  0  0  0  0
   37.6670   22.2640   33.7550 C   0  0  0  0  0  0  0  0  0  0  0  0
   37.3240   22.4230   32.4370 C   0  0  0  0  0  0  0  0  0  0  0  0
   37.2410   23.6470   31.8160 C   0  0  0  0  0  0  0  0  0  0  0  0
   37.5180   24.7780   32.5550 C   0  0  0  0  0  0  0  0  0  0  0  0
   37.8580   24.6680   33.8520 N   0  0  0  0  0  0  0  0  0  0  0  0
   37.7430   21.3430   34.2720 H   0  0  0  0  0  0  0  0  0  0  0  0
   37.1030   21.5200   31.8450 H   0  0  0  0  0  0  0  0  0  0  0  0
   36.9680   23.6730   30.7930 H   0  0  0  0  0  0  0  0  0  0  0  0
   40.0740   25.8460   31.3410 Cl  0  0  0  0  0  0  0  0  0  0  0  0
   38.5520   26.6840   31.3840 C   0  0  0  0  0  0  0  0  0  0  0  0
   37.4480   26.1070   31.9600 C   0  0  0  0  0  0  0  0  0  0  0  0
   36.3150   26.8910   31.9180 C   0  0  0  0  0  0  0  0  0  0  0  0
   35.4000   26.5110   32.3500 H   0  0  0  0  0  0  0  0  0  0  0  0
   36.2480   28.1370   31.3620 C   0  0  0  0  0  3  0  0  0  0  0  0
   37.3820   28.6810   30.7910 C   0  0  0  0  0  0  0  0  0  0  0  0
   37.3300   30.2720   30.0710 Cl  0  0  0  0  0  0  0  0  0  0  0  0
   38.5320   27.9380   30.8110 C   0  0  0  0  0  0  0  0  0  0  0  0
   39.3970   28.4090   30.3480 H   0  0  0  0  0  0  0  0  0  0  0  0
   39.6670   22.5770   37.5320 C   0  0  0  0  0  0  0  0  0  0  0  0
   39.0130   23.3670   38.4900 C   0  0  0  0  0  0  0  0  0  0  0  0
   37.9820   24.1870   38.0490 C   0  0  0  0  0  0  0  0  0  0  0  0
   37.6800   24.1670   36.7320 N   0  0  0  0  0  0  0  0  0  0  0  0
   38.3030   23.4170   35.8310 C   0  0  0  0  0  0  0  0  0  0  0  0
   39.3060   22.6170   36.2520 N   0  0  0  0  0  0  0  0  0  0  0  0
   39.3270   23.3090   39.5060 H   0  0  0  0  0  0  0  0  0  0  0  0
   37.4510   24.8140   38.7530 H   0  0  0  0  0  0  0  0  0  0  0  0
   40.7520   21.6860   37.8720 N   0  0  0  0  0  0  0  0  0  0  0  0
   41.5790   21.7080   37.2250 H   0  0  0  0  0  0  0  0  0  0  0  0
   40.8030   21.0200   38.6930 H   0  0  0  0  0  0  0  0  0  0  0  0
  1 24  1  0  0  0  0
  2  7  1  0  0  0  0
  2  1  2  0  0  0  0
  3  2  1  0  0  0  0
  4  3  2  0  0  0  0
  4  5  1  0  0  0  0
  5  6  2  0  0  0  0
  6  1  1  0  0  0  0
  8  3  1  0  0  0  0
  9  4  1  0  0  0  0
 10 11  1  0  0  0  0
 11 12  1  0  0  0  0
 12  5  1  0  0  0  0
 13 12  2  0  0  0  0
 13 14  1  0  0  0  0
 15 13  1  0  0  0  0
 16 18  1  0  0  0  0
 16 15  2  0  0  0  0
 17 16  1  0  0  0  0
 18 11  2  0  0  0  0
 19 18  1  0  0  0  0
 20 28  1  0  0  0  0
 20 21  1  0  0  0  0
 21 26  1  0  0  0  0
 22 21  2  0  0  0  0
 22 27  1  0  0  0  0
 23 22  1  0  0  0  0
 24 25  1  0  0  0  0
 24 23  2  0  0  0  0
 25 20  2  0  0  0  0
 28 30  1  0  0  0  0
 29 28  1  0  0  0  0
M  END
>  <minimizedAffinity>
-5.60191679

$$$$

 OpenBabel03262523143D

 30 32  0  0  0  0  0  0  0  0999 V2000
   38.2390   25.6320   33.5230 C   0  0  0  0  0  0  0  0  0  0  0  0
   38.5280   26.9510   33.7650 C   0  0  0  0  0  0  0  0  0  0  0  0
   39.5690   27.1410   34.6360 C   0  0  0  0  0  0  0  0  0  0  0  0
   40.2680   26.1120   35.2200 C   0  0  0  0  0  0  0  0  0  0  0  0
   39.9060   24.8160   34.9160 C   0  0  0  0  0  0  0  0  0  0  0  0
   38.8890   24.5840   34.0660 N   0  0  0  0  0  0  0  0  0  0  0  0
   37.9630   27.7140   33.2940 H   0  0  0  0  0  0  0  0  0  0  0  0
   39.8600   28.1760   34.8810 H   0  0  0  0  0  0  0  0  0  0  0  0
   41.0590   26.3530   35.8820 H   0  0  0  0  0  0  0  0  0  0  0  0
   38.7080   23.6510   37.4370 Cl  0  0  0  0  0  0  0  0  0  0  0  0
   40.1430   23.0760   36.6440 C   0  0  0  0  0  0  0  0  0  0  0  0
   40.6040   23.6770   35.5000 C   0  0  0  0  0  0  0  0  0  0  0  0
   41.7500   23.1110   34.9870 C   0  0  0  0  0  0  0  0  0  0  0  0
   42.1800   23.5240   34.0860 H   0  0  0  0  0  0  0  0  0  0  0  0
   42.4060   22.0440   35.5330 C   0  0  0  0  0  3  0  0  0  0  0  0
   41.9090   21.4660   36.6850 C   0  0  0  0  0  0  0  0  0  0  0  0
   42.7230   20.1010   37.4090 Cl  0  0  0  0  0  0  0  0  0  0  0  0
   40.7720   21.9970   37.2310 C   0  0  0  0  0  0  0  0  0  0  0  0
   40.4190   21.5080   38.1370 H   0  0  0  0  0  0  0  0  0  0  0  0
   35.8820   23.6580   31.4990 C   0  0  0  0  0  0  0  0  0  0  0  0
   35.0890   24.6400   30.8870 C   0  0  0  0  0  0  0  0  0  0  0  0
   35.3750   25.9670   31.1790 C   0  0  0  0  0  0  0  0  0  0  0  0
   36.3950   26.2210   32.0290 N   0  0  0  0  0  0  0  0  0  0  0  0
   37.1420   25.2860   32.6050 C   0  0  0  0  0  0  0  0  0  0  0  0
   36.8700   23.9930   32.3260 N   0  0  0  0  0  0  0  0  0  0  0  0
   34.3080   24.3350   30.2310 H   0  0  0  0  0  0  0  0  0  0  0  0
   34.7890   26.7590   30.7300 H   0  0  0  0  0  0  0  0  0  0  0  0
   35.6800   22.2450   31.2720 N   0  0  0  0  0  0  0  0  0  0  0  0
   35.7080   21.6380   32.1290 H   0  0  0  0  0  0  0  0  0  0  0  0
   35.5090   21.7610   30.3460 H   0  0  0  0  0  0  0  0  0  0  0  0
  1  2  2  0  0  0  0
  1  6  1  0  0  0  0
  2  3  1  0  0  0  0
  3  8  1  0  0  0  0
  3  4  2  0  0  0  0
  4  9  1  0  0  0  0
  5  4  1  0  0  0  0
  5 12  1  0  0  0  0
  6  5  2  0  0  0  0
  7  2  1  0  0  0  0
 11 18  1  0  0  0  0
 11 10  1  0  0  0  0
 12 11  2  0  0  0  0
 13 12  1  0  0  0  0
 13 15  2  0  0  0  0
 14 13  1  0  0  0  0
 15 16  1  0  0  0  0
 16 18  2  0  0  0  0
 16 17  1  0  0  0  0
 18 19  1  0  0  0  0
 20 25  1  0  0  0  0
 21 22  1  0  0  0  0
 21 20  2  0  0  0  0
 22 23  2  0  0  0  0
 23 24  1  0  0  0  0
 24  1  1  0  0  0  0
 25 24  2  0  0  0  0
 26 21  1  0  0  0  0
 27 22  1  0  0  0  0
 28 20  1  0  0  0  0
 28 29  1  0  0  0  0
 30 28  1  0  0  0  0
M  END
>  <minimizedAffinity>
-5.58879328

$$$$
