
     RDKit          3D

 36 38  0  0  0  0  0  0  0  0999 V2000
   36.4575   29.8942   48.6790 N   0  0  0  0  0  0  0  0  0  0  0  0
   37.5820   30.6601   48.2278 C   0  0  0  0  0  0  0  0  0  0  0  0
   38.0984   31.2854   49.5192 C   0  0  2  0  0  0  0  0  0  0  0  0
   37.1188   30.8895   50.6021 C   0  0  0  0  0  0  0  0  0  0  0  0
   36.7286   29.5328   50.0511 C   0  0  0  0  0  0  0  0  0  0  0  0
   35.2922   29.5474   47.9345 C   0  0  0  0  0  0  0  0  0  0  0  0
   35.2349   30.0090   46.6086 C   0  0  0  0  0  0  0  0  0  0  0  0
   34.0941   29.6704   45.8774 C   0  0  0  0  0  0  0  0  0  0  0  0
   33.1324   28.9251   46.4999 N   0  0  0  0  0  0  0  0  0  0  0  0
   33.2136   28.4995   47.7631 C   0  0  0  0  0  0  0  0  0  0  0  0
   34.3158   28.8221   48.4817 N   0  0  0  0  0  0  0  0  0  0  0  0
   31.9322   27.5325   48.5220 S   0  0  0  0  0  0  0  0  0  0  0  0
   38.2688   32.7695   49.4004 C   0  0  0  0  0  0  0  0  0  0  0  0
   37.0968   33.3411   49.8874 F   0  0  0  0  0  0  0  0  0  0  0  0
   38.3187   33.0751   48.0531 F   0  0  0  0  0  0  0  0  0  0  0  0
   39.3642   33.2603   50.0367 F   0  0  0  0  0  0  0  0  0  0  0  0
   37.2767   31.4486   47.4966 H   0  0  0  0  0  0  0  0  0  0  0  0
   38.3734   30.0203   47.8008 H   0  0  0  0  0  0  0  0  0  0  0  0
   39.0831   30.8472   49.8064 H   0  0  0  0  0  0  0  0  0  0  0  0
   36.2292   31.5398   50.6462 H   0  0  0  0  0  0  0  0  0  0  0  0
   37.6154   30.7517   51.5691 H   0  0  0  0  0  0  0  0  0  0  0  0
   37.5560   28.8088   50.1570 H   0  0  0  0  0  0  0  0  0  0  0  0
   35.7970   29.2452   50.5722 H   0  0  0  0  0  0  0  0  0  0  0  0
   35.9949   30.5959   46.1225 H   0  0  0  0  0  0  0  0  0  0  0  0
   33.9211   29.9571   44.8561 H   0  0  0  0  0  0  0  0  0  0  0  0
   31.3650   26.0279   45.7878 Cl  0  0  0  0  0  0  0  0  0  0  0  0
   31.9182   25.0862   47.1403 C   0  0  0  0  0  0  0  0  0  0  0  0
   32.1510   25.7837   48.3060 C   0  0  0  0  0  0  0  0  0  0  0  0
   32.5970   25.0955   49.4344 C   0  0  0  0  0  0  0  0  0  0  0  0
   32.8013   25.5864   50.3917 H   0  0  0  0  0  0  0  0  0  0  0  0
   32.7920   23.7310   49.3479 C   0  0  0  0  0  0  0  0  0  0  0  0
   32.5509   23.0559   48.1666 C   0  0  0  0  0  0  0  0  0  0  0  0
   32.7814   21.3348   48.0048 Cl  0  0  0  0  0  0  0  0  0  0  0  0
   32.1103   23.7198   47.0424 C   0  0  0  0  0  0  0  0  0  0  0  0
   31.9081   23.2177   46.0868 H   0  0  0  0  0  0  0  0  0  0  0  0
   33.1377   23.1825   50.2148 H   0  0  0  0  0  0  0  0  0  0  0  0
  1  5  1  0
  2  1  1  0
  2  3  1  0
  3  4  1  0
  5  4  1  0
  6 11  1  0
  6  1  1  0
  7  6  2  0
  8  9  2  0
  8  7  1  0
  9 10  1  0
 10 11  2  0
 10 12  1  0
 13  3  1  0
 13 14  1  0
 13 16  1  0
 15 13  1  0
  2 17  1  0
  2 18  1  0
  3 19  1  1
  4 20  1  0
  4 21  1  0
  5 22  1  0
  5 23  1  0
  7 24  1  0
  8 25  1  0
 26 27  1  0
 27 28  2  0
 28 29  1  0
 29 30  1  0
 29 31  2  0
 31 32  1  0
 32 33  1  0
 32 34  2  0
 34 35  1  0
 34 27  1  0
 31 36  1  0
 12 28  1  0
M  ISO  8  17  13  18  13  19  13  20  13  21  13  22  13  23  13  24  14
M  ISO  3  25  14  30  16  35  15
M  END
>  <DihAtoms>  (1) 
9,11,27,26

>  <DihDeg>  (1) 
-0.00029298616951170916

$$$$
