
 OpenBabel03272503333D

 42 45  0  0  1  0  0  0  0  0999 V2000
   35.6220   29.6810   47.5810 C   0  0  0  0  0  0  0  0  0  0  0  0
   35.7990   30.2690   46.3290 C   0  0  0  0  0  0  0  0  0  0  0  0
   34.9850   29.8190   45.2830 C   0  0  0  0  0  0  0  0  0  0  0  0
   34.0700   28.8290   45.5720 N   0  0  0  0  0  0  0  0  0  0  0  0
   33.9360   28.2940   46.7870 C   0  0  0  0  0  0  0  0  0  0  0  0
   34.7140   28.7230   47.7890 N   0  0  0  0  0  0  0  0  0  0  0  0
   36.5160   31.0450   46.1000 H   0  0  0  0  0  0  0  0  0  0  0  0
   35.0440   30.2070   44.2890 H   0  0  0  0  0  0  0  0  0  0  0  0
   36.4620   30.1490   48.6450 N   0  0  0  0  0  0  0  0  0  0  0  0
   37.8380   30.5340   48.5560 C   0  0  0  0  0  0  0  0  0  0  0  0
   37.9690   31.5410   49.6910 C   0  0  2  0  0  0  0  0  0  0  0  0
   36.5620   31.7420   50.2490 C   0  0  0  0  0  0  0  0  0  0  0  0
   36.0610   30.3210   50.0390 C   0  0  0  0  0  0  0  0  0  0  0  0
   38.0850   31.0330   47.5810 H   0  0  0  0  0  0  0  0  0  0  0  0
   38.5380   29.6890   48.7580 H   0  0  0  0  0  0  0  0  0  0  0  0
   38.5650   31.1190   50.5360 H   0  0  0  0  0  0  0  0  0  0  0  0
   36.0140   32.4330   49.6060 H   0  0  0  0  0  0  0  0  0  0  0  0
   36.5760   32.0310   51.3060 H   0  0  0  0  0  0  0  0  0  0  0  0
   34.9630   30.3040   50.1250 H   0  0  0  0  0  0  0  0  0  0  0  0
   36.5890   29.6390   50.7110 H   0  0  0  0  0  0  0  0  0  0  0  0
   38.5690   32.8400   49.2280 C   0  0  0  0  0  0  0  0  0  0  0  0
   37.5220   33.7230   49.0520 F   0  0  0  0  0  0  0  0  0  0  0  0
   39.1040   32.6150   47.9860 F   0  0  0  0  0  0  0  0  0  0  0  0
   39.5170   33.3340   50.0840 F   0  0  0  0  0  0  0  0  0  0  0  0
   32.7340   27.0170   47.0990 S   0  0  0  0  0  0  0  0  0  0  0  0
   31.1320   27.4850   47.3460 C   0  0  0  0  0  0  0  0  0  0  0  0
   29.9390   26.9870   47.7800 C   0  0  0  0  0  0  0  0  0  0  0  0
   28.7790   27.6790   47.8510 C   0  0  0  0  0  0  0  0  0  0  0  0
   28.9130   29.0830   47.3990 C   0  0  0  0  0  0  0  0  0  0  0  0
   30.6610   29.2480   46.9310 S   0  0  0  0  0  0  0  0  0  0  0  0
   30.0390   25.9510   48.0660 H   0  0  0  0  0  0  0  0  0  0  0  0
   27.8440   27.2830   48.1930 H   0  0  0  0  0  0  0  0  0  0  0  0
   27.8720   29.8220   50.0790 Cl  0  0  0  0  0  0  0  0  0  0  0  0
   27.3680   30.4800   48.5400 C   0  0  0  0  0  0  0  0  0  0  0  0
   27.9130   30.0710   47.3430 C   0  0  0  0  0  0  0  0  0  0  0  0
   27.5610   30.5480   46.1020 C   0  0  0  0  0  0  0  0  0  0  0  0
   28.0190   30.1950   45.1970 H   0  0  0  0  0  0  0  0  0  0  0  0
   26.5640   31.5330   46.0600 C   0  0  0  0  0  3  0  0  0  0  0  0
   25.9760   31.9850   47.2480 C   0  0  0  0  0  0  0  0  0  0  0  0
   24.7280   33.2140   47.2320 Cl  0  0  0  0  0  0  0  0  0  0  0  0
   26.3720   31.4640   48.4860 C   0  0  0  0  0  0  0  0  0  0  0  0
   25.9080   31.8250   49.3940 H   0  0  0  0  0  0  0  0  0  0  0  0
  1  6  1  0  0  0  0
  1  9  1  0  0  0  0
  2  1  2  0  0  0  0
  3  4  2  0  0  0  0
  3  2  1  0  0  0  0
  4  5  1  0  0  0  0
  5 25  1  0  0  0  0
  5  6  2  0  0  0  0
  7  2  1  0  0  0  0
  8  3  1  0  0  0  0
  9 13  1  0  0  0  0
 10  9  1  0  0  0  0
 10 15  1  0  0  0  0
 10 11  1  0  0  0  0
 11 12  1  0  0  0  0
 11 16  1  1  0  0  0
 12 18  1  0  0  0  0
 13 19  1  0  0  0  0
 13 12  1  0  0  0  0
 13 20  1  0  0  0  0
 14 10  1  0  0  0  0
 17 12  1  0  0  0  0
 21 11  1  0  0  0  0
 21 24  1  0  0  0  0
 22 21  1  0  0  0  0
 23 21  1  0  0  0  0
 25 26  1  0  0  0  0
 26 27  2  0  0  0  0
 27 28  1  0  0  0  0
 27 31  1  0  0  0  0
 28 32  1  0  0  0  0
 29 28  2  0  0  0  0
 30 26  1  0  0  0  0
 30 29  1  0  0  0  0
 34 33  1  0  0  0  0
 35 29  1  0  0  0  0
 35 34  2  0  0  0  0
 36 35  1  0  0  0  0
 37 36  1  0  0  0  0
 38 36  2  0  0  0  0
 38 39  1  0  0  0  0
 39 41  2  0  0  0  0
 40 39  1  0  0  0  0
 41 34  1  0  0  0  0
 41 42  1  0  0  0  0
M  END
>  <minimizedAffinity>
-6.75057077

>  <minimizedRMSD>
1.49304688

$$$$
