
 OpenBabel03272510243D

 33 36  0  0  0  0  0  0  0  0999 V2000
   36.1630   30.1900   46.8330 C   0  0  0  0  0  0  0  0  0  0  0  0
   37.0430   30.7390   47.7510 C   0  0  0  0  0  0  0  0  0  0  0  0
   38.0330   31.6150   47.3530 C   0  0  0  0  0  0  0  0  0  0  0  0
   38.0960   31.9140   45.9890 C   0  0  0  0  0  0  0  0  0  0  0  0
   38.9630   32.7360   45.3410 N   0  0  0  0  0  0  0  0  0  0  0  0
   38.6320   32.7010   44.0520 C   0  0  0  0  0  0  0  0  0  0  0  0
   37.5980   31.8980   43.8430 N   0  0  0  0  0  0  0  0  0  0  0  0
   37.2290   31.3810   45.0410 C   0  0  0  0  0  0  0  0  0  0  0  0
   36.2500   30.5050   45.4780 C   0  0  0  0  0  0  0  0  0  0  0  0
   35.3620   29.4940   47.0770 H   0  0  0  0  0  0  0  0  0  0  0  0
   38.7220   32.0510   48.0420 H   0  0  0  0  0  0  0  0  0  0  0  0
   39.7360   33.2820   45.7970 H   0  0  0  0  0  0  0  0  0  0  0  0
   35.5690   30.0840   44.7490 H   0  0  0  0  0  0  0  0  0  0  0  0
   37.5360   30.2110   51.4470 C   0  0  0  0  0  0  0  0  0  0  0  0
   37.8180   30.6330   50.1510 C   0  0  0  0  0  0  0  0  0  0  0  0
   36.8910   30.3620   49.1510 C   0  0  0  0  0  0  0  0  0  0  0  0
   35.7410   29.6880   49.4930 N   0  0  0  0  0  0  0  0  0  0  0  0
   35.5080   29.2970   50.7610 C   0  0  0  0  0  0  0  0  0  0  0  0
   36.3980   29.5570   51.7240 N   0  0  0  0  0  0  0  0  0  0  0  0
   38.2810   30.4410   52.1940 H   0  0  0  0  0  0  0  0  0  0  0  0
   38.7170   31.1640   49.8640 H   0  0  0  0  0  0  0  0  0  0  0  0
   34.5780   28.7710   50.9530 H   0  0  0  0  0  0  0  0  0  0  0  0
   39.3210   33.4350   43.0880 O   0  0  0  0  0  0  0  0  0  0  0  0
   40.5010   30.9080   41.9510 Cl  0  0  0  0  0  0  0  0  0  0  0  0
   39.4840   32.0370   41.0730 C   0  0  0  0  0  0  0  0  0  0  0  0
   39.0340   33.1460   41.7610 C   0  0  0  0  0  0  0  0  0  0  0  0
   38.2290   34.0430   41.0710 C   0  0  0  0  0  0  0  0  0  0  0  0
   37.8350   34.9450   41.5520 H   0  0  0  0  0  0  0  0  0  0  0  0
   37.8880   33.8400   39.7430 C   0  0  0  0  0  3  0  0  0  0  0  0
   38.3600   32.7190   39.0950 C   0  0  0  0  0  0  0  0  0  0  0  0
   37.9700   32.3940   37.4140 Cl  0  0  0  0  0  0  0  0  0  0  0  0
   39.1620   31.8060   39.7510 C   0  0  0  0  0  0  0  0  0  0  0  0
   39.5210   30.9370   39.2300 H   0  0  0  0  0  0  0  0  0  0  0  0
  1 10  1  0  0  0  0
  1  2  1  0  0  0  0
  2 16  1  0  0  0  0
  3  2  2  0  0  0  0
  3 11  1  0  0  0  0
  4  3  1  0  0  0  0
  5 12  1  0  0  0  0
  5  4  1  0  0  0  0
  6  5  1  0  0  0  0
  7  6  2  0  0  0  0
  7  8  1  0  0  0  0
  8  9  1  0  0  0  0
  8  4  2  0  0  0  0
  9  1  2  0  0  0  0
 13  9  1  0  0  0  0
 14 19  1  0  0  0  0
 14 20  1  0  0  0  0
 15 14  2  0  0  0  0
 16 17  2  0  0  0  0
 16 15  1  0  0  0  0
 17 18  1  0  0  0  0
 18 22  1  0  0  0  0
 18 19  2  0  0  0  0
 21 15  1  0  0  0  0
 23  6  1  0  0  0  0
 25 26  1  0  0  0  0
 25 24  1  0  0  0  0
 26 23  1  0  0  0  0
 27 28  1  0  0  0  0
 27 26  2  0  0  0  0
 29 27  1  0  0  0  0
 30 29  2  0  0  0  0
 30 32  1  0  0  0  0
 31 30  1  0  0  0  0
 32 25  2  0  0  0  0
 33 32  1  0  0  0  0
M  END
>  <minimizedAffinity>
-5.86084366

>  <minimizedRMSD>
1.59507418

$$$$
