
 OpenBabel03272510283D

 46 50  0  0  1  0  0  0  0  0999 V2000
   37.2360   28.1430   33.2370 O   0  0  0  0  0  0  0  0  0  0  0  0
   38.7690   23.7200   36.8190 C   0  0  0  0  0  0  0  0  0  0  0  0
   39.8320   23.6140   35.9390 C   0  0  0  0  0  0  0  0  0  0  0  0
   39.9370   24.4890   34.8510 C   0  0  0  0  0  0  0  0  0  0  0  0
   38.9260   25.4370   34.7320 C   0  0  0  0  0  0  0  0  0  0  0  0
   38.8050   26.3970   33.7500 N   0  0  0  0  0  0  0  0  0  0  0  0
   37.6860   27.0800   34.0260 C   0  0  0  0  0  0  0  0  0  0  0  0
   37.1310   26.5900   35.1110 N   0  0  0  0  0  0  0  0  0  0  0  0
   37.8650   25.5690   35.5820 C   0  0  0  0  0  0  0  0  0  0  0  0
   37.7840   24.6860   36.6570 C   0  0  0  0  0  0  0  0  0  0  0  0
   38.6330   23.0690   37.6820 H   0  0  0  0  0  0  0  0  0  0  0  0
   40.7620   24.4180   34.1560 H   0  0  0  0  0  0  0  0  0  0  0  0
   39.4770   26.5370   32.9550 H   0  0  0  0  0  0  0  0  0  0  0  0
   36.9450   24.7840   37.3360 H   0  0  0  0  0  0  0  0  0  0  0  0
   42.0350   20.9890   37.4570 C   0  0  0  0  0  0  0  0  0  0  0  0
   41.0480   21.9610   37.3870 C   0  0  0  0  0  0  0  0  0  0  0  0
   40.8180   22.5810   36.1730 C   0  0  0  0  0  0  0  0  0  0  0  0
   41.5870   22.1930   35.1050 N   0  0  0  0  0  0  0  0  0  0  0  0
   42.5400   21.2450   35.1970 C   0  0  0  0  0  0  0  0  0  0  0  0
   42.7550   20.6550   36.3660 N   0  0  0  0  0  0  0  0  0  0  0  0
   42.2060   20.5080   38.4210 H   0  0  0  0  0  0  0  0  0  0  0  0
   40.4480   22.2620   38.2280 H   0  0  0  0  0  0  0  0  0  0  0  0
   43.0820   21.0220   34.2880 H   0  0  0  0  0  0  0  0  0  0  0  0
   35.7700   29.5260   34.3590 N   0  0  0  0  0  0  0  0  0  0  0  0
   35.8590   28.4740   33.3410 C   0  0  1  0  0  0  0  0  0  0  0  0
   35.3650   29.0140   32.0810 C   0  0  0  0  0  0  0  0  0  0  0  0
   34.0000   29.2960   32.2150 O   0  0  0  0  0  0  0  0  0  0  0  0
   33.6960   30.1750   33.2350 C   0  0  0  0  0  0  0  0  0  0  0  0
   34.3720   29.7660   34.5400 C   0  0  2  0  0  0  0  0  0  0  0  0
   36.1480   30.4240   34.0090 H   0  0  0  0  0  0  0  0  0  0  0  0
   35.2320   27.6650   33.7090 H   0  0  0  0  0  0  0  0  0  0  0  0
   35.7410   29.8780   31.5990 H   0  0  0  0  0  0  0  0  0  0  0  0
   35.3950   28.1780   31.3160 H   0  0  0  0  0  0  0  0  0  0  0  0
   33.9820   31.2090   32.9830 H   0  0  0  0  0  0  0  0  0  0  0  0
   32.6050   30.1310   33.3810 H   0  0  0  0  0  0  0  0  0  0  0  0
   33.8870   28.8080   34.9080 H   0  0  0  0  0  0  0  0  0  0  0  0
   31.8470   30.0480   36.6270 Cl  0  0  0  0  0  0  0  0  0  0  0  0
   33.1990   31.1400   36.4850 C   0  0  0  0  0  0  0  0  0  0  0  0
   34.1200   30.8130   35.5250 C   0  0  0  0  0  0  0  0  0  0  0  0
   35.1540   31.7740   35.4940 C   0  0  0  0  0  0  0  0  0  0  0  0
   36.0160   31.7430   34.8120 H   0  0  0  0  0  0  0  0  0  0  0  0
   35.2480   32.9020   36.3130 C   0  0  0  0  0  3  0  0  0  0  0  0
   34.2680   33.1170   37.2310 C   0  0  0  0  0  0  0  0  0  0  0  0
   34.2820   34.4930   38.3070 Cl  0  0  0  0  0  0  0  0  0  0  0  0
   33.2370   32.2270   37.3150 C   0  0  0  0  0  0  0  0  0  0  0  0
   32.4520   32.3610   38.0190 H   0  0  0  0  0  0  0  0  0  0  0  0
  1 25  1  0  0  0  0
  1  7  1  0  0  0  0
  2 11  1  0  0  0  0
  3 17  1  0  0  0  0
  3  2  2  0  0  0  0
  4  3  1  0  0  0  0
  5  4  2  0  0  0  0
  5  9  1  0  0  0  0
  6  7  1  0  0  0  0
  6  5  1  0  0  0  0
  7  8  2  0  0  0  0
  8  9  1  0  0  0  0
  9 10  2  0  0  0  0
 10  2  1  0  0  0  0
 10 14  1  0  0  0  0
 12  4  1  0  0  0  0
 13  6  1  0  0  0  0
 15 21  1  0  0  0  0
 16 15  1  0  0  0  0
 16 22  1  0  0  0  0
 17 16  2  0  0  0  0
 18 19  2  0  0  0  0
 18 17  1  0  0  0  0
 19 20  1  0  0  0  0
 20 15  2  0  0  0  0
 23 19  1  0  0  0  0
 24 29  1  0  0  0  0
 25 31  1  1  0  0  0
 25 24  1  0  0  0  0
 26 27  1  0  0  0  0
 26 25  1  0  0  0  0
 27 28  1  0  0  0  0
 28 35  1  0  0  0  0
 28 29  1  0  0  0  0
 29 36  1  1  0  0  0
 29 39  1  0  0  0  0
 30 24  1  0  0  0  0
 32 26  1  0  0  0  0
 33 26  1  0  0  0  0
 34 28  1  0  0  0  0
 38 37  1  0  0  0  0
 38 45  1  0  0  0  0
 39 38  2  0  0  0  0
 40 39  1  0  0  0  0
 40 42  2  0  0  0  0
 41 40  1  0  0  0  0
 42 43  1  0  0  0  0
 43 45  2  0  0  0  0
 43 44  1  0  0  0  0
 45 46  1  0  0  0  0
M  END
>  <minimizedAffinity>
-6.67820692

$$$$

 OpenBabel03272510283D

 46 50  0  0  1  0  0  0  0  0999 V2000
   35.7160   29.6060   32.0950 O   0  0  0  0  0  0  0  0  0  0  0  0
   37.9830   24.4330   33.7850 C   0  0  0  0  0  0  0  0  0  0  0  0
   38.0160   25.0560   35.0200 C   0  0  0  0  0  0  0  0  0  0  0  0
   37.5580   26.3720   35.1610 C   0  0  0  0  0  0  0  0  0  0  0  0
   37.0840   26.9780   34.0020 C   0  0  0  0  0  0  0  0  0  0  0  0
   36.5890   28.2590   33.8830 N   0  0  0  0  0  0  0  0  0  0  0  0
   36.2580   28.4170   32.5950 C   0  0  0  0  0  0  0  0  0  0  0  0
   36.5210   27.3120   31.9360 N   0  0  0  0  0  0  0  0  0  0  0  0
   37.0360   26.3920   32.7680 C   0  0  0  0  0  0  0  0  0  0  0  0
   37.4980   25.0820   32.6560 C   0  0  0  0  0  0  0  0  0  0  0  0
   38.3250   23.4140   33.6140 H   0  0  0  0  0  0  0  0  0  0  0  0
   37.5780   26.8700   36.1200 H   0  0  0  0  0  0  0  0  0  0  0  0
   36.5040   28.9510   34.6690 H   0  0  0  0  0  0  0  0  0  0  0  0
   37.4640   24.6120   31.6810 H   0  0  0  0  0  0  0  0  0  0  0  0
   38.5910   23.5320   38.3970 C   0  0  0  0  0  0  0  0  0  0  0  0
   37.9720   24.2880   37.4110 C   0  0  0  0  0  0  0  0  0  0  0  0
   38.5360   24.3150   36.1490 C   0  0  0  0  0  0  0  0  0  0  0  0
   39.6810   23.5860   35.9480 N   0  0  0  0  0  0  0  0  0  0  0  0
   40.2640   22.8580   36.9210 C   0  0  0  0  0  0  0  0  0  0  0  0
   39.7170   22.8380   38.1300 N   0  0  0  0  0  0  0  0  0  0  0  0
   38.1350   23.5190   39.3870 H   0  0  0  0  0  0  0  0  0  0  0  0
   37.0750   24.8580   37.5740 H   0  0  0  0  0  0  0  0  0  0  0  0
   41.1630   22.3240   36.6460 H   0  0  0  0  0  0  0  0  0  0  0  0
   33.9510   29.4270   33.5690 N   0  0  0  0  0  0  0  0  0  0  0  0
   34.3060   29.7500   32.1840 C   0  0  1  0  0  0  0  0  0  0  0  0
   33.9150   31.1290   31.9210 C   0  0  0  0  0  0  0  0  0  0  0  0
   32.5190   31.2220   31.9850 O   0  0  0  0  0  0  0  0  0  0  0  0
   31.9750   30.8170   33.1870 C   0  0  0  0  0  0  0  0  0  0  0  0
   32.5220   29.4590   33.6160 C   0  0  2  0  0  0  0  0  0  0  0  0
   34.2530   30.1730   34.2210 H   0  0  0  0  0  0  0  0  0  0  0  0
   33.7460   29.0460   31.5730 H   0  0  0  0  0  0  0  0  0  0  0  0
   34.2350   31.9700   32.4770 H   0  0  0  0  0  0  0  0  0  0  0  0
   34.1510   31.3500   30.8350 H   0  0  0  0  0  0  0  0  0  0  0  0
   32.1550   31.5540   33.9870 H   0  0  0  0  0  0  0  0  0  0  0  0
   30.8890   30.7180   33.0300 H   0  0  0  0  0  0  0  0  0  0  0  0
   32.1210   28.6710   32.9040 H   0  0  0  0  0  0  0  0  0  0  0  0
   33.1670   31.0200   36.4370 Cl  0  0  0  0  0  0  0  0  0  0  0  0
   32.1040   29.6540   36.2300 C   0  0  0  0  0  0  0  0  0  0  0  0
   32.0120   29.1690   34.9520 C   0  0  0  0  0  0  0  0  0  0  0  0
   31.1380   28.0610   34.9130 C   0  0  0  0  0  0  0  0  0  0  0  0
   30.8930   27.4900   34.0050 H   0  0  0  0  0  0  0  0  0  0  0  0
   30.4540   27.5180   36.0030 C   0  0  0  0  0  3  0  0  0  0  0  0
   30.6280   28.0910   37.2250 C   0  0  0  0  0  0  0  0  0  0  0  0
   29.8240   27.4990   38.6570 Cl  0  0  0  0  0  0  0  0  0  0  0  0
   31.4590   29.1670   37.3350 C   0  0  0  0  0  0  0  0  0  0  0  0
   31.6220   29.6430   38.2720 H   0  0  0  0  0  0  0  0  0  0  0  0
  1 25  1  0  0  0  0
  1  7  1  0  0  0  0
  2  3  1  0  0  0  0
  3  4  2  0  0  0  0
  3 17  1  0  0  0  0
  4 12  1  0  0  0  0
  5  4  1  0  0  0  0
  6  5  1  0  0  0  0
  6 13  1  0  0  0  0
  7  6  1  0  0  0  0
  8  7  2  0  0  0  0
  8  9  1  0  0  0  0
  9  5  2  0  0  0  0
 10  9  1  0  0  0  0
 10  2  2  0  0  0  0
 11  2  1  0  0  0  0
 14 10  1  0  0  0  0
 15 21  1  0  0  0  0
 16 22  1  0  0  0  0
 16 15  2  0  0  0  0
 17 16  1  0  0  0  0
 18 17  2  0  0  0  0
 18 19  1  0  0  0  0
 19 20  2  0  0  0  0
 20 15  1  0  0  0  0
 23 19  1  0  0  0  0
 24 29  1  0  0  0  0
 24 30  1  0  0  0  0
 25 31  1  6  0  0  0
 25 24  1  0  0  0  0
 26 27  1  0  0  0  0
 26 25  1  0  0  0  0
 26 32  1  0  0  0  0
 27 28  1  0  0  0  0
 28 29  1  0  0  0  0
 28 34  1  0  0  0  0
 29 36  1  6  0  0  0
 29 39  1  0  0  0  0
 33 26  1  0  0  0  0
 35 28  1  0  0  0  0
 38 37  1  0  0  0  0
 38 45  1  0  0  0  0
 39 38  2  0  0  0  0
 40 39  1  0  0  0  0
 40 42  2  0  0  0  0
 41 40  1  0  0  0  0
 42 43  1  0  0  0  0
 43 45  2  0  0  0  0
 43 44  1  0  0  0  0
 45 46  1  0  0  0  0
M  END
>  <minimizedAffinity>
-6.64795113

$$$$

 OpenBabel03272510283D

 46 50  0  0  1  0  0  0  0  0999 V2000
   35.9840   26.6930   30.8860 O   0  0  0  0  0  0  0  0  0  0  0  0
   36.1030   32.2910   32.7280 C   0  0  0  0  0  0  0  0  0  0  0  0
   35.5890   31.7320   33.8850 C   0  0  0  0  0  0  0  0  0  0  0  0
   35.3650   30.3530   33.9640 C   0  0  0  0  0  0  0  0  0  0  0  0
   35.6870   29.6180   32.8280 C   0  0  0  0  0  0  0  0  0  0  0  0
   35.5510   28.2570   32.6580 N   0  0  0  0  0  0  0  0  0  0  0  0
   35.9760   27.9870   31.4170 C   0  0  0  0  0  0  0  0  0  0  0  0
   36.3580   29.1000   30.8340 N   0  0  0  0  0  0  0  0  0  0  0  0
   36.1950   30.1370   31.6710 C   0  0  0  0  0  0  0  0  0  0  0  0
   36.4100   31.5130   31.6190 C   0  0  0  0  0  0  0  0  0  0  0  0
   36.2990   33.3550   32.6080 H   0  0  0  0  0  0  0  0  0  0  0  0
   34.9640   29.9030   34.8610 H   0  0  0  0  0  0  0  0  0  0  0  0
   35.1820   27.5910   33.3820 H   0  0  0  0  0  0  0  0  0  0  0  0
   36.8130   31.9320   30.7050 H   0  0  0  0  0  0  0  0  0  0  0  0
   34.6160   33.1570   37.2140 C   0  0  0  0  0  0  0  0  0  0  0  0
   34.8650   32.1940   36.2450 C   0  0  0  0  0  0  0  0  0  0  0  0
   35.2930   32.6080   34.9990 C   0  0  0  0  0  0  0  0  0  0  0  0
   35.4480   33.9570   34.7950 N   0  0  0  0  0  0  0  0  0  0  0  0
   35.2010   34.8730   35.7510 C   0  0  0  0  0  0  0  0  0  0  0  0
   34.7890   34.4670   36.9450 N   0  0  0  0  0  0  0  0  0  0  0  0
   34.2780   32.8150   38.1930 H   0  0  0  0  0  0  0  0  0  0  0  0
   34.7420   31.1380   36.4100 H   0  0  0  0  0  0  0  0  0  0  0  0
   35.3580   35.9070   35.4750 H   0  0  0  0  0  0  0  0  0  0  0  0
   36.9750   25.7570   32.7470 N   0  0  0  0  0  0  0  0  0  0  0  0
   37.0540   25.8490   31.2860 C   0  0  1  0  0  0  0  0  0  0  0  0
   36.8830   24.5110   30.7340 C   0  0  0  0  0  0  0  0  0  0  0  0
   37.9720   23.7200   31.1220 O   0  0  0  0  0  0  0  0  0  0  0  0
   38.1530   23.6280   32.4870 C   0  0  0  0  0  0  0  0  0  0  0  0
   38.1240   25.0040   33.1450 C   0  0  2  0  0  0  0  0  0  0  0  0
   36.1680   25.1830   33.0470 H   0  0  0  0  0  0  0  0  0  0  0  0
   38.0420   26.2510   31.0760 H   0  0  0  0  0  0  0  0  0  0  0  0
   36.0540   23.8780   30.9130 H   0  0  0  0  0  0  0  0  0  0  0  0
   36.9940   24.5890   29.6090 H   0  0  0  0  0  0  0  0  0  0  0  0
   37.3950   22.9810   32.9580 H   0  0  0  0  0  0  0  0  0  0  0  0
   39.1490   23.1870   32.6490 H   0  0  0  0  0  0  0  0  0  0  0  0
   39.0550   25.5710   32.8270 H   0  0  0  0  0  0  0  0  0  0  0  0
   38.2550   27.2860   35.5080 Cl  0  0  0  0  0  0  0  0  0  0  0  0
   38.2170   25.5590   35.7400 C   0  0  0  0  0  0  0  0  0  0  0  0
   38.1780   24.8130   34.5910 C   0  0  0  0  0  0  0  0  0  0  0  0
   38.1660   23.4370   34.9050 C   0  0  0  0  0  0  0  0  0  0  0  0
   38.1360   22.6260   34.1610 H   0  0  0  0  0  0  0  0  0  0  0  0
   38.1880   22.8880   36.1890 C   0  0  0  0  0  3  0  0  0  0  0  0
   38.2250   23.7360   37.2520 C   0  0  0  0  0  0  0  0  0  0  0  0
   38.2550   23.1650   38.9020 Cl  0  0  0  0  0  0  0  0  0  0  0  0
   38.2400   25.0810   37.0220 C   0  0  0  0  0  0  0  0  0  0  0  0
   38.2690   25.7760   37.8260 H   0  0  0  0  0  0  0  0  0  0  0  0
  1 25  1  0  0  0  0
  1  7  1  0  0  0  0
  2  3  1  0  0  0  0
  3  4  2  0  0  0  0
  3 17  1  0  0  0  0
  4 12  1  0  0  0  0
  5  4  1  0  0  0  0
  6  5  1  0  0  0  0
  6 13  1  0  0  0  0
  7  6  1  0  0  0  0
  8  7  2  0  0  0  0
  8  9  1  0  0  0  0
  9  5  2  0  0  0  0
 10  9  1  0  0  0  0
 10  2  2  0  0  0  0
 11  2  1  0  0  0  0
 14 10  1  0  0  0  0
 15 21  1  0  0  0  0
 16 22  1  0  0  0  0
 16 15  2  0  0  0  0
 17 16  1  0  0  0  0
 18 17  2  0  0  0  0
 18 19  1  0  0  0  0
 19 20  2  0  0  0  0
 20 15  1  0  0  0  0
 23 19  1  0  0  0  0
 24 30  1  0  0  0  0
 24 29  1  0  0  0  0
 25 31  1  6  0  0  0
 25 24  1  0  0  0  0
 26 32  1  0  0  0  0
 26 27  1  0  0  0  0
 26 25  1  0  0  0  0
 27 28  1  0  0  0  0
 28 35  1  0  0  0  0
 28 34  1  0  0  0  0
 28 29  1  0  0  0  0
 29 36  1  6  0  0  0
 29 39  1  0  0  0  0
 33 26  1  0  0  0  0
 37 38  1  0  0  0  0
 38 45  1  0  0  0  0
 39 40  1  0  0  0  0
 39 38  2  0  0  0  0
 40 42  2  0  0  0  0
 41 40  1  0  0  0  0
 42 43  1  0  0  0  0
 43 44  1  0  0  0  0
 45 43  2  0  0  0  0
 45 46  1  0  0  0  0
M  END
>  <minimizedAffinity>
-6.51012897

$$$$

 OpenBabel03272510283D

 46 50  0  0  1  0  0  0  0  0999 V2000
   37.4810   27.7650   29.8740 O   0  0  0  0  0  0  0  0  0  0  0  0
   40.2480   26.2350   34.8500 C   0  0  0  0  0  0  0  0  0  0  0  0
   39.1450   25.4110   34.9970 C   0  0  0  0  0  0  0  0  0  0  0  0
   38.1380   25.3990   34.0240 C   0  0  0  0  0  0  0  0  0  0  0  0
   38.3280   26.2490   32.9400 C   0  0  0  0  0  0  0  0  0  0  0  0
   37.4820   26.4200   31.8660 N   0  0  0  0  0  0  0  0  0  0  0  0
   38.0580   27.3330   31.0730 C   0  0  0  0  0  0  0  0  0  0  0  0
   39.1960   27.7190   31.6050 N   0  0  0  0  0  0  0  0  0  0  0  0
   39.4040   27.0740   32.7640 C   0  0  0  0  0  0  0  0  0  0  0  0
   40.3920   27.0660   33.7460 C   0  0  0  0  0  0  0  0  0  0  0  0
   41.0620   26.2880   35.5710 H   0  0  0  0  0  0  0  0  0  0  0  0
   37.2720   24.7610   34.1260 H   0  0  0  0  0  0  0  0  0  0  0  0
   36.5700   25.9170   31.7270 H   0  0  0  0  0  0  0  0  0  0  0  0
   41.2470   27.7170   33.6140 H   0  0  0  0  0  0  0  0  0  0  0  0
   39.6780   22.7760   37.6090 C   0  0  0  0  0  0  0  0  0  0  0  0
   39.8790   23.4880   36.4350 C   0  0  0  0  0  0  0  0  0  0  0  0
   39.0650   24.5740   36.1740 C   0  0  0  0  0  0  0  0  0  0  0  0
   38.1020   24.8840   37.1010 N   0  0  0  0  0  0  0  0  0  0  0  0
   37.9250   24.1780   38.2350 C   0  0  0  0  0  0  0  0  0  0  0  0
   38.7100   23.1360   38.4780 N   0  0  0  0  0  0  0  0  0  0  0  0
   40.3280   21.9210   37.8020 H   0  0  0  0  0  0  0  0  0  0  0  0
   40.6360   23.2400   35.7120 H   0  0  0  0  0  0  0  0  0  0  0  0
   37.1350   24.5150   38.8910 H   0  0  0  0  0  0  0  0  0  0  0  0
   36.2900   29.0780   31.3510 N   0  0  0  0  0  0  0  0  0  0  0  0
   36.6690   28.9280   29.9420 C   0  0  1  0  0  0  0  0  0  0  0  0
   37.4280   30.1060   29.5450 C   0  0  0  0  0  0  0  0  0  0  0  0
   36.5860   31.2240   29.5930 O   0  0  0  0  0  0  0  0  0  0  0  0
   36.0080   31.4510   30.8260 C   0  0  0  0  0  0  0  0  0  0  0  0
   35.3780   30.1790   31.3870 C   0  0  2  0  0  0  0  0  0  0  0  0
   37.0930   29.3820   31.9280 H   0  0  0  0  0  0  0  0  0  0  0  0
   35.7300   28.8490   29.3990 H   0  0  0  0  0  0  0  0  0  0  0  0
   38.3090   30.4520   30.0190 H   0  0  0  0  0  0  0  0  0  0  0  0
   37.6730   30.0000   28.4440 H   0  0  0  0  0  0  0  0  0  0  0  0
   36.7350   31.8500   31.5510 H   0  0  0  0  0  0  0  0  0  0  0  0
   35.2090   32.1940   30.6730 H   0  0  0  0  0  0  0  0  0  0  0  0
   34.4740   29.9190   30.7520 H   0  0  0  0  0  0  0  0  0  0  0  0
   32.6970   29.0500   32.9180 Cl  0  0  0  0  0  0  0  0  0  0  0  0
   33.8960   30.1240   33.5880 C   0  0  0  0  0  0  0  0  0  0  0  0
   34.9180   30.4650   32.7420 C   0  0  0  0  0  0  0  0  0  0  0  0
   35.8130   31.3450   33.3880 C   0  0  0  0  0  0  0  0  0  0  0  0
   36.7180   31.7670   32.9260 H   0  0  0  0  0  0  0  0  0  0  0  0
   35.6960   31.8160   34.6980 C   0  0  0  0  0  3  0  0  0  0  0  0
   34.6340   31.4030   35.4400 C   0  0  0  0  0  0  0  0  0  0  0  0
   34.3860   31.9260   37.0880 Cl  0  0  0  0  0  0  0  0  0  0  0  0
   33.7290   30.5510   34.8780 C   0  0  0  0  0  0  0  0  0  0  0  0
   32.8840   30.2060   35.4250 H   0  0  0  0  0  0  0  0  0  0  0  0
  1 25  1  0  0  0  0
  1  7  1  0  0  0  0
  2  3  1  0  0  0  0
  2 11  1  0  0  0  0
  3 17  1  0  0  0  0
  4 12  1  0  0  0  0
  4  3  2  0  0  0  0
  5  4  1  0  0  0  0
  6  5  1  0  0  0  0
  7  8  2  0  0  0  0
  7  6  1  0  0  0  0
  8  9  1  0  0  0  0
  9  5  2  0  0  0  0
  9 10  1  0  0  0  0
 10  2  2  0  0  0  0
 13  6  1  0  0  0  0
 14 10  1  0  0  0  0
 15 21  1  0  0  0  0
 15 20  1  0  0  0  0
 16 15  2  0  0  0  0
 17 16  1  0  0  0  0
 17 18  2  0  0  0  0
 18 19  1  0  0  0  0
 19 20  2  0  0  0  0
 19 23  1  0  0  0  0
 22 16  1  0  0  0  0
 24 29  1  0  0  0  0
 24 30  1  0  0  0  0
 25 31  1  6  0  0  0
 25 24  1  0  0  0  0
 26 27  1  0  0  0  0
 26 25  1  0  0  0  0
 26 32  1  0  0  0  0
 27 28  1  0  0  0  0
 28 29  1  0  0  0  0
 28 34  1  0  0  0  0
 29 36  1  6  0  0  0
 29 39  1  0  0  0  0
 33 26  1  0  0  0  0
 35 28  1  0  0  0  0
 37 38  1  0  0  0  0
 38 45  1  0  0  0  0
 39 40  1  0  0  0  0
 39 38  2  0  0  0  0
 40 42  2  0  0  0  0
 41 40  1  0  0  0  0
 42 43  1  0  0  0  0
 43 44  1  0  0  0  0
 45 46  1  0  0  0  0
 45 43  2  0  0  0  0
M  END
>  <minimizedAffinity>
-6.46327162

$$$$

 OpenBabel03272510283D

 46 50  0  0  1  0  0  0  0  0999 V2000
   35.7660   29.5870   31.8490 O   0  0  0  0  0  0  0  0  0  0  0  0
   38.0470   24.4960   33.7540 C   0  0  0  0  0  0  0  0  0  0  0  0
   37.9650   25.1280   34.9830 C   0  0  0  0  0  0  0  0  0  0  0  0
   37.4570   26.4290   35.0760 C   0  0  0  0  0  0  0  0  0  0  0  0
   37.0580   27.0140   33.8790 C   0  0  0  0  0  0  0  0  0  0  0  0
   36.5360   28.2780   33.7110 N   0  0  0  0  0  0  0  0  0  0  0  0
   36.3010   28.4180   32.3990 C   0  0  0  0  0  0  0  0  0  0  0  0
   36.6490   27.3180   31.7730 N   0  0  0  0  0  0  0  0  0  0  0  0
   37.1240   26.4190   32.6500 C   0  0  0  0  0  0  0  0  0  0  0  0
   37.6330   25.1230   32.5850 C   0  0  0  0  0  0  0  0  0  0  0  0
   38.4310   23.4870   33.6190 H   0  0  0  0  0  0  0  0  0  0  0  0
   37.3880   26.9340   36.0290 H   0  0  0  0  0  0  0  0  0  0  0  0
   36.3690   28.9720   34.4820 H   0  0  0  0  0  0  0  0  0  0  0  0
   37.6890   24.6460   31.6150 H   0  0  0  0  0  0  0  0  0  0  0  0
   38.4050   23.7600   38.4460 C   0  0  0  0  0  0  0  0  0  0  0  0
   37.8570   24.5110   37.4150 C   0  0  0  0  0  0  0  0  0  0  0  0
   38.4160   24.4100   36.1550 C   0  0  0  0  0  0  0  0  0  0  0  0
   39.4870   23.5640   36.0010 N   0  0  0  0  0  0  0  0  0  0  0  0
   40.0020   22.8450   37.0160 C   0  0  0  0  0  0  0  0  0  0  0  0
   39.4600   22.9490   38.2230 N   0  0  0  0  0  0  0  0  0  0  0  0
   37.9540   23.8500   39.4340 H   0  0  0  0  0  0  0  0  0  0  0  0
   37.0180   25.1720   37.5420 H   0  0  0  0  0  0  0  0  0  0  0  0
   40.8460   22.2130   36.7750 H   0  0  0  0  0  0  0  0  0  0  0  0
   34.6800   30.7270   33.5350 N   0  0  0  0  0  0  0  0  0  0  0  0
   34.4740   29.9680   32.2980 C   0  0  1  0  0  0  0  0  0  0  0  0
   33.8310   30.8430   31.3260 C   0  0  0  0  0  0  0  0  0  0  0  0
   32.5500   31.1680   31.7890 O   0  0  0  0  0  0  0  0  0  0  0  0
   32.5270   31.7730   33.0290 C   0  0  0  0  0  0  0  0  0  0  0  0
   33.3710   31.0010   34.0400 C   0  0  2  0  0  0  0  0  0  0  0  0
   35.0890   31.6590   33.3430 H   0  0  0  0  0  0  0  0  0  0  0  0
   33.8340   29.1330   32.5770 H   0  0  0  0  0  0  0  0  0  0  0  0
   34.2100   31.7760   31.0020 H   0  0  0  0  0  0  0  0  0  0  0  0
   33.6340   30.2310   30.3930 H   0  0  0  0  0  0  0  0  0  0  0  0
   32.8780   32.8170   32.9820 H   0  0  0  0  0  0  0  0  0  0  0  0
   31.4800   31.7620   33.3720 H   0  0  0  0  0  0  0  0  0  0  0  0
   32.8530   30.0130   34.2550 H   0  0  0  0  0  0  0  0  0  0  0  0
   32.0430   30.2680   36.9560 Cl  0  0  0  0  0  0  0  0  0  0  0  0
   32.9780   31.6880   36.5740 C   0  0  0  0  0  0  0  0  0  0  0  0
   33.4120   31.7740   35.2770 C   0  0  0  0  0  0  0  0  0  0  0  0
   34.1400   32.9680   35.0850 C   0  0  0  0  0  0  0  0  0  0  0  0
   34.5960   33.2760   34.1320 H   0  0  0  0  0  0  0  0  0  0  0  0
   34.3970   33.9370   36.0570 C   0  0  0  0  0  3  0  0  0  0  0  0
   33.9120   33.7360   37.3120 C   0  0  0  0  0  0  0  0  0  0  0  0
   34.1710   34.8780   38.6080 Cl  0  0  0  0  0  0  0  0  0  0  0  0
   33.1980   32.6020   37.5680 C   0  0  0  0  0  0  0  0  0  0  0  0
   32.8010   32.4090   38.5360 H   0  0  0  0  0  0  0  0  0  0  0  0
  1 25  1  0  0  0  0
  1  7  1  0  0  0  0
  2  3  1  0  0  0  0
  3  4  2  0  0  0  0
  3 17  1  0  0  0  0
  4 12  1  0  0  0  0
  5  4  1  0  0  0  0
  6  5  1  0  0  0  0
  6 13  1  0  0  0  0
  7  6  1  0  0  0  0
  8  7  2  0  0  0  0
  8  9  1  0  0  0  0
  9  5  2  0  0  0  0
 10  9  1  0  0  0  0
 10  2  2  0  0  0  0
 11  2  1  0  0  0  0
 14 10  1  0  0  0  0
 15 21  1  0  0  0  0
 16 22  1  0  0  0  0
 16 15  2  0  0  0  0
 17 16  1  0  0  0  0
 18 17  2  0  0  0  0
 18 19  1  0  0  0  0
 19 20  2  0  0  0  0
 20 15  1  0  0  0  0
 23 19  1  0  0  0  0
 24 29  1  0  0  0  0
 25 31  1  1  0  0  0
 25 24  1  0  0  0  0
 26 27  1  0  0  0  0
 26 25  1  0  0  0  0
 27 28  1  0  0  0  0
 28 35  1  0  0  0  0
 28 29  1  0  0  0  0
 29 36  1  1  0  0  0
 29 39  1  0  0  0  0
 30 24  1  0  0  0  0
 32 26  1  0  0  0  0
 33 26  1  0  0  0  0
 34 28  1  0  0  0  0
 38 37  1  0  0  0  0
 38 45  1  0  0  0  0
 39 38  2  0  0  0  0
 40 39  1  0  0  0  0
 40 42  2  0  0  0  0
 41 40  1  0  0  0  0
 42 43  1  0  0  0  0
 43 45  2  0  0  0  0
 43 44  1  0  0  0  0
 45 46  1  0  0  0  0
M  END
>  <minimizedAffinity>
-6.38910961

$$$$

 OpenBabel03272510283D

 46 50  0  0  1  0  0  0  0  0999 V2000
   37.4980   29.0750   30.6000 O   0  0  0  0  0  0  0  0  0  0  0  0
   37.5830   23.6680   32.9470 C   0  0  0  0  0  0  0  0  0  0  0  0
   36.7590   23.3840   31.8720 C   0  0  0  0  0  0  0  0  0  0  0  0
   36.4180   24.3890   30.9590 C   0  0  0  0  0  0  0  0  0  0  0  0
   36.9540   25.6480   31.2100 C   0  0  0  0  0  0  0  0  0  0  0  0
   36.7610   26.7920   30.4660 N   0  0  0  0  0  0  0  0  0  0  0  0
   37.4570   27.7600   31.0760 C   0  0  0  0  0  0  0  0  0  0  0  0
   38.0550   27.2680   32.1370 N   0  0  0  0  0  0  0  0  0  0  0  0
   37.7700   25.9620   32.2610 C   0  0  0  0  0  0  0  0  0  0  0  0
   38.0940   24.9430   33.1550 C   0  0  0  0  0  0  0  0  0  0  0  0
   37.8830   22.9300   33.6890 H   0  0  0  0  0  0  0  0  0  0  0  0
   35.7760   24.1810   30.1150 H   0  0  0  0  0  0  0  0  0  0  0  0
   36.1760   26.8560   29.5960 H   0  0  0  0  0  0  0  0  0  0  0  0
   38.7400   25.1840   33.9900 H   0  0  0  0  0  0  0  0  0  0  0  0
   34.8040   20.1950   32.1190 C   0  0  0  0  0  0  0  0  0  0  0  0
   35.1520   21.5170   32.3590 C   0  0  0  0  0  0  0  0  0  0  0  0
   36.2650   22.0320   31.7230 C   0  0  0  0  0  0  0  0  0  0  0  0
   36.9630   21.1970   30.8860 N   0  0  0  0  0  0  0  0  0  0  0  0
   36.6060   19.9160   30.6680 C   0  0  0  0  0  0  0  0  0  0  0  0
   35.5360   19.4300   31.2830 N   0  0  0  0  0  0  0  0  0  0  0  0
   33.9230   19.8020   32.6280 H   0  0  0  0  0  0  0  0  0  0  0  0
   34.6010   22.1670   33.0160 H   0  0  0  0  0  0  0  0  0  0  0  0
   37.2310   19.3540   29.9880 H   0  0  0  0  0  0  0  0  0  0  0  0
   35.6570   29.4210   31.9470 N   0  0  0  0  0  0  0  0  0  0  0  0
   36.2930   29.8210   30.6880 C   0  0  1  0  0  0  0  0  0  0  0  0
   36.5780   31.2480   30.7530 C   0  0  0  0  0  0  0  0  0  0  0  0
   35.3660   31.9490   30.8050 O   0  0  0  0  0  0  0  0  0  0  0  0
   34.5500   31.6000   31.8620 C   0  0  0  0  0  0  0  0  0  0  0  0
   34.3920   30.0860   31.9660 C   0  0  2  0  0  0  0  0  0  0  0  0
   36.1660   29.7990   32.7650 H   0  0  0  0  0  0  0  0  0  0  0  0
   35.5660   29.5880   29.9130 H   0  0  0  0  0  0  0  0  0  0  0  0
   37.1580   31.7200   31.5020 H   0  0  0  0  0  0  0  0  0  0  0  0
   37.0250   31.5540   29.7580 H   0  0  0  0  0  0  0  0  0  0  0  0
   34.9280   31.9960   32.8180 H   0  0  0  0  0  0  0  0  0  0  0  0
   33.5590   32.0390   31.6590 H   0  0  0  0  0  0  0  0  0  0  0  0
   33.7830   29.7290   31.0760 H   0  0  0  0  0  0  0  0  0  0  0  0
   35.2570   30.6290   35.0900 Cl  0  0  0  0  0  0  0  0  0  0  0  0
   33.7570   29.9330   34.5390 C   0  0  0  0  0  0  0  0  0  0  0  0
   33.6380   29.7950   33.1810 C   0  0  0  0  0  0  0  0  0  0  0  0
   32.3950   29.2100   32.8580 C   0  0  0  0  0  0  0  0  0  0  0  0
   32.0530   28.9910   31.8350 H   0  0  0  0  0  0  0  0  0  0  0  0
   31.4110   28.8200   33.7700 C   0  0  0  0  0  3  0  0  0  0  0  0
   31.6480   29.0110   35.0960 C   0  0  0  0  0  0  0  0  0  0  0  0
   30.4920   28.5630   36.3250 Cl  0  0  0  0  0  0  0  0  0  0  0  0
   32.8310   29.5720   35.4790 C   0  0  0  0  0  0  0  0  0  0  0  0
   33.0540   29.7370   36.5060 H   0  0  0  0  0  0  0  0  0  0  0  0
  1 25  1  0  0  0  0
  1  7  1  0  0  0  0
  2 10  1  0  0  0  0
  2 11  1  0  0  0  0
  3  2  2  0  0  0  0
  4  5  2  0  0  0  0
  4  3  1  0  0  0  0
  5  9  1  0  0  0  0
  6  7  1  0  0  0  0
  6  5  1  0  0  0  0
  7  8  2  0  0  0  0
  8  9  1  0  0  0  0
  9 10  2  0  0  0  0
 10 14  1  0  0  0  0
 12  4  1  0  0  0  0
 13  6  1  0  0  0  0
 15 16  1  0  0  0  0
 15 21  1  0  0  0  0
 16 22  1  0  0  0  0
 17  3  1  0  0  0  0
 17 16  2  0  0  0  0
 18 17  1  0  0  0  0
 19 18  2  0  0  0  0
 19 20  1  0  0  0  0
 20 15  2  0  0  0  0
 23 19  1  0  0  0  0
 24 29  1  0  0  0  0
 24 30  1  0  0  0  0
 25 31  1  6  0  0  0
 25 26  1  0  0  0  0
 25 24  1  0  0  0  0
 26 27  1  0  0  0  0
 26 32  1  0  0  0  0
 27 28  1  0  0  0  0
 28 29  1  0  0  0  0
 28 34  1  0  0  0  0
 29 36  1  6  0  0  0
 29 39  1  0  0  0  0
 33 26  1  0  0  0  0
 35 28  1  0  0  0  0
 38 37  1  0  0  0  0
 38 45  1  0  0  0  0
 39 38  2  0  0  0  0
 40 39  1  0  0  0  0
 40 42  2  0  0  0  0
 41 40  1  0  0  0  0
 42 43  1  0  0  0  0
 43 45  2  0  0  0  0
 43 44  1  0  0  0  0
 45 46  1  0  0  0  0
M  END
>  <minimizedAffinity>
-6.33172941

$$$$

 OpenBabel03272510283D

 46 50  0  0  1  0  0  0  0  0999 V2000
   38.3170   27.0210   30.5070 O   0  0  0  0  0  0  0  0  0  0  0  0
   34.3450   30.7580   32.7460 C   0  0  0  0  0  0  0  0  0  0  0  0
   34.7260   30.1650   33.9370 C   0  0  0  0  0  0  0  0  0  0  0  0
   35.7000   29.1600   33.9460 C   0  0  0  0  0  0  0  0  0  0  0  0
   36.2340   28.8180   32.7080 C   0  0  0  0  0  0  0  0  0  0  0  0
   37.1950   27.8620   32.4580 N   0  0  0  0  0  0  0  0  0  0  0  0
   37.4000   27.8700   31.1340 C   0  0  0  0  0  0  0  0  0  0  0  0
   36.6240   28.7720   30.5770 N   0  0  0  0  0  0  0  0  0  0  0  0
   35.8820   29.3830   31.5150 C   0  0  0  0  0  0  0  0  0  0  0  0
   34.9110   30.3820   31.5340 C   0  0  0  0  0  0  0  0  0  0  0  0
   33.5950   31.5430   32.6750 H   0  0  0  0  0  0  0  0  0  0  0  0
   36.0060   28.6880   34.8690 H   0  0  0  0  0  0  0  0  0  0  0  0
   37.6540   27.2610   33.1870 H   0  0  0  0  0  0  0  0  0  0  0  0
   34.6260   30.8350   30.5920 H   0  0  0  0  0  0  0  0  0  0  0  0
   33.8590   31.9080   37.1410 C   0  0  0  0  0  0  0  0  0  0  0  0
   34.5800   31.5920   35.9980 C   0  0  0  0  0  0  0  0  0  0  0  0
   34.0910   30.6090   35.1590 C   0  0  0  0  0  0  0  0  0  0  0  0
   32.9110   30.0020   35.5110 N   0  0  0  0  0  0  0  0  0  0  0  0
   32.2270   30.3260   36.6260 C   0  0  0  0  0  0  0  0  0  0  0  0
   32.7050   31.2690   37.4270 N   0  0  0  0  0  0  0  0  0  0  0  0
   34.2570   32.6850   37.7940 H   0  0  0  0  0  0  0  0  0  0  0  0
   35.5050   32.0710   35.7270 H   0  0  0  0  0  0  0  0  0  0  0  0
   31.3100   29.7800   36.8000 H   0  0  0  0  0  0  0  0  0  0  0  0
   37.8660   24.9400   31.3930 N   0  0  0  0  0  0  0  0  0  0  0  0
   38.8820   25.9930   31.3070 C   0  0  1  0  0  0  0  0  0  0  0  0
   40.0650   25.4360   30.6630 C   0  0  0  0  0  0  0  0  0  0  0  0
   40.6100   24.4510   31.4960 O   0  0  0  0  0  0  0  0  0  0  0  0
   39.7410   23.4270   31.8140 C   0  0  0  0  0  0  0  0  0  0  0  0
   38.3980   23.9670   32.2960 C   0  0  2  0  0  0  0  0  0  0  0  0
   37.7640   24.4370   30.4940 H   0  0  0  0  0  0  0  0  0  0  0  0
   39.0810   26.2860   32.3350 H   0  0  0  0  0  0  0  0  0  0  0  0
   40.0800   24.9760   29.7100 H   0  0  0  0  0  0  0  0  0  0  0  0
   40.8580   26.2450   30.6460 H   0  0  0  0  0  0  0  0  0  0  0  0
   39.5790   22.7480   30.9610 H   0  0  0  0  0  0  0  0  0  0  0  0
   40.2020   22.8600   32.6390 H   0  0  0  0  0  0  0  0  0  0  0  0
   38.5540   24.4600   33.3070 H   0  0  0  0  0  0  0  0  0  0  0  0
   38.0640   22.0100   34.9160 Cl  0  0  0  0  0  0  0  0  0  0  0  0
   37.1600   21.9100   33.4290 C   0  0  0  0  0  0  0  0  0  0  0  0
   37.4950   22.8340   32.4750 C   0  0  0  0  0  0  0  0  0  0  0  0
   36.7110   22.6450   31.3160 C   0  0  0  0  0  0  0  0  0  0  0  0
   36.7850   23.2570   30.4050 H   0  0  0  0  0  0  0  0  0  0  0  0
   35.7290   21.6670   31.1420 C   0  0  0  0  0  3  0  0  0  0  0  0
   35.4870   20.8070   32.1670 C   0  0  0  0  0  0  0  0  0  0  0  0
   34.2830   19.5450   32.0630 Cl  0  0  0  0  0  0  0  0  0  0  0  0
   36.2090   20.9320   33.3180 C   0  0  0  0  0  0  0  0  0  0  0  0
   36.0500   20.2780   34.1410 H   0  0  0  0  0  0  0  0  0  0  0  0
  1  7  1  0  0  0  0
  1 25  1  0  0  0  0
  2  3  1  0  0  0  0
  3  4  2  0  0  0  0
  3 17  1  0  0  0  0
  4 12  1  0  0  0  0
  5  4  1  0  0  0  0
  6  5  1  0  0  0  0
  6 13  1  0  0  0  0
  7  6  1  0  0  0  0
  8  7  2  0  0  0  0
  8  9  1  0  0  0  0
  9 10  1  0  0  0  0
  9  5  2  0  0  0  0
 10  2  2  0  0  0  0
 11  2  1  0  0  0  0
 14 10  1  0  0  0  0
 15 20  1  0  0  0  0
 15 21  1  0  0  0  0
 16 15  2  0  0  0  0
 17 18  2  0  0  0  0
 17 16  1  0  0  0  0
 18 19  1  0  0  0  0
 19 23  1  0  0  0  0
 19 20  2  0  0  0  0
 22 16  1  0  0  0  0
 24 29  1  0  0  0  0
 25 24  1  0  0  0  0
 25 31  1  1  0  0  0
 26 25  1  0  0  0  0
 26 27  1  0  0  0  0
 27 28  1  0  0  0  0
 28 29  1  0  0  0  0
 28 35  1  0  0  0  0
 29 39  1  0  0  0  0
 29 36  1  1  0  0  0
 30 24  1  0  0  0  0
 32 26  1  0  0  0  0
 33 26  1  0  0  0  0
 34 28  1  0  0  0  0
 38 37  1  0  0  0  0
 39 38  2  0  0  0  0
 40 39  1  0  0  0  0
 41 40  1  0  0  0  0
 42 40  2  0  0  0  0
 42 43  1  0  0  0  0
 43 45  2  0  0  0  0
 44 43  1  0  0  0  0
 45 38  1  0  0  0  0
 45 46  1  0  0  0  0
M  END
>  <minimizedAffinity>
-6.23069

$$$$

 OpenBabel03272510283D

 46 50  0  0  1  0  0  0  0  0999 V2000
   39.8890   25.8310   34.8710 O   0  0  0  0  0  0  0  0  0  0  0  0
   35.5600   28.6590   32.0390 C   0  0  0  0  0  0  0  0  0  0  0  0
   35.2000   29.0210   33.3250 C   0  0  0  0  0  0  0  0  0  0  0  0
   35.9540   28.5830   34.4190 C   0  0  0  0  0  0  0  0  0  0  0  0
   37.0530   27.7840   34.1210 C   0  0  0  0  0  0  0  0  0  0  0  0
   37.9390   27.2290   35.0190 N   0  0  0  0  0  0  0  0  0  0  0  0
   38.8280   26.5380   34.2930 C   0  0  0  0  0  0  0  0  0  0  0  0
   38.5310   26.6450   33.0180 N   0  0  0  0  0  0  0  0  0  0  0  0
   37.4370   27.4080   32.8640 C   0  0  0  0  0  0  0  0  0  0  0  0
   36.6690   27.8590   31.7920 C   0  0  0  0  0  0  0  0  0  0  0  0
   35.0140   28.9680   31.1490 H   0  0  0  0  0  0  0  0  0  0  0  0
   35.6850   28.8580   35.4290 H   0  0  0  0  0  0  0  0  0  0  0  0
   37.8960   27.3440   36.0620 H   0  0  0  0  0  0  0  0  0  0  0  0
   36.9670   27.5650   30.7930 H   0  0  0  0  0  0  0  0  0  0  0  0
   32.5120   31.2450   34.6960 C   0  0  0  0  0  0  0  0  0  0  0  0
   33.6670   30.4770   34.6810 C   0  0  0  0  0  0  0  0  0  0  0  0
   34.0320   29.8560   33.5010 C   0  0  0  0  0  0  0  0  0  0  0  0
   33.2220   30.0420   32.4090 N   0  0  0  0  0  0  0  0  0  0  0  0
   32.1040   30.7940   32.4470 C   0  0  0  0  0  0  0  0  0  0  0  0
   31.7610   31.3850   33.5840 N   0  0  0  0  0  0  0  0  0  0  0  0
   32.2360   31.7280   35.6340 H   0  0  0  0  0  0  0  0  0  0  0  0
   34.2980   30.3340   35.5410 H   0  0  0  0  0  0  0  0  0  0  0  0
   31.5450   30.8680   31.5240 H   0  0  0  0  0  0  0  0  0  0  0  0
   38.6490   23.8890   34.7530 N   0  0  0  0  0  0  0  0  0  0  0  0
   39.5500   24.6670   35.6100 C   0  0  1  0  0  0  0  0  0  0  0  0
   40.7370   23.8640   35.8730 C   0  0  0  0  0  0  0  0  0  0  0  0
   40.3670   22.7460   36.6300 O   0  0  0  0  0  0  0  0  0  0  0  0
   39.4040   21.9510   36.0410 C   0  0  0  0  0  0  0  0  0  0  0  0
   38.2220   22.7830   35.5510 C   0  0  2  0  0  0  0  0  0  0  0  0
   39.1580   23.4610   33.9600 H   0  0  0  0  0  0  0  0  0  0  0  0
   38.9840   24.8630   36.5180 H   0  0  0  0  0  0  0  0  0  0  0  0
   41.3700   23.4520   35.1320 H   0  0  0  0  0  0  0  0  0  0  0  0
   41.4020   24.4570   36.5730 H   0  0  0  0  0  0  0  0  0  0  0  0
   39.8130   21.3660   35.2020 H   0  0  0  0  0  0  0  0  0  0  0  0
   39.0420   21.2590   36.8180 H   0  0  0  0  0  0  0  0  0  0  0  0
   37.6680   23.1840   36.4570 H   0  0  0  0  0  0  0  0  0  0  0  0
   35.5920   21.1610   36.6740 Cl  0  0  0  0  0  0  0  0  0  0  0  0
   36.1940   21.1480   35.0390 C   0  0  0  0  0  0  0  0  0  0  0  0
   37.3200   21.8970   34.8210 C   0  0  0  0  0  0  0  0  0  0  0  0
   37.7190   21.7970   33.4710 C   0  0  0  0  0  0  0  0  0  0  0  0
   38.5950   22.3030   33.0380 H   0  0  0  0  0  0  0  0  0  0  0  0
   37.0760   21.0510   32.4800 C   0  0  0  0  0  3  0  0  0  0  0  0
   35.9620   20.3490   32.8210 C   0  0  0  0  0  0  0  0  0  0  0  0
   35.0770   19.3830   31.6670 Cl  0  0  0  0  0  0  0  0  0  0  0  0
   35.5210   20.4010   34.1110 C   0  0  0  0  0  0  0  0  0  0  0  0
   34.6540   19.8650   34.4170 H   0  0  0  0  0  0  0  0  0  0  0  0
  1 25  1  0  0  0  0
  2  3  1  0  0  0  0
  3 17  1  0  0  0  0
  3  4  2  0  0  0  0
  4 12  1  0  0  0  0
  5  4  1  0  0  0  0
  5  6  1  0  0  0  0
  6 13  1  0  0  0  0
  7  1  1  0  0  0  0
  7  6  1  0  0  0  0
  8  7  2  0  0  0  0
  9  8  1  0  0  0  0
  9  5  2  0  0  0  0
 10  2  2  0  0  0  0
 10  9  1  0  0  0  0
 11  2  1  0  0  0  0
 14 10  1  0  0  0  0
 15 21  1  0  0  0  0
 16 15  1  0  0  0  0
 16 22  1  0  0  0  0
 17 16  2  0  0  0  0
 18 19  2  0  0  0  0
 18 17  1  0  0  0  0
 19 20  1  0  0  0  0
 20 15  2  0  0  0  0
 23 19  1  0  0  0  0
 24 29  1  0  0  0  0
 24 25  1  0  0  0  0
 25 26  1  0  0  0  0
 25 31  1  1  0  0  0
 26 33  1  0  0  0  0
 26 27  1  0  0  0  0
 28 27  1  0  0  0  0
 28 35  1  0  0  0  0
 29 28  1  0  0  0  0
 29 36  1  1  0  0  0
 30 24  1  0  0  0  0
 32 26  1  0  0  0  0
 34 28  1  0  0  0  0
 38 37  1  0  0  0  0
 39 38  1  0  0  0  0
 39 29  1  0  0  0  0
 40 39  2  0  0  0  0
 41 40  1  0  0  0  0
 42 43  2  0  0  0  0
 42 40  1  0  0  0  0
 43 45  1  0  0  0  0
 44 43  1  0  0  0  0
 45 46  1  0  0  0  0
 45 38  2  0  0  0  0
M  END
>  <minimizedAffinity>
-6.22040224

$$$$

 OpenBabel03272510283D

 46 50  0  0  1  0  0  0  0  0999 V2000
   35.7700   25.4710   30.6270 O   0  0  0  0  0  0  0  0  0  0  0  0
   36.2160   31.1880   31.9890 C   0  0  0  0  0  0  0  0  0  0  0  0
   36.7550   31.2640   30.7170 C   0  0  0  0  0  0  0  0  0  0  0  0
   36.8740   30.1130   29.9300 C   0  0  0  0  0  0  0  0  0  0  0  0
   36.4220   28.9310   30.5080 C   0  0  0  0  0  0  0  0  0  0  0  0
   36.4380   27.6750   29.9420 N   0  0  0  0  0  0  0  0  0  0  0  0
   35.9160   26.8430   30.8530 C   0  0  0  0  0  0  0  0  0  0  0  0
   35.5870   27.5220   31.9280 N   0  0  0  0  0  0  0  0  0  0  0  0
   35.8850   28.8210   31.7600 C   0  0  0  0  0  0  0  0  0  0  0  0
   35.7780   29.9830   32.5230 C   0  0  0  0  0  0  0  0  0  0  0  0
   36.0980   32.0480   32.6470 H   0  0  0  0  0  0  0  0  0  0  0  0
   37.2930   30.1570   28.9350 H   0  0  0  0  0  0  0  0  0  0  0  0
   36.7980   27.4490   28.9810 H   0  0  0  0  0  0  0  0  0  0  0  0
   35.3530   29.9040   33.5160 H   0  0  0  0  0  0  0  0  0  0  0  0
   37.7060   34.2010   28.5890 C   0  0  0  0  0  0  0  0  0  0  0  0
   37.2640   32.9230   28.9010 C   0  0  0  0  0  0  0  0  0  0  0  0
   37.1900   32.5560   30.2310 C   0  0  0  0  0  0  0  0  0  0  0  0
   37.5600   33.4880   31.1690 N   0  0  0  0  0  0  0  0  0  0  0  0
   37.9870   34.7230   30.8430 C   0  0  0  0  0  0  0  0  0  0  0  0
   38.0560   35.0670   29.5630 N   0  0  0  0  0  0  0  0  0  0  0  0
   37.7600   34.4760   27.5360 H   0  0  0  0  0  0  0  0  0  0  0  0
   36.9750   32.1970   28.1620 H   0  0  0  0  0  0  0  0  0  0  0  0
   38.2520   35.3710   31.6670 H   0  0  0  0  0  0  0  0  0  0  0  0
   36.8480   24.8860   32.5810 N   0  0  0  0  0  0  0  0  0  0  0  0
   36.7940   24.6300   31.1390 C   0  0  1  0  0  0  0  0  0  0  0  0
   36.4540   23.2280   30.9360 C   0  0  0  0  0  0  0  0  0  0  0  0
   37.5000   22.4340   31.4220 O   0  0  0  0  0  0  0  0  0  0  0  0
   37.8020   22.6400   32.7530 C   0  0  0  0  0  0  0  0  0  0  0  0
   37.9590   24.1250   33.0640 C   0  0  2  0  0  0  0  0  0  0  0  0
   36.0250   24.4880   33.0670 H   0  0  0  0  0  0  0  0  0  0  0  0
   37.7900   24.8630   30.7680 H   0  0  0  0  0  0  0  0  0  0  0  0
   35.5930   22.7470   31.3210 H   0  0  0  0  0  0  0  0  0  0  0  0
   36.4620   23.0320   29.8200 H   0  0  0  0  0  0  0  0  0  0  0  0
   37.0380   22.2050   33.4180 H   0  0  0  0  0  0  0  0  0  0  0  0
   38.7670   22.1430   32.9430 H   0  0  0  0  0  0  0  0  0  0  0  0
   38.9010   24.4990   32.5530 H   0  0  0  0  0  0  0  0  0  0  0  0
   37.9220   26.8730   34.8690 Cl  0  0  0  0  0  0  0  0  0  0  0  0
   38.1430   25.2490   35.4620 C   0  0  0  0  0  0  0  0  0  0  0  0
   38.1340   24.2680   34.5060 C   0  0  0  0  0  0  0  0  0  0  0  0
   38.3360   23.0040   35.1020 C   0  0  0  0  0  0  0  0  0  0  0  0
   38.3720   22.0520   34.5520 H   0  0  0  0  0  0  0  0  0  0  0  0
   38.5190   22.7610   36.4650 C   0  0  0  0  0  3  0  0  0  0  0  0
   38.5060   23.8220   37.3170 C   0  0  0  0  0  0  0  0  0  0  0  0
   38.7250   23.6390   39.0400 Cl  0  0  0  0  0  0  0  0  0  0  0  0
   38.3160   25.0730   36.8080 C   0  0  0  0  0  0  0  0  0  0  0  0
   38.3000   25.9280   37.4410 H   0  0  0  0  0  0  0  0  0  0  0  0
  1  7  1  0  0  0  0
  1 25  1  0  0  0  0
  2 10  1  0  0  0  0
  2 11  1  0  0  0  0
  3  2  2  0  0  0  0
  4  5  2  0  0  0  0
  4  3  1  0  0  0  0
  5  9  1  0  0  0  0
  6  5  1  0  0  0  0
  6  7  1  0  0  0  0
  7  8  2  0  0  0  0
  9  8  1  0  0  0  0
  9 10  2  0  0  0  0
 10 14  1  0  0  0  0
 12  4  1  0  0  0  0
 13  6  1  0  0  0  0
 15 16  2  0  0  0  0
 15 20  1  0  0  0  0
 16 17  1  0  0  0  0
 17  3  1  0  0  0  0
 17 18  2  0  0  0  0
 19 18  1  0  0  0  0
 19 23  1  0  0  0  0
 20 19  2  0  0  0  0
 21 15  1  0  0  0  0
 22 16  1  0  0  0  0
 24 29  1  0  0  0  0
 24 30  1  0  0  0  0
 25 31  1  6  0  0  0
 25 24  1  0  0  0  0
 26 25  1  0  0  0  0
 26 32  1  0  0  0  0
 26 27  1  0  0  0  0
 27 28  1  0  0  0  0
 28 35  1  0  0  0  0
 28 29  1  0  0  0  0
 28 34  1  0  0  0  0
 29 36  1  6  0  0  0
 29 39  1  0  0  0  0
 33 26  1  0  0  0  0
 37 38  1  0  0  0  0
 38 45  1  0  0  0  0
 39 40  1  0  0  0  0
 39 38  2  0  0  0  0
 40 42  2  0  0  0  0
 41 40  1  0  0  0  0
 42 43  1  0  0  0  0
 43 44  1  0  0  0  0
 45 43  2  0  0  0  0
 45 46  1  0  0  0  0
M  END
>  <minimizedAffinity>
-6.20061779

$$$$
