
 OpenBabel03272509253D

 25 26  0  0  0  0  0  0  0  0999 V2000
   37.8730   31.9170   47.2770 C   0  0  0  0  0  0  0  0  0  0  0  0
   36.8080   32.1380   47.4990 H   0  0  0  0  0  0  0  0  0  0  0  0
   38.5510   32.5900   47.8180 H   0  0  0  0  0  0  0  0  0  0  0  0
   40.2210   33.5750   46.5990 Cl  0  0  0  0  0  0  0  0  0  0  0  0
   39.1480   32.8380   45.4070 C   0  0  0  0  0  0  0  0  0  0  0  0
   38.0590   32.0660   45.8050 C   0  0  0  0  0  0  0  0  0  0  0  0
   37.2790   31.5310   44.8060 C   0  0  0  0  0  0  0  0  0  0  0  0
   36.4440   30.9400   45.1550 H   0  0  0  0  0  0  0  0  0  0  0  0
   37.5920   31.7710   43.4840 C   0  0  0  0  0  3  0  0  0  0  0  0
   38.6650   32.5300   43.1130 C   0  0  0  0  0  0  0  0  0  0  0  0
   39.0460   32.8230   41.4240 Cl  0  0  0  0  0  0  0  0  0  0  0  0
   39.4620   33.0780   44.0900 C   0  0  0  0  0  0  0  0  0  0  0  0
   40.3080   33.6770   43.7800 H   0  0  0  0  0  0  0  0  0  0  0  0
   38.1120   30.4540   47.6380 C   0  0  0  0  0  0  0  0  0  0  0  0
   39.2310   30.3040   47.6920 H   0  0  0  0  0  0  0  0  0  0  0  0
   37.7080   29.7890   46.8710 H   0  0  0  0  0  0  0  0  0  0  0  0
   37.3390   30.2230   51.3650 C   0  0  0  0  0  0  0  0  0  0  0  0
   37.9760   30.5290   50.1680 C   0  0  0  0  0  0  0  0  0  0  0  0
   37.4720   30.1480   48.9380 C   0  0  0  0  0  0  0  0  0  0  0  0
   36.3100   29.4490   48.9510 N   0  0  0  0  0  0  0  0  0  0  0  0
   35.6880   29.1490   50.1180 C   0  0  0  0  0  0  0  0  0  0  0  0
   36.2000   29.5330   51.3040 N   0  0  0  0  0  0  0  0  0  0  0  0
   37.7150   30.5100   52.3220 H   0  0  0  0  0  0  0  0  0  0  0  0
   38.8860   31.0800   50.2320 H   0  0  0  0  0  0  0  0  0  0  0  0
   34.7690   28.5850   49.9720 H   0  0  0  0  0  0  0  0  0  0  0  0
  1  2  1  0  0  0  0
  1 14  1  0  0  0  0
  1  3  1  0  0  0  0
  5  6  1  0  0  0  0
  5  4  1  0  0  0  0
  6  1  1  0  0  0  0
  7  8  1  0  0  0  0
  7  6  2  0  0  0  0
  9  7  1  0  0  0  0
 10  9  2  0  0  0  0
 10 12  1  0  0  0  0
 11 10  1  0  0  0  0
 12  5  2  0  0  0  0
 13 12  1  0  0  0  0
 14 15  1  0  0  0  0
 14 19  1  0  0  0  0
 16 14  1  0  0  0  0
 17 23  1  0  0  0  0
 18 24  1  0  0  0  0
 18 17  2  0  0  0  0
 19 20  2  0  0  0  0
 19 18  1  0  0  0  0
 20 21  1  0  0  0  0
 21 22  2  0  0  0  0
 22 17  1  0  0  0  0
 25 21  1  0  0  0  0
M  END
>  <minimizedAffinity>
-4.97930861

>  <minimizedRMSD>
2.28266978

$$$$
