
 OpenBabel03262521523D

 23 24  0  0  0  0  0  0  0  0999 V2000
   37.8670   24.8660   35.6550 C   0  0  0  0  0  0  0  0  0  0  0  0
   36.8890   24.6940   36.1540 H   0  0  0  0  0  0  0  0  0  0  0  0
   37.6920   24.6550   34.5770 H   0  0  0  0  0  0  0  0  0  0  0  0
   37.9330   24.2810   38.6740 Cl  0  0  0  0  0  0  0  0  0  0  0  0
   39.0440   23.5710   37.5030 C   0  0  0  0  0  0  0  0  0  0  0  0
   38.8980   23.9370   36.1790 C   0  0  0  0  0  0  0  0  0  0  0  0
   39.7960   23.3540   35.2800 C   0  0  0  0  0  0  0  0  0  0  0  0
   39.7520   23.5830   34.2070 H   0  0  0  0  0  0  0  0  0  0  0  0
   40.7750   22.4640   35.6590 C   0  0  0  0  0  3  0  0  0  0  0  0
   40.9150   22.1040   36.9890 C   0  0  0  0  0  0  0  0  0  0  0  0
   42.1620   20.9670   37.4710 Cl  0  0  0  0  0  0  0  0  0  0  0  0
   40.0300   22.6780   37.9040 C   0  0  0  0  0  0  0  0  0  0  0  0
   40.1390   22.3980   38.9540 H   0  0  0  0  0  0  0  0  0  0  0  0
   38.3220   26.6100   35.7700 S   0  0  0  0  0  0  0  0  0  0  0  0
   37.5320   27.4650   34.4210 C   0  0  0  0  0  0  0  0  0  0  0  0
   38.1390   27.2210   33.1810 C   0  0  0  0  0  0  0  0  0  0  0  0
   37.5990   27.8230   32.0340 C   0  0  0  0  0  0  0  0  0  0  0  0
   36.5080   28.6190   32.1840 N   0  0  0  0  0  0  0  0  0  0  0  0
   35.9610   28.8250   33.3990 C   0  0  0  0  0  0  0  0  0  0  0  0
   36.4750   28.2500   34.4940 N   0  0  0  0  0  0  0  0  0  0  0  0
   39.0120   26.6100   32.9450 H   0  0  0  0  0  0  0  0  0  0  0  0
   38.0150   27.6720   31.0510 H   0  0  0  0  0  0  0  0  0  0  0  0
   35.0870   29.4370   33.6290 H   0  0  0  0  0  0  0  0  0  0  0  0
  1 14  1  0  0  0  0
  1  2  1  0  0  0  0
  1  6  1  0  0  0  0
  3  1  1  0  0  0  0
  5 12  1  0  0  0  0
  5  4  1  0  0  0  0
  6  5  2  0  0  0  0
  7  9  2  0  0  0  0
  7  6  1  0  0  0  0
  8  7  1  0  0  0  0
  9 10  1  0  0  0  0
 10 11  1  0  0  0  0
 10 12  2  0  0  0  0
 12 13  1  0  0  0  0
 15 20  1  0  0  0  0
 15 14  1  0  0  0  0
 16 15  2  0  0  0  0
 17 18  2  0  0  0  0
 17 16  1  0  0  0  0
 18 19  1  0  0  0  0
 19 23  1  0  0  0  0
 19 20  2  0  0  0  0
 21 16  1  0  0  0  0
 22 17  1  0  0  0  0
M  END
>  <minimizedAffinity>
-4.50665331

$$$$

 OpenBabel03262521523D

 23 24  0  0  0  0  0  0  0  0999 V2000
   38.5750   24.0370   33.2040 C   0  0  0  0  0  0  0  0  0  0  0  0
   38.9130   24.5880   32.3000 H   0  0  0  0  0  0  0  0  0  0  0  0
   39.4630   23.4690   33.5570 H   0  0  0  0  0  0  0  0  0  0  0  0
   36.6450   24.7560   30.9190 Cl  0  0  0  0  0  0  0  0  0  0  0  0
   36.5510   23.2690   31.8630 C   0  0  0  0  0  0  0  0  0  0  0  0
   37.4840   23.0890   32.8660 C   0  0  0  0  0  0  0  0  0  0  0  0
   37.3790   21.8990   33.5930 C   0  0  0  0  0  0  0  0  0  0  0  0
   38.0810   21.6690   34.4060 H   0  0  0  0  0  0  0  0  0  0  0  0
   36.4190   20.9440   33.3470 C   0  0  0  0  0  3  0  0  0  0  0  0
   35.4870   21.1350   32.3400 C   0  0  0  0  0  0  0  0  0  0  0  0
   34.2650   19.9150   32.0240 Cl  0  0  0  0  0  0  0  0  0  0  0  0
   35.5720   22.3180   31.6040 C   0  0  0  0  0  0  0  0  0  0  0  0
   34.8380   22.4730   30.8110 H   0  0  0  0  0  0  0  0  0  0  0  0
   38.1550   25.2020   34.5180 S   0  0  0  0  0  0  0  0  0  0  0  0
   38.4750   24.3990   36.0760 C   0  0  0  0  0  0  0  0  0  0  0  0
   39.5950   23.5560   36.0430 C   0  0  0  0  0  0  0  0  0  0  0  0
   39.9640   22.8780   37.2150 C   0  0  0  0  0  0  0  0  0  0  0  0
   39.2120   23.0720   38.3300 N   0  0  0  0  0  0  0  0  0  0  0  0
   38.1430   23.8930   38.3110 C   0  0  0  0  0  0  0  0  0  0  0  0
   37.7900   24.5420   37.1930 N   0  0  0  0  0  0  0  0  0  0  0  0
   40.2630   23.3230   35.2120 H   0  0  0  0  0  0  0  0  0  0  0  0
   40.8160   22.2190   37.2570 H   0  0  0  0  0  0  0  0  0  0  0  0
   37.4790   24.1240   39.1460 H   0  0  0  0  0  0  0  0  0  0  0  0
  1  3  1  0  0  0  0
  1 14  1  0  0  0  0
  2  1  1  0  0  0  0
  4  5  1  0  0  0  0
  5  6  1  0  0  0  0
  6  1  1  0  0  0  0
  6  7  2  0  0  0  0
  7  8  1  0  0  0  0
  9  7  1  0  0  0  0
 10  9  2  0  0  0  0
 11 10  1  0  0  0  0
 12  5  2  0  0  0  0
 12 10  1  0  0  0  0
 13 12  1  0  0  0  0
 14 15  1  0  0  0  0
 15 20  1  0  0  0  0
 16 15  2  0  0  0  0
 16 17  1  0  0  0  0
 17 22  1  0  0  0  0
 17 18  2  0  0  0  0
 19 18  1  0  0  0  0
 19 23  1  0  0  0  0
 20 19  2  0  0  0  0
 21 16  1  0  0  0  0
M  END
>  <minimizedAffinity>
-4.46661568

$$$$

 OpenBabel03262521523D

 23 24  0  0  0  0  0  0  0  0999 V2000
   38.9490   25.3790   33.7090 C   0  0  0  0  0  0  0  0  0  0  0  0
   39.7720   25.6660   34.3990 H   0  0  0  0  0  0  0  0  0  0  0  0
   39.4240   25.2640   32.7100 H   0  0  0  0  0  0  0  0  0  0  0  0
   38.5380   27.1880   36.1630 Cl  0  0  0  0  0  0  0  0  0  0  0  0
   37.6270   27.3360   34.6600 C   0  0  0  0  0  0  0  0  0  0  0  0
   37.9180   26.4430   33.6460 C   0  0  0  0  0  0  0  0  0  0  0  0
   37.1760   26.5910   32.4700 C   0  0  0  0  0  0  0  0  0  0  0  0
   37.3420   25.9290   31.6090 H   0  0  0  0  0  0  0  0  0  0  0  0
   36.2120   27.5590   32.3000 C   0  0  0  0  0  3  0  0  0  0  0  0
   35.9270   28.4480   33.3230 C   0  0  0  0  0  0  0  0  0  0  0  0
   34.6990   29.6840   33.1040 Cl  0  0  0  0  0  0  0  0  0  0  0  0
   36.6540   28.3160   34.5080 C   0  0  0  0  0  0  0  0  0  0  0  0
   36.4310   29.0140   35.3170 H   0  0  0  0  0  0  0  0  0  0  0  0
   38.3020   23.7540   34.1610 S   0  0  0  0  0  0  0  0  0  0  0  0
   38.4640   23.5800   35.9270 C   0  0  0  0  0  0  0  0  0  0  0  0
   39.6790   22.9980   36.3150 C   0  0  0  0  0  0  0  0  0  0  0  0
   39.9370   22.8220   37.6840 C   0  0  0  0  0  0  0  0  0  0  0  0
   38.9890   23.2270   38.5700 N   0  0  0  0  0  0  0  0  0  0  0  0
   37.8350   23.7800   38.1470 C   0  0  0  0  0  0  0  0  0  0  0  0
   37.5890   23.9490   36.8410 N   0  0  0  0  0  0  0  0  0  0  0  0
   40.5030   22.6340   35.6980 H   0  0  0  0  0  0  0  0  0  0  0  0
   40.8520   22.3850   38.0480 H   0  0  0  0  0  0  0  0  0  0  0  0
   37.0160   24.1440   38.7690 H   0  0  0  0  0  0  0  0  0  0  0  0
  1 14  1  0  0  0  0
  1  2  1  0  0  0  0
  3  1  1  0  0  0  0
  5  4  1  0  0  0  0
  6  1  1  0  0  0  0
  6  5  2  0  0  0  0
  7  6  1  0  0  0  0
  8  7  1  0  0  0  0
  9  7  2  0  0  0  0
  9 10  1  0  0  0  0
 10 12  2  0  0  0  0
 11 10  1  0  0  0  0
 12  5  1  0  0  0  0
 12 13  1  0  0  0  0
 14 15  1  0  0  0  0
 15 16  2  0  0  0  0
 15 20  1  0  0  0  0
 16 17  1  0  0  0  0
 17 22  1  0  0  0  0
 17 18  2  0  0  0  0
 19 18  1  0  0  0  0
 19 23  1  0  0  0  0
 20 19  2  0  0  0  0
 21 16  1  0  0  0  0
M  END
>  <minimizedAffinity>
-4.45144129

$$$$

 OpenBabel03262521523D

 23 24  0  0  0  0  0  0  0  0999 V2000
   39.2940   26.2620   34.2100 C   0  0  0  0  0  0  0  0  0  0  0  0
   39.6550   26.5990   35.2060 H   0  0  0  0  0  0  0  0  0  0  0  0
   40.1690   26.3530   33.5300 H   0  0  0  0  0  0  0  0  0  0  0  0
   39.1490   26.9270   31.2100 Cl  0  0  0  0  0  0  0  0  0  0  0  0
   37.9970   27.5120   32.4100 C   0  0  0  0  0  0  0  0  0  0  0  0
   38.1980   27.1360   33.7250 C   0  0  0  0  0  0  0  0  0  0  0  0
   37.2640   27.6190   34.6470 C   0  0  0  0  0  0  0  0  0  0  0  0
   37.3410   27.3680   35.7140 H   0  0  0  0  0  0  0  0  0  0  0  0
   36.1990   28.4170   34.3000 C   0  0  0  0  0  3  0  0  0  0  0  0
   36.0080   28.7900   32.9790 C   0  0  0  0  0  0  0  0  0  0  0  0
   34.6470   29.8060   32.5350 Cl  0  0  0  0  0  0  0  0  0  0  0  0
   36.9300   28.3220   32.0410 C   0  0  0  0  0  0  0  0  0  0  0  0
   36.7840   28.6150   31.0000 H   0  0  0  0  0  0  0  0  0  0  0  0
   38.8660   24.5090   34.2670 S   0  0  0  0  0  0  0  0  0  0  0  0
   38.9770   23.9810   35.9650 C   0  0  0  0  0  0  0  0  0  0  0  0
   37.9750   24.5260   36.7800 C   0  0  0  0  0  0  0  0  0  0  0  0
   37.9410   24.1720   38.1380 C   0  0  0  0  0  0  0  0  0  0  0  0
   38.8890   23.3140   38.5980 N   0  0  0  0  0  0  0  0  0  0  0  0
   39.8340   22.8170   37.7750 C   0  0  0  0  0  0  0  0  0  0  0  0
   39.8660   23.1540   36.4780 N   0  0  0  0  0  0  0  0  0  0  0  0
   37.1730   25.2220   36.5230 H   0  0  0  0  0  0  0  0  0  0  0  0
   37.1950   24.5530   38.8160 H   0  0  0  0  0  0  0  0  0  0  0  0
   40.6320   22.1210   38.0380 H   0  0  0  0  0  0  0  0  0  0  0  0
  1 14  1  0  0  0  0
  1  2  1  0  0  0  0
  3  1  1  0  0  0  0
  4  5  1  0  0  0  0
  5  6  1  0  0  0  0
  6  1  1  0  0  0  0
  6  7  2  0  0  0  0
  7  8  1  0  0  0  0
  9  7  1  0  0  0  0
 10  9  2  0  0  0  0
 11 10  1  0  0  0  0
 12  5  2  0  0  0  0
 12 10  1  0  0  0  0
 13 12  1  0  0  0  0
 14 15  1  0  0  0  0
 15 20  2  0  0  0  0
 15 16  1  0  0  0  0
 16 17  2  0  0  0  0
 17 18  1  0  0  0  0
 17 22  1  0  0  0  0
 19 23  1  0  0  0  0
 19 18  2  0  0  0  0
 20 19  1  0  0  0  0
 21 16  1  0  0  0  0
M  END
>  <minimizedAffinity>
-4.40196609

$$$$

 OpenBabel03262521523D

 23 24  0  0  0  0  0  0  0  0999 V2000
   38.1730   25.0170   35.4340 C   0  0  0  0  0  0  0  0  0  0  0  0
   38.0900   25.9260   36.0680 H   0  0  0  0  0  0  0  0  0  0  0  0
   37.1540   24.5730   35.4160 H   0  0  0  0  0  0  0  0  0  0  0  0
   37.7740   24.1540   38.3600 Cl  0  0  0  0  0  0  0  0  0  0  0  0
   39.0670   23.5580   37.3200 C   0  0  0  0  0  0  0  0  0  0  0  0
   39.1240   24.0460   36.0290 C   0  0  0  0  0  0  0  0  0  0  0  0
   40.1630   23.5500   35.2340 C   0  0  0  0  0  0  0  0  0  0  0  0
   40.2840   23.8780   34.1920 H   0  0  0  0  0  0  0  0  0  0  0  0
   41.0860   22.6320   35.6800 C   0  0  0  0  0  3  0  0  0  0  0  0
   41.0210   22.1510   36.9770 C   0  0  0  0  0  0  0  0  0  0  0  0
   42.1960   20.9770   37.5450 Cl  0  0  0  0  0  0  0  0  0  0  0  0
   39.9930   22.6340   37.7890 C   0  0  0  0  0  0  0  0  0  0  0  0
   39.9400   22.2590   38.8130 H   0  0  0  0  0  0  0  0  0  0  0  0
   38.5630   25.4800   33.7330 S   0  0  0  0  0  0  0  0  0  0  0  0
   37.3410   24.7320   32.6750 C   0  0  0  0  0  0  0  0  0  0  0  0
   37.3980   23.3310   32.6700 C   0  0  0  0  0  0  0  0  0  0  0  0
   36.4740   22.6200   31.8880 C   0  0  0  0  0  0  0  0  0  0  0  0
   35.5650   23.3290   31.1700 N   0  0  0  0  0  0  0  0  0  0  0  0
   35.5510   24.6770   31.2070 C   0  0  0  0  0  0  0  0  0  0  0  0
   36.4320   25.3560   31.9530 N   0  0  0  0  0  0  0  0  0  0  0  0
   38.0820   22.6630   33.1980 H   0  0  0  0  0  0  0  0  0  0  0  0
   36.4630   21.5430   31.8440 H   0  0  0  0  0  0  0  0  0  0  0  0
   34.8640   25.3400   30.6770 H   0  0  0  0  0  0  0  0  0  0  0  0
  1  6  1  0  0  0  0
  1  2  1  0  0  0  0
  3  1  1  0  0  0  0
  5 12  1  0  0  0  0
  5  4  1  0  0  0  0
  6  5  2  0  0  0  0
  7  9  2  0  0  0  0
  7  6  1  0  0  0  0
  8  7  1  0  0  0  0
  9 10  1  0  0  0  0
 10 11  1  0  0  0  0
 10 12  2  0  0  0  0
 12 13  1  0  0  0  0
 14  1  1  0  0  0  0
 15 14  1  0  0  0  0
 16 15  1  0  0  0  0
 16 21  1  0  0  0  0
 17 16  2  0  0  0  0
 18 19  2  0  0  0  0
 18 17  1  0  0  0  0
 19 20  1  0  0  0  0
 20 15  2  0  0  0  0
 22 17  1  0  0  0  0
 23 19  1  0  0  0  0
M  END
>  <minimizedAffinity>
-4.39420319

$$$$

 OpenBabel03262521523D

 23 24  0  0  0  0  0  0  0  0999 V2000
   37.7760   23.9080   33.1870 C   0  0  0  0  0  0  0  0  0  0  0  0
   37.8630   23.1740   32.3570 H   0  0  0  0  0  0  0  0  0  0  0  0
   37.0690   23.4530   33.9140 H   0  0  0  0  0  0  0  0  0  0  0  0
   35.5630   23.8460   31.0500 Cl  0  0  0  0  0  0  0  0  0  0  0  0
   36.2200   25.3240   31.7510 C   0  0  0  0  0  0  0  0  0  0  0  0
   37.2200   25.1940   32.6960 C   0  0  0  0  0  0  0  0  0  0  0  0
   37.7160   26.3870   33.2300 C   0  0  0  0  0  0  0  0  0  0  0  0
   38.5090   26.3810   33.9900 H   0  0  0  0  0  0  0  0  0  0  0  0
   37.2560   27.6310   32.8600 C   0  0  0  0  0  3  0  0  0  0  0  0
   36.2550   27.7510   31.9110 C   0  0  0  0  0  0  0  0  0  0  0  0
   35.6660   29.3370   31.4420 Cl  0  0  0  0  0  0  0  0  0  0  0  0
   35.7470   26.5720   31.3620 C   0  0  0  0  0  0  0  0  0  0  0  0
   34.9590   26.6620   30.6120 H   0  0  0  0  0  0  0  0  0  0  0  0
   39.3590   24.0700   34.0400 S   0  0  0  0  0  0  0  0  0  0  0  0
   39.0630   23.8210   35.7790 C   0  0  0  0  0  0  0  0  0  0  0  0
   40.0520   23.0460   36.4020 C   0  0  0  0  0  0  0  0  0  0  0  0
   39.9430   22.7930   37.7790 C   0  0  0  0  0  0  0  0  0  0  0  0
   38.8790   23.3140   38.4430 N   0  0  0  0  0  0  0  0  0  0  0  0
   37.9530   24.0520   37.7980 C   0  0  0  0  0  0  0  0  0  0  0  0
   38.0560   24.2960   36.4850 N   0  0  0  0  0  0  0  0  0  0  0  0
   40.9390   22.5770   35.9720 H   0  0  0  0  0  0  0  0  0  0  0  0
   40.6710   22.2080   38.3180 H   0  0  0  0  0  0  0  0  0  0  0  0
   37.0680   24.5200   38.2340 H   0  0  0  0  0  0  0  0  0  0  0  0
  1  3  1  0  0  0  0
  1 14  1  0  0  0  0
  2  1  1  0  0  0  0
  4  5  1  0  0  0  0
  5  6  1  0  0  0  0
  6  1  1  0  0  0  0
  6  7  2  0  0  0  0
  7  8  1  0  0  0  0
  9  7  1  0  0  0  0
 10  9  2  0  0  0  0
 11 10  1  0  0  0  0
 12  5  2  0  0  0  0
 12 10  1  0  0  0  0
 13 12  1  0  0  0  0
 14 15  1  0  0  0  0
 15 16  2  0  0  0  0
 15 20  1  0  0  0  0
 16 17  1  0  0  0  0
 17 22  1  0  0  0  0
 17 18  2  0  0  0  0
 19 23  1  0  0  0  0
 19 18  1  0  0  0  0
 20 19  2  0  0  0  0
 21 16  1  0  0  0  0
M  END
>  <minimizedAffinity>
-4.35932732

$$$$

 OpenBabel03262521523D

 23 24  0  0  0  0  0  0  0  0999 V2000
   38.1540   24.0250   32.5040 C   0  0  0  0  0  0  0  0  0  0  0  0
   38.8150   23.1770   32.2240 H   0  0  0  0  0  0  0  0  0  0  0  0
   38.6070   24.9240   32.0310 H   0  0  0  0  0  0  0  0  0  0  0  0
   38.1540   26.8820   33.6470 Cl  0  0  0  0  0  0  0  0  0  0  0  0
   38.1080   25.4210   34.6340 C   0  0  0  0  0  0  0  0  0  0  0  0
   38.1230   24.2050   33.9770 C   0  0  0  0  0  0  0  0  0  0  0  0
   38.0850   23.0690   34.7910 C   0  0  0  0  0  0  0  0  0  0  0  0
   38.0890   22.0600   34.3560 H   0  0  0  0  0  0  0  0  0  0  0  0
   38.0320   23.1250   36.1660 C   0  0  0  0  0  3  0  0  0  0  0  0
   38.0190   24.3480   36.8140 C   0  0  0  0  0  0  0  0  0  0  0  0
   37.9490   24.4190   38.5670 Cl  0  0  0  0  0  0  0  0  0  0  0  0
   38.0600   25.4950   36.0200 C   0  0  0  0  0  0  0  0  0  0  0  0
   38.0520   26.4620   36.5280 H   0  0  0  0  0  0  0  0  0  0  0  0
   36.5250   23.8150   31.7540 S   0  0  0  0  0  0  0  0  0  0  0  0
   36.2500   22.0680   31.5410 C   0  0  0  0  0  0  0  0  0  0  0  0
   35.1520   21.5890   32.2690 C   0  0  0  0  0  0  0  0  0  0  0  0
   34.8180   20.2280   32.1710 C   0  0  0  0  0  0  0  0  0  0  0  0
   35.5820   19.4390   31.3720 N   0  0  0  0  0  0  0  0  0  0  0  0
   36.6300   19.9470   30.6920 C   0  0  0  0  0  0  0  0  0  0  0  0
   36.9490   21.2450   30.7840 N   0  0  0  0  0  0  0  0  0  0  0  0
   34.4770   22.1240   32.9400 H   0  0  0  0  0  0  0  0  0  0  0  0
   33.9840   19.7990   32.7020 H   0  0  0  0  0  0  0  0  0  0  0  0
   37.3000   19.4060   30.0220 H   0  0  0  0  0  0  0  0  0  0  0  0
  1  6  1  0  0  0  0
  2  1  1  0  0  0  0
  3  1  1  0  0  0  0
  4  5  1  0  0  0  0
  5 12  1  0  0  0  0
  6  5  2  0  0  0  0
  6  7  1  0  0  0  0
  7  9  2  0  0  0  0
  8  7  1  0  0  0  0
  9 10  1  0  0  0  0
 10 11  1  0  0  0  0
 12 13  1  0  0  0  0
 12 10  2  0  0  0  0
 14  1  1  0  0  0  0
 15 14  1  0  0  0  0
 15 16  1  0  0  0  0
 16 21  1  0  0  0  0
 17 16  2  0  0  0  0
 17 22  1  0  0  0  0
 18 17  1  0  0  0  0
 19 20  1  0  0  0  0
 19 18  2  0  0  0  0
 20 15  2  0  0  0  0
 23 19  1  0  0  0  0
M  END
>  <minimizedAffinity>
-4.33124542

$$$$

 OpenBabel03262521523D

 23 24  0  0  0  0  0  0  0  0999 V2000
   36.9160   27.5690   34.8330 C   0  0  0  0  0  0  0  0  0  0  0  0
   36.0790   26.8700   35.0480 H   0  0  0  0  0  0  0  0  0  0  0  0
   36.6940   28.4880   35.4180 H   0  0  0  0  0  0  0  0  0  0  0  0
   34.7400   29.4020   33.6610 Cl  0  0  0  0  0  0  0  0  0  0  0  0
   36.0680   28.7180   32.7240 C   0  0  0  0  0  0  0  0  0  0  0  0
   36.9650   27.9020   33.3880 C   0  0  0  0  0  0  0  0  0  0  0  0
   38.0050   27.3790   32.6130 C   0  0  0  0  0  0  0  0  0  0  0  0
   38.7680   26.7250   33.0570 H   0  0  0  0  0  0  0  0  0  0  0  0
   38.1550   27.6430   31.2710 C   0  0  0  0  0  3  0  0  0  0  0  0
   37.2500   28.4600   30.6140 C   0  0  0  0  0  0  0  0  0  0  0  0
   37.4430   28.7990   28.9030 Cl  0  0  0  0  0  0  0  0  0  0  0  0
   36.2020   28.9910   31.3680 C   0  0  0  0  0  0  0  0  0  0  0  0
   35.4850   29.6340   30.8540 H   0  0  0  0  0  0  0  0  0  0  0  0
   38.4620   26.9040   35.4870 S   0  0  0  0  0  0  0  0  0  0  0  0
   38.1960   25.1820   35.8570 C   0  0  0  0  0  0  0  0  0  0  0  0
   38.3140   24.3510   34.7340 C   0  0  0  0  0  0  0  0  0  0  0  0
   38.1440   22.9660   34.8970 C   0  0  0  0  0  0  0  0  0  0  0  0
   37.8720   22.4990   36.1430 N   0  0  0  0  0  0  0  0  0  0  0  0
   37.7670   23.3390   37.1920 C   0  0  0  0  0  0  0  0  0  0  0  0
   37.9290   24.6600   37.0380 N   0  0  0  0  0  0  0  0  0  0  0  0
   38.5230   24.6140   33.6950 H   0  0  0  0  0  0  0  0  0  0  0  0
   38.2260   22.2740   34.0750 H   0  0  0  0  0  0  0  0  0  0  0  0
   37.5590   23.0690   38.2290 H   0  0  0  0  0  0  0  0  0  0  0  0
  1  2  1  0  0  0  0
  1  3  1  0  0  0  0
  1 14  1  0  0  0  0
  5  6  1  0  0  0  0
  5  4  1  0  0  0  0
  6  1  1  0  0  0  0
  7  8  1  0  0  0  0
  7  6  2  0  0  0  0
  9  7  1  0  0  0  0
 10  9  2  0  0  0  0
 10 12  1  0  0  0  0
 11 10  1  0  0  0  0
 12  5  2  0  0  0  0
 13 12  1  0  0  0  0
 14 15  1  0  0  0  0
 15 20  1  0  0  0  0
 16 17  1  0  0  0  0
 16 15  2  0  0  0  0
 17 18  2  0  0  0  0
 18 19  1  0  0  0  0
 19 23  1  0  0  0  0
 20 19  2  0  0  0  0
 21 16  1  0  0  0  0
 22 17  1  0  0  0  0
M  END
>  <minimizedAffinity>
-4.25729847

$$$$

 OpenBabel03262521523D

 23 24  0  0  0  0  0  0  0  0999 V2000
   35.2510   28.7990   32.9510 C   0  0  0  0  0  0  0  0  0  0  0  0
   34.3920   28.3400   33.4860 H   0  0  0  0  0  0  0  0  0  0  0  0
   35.0680   28.6030   31.8720 H   0  0  0  0  0  0  0  0  0  0  0  0
   37.1950   27.8430   30.7670 Cl  0  0  0  0  0  0  0  0  0  0  0  0
   37.5000   27.6950   32.4970 C   0  0  0  0  0  0  0  0  0  0  0  0
   36.5270   28.1620   33.3600 C   0  0  0  0  0  0  0  0  0  0  0  0
   36.8040   28.0290   34.7240 C   0  0  0  0  0  0  0  0  0  0  0  0
   36.0910   28.3770   35.4830 H   0  0  0  0  0  0  0  0  0  0  0  0
   37.9670   27.4740   35.2100 C   0  0  0  0  0  3  0  0  0  0  0  0
   38.9350   27.0070   34.3360 C   0  0  0  0  0  0  0  0  0  0  0  0
   40.4180   26.3010   34.9560 Cl  0  0  0  0  0  0  0  0  0  0  0  0
   38.6770   27.1270   32.9700 C   0  0  0  0  0  0  0  0  0  0  0  0
   39.4370   26.7580   32.2780 H   0  0  0  0  0  0  0  0  0  0  0  0
   35.2230   30.5920   33.1600 S   0  0  0  0  0  0  0  0  0  0  0  0
   34.5010   30.9400   34.7510 C   0  0  0  0  0  0  0  0  0  0  0  0
   35.3430   31.6850   35.5890 C   0  0  0  0  0  0  0  0  0  0  0  0
   34.8820   32.0410   36.8660 C   0  0  0  0  0  0  0  0  0  0  0  0
   33.6350   31.6420   37.2290 N   0  0  0  0  0  0  0  0  0  0  0  0
   32.8630   30.9250   36.3870 C   0  0  0  0  0  0  0  0  0  0  0  0
   33.3020   30.5860   35.1680 N   0  0  0  0  0  0  0  0  0  0  0  0
   36.3550   32.0520   35.4060 H   0  0  0  0  0  0  0  0  0  0  0  0
   35.4780   32.6150   37.5560 H   0  0  0  0  0  0  0  0  0  0  0  0
   31.8510   30.5620   36.5750 H   0  0  0  0  0  0  0  0  0  0  0  0
  1 14  1  0  0  0  0
  1  6  1  0  0  0  0
  1  2  1  0  0  0  0
  3  1  1  0  0  0  0
  4  5  1  0  0  0  0
  5 12  2  0  0  0  0
  5  6  1  0  0  0  0
  6  7  2  0  0  0  0
  7  9  1  0  0  0  0
  7  8  1  0  0  0  0
 10 11  1  0  0  0  0
 10  9  2  0  0  0  0
 12 10  1  0  0  0  0
 13 12  1  0  0  0  0
 14 15  1  0  0  0  0
 15 20  2  0  0  0  0
 15 16  1  0  0  0  0
 16 17  2  0  0  0  0
 17 18  1  0  0  0  0
 17 22  1  0  0  0  0
 19 23  1  0  0  0  0
 19 18  2  0  0  0  0
 20 19  1  0  0  0  0
 21 16  1  0  0  0  0
M  END
>  <minimizedAffinity>
-4.2486763

$$$$
