
 OpenBabel03262523433D

 29 31  0  0  0  0  0  0  0  0999 V2000
   38.6270   33.0750   49.6360 Cl  0  0  0  0  0  0  0  0  0  0  0  0
   38.6680   32.3420   48.0620 C   0  0  0  0  0  0  0  0  0  0  0  0
   37.9720   31.1790   47.8060 C   0  0  0  0  0  0  0  0  0  0  0  0
   38.0450   30.6430   46.5280 C   0  0  0  0  0  0  0  0  0  0  0  0
   38.7950   31.2540   45.5350 C   0  0  0  0  0  0  0  0  0  0  0  0
   39.4810   32.4240   45.8310 C   0  0  0  0  0  0  0  0  0  0  0  0
   40.3910   33.1120   44.5150 Cl  0  0  0  0  0  0  0  0  0  0  0  0
   39.4240   32.9720   47.0830 C   0  0  0  0  0  0  0  0  0  0  0  0
   37.4810   29.7360   46.3920 H   0  0  0  0  0  0  0  0  0  0  0  0
   39.9770   33.8870   47.2710 H   0  0  0  0  0  0  0  0  0  0  0  0
   36.8660   32.4990   43.6050 Cl  0  0  0  0  0  0  0  0  0  0  0  0
   37.8770   31.0880   43.3370 C   0  0  0  0  0  0  0  0  0  0  0  0
   38.7530   30.5480   44.2570 C   0  0  0  0  0  0  0  0  0  0  0  0
   39.4960   29.4290   43.9230 C   0  0  0  0  0  0  0  0  0  0  0  0
   40.1640   29.0550   44.6870 H   0  0  0  0  0  0  0  0  0  0  0  0
   39.3470   28.8760   42.6770 C   0  0  0  0  0  0  0  0  0  0  0  0
   38.4740   29.3910   41.7220 C   0  0  0  0  0  0  0  0  0  0  0  0
   38.3490   28.6160   40.1500 Cl  0  0  0  0  0  0  0  0  0  0  0  0
   37.7330   30.5230   42.0800 C   0  0  0  0  0  0  0  0  0  0  0  0
   37.0650   30.8870   41.3000 H   0  0  0  0  0  0  0  0  0  0  0  0
   37.0830   29.3990   51.0310 C   0  0  0  0  0  0  0  0  0  0  0  0
   37.8100   29.9540   49.9750 C   0  0  0  0  0  0  0  0  0  0  0  0
   37.2080   30.6000   48.9070 C   0  0  0  0  0  0  0  0  0  0  0  0
   35.8470   30.6650   48.9490 N   0  0  0  0  0  0  0  0  0  0  0  0
   35.1520   30.1320   49.9640 C   0  0  0  0  0  0  0  0  0  0  0  0
   35.7430   29.5130   50.9830 N   0  0  0  0  0  0  0  0  0  0  0  0
   37.5690   28.8960   51.8560 H   0  0  0  0  0  0  0  0  0  0  0  0
   38.9100   29.8770   49.9830 H   0  0  0  0  0  0  0  0  0  0  0  0
   34.0770   30.2890   49.8100 H   0  0  0  0  0  0  0  0  0  0  0  0
  2  1  1  0  0  0  0
  3  2  1  0  0  0  0
  3 23  1  0  0  0  0
  4  3  2  0  0  0  0
  5  6  2  0  0  0  0
  5  4  1  0  0  0  0
  6  8  1  0  0  0  0
  7  6  1  0  0  0  0
  8 10  1  0  0  0  0
  8  2  2  0  0  0  0
  9  4  1  0  0  0  0
 12 11  1  0  0  0  0
 12 13  1  0  0  0  0
 13  5  1  0  0  0  0
 14 13  2  0  0  0  0
 14 15  1  0  0  0  0
 16 14  1  0  0  0  0
 17 19  1  0  0  0  0
 17 16  2  0  0  0  0
 18 17  1  0  0  0  0
 19 12  2  0  0  0  0
 20 19  1  0  0  0  0
 21 27  1  0  0  0  0
 22 28  1  0  0  0  0
 22 21  2  0  0  0  0
 23 24  2  0  0  0  0
 23 22  1  0  0  0  0
 24 25  1  0  0  0  0
 25 26  2  0  0  0  0
 26 21  1  0  0  0  0
 29 25  1  0  0  0  0
M  END
>  <minimizedAffinity>
-6.42034626

>  <minimizedRMSD>
1.04265177

$$$$
