
     RDKit          3D

 43 46  0  0  0  0  0  0  0  0999 V2000
   36.4116   29.7697   48.6654 N   0  0  0  0  0  0  0  0  0  0  0  0
   37.5381   30.5401   48.2305 C   0  0  0  0  0  0  0  0  0  0  0  0
   38.0363   31.1541   49.5313 C   0  0  2  0  0  0  0  0  0  0  0  0
   37.0187   30.7676   50.6033 C   0  0  0  0  0  0  0  0  0  0  0  0
   36.6645   29.3952   50.0542 C   0  0  0  0  0  0  0  0  0  0  0  0
   35.2499   29.4227   47.8992 C   0  0  0  0  0  0  0  0  0  0  0  0
   35.1172   30.0186   46.6453 C   0  0  0  0  0  0  0  0  0  0  0  0
   33.9873   29.6872   45.8888 C   0  0  0  0  0  0  0  0  0  0  0  0
   33.0920   28.7961   46.4425 N   0  0  0  0  0  0  0  0  0  0  0  0
   33.2610   28.2503   47.6484 C   0  0  0  0  0  0  0  0  0  0  0  0
   34.3408   28.5658   48.3735 N   0  0  0  0  0  0  0  0  0  0  0  0
   32.0684   27.1045   48.3106 S   0  0  0  0  0  0  0  0  0  0  0  0
   30.5745   27.7175   48.8025 C   0  0  0  0  0  0  0  0  0  0  0  0
   29.8062   27.8622   49.9205 C   0  0  0  0  0  0  0  0  0  0  0  0
   28.5811   28.4336   49.9610 C   0  0  0  0  0  0  0  0  0  0  0  0
   28.1185   28.9110   48.6373 C   0  0  0  0  0  0  0  0  0  0  0  0
   29.4750   28.4919   47.5015 S   0  0  0  0  0  0  0  0  0  0  0  0
   38.1910   32.6461   49.4291 C   0  0  0  0  0  0  0  0  0  0  0  0
   37.0423   33.2032   49.9561 F   0  0  0  0  0  0  0  0  0  0  0  0
   38.2008   32.9593   48.0948 F   0  0  0  0  0  0  0  0  0  0  0  0
   39.3177   33.1165   50.0482 F   0  0  0  0  0  0  0  0  0  0  0  0
   37.2517   31.3574   47.5144 H   0  0  0  0  0  0  0  0  0  0  0  0
   38.3547   29.9093   47.8063 H   0  0  0  0  0  0  0  0  0  0  0  0
   38.9982   30.6858   49.8534 H   0  0  0  0  0  0  0  0  0  0  0  0
   36.1567   31.4340   50.5380 H   0  0  0  0  0  0  0  0  0  0  0  0
   37.4715   30.7187   51.5999 H   0  0  0  0  0  0  0  0  0  0  0  0
   35.7351   29.0401   50.5280 H   0  0  0  0  0  0  0  0  0  0  0  0
   37.5207   28.7232   50.1538 H   0  0  0  0  0  0  0  0  0  0  0  0
   35.8177   30.7171   46.2093 H   0  0  0  0  0  0  0  0  0  0  0  0
   33.7958   30.0901   44.9180 H   0  0  0  0  0  0  0  0  0  0  0  0
   30.3091   27.4556   50.7843 H   0  0  0  0  0  0  0  0  0  0  0  0
   27.9807   28.5454   50.8414 H   0  0  0  0  0  0  0  0  0  0  0  0
   26.0939   28.6509   50.7931 Cl  0  0  0  0  0  0  0  0  0  0  0  0
   25.9009   29.4799   49.2650 C   0  0  0  0  0  0  0  0  0  0  0  0
   26.9040   29.5462   48.3240 C   0  0  0  0  0  0  0  0  0  0  0  0
   26.8141   30.1811   47.1071 C   0  0  0  0  0  0  0  0  0  0  0  0
   27.6288   30.2031   46.4074 H   0  0  0  0  0  0  0  0  0  0  0  0
   25.5984   30.8099   46.8075 C   0  0  0  0  0  0  0  0  0  0  0  0
   24.5453   30.7731   47.7290 C   0  0  0  0  0  0  0  0  0  0  0  0
   23.0125   31.5483   47.3872 Cl  0  0  0  0  0  0  0  0  0  0  0  0
   24.6892   30.1123   48.9550 C   0  0  0  0  0  0  0  0  0  0  0  0
   23.8660   30.0932   49.6557 H   0  0  0  0  0  0  0  0  0  0  0  0
   25.4676   31.3290   45.8587 H   0  0  0  0  0  0  0  0  0  0  0  0
  1  5  1  0
  2  1  1  0
  2  3  1  0
  3  4  1  0
  5  4  1  0
  6 11  1  0
  6  1  1  0
  7  6  2  0
  8  9  2  0
  8  7  1  0
  9 10  1  0
 10 12  1  0
 10 11  2  0
 12 13  1  0
 13 14  2  0
 14 15  1  0
 16 15  2  0
 17 16  1  0
 17 13  1  0
 18  3  1  0
 18 19  1  0
 18 21  1  0
 20 18  1  0
  2 22  1  0
  2 23  1  0
  3 24  1  1
  4 25  1  0
  4 26  1  0
  5 27  1  0
  5 28  1  0
  7 29  1  0
  8 30  1  0
 14 31  1  0
 15 32  1  0
 33 34  1  0
 34 35  2  0
 35 36  1  0
 36 37  1  0
 36 38  2  0
 38 39  1  0
 39 40  1  0
 39 41  2  0
 41 42  1  0
 41 34  1  0
 38 43  1  0
 16 35  1  0
M  ISO  8  22  13  23  13  24  13  25  13  26  13  27  13  28  13  29  14
M  ISO  5  30  14  31  14  32  14  37  16  42  15
M  END
>  <DihAtoms>  (1) 
14,15,34,33

>  <DihDeg>  (1) 
-179.99877268906286

$$$$
