
 OpenBabel03272508023D

 29 31  0  0  0  0  0  0  0  0999 V2000
   38.6510   30.6350   45.4850 C   0  0  0  0  0  0  0  0  0  0  0  0
   39.8990   31.1870   45.5940 C   0  0  0  0  0  0  0  0  0  0  0  0
   40.6110   30.9690   44.4140 C   0  0  0  0  0  0  0  0  0  0  0  0
   39.7340   30.2720   43.6200 N   0  0  0  0  0  0  0  0  0  0  0  0
   38.6060   30.0870   44.2550 N   0  0  0  0  0  0  0  0  0  0  0  0
   40.2200   31.7020   46.4910 H   0  0  0  0  0  0  0  0  0  0  0  0
   41.6250   31.3250   44.2880 H   0  0  0  0  0  0  0  0  0  0  0  0
   39.5370   27.3320   43.0630 Cl  0  0  0  0  0  0  0  0  0  0  0  0
   40.1090   28.5550   41.9550 C   0  0  0  0  0  0  0  0  0  0  0  0
   40.1570   29.8850   42.3180 C   0  0  0  0  0  0  0  0  0  0  0  0
   40.6180   30.8110   41.4030 C   0  0  0  0  0  0  0  0  0  0  0  0
   40.6280   31.8300   41.7580 H   0  0  0  0  0  0  0  0  0  0  0  0
   41.0460   30.4890   40.1150 C   0  0  0  0  0  3  0  0  0  0  0  0
   40.9920   29.1670   39.7690 C   0  0  0  0  0  0  0  0  0  0  0  0
   41.5170   28.7190   38.1690 Cl  0  0  0  0  0  0  0  0  0  0  0  0
   40.5350   28.2240   40.6670 C   0  0  0  0  0  0  0  0  0  0  0  0
   40.5220   27.2080   40.3240 H   0  0  0  0  0  0  0  0  0  0  0  0
   37.5830   30.6330   46.4870 C   0  0  0  0  0  0  0  0  0  0  0  0
   37.9140   31.0310   47.8090 C   0  0  0  0  0  0  0  0  0  0  0  0
   36.9120   31.0350   48.7750 C   0  0  0  0  0  0  0  0  0  0  0  0
   35.6720   30.6560   48.3890 N   0  0  0  0  0  0  0  0  0  0  0  0
   35.3700   30.2790   47.1250 C   0  0  0  0  0  0  0  0  0  0  0  0
   36.3410   30.2760   46.1950 N   0  0  0  0  0  0  0  0  0  0  0  0
   38.9430   31.3160   48.0110 H   0  0  0  0  0  0  0  0  0  0  0  0
   34.3530   29.9910   46.9020 H   0  0  0  0  0  0  0  0  0  0  0  0
   37.2530   31.4500   50.1630 C   0  0  0  0  0  0  0  0  0  0  0  0
   36.6370   32.6790   50.3490 F   0  0  0  0  0  0  0  0  0  0  0  0
   36.7660   30.5650   51.1090 F   0  0  0  0  0  0  0  0  0  0  0  0
   38.6170   31.6330   50.3370 F   0  0  0  0  0  0  0  0  0  0  0  0
  1  2  1  0  0  0  0
  1 18  1  0  0  0  0
  2  6  1  0  0  0  0
  3  2  2  0  0  0  0
  4  5  1  0  0  0  0
  4  3  1  0  0  0  0
  5  1  2  0  0  0  0
  7  3  1  0  0  0  0
  9 10  1  0  0  0  0
  9  8  1  0  0  0  0
 10  4  1  0  0  0  0
 11 12  1  0  0  0  0
 11 10  2  0  0  0  0
 13 11  1  0  0  0  0
 14 13  2  0  0  0  0
 14 16  1  0  0  0  0
 15 14  1  0  0  0  0
 16  9  2  0  0  0  0
 17 16  1  0  0  0  0
 18 19  1  0  0  0  0
 19 24  1  0  0  0  0
 19 20  2  0  0  0  0
 20 26  1  0  0  0  0
 21 20  1  0  0  0  0
 22 21  2  0  0  0  0
 23 18  2  0  0  0  0
 23 22  1  0  0  0  0
 25 22  1  0  0  0  0
 26 29  1  0  0  0  0
 26 27  1  0  0  0  0
 26 28  1  0  0  0  0
M  END
>  <minimizedAffinity>
-6.06321812

>  <minimizedRMSD>
1.93826962

$$$$
