
 OpenBabel03272501133D

 29 31  0  0  1  0  0  0  0  0999 V2000
   36.0250   30.4930   49.7670 C   0  0  1  0  0  0  0  0  0  0  0  0
   35.7990   29.1300   49.3380 C   0  0  1  0  0  0  0  0  0  0  0  0
   36.5740   29.3320   50.6000 C   0  0  0  0  0  0  0  0  0  0  0  0
   35.3020   31.1530   50.3120 H   0  0  0  0  0  0  0  0  0  0  0  0
   36.4620   28.7820   48.4880 H   0  0  0  0  0  0  0  0  0  0  0  0
   37.6610   29.1690   50.6300 H   0  0  0  0  0  0  0  0  0  0  0  0
   36.0670   29.1830   51.5700 H   0  0  0  0  0  0  0  0  0  0  0  0
   37.1380   31.3270   49.1520 C   0  0  0  0  0  0  0  0  0  0  0  0
   37.3610   32.5650   49.7580 C   0  0  0  0  0  0  0  0  0  0  0  0
   38.3730   33.3300   49.1730 C   0  0  0  0  0  0  0  0  0  0  0  0
   39.0620   32.8550   48.0910 N   0  0  0  0  0  0  0  0  0  0  0  0
   38.7970   31.6380   47.5440 C   0  0  0  0  0  0  0  0  0  0  0  0
   37.8140   30.8620   48.0880 N   0  0  0  0  0  0  0  0  0  0  0  0
   36.7840   32.8770   50.6060 H   0  0  0  0  0  0  0  0  0  0  0  0
   38.5900   34.2990   49.6030 H   0  0  0  0  0  0  0  0  0  0  0  0
   39.3670   31.3050   46.6900 H   0  0  0  0  0  0  0  0  0  0  0  0
   34.3840   28.6070   49.3620 C   0  0  0  0  0  0  0  0  0  0  0  0
   34.3220   27.8750   50.1920 H   0  0  0  0  0  0  0  0  0  0  0  0
   33.6810   29.4410   49.5890 H   0  0  0  0  0  0  0  0  0  0  0  0
   33.7170   30.4770   47.1200 Cl  0  0  0  0  0  0  0  0  0  0  0  0
   33.7160   28.7250   47.0040 C   0  0  0  0  0  0  0  0  0  0  0  0
   34.0360   27.9350   48.0840 C   0  0  0  0  0  0  0  0  0  0  0  0
   34.0310   26.5560   47.9760 C   0  0  0  0  0  0  0  0  0  0  0  0
   34.2780   25.9340   48.8110 H   0  0  0  0  0  0  0  0  0  0  0  0
   33.6910   26.0130   46.7370 C   0  0  0  0  0  0  0  0  0  0  0  0
   33.3640   26.7910   45.6310 C   0  0  0  0  0  0  0  0  0  0  0  0
   32.9420   26.0670   44.0950 Cl  0  0  0  0  0  0  0  0  0  0  0  0
   33.3850   28.1710   45.7950 C   0  0  0  0  0  0  0  0  0  0  0  0
   33.1240   28.7790   44.9150 H   0  0  0  0  0  0  0  0  0  0  0  0
  1  4  1  1  0  0  0
  1  3  1  0  0  0  0
  2  5  1  6  0  0  0
  2 17  1  0  0  0  0
  2  1  1  0  0  0  0
  2  3  1  0  0  0  0
  3  6  1  0  0  0  0
  3  7  1  0  0  0  0
  8  9  1  0  0  0  0
  8  1  1  0  0  0  0
  9 14  1  0  0  0  0
 10 15  1  0  0  0  0
 10  9  2  0  0  0  0
 11 10  1  0  0  0  0
 12 13  1  0  0  0  0
 12 11  2  0  0  0  0
 13  8  2  0  0  0  0
 16 12  1  0  0  0  0
 17 19  1  0  0  0  0
 17 18  1  0  0  0  0
 21 20  1  0  0  0  0
 21 22  1  0  0  0  0
 22 17  1  0  0  0  0
 23 22  2  0  0  0  0
 23 24  1  0  0  0  0
 25 23  1  0  0  0  0
 26 28  1  0  0  0  0
 26 25  2  0  0  0  0
 27 26  1  0  0  0  0
 28 21  2  0  0  0  0
 29 28  1  0  0  0  0
M  END
>  <minimizedAffinity>
-5.46291256

>  <minimizedRMSD>
2.59452319

$$$$
