
 OpenBabel03272510273D

 46 50  0  0  1  0  0  0  0  0999 V2000
   39.3900   33.5200   43.3260 O   0  0  0  0  0  0  0  0  0  0  0  0
   36.1480   30.2290   46.9870 C   0  0  0  0  0  0  0  0  0  0  0  0
   37.0200   30.7410   47.9310 C   0  0  0  0  0  0  0  0  0  0  0  0
   38.0340   31.6270   47.5490 C   0  0  0  0  0  0  0  0  0  0  0  0
   38.0910   31.9390   46.1940 C   0  0  0  0  0  0  0  0  0  0  0  0
   38.9950   32.7750   45.5760 N   0  0  0  0  0  0  0  0  0  0  0  0
   38.6810   32.7750   44.2740 C   0  0  0  0  0  0  0  0  0  0  0  0
   37.6450   31.9930   44.0740 N   0  0  0  0  0  0  0  0  0  0  0  0
   37.2460   31.4520   45.2370 C   0  0  0  0  0  0  0  0  0  0  0  0
   36.2450   30.5720   45.6440 C   0  0  0  0  0  0  0  0  0  0  0  0
   35.3410   29.5370   47.2240 H   0  0  0  0  0  0  0  0  0  0  0  0
   38.7220   32.0350   48.2750 H   0  0  0  0  0  0  0  0  0  0  0  0
   39.7690   33.2950   46.0610 H   0  0  0  0  0  0  0  0  0  0  0  0
   35.5720   30.1820   44.8920 H   0  0  0  0  0  0  0  0  0  0  0  0
   37.4710   30.1100   51.5990 C   0  0  0  0  0  0  0  0  0  0  0  0
   37.7680   30.5650   50.3220 C   0  0  0  0  0  0  0  0  0  0  0  0
   36.8550   30.3360   49.3110 C   0  0  0  0  0  0  0  0  0  0  0  0
   35.7000   29.6690   49.6350 N   0  0  0  0  0  0  0  0  0  0  0  0
   35.4320   29.2370   50.8830 C   0  0  0  0  0  0  0  0  0  0  0  0
   36.3150   29.4590   51.8480 N   0  0  0  0  0  0  0  0  0  0  0  0
   38.2000   30.2970   52.3870 H   0  0  0  0  0  0  0  0  0  0  0  0
   38.6750   31.0870   50.0730 H   0  0  0  0  0  0  0  0  0  0  0  0
   34.4910   28.7230   51.0200 H   0  0  0  0  0  0  0  0  0  0  0  0
   39.4010   31.5420   42.1370 N   0  0  0  0  0  0  0  0  0  0  0  0
   39.4190   33.0020   42.0040 C   0  0  1  0  0  0  0  0  0  0  0  0
   38.2280   33.4090   41.2690 C   0  0  0  0  0  0  0  0  0  0  0  0
   38.3100   32.9080   39.9630 O   0  0  0  0  0  0  0  0  0  0  0  0
   38.4460   31.5370   39.8850 C   0  0  0  0  0  0  0  0  0  0  0  0
   39.5510   31.0340   40.8090 C   0  0  2  0  0  0  0  0  0  0  0  0
   38.4740   31.2020   42.4460 H   0  0  0  0  0  0  0  0  0  0  0  0
   40.3300   33.2290   41.4550 H   0  0  0  0  0  0  0  0  0  0  0  0
   37.2320   33.1820   41.5480 H   0  0  0  0  0  0  0  0  0  0  0  0
   38.2780   34.5320   41.1310 H   0  0  0  0  0  0  0  0  0  0  0  0
   37.5030   31.0180   40.1260 H   0  0  0  0  0  0  0  0  0  0  0  0
   38.7290   31.3010   38.8470 H   0  0  0  0  0  0  0  0  0  0  0  0
   40.5480   31.3880   40.3980 H   0  0  0  0  0  0  0  0  0  0  0  0
   41.8130   28.9390   41.9520 Cl  0  0  0  0  0  0  0  0  0  0  0  0
   40.3060   28.5160   41.1810 C   0  0  0  0  0  0  0  0  0  0  0  0
   39.5360   29.5750   40.7770 C   0  0  0  0  0  0  0  0  0  0  0  0
   38.3560   29.1100   40.1580 C   0  0  0  0  0  0  0  0  0  0  0  0
   37.5690   29.7590   39.7440 H   0  0  0  0  0  0  0  0  0  0  0  0
   38.0000   27.7720   39.9720 C   0  0  0  0  0  3  0  0  0  0  0  0
   38.8520   26.8110   40.4210 C   0  0  0  0  0  0  0  0  0  0  0  0
   38.5110   25.1060   40.2440 Cl  0  0  0  0  0  0  0  0  0  0  0  0
   40.0120   27.1890   41.0280 C   0  0  0  0  0  0  0  0  0  0  0  0
   40.7040   26.4660   41.3920 H   0  0  0  0  0  0  0  0  0  0  0  0
  1  7  1  0  0  0  0
  2 11  1  0  0  0  0
  2  3  1  0  0  0  0
  3 17  1  0  0  0  0
  4  3  2  0  0  0  0
  4 12  1  0  0  0  0
  5  4  1  0  0  0  0
  6 13  1  0  0  0  0
  6  5  1  0  0  0  0
  7  6  1  0  0  0  0
  8  7  2  0  0  0  0
  8  9  1  0  0  0  0
  9 10  1  0  0  0  0
  9  5  2  0  0  0  0
 10  2  2  0  0  0  0
 14 10  1  0  0  0  0
 15 20  1  0  0  0  0
 15 21  1  0  0  0  0
 16 15  2  0  0  0  0
 17 18  2  0  0  0  0
 17 16  1  0  0  0  0
 18 19  1  0  0  0  0
 19 23  1  0  0  0  0
 19 20  2  0  0  0  0
 22 16  1  0  0  0  0
 24 30  1  0  0  0  0
 25 31  1  6  0  0  0
 25 24  1  0  0  0  0
 25  1  1  0  0  0  0
 26 32  1  0  0  0  0
 26 25  1  0  0  0  0
 27 26  1  0  0  0  0
 28 27  1  0  0  0  0
 28 34  1  0  0  0  0
 28 29  1  0  0  0  0
 29 36  1  6  0  0  0
 29 24  1  0  0  0  0
 33 26  1  0  0  0  0
 35 28  1  0  0  0  0
 38 37  1  0  0  0  0
 39 29  1  0  0  0  0
 39 38  2  0  0  0  0
 40 39  1  0  0  0  0
 41 40  1  0  0  0  0
 42 40  2  0  0  0  0
 42 43  1  0  0  0  0
 43 45  2  0  0  0  0
 44 43  1  0  0  0  0
 45 38  1  0  0  0  0
 45 46  1  0  0  0  0
M  END
>  <minimizedAffinity>
-6.23370934

>  <minimizedRMSD>
0.890742719

$$$$
