
 OpenBabel03272500003D

 30 32  0  0  0  0  0  0  0  0999 V2000
   37.4200   33.3790   49.4830 C   0  0  0  0  0  0  0  0  0  0  0  0
   38.4670   33.5110   48.5500 C   0  0  0  0  0  0  0  0  0  0  0  0
   38.6980   32.4550   47.6860 C   0  0  0  0  0  0  0  0  0  0  0  0
   37.9000   31.3530   47.7900 N   0  0  0  0  0  0  0  0  0  0  0  0
   36.9050   31.2530   48.6910 C   0  0  0  0  0  0  0  0  0  0  0  0
   36.6520   32.2820   49.5590 N   0  0  0  0  0  0  0  0  0  0  0  0
   37.1890   34.1680   50.1860 H   0  0  0  0  0  0  0  0  0  0  0  0
   39.4990   32.5390   46.9630 H   0  0  0  0  0  0  0  0  0  0  0  0
   37.2420   29.6970   51.3850 Br  0  0  0  0  0  0  0  0  0  0  0  0
   36.0980   29.2740   49.9190 C   0  0  0  0  0  0  0  0  0  0  0  0
   36.0650   30.0720   48.7870 C   0  0  0  0  0  0  0  0  0  0  0  0
   35.2090   29.6930   47.7730 C   0  0  0  0  0  0  0  0  0  0  0  0
   34.3980   28.5760   47.8340 C   0  0  0  0  0  0  0  0  0  0  0  0
   34.4650   27.8040   48.9930 C   0  0  0  0  0  0  0  0  0  0  0  0
   35.3190   28.1670   50.0260 C   0  0  0  0  0  0  0  0  0  0  0  0
   35.2180   30.3440   46.9130 H   0  0  0  0  0  0  0  0  0  0  0  0
   33.7620   28.3700   46.9790 H   0  0  0  0  0  0  0  0  0  0  0  0
   33.8300   26.9290   49.0410 H   0  0  0  0  0  0  0  0  0  0  0  0
   35.3470   27.5430   50.9130 H   0  0  0  0  0  0  0  0  0  0  0  0
   39.1940   34.6800   48.5580 O   0  0  0  0  0  0  0  0  0  0  0  0
   38.8540   34.8060   51.4720 Cl  0  0  0  0  0  0  0  0  0  0  0  0
   40.3460   34.7280   50.5590 C   0  0  0  0  0  0  0  0  0  0  0  0
   40.4380   34.6710   49.1750 C   0  0  0  0  0  0  0  0  0  0  0  0
   41.6750   34.6140   48.5660 C   0  0  0  0  0  0  0  0  0  0  0  0
   41.6500   34.5710   47.4870 H   0  0  0  0  0  0  0  0  0  0  0  0
   42.8120   34.6140   49.3570 C   0  0  0  0  0  3  0  0  0  0  0  0
   42.7500   34.6710   50.7310 C   0  0  0  0  0  0  0  0  0  0  0  0
   44.1930   34.6700   51.6810 Cl  0  0  0  0  0  0  0  0  0  0  0  0
   41.4970   34.7290   51.3260 C   0  0  0  0  0  0  0  0  0  0  0  0
   41.4890   34.7720   52.4160 H   0  0  0  0  0  0  0  0  0  0  0  0
  1  6  1  0  0  0  0
  1  7  1  0  0  0  0
  2 20  1  0  0  0  0
  2  1  2  0  0  0  0
  3  4  2  0  0  0  0
  3  2  1  0  0  0  0
  4  5  1  0  0  0  0
  5 11  1  0  0  0  0
  5  6  2  0  0  0  0
  8  3  1  0  0  0  0
 10 15  1  0  0  0  0
 10  9  1  0  0  0  0
 11 10  2  0  0  0  0
 12 13  2  0  0  0  0
 12 11  1  0  0  0  0
 13 14  1  0  0  0  0
 14 18  1  0  0  0  0
 14 15  2  0  0  0  0
 15 19  1  0  0  0  0
 16 12  1  0  0  0  0
 17 13  1  0  0  0  0
 20 23  1  0  0  0  0
 22 29  1  0  0  0  0
 22 21  1  0  0  0  0
 23 22  2  0  0  0  0
 24 23  1  0  0  0  0
 24 26  2  0  0  0  0
 25 24  1  0  0  0  0
 26 27  1  0  0  0  0
 27 29  2  0  0  0  0
 27 28  1  0  0  0  0
 29 30  1  0  0  0  0
M  END
>  <minimizedAffinity>
7.45056438

>  <minimizedRMSD>
0.767715454

$$$$
