REMARK  Name = 
REMARK  4 active torsions:
REMARK  status: ('A' for Active; 'I' for Inactive)
REMARK    1  A    between atoms: C_2  and  C_12
REMARK    2  A    between atoms: C_6  and  O_16
REMARK    3  A    between atoms: O_16  and  C_18
REMARK    4  A    between atoms: C_22  and  C_39
REMARK                            x       y       z     vdW  Elec       q    Type
REMARK                         _______ _______ _______ _____ _____    ______ ____
ROOT
ATOM      1  O   UNL     1      39.443  33.570  43.227  0.00  0.00    +0.000 OA
ENDROOT
BRANCH   1   7
ATOM      2  C   UNL     1      36.243  30.205  46.858  0.00  0.00    +0.000 A 
ATOM      3  C   UNL     1      37.078  30.757  47.814  0.00  0.00    +0.000 A 
ATOM      4  C   UNL     1      38.068  31.674  47.442  0.00  0.00    +0.000 A 
ATOM      5  C   UNL     1      38.142  31.974  46.086  0.00  0.00    +0.000 A 
ATOM      6  N   UNL     1      39.029  32.835  45.477  0.00  0.00    +0.000 N 
ATOM      7  C   UNL     1      38.741  32.811  44.169  0.00  0.00    +0.000 A 
ATOM      8  N   UNL     1      37.737  31.991  43.957  0.00  0.00    +0.000 NA
ATOM      9  C   UNL     1      37.334  31.448  45.117  0.00  0.00    +0.000 A 
ATOM     10  C   UNL     1      36.356  30.538  45.514  0.00  0.00    +0.000 A 
ATOM     11  H   UNL     1      35.456  29.488  47.086  0.00  0.00    +0.000 HD
ATOM     12  H   UNL     1      38.727  32.113  48.178  0.00  0.00    +0.000 HD
ATOM     13  H   UNL     1      39.774  33.386  45.972  0.00  0.00    +0.000 HD
ATOM     14  H   UNL     1      35.712  30.117  44.752  0.00  0.00    +0.000 HD
BRANCH   3  17
ATOM     15  C   UNL     1      37.482  30.166  51.494  0.00  0.00    +0.000 A 
ATOM     16  C   UNL     1      37.791  30.616  50.218  0.00  0.00    +0.000 A 
ATOM     17  C   UNL     1      36.899  30.360  49.194  0.00  0.00    +0.000 A 
ATOM     18  N   UNL     1      35.753  29.672  49.506  0.00  0.00    +0.000 NA
ATOM     19  C   UNL     1      35.474  29.245  50.753  0.00  0.00    +0.000 A 
ATOM     20  N   UNL     1      36.336  29.494  51.730  0.00  0.00    +0.000 NA
ATOM     21  H   UNL     1      38.195  30.375  52.292  0.00  0.00    +0.000 HD
ATOM     22  H   UNL     1      38.691  31.155  49.979  0.00  0.00    +0.000 HD
ATOM     23  H   UNL     1      34.541  28.713  50.879  0.00  0.00    +0.000 HD
ENDBRANCH   3  17
ENDBRANCH   1   7
BRANCH   1  25
ATOM     24  N   UNL     1      39.549  31.829  41.717  0.00  0.00    +0.000 NA
ATOM     25  C   UNL     1      39.222  33.251  41.861  0.00  0.00    +0.000 C 
ATOM     26  C   UNL     1      37.819  33.435  41.513  0.00  0.00    +0.000 C 
ATOM     27  O   UNL     1      37.649  33.143  40.154  0.00  0.00    +0.000 OA
ATOM     28  C   UNL     1      38.044  31.872  39.789  0.00  0.00    +0.000 C 
ATOM     29  C   UNL     1      39.438  31.550  40.319  0.00  0.00    +0.000 C 
ATOM     30  H   UNL     1      38.833  31.229  42.163  0.00  0.00    +0.000 HD
ATOM     31  H   UNL     1      39.882  33.769  41.169  0.00  0.00    +0.000 HD
ATOM     32  H   UNL     1      37.007  32.931  41.968  0.00  0.00    +0.000 HD
ATOM     33  H   UNL     1      37.592  34.543  41.582  0.00  0.00    +0.000 HD
ATOM     34  H   UNL     1      37.333  31.106  40.139  0.00  0.00    +0.000 HD
ATOM     35  H   UNL     1      38.079  31.851  38.688  0.00  0.00    +0.000 HD
ATOM     36  H   UNL     1      40.189  32.194  39.762  0.00  0.00    +0.000 HD
BRANCH  29  39
ATOM     37 CL   UNL     1      40.866  30.284  37.641  0.00  0.00    +0.000 Cl
ATOM     38  C   UNL     1      40.300  29.395  39.029  0.00  0.00    +0.000 A 
ATOM     39  C   UNL     1      39.723  30.151  40.016  0.00  0.00    +0.000 A 
ATOM     40  C   UNL     1      39.293  29.323  41.076  0.00  0.00    +0.000 A 
ATOM     41  H   UNL     1      38.798  29.683  41.990  0.00  0.00    +0.000 HD
ATOM     42  C   UNL     1      39.424  27.934  41.135  0.00  0.00    +0.000 A 
ATOM     43  C   UNL     1      40.017  27.297  40.090  0.00  0.00    +0.000 A 
ATOM     44 CL   UNL     1      40.234  25.564  40.054  0.00  0.00    +0.000 Cl
ATOM     45  C   UNL     1      40.456  28.035  39.031  0.00  0.00    +0.000 A 
ATOM     46  H   UNL     1      40.924  27.574  38.194  0.00  0.00    +0.000 HD
ENDBRANCH  29  39
ENDBRANCH   1  25
TORSDOF 4
