
 OpenBabel03272510303D

 29 31  0  0  0  0  0  0  0  0999 V2000
   37.4590   31.3790   49.3110 C   0  0  0  0  0  0  0  0  0  0  0  0
   37.8420   32.7030   49.5340 C   0  0  0  0  0  0  0  0  0  0  0  0
   38.6520   33.2610   48.5710 C   0  0  0  0  0  0  0  0  0  0  0  0
   39.0310   32.5180   47.4780 N   0  0  0  0  0  0  0  0  0  0  0  0
   38.6300   31.2280   47.3070 C   0  0  0  0  0  0  0  0  0  0  0  0
   37.8240   30.6440   48.2470 N   0  0  0  0  0  0  0  0  0  0  0  0
   37.5030   33.2260   50.4210 H   0  0  0  0  0  0  0  0  0  0  0  0
   38.9870   34.2860   48.6810 H   0  0  0  0  0  0  0  0  0  0  0  0
   36.5450   30.7420   50.3280 C   0  0  0  0  0  0  0  0  0  0  0  0
   36.4380   29.3170   50.5070 C   0  0  0  0  0  0  0  0  0  0  0  0
   37.3090   30.0840   51.4860 C   0  0  0  0  0  0  0  0  0  0  0  0
   35.6970   31.4080   50.6430 H   0  0  0  0  0  0  0  0  0  0  0  0
   35.4980   28.8760   50.8580 H   0  0  0  0  0  0  0  0  0  0  0  0
   36.9810   28.6770   49.7560 H   0  0  0  0  0  0  0  0  0  0  0  0
   36.8590   30.2690   52.4680 H   0  0  0  0  0  0  0  0  0  0  0  0
   38.4070   30.0080   51.4310 H   0  0  0  0  0  0  0  0  0  0  0  0
   39.0110   30.4320   46.1430 C   0  0  0  0  0  0  0  0  0  0  0  0
   38.7570   29.3470   46.3220 H   0  0  0  0  0  0  0  0  0  0  0  0
   40.0900   30.4950   45.9200 H   0  0  0  0  0  0  0  0  0  0  0  0
   40.7030   31.0150   43.6610 Cl  0  0  0  0  0  0  0  0  0  0  0  0
   38.9590   31.0900   43.7970 C   0  0  0  0  0  0  0  0  0  0  0  0
   38.2140   30.8210   44.9270 C   0  0  0  0  0  0  0  0  0  0  0  0
   36.8420   30.9270   44.8640 C   0  0  0  0  0  0  0  0  0  0  0  0
   36.3070   30.7050   45.7840 H   0  0  0  0  0  0  0  0  0  0  0  0
   36.2080   31.2900   43.7090 C   0  0  0  0  0  3  0  0  0  0  0  0
   36.9500   31.5650   42.5580 C   0  0  0  0  0  0  0  0  0  0  0  0
   36.0940   32.0260   41.1030 Cl  0  0  0  0  0  0  0  0  0  0  0  0
   38.3310   31.4620   42.6050 C   0  0  0  0  0  0  0  0  0  0  0  0
   38.8380   31.6880   41.6780 H   0  0  0  0  0  0  0  0  0  0  0  0
  1  2  1  0  0  0  0
  1  9  1  0  0  0  0
  2  7  1  0  0  0  0
  3  8  1  0  0  0  0
  3  2  2  0  0  0  0
  4  3  1  0  0  0  0
  5  4  2  0  0  0  0
  5  6  1  0  0  0  0
  6  1  2  0  0  0  0
  9 10  1  0  0  0  0
  9 12  1  0  0  0  0
  9 11  1  0  0  0  0
 10 13  1  0  0  0  0
 10 11  1  0  0  0  0
 11 15  1  0  0  0  0
 14 10  1  0  0  0  0
 16 11  1  0  0  0  0
 17 18  1  0  0  0  0
 17  5  1  0  0  0  0
 19 17  1  0  0  0  0
 20 21  1  0  0  0  0
 21 22  1  0  0  0  0
 22 17  1  0  0  0  0
 23 22  2  0  0  0  0
 23 24  1  0  0  0  0
 25 23  1  0  0  0  0
 26 28  1  0  0  0  0
 26 25  2  0  0  0  0
 27 26  1  0  0  0  0
 28 21  2  0  0  0  0
 29 28  1  0  0  0  0
M  END
>  <minimizedAffinity>
-5.34652901

>  <minimizedRMSD>
0.298029155

$$$$
