
 OpenBabel03272503333D

 42 45  0  0  1  0  0  0  0  0999 V2000
   35.6010   29.5180   47.7930 C   0  0  0  0  0  0  0  0  0  0  0  0
   35.5000   30.1330   46.5450 C   0  0  0  0  0  0  0  0  0  0  0  0
   34.4480   29.7360   45.7120 C   0  0  0  0  0  0  0  0  0  0  0  0
   33.5920   28.7660   46.1900 N   0  0  0  0  0  0  0  0  0  0  0  0
   33.7280   28.2040   47.3920 C   0  0  0  0  0  0  0  0  0  0  0  0
   34.7330   28.5830   48.1910 N   0  0  0  0  0  0  0  0  0  0  0  0
   36.1710   30.8930   46.1690 H   0  0  0  0  0  0  0  0  0  0  0  0
   34.2870   30.1470   44.7390 H   0  0  0  0  0  0  0  0  0  0  0  0
   36.6830   29.9320   48.6380 N   0  0  0  0  0  0  0  0  0  0  0  0
   37.8270   30.7080   48.2630 C   0  0  0  0  0  0  0  0  0  0  0  0
   38.1950   31.3990   49.5690 C   0  0  2  0  0  0  0  0  0  0  0  0
   37.0950   31.0410   50.5670 C   0  0  0  0  0  0  0  0  0  0  0  0
   36.8190   29.6340   50.0610 C   0  0  0  0  0  0  0  0  0  0  0  0
   37.5880   31.4810   47.4840 H   0  0  0  0  0  0  0  0  0  0  0  0
   38.6910   30.0780   47.9460 H   0  0  0  0  0  0  0  0  0  0  0  0
   39.1340   30.9730   49.9980 H   0  0  0  0  0  0  0  0  0  0  0  0
   36.2280   31.6800   50.3930 H   0  0  0  0  0  0  0  0  0  0  0  0
   37.4580   31.0530   51.6010 H   0  0  0  0  0  0  0  0  0  0  0  0
   35.8600   29.2790   50.4700 H   0  0  0  0  0  0  0  0  0  0  0  0
   37.6780   28.9900   50.2700 H   0  0  0  0  0  0  0  0  0  0  0  0
   38.3260   32.8880   49.4040 C   0  0  0  0  0  0  0  0  0  0  0  0
   37.1450   33.4450   49.8540 F   0  0  0  0  0  0  0  0  0  0  0  0
   38.3890   33.1390   48.0580 F   0  0  0  0  0  0  0  0  0  0  0  0
   39.4160   33.4100   50.0480 F   0  0  0  0  0  0  0  0  0  0  0  0
   32.5870   26.9560   47.9550 S   0  0  0  0  0  0  0  0  0  0  0  0
   31.1510   27.4680   48.6770 C   0  0  0  0  0  0  0  0  0  0  0  0
   30.4580   27.3610   49.8470 C   0  0  0  0  0  0  0  0  0  0  0  0
   29.2600   27.9340   50.1040 C   0  0  0  0  0  0  0  0  0  0  0  0
   28.7350   28.7180   48.9620 C   0  0  0  0  0  0  0  0  0  0  0  0
   30.0020   28.5500   47.6710 S   0  0  0  0  0  0  0  0  0  0  0  0
   30.9980   26.7530   50.5560 H   0  0  0  0  0  0  0  0  0  0  0  0
   28.7190   27.8470   51.0240 H   0  0  0  0  0  0  0  0  0  0  0  0
   26.3990   26.9830   48.3740 Cl  0  0  0  0  0  0  0  0  0  0  0  0
   26.3850   28.7140   48.6200 C   0  0  0  0  0  0  0  0  0  0  0  0
   27.5270   29.4350   48.8900 C   0  0  0  0  0  0  0  0  0  0  0  0
   27.5820   30.7940   49.0930 C   0  0  0  0  0  0  0  0  0  0  0  0
   28.5020   31.3090   49.3010 H   0  0  0  0  0  0  0  0  0  0  0  0
   26.3720   31.4960   49.0190 C   0  0  0  0  0  3  0  0  0  0  0  0
   25.1810   30.8130   48.7470 C   0  0  0  0  0  0  0  0  0  0  0  0
   23.6510   31.6590   48.6460 Cl  0  0  0  0  0  0  0  0  0  0  0  0
   25.1810   29.4260   48.5470 C   0  0  0  0  0  0  0  0  0  0  0  0
   24.2520   28.9140   48.3390 H   0  0  0  0  0  0  0  0  0  0  0  0
  1  6  1  0  0  0  0
  1  9  1  0  0  0  0
  2  1  2  0  0  0  0
  3  4  2  0  0  0  0
  3  2  1  0  0  0  0
  4  5  1  0  0  0  0
  5 25  1  0  0  0  0
  5  6  2  0  0  0  0
  7  2  1  0  0  0  0
  8  3  1  0  0  0  0
  9 13  1  0  0  0  0
 10  9  1  0  0  0  0
 10 11  1  0  0  0  0
 11 16  1  1  0  0  0
 11 12  1  0  0  0  0
 12 18  1  0  0  0  0
 13 20  1  0  0  0  0
 13 19  1  0  0  0  0
 13 12  1  0  0  0  0
 14 10  1  0  0  0  0
 15 10  1  0  0  0  0
 17 12  1  0  0  0  0
 21 11  1  0  0  0  0
 21 22  1  0  0  0  0
 21 24  1  0  0  0  0
 23 21  1  0  0  0  0
 25 26  1  0  0  0  0
 26 27  2  0  0  0  0
 27 28  1  0  0  0  0
 27 31  1  0  0  0  0
 28 32  1  0  0  0  0
 29 28  2  0  0  0  0
 30 26  1  0  0  0  0
 30 29  1  0  0  0  0
 33 34  1  0  0  0  0
 34 35  1  0  0  0  0
 35 29  1  0  0  0  0
 35 36  2  0  0  0  0
 36 37  1  0  0  0  0
 38 36  1  0  0  0  0
 39 38  2  0  0  0  0
 40 39  1  0  0  0  0
 41 34  2  0  0  0  0
 41 39  1  0  0  0  0
 42 41  1  0  0  0  0
M  END
>  <minimizedAffinity>
-6.66652393

>  <minimizedRMSD>
0.757108986

$$$$
