
 OpenBabel03272501303D

 21 22  0  0  0  0  0  0  0  0999 V2000
   38.0620   31.4270   45.8480 C   0  0  0  0  0  0  0  0  0  0  0  0
   38.5390   32.5770   45.9620 O   0  0  0  0  0  0  0  0  0  0  0  0
   36.5590   32.4980   43.4680 Cl  0  0  0  0  0  0  0  0  0  0  0  0
   37.6580   31.1240   43.4500 C   0  0  0  0  0  0  0  0  0  0  0  0
   38.3000   30.7120   44.5990 C   0  0  0  0  0  0  0  0  0  0  0  0
   39.1360   29.6240   44.4540 C   0  0  0  0  0  0  0  0  0  0  0  0
   39.6550   29.2720   45.3320 H   0  0  0  0  0  0  0  0  0  0  0  0
   39.3210   28.9880   43.2450 C   0  0  0  0  0  3  0  0  0  0  0  0
   38.6640   29.4250   42.1140 C   0  0  0  0  0  0  0  0  0  0  0  0
   38.9480   28.5680   40.6120 Cl  0  0  0  0  0  0  0  0  0  0  0  0
   37.8170   30.5100   42.2070 C   0  0  0  0  0  0  0  0  0  0  0  0
   37.3010   30.8550   41.3220 H   0  0  0  0  0  0  0  0  0  0  0  0
   37.0450   29.9060   49.1130 C   0  0  0  0  0  0  0  0  0  0  0  0
   37.8410   30.5210   48.1440 C   0  0  0  0  0  0  0  0  0  0  0  0
   37.2950   30.7920   46.8960 C   0  0  0  0  0  0  0  0  0  0  0  0
   36.0060   30.4410   46.6860 N   0  0  0  0  0  0  0  0  0  0  0  0
   35.2580   29.8440   47.6460 C   0  0  0  0  0  0  0  0  0  0  0  0
   35.7680   29.5770   48.8510 N   0  0  0  0  0  0  0  0  0  0  0  0
   37.5730   29.7430   50.0480 H   0  0  0  0  0  0  0  0  0  0  0  0
   38.8770   30.8010   48.3230 H   0  0  0  0  0  0  0  0  0  0  0  0
   34.2110   29.5750   47.4310 H   0  0  0  0  0  0  0  0  0  0  0  0
  1  2  2  0  0  0  0
  1 15  1  0  0  0  0
  4  3  1  0  0  0  0
  4  5  1  0  0  0  0
  5  1  1  0  0  0  0
  6  5  2  0  0  0  0
  6  7  1  0  0  0  0
  8  6  1  0  0  0  0
  9 11  1  0  0  0  0
  9  8  2  0  0  0  0
 10  9  1  0  0  0  0
 11  4  2  0  0  0  0
 12 11  1  0  0  0  0
 13 19  1  0  0  0  0
 14 20  1  0  0  0  0
 14 13  2  0  0  0  0
 15 14  1  0  0  0  0
 16 15  2  0  0  0  0
 16 17  1  0  0  0  0
 17 18  2  0  0  0  0
 18 13  1  0  0  0  0
 21 17  1  0  0  0  0
M  END
>  <minimizedAffinity>
-3.88713002

>  <minimizedRMSD>
2.28910851

$$$$
