
     RDKit          3D

 28 30  0  0  0  0  0  0  0  0999 V2000
   37.5260   31.4072   49.3270 C   0  0  0  0  0  0  0  0  0  0  0  0
   38.1524   32.6515   49.3965 C   0  0  0  0  0  0  0  0  0  0  0  0
   38.9369   32.9837   48.3052 C   0  0  0  0  0  0  0  0  0  0  0  0
   39.0629   32.1186   47.2465 N   0  0  0  0  0  0  0  0  0  0  0  0
   38.4345   30.9172   47.2218 C   0  0  0  0  0  0  0  0  0  0  0  0
   37.6510   30.5505   48.2791 N   0  0  0  0  0  0  0  0  0  0  0  0
   36.6411   31.0344   50.4979 C   0  0  1  0  0  0  0  0  0  0  0  0
   36.1386   29.6901   50.6629 C   0  0  2  0  0  0  0  0  0  0  0  0
   37.3485   30.0955   51.4812 C   0  0  0  0  0  0  0  0  0  0  0  0
   36.3841   28.7392   49.6608 O   0  0  0  0  0  0  0  0  0  0  0  0
   38.0122   33.2872   50.2595 H   0  0  0  0  0  0  0  0  0  0  0  0
   39.4373   33.9401   48.3252 H   0  0  0  0  0  0  0  0  0  0  0  0
   38.5727   30.2793   46.3592 H   0  0  0  0  0  0  0  0  0  0  0  0
   36.1708   31.9409   50.9810 H   0  0  0  0  0  0  0  0  0  0  0  0
   35.1438   29.5907   51.1548 H   0  0  0  0  0  0  0  0  0  0  0  0
   37.0915   30.2689   52.5443 H   0  0  0  0  0  0  0  0  0  0  0  0
   38.3284   29.6736   51.2016 H   0  0  0  0  0  0  0  0  0  0  0  0
   35.1753   29.4191   47.0393 Cl  0  0  0  0  0  0  0  0  0  0  0  0
   34.9419   27.9827   48.0212 C   0  0  0  0  0  0  0  0  0  0  0  0
   35.5498   27.7394   49.2460 C   0  0  0  0  0  0  0  0  0  0  0  0
   35.2630   26.5608   49.8959 C   0  0  0  0  0  0  0  0  0  0  0  0
   35.7587   26.4112   50.8483 H   0  0  0  0  0  0  0  0  0  0  0  0
   34.4049   25.6042   49.4012 C   0  0  0  0  0  0  0  0  0  0  0  0
   33.8017   25.8534   48.1784 C   0  0  0  0  0  0  0  0  0  0  0  0
   32.7047   24.6648   47.5134 Cl  0  0  0  0  0  0  0  0  0  0  0  0
   34.0685   27.0286   47.4989 C   0  0  0  0  0  0  0  0  0  0  0  0
   33.5693   27.1579   46.5604 H   0  0  0  0  0  0  0  0  0  0  0  0
   34.2146   24.7051   49.9436 H   0  0  0  0  0  0  0  0  0  0  0  0
  1  2  2  0
  1  7  1  0
  3  2  1  0
  4  3  2  0
  5  4  1  0
  5  6  2  0
  6  1  1  0
  7  8  1  0
  7  9  1  0
  8  9  1  0
 10  8  1  0
  2 11  1  0
  3 12  1  0
  5 13  1  0
  7 14  1  1
  8 15  1  1
  9 16  1  0
  9 17  1  0
 18 19  1  0
 19 20  2  0
 20 21  1  0
 21 22  1  0
 21 23  2  0
 23 24  1  0
 24 25  1  0
 24 26  2  0
 26 27  1  0
 26 19  1  0
 23 28  1  0
 10 20  1  0
M  ISO  8  11  14  12  14  13  14  14  13  15  13  16  13  17  13  22  16
M  ISO  1  27  15
M  END
>  <DihAtoms>  (1) 
7,9,19,18

>  <DihDeg>  (1) 
-179.9986950574023

$$$$
