
 OpenBabel03272503333D

 42 45  0  0  1  0  0  0  0  0999 V2000
   35.5530   29.3940   47.7300 C   0  0  0  0  0  0  0  0  0  0  0  0
   35.5950   29.9570   46.4550 C   0  0  0  0  0  0  0  0  0  0  0  0
   34.6380   29.5290   45.5280 C   0  0  0  0  0  0  0  0  0  0  0  0
   33.7260   28.5830   45.9480 N   0  0  0  0  0  0  0  0  0  0  0  0
   33.7240   28.0720   47.1800 C   0  0  0  0  0  0  0  0  0  0  0  0
   34.6390   28.4800   48.0680 N   0  0  0  0  0  0  0  0  0  0  0  0
   36.3100   30.6980   46.1240 H   0  0  0  0  0  0  0  0  0  0  0  0
   34.5890   29.9000   44.5270 H   0  0  0  0  0  0  0  0  0  0  0  0
   36.5390   29.8400   48.6720 N   0  0  0  0  0  0  0  0  0  0  0  0
   37.7500   30.5490   48.3880 C   0  0  0  0  0  0  0  0  0  0  0  0
   37.9820   31.3280   49.6750 C   0  0  2  0  0  0  0  0  0  0  0  0
   36.7550   31.0830   50.5510 C   0  0  0  0  0  0  0  0  0  0  0  0
   36.4870   29.6490   50.1190 C   0  0  0  0  0  0  0  0  0  0  0  0
   37.6400   31.2650   47.5300 H   0  0  0  0  0  0  0  0  0  0  0  0
   38.6210   29.8690   48.2280 H   0  0  0  0  0  0  0  0  0  0  0  0
   38.8440   30.9070   50.2480 H   0  0  0  0  0  0  0  0  0  0  0  0
   35.9430   31.7330   50.2220 H   0  0  0  0  0  0  0  0  0  0  0  0
   36.9890   31.1640   51.6180 H   0  0  0  0  0  0  0  0  0  0  0  0
   35.4710   29.3570   50.4290 H   0  0  0  0  0  0  0  0  0  0  0  0
   37.2870   28.9970   50.4810 H   0  0  0  0  0  0  0  0  0  0  0  0
   38.1930   32.7940   49.4180 C   0  0  0  0  0  0  0  0  0  0  0  0
   37.0700   33.4460   49.8880 F   0  0  0  0  0  0  0  0  0  0  0  0
   38.2060   32.9670   48.0590 F   0  0  0  0  0  0  0  0  0  0  0  0
   39.3410   33.2830   49.9820 F   0  0  0  0  0  0  0  0  0  0  0  0
   32.5190   26.8530   47.6640 S   0  0  0  0  0  0  0  0  0  0  0  0
   30.9460   27.3790   47.9740 C   0  0  0  0  0  0  0  0  0  0  0  0
   29.7900   26.9660   48.5690 C   0  0  0  0  0  0  0  0  0  0  0  0
   28.6440   27.6820   48.6380 C   0  0  0  0  0  0  0  0  0  0  0  0
   28.7480   29.0080   47.9850 C   0  0  0  0  0  0  0  0  0  0  0  0
   30.4520   29.0750   47.3570 S   0  0  0  0  0  0  0  0  0  0  0  0
   29.9080   25.9790   48.9870 H   0  0  0  0  0  0  0  0  0  0  0  0
   27.7390   27.3540   49.1060 H   0  0  0  0  0  0  0  0  0  0  0  0
   28.1190   29.6940   45.1650 Cl  0  0  0  0  0  0  0  0  0  0  0  0
   27.3930   30.3810   46.6010 C   0  0  0  0  0  0  0  0  0  0  0  0
   27.7530   29.9950   47.8730 C   0  0  0  0  0  0  0  0  0  0  0  0
   27.2220   30.4970   49.0390 C   0  0  0  0  0  0  0  0  0  0  0  0
   27.5390   30.1610   50.0080 H   0  0  0  0  0  0  0  0  0  0  0  0
   26.2320   31.4810   48.9120 C   0  0  0  0  0  3  0  0  0  0  0  0
   25.8280   31.9100   47.6420 C   0  0  0  0  0  0  0  0  0  0  0  0
   24.5940   33.1370   47.4490 Cl  0  0  0  0  0  0  0  0  0  0  0  0
   26.4020   31.3650   46.4880 C   0  0  0  0  0  0  0  0  0  0  0  0
   26.0790   31.7070   45.5140 H   0  0  0  0  0  0  0  0  0  0  0  0
  1  6  1  0  0  0  0
  1  9  1  0  0  0  0
  2  1  2  0  0  0  0
  3  4  2  0  0  0  0
  3  2  1  0  0  0  0
  4  5  1  0  0  0  0
  5 25  1  0  0  0  0
  5  6  2  0  0  0  0
  7  2  1  0  0  0  0
  8  3  1  0  0  0  0
  9 13  1  0  0  0  0
 10  9  1  0  0  0  0
 10 11  1  0  0  0  0
 11 16  1  1  0  0  0
 11 12  1  0  0  0  0
 12 18  1  0  0  0  0
 13 19  1  0  0  0  0
 13 20  1  0  0  0  0
 13 12  1  0  0  0  0
 14 10  1  0  0  0  0
 15 10  1  0  0  0  0
 17 12  1  0  0  0  0
 21 11  1  0  0  0  0
 21 22  1  0  0  0  0
 21 24  1  0  0  0  0
 23 21  1  0  0  0  0
 25 26  1  0  0  0  0
 26 27  2  0  0  0  0
 27 28  1  0  0  0  0
 27 31  1  0  0  0  0
 28 32  1  0  0  0  0
 29 28  2  0  0  0  0
 30 26  1  0  0  0  0
 30 29  1  0  0  0  0
 33 34  1  0  0  0  0
 34 35  1  0  0  0  0
 35 29  1  0  0  0  0
 35 36  2  0  0  0  0
 36 37  1  0  0  0  0
 38 36  1  0  0  0  0
 39 38  2  0  0  0  0
 40 39  1  0  0  0  0
 41 34  2  0  0  0  0
 41 39  1  0  0  0  0
 42 41  1  0  0  0  0
M  END
>  <minimizedAffinity>
-6.70324564

>  <minimizedRMSD>
1.05013323

$$$$
