
 OpenBabel03272503333D

 42 45  0  0  1  0  0  0  0  0999 V2000
   35.7470   29.5010   47.7760 C   0  0  0  0  0  0  0  0  0  0  0  0
   35.6490   30.1530   46.5470 C   0  0  0  0  0  0  0  0  0  0  0  0
   34.6570   29.7150   45.6620 C   0  0  0  0  0  0  0  0  0  0  0  0
   33.8530   28.6730   46.0740 N   0  0  0  0  0  0  0  0  0  0  0  0
   33.9840   28.0790   47.2610 C   0  0  0  0  0  0  0  0  0  0  0  0
   34.9320   28.4960   48.1090 N   0  0  0  0  0  0  0  0  0  0  0  0
   36.2780   30.9690   46.2220 H   0  0  0  0  0  0  0  0  0  0  0  0
   34.5020   30.1500   44.6980 H   0  0  0  0  0  0  0  0  0  0  0  0
   36.7670   29.9570   48.6750 N   0  0  0  0  0  0  0  0  0  0  0  0
   37.9390   30.7100   48.3450 C   0  0  0  0  0  0  0  0  0  0  0  0
   38.2150   31.4680   49.6360 C   0  0  2  0  0  0  0  0  0  0  0  0
   37.0450   31.1640   50.5690 C   0  0  0  0  0  0  0  0  0  0  0  0
   36.7980   29.7330   50.1180 C   0  0  0  0  0  0  0  0  0  0  0  0
   37.7620   31.4420   47.5110 H   0  0  0  0  0  0  0  0  0  0  0  0
   38.8210   30.0630   48.1240 H   0  0  0  0  0  0  0  0  0  0  0  0
   39.1190   31.0630   50.1530 H   0  0  0  0  0  0  0  0  0  0  0  0
   36.1960   31.7950   50.2990 H   0  0  0  0  0  0  0  0  0  0  0  0
   37.3320   31.2300   51.6240 H   0  0  0  0  0  0  0  0  0  0  0  0
   35.8100   29.4020   50.4740 H   0  0  0  0  0  0  0  0  0  0  0  0
   37.6360   29.0990   50.4220 H   0  0  0  0  0  0  0  0  0  0  0  0
   38.3670   32.9450   49.4040 C   0  0  0  0  0  0  0  0  0  0  0  0
   37.1810   33.5340   49.7960 F   0  0  0  0  0  0  0  0  0  0  0  0
   38.4670   33.1310   48.0500 F   0  0  0  0  0  0  0  0  0  0  0  0
   39.4450   33.4880   50.0500 F   0  0  0  0  0  0  0  0  0  0  0  0
   32.9130   26.7370   47.7380 S   0  0  0  0  0  0  0  0  0  0  0  0
   31.4070   27.1240   48.3920 C   0  0  0  0  0  0  0  0  0  0  0  0
   30.5600   26.7500   49.3930 C   0  0  0  0  0  0  0  0  0  0  0  0
   29.3540   27.3060   49.6490 C   0  0  0  0  0  0  0  0  0  0  0  0
   29.0090   28.4010   48.7140 C   0  0  0  0  0  0  0  0  0  0  0  0
   30.4340   28.5080   47.5910 S   0  0  0  0  0  0  0  0  0  0  0  0
   30.9820   25.9400   49.9660 H   0  0  0  0  0  0  0  0  0  0  0  0
   28.6920   27.0080   50.4370 H   0  0  0  0  0  0  0  0  0  0  0  0
   26.9770   27.3950   46.7970 Cl  0  0  0  0  0  0  0  0  0  0  0  0
   26.8400   28.7970   47.8340 C   0  0  0  0  0  0  0  0  0  0  0  0
   27.8420   29.1850   48.6950 C   0  0  0  0  0  0  0  0  0  0  0  0
   27.7950   30.2740   49.5330 C   0  0  0  0  0  0  0  0  0  0  0  0
   28.6060   30.5340   50.1870 H   0  0  0  0  0  0  0  0  0  0  0  0
   26.6260   31.0480   49.5040 C   0  0  0  0  0  3  0  0  0  0  0  0
   25.5750   30.6970   48.6480 C   0  0  0  0  0  0  0  0  0  0  0  0
   24.1020   31.6400   48.5850 Cl  0  0  0  0  0  0  0  0  0  0  0  0
   25.6750   29.5770   47.8130 C   0  0  0  0  0  0  0  0  0  0  0  0
   24.8560   29.3200   47.1580 H   0  0  0  0  0  0  0  0  0  0  0  0
  1  6  1  0  0  0  0
  1  9  1  0  0  0  0
  2  1  2  0  0  0  0
  3  4  2  0  0  0  0
  3  2  1  0  0  0  0
  4  5  1  0  0  0  0
  5 25  1  0  0  0  0
  5  6  2  0  0  0  0
  7  2  1  0  0  0  0
  8  3  1  0  0  0  0
  9 13  1  0  0  0  0
 10  9  1  0  0  0  0
 10 11  1  0  0  0  0
 11 16  1  1  0  0  0
 11 12  1  0  0  0  0
 12 18  1  0  0  0  0
 13 20  1  0  0  0  0
 13 19  1  0  0  0  0
 13 12  1  0  0  0  0
 14 10  1  0  0  0  0
 15 10  1  0  0  0  0
 17 12  1  0  0  0  0
 21 11  1  0  0  0  0
 21 22  1  0  0  0  0
 21 24  1  0  0  0  0
 23 21  1  0  0  0  0
 25 26  1  0  0  0  0
 26 27  2  0  0  0  0
 27 28  1  0  0  0  0
 27 31  1  0  0  0  0
 28 32  1  0  0  0  0
 29 28  2  0  0  0  0
 30 26  1  0  0  0  0
 30 29  1  0  0  0  0
 33 34  1  0  0  0  0
 34 35  1  0  0  0  0
 35 29  1  0  0  0  0
 35 36  2  0  0  0  0
 36 37  1  0  0  0  0
 38 36  1  0  0  0  0
 39 38  2  0  0  0  0
 40 39  1  0  0  0  0
 41 34  2  0  0  0  0
 41 39  1  0  0  0  0
 42 41  1  0  0  0  0
M  END
>  <minimizedAffinity>
-6.63364458

>  <minimizedRMSD>
0.929537892

$$$$
