
 OpenBabel03272507163D

 27 29  0  0  1  0  0  0  0  0999 V2000
   36.3180   30.5940   50.2950 C   0  0  1  0  0  0  0  0  0  0  0  0
   35.4970   29.4180   50.1260 C   0  0  2  0  0  0  0  0  0  0  0  0
   36.7790   29.2750   50.9230 C   0  0  0  0  0  0  0  0  0  0  0  0
   36.0960   31.4100   51.0440 H   0  0  0  0  0  0  0  0  0  0  0  0
   34.5140   29.4220   50.6520 H   0  0  0  0  0  0  0  0  0  0  0  0
   36.5850   29.1930   52.0100 H   0  0  0  0  0  0  0  0  0  0  0  0
   37.6180   28.7300   50.4600 H   0  0  0  0  0  0  0  0  0  0  0  0
   37.2560   31.0640   49.2020 C   0  0  0  0  0  0  0  0  0  0  0  0
   37.8660   32.3020   49.4020 C   0  0  0  0  0  0  0  0  0  0  0  0
   38.7010   32.7250   48.3800 C   0  0  0  0  0  0  0  0  0  0  0  0
   38.8860   31.9480   47.2630 N   0  0  0  0  0  0  0  0  0  0  0  0
   38.2710   30.7480   47.1130 C   0  0  0  0  0  0  0  0  0  0  0  0
   37.4400   30.2940   48.0970 N   0  0  0  0  0  0  0  0  0  0  0  0
   37.6780   32.8660   50.3050 H   0  0  0  0  0  0  0  0  0  0  0  0
   39.1900   33.6790   48.5000 H   0  0  0  0  0  0  0  0  0  0  0  0
   38.4580   30.1820   46.2100 H   0  0  0  0  0  0  0  0  0  0  0  0
   35.4850   28.7630   48.8860 O   0  0  0  0  0  0  0  0  0  0  0  0
   34.0320   30.7130   47.1880 Cl  0  0  0  0  0  0  0  0  0  0  0  0
   33.6840   29.0140   47.4600 C   0  0  0  0  0  0  0  0  0  0  0  0
   34.4190   28.1630   48.2760 C   0  0  0  0  0  0  0  0  0  0  0  0
   34.0160   26.8530   48.3860 C   0  0  0  0  0  0  0  0  0  0  0  0
   34.6170   26.2240   49.0330 H   0  0  0  0  0  0  0  0  0  0  0  0
   32.9220   26.3310   47.7310 C   0  0  0  0  0  3  0  0  0  0  0  0
   32.1940   27.1860   46.9180 C   0  0  0  0  0  0  0  0  0  0  0  0
   30.7960   26.5650   46.0680 Cl  0  0  0  0  0  0  0  0  0  0  0  0
   32.5710   28.5100   46.7860 C   0  0  0  0  0  0  0  0  0  0  0  0
   31.9650   29.1140   46.1430 H   0  0  0  0  0  0  0  0  0  0  0  0
  1  3  1  0  0  0  0
  1  4  1  1  0  0  0
  2  1  1  0  0  0  0
  2  5  1  1  0  0  0
  2  3  1  0  0  0  0
  3  6  1  0  0  0  0
  7  3  1  0  0  0  0
  8  9  1  0  0  0  0
  8  1  1  0  0  0  0
  9 14  1  0  0  0  0
 10 15  1  0  0  0  0
 10  9  2  0  0  0  0
 11 10  1  0  0  0  0
 12 11  2  0  0  0  0
 12 13  1  0  0  0  0
 13  8  2  0  0  0  0
 16 12  1  0  0  0  0
 17  2  1  0  0  0  0
 18 19  1  0  0  0  0
 19 20  1  0  0  0  0
 20 21  2  0  0  0  0
 20 17  1  0  0  0  0
 21 22  1  0  0  0  0
 23 21  1  0  0  0  0
 24 23  2  0  0  0  0
 25 24  1  0  0  0  0
 26 24  1  0  0  0  0
 26 19  2  0  0  0  0
 27 26  1  0  0  0  0
M  END
>  <minimizedAffinity>
-4.80631256

>  <minimizedRMSD>
1.48878455

$$$$
