
 OpenBabel03272510303D

 29 31  0  0  0  0  0  0  0  0999 V2000
   37.4330   31.3940   49.2720 C   0  0  0  0  0  0  0  0  0  0  0  0
   37.7770   32.7040   49.6120 C   0  0  0  0  0  0  0  0  0  0  0  0
   38.6280   33.3430   48.7390 C   0  0  0  0  0  0  0  0  0  0  0  0
   39.0810   32.6880   47.6190 N   0  0  0  0  0  0  0  0  0  0  0  0
   38.7150   31.4080   47.3330 C   0  0  0  0  0  0  0  0  0  0  0  0
   37.8700   30.7440   48.1800 N   0  0  0  0  0  0  0  0  0  0  0  0
   37.3800   33.1550   50.5130 H   0  0  0  0  0  0  0  0  0  0  0  0
   38.9370   34.3620   48.9410 H   0  0  0  0  0  0  0  0  0  0  0  0
   36.4760   30.6700   50.1880 C   0  0  0  0  0  0  0  0  0  0  0  0
   36.3630   29.2360   50.2320 C   0  0  0  0  0  0  0  0  0  0  0  0
   37.1910   29.9080   51.3130 C   0  0  0  0  0  0  0  0  0  0  0  0
   35.6150   31.3080   50.5250 H   0  0  0  0  0  0  0  0  0  0  0  0
   35.4090   28.7680   50.5010 H   0  0  0  0  0  0  0  0  0  0  0  0
   36.9380   28.6640   49.4510 H   0  0  0  0  0  0  0  0  0  0  0  0
   36.6990   30.0050   52.2870 H   0  0  0  0  0  0  0  0  0  0  0  0
   38.2890   29.8340   51.2990 H   0  0  0  0  0  0  0  0  0  0  0  0
   39.1760   30.7050   46.1370 C   0  0  0  0  0  0  0  0  0  0  0  0
   38.5750   29.7610   45.9930 H   0  0  0  0  0  0  0  0  0  0  0  0
   40.2410   30.4230   46.1940 H   0  0  0  0  0  0  0  0  0  0  0  0
   36.3320   30.4740   45.0300 Cl  0  0  0  0  0  0  0  0  0  0  0  0
   37.6500   31.4260   44.3780 C   0  0  0  0  0  0  0  0  0  0  0  0
   38.9270   31.5160   44.8930 C   0  0  0  0  0  0  0  0  0  0  0  0
   39.8510   32.3160   44.2560 C   0  0  0  0  0  0  0  0  0  0  0  0
   40.8390   32.3480   44.7060 H   0  0  0  0  0  0  0  0  0  0  0  0
   39.5260   33.0150   43.1280 C   0  0  0  0  0  3  0  0  0  0  0  0
   38.2370   32.9330   42.5960 C   0  0  0  0  0  0  0  0  0  0  0  0
   37.8710   33.8500   41.1510 Cl  0  0  0  0  0  0  0  0  0  0  0  0
   37.2960   32.1340   43.2270 C   0  0  0  0  0  0  0  0  0  0  0  0
   36.3230   32.1190   42.7590 H   0  0  0  0  0  0  0  0  0  0  0  0
  1  2  1  0  0  0  0
  1  9  1  0  0  0  0
  2  7  1  0  0  0  0
  3  8  1  0  0  0  0
  3  2  2  0  0  0  0
  4  3  1  0  0  0  0
  5  4  2  0  0  0  0
  5  6  1  0  0  0  0
  6  1  2  0  0  0  0
  9 10  1  0  0  0  0
  9 12  1  0  0  0  0
  9 11  1  0  0  0  0
 10 13  1  0  0  0  0
 10 11  1  0  0  0  0
 11 15  1  0  0  0  0
 14 10  1  0  0  0  0
 16 11  1  0  0  0  0
 17 19  1  0  0  0  0
 17  5  1  0  0  0  0
 18 17  1  0  0  0  0
 21 22  1  0  0  0  0
 21 20  1  0  0  0  0
 22 17  1  0  0  0  0
 23 24  1  0  0  0  0
 23 22  2  0  0  0  0
 25 23  1  0  0  0  0
 26 25  2  0  0  0  0
 26 28  1  0  0  0  0
 27 26  1  0  0  0  0
 28 21  2  0  0  0  0
 29 28  1  0  0  0  0
M  END
>  <minimizedAffinity>
-5.67246771

>  <minimizedRMSD>
1.43293631

$$$$
