
 OpenBabel03272503303D

 35 37  0  0  1  0  0  0  0  0999 V2000
   35.2880   29.5430   47.9530 C   0  0  0  0  0  0  0  0  0  0  0  0
   35.2200   30.0110   46.6300 C   0  0  0  0  0  0  0  0  0  0  0  0
   34.0740   29.6720   45.9050 C   0  0  0  0  0  0  0  0  0  0  0  0
   33.1200   28.9200   46.5320 N   0  0  0  0  0  0  0  0  0  0  0  0
   33.2130   28.4890   47.7920 C   0  0  0  0  0  0  0  0  0  0  0  0
   34.3190   28.8110   48.5040 N   0  0  0  0  0  0  0  0  0  0  0  0
   35.9740   30.6030   46.1420 H   0  0  0  0  0  0  0  0  0  0  0  0
   33.8930   29.9630   44.8870 H   0  0  0  0  0  0  0  0  0  0  0  0
   36.4590   29.8900   48.6910 N   0  0  0  0  0  0  0  0  0  0  0  0
   37.5790   30.6580   48.2330 C   0  0  0  0  0  0  0  0  0  0  0  0
   38.1020   31.2820   49.5220 C   0  0  2  0  0  0  0  0  0  0  0  0
   37.1310   30.8850   50.6100 C   0  0  0  0  0  0  0  0  0  0  0  0
   36.7390   29.5280   50.0600 C   0  0  0  0  0  0  0  0  0  0  0  0
   37.2680   31.4470   47.5050 H   0  0  0  0  0  0  0  0  0  0  0  0
   38.3680   30.0190   47.8000 H   0  0  0  0  0  0  0  0  0  0  0  0
   39.0900   30.8440   49.8020 H   0  0  0  0  0  0  0  0  0  0  0  0
   36.2400   31.5340   50.6610 H   0  0  0  0  0  0  0  0  0  0  0  0
   37.6330   30.7460   51.5740 H   0  0  0  0  0  0  0  0  0  0  0  0
   37.5670   28.8050   50.1600 H   0  0  0  0  0  0  0  0  0  0  0  0
   35.8100   29.2380   50.5870 H   0  0  0  0  0  0  0  0  0  0  0  0
   38.2710   32.7670   49.4030 C   0  0  0  0  0  0  0  0  0  0  0  0
   37.1010   33.3360   49.8960 F   0  0  0  0  0  0  0  0  0  0  0  0
   38.3140   33.0730   48.0560 F   0  0  0  0  0  0  0  0  0  0  0  0
   39.3690   33.2580   50.0350 F   0  0  0  0  0  0  0  0  0  0  0  0
   31.9400   27.5130   48.5560 S   0  0  0  0  0  0  0  0  0  0  0  0
   29.1750   27.6730   47.0090 Cl  0  0  0  0  0  0  0  0  0  0  0  0
   30.1370   26.2370   46.8200 C   0  0  0  0  0  0  0  0  0  0  0  0
   31.3290   26.2140   47.5110 C   0  0  0  0  0  0  0  0  0  0  0  0
   32.1550   25.0940   47.4080 C   0  0  0  0  0  0  0  0  0  0  0  0
   33.1140   25.0090   47.9290 H   0  0  0  0  0  0  0  0  0  0  0  0
   31.7500   24.0400   46.6130 C   0  0  0  0  0  3  0  0  0  0  0  0
   30.5500   24.0890   45.9320 C   0  0  0  0  0  0  0  0  0  0  0  0
   29.9930   22.7840   44.9160 Cl  0  0  0  0  0  0  0  0  0  0  0  0
   29.7220   25.1860   46.0220 C   0  0  0  0  0  0  0  0  0  0  0  0
   28.7610   25.2610   45.4950 H   0  0  0  0  0  0  0  0  0  0  0  0
  1  6  1  0  0  0  0
  1  9  1  0  0  0  0
  2  1  2  0  0  0  0
  3  4  2  0  0  0  0
  3  2  1  0  0  0  0
  4  5  1  0  0  0  0
  5  6  2  0  0  0  0
  5 25  1  0  0  0  0
  7  2  1  0  0  0  0
  8  3  1  0  0  0  0
  9 13  1  0  0  0  0
 10  9  1  0  0  0  0
 10 11  1  0  0  0  0
 11 16  1  1  0  0  0
 11 12  1  0  0  0  0
 12 17  1  0  0  0  0
 12 18  1  0  0  0  0
 13 19  1  0  0  0  0
 13 20  1  0  0  0  0
 13 12  1  0  0  0  0
 14 10  1  0  0  0  0
 15 10  1  0  0  0  0
 21 11  1  0  0  0  0
 21 22  1  0  0  0  0
 21 24  1  0  0  0  0
 23 21  1  0  0  0  0
 27 26  1  0  0  0  0
 27 28  1  0  0  0  0
 28 25  1  0  0  0  0
 29 28  2  0  0  0  0
 29 30  1  0  0  0  0
 31 29  1  0  0  0  0
 32 34  1  0  0  0  0
 32 31  2  0  0  0  0
 33 32  1  0  0  0  0
 34 27  2  0  0  0  0
 35 34  1  0  0  0  0
M  END
>  <minimizedAffinity>
-5.91195822

>  <minimizedRMSD>
1.61356366

$$$$
