
     RDKit          3D

 30 32  0  0  0  0  0  0  0  0999 V2000
   37.9149   30.8718   46.7281 C   0  0  0  0  0  0  0  0  0  0  0  0
   38.0429   31.0337   48.1325 C   0  0  0  0  0  0  0  0  0  0  0  0
   36.9265   30.8145   48.9337 C   0  0  0  0  0  0  0  0  0  0  0  0
   35.7769   30.4570   48.3169 N   0  0  0  0  0  0  0  0  0  0  0  0
   35.6680   30.3060   46.9766 C   0  0  0  0  0  0  0  0  0  0  0  0
   36.7499   30.5190   46.2059 N   0  0  0  0  0  0  0  0  0  0  0  0
   39.1006   31.1070   45.9019 C   0  0  0  0  0  0  0  0  0  0  0  0
   39.9209   32.2035   45.9086 C   0  0  0  0  0  0  0  0  0  0  0  0
   40.9385   32.0328   44.9690 C   0  0  0  0  0  0  0  0  0  0  0  0
   40.6787   30.8012   44.4192 N   0  0  0  0  0  0  0  0  0  0  0  0
   39.6135   30.2801   44.9696 N   0  0  0  0  0  0  0  0  0  0  0  0
   37.0537   30.9824   50.4072 C   0  0  0  0  0  0  0  0  0  0  0  0
   36.5522   32.2445   50.6864 F   0  0  0  0  0  0  0  0  0  0  0  0
   36.3111   30.0472   51.1068 F   0  0  0  0  0  0  0  0  0  0  0  0
   38.3757   30.9534   50.8265 F   0  0  0  0  0  0  0  0  0  0  0  0
   39.0137   31.3238   48.5244 H   0  0  0  0  0  0  0  0  0  0  0  0
   34.7123   30.0182   46.5665 H   0  0  0  0  0  0  0  0  0  0  0  0
   39.7476   33.0430   46.5705 H   0  0  0  0  0  0  0  0  0  0  0  0
   41.6988   32.7849   44.8115 H   0  0  0  0  0  0  0  0  0  0  0  0
   40.4368   32.2079   41.7825 Cl  0  0  0  0  0  0  0  0  0  0  0  0
   41.5215   30.8906   42.1508 C   0  0  0  0  0  0  0  0  0  0  0  0
   41.5494   30.3147   43.4044 C   0  0  0  0  0  0  0  0  0  0  0  0
   42.4273   29.2747   43.6424 C   0  0  0  0  0  0  0  0  0  0  0  0
   42.3923   28.8751   44.6451 H   0  0  0  0  0  0  0  0  0  0  0  0
   43.3023   28.7574   42.6874 C   0  0  0  0  0  0  0  0  0  0  0  0
   43.2633   29.3376   41.4508 C   0  0  0  0  0  0  0  0  0  0  0  0
   44.3399   28.7235   40.2247 Cl  0  0  0  0  0  0  0  0  0  0  0  0
   42.3942   30.3787   41.1891 C   0  0  0  0  0  0  0  0  0  0  0  0
   42.4213   30.7821   40.1965 H   0  0  0  0  0  0  0  0  0  0  0  0
   43.9670   27.9416   42.9324 H   0  0  0  0  0  0  0  0  0  0  0  0
  1  2  2  0
  2  3  1  0
  3 12  1  0
  4  3  2  0
  5  4  1  0
  6  1  1  0
  6  5  2  0
  7  1  1  0
  8  7  1  0
  9  8  2  0
 10  9  1  0
 10 11  1  0
 11  7  2  0
 12 13  1  0
 12 15  1  0
 12 14  1  0
  2 16  1  0
  5 17  1  0
  8 18  1  0
  9 19  1  0
 20 21  1  0
 21 22  2  0
 22 23  1  0
 23 24  1  0
 23 25  2  0
 25 26  1  0
 26 27  1  0
 26 28  2  0
 28 29  1  0
 28 21  1  0
 25 30  1  0
 10 22  1  0
M  ISO  6  16  14  17  14  18  14  19  14  24  16  29  15
M  END
>  <DihAtoms>  (1) 
8,9,21,20

>  <DihDeg>  (1) 
108.39872285650469

$$$$
