
 OpenBabel03262522133D

 34 36  0  0  0  0  0  0  0  0999 V2000
   37.7340   31.6100   47.5210 C   0  0  0  0  0  0  0  0  0  0  0  0
   37.9250   32.4780   48.6080 C   0  0  0  0  0  0  0  0  0  0  0  0
   38.9640   33.3730   48.5960 C   0  0  0  0  0  0  0  0  0  0  0  0
   39.7800   33.3640   47.4820 C   0  0  0  0  0  0  0  0  0  0  0  0
   39.5700   32.5140   46.4480 C   0  0  0  0  0  0  0  0  0  0  0  0
   38.5440   31.6020   46.4160 N   0  0  0  0  0  0  0  0  0  0  0  0
   37.2490   32.4320   49.4470 H   0  0  0  0  0  0  0  0  0  0  0  0
   39.1100   34.0310   49.4200 H   0  0  0  0  0  0  0  0  0  0  0  0
   40.5990   34.0710   47.4750 H   0  0  0  0  0  0  0  0  0  0  0  0
   36.6130   30.6930   47.6030 C   0  0  0  0  0  0  0  0  0  0  0  0
   36.0210   30.3270   46.5850 O   0  0  0  0  0  0  0  0  0  0  0  0
   37.0620   29.6440   49.7970 C   0  0  0  0  0  0  0  0  0  0  0  0
   36.1340   30.1620   48.8870 C   0  0  0  0  0  0  0  0  0  0  0  0
   34.7560   30.1720   49.2050 C   0  0  0  0  0  0  0  0  0  0  0  0
   34.4090   29.6500   50.4360 N   0  0  0  0  0  0  0  0  0  0  0  0
   35.3310   29.1600   51.2880 C   0  0  0  0  0  0  0  0  0  0  0  0
   36.6100   29.1600   50.9750 N   0  0  0  0  0  0  0  0  0  0  0  0
   38.1170   29.6200   49.5890 H   0  0  0  0  0  0  0  0  0  0  0  0
   34.1080   30.5780   48.4720 H   0  0  0  0  0  0  0  0  0  0  0  0
   34.8110   28.8170   52.1710 H   0  0  0  0  0  0  0  0  0  0  0  0
   40.6440   32.5140   44.9910 S   0  0  0  0  0  0  0  0  0  0  0  0
   39.6720   33.2320   43.6500 C   0  0  0  0  0  0  0  0  0  0  0  0
   39.2690   34.2430   43.9080 H   0  0  0  0  0  0  0  0  0  0  0  0
   40.3550   33.4420   42.7730 H   0  0  0  0  0  0  0  0  0  0  0  0
   40.4490   30.9630   41.7520 Cl  0  0  0  0  0  0  0  0  0  0  0  0
   38.8140   31.2900   42.2870 C   0  0  0  0  0  0  0  0  0  0  0  0
   38.5830   32.3560   43.1630 C   0  0  0  0  0  0  0  0  0  0  0  0
   37.2640   32.5210   43.5170 C   0  0  0  0  0  0  0  0  0  0  0  0
   37.0970   33.3620   44.2080 H   0  0  0  0  0  0  0  0  0  0  0  0
   36.1600   31.7940   43.1330 C   0  0  0  0  0  3  0  0  0  0  0  0
   36.4430   30.7410   42.2570 C   0  0  0  0  0  0  0  0  0  0  0  0
   35.0850   29.7700   41.7210 Cl  0  0  0  0  0  0  0  0  0  0  0  0
   37.7560   30.4920   41.8400 C   0  0  0  0  0  0  0  0  0  0  0  0
   37.9150   29.6630   41.1610 H   0  0  0  0  0  0  0  0  0  0  0  0
  1 10  1  0  0  0  0
  1  2  1  0  0  0  0
  2  7  1  0  0  0  0
  3  2  2  0  0  0  0
  3  8  1  0  0  0  0
  4  3  1  0  0  0  0
  5  4  2  0  0  0  0
  6  5  1  0  0  0  0
  6  1  2  0  0  0  0
  9  4  1  0  0  0  0
 10 13  1  0  0  0  0
 11 10  2  0  0  0  0
 12 17  1  0  0  0  0
 13 14  1  0  0  0  0
 13 12  2  0  0  0  0
 14 15  2  0  0  0  0
 15 16  1  0  0  0  0
 16 20  1  0  0  0  0
 17 16  2  0  0  0  0
 18 12  1  0  0  0  0
 19 14  1  0  0  0  0
 21  5  1  0  0  0  0
 22 23  1  0  0  0  0
 22 21  1  0  0  0  0
 24 22  1  0  0  0  0
 25 26  1  0  0  0  0
 26 27  1  0  0  0  0
 27 28  2  0  0  0  0
 27 22  1  0  0  0  0
 28 29  1  0  0  0  0
 30 28  1  0  0  0  0
 31 30  2  0  0  0  0
 32 31  1  0  0  0  0
 33 31  1  0  0  0  0
 33 26  2  0  0  0  0
 34 33  1  0  0  0  0
M  END
>  <minimizedAffinity>
-5.3664732

>  <minimizedRMSD>
0.985230684

$$$$
