
 OpenBabel03272510243D

 33 36  0  0  0  0  0  0  0  0999 V2000
   35.9590   30.0880   46.9570 C   0  0  0  0  0  0  0  0  0  0  0  0
   36.8840   30.6490   47.8220 C   0  0  0  0  0  0  0  0  0  0  0  0
   37.8540   31.5170   47.3620 C   0  0  0  0  0  0  0  0  0  0  0  0
   37.8500   31.7940   45.9920 C   0  0  0  0  0  0  0  0  0  0  0  0
   38.6860   32.6050   45.2900 N   0  0  0  0  0  0  0  0  0  0  0  0
   38.2910   32.5510   44.0190 C   0  0  0  0  0  0  0  0  0  0  0  0
   37.2470   31.7470   43.8740 N   0  0  0  0  0  0  0  0  0  0  0  0
   36.9370   31.2490   45.0970 C   0  0  0  0  0  0  0  0  0  0  0  0
   35.9790   30.3820   45.5940 C   0  0  0  0  0  0  0  0  0  0  0  0
   35.1700   29.3980   47.2510 H   0  0  0  0  0  0  0  0  0  0  0  0
   38.5760   31.9620   48.0090 H   0  0  0  0  0  0  0  0  0  0  0  0
   39.4810   33.1560   45.6990 H   0  0  0  0  0  0  0  0  0  0  0  0
   35.2630   29.9520   44.9060 H   0  0  0  0  0  0  0  0  0  0  0  0
   37.5590   30.1720   51.4960 C   0  0  0  0  0  0  0  0  0  0  0  0
   37.7780   30.5730   50.1810 C   0  0  0  0  0  0  0  0  0  0  0  0
   36.8000   30.2940   49.2330 C   0  0  0  0  0  0  0  0  0  0  0  0
   35.6650   29.6330   49.6430 N   0  0  0  0  0  0  0  0  0  0  0  0
   35.4930   29.2620   50.9270 C   0  0  0  0  0  0  0  0  0  0  0  0
   36.4330   29.5300   51.8390 N   0  0  0  0  0  0  0  0  0  0  0  0
   38.3430   30.4080   52.2000 H   0  0  0  0  0  0  0  0  0  0  0  0
   38.6650   31.0930   49.8410 H   0  0  0  0  0  0  0  0  0  0  0  0
   34.5720   28.7450   51.1730 H   0  0  0  0  0  0  0  0  0  0  0  0
   38.9330   33.2690   43.0120 O   0  0  0  0  0  0  0  0  0  0  0  0
   37.6760   34.1860   40.4320 Cl  0  0  0  0  0  0  0  0  0  0  0  0
   38.7910   32.8410   40.5960 C   0  0  0  0  0  0  0  0  0  0  0  0
   39.2670   32.5670   41.8610 C   0  0  0  0  0  0  0  0  0  0  0  0
   40.1500   31.5020   41.9970 C   0  0  0  0  0  0  0  0  0  0  0  0
   40.5680   31.2270   42.9710 H   0  0  0  0  0  0  0  0  0  0  0  0
   40.5430   30.7430   40.9080 C   0  0  0  0  0  3  0  0  0  0  0  0
   40.0430   31.0510   39.6600 C   0  0  0  0  0  0  0  0  0  0  0  0
   40.4950   30.1340   38.2340 Cl  0  0  0  0  0  0  0  0  0  0  0  0
   39.1630   32.1020   39.4900 C   0  0  0  0  0  0  0  0  0  0  0  0
   38.7840   32.3290   38.5100 H   0  0  0  0  0  0  0  0  0  0  0  0
  1 10  1  0  0  0  0
  1  2  1  0  0  0  0
  2 16  1  0  0  0  0
  3  2  2  0  0  0  0
  3 11  1  0  0  0  0
  4  3  1  0  0  0  0
  5 12  1  0  0  0  0
  5  4  1  0  0  0  0
  6  5  1  0  0  0  0
  7  6  2  0  0  0  0
  7  8  1  0  0  0  0
  8  9  1  0  0  0  0
  8  4  2  0  0  0  0
  9  1  2  0  0  0  0
 13  9  1  0  0  0  0
 14 19  1  0  0  0  0
 14 20  1  0  0  0  0
 15 14  2  0  0  0  0
 16 17  2  0  0  0  0
 16 15  1  0  0  0  0
 17 18  1  0  0  0  0
 18 22  1  0  0  0  0
 18 19  2  0  0  0  0
 21 15  1  0  0  0  0
 23  6  1  0  0  0  0
 24 25  1  0  0  0  0
 25 26  1  0  0  0  0
 26 27  2  0  0  0  0
 26 23  1  0  0  0  0
 27 28  1  0  0  0  0
 29 27  1  0  0  0  0
 30 29  2  0  0  0  0
 31 30  1  0  0  0  0
 32 30  1  0  0  0  0
 32 25  2  0  0  0  0
 33 32  1  0  0  0  0
M  END
>  <minimizedAffinity>
-5.73875237

>  <minimizedRMSD>
2.24870372

$$$$
