
 OpenBabel03272501573D

 32 34  0  0  0  0  0  0  0  0999 V2000
   32.9390   28.0900   47.8890 C   0  0  0  0  0  0  0  0  0  0  0  0
   31.8630   27.7210   48.6810 C   0  0  0  0  0  0  0  0  0  0  0  0
   30.6660   27.9890   48.0460 C   0  0  0  0  0  0  0  0  0  0  0  0
   31.0600   28.5220   46.8720 N   0  0  0  0  0  0  0  0  0  0  0  0
   32.3750   28.5880   46.7640 N   0  0  0  0  0  0  0  0  0  0  0  0
   31.8860   27.2700   49.6860 H   0  0  0  0  0  0  0  0  0  0  0  0
   29.6410   27.8670   48.2870 H   0  0  0  0  0  0  0  0  0  0  0  0
   32.1550   31.0960   45.9650 Cl  0  0  0  0  0  0  0  0  0  0  0  0
   30.8190   30.2330   45.2510 C   0  0  0  0  0  0  0  0  0  0  0  0
   30.3600   29.0220   45.7370 C   0  0  0  0  0  0  0  0  0  0  0  0
   29.2850   28.3680   45.1300 C   0  0  0  0  0  0  0  0  0  0  0  0
   29.0380   27.4370   45.6140 H   0  0  0  0  0  0  0  0  0  0  0  0
   28.6680   28.9310   44.0310 C   0  0  0  0  0  3  0  0  0  0  0  0
   29.1220   30.1450   43.5380 C   0  0  0  0  0  0  0  0  0  0  0  0
   28.3000   30.8220   42.1320 Cl  0  0  0  0  0  0  0  0  0  0  0  0
   30.1930   30.7970   44.1430 C   0  0  0  0  0  0  0  0  0  0  0  0
   30.5250   31.7450   43.7330 H   0  0  0  0  0  0  0  0  0  0  0  0
   34.3900   27.9360   48.2790 C   0  0  0  0  0  0  0  0  0  0  0  0
   34.6920   26.8650   48.1780 H   0  0  0  0  0  0  0  0  0  0  0  0
   35.0110   28.5580   47.6110 H   0  0  0  0  0  0  0  0  0  0  0  0
   34.4930   28.3640   49.7090 C   0  0  0  0  0  0  0  0  0  0  0  0
   34.5370   27.5180   50.4310 H   0  0  0  0  0  0  0  0  0  0  0  0
   33.6250   28.9950   50.0380 H   0  0  0  0  0  0  0  0  0  0  0  0
   37.2980   30.1810   51.2950 C   0  0  0  0  0  0  0  0  0  0  0  0
   38.0390   30.6430   50.1970 C   0  0  0  0  0  0  0  0  0  0  0  0
   37.5520   30.3170   48.9080 C   0  0  0  0  0  0  0  0  0  0  0  0
   36.4190   29.5890   48.7960 N   0  0  0  0  0  0  0  0  0  0  0  0
   35.7470   29.1700   49.9000 C   0  0  0  0  0  0  0  0  0  0  0  0
   36.1880   29.4670   51.1170 N   0  0  0  0  0  0  0  0  0  0  0  0
   37.7150   30.4580   52.2520 H   0  0  0  0  0  0  0  0  0  0  0  0
   38.9350   31.2180   50.1830 H   0  0  0  0  0  0  0  0  0  0  0  0
   37.9860   30.5850   47.9600 H   0  0  0  0  0  0  0  0  0  0  0  0
  1 18  1  0  0  0  0
  1  2  1  0  0  0  0
  2  6  1  0  0  0  0
  3  7  1  0  0  0  0
  3  2  2  0  0  0  0
  4  3  1  0  0  0  0
  5  4  1  0  0  0  0
  5  1  2  0  0  0  0
  9 10  1  0  0  0  0
  9  8  1  0  0  0  0
 10  4  1  0  0  0  0
 11 12  1  0  0  0  0
 11 10  2  0  0  0  0
 13 11  1  0  0  0  0
 14 13  2  0  0  0  0
 14 16  1  0  0  0  0
 15 14  1  0  0  0  0
 16  9  2  0  0  0  0
 17 16  1  0  0  0  0
 18 21  1  0  0  0  0
 19 18  1  0  0  0  0
 20 18  1  0  0  0  0
 21 28  1  0  0  0  0
 21 23  1  0  0  0  0
 21 22  1  0  0  0  0
 24 30  1  0  0  0  0
 25 24  2  0  0  0  0
 26 25  1  0  0  0  0
 27 26  2  0  0  0  0
 27 28  1  0  0  0  0
 28 29  2  0  0  0  0
 29 24  1  0  0  0  0
 31 25  1  0  0  0  0
 32 26  1  0  0  0  0
M  END
>  <minimizedAffinity>
-4.79064751

>  <minimizedRMSD>
0.686572731

$$$$
