
     RDKit          3D

 30 32  0  0  0  0  0  0  0  0999 V2000
   37.1423   31.3070   49.1805 C   0  0  0  0  0  0  0  0  0  0  0  0
   37.3098   32.5594   49.7774 C   0  0  0  0  0  0  0  0  0  0  0  0
   38.3034   33.3539   49.1986 C   0  0  0  0  0  0  0  0  0  0  0  0
   39.0256   32.8942   48.1327 N   0  0  0  0  0  0  0  0  0  0  0  0
   38.8137   31.6619   47.5953 C   0  0  0  0  0  0  0  0  0  0  0  0
   37.8525   30.8560   48.1330 N   0  0  0  0  0  0  0  0  0  0  0  0
   36.0511   30.4387   49.7880 C   0  0  1  0  0  0  0  0  0  0  0  0
   36.0424   29.0078   49.5765 C   0  0  1  0  0  0  0  0  0  0  0  0
   36.5976   29.5067   50.8713 C   0  0  0  0  0  0  0  0  0  0  0  0
   34.7048   28.3113   49.5136 C   0  0  0  0  0  0  0  0  0  0  0  0
   36.7089   32.8582   50.6124 H   0  0  0  0  0  0  0  0  0  0  0  0
   38.4767   34.3350   49.6218 H   0  0  0  0  0  0  0  0  0  0  0  0
   39.4087   31.3421   46.7536 H   0  0  0  0  0  0  0  0  0  0  0  0
   35.1877   31.0739   50.1146 H   0  0  0  0  0  0  0  0  0  0  0  0
   36.8563   28.6225   48.8901 H   0  0  0  0  0  0  0  0  0  0  0  0
   37.6807   29.4970   51.0649 H   0  0  0  0  0  0  0  0  0  0  0  0
   35.9752   29.4461   51.7812 H   0  0  0  0  0  0  0  0  0  0  0  0
   34.2028   28.4827   50.4877 H   0  0  0  0  0  0  0  0  0  0  0  0
   34.0784   28.7769   48.7197 H   0  0  0  0  0  0  0  0  0  0  0  0
   32.4358   27.0207   48.0493 Cl  0  0  0  0  0  0  0  0  0  0  0  0
   33.8661   26.1833   48.6264 C   0  0  0  0  0  0  0  0  0  0  0  0
   34.8675   26.8521   49.2927 C   0  0  0  0  0  0  0  0  0  0  0  0
   35.9891   26.1782   49.7409 C   0  0  0  0  0  0  0  0  0  0  0  0
   36.7723   26.6896   50.2603 H   0  0  0  0  0  0  0  0  0  0  0  0
   36.0552   24.8071   49.4883 C   0  0  0  0  0  0  0  0  0  0  0  0
   35.0553   24.1110   48.8170 C   0  0  0  0  0  0  0  0  0  0  0  0
   35.1783   22.3903   48.5230 Cl  0  0  0  0  0  0  0  0  0  0  0  0
   33.9507   24.8362   48.3886 C   0  0  0  0  0  0  0  0  0  0  0  0
   33.1652   24.2770   47.8589 H   0  0  0  0  0  0  0  0  0  0  0  0
   36.9027   24.2227   49.8121 H   0  0  0  0  0  0  0  0  0  0  0  0
  1  7  1  0
  1  2  2  0
  3  2  1  0
  4  3  2  0
  5  4  1  0
  5  6  2  0
  6  1  1  0
  7  9  1  0
  8  7  1  0
  8  9  1  0
 10  8  1  0
  2 11  1  0
  3 12  1  0
  5 13  1  0
  7 14  1  1
  8 15  1  6
  9 16  1  0
  9 17  1  0
 10 18  1  0
 10 19  1  0
 20 21  1  0
 21 22  2  0
 22 23  1  0
 23 24  1  0
 23 25  2  0
 25 26  1  0
 26 27  1  0
 26 28  2  0
 28 29  1  0
 28 21  1  0
 25 30  1  0
 10 22  1  0
M  ISO  8  11  14  12  14  13  14  14  13  15  13  16  13  17  13  18   8
M  ISO  3  19   8  24  16  29  15
M  END
>  <DihAtoms>  (1) 
7,9,21,20

>  <DihDeg>  (1) 
-75.90674458418233

$$$$
