
 OpenBabel03262523163D

 40 43  0  0  0  0  0  0  0  0999 V2000
   34.6460   28.8960   48.4070 C   0  0  0  0  0  0  0  0  0  0  0  0
   34.2570   27.6560   48.8750 C   0  0  0  0  0  0  0  0  0  0  0  0
   33.1120   27.1820   48.2880 C   0  0  0  0  0  0  0  0  0  0  0  0
   32.4130   27.8720   47.3220 C   0  0  0  0  0  0  0  0  0  0  0  0
   32.8780   29.0960   46.9230 C   0  0  0  0  0  0  0  0  0  0  0  0
   33.9950   29.5970   47.4730 N   0  0  0  0  0  0  0  0  0  0  0  0
   34.8170   27.1290   49.6320 H   0  0  0  0  0  0  0  0  0  0  0  0
   32.7520   26.1950   48.6210 H   0  0  0  0  0  0  0  0  0  0  0  0
   31.5340   27.3930   46.9330 H   0  0  0  0  0  0  0  0  0  0  0  0
   29.8510   29.0620   47.0330 Cl  0  0  0  0  0  0  0  0  0  0  0  0
   30.8110   29.9230   45.8730 C   0  0  0  0  0  0  0  0  0  0  0  0
   32.1820   29.8710   45.9130 C   0  0  0  0  0  0  0  0  0  0  0  0
   32.8130   30.6110   44.9220 C   0  0  0  0  0  0  0  0  0  0  0  0
   32.1680   31.3450   43.9680 C   0  0  0  0  0  0  0  0  0  0  0  0
   30.7810   31.3720   43.9610 C   0  0  0  0  0  0  0  0  0  0  0  0
   29.9330   32.3010   42.7530 Cl  0  0  0  0  0  0  0  0  0  0  0  0
   30.1110   30.6550   44.9220 C   0  0  0  0  0  0  0  0  0  0  0  0
   33.8940   30.6140   44.8950 H   0  0  0  0  0  0  0  0  0  0  0  0
   32.6790   31.9090   43.2130 H   0  0  0  0  0  0  0  0  0  0  0  0
   29.0300   30.6890   44.8990 H   0  0  0  0  0  0  0  0  0  0  0  0
   37.3290   29.8650   50.7340 C   0  0  0  0  0  0  0  0  0  0  0  0
   38.1480   30.6610   49.9360 C   0  0  0  0  0  0  0  0  0  0  0  0
   37.7910   30.8620   48.6240 C   0  0  0  0  0  0  0  0  0  0  0  0
   36.6530   30.2620   48.2060 N   0  0  0  0  0  0  0  0  0  0  0  0
   35.8650   29.5010   48.9650 C   0  0  0  0  0  0  0  0  0  0  0  0
   36.2290   29.3160   50.2380 N   0  0  0  0  0  0  0  0  0  0  0  0
   39.0130   31.0730   50.3310 H   0  0  0  0  0  0  0  0  0  0  0  0
   39.0940   33.6480   49.2490 Cl  0  0  0  0  0  0  0  0  0  0  0  0
   39.1180   32.8400   47.7220 C   0  0  0  0  0  0  0  0  0  0  0  0
   38.4930   31.6250   47.6210 C   0  0  0  0  0  0  0  0  0  0  0  0
   38.5660   31.1170   46.3390 C   0  0  0  0  0  0  0  0  0  0  0  0
   38.1220   30.1480   46.0570 H   0  0  0  0  0  0  0  0  0  0  0  0
   39.1900   31.7480   45.2870 C   0  0  0  0  0  0  0  0  0  0  0  0
   39.8000   32.9660   45.4580 C   0  0  0  0  0  0  0  0  0  0  0  0
   40.5830   33.7430   44.1050 Cl  0  0  0  0  0  0  0  0  0  0  0  0
   39.7520   33.5090   46.7090 C   0  0  0  0  0  0  0  0  0  0  0  0
   40.2290   34.4670   46.8500 H   0  0  0  0  0  0  0  0  0  0  0  0
   37.6250   29.5990   52.1230 N   0  0  0  0  0  0  0  0  0  0  0  0
   38.0050   28.6210   52.1540 H   0  0  0  0  0  0  0  0  0  0  0  0
   37.4840   30.2540   52.9060 H   0  0  0  0  0  0  0  0  0  0  0  0
  1  2  1  0  0  0  0
  1 25  1  0  0  0  0
  2  7  1  0  0  0  0
  3  8  1  0  0  0  0
  3  2  2  0  0  0  0
  4  3  1  0  0  0  0
  5  4  2  0  0  0  0
  5  6  1  0  0  0  0
  6  1  2  0  0  0  0
  9  4  1  0  0  0  0
 11 12  1  0  0  0  0
 11 10  1  0  0  0  0
 12  5  1  0  0  0  0
 13 12  2  0  0  0  0
 14 13  1  0  0  0  0
 15 14  2  0  0  0  0
 15 17  1  0  0  0  0
 16 15  1  0  0  0  0
 17 11  2  0  0  0  0
 18 13  1  0  0  0  0
 19 14  1  0  0  0  0
 20 17  1  0  0  0  0
 21 38  1  0  0  0  0
 22 27  1  0  0  0  0
 22 21  2  0  0  0  0
 23 22  1  0  0  0  0
 24 23  2  0  0  0  0
 24 25  1  0  0  0  0
 25 26  2  0  0  0  0
 26 21  1  0  0  0  0
 29 28  1  0  0  0  0
 30 29  1  0  0  0  0
 30 23  1  0  0  0  0
 31 30  2  0  0  0  0
 32 31  1  0  0  0  0
 33 34  2  0  0  0  0
 33 31  1  0  0  0  0
 34 36  1  0  0  0  0
 35 34  1  0  0  0  0
 36 37  1  0  0  0  0
 36 29  2  0  0  0  0
 38 39  1  0  0  0  0
 38 40  1  0  0  0  0
M  END
>  <minimizedAffinity>
-7.41319656

>  <minimizedRMSD>
0.942097425

$$$$
