
 OpenBabel03272504203D

 28 29  0  0  0  0  0  0  0  0999 V2000
   36.6090   27.2740   34.9910 O   0  0  0  0  0  0  0  0  0  0  0  0
   37.9660   26.6220   35.1530 P   0  0  2  0  0  0  0  0  0  0  0  0
   38.8660   27.6150   36.2190 O   0  0  0  0  0  0  0  0  0  0  0  0
   38.5170   27.4540   37.1360 H   0  0  0  0  0  0  0  0  0  0  0  0
   38.7680   26.5430   33.6600 O   0  0  0  0  0  0  0  0  0  0  0  0
   37.8720   26.8980   32.6810 C   0  0  0  0  0  0  0  0  0  0  0  0
   38.4480   27.3470   31.8230 H   0  0  0  0  0  0  0  0  0  0  0  0
   37.1400   27.6830   33.0250 H   0  0  0  0  0  0  0  0  0  0  0  0
   37.1290   25.7470   32.1210 C   0  0  0  0  0  0  0  0  0  0  0  0
   35.8920   26.0010   31.5210 C   0  0  0  0  0  0  0  0  0  0  0  0
   35.1620   24.9330   30.9820 C   0  0  0  0  0  0  0  0  0  0  0  0
   35.7220   23.6810   31.0790 N   0  0  0  0  0  0  0  0  0  0  0  0
   36.9130   23.4770   31.6630 C   0  0  0  0  0  0  0  0  0  0  0  0
   37.6180   24.4880   32.1820 N   0  0  0  0  0  0  0  0  0  0  0  0
   35.5250   27.0080   31.4860 H   0  0  0  0  0  0  0  0  0  0  0  0
   34.2100   25.1150   30.5180 H   0  0  0  0  0  0  0  0  0  0  0  0
   37.2970   22.4660   31.7070 H   0  0  0  0  0  0  0  0  0  0  0  0
   37.7610   25.0870   35.8070 O   0  0  0  0  0  0  0  0  0  0  0  0
   37.8280   24.5040   38.6550 Cl  0  0  0  0  0  0  0  0  0  0  0  0
   38.8370   23.8190   37.3780 C   0  0  0  0  0  0  0  0  0  0  0  0
   38.7490   24.1490   36.0210 C   0  0  0  0  0  0  0  0  0  0  0  0
   39.6060   23.5310   35.1380 C   0  0  0  0  0  0  0  0  0  0  0  0
   39.4570   23.8530   34.1280 H   0  0  0  0  0  0  0  0  0  0  0  0
   40.5240   22.6140   35.5820 C   0  0  0  0  0  3  0  0  0  0  0  0
   40.6290   22.2700   36.9310 C   0  0  0  0  0  0  0  0  0  0  0  0
   41.8130   21.0970   37.4510 Cl  0  0  0  0  0  0  0  0  0  0  0  0
   39.7720   22.8870   37.8220 C   0  0  0  0  0  0  0  0  0  0  0  0
   39.8800   22.5980   38.8570 H   0  0  0  0  0  0  0  0  0  0  0  0
  2  1  2  6  0  0  0
  2 18  1  0  0  0  0
  2  3  1  0  0  0  0
  3  4  1  0  0  0  0
  5  2  1  0  0  0  0
  6  8  1  0  0  0  0
  6  5  1  0  0  0  0
  7  6  1  0  0  0  0
  9 14  1  0  0  0  0
  9  6  1  0  0  0  0
 10  9  2  0  0  0  0
 11 12  2  0  0  0  0
 11 10  1  0  0  0  0
 12 13  1  0  0  0  0
 13 17  1  0  0  0  0
 13 14  2  0  0  0  0
 15 10  1  0  0  0  0
 16 11  1  0  0  0  0
 18 21  1  0  0  0  0
 20 27  1  0  0  0  0
 20 19  1  0  0  0  0
 21 20  2  0  0  0  0
 22 24  2  0  0  0  0
 22 21  1  0  0  0  0
 23 22  1  0  0  0  0
 24 25  1  0  0  0  0
 25 26  1  0  0  0  0
 25 27  2  0  0  0  0
 27 28  1  0  0  0  0
M  END
>  <minimizedAffinity>
-5.26212502

$$$$

 OpenBabel03272504203D

 28 29  0  0  0  0  0  0  0  0999 V2000
   36.2370   26.7360   32.3210 O   0  0  0  0  0  0  0  0  0  0  0  0
   37.0880   25.5430   31.9400 P   0  0  2  0  0  0  0  0  0  0  0  0
   37.7230   25.8680   30.3830 O   0  0  0  0  0  0  0  0  0  0  0  0
   38.4510   26.5350   30.4960 H   0  0  0  0  0  0  0  0  0  0  0  0
   36.1400   24.1370   31.8690 O   0  0  0  0  0  0  0  0  0  0  0  0
   36.7890   23.2320   31.0640 C   0  0  0  0  0  0  0  0  0  0  0  0
   37.8810   23.2380   31.3390 H   0  0  0  0  0  0  0  0  0  0  0  0
   36.7280   23.4990   29.9700 H   0  0  0  0  0  0  0  0  0  0  0  0
   36.3240   21.8390   31.2550 C   0  0  0  0  0  0  0  0  0  0  0  0
   35.2340   21.6290   32.1040 C   0  0  0  0  0  0  0  0  0  0  0  0
   34.7690   20.3220   32.3070 C   0  0  0  0  0  0  0  0  0  0  0  0
   35.4280   19.3140   31.6440 N   0  0  0  0  0  0  0  0  0  0  0  0
   36.4720   19.5570   30.8370 C   0  0  0  0  0  0  0  0  0  0  0  0
   36.9250   20.7980   30.6360 N   0  0  0  0  0  0  0  0  0  0  0  0
   34.7750   22.4700   32.5840 H   0  0  0  0  0  0  0  0  0  0  0  0
   33.9310   20.1460   32.9580 H   0  0  0  0  0  0  0  0  0  0  0  0
   36.9460   18.7170   30.3450 H   0  0  0  0  0  0  0  0  0  0  0  0
   38.3290   25.3750   33.0600 O   0  0  0  0  0  0  0  0  0  0  0  0
   38.2290   27.4060   35.1380 Cl  0  0  0  0  0  0  0  0  0  0  0  0
   38.2020   25.6500   35.3280 C   0  0  0  0  0  0  0  0  0  0  0  0
   38.2540   24.7280   34.2750 C   0  0  0  0  0  0  0  0  0  0  0  0
   38.2250   23.3850   34.5780 C   0  0  0  0  0  0  0  0  0  0  0  0
   38.2700   22.7670   33.7050 H   0  0  0  0  0  0  0  0  0  0  0  0
   38.1470   22.9650   35.8800 C   0  0  0  0  0  3  0  0  0  0  0  0
   38.0940   23.8660   36.9450 C   0  0  0  0  0  0  0  0  0  0  0  0
   37.9960   23.2850   38.5890 Cl  0  0  0  0  0  0  0  0  0  0  0  0
   38.1230   25.2150   36.6480 C   0  0  0  0  0  0  0  0  0  0  0  0
   38.0810   25.8860   37.4950 H   0  0  0  0  0  0  0  0  0  0  0  0
  2  1  2  1  0  0  0
  2 18  1  0  0  0  0
  3  4  1  0  0  0  0
  3  2  1  0  0  0  0
  5  2  1  0  0  0  0
  6  9  1  0  0  0  0
  6  7  1  0  0  0  0
  6  5  1  0  0  0  0
  8  6  1  0  0  0  0
  9 10  1  0  0  0  0
 10 11  2  0  0  0  0
 10 15  1  0  0  0  0
 11 16  1  0  0  0  0
 12 11  1  0  0  0  0
 13 12  2  0  0  0  0
 14 13  1  0  0  0  0
 14  9  2  0  0  0  0
 17 13  1  0  0  0  0
 18 21  1  0  0  0  0
 19 20  1  0  0  0  0
 20 27  1  0  0  0  0
 21 22  1  0  0  0  0
 21 20  2  0  0  0  0
 22 24  2  0  0  0  0
 23 22  1  0  0  0  0
 24 25  1  0  0  0  0
 25 26  1  0  0  0  0
 27 25  2  0  0  0  0
 27 28  1  0  0  0  0
M  END
>  <minimizedAffinity>
-4.86872292

$$$$

 OpenBabel03272504203D

 28 29  0  0  0  0  0  0  0  0999 V2000
   36.6210   27.1670   34.9750 O   0  0  0  0  0  0  0  0  0  0  0  0
   37.9900   26.5300   35.0910 P   0  0  2  0  0  0  0  0  0  0  0  0
   38.9280   27.5570   36.0890 O   0  0  0  0  0  0  0  0  0  0  0  0
   38.6230   27.4160   37.0250 H   0  0  0  0  0  0  0  0  0  0  0  0
   38.7240   26.4200   33.5640 O   0  0  0  0  0  0  0  0  0  0  0  0
   37.7310   26.4730   32.6150 C   0  0  0  0  0  0  0  0  0  0  0  0
   36.9370   27.1850   32.9770 H   0  0  0  0  0  0  0  0  0  0  0  0
   37.2270   25.4770   32.4560 H   0  0  0  0  0  0  0  0  0  0  0  0
   38.1940   27.0020   31.3120 C   0  0  0  0  0  0  0  0  0  0  0  0
   37.4850   28.0700   30.7550 C   0  0  0  0  0  0  0  0  0  0  0  0
   37.8980   28.5930   29.5210 C   0  0  0  0  0  0  0  0  0  0  0  0
   38.9940   28.0100   28.9290 N   0  0  0  0  0  0  0  0  0  0  0  0
   39.6470   26.9850   29.4960 C   0  0  0  0  0  0  0  0  0  0  0  0
   39.2640   26.4770   30.6720 N   0  0  0  0  0  0  0  0  0  0  0  0
   36.6410   28.4670   31.2800 H   0  0  0  0  0  0  0  0  0  0  0  0
   37.3610   29.4140   29.0820 H   0  0  0  0  0  0  0  0  0  0  0  0
   40.5030   26.5720   28.9780 H   0  0  0  0  0  0  0  0  0  0  0  0
   37.8300   25.0110   35.7910 O   0  0  0  0  0  0  0  0  0  0  0  0
   37.9190   24.3860   38.6300 Cl  0  0  0  0  0  0  0  0  0  0  0  0
   38.9360   23.7390   37.3390 C   0  0  0  0  0  0  0  0  0  0  0  0
   38.8350   24.0880   35.9870 C   0  0  0  0  0  0  0  0  0  0  0  0
   39.7000   23.5000   35.0910 C   0  0  0  0  0  0  0  0  0  0  0  0
   39.5410   23.8340   34.0860 H   0  0  0  0  0  0  0  0  0  0  0  0
   40.6370   22.5940   35.5180 C   0  0  0  0  0  3  0  0  0  0  0  0
   40.7550   22.2320   36.8610 C   0  0  0  0  0  0  0  0  0  0  0  0
   41.9630   21.0730   37.3590 Cl  0  0  0  0  0  0  0  0  0  0  0  0
   39.8900   22.8190   37.7640 C   0  0  0  0  0  0  0  0  0  0  0  0
   40.0080   22.5160   38.7950 H   0  0  0  0  0  0  0  0  0  0  0  0
  2  1  2  6  0  0  0
  2 18  1  0  0  0  0
  2  3  1  0  0  0  0
  3  4  1  0  0  0  0
  5  2  1  0  0  0  0
  6  7  1  0  0  0  0
  6  5  1  0  0  0  0
  8  6  1  0  0  0  0
  9  6  1  0  0  0  0
 10 15  1  0  0  0  0
 10  9  1  0  0  0  0
 11 10  2  0  0  0  0
 12 13  2  0  0  0  0
 12 11  1  0  0  0  0
 13 14  1  0  0  0  0
 14  9  2  0  0  0  0
 16 11  1  0  0  0  0
 17 13  1  0  0  0  0
 18 21  1  0  0  0  0
 20 27  1  0  0  0  0
 20 19  1  0  0  0  0
 21 20  2  0  0  0  0
 22 24  2  0  0  0  0
 22 21  1  0  0  0  0
 23 22  1  0  0  0  0
 24 25  1  0  0  0  0
 25 26  1  0  0  0  0
 25 27  2  0  0  0  0
 27 28  1  0  0  0  0
M  END
>  <minimizedAffinity>
-4.74087334

$$$$

 OpenBabel03272504203D

 28 29  0  0  0  0  0  0  0  0999 V2000
   38.1230   26.1330   30.6050 O   0  0  0  0  0  0  0  0  0  0  0  0
   37.0140   25.2540   31.1430 P   0  0  2  0  0  0  0  0  0  0  0  0
   35.5650   25.7730   30.3930 O   0  0  0  0  0  0  0  0  0  0  0  0
   35.5790   25.4330   29.4600 H   0  0  0  0  0  0  0  0  0  0  0  0
   36.8680   25.4470   32.8230 O   0  0  0  0  0  0  0  0  0  0  0  0
   38.1070   25.2410   33.3800 C   0  0  0  0  0  0  0  0  0  0  0  0
   38.5240   26.2410   33.6900 H   0  0  0  0  0  0  0  0  0  0  0  0
   38.8430   24.7950   32.6520 H   0  0  0  0  0  0  0  0  0  0  0  0
   38.0680   24.4140   34.6070 C   0  0  0  0  0  0  0  0  0  0  0  0
   37.9860   25.0760   35.8350 C   0  0  0  0  0  0  0  0  0  0  0  0
   37.9480   24.3210   37.0160 C   0  0  0  0  0  0  0  0  0  0  0  0
   37.9940   22.9530   36.8860 N   0  0  0  0  0  0  0  0  0  0  0  0
   38.0750   22.3550   35.6880 C   0  0  0  0  0  0  0  0  0  0  0  0
   38.1120   23.0630   34.5550 N   0  0  0  0  0  0  0  0  0  0  0  0
   37.9540   26.1460   35.8510 H   0  0  0  0  0  0  0  0  0  0  0  0
   37.8840   24.8170   37.9680 H   0  0  0  0  0  0  0  0  0  0  0  0
   38.1080   21.2730   35.6550 H   0  0  0  0  0  0  0  0  0  0  0  0
   37.3420   23.6540   30.7490 O   0  0  0  0  0  0  0  0  0  0  0  0
   38.9180   21.3210   30.0200 Cl  0  0  0  0  0  0  0  0  0  0  0  0
   37.4010   21.3730   30.9240 C   0  0  0  0  0  0  0  0  0  0  0  0
   36.6950   22.5390   31.2390 C   0  0  0  0  0  0  0  0  0  0  0  0
   35.5220   22.4240   31.9520 C   0  0  0  0  0  0  0  0  0  0  0  0
   35.0610   23.3720   32.1400 H   0  0  0  0  0  0  0  0  0  0  0  0
   35.0600   21.1930   32.3410 C   0  0  0  0  0  3  0  0  0  0  0  0
   35.7490   20.0170   32.0380 C   0  0  0  0  0  0  0  0  0  0  0  0
   35.1230   18.4700   32.5540 Cl  0  0  0  0  0  0  0  0  0  0  0  0
   36.9260   20.1260   31.3230 C   0  0  0  0  0  0  0  0  0  0  0  0
   37.4330   19.1980   31.1040 H   0  0  0  0  0  0  0  0  0  0  0  0
  2  1  2  6  0  0  0
  2  5  1  0  0  0  0
  3  2  1  0  0  0  0
  4  3  1  0  0  0  0
  5  6  1  0  0  0  0
  6  7  1  0  0  0  0
  6  9  1  0  0  0  0
  8  6  1  0  0  0  0
  9 10  1  0  0  0  0
 10 15  1  0  0  0  0
 10 11  2  0  0  0  0
 11 16  1  0  0  0  0
 12 11  1  0  0  0  0
 13 12  2  0  0  0  0
 14  9  2  0  0  0  0
 14 13  1  0  0  0  0
 17 13  1  0  0  0  0
 18  2  1  0  0  0  0
 18 21  1  0  0  0  0
 19 20  1  0  0  0  0
 20 21  2  0  0  0  0
 20 27  1  0  0  0  0
 21 22  1  0  0  0  0
 22 23  1  0  0  0  0
 22 24  2  0  0  0  0
 25 24  1  0  0  0  0
 25 26  1  0  0  0  0
 27 25  2  0  0  0  0
 28 27  1  0  0  0  0
M  END
>  <minimizedAffinity>
-4.73658752

$$$$

 OpenBabel03272504203D

 28 29  0  0  0  0  0  0  0  0999 V2000
   36.5630   27.6170   34.9060 O   0  0  0  0  0  0  0  0  0  0  0  0
   37.9290   26.9690   34.8210 P   0  0  2  0  0  0  0  0  0  0  0  0
   38.8370   27.5580   36.1480 O   0  0  0  0  0  0  0  0  0  0  0  0
   38.5060   27.0920   36.9610 H   0  0  0  0  0  0  0  0  0  0  0  0
   38.7060   27.4100   33.3780 O   0  0  0  0  0  0  0  0  0  0  0  0
   37.9120   27.0060   32.3320 C   0  0  0  0  0  0  0  0  0  0  0  0
   36.9600   26.5810   32.7570 H   0  0  0  0  0  0  0  0  0  0  0  0
   38.3850   26.1880   31.7160 H   0  0  0  0  0  0  0  0  0  0  0  0
   37.5060   28.1170   31.4410 C   0  0  0  0  0  0  0  0  0  0  0  0
   38.2900   28.3620   30.3100 C   0  0  0  0  0  0  0  0  0  0  0  0
   37.9330   29.4070   29.4460 C   0  0  0  0  0  0  0  0  0  0  0  0
   36.8140   30.1360   29.7750 N   0  0  0  0  0  0  0  0  0  0  0  0
   36.0890   29.8700   30.8720 C   0  0  0  0  0  0  0  0  0  0  0  0
   36.4180   28.8770   31.7030 N   0  0  0  0  0  0  0  0  0  0  0  0
   39.1470   27.7470   30.1250 H   0  0  0  0  0  0  0  0  0  0  0  0
   38.5260   29.6060   28.5720 H   0  0  0  0  0  0  0  0  0  0  0  0
   35.2190   30.4830   31.0730 H   0  0  0  0  0  0  0  0  0  0  0  0
   37.7520   25.3010   34.9220 O   0  0  0  0  0  0  0  0  0  0  0  0
   39.8250   24.1260   33.2550 Cl  0  0  0  0  0  0  0  0  0  0  0  0
   39.5120   23.8400   34.9700 C   0  0  0  0  0  0  0  0  0  0  0  0
   38.4900   24.4440   35.7110 C   0  0  0  0  0  0  0  0  0  0  0  0
   38.3680   24.1220   37.0440 C   0  0  0  0  0  0  0  0  0  0  0  0
   37.5580   24.6370   37.5190 H   0  0  0  0  0  0  0  0  0  0  0  0
   39.2300   23.2300   37.6290 C   0  0  0  0  0  3  0  0  0  0  0  0
   40.2560   22.6150   36.9080 C   0  0  0  0  0  0  0  0  0  0  0  0
   41.3300   21.4840   37.6940 Cl  0  0  0  0  0  0  0  0  0  0  0  0
   40.3830   22.9340   35.5700 C   0  0  0  0  0  0  0  0  0  0  0  0
   41.1870   22.4420   35.0420 H   0  0  0  0  0  0  0  0  0  0  0  0
  2  1  2  1  0  0  0
  2 18  1  0  0  0  0
  2  3  1  0  0  0  0
  3  4  1  0  0  0  0
  5  2  1  0  0  0  0
  6  7  1  0  0  0  0
  6  5  1  0  0  0  0
  8  6  1  0  0  0  0
  9 14  1  0  0  0  0
  9  6  1  0  0  0  0
 10  9  2  0  0  0  0
 11 12  2  0  0  0  0
 11 10  1  0  0  0  0
 12 13  1  0  0  0  0
 13 17  1  0  0  0  0
 13 14  2  0  0  0  0
 15 10  1  0  0  0  0
 16 11  1  0  0  0  0
 18 21  1  0  0  0  0
 19 20  1  0  0  0  0
 20 27  2  0  0  0  0
 20 21  1  0  0  0  0
 21 22  2  0  0  0  0
 22 23  1  0  0  0  0
 22 24  1  0  0  0  0
 25 24  2  0  0  0  0
 25 26  1  0  0  0  0
 27 25  1  0  0  0  0
 28 27  1  0  0  0  0
M  END
>  <minimizedAffinity>
-4.65003586

$$$$

 OpenBabel03272504203D

 28 29  0  0  0  0  0  0  0  0999 V2000
   37.1930   26.3800   31.3920 O   0  0  0  0  0  0  0  0  0  0  0  0
   37.3390   24.8830   31.5690 P   0  0  2  0  0  0  0  0  0  0  0  0
   37.8140   24.2510   30.0500 O   0  0  0  0  0  0  0  0  0  0  0  0
   38.7740   24.4770   29.9250 H   0  0  0  0  0  0  0  0  0  0  0  0
   35.8550   24.1910   32.0160 O   0  0  0  0  0  0  0  0  0  0  0  0
   35.5290   23.2470   31.0730 C   0  0  0  0  0  0  0  0  0  0  0  0
   36.1210   23.4640   30.1400 H   0  0  0  0  0  0  0  0  0  0  0  0
   34.4400   23.2790   30.7820 H   0  0  0  0  0  0  0  0  0  0  0  0
   35.8880   21.8680   31.4770 C   0  0  0  0  0  0  0  0  0  0  0  0
   35.1910   21.3030   32.5490 C   0  0  0  0  0  0  0  0  0  0  0  0
   35.5060   19.9990   32.9570 C   0  0  0  0  0  0  0  0  0  0  0  0
   36.4990   19.3500   32.2620 N   0  0  0  0  0  0  0  0  0  0  0  0
   37.1460   19.9270   31.2380 C   0  0  0  0  0  0  0  0  0  0  0  0
   36.8550   21.1700   30.8400 N   0  0  0  0  0  0  0  0  0  0  0  0
   34.4300   21.8770   33.0380 H   0  0  0  0  0  0  0  0  0  0  0  0
   34.9780   19.5530   33.7790 H   0  0  0  0  0  0  0  0  0  0  0  0
   37.9180   19.3610   30.7330 H   0  0  0  0  0  0  0  0  0  0  0  0
   38.5170   24.5800   32.7280 O   0  0  0  0  0  0  0  0  0  0  0  0
   38.5690   21.9290   33.9210 Cl  0  0  0  0  0  0  0  0  0  0  0  0
   38.4000   23.4870   34.7350 C   0  0  0  0  0  0  0  0  0  0  0  0
   38.3820   24.7310   34.0920 C   0  0  0  0  0  0  0  0  0  0  0  0
   38.2420   25.8650   34.8610 C   0  0  0  0  0  0  0  0  0  0  0  0
   38.2410   26.7610   34.2740 H   0  0  0  0  0  0  0  0  0  0  0  0
   38.1230   25.7740   36.2240 C   0  0  0  0  0  3  0  0  0  0  0  0
   38.1370   24.5450   36.8850 C   0  0  0  0  0  0  0  0  0  0  0  0
   37.9820   24.4760   38.6230 Cl  0  0  0  0  0  0  0  0  0  0  0  0
   38.2770   23.4030   36.1200 C   0  0  0  0  0  0  0  0  0  0  0  0
   38.2850   22.4690   36.6620 H   0  0  0  0  0  0  0  0  0  0  0  0
  2  1  2  6  0  0  0
  2  5  1  0  0  0  0
  2 18  1  0  0  0  0
  3  2  1  0  0  0  0
  4  3  1  0  0  0  0
  6  9  1  0  0  0  0
  6  5  1  0  0  0  0
  7  6  1  0  0  0  0
  8  6  1  0  0  0  0
  9 10  1  0  0  0  0
 10 11  2  0  0  0  0
 10 15  1  0  0  0  0
 11 16  1  0  0  0  0
 12 11  1  0  0  0  0
 13 12  2  0  0  0  0
 14 13  1  0  0  0  0
 14  9  2  0  0  0  0
 17 13  1  0  0  0  0
 18 21  1  0  0  0  0
 19 20  1  0  0  0  0
 20 27  1  0  0  0  0
 21 20  2  0  0  0  0
 21 22  1  0  0  0  0
 22 24  2  0  0  0  0
 23 22  1  0  0  0  0
 24 25  1  0  0  0  0
 25 26  1  0  0  0  0
 27 28  1  0  0  0  0
 27 25  2  0  0  0  0
M  END
>  <minimizedAffinity>
-4.63827753

$$$$

 OpenBabel03272504203D

 28 29  0  0  0  0  0  0  0  0999 V2000
   39.7080   24.9940   32.2230 O   0  0  0  0  0  0  0  0  0  0  0  0
   39.1990   24.5510   33.5780 P   0  0  2  0  0  0  0  0  0  0  0  0
   40.2630   25.2150   34.7450 O   0  0  0  0  0  0  0  0  0  0  0  0
   40.0490   26.1830   34.8190 H   0  0  0  0  0  0  0  0  0  0  0  0
   39.2310   22.8590   33.7000 O   0  0  0  0  0  0  0  0  0  0  0  0
   38.2420   22.4800   34.5750 C   0  0  0  0  0  0  0  0  0  0  0  0
   38.0860   21.3700   34.4710 H   0  0  0  0  0  0  0  0  0  0  0  0
   37.2520   22.9700   34.3510 H   0  0  0  0  0  0  0  0  0  0  0  0
   38.5940   22.7160   35.9940 C   0  0  0  0  0  0  0  0  0  0  0  0
   37.5950   23.2070   36.8390 C   0  0  0  0  0  0  0  0  0  0  0  0
   37.8960   23.4410   38.1880 C   0  0  0  0  0  0  0  0  0  0  0  0
   39.1790   23.1670   38.5990 N   0  0  0  0  0  0  0  0  0  0  0  0
   40.1110   22.6960   37.7570 C   0  0  0  0  0  0  0  0  0  0  0  0
   39.8370   22.4690   36.4680 N   0  0  0  0  0  0  0  0  0  0  0  0
   36.6190   23.3960   36.4390 H   0  0  0  0  0  0  0  0  0  0  0  0
   37.1360   23.8190   38.8480 H   0  0  0  0  0  0  0  0  0  0  0  0
   41.1020   22.5010   38.1450 H   0  0  0  0  0  0  0  0  0  0  0  0
   37.6400   25.1400   33.7980 O   0  0  0  0  0  0  0  0  0  0  0  0
   37.7660   27.5480   35.4230 Cl  0  0  0  0  0  0  0  0  0  0  0  0
   37.0650   27.3540   33.8130 C   0  0  0  0  0  0  0  0  0  0  0  0
   37.0410   26.1580   33.0870 C   0  0  0  0  0  0  0  0  0  0  0  0
   36.4580   26.1590   31.8400 C   0  0  0  0  0  0  0  0  0  0  0  0
   36.4920   25.1980   31.3700 H   0  0  0  0  0  0  0  0  0  0  0  0
   35.9160   27.3080   31.3240 C   0  0  0  0  0  3  0  0  0  0  0  0
   35.9290   28.5120   32.0310 C   0  0  0  0  0  0  0  0  0  0  0  0
   35.2260   29.9510   31.3350 Cl  0  0  0  0  0  0  0  0  0  0  0  0
   36.5120   28.5170   33.2830 C   0  0  0  0  0  0  0  0  0  0  0  0
   36.5060   29.4640   33.8030 H   0  0  0  0  0  0  0  0  0  0  0  0
  2  1  2  6  0  0  0
  2  5  1  0  0  0  0
  2 18  1  0  0  0  0
  2  3  1  0  0  0  0
  3  4  1  0  0  0  0
  5  6  1  0  0  0  0
  6  9  1  0  0  0  0
  7  6  1  0  0  0  0
  8  6  1  0  0  0  0
  9 14  2  0  0  0  0
  9 10  1  0  0  0  0
 10 11  2  0  0  0  0
 11 12  1  0  0  0  0
 11 16  1  0  0  0  0
 13 17  1  0  0  0  0
 13 12  2  0  0  0  0
 14 13  1  0  0  0  0
 15 10  1  0  0  0  0
 20 19  1  0  0  0  0
 21 18  1  0  0  0  0
 21 20  2  0  0  0  0
 22 21  1  0  0  0  0
 23 22  1  0  0  0  0
 24 22  2  0  0  0  0
 24 25  1  0  0  0  0
 25 27  2  0  0  0  0
 26 25  1  0  0  0  0
 27 28  1  0  0  0  0
 27 20  1  0  0  0  0
M  END
>  <minimizedAffinity>
-4.55016661

$$$$

 OpenBabel03272504203D

 28 29  0  0  0  0  0  0  0  0999 V2000
   35.5480   26.7300   31.2480 O   0  0  0  0  0  0  0  0  0  0  0  0
   36.4410   27.9190   30.9700 P   0  0  2  0  0  0  0  0  0  0  0  0
   36.8010   27.8850   29.2960 O   0  0  0  0  0  0  0  0  0  0  0  0
   35.9900   28.1980   28.8150 H   0  0  0  0  0  0  0  0  0  0  0  0
   37.8870   27.7930   31.8500 O   0  0  0  0  0  0  0  0  0  0  0  0
   38.0700   26.4700   32.1720 C   0  0  0  0  0  0  0  0  0  0  0  0
   39.0610   26.1390   31.7500 H   0  0  0  0  0  0  0  0  0  0  0  0
   37.2840   25.7990   31.7190 H   0  0  0  0  0  0  0  0  0  0  0  0
   38.1410   26.2260   33.6300 C   0  0  0  0  0  0  0  0  0  0  0  0
   38.2810   27.3360   34.4680 C   0  0  0  0  0  0  0  0  0  0  0  0
   38.3520   27.1390   35.8550 C   0  0  0  0  0  0  0  0  0  0  0  0
   38.2770   25.8430   36.3070 N   0  0  0  0  0  0  0  0  0  0  0  0
   38.1430   24.8040   35.4700 C   0  0  0  0  0  0  0  0  0  0  0  0
   38.0750   24.9770   34.1460 N   0  0  0  0  0  0  0  0  0  0  0  0
   38.3320   28.3150   34.0350 H   0  0  0  0  0  0  0  0  0  0  0  0
   38.4600   27.9840   36.5110 H   0  0  0  0  0  0  0  0  0  0  0  0
   38.0900   23.8080   35.8910 H   0  0  0  0  0  0  0  0  0  0  0  0
   35.6170   29.3290   31.3670 O   0  0  0  0  0  0  0  0  0  0  0  0
   36.3760   32.1220   31.0850 Cl  0  0  0  0  0  0  0  0  0  0  0  0
   35.8990   31.2650   32.5540 C   0  0  0  0  0  0  0  0  0  0  0  0
   35.5450   29.9120   32.6140 C   0  0  0  0  0  0  0  0  0  0  0  0
   35.1950   29.3800   33.8350 C   0  0  0  0  0  0  0  0  0  0  0  0
   34.9420   28.3410   33.7730 H   0  0  0  0  0  0  0  0  0  0  0  0
   35.1940   30.1610   34.9620 C   0  0  0  0  0  3  0  0  0  0  0  0
   35.5430   31.5120   34.9250 C   0  0  0  0  0  0  0  0  0  0  0  0
   35.5280   32.4680   36.3860 Cl  0  0  0  0  0  0  0  0  0  0  0  0
   35.8960   32.0510   33.7030 C   0  0  0  0  0  0  0  0  0  0  0  0
   36.1600   33.0990   33.7080 H   0  0  0  0  0  0  0  0  0  0  0  0
  2  1  2  1  0  0  0
  2 18  1  0  0  0  0
  2  5  1  0  0  0  0
  3  2  1  0  0  0  0
  4  3  1  0  0  0  0
  5  6  1  0  0  0  0
  6  9  1  0  0  0  0
  7  6  1  0  0  0  0
  8  6  1  0  0  0  0
  9 14  2  0  0  0  0
  9 10  1  0  0  0  0
 10 11  2  0  0  0  0
 11 12  1  0  0  0  0
 11 16  1  0  0  0  0
 13 17  1  0  0  0  0
 13 12  2  0  0  0  0
 14 13  1  0  0  0  0
 15 10  1  0  0  0  0
 18 21  1  0  0  0  0
 19 20  1  0  0  0  0
 20 21  2  0  0  0  0
 20 27  1  0  0  0  0
 21 22  1  0  0  0  0
 22 24  2  0  0  0  0
 23 22  1  0  0  0  0
 25 24  1  0  0  0  0
 25 26  1  0  0  0  0
 27 28  1  0  0  0  0
 27 25  2  0  0  0  0
M  END
>  <minimizedAffinity>
-4.54184675

$$$$

 OpenBabel03272504203D

 28 29  0  0  0  0  0  0  0  0999 V2000
   36.0380   23.4940   31.8970 O   0  0  0  0  0  0  0  0  0  0  0  0
   37.4280   23.2190   32.4290 P   0  0  2  0  0  0  0  0  0  0  0  0
   38.2450   22.3120   31.2280 O   0  0  0  0  0  0  0  0  0  0  0  0
   38.4900   22.9420   30.5000 H   0  0  0  0  0  0  0  0  0  0  0  0
   37.3470   22.3030   33.8560 O   0  0  0  0  0  0  0  0  0  0  0  0
   38.6270   22.1530   34.3330 C   0  0  0  0  0  0  0  0  0  0  0  0
   39.3000   22.8500   33.7590 H   0  0  0  0  0  0  0  0  0  0  0  0
   39.0300   21.1120   34.1780 H   0  0  0  0  0  0  0  0  0  0  0  0
   38.7670   22.5250   35.7590 C   0  0  0  0  0  0  0  0  0  0  0  0
   40.0130   22.3290   36.3620 C   0  0  0  0  0  0  0  0  0  0  0  0
   40.1800   22.6710   37.7110 C   0  0  0  0  0  0  0  0  0  0  0  0
   39.0860   23.1870   38.3660 N   0  0  0  0  0  0  0  0  0  0  0  0
   37.9060   23.3590   37.7520 C   0  0  0  0  0  0  0  0  0  0  0  0
   37.7340   23.0370   36.4660 N   0  0  0  0  0  0  0  0  0  0  0  0
   40.8160   21.9220   35.7810 H   0  0  0  0  0  0  0  0  0  0  0  0
   41.1330   22.5260   38.1870 H   0  0  0  0  0  0  0  0  0  0  0  0
   37.0840   23.7700   38.3240 H   0  0  0  0  0  0  0  0  0  0  0  0
   38.2120   24.6820   32.6980 O   0  0  0  0  0  0  0  0  0  0  0  0
   37.5250   26.5870   30.6120 Cl  0  0  0  0  0  0  0  0  0  0  0  0
   37.3230   26.7620   32.3580 C   0  0  0  0  0  0  0  0  0  0  0  0
   37.6780   25.7970   33.3070 C   0  0  0  0  0  0  0  0  0  0  0  0
   37.4610   26.0760   34.6380 C   0  0  0  0  0  0  0  0  0  0  0  0
   37.7670   25.2750   35.2800 H   0  0  0  0  0  0  0  0  0  0  0  0
   36.9090   27.2710   35.0200 C   0  0  0  0  0  3  0  0  0  0  0  0
   36.5470   28.2470   34.0900 C   0  0  0  0  0  0  0  0  0  0  0  0
   35.8470   29.7560   34.6220 Cl  0  0  0  0  0  0  0  0  0  0  0  0
   36.7630   27.9740   32.7530 C   0  0  0  0  0  0  0  0  0  0  0  0
   36.4710   28.7500   32.0600 H   0  0  0  0  0  0  0  0  0  0  0  0
  2  1  2  6  0  0  0
  2 18  1  0  0  0  0
  2  5  1  0  0  0  0
  3  2  1  0  0  0  0
  4  3  1  0  0  0  0
  5  6  1  0  0  0  0
  6  9  1  0  0  0  0
  7  6  1  0  0  0  0
  8  6  1  0  0  0  0
  9 10  2  0  0  0  0
  9 14  1  0  0  0  0
 10 11  1  0  0  0  0
 11 16  1  0  0  0  0
 11 12  2  0  0  0  0
 13 17  1  0  0  0  0
 13 12  1  0  0  0  0
 14 13  2  0  0  0  0
 15 10  1  0  0  0  0
 18 21  1  0  0  0  0
 19 20  1  0  0  0  0
 20 27  2  0  0  0  0
 20 21  1  0  0  0  0
 21 22  2  0  0  0  0
 22 24  1  0  0  0  0
 22 23  1  0  0  0  0
 25 26  1  0  0  0  0
 25 24  2  0  0  0  0
 27 25  1  0  0  0  0
 28 27  1  0  0  0  0
M  END
>  <minimizedAffinity>
-4.52916145

$$$$
