REMARK  Name = 
REMARK  3 active torsions:
REMARK  status: ('A' for Active; 'I' for Inactive)
REMARK    1  A    between atoms: C_5  and  C_7
REMARK    2  A    between atoms: C_7  and  C_8
REMARK    3  A    between atoms: C_8  and  C_18
REMARK                            x       y       z     vdW  Elec       q    Type
REMARK                         _______ _______ _______ _____ _____    ______ ____
ROOT
ATOM      1  C   UNL     1      34.410  28.459  48.091  0.00  0.00    +0.000 C 
ATOM      2  H   UNL     1      35.303  28.130  47.523  0.00  0.00    +0.000 HD
ATOM      3  H   UNL     1      34.265  29.552  47.862  0.00  0.00    +0.000 HD
ENDROOT
BRANCH   1   6
ATOM      4 CL   UNL     1      32.974  26.706  50.157  0.00  0.00    +0.000 Cl
ATOM      5  C   UNL     1      32.525  26.808  48.466  0.00  0.00    +0.000 A 
ATOM      6  C   UNL     1      33.271  27.643  47.672  0.00  0.00    +0.000 A 
ATOM      7  C   UNL     1      32.844  27.664  46.337  0.00  0.00    +0.000 A 
ATOM      8  H   UNL     1      33.416  28.322  45.663  0.00  0.00    +0.000 HD
ATOM      9  C   UNL     1      31.786  26.942  45.812  0.00  0.00    +0.000 A 
ATOM     10  C   UNL     1      31.085  26.124  46.678  0.00  0.00    +0.000 A 
ATOM     11 CL   UNL     1      29.767  25.248  45.934  0.00  0.00    +0.000 Cl
ATOM     12  C   UNL     1      31.457  26.061  48.002  0.00  0.00    +0.000 A 
ATOM     13  H   UNL     1      30.874  25.406  48.629  0.00  0.00    +0.000 HD
ENDBRANCH   1   6
BRANCH   1  14
ATOM     14  C   UNL     1      34.771  28.311  49.544  0.00  0.00    +0.000 C 
ATOM     15  H   UNL     1      33.918  28.808  50.098  0.00  0.00    +0.000 HD
ATOM     16  H   UNL     1      34.879  27.265  49.859  0.00  0.00    +0.000 HD
BRANCH  14  21
ATOM     17  C   UNL     1      37.308  30.197  51.443  0.00  0.00    +0.000 A 
ATOM     18  C   UNL     1      38.093  30.723  50.417  0.00  0.00    +0.000 A 
ATOM     19  C   UNL     1      37.755  30.435  49.062  0.00  0.00    +0.000 A 
ATOM     20  N   UNL     1      36.666  29.651  48.855  0.00  0.00    +0.000 NA
ATOM     21  C   UNL     1      35.941  29.168  49.888  0.00  0.00    +0.000 A 
ATOM     22  N   UNL     1      36.255  29.436  51.165  0.00  0.00    +0.000 NA
ATOM     23  H   UNL     1      37.668  30.488  52.423  0.00  0.00    +0.000 HD
ATOM     24  H   UNL     1      38.979  31.359  50.507  0.00  0.00    +0.000 HD
ATOM     25  H   UNL     1      38.282  30.783  48.193  0.00  0.00    +0.000 HD
ENDBRANCH  14  21
ENDBRANCH   1  14
TORSDOF 3
