
 OpenBabel03262522153D

 46 49  0  0  1  0  0  0  0  0999 V2000
   39.3710   33.0760   43.9130 C   0  0  0  0  0  0  0  0  0  0  0  0
   39.2700   33.9220   43.1850 H   0  0  0  0  0  0  0  0  0  0  0  0
   38.3650   32.7460   44.1910 H   0  0  0  0  0  0  0  0  0  0  0  0
   39.3300   29.7460   42.7020 C   0  0  1  0  0  0  0  0  0  0  0  0
   39.0360   31.1900   42.3210 C   0  0  0  0  0  0  0  0  0  0  0  0
   40.0290   31.9150   43.2010 C   0  0  2  0  0  0  0  0  0  0  0  0
   40.5870   31.0220   44.0630 O   0  0  0  0  0  0  0  0  0  0  0  0
   39.7460   29.9220   44.1550 C   0  0  0  0  0  0  0  0  0  0  0  0
   40.1630   29.3670   42.0870 H   0  0  0  0  0  0  0  0  0  0  0  0
   39.3030   31.3670   41.2540 H   0  0  0  0  0  0  0  0  0  0  0  0
   38.0050   31.4800   42.5810 H   0  0  0  0  0  0  0  0  0  0  0  0
   40.8460   32.3460   42.5750 H   0  0  0  0  0  0  0  0  0  0  0  0
   38.8070   30.1770   44.6990 H   0  0  0  0  0  0  0  0  0  0  0  0
   40.2570   29.0380   44.5520 H   0  0  0  0  0  0  0  0  0  0  0  0
   38.2020   28.9590   42.5900 O   0  0  0  0  0  0  0  0  0  0  0  0
   35.4090   28.1150   42.5210 Cl  0  0  0  0  0  0  0  0  0  0  0  0
   36.7870   27.0800   42.8140 C   0  0  0  0  0  0  0  0  0  0  0  0
   38.0510   27.6270   42.8170 C   0  0  0  0  0  0  0  0  0  0  0  0
   39.0740   26.7460   43.0540 C   0  0  0  0  0  0  0  0  0  0  0  0
   40.0860   27.1040   43.0700 H   0  0  0  0  0  0  0  0  0  0  0  0
   38.8740   25.4170   43.2760 C   0  0  0  0  0  3  0  0  0  0  0  0
   37.5900   24.9120   43.2660 C   0  0  0  0  0  0  0  0  0  0  0  0
   37.2970   23.2100   43.5470 Cl  0  0  0  0  0  0  0  0  0  0  0  0
   36.5280   25.7570   43.0310 C   0  0  0  0  0  0  0  0  0  0  0  0
   35.5100   25.3640   43.0210 H   0  0  0  0  0  0  0  0  0  0  0  0
   40.4270   33.5340   45.3100 S   0  0  0  0  0  0  0  0  0  0  0  0
   37.7760   31.8490   47.7560 C   0  0  0  0  0  0  0  0  0  0  0  0
   37.9790   32.5200   48.9710 C   0  0  0  0  0  0  0  0  0  0  0  0
   38.9280   33.5120   49.1010 C   0  0  0  0  0  0  0  0  0  0  0  0
   39.6610   33.8020   47.9700 C   0  0  0  0  0  0  0  0  0  0  0  0
   39.4510   33.1420   46.8020 C   0  0  0  0  0  0  0  0  0  0  0  0
   38.5200   32.1680   46.6680 N   0  0  0  0  0  0  0  0  0  0  0  0
   37.3930   32.2770   49.8490 H   0  0  0  0  0  0  0  0  0  0  0  0
   39.0750   34.0220   50.0470 H   0  0  0  0  0  0  0  0  0  0  0  0
   40.4250   34.5690   47.9980 H   0  0  0  0  0  0  0  0  0  0  0  0
   36.7710   30.8340   47.7090 C   0  0  0  0  0  0  0  0  0  0  0  0
   36.3540   30.3950   46.6390 O   0  0  0  0  0  0  0  0  0  0  0  0
   37.0400   29.6210   49.8410 C   0  0  0  0  0  0  0  0  0  0  0  0
   36.1760   30.2580   48.9220 C   0  0  0  0  0  0  0  0  0  0  0  0
   34.8050   30.3150   49.2000 C   0  0  0  0  0  0  0  0  0  0  0  0
   34.3580   29.7440   50.3620 N   0  0  0  0  0  0  0  0  0  0  0  0
   35.2010   29.1430   51.2200 C   0  0  0  0  0  0  0  0  0  0  0  0
   36.5050   29.0850   50.9630 N   0  0  0  0  0  0  0  0  0  0  0  0
   38.0950   29.5950   49.5950 H   0  0  0  0  0  0  0  0  0  0  0  0
   34.1650   30.7970   48.5020 H   0  0  0  0  0  0  0  0  0  0  0  0
   34.8790   28.6840   52.1460 H   0  0  0  0  0  0  0  0  0  0  0  0
  1  3  1  0  0  0  0
  1 26  1  0  0  0  0
  2  1  1  0  0  0  0
  4  9  1  6  0  0  0
  4  8  1  0  0  0  0
  5 11  1  0  0  0  0
  5  4  1  0  0  0  0
  5  6  1  0  0  0  0
  6 12  1  6  0  0  0
  6  1  1  0  0  0  0
  6  7  1  0  0  0  0
  7  8  1  0  0  0  0
  8 14  1  0  0  0  0
  8 13  1  0  0  0  0
 10  5  1  0  0  0  0
 15  4  1  0  0  0  0
 15 18  1  0  0  0  0
 16 17  1  0  0  0  0
 17 18  2  0  0  0  0
 17 24  1  0  0  0  0
 18 19  1  0  0  0  0
 19 20  1  0  0  0  0
 19 21  2  0  0  0  0
 22 21  1  0  0  0  0
 22 23  1  0  0  0  0
 24 22  2  0  0  0  0
 25 24  1  0  0  0  0
 26 31  1  0  0  0  0
 27 28  1  0  0  0  0
 28 29  2  0  0  0  0
 28 33  1  0  0  0  0
 29 34  1  0  0  0  0
 30 35  1  0  0  0  0
 30 29  1  0  0  0  0
 31 30  2  0  0  0  0
 32 31  1  0  0  0  0
 32 27  2  0  0  0  0
 36 27  1  0  0  0  0
 36 39  1  0  0  0  0
 37 36  2  0  0  0  0
 38 43  1  0  0  0  0
 39 40  1  0  0  0  0
 39 38  2  0  0  0  0
 40 41  2  0  0  0  0
 41 42  1  0  0  0  0
 42 46  1  0  0  0  0
 43 42  2  0  0  0  0
 44 38  1  0  0  0  0
 45 40  1  0  0  0  0
M  END
>  <minimizedAffinity>
-5.64783669

>  <minimizedRMSD>
1.83539546

$$$$
