
 OpenBabel03272510303D

 29 31  0  0  0  0  0  0  0  0999 V2000
   37.4310   31.2590   49.0460 C   0  0  0  0  0  0  0  0  0  0  0  0
   37.7960   32.5290   49.4970 C   0  0  0  0  0  0  0  0  0  0  0  0
   38.7000   33.2060   48.7090 C   0  0  0  0  0  0  0  0  0  0  0  0
   39.1820   32.6220   47.5620 N   0  0  0  0  0  0  0  0  0  0  0  0
   38.7940   31.3780   47.1660 C   0  0  0  0  0  0  0  0  0  0  0  0
   37.8970   30.6790   47.9270 N   0  0  0  0  0  0  0  0  0  0  0  0
   37.3730   32.9250   50.4130 H   0  0  0  0  0  0  0  0  0  0  0  0
   39.0270   34.1970   49.0000 H   0  0  0  0  0  0  0  0  0  0  0  0
   36.4170   30.4990   49.8650 C   0  0  0  0  0  0  0  0  0  0  0  0
   36.2460   29.0720   49.7780 C   0  0  0  0  0  0  0  0  0  0  0  0
   37.0650   29.6100   50.9380 C   0  0  0  0  0  0  0  0  0  0  0  0
   35.5720   31.1400   50.2330 H   0  0  0  0  0  0  0  0  0  0  0  0
   35.2660   28.6220   49.9760 H   0  0  0  0  0  0  0  0  0  0  0  0
   36.8240   28.5470   48.9650 H   0  0  0  0  0  0  0  0  0  0  0  0
   36.5460   29.6410   51.9020 H   0  0  0  0  0  0  0  0  0  0  0  0
   38.1590   29.4920   50.9480 H   0  0  0  0  0  0  0  0  0  0  0  0
   39.2870   30.7520   45.9410 C   0  0  0  0  0  0  0  0  0  0  0  0
   38.9790   29.6670   45.9160 H   0  0  0  0  0  0  0  0  0  0  0  0
   40.3860   30.7950   45.8540 H   0  0  0  0  0  0  0  0  0  0  0  0
   40.9240   30.4330   43.3760 Cl  0  0  0  0  0  0  0  0  0  0  0  0
   39.3740   31.2310   43.5530 C   0  0  0  0  0  0  0  0  0  0  0  0
   38.6510   31.3620   44.7200 C   0  0  0  0  0  0  0  0  0  0  0  0
   37.4420   32.0210   44.6870 C   0  0  0  0  0  0  0  0  0  0  0  0
   36.9160   32.0960   45.6340 H   0  0  0  0  0  0  0  0  0  0  0  0
   36.9490   32.5450   43.5240 C   0  0  0  0  0  3  0  0  0  0  0  0
   37.6710   32.4170   42.3350 C   0  0  0  0  0  0  0  0  0  0  0  0
   36.9980   33.1030   40.8720 Cl  0  0  0  0  0  0  0  0  0  0  0  0
   38.8890   31.7570   42.3530 C   0  0  0  0  0  0  0  0  0  0  0  0
   39.3910   31.6970   41.3980 H   0  0  0  0  0  0  0  0  0  0  0  0
  1  2  1  0  0  0  0
  1  9  1  0  0  0  0
  2  7  1  0  0  0  0
  3  8  1  0  0  0  0
  3  2  2  0  0  0  0
  4  3  1  0  0  0  0
  5  4  2  0  0  0  0
  5  6  1  0  0  0  0
  6  1  2  0  0  0  0
  9 12  1  0  0  0  0
  9 11  1  0  0  0  0
 10  9  1  0  0  0  0
 10 13  1  0  0  0  0
 10 11  1  0  0  0  0
 11 16  1  0  0  0  0
 11 15  1  0  0  0  0
 14 10  1  0  0  0  0
 17  5  1  0  0  0  0
 18 17  1  0  0  0  0
 19 17  1  0  0  0  0
 20 21  1  0  0  0  0
 21 22  1  0  0  0  0
 22 17  1  0  0  0  0
 23 22  2  0  0  0  0
 23 24  1  0  0  0  0
 25 23  1  0  0  0  0
 26 28  1  0  0  0  0
 26 25  2  0  0  0  0
 27 26  1  0  0  0  0
 28 21  2  0  0  0  0
 29 28  1  0  0  0  0
M  END
>  <minimizedAffinity>
-5.4253149

>  <minimizedRMSD>
0.7515257

$$$$
