
     RDKit          3D

 22 23  0  0  0  0  0  0  0  0999 V2000
   37.3544   30.2300   51.3733 C   0  0  0  0  0  0  0  0  0  0  0  0
   38.0149   30.7584   50.2618 C   0  0  0  0  0  0  0  0  0  0  0  0
   37.5680   30.4221   48.9903 C   0  0  0  0  0  0  0  0  0  0  0  0
   36.5051   29.5913   48.8978 N   0  0  0  0  0  0  0  0  0  0  0  0
   35.8841   29.0939   49.9956 C   0  0  0  0  0  0  0  0  0  0  0  0
   36.3014   29.4075   51.2250 N   0  0  0  0  0  0  0  0  0  0  0  0
   38.2053   30.9332   47.7975 C   0  0  0  0  0  0  0  0  0  0  0  0
   39.0258   31.8745   47.8205 O   0  0  0  0  0  0  0  0  0  0  0  0
   37.7873   30.5589   52.3138 H   0  0  0  0  0  0  0  0  0  0  0  0
   38.8689   31.4259   50.3462 H   0  0  0  0  0  0  0  0  0  0  0  0
   35.0214   28.4200   49.8736 H   0  0  0  0  0  0  0  0  0  0  0  0
   35.2733   30.4491   47.3057 Cl  0  0  0  0  0  0  0  0  0  0  0  0
   36.5732   30.0754   46.1812 C   0  0  0  0  0  0  0  0  0  0  0  0
   37.8894   30.3372   46.5035 C   0  0  0  0  0  0  0  0  0  0  0  0
   38.8149   29.9986   45.5375 C   0  0  0  0  0  0  0  0  0  0  0  0
   39.8544   30.1888   45.7543 H   0  0  0  0  0  0  0  0  0  0  0  0
   38.4559   29.4371   44.3313 C   0  0  0  0  0  0  0  0  0  0  0  0
   37.1303   29.1882   44.0404 C   0  0  0  0  0  0  0  0  0  0  0  0
   36.7481   28.4725   42.4872 Cl  0  0  0  0  0  0  0  0  0  0  0  0
   36.1659   29.5088   44.9735 C   0  0  0  0  0  0  0  0  0  0  0  0
   35.1269   29.3147   44.7477 H   0  0  0  0  0  0  0  0  0  0  0  0
   39.2434   29.2007   43.6273 H   0  0  0  0  0  0  0  0  0  0  0  0
  2  1  2  0
  3  2  1  0
  4  3  2  0
  4  5  1  0
  5  6  2  0
  6  1  1  0
  7  3  1  0
  8  7  2  0
  1  9  1  0
  2 10  1  0
  5 11  1  0
 12 13  1  0
 13 14  2  0
 14 15  1  0
 15 16  1  0
 15 17  2  0
 17 18  1  0
 18 19  1  0
 18 20  2  0
 20 21  1  0
 20 13  1  0
 17 22  1  0
  7 14  1  0
M  ISO  5   9  14  10  14  11  14  16  16  21  15
M  END
>  <DihAtoms>  (1) 
2,6,13,12

>  <DihDeg>  (1) 
-134.98963994748806

$$$$
