
 OpenBabel03272510303D

 29 31  0  0  0  0  0  0  0  0999 V2000
   37.3640   31.3730   49.2330 C   0  0  0  0  0  0  0  0  0  0  0  0
   37.7020   32.6780   49.5990 C   0  0  0  0  0  0  0  0  0  0  0  0
   38.5740   33.3280   48.7570 C   0  0  0  0  0  0  0  0  0  0  0  0
   39.0540   32.6880   47.6380 N   0  0  0  0  0  0  0  0  0  0  0  0
   38.6930   31.4130   47.3250 C   0  0  0  0  0  0  0  0  0  0  0  0
   37.8270   30.7390   48.1420 N   0  0  0  0  0  0  0  0  0  0  0  0
   37.2830   33.1170   50.4970 H   0  0  0  0  0  0  0  0  0  0  0  0
   38.8790   34.3430   48.9800 H   0  0  0  0  0  0  0  0  0  0  0  0
   36.3840   30.6380   50.1140 C   0  0  0  0  0  0  0  0  0  0  0  0
   36.2550   29.2040   50.1220 C   0  0  0  0  0  0  0  0  0  0  0  0
   37.0720   29.8410   51.2320 C   0  0  0  0  0  0  0  0  0  0  0  0
   35.5250   31.2770   50.4520 H   0  0  0  0  0  0  0  0  0  0  0  0
   35.2920   28.7400   50.3630 H   0  0  0  0  0  0  0  0  0  0  0  0
   36.8380   28.6460   49.3360 H   0  0  0  0  0  0  0  0  0  0  0  0
   36.5650   29.9200   52.2000 H   0  0  0  0  0  0  0  0  0  0  0  0
   38.1700   29.7560   51.2350 H   0  0  0  0  0  0  0  0  0  0  0  0
   39.1820   30.7260   46.1320 C   0  0  0  0  0  0  0  0  0  0  0  0
   38.5890   29.7810   45.9650 H   0  0  0  0  0  0  0  0  0  0  0  0
   40.2470   30.4490   46.2070 H   0  0  0  0  0  0  0  0  0  0  0  0
   36.3730   30.4660   44.9440 Cl  0  0  0  0  0  0  0  0  0  0  0  0
   37.6930   31.4470   44.3410 C   0  0  0  0  0  0  0  0  0  0  0  0
   38.9540   31.5500   44.8920 C   0  0  0  0  0  0  0  0  0  0  0  0
   39.8810   32.3720   44.2920 C   0  0  0  0  0  0  0  0  0  0  0  0
   40.8570   32.4150   44.7680 H   0  0  0  0  0  0  0  0  0  0  0  0
   39.5770   33.0840   43.1640 C   0  0  0  0  0  3  0  0  0  0  0  0
   38.3050   32.9880   42.5960 C   0  0  0  0  0  0  0  0  0  0  0  0
   37.9630   33.9180   41.1540 Cl  0  0  0  0  0  0  0  0  0  0  0  0
   37.3600   32.1660   43.1890 C   0  0  0  0  0  0  0  0  0  0  0  0
   36.3990   32.1420   42.6960 H   0  0  0  0  0  0  0  0  0  0  0  0
  1  2  1  0  0  0  0
  1  9  1  0  0  0  0
  2  7  1  0  0  0  0
  3  8  1  0  0  0  0
  3  2  2  0  0  0  0
  4  3  1  0  0  0  0
  5  4  2  0  0  0  0
  5  6  1  0  0  0  0
  6  1  2  0  0  0  0
  9 10  1  0  0  0  0
  9 12  1  0  0  0  0
  9 11  1  0  0  0  0
 10 13  1  0  0  0  0
 10 11  1  0  0  0  0
 11 16  1  0  0  0  0
 11 15  1  0  0  0  0
 14 10  1  0  0  0  0
 17 19  1  0  0  0  0
 17  5  1  0  0  0  0
 18 17  1  0  0  0  0
 21 22  1  0  0  0  0
 21 20  1  0  0  0  0
 22 17  1  0  0  0  0
 23 24  1  0  0  0  0
 23 22  2  0  0  0  0
 25 23  1  0  0  0  0
 26 25  2  0  0  0  0
 26 28  1  0  0  0  0
 27 26  1  0  0  0  0
 28 21  2  0  0  0  0
 29 28  1  0  0  0  0
M  END
>  <minimizedAffinity>
-5.68394566

>  <minimizedRMSD>
1.53885758

$$$$
