
 OpenBabel03262522153D

 46 49  0  0  1  0  0  0  0  0999 V2000
   39.4960   32.9340   43.7990 C   0  0  0  0  0  0  0  0  0  0  0  0
   39.5330   33.8150   43.1060 H   0  0  0  0  0  0  0  0  0  0  0  0
   38.4490   32.7530   44.0600 H   0  0  0  0  0  0  0  0  0  0  0  0
   38.9820   29.6670   42.5250 C   0  0  1  0  0  0  0  0  0  0  0  0
   38.8650   31.1460   42.1830 C   0  0  0  0  0  0  0  0  0  0  0  0
   39.9730   31.7150   43.0400 C   0  0  2  0  0  0  0  0  0  0  0  0
   40.4390   30.7370   43.8630 O   0  0  0  0  0  0  0  0  0  0  0  0
   39.4650   29.7530   43.9640 C   0  0  0  0  0  0  0  0  0  0  0  0
   39.7370   29.1990   41.8720 H   0  0  0  0  0  0  0  0  0  0  0  0
   39.1170   31.3130   41.1100 H   0  0  0  0  0  0  0  0  0  0  0  0
   37.8900   31.5600   42.4860 H   0  0  0  0  0  0  0  0  0  0  0  0
   40.8180   32.0520   42.3930 H   0  0  0  0  0  0  0  0  0  0  0  0
   38.5860   30.1140   44.5480 H   0  0  0  0  0  0  0  0  0  0  0  0
   39.8700   28.8010   44.3250 H   0  0  0  0  0  0  0  0  0  0  0  0
   37.7570   29.0360   42.4380 O   0  0  0  0  0  0  0  0  0  0  0  0
   35.2000   29.8940   41.3230 Cl  0  0  0  0  0  0  0  0  0  0  0  0
   36.0890   28.4600   40.8670 C   0  0  0  0  0  0  0  0  0  0  0  0
   37.2880   28.1860   41.4860 C   0  0  0  0  0  0  0  0  0  0  0  0
   37.9200   27.0430   41.0680 C   0  0  0  0  0  0  0  0  0  0  0  0
   38.8600   26.7690   41.5080 H   0  0  0  0  0  0  0  0  0  0  0  0
   37.4120   26.2210   40.1080 C   0  0  0  0  0  3  0  0  0  0  0  0
   36.2060   26.5350   39.5150 C   0  0  0  0  0  0  0  0  0  0  0  0
   35.5240   25.5010   38.2780 Cl  0  0  0  0  0  0  0  0  0  0  0  0
   35.5320   27.6730   39.9000 C   0  0  0  0  0  0  0  0  0  0  0  0
   34.5790   27.9270   39.4350 H   0  0  0  0  0  0  0  0  0  0  0  0
   40.5970   33.1650   45.2160 S   0  0  0  0  0  0  0  0  0  0  0  0
   37.7760   31.7850   47.6620 C   0  0  0  0  0  0  0  0  0  0  0  0
   37.9580   32.5370   48.8310 C   0  0  0  0  0  0  0  0  0  0  0  0
   38.9450   33.4970   48.9280 C   0  0  0  0  0  0  0  0  0  0  0  0
   39.7350   33.6680   47.8120 C   0  0  0  0  0  0  0  0  0  0  0  0
   39.5440   32.9300   46.6880 C   0  0  0  0  0  0  0  0  0  0  0  0
   38.5780   31.9870   46.5880 N   0  0  0  0  0  0  0  0  0  0  0  0
   37.3270   32.3880   49.6980 H   0  0  0  0  0  0  0  0  0  0  0  0
   39.0750   34.0720   49.8380 H   0  0  0  0  0  0  0  0  0  0  0  0
   40.5310   34.4030   47.8160 H   0  0  0  0  0  0  0  0  0  0  0  0
   36.7290   30.8110   47.6470 C   0  0  0  0  0  0  0  0  0  0  0  0
   36.2550   30.3970   46.5910 O   0  0  0  0  0  0  0  0  0  0  0  0
   37.0420   29.6380   49.7960 C   0  0  0  0  0  0  0  0  0  0  0  0
   36.1580   30.2500   48.8790 C   0  0  0  0  0  0  0  0  0  0  0  0
   34.7910   30.2950   49.1740 C   0  0  0  0  0  0  0  0  0  0  0  0
   34.3660   29.7400   50.3530 N   0  0  0  0  0  0  0  0  0  0  0  0
   35.2290   29.1640   51.2090 C   0  0  0  0  0  0  0  0  0  0  0  0
   36.5290   29.1170   50.9350 N   0  0  0  0  0  0  0  0  0  0  0  0
   38.0940   29.6200   49.5360 H   0  0  0  0  0  0  0  0  0  0  0  0
   34.1360   30.7580   48.4770 H   0  0  0  0  0  0  0  0  0  0  0  0
   34.9250   28.7180   52.1480 H   0  0  0  0  0  0  0  0  0  0  0  0
  1  3  1  0  0  0  0
  1 26  1  0  0  0  0
  2  1  1  0  0  0  0
  4  9  1  6  0  0  0
  4  8  1  0  0  0  0
  5 11  1  0  0  0  0
  5  4  1  0  0  0  0
  5  6  1  0  0  0  0
  6 12  1  6  0  0  0
  6  1  1  0  0  0  0
  6  7  1  0  0  0  0
  7  8  1  0  0  0  0
  8 14  1  0  0  0  0
  8 13  1  0  0  0  0
 10  5  1  0  0  0  0
 15  4  1  0  0  0  0
 17 16  1  0  0  0  0
 17 18  1  0  0  0  0
 18 15  1  0  0  0  0
 19 18  2  0  0  0  0
 19 20  1  0  0  0  0
 21 19  1  0  0  0  0
 22 24  1  0  0  0  0
 22 21  2  0  0  0  0
 23 22  1  0  0  0  0
 24 17  2  0  0  0  0
 25 24  1  0  0  0  0
 26 31  1  0  0  0  0
 27 28  1  0  0  0  0
 28 29  2  0  0  0  0
 28 33  1  0  0  0  0
 29 34  1  0  0  0  0
 30 35  1  0  0  0  0
 30 29  1  0  0  0  0
 31 30  2  0  0  0  0
 32 31  1  0  0  0  0
 32 27  2  0  0  0  0
 36 27  1  0  0  0  0
 36 39  1  0  0  0  0
 37 36  2  0  0  0  0
 38 43  1  0  0  0  0
 39 40  1  0  0  0  0
 39 38  2  0  0  0  0
 40 41  2  0  0  0  0
 41 42  1  0  0  0  0
 42 46  1  0  0  0  0
 43 42  2  0  0  0  0
 44 38  1  0  0  0  0
 45 40  1  0  0  0  0
M  END
>  <minimizedAffinity>
-5.03357649

>  <minimizedRMSD>
0.250691533

$$$$
