
 OpenBabel03272510273D

 46 50  0  0  1  0  0  0  0  0999 V2000
   39.5130   33.5660   43.3790 O   0  0  0  0  0  0  0  0  0  0  0  0
   36.2160   30.2270   46.9480 C   0  0  0  0  0  0  0  0  0  0  0  0
   37.0550   30.7520   47.9160 C   0  0  0  0  0  0  0  0  0  0  0  0
   38.0660   31.6530   47.5620 C   0  0  0  0  0  0  0  0  0  0  0  0
   38.1570   31.9660   46.2100 C   0  0  0  0  0  0  0  0  0  0  0  0
   39.0660   32.8150   45.6180 N   0  0  0  0  0  0  0  0  0  0  0  0
   38.7880   32.8120   44.3070 C   0  0  0  0  0  0  0  0  0  0  0  0
   37.7700   32.0140   44.0780 N   0  0  0  0  0  0  0  0  0  0  0  0
   37.3460   31.4670   45.2290 C   0  0  0  0  0  0  0  0  0  0  0  0
   36.3470   30.5730   45.6080 C   0  0  0  0  0  0  0  0  0  0  0  0
   35.4130   29.5240   47.1610 H   0  0  0  0  0  0  0  0  0  0  0  0
   38.7280   32.0700   48.3080 H   0  0  0  0  0  0  0  0  0  0  0  0
   39.8180   33.3460   46.1250 H   0  0  0  0  0  0  0  0  0  0  0  0
   35.7010   30.1730   44.8370 H   0  0  0  0  0  0  0  0  0  0  0  0
   37.4190   30.1080   51.5910 C   0  0  0  0  0  0  0  0  0  0  0  0
   37.7480   30.5650   50.3230 C   0  0  0  0  0  0  0  0  0  0  0  0
   36.8570   30.3440   49.2900 C   0  0  0  0  0  0  0  0  0  0  0  0
   35.6910   29.6820   49.5870 N   0  0  0  0  0  0  0  0  0  0  0  0
   35.3930   29.2470   50.8270 C   0  0  0  0  0  0  0  0  0  0  0  0
   36.2550   29.4630   51.8120 N   0  0  0  0  0  0  0  0  0  0  0  0
   38.1320   30.2890   52.3960 H   0  0  0  0  0  0  0  0  0  0  0  0
   38.6630   31.0830   50.0960 H   0  0  0  0  0  0  0  0  0  0  0  0
   34.4460   28.7380   50.9410 H   0  0  0  0  0  0  0  0  0  0  0  0
   39.5660   31.6760   42.0580 N   0  0  0  0  0  0  0  0  0  0  0  0
   39.4550   33.1370   42.0270 C   0  0  1  0  0  0  0  0  0  0  0  0
   38.1710   33.4860   41.4330 C   0  0  0  0  0  0  0  0  0  0  0  0
   38.1660   33.0770   40.0940 O   0  0  0  0  0  0  0  0  0  0  0  0
   38.4010   31.7300   39.9080 C   0  0  0  0  0  0  0  0  0  0  0  0
   39.6270   31.2660   40.6900 C   0  0  2  0  0  0  0  0  0  0  0  0
   38.7020   31.2390   42.4260 H   0  0  0  0  0  0  0  0  0  0  0  0
   40.2890   33.4750   41.4150 H   0  0  0  0  0  0  0  0  0  0  0  0
   37.2280   33.1590   41.7850 H   0  0  0  0  0  0  0  0  0  0  0  0
   38.1190   34.6160   41.3710 H   0  0  0  0  0  0  0  0  0  0  0  0
   37.5310   31.1190   40.1950 H   0  0  0  0  0  0  0  0  0  0  0  0
   38.6010   31.5850   38.8340 H   0  0  0  0  0  0  0  0  0  0  0  0
   40.5490   31.7290   40.2160 H   0  0  0  0  0  0  0  0  0  0  0  0
   37.7820   28.9500   42.1180 Cl  0  0  0  0  0  0  0  0  0  0  0  0
   39.0970   28.6830   41.0050 C   0  0  0  0  0  0  0  0  0  0  0  0
   39.7240   29.8160   40.5560 C   0  0  0  0  0  0  0  0  0  0  0  0
   40.7760   29.4740   39.6770 C   0  0  0  0  0  0  0  0  0  0  0  0
   41.4360   30.2010   39.1790 H   0  0  0  0  0  0  0  0  0  0  0  0
   41.1430   28.1810   39.3030 C   0  0  0  0  0  3  0  0  0  0  0  0
   40.4390   27.1360   39.8180 C   0  0  0  0  0  0  0  0  0  0  0  0
   40.8080   25.4760   39.4210 Cl  0  0  0  0  0  0  0  0  0  0  0  0
   39.4110   27.3930   40.6740 C   0  0  0  0  0  0  0  0  0  0  0  0
   38.8360   26.6040   41.0980 H   0  0  0  0  0  0  0  0  0  0  0  0
  1  7  1  0  0  0  0
  2 11  1  0  0  0  0
  2  3  1  0  0  0  0
  3 17  1  0  0  0  0
  4  3  2  0  0  0  0
  4 12  1  0  0  0  0
  5  4  1  0  0  0  0
  6 13  1  0  0  0  0
  6  5  1  0  0  0  0
  7  6  1  0  0  0  0
  8  7  2  0  0  0  0
  8  9  1  0  0  0  0
  9 10  1  0  0  0  0
  9  5  2  0  0  0  0
 10  2  2  0  0  0  0
 14 10  1  0  0  0  0
 15 20  1  0  0  0  0
 15 21  1  0  0  0  0
 16 15  2  0  0  0  0
 17 18  2  0  0  0  0
 17 16  1  0  0  0  0
 18 19  1  0  0  0  0
 19 23  1  0  0  0  0
 19 20  2  0  0  0  0
 22 16  1  0  0  0  0
 24 30  1  0  0  0  0
 25 31  1  6  0  0  0
 25 24  1  0  0  0  0
 25  1  1  0  0  0  0
 26 32  1  0  0  0  0
 26 25  1  0  0  0  0
 27 26  1  0  0  0  0
 28 27  1  0  0  0  0
 28 34  1  0  0  0  0
 28 29  1  0  0  0  0
 29 36  1  6  0  0  0
 29 24  1  0  0  0  0
 33 26  1  0  0  0  0
 35 28  1  0  0  0  0
 38 37  1  0  0  0  0
 39 29  1  0  0  0  0
 39 38  2  0  0  0  0
 40 39  1  0  0  0  0
 41 40  1  0  0  0  0
 42 40  2  0  0  0  0
 42 43  1  0  0  0  0
 43 45  2  0  0  0  0
 44 43  1  0  0  0  0
 45 38  1  0  0  0  0
 45 46  1  0  0  0  0
M  END
>  <minimizedAffinity>
-6.17614365

>  <minimizedRMSD>
0.562761486

$$$$
