
 OpenBabel03262522133D

 34 36  0  0  0  0  0  0  0  0999 V2000
   37.7670   31.7480   47.6960 C   0  0  0  0  0  0  0  0  0  0  0  0
   37.9070   32.5380   48.8490 C   0  0  0  0  0  0  0  0  0  0  0  0
   38.9030   33.4780   48.9180 C   0  0  0  0  0  0  0  0  0  0  0  0
   39.7300   33.5920   47.8170 C   0  0  0  0  0  0  0  0  0  0  0  0
   39.5690   32.8140   46.7190 C   0  0  0  0  0  0  0  0  0  0  0  0
   38.5870   31.8610   46.6050 N   0  0  0  0  0  0  0  0  0  0  0  0
   37.2270   32.3970   49.6730 H   0  0  0  0  0  0  0  0  0  0  0  0
   39.0110   34.0780   49.7920 H   0  0  0  0  0  0  0  0  0  0  0  0
   40.5150   34.3340   47.8740 H   0  0  0  0  0  0  0  0  0  0  0  0
   36.6900   30.7770   47.6950 C   0  0  0  0  0  0  0  0  0  0  0  0
   36.1960   30.3840   46.6350 O   0  0  0  0  0  0  0  0  0  0  0  0
   37.0110   29.6250   49.8590 C   0  0  0  0  0  0  0  0  0  0  0  0
   36.1400   30.2200   48.9400 C   0  0  0  0  0  0  0  0  0  0  0  0
   34.7540   30.2830   49.2100 C   0  0  0  0  0  0  0  0  0  0  0  0
   34.3390   29.7310   50.4070 N   0  0  0  0  0  0  0  0  0  0  0  0
   35.2070   29.1660   51.2700 C   0  0  0  0  0  0  0  0  0  0  0  0
   36.4950   29.1170   51.0010 N   0  0  0  0  0  0  0  0  0  0  0  0
   38.0710   29.5590   49.6870 H   0  0  0  0  0  0  0  0  0  0  0  0
   34.1520   30.7470   48.4720 H   0  0  0  0  0  0  0  0  0  0  0  0
   34.6400   28.8130   52.1200 H   0  0  0  0  0  0  0  0  0  0  0  0
   40.6550   32.9750   45.2800 S   0  0  0  0  0  0  0  0  0  0  0  0
   39.5860   32.8720   43.8290 C   0  0  0  0  0  0  0  0  0  0  0  0
   38.5880   33.3480   43.9990 H   0  0  0  0  0  0  0  0  0  0  0  0
   40.0330   33.4980   42.9990 H   0  0  0  0  0  0  0  0  0  0  0  0
   36.7250   31.8240   43.5720 Cl  0  0  0  0  0  0  0  0  0  0  0  0
   38.1570   30.9080   43.1510 C   0  0  0  0  0  0  0  0  0  0  0  0
   39.4150   31.4980   43.3060 C   0  0  0  0  0  0  0  0  0  0  0  0
   40.4670   30.6890   42.9460 C   0  0  0  0  0  0  0  0  0  0  0  0
   41.4520   31.1670   43.0720 H   0  0  0  0  0  0  0  0  0  0  0  0
   40.4510   29.4000   42.4620 C   0  0  0  0  0  3  0  0  0  0  0  0
   39.1710   28.8540   42.3250 C   0  0  0  0  0  0  0  0  0  0  0  0
   39.0690   27.2140   41.7160 Cl  0  0  0  0  0  0  0  0  0  0  0  0
   38.0360   29.6020   42.6660 C   0  0  0  0  0  0  0  0  0  0  0  0
   37.0710   29.1280   42.5390 H   0  0  0  0  0  0  0  0  0  0  0  0
  1  2  1  0  0  0  0
  2  3  2  0  0  0  0
  2  7  1  0  0  0  0
  3  8  1  0  0  0  0
  4  9  1  0  0  0  0
  4  3  1  0  0  0  0
  5  4  2  0  0  0  0
  6  5  1  0  0  0  0
  6  1  2  0  0  0  0
 10  1  1  0  0  0  0
 10 13  1  0  0  0  0
 11 10  2  0  0  0  0
 12 17  1  0  0  0  0
 13 14  1  0  0  0  0
 13 12  2  0  0  0  0
 14 15  2  0  0  0  0
 15 16  1  0  0  0  0
 16 20  1  0  0  0  0
 17 16  2  0  0  0  0
 18 12  1  0  0  0  0
 19 14  1  0  0  0  0
 21  5  1  0  0  0  0
 22 23  1  0  0  0  0
 22 21  1  0  0  0  0
 24 22  1  0  0  0  0
 26 27  1  0  0  0  0
 26 25  1  0  0  0  0
 27 22  1  0  0  0  0
 28 29  1  0  0  0  0
 28 27  2  0  0  0  0
 30 28  1  0  0  0  0
 31 30  2  0  0  0  0
 31 33  1  0  0  0  0
 32 31  1  0  0  0  0
 33 26  2  0  0  0  0
 34 33  1  0  0  0  0
M  END
>  <minimizedAffinity>
-5.55596447

>  <minimizedRMSD>
1.31673574

$$$$
