
 OpenBabel03272509243D

 25 26  0  0  0  0  0  0  0  0999 V2000
   37.8750   32.1710   47.4400 C   0  0  0  0  0  0  0  0  0  0  0  0
   36.8980   31.6490   47.3620 H   0  0  0  0  0  0  0  0  0  0  0  0
   37.7570   33.2090   47.7790 H   0  0  0  0  0  0  0  0  0  0  0  0
   36.3860   30.4660   45.5420 Cl  0  0  0  0  0  0  0  0  0  0  0  0
   37.8630   31.3490   45.1400 C   0  0  0  0  0  0  0  0  0  0  0  0
   38.5070   32.1340   46.0910 C   0  0  0  0  0  0  0  0  0  0  0  0
   39.6520   32.7860   45.6860 C   0  0  0  0  0  0  0  0  0  0  0  0
   40.1220   33.3840   46.4520 H   0  0  0  0  0  0  0  0  0  0  0  0
   40.1050   32.6400   44.3920 C   0  0  0  0  0  3  0  0  0  0  0  0
   39.4580   31.8640   43.4730 C   0  0  0  0  0  0  0  0  0  0  0  0
   40.0530   31.6930   41.8300 Cl  0  0  0  0  0  0  0  0  0  0  0  0
   38.3130   31.2020   43.8490 C   0  0  0  0  0  0  0  0  0  0  0  0
   37.8120   30.5910   43.1100 H   0  0  0  0  0  0  0  0  0  0  0  0
   38.7440   31.3550   48.3920 C   0  0  0  0  0  0  0  0  0  0  0  0
   39.4270   32.0810   48.9230 H   0  0  0  0  0  0  0  0  0  0  0  0
   39.3580   30.6360   47.8450 H   0  0  0  0  0  0  0  0  0  0  0  0
   37.1650   30.0340   51.6020 C   0  0  0  0  0  0  0  0  0  0  0  0
   37.9950   30.7310   50.7330 C   0  0  0  0  0  0  0  0  0  0  0  0
   37.8850   30.6300   49.3580 C   0  0  0  0  0  0  0  0  0  0  0  0
   36.9150   29.8080   48.8870 N   0  0  0  0  0  0  0  0  0  0  0  0
   36.1050   29.1270   49.7350 C   0  0  0  0  0  0  0  0  0  0  0  0
   36.2330   29.2430   51.0720 N   0  0  0  0  0  0  0  0  0  0  0  0
   37.2370   30.1020   52.6650 H   0  0  0  0  0  0  0  0  0  0  0  0
   38.7370   31.3590   51.1710 H   0  0  0  0  0  0  0  0  0  0  0  0
   35.3770   28.5080   49.2150 H   0  0  0  0  0  0  0  0  0  0  0  0
  1  3  1  0  0  0  0
  1 14  1  0  0  0  0
  2  1  1  0  0  0  0
  5  4  1  0  0  0  0
  5  6  1  0  0  0  0
  6  1  1  0  0  0  0
  7  6  2  0  0  0  0
  7  8  1  0  0  0  0
  9  7  1  0  0  0  0
 10 12  1  0  0  0  0
 10  9  2  0  0  0  0
 11 10  1  0  0  0  0
 12  5  2  0  0  0  0
 13 12  1  0  0  0  0
 14 15  1  0  0  0  0
 14 19  1  0  0  0  0
 16 14  1  0  0  0  0
 17 23  1  0  0  0  0
 18 24  1  0  0  0  0
 18 17  2  0  0  0  0
 19 18  1  0  0  0  0
 20 19  2  0  0  0  0
 20 21  1  0  0  0  0
 21 22  2  0  0  0  0
 22 17  1  0  0  0  0
 25 21  1  0  0  0  0
M  END
>  <minimizedAffinity>
-4.92616367

>  <minimizedRMSD>
1.78468895

$$$$
