
 OpenBabel03272503173D

 26 28  0  0  0  0  0  0  0  0999 V2000
   37.5700   31.2550   48.4050 C   0  0  0  0  0  0  0  0  0  0  0  0
   38.4520   32.2570   48.3110 C   0  0  0  0  0  0  0  0  0  0  0  0
   38.8410   32.7350   47.1170 C   0  0  0  0  0  0  0  0  0  0  0  0
   38.2790   32.1360   45.9960 C   0  0  0  0  0  0  0  0  0  0  0  0
   37.1770   30.8660   46.7340 S   0  0  0  0  0  0  0  0  0  0  0  0
   38.8480   32.6730   49.2530 H   0  0  0  0  0  0  0  0  0  0  0  0
   39.5410   33.5340   46.9270 H   0  0  0  0  0  0  0  0  0  0  0  0
   41.1580   32.2250   44.9870 Cl  0  0  0  0  0  0  0  0  0  0  0  0
   39.6900   32.4030   44.0540 C   0  0  0  0  0  0  0  0  0  0  0  0
   38.4270   32.3490   44.5830 C   0  0  0  0  0  0  0  0  0  0  0  0
   37.2680   32.4820   43.8960 C   0  0  0  0  0  0  0  0  0  0  0  0
   36.2760   32.4360   44.3440 H   0  0  0  0  0  0  0  0  0  0  0  0
   37.3310   32.6920   42.5150 C   0  0  0  0  0  0  0  0  0  0  0  0
   38.5690   32.7560   41.9170 C   0  0  0  0  0  0  0  0  0  0  0  0
   38.7240   33.0180   40.1900 Cl  0  0  0  0  0  0  0  0  0  0  0  0
   39.7390   32.6140   42.6720 C   0  0  0  0  0  0  0  0  0  0  0  0
   40.7230   32.6670   42.1800 H   0  0  0  0  0  0  0  0  0  0  0  0
   37.0570   29.7760   51.8230 C   0  0  0  0  0  0  0  0  0  0  0  0
   37.6970   30.4590   50.7660 C   0  0  0  0  0  0  0  0  0  0  0  0
   36.9960   30.5690   49.5550 C   0  0  0  0  0  0  0  0  0  0  0  0
   35.7680   30.0320   49.4490 N   0  0  0  0  0  0  0  0  0  0  0  0
   35.1880   29.3850   50.4800 C   0  0  0  0  0  0  0  0  0  0  0  0
   35.8290   29.2610   51.6530 N   0  0  0  0  0  0  0  0  0  0  0  0
   37.7000   29.7620   52.6930 H   0  0  0  0  0  0  0  0  0  0  0  0
   38.6860   30.9020   50.8250 H   0  0  0  0  0  0  0  0  0  0  0  0
   34.1930   28.9590   50.3690 H   0  0  0  0  0  0  0  0  0  0  0  0
  1 20  1  0  0  0  0
  2  1  2  0  0  0  0
  2  6  1  0  0  0  0
  3  2  1  0  0  0  0
  4  5  1  0  0  0  0
  4  3  2  0  0  0  0
  5  1  1  0  0  0  0
  7  3  1  0  0  0  0
  9 10  1  0  0  0  0
  9  8  1  0  0  0  0
 10  4  1  0  0  0  0
 11 12  1  0  0  0  0
 11 10  2  0  0  0  0
 13 11  1  0  0  0  0
 14 13  2  0  0  0  0
 14 16  1  0  0  0  0
 15 14  1  0  0  0  0
 16  9  2  0  0  0  0
 17 16  1  0  0  0  0
 18 24  1  0  0  0  0
 19 25  1  0  0  0  0
 19 18  2  0  0  0  0
 20 19  1  0  0  0  0
 21 20  2  0  0  0  0
 21 22  1  0  0  0  0
 22 23  2  0  0  0  0
 23 18  1  0  0  0  0
 26 22  1  0  0  0  0
M  END
>  <minimizedAffinity>
-5.62192011

>  <minimizedRMSD>
0.800707579

$$$$
