
 OpenBabel03272510303D

 29 31  0  0  0  0  0  0  0  0999 V2000
   37.4200   31.2300   48.9870 C   0  0  0  0  0  0  0  0  0  0  0  0
   37.7720   32.4810   49.4950 C   0  0  0  0  0  0  0  0  0  0  0  0
   38.6930   33.1890   48.7560 C   0  0  0  0  0  0  0  0  0  0  0  0
   39.2020   32.6500   47.5980 N   0  0  0  0  0  0  0  0  0  0  0  0
   38.8260   31.4220   47.1450 C   0  0  0  0  0  0  0  0  0  0  0  0
   37.9120   30.6940   47.8570 N   0  0  0  0  0  0  0  0  0  0  0  0
   37.3280   32.8410   50.4160 H   0  0  0  0  0  0  0  0  0  0  0  0
   39.0120   34.1680   49.0910 H   0  0  0  0  0  0  0  0  0  0  0  0
   36.3880   30.4380   49.7530 C   0  0  0  0  0  0  0  0  0  0  0  0
   36.1940   29.0220   49.5770 C   0  0  0  0  0  0  0  0  0  0  0  0
   37.0140   29.4740   50.7720 C   0  0  0  0  0  0  0  0  0  0  0  0
   35.5520   31.0690   50.1550 H   0  0  0  0  0  0  0  0  0  0  0  0
   35.2060   28.5780   49.7420 H   0  0  0  0  0  0  0  0  0  0  0  0
   36.7680   28.5390   48.7360 H   0  0  0  0  0  0  0  0  0  0  0  0
   36.4900   29.4550   51.7340 H   0  0  0  0  0  0  0  0  0  0  0  0
   38.1070   29.3370   50.7810 H   0  0  0  0  0  0  0  0  0  0  0  0
   39.3470   30.8440   45.9090 C   0  0  0  0  0  0  0  0  0  0  0  0
   39.3330   29.7180   45.9770 H   0  0  0  0  0  0  0  0  0  0  0  0
   40.3830   31.1580   45.6960 H   0  0  0  0  0  0  0  0  0  0  0  0
   39.1320   28.6100   43.8280 Cl  0  0  0  0  0  0  0  0  0  0  0  0
   38.3520   30.1770   43.7850 C   0  0  0  0  0  0  0  0  0  0  0  0
   38.4620   31.1710   44.7350 C   0  0  0  0  0  0  0  0  0  0  0  0
   37.7780   32.3530   44.5500 C   0  0  0  0  0  0  0  0  0  0  0  0
   37.9010   33.1000   45.3280 H   0  0  0  0  0  0  0  0  0  0  0  0
   36.9970   32.5560   43.4450 C   0  0  0  0  0  3  0  0  0  0  0  0
   36.8770   31.5580   42.4770 C   0  0  0  0  0  0  0  0  0  0  0  0
   35.8660   31.8650   41.0820 Cl  0  0  0  0  0  0  0  0  0  0  0  0
   37.5590   30.3630   42.6490 C   0  0  0  0  0  0  0  0  0  0  0  0
   37.4190   29.6380   41.8610 H   0  0  0  0  0  0  0  0  0  0  0  0
  1  2  1  0  0  0  0
  1  9  1  0  0  0  0
  2  7  1  0  0  0  0
  3  8  1  0  0  0  0
  3  2  2  0  0  0  0
  4  3  1  0  0  0  0
  5  4  2  0  0  0  0
  5  6  1  0  0  0  0
  6  1  2  0  0  0  0
  9 12  1  0  0  0  0
  9 11  1  0  0  0  0
 10 13  1  0  0  0  0
 10  9  1  0  0  0  0
 10 11  1  0  0  0  0
 11 16  1  0  0  0  0
 11 15  1  0  0  0  0
 14 10  1  0  0  0  0
 17 18  1  0  0  0  0
 17  5  1  0  0  0  0
 19 17  1  0  0  0  0
 21 20  1  0  0  0  0
 21 22  1  0  0  0  0
 22 17  1  0  0  0  0
 23 22  2  0  0  0  0
 23 24  1  0  0  0  0
 25 23  1  0  0  0  0
 26 28  1  0  0  0  0
 26 25  2  0  0  0  0
 27 26  1  0  0  0  0
 28 21  2  0  0  0  0
 29 28  1  0  0  0  0
M  END
>  <minimizedAffinity>
-5.42794514

>  <minimizedRMSD>
0.589185536

$$$$
