REMARK  Name = 
REMARK  6 active torsions:
REMARK  status: ('A' for Active; 'I' for Inactive)
REMARK    1  A    between atoms: C_1  and  C_8
REMARK    2  A    between atoms: N_4  and  C_18
REMARK    3  A    between atoms: C_6  and  O_12
REMARK    4  A    between atoms: O_12  and  C_13
REMARK    5  A    between atoms: C_17  and  O_22
REMARK    6  A    between atoms: O_22  and  C_35
REMARK                            x       y       z     vdW  Elec       q    Type
REMARK                         _______ _______ _______ _____ _____    ______ ____
ROOT
ATOM      1  C   UNL     1      39.908  30.699  41.897  0.00  0.00    +0.000 C 
ATOM      2  C   UNL     1      39.923  31.971  42.777  0.00  0.00    +0.000 C 
ATOM      3  C   UNL     1      38.868  32.757  42.069  0.00  0.00    +0.000 C 
ATOM      4  O   UNL     1      38.988  32.492  40.727  0.00  0.00    +0.000 OA
ATOM      5  C   UNL     1      39.809  31.424  40.537  0.00  0.00    +0.000 C 
ATOM      6  H   UNL     1      40.850  30.162  41.982  0.00  0.00    +0.000 HD
ATOM      7  H   UNL     1      40.884  32.486  42.729  0.00  0.00    +0.000 HD
ATOM      8  H   UNL     1      37.860  32.454  42.438  0.00  0.00    +0.000 HD
ATOM      9  H   UNL     1      38.974  33.823  42.307  0.00  0.00    +0.000 HD
ATOM     10  H   UNL     1      39.359  30.737  39.790  0.00  0.00    +0.000 HD
ATOM     11  H   UNL     1      40.819  31.758  40.205  0.00  0.00    +0.000 HD
ENDROOT
BRANCH   2  15
ATOM     12  C   UNL     1      38.496  31.142  45.974  0.00  0.00    +0.000 A 
ATOM     13  C   UNL     1      39.817  31.205  46.308  0.00  0.00    +0.000 A 
ATOM     14  C   UNL     1      40.473  31.525  45.121  0.00  0.00    +0.000 A 
ATOM     15  N   UNL     1      39.573  31.645  44.135  0.00  0.00    +0.000 N 
ATOM     16  N   UNL     1      38.367  31.412  44.654  0.00  0.00    +0.000 NA
ATOM     17  H   UNL     1      40.247  31.036  47.298  0.00  0.00    +0.000 HD
ATOM     18  H   UNL     1      41.568  31.632  45.138  0.00  0.00    +0.000 HD
BRANCH  12  21
ATOM     19  C   UNL     1      36.432  30.625  49.058  0.00  0.00    +0.000 A 
ATOM     20  C   UNL     1      37.507  30.930  48.246  0.00  0.00    +0.000 A 
ATOM     21  C   UNL     1      37.410  30.839  46.877  0.00  0.00    +0.000 A 
ATOM     22  N   UNL     1      36.218  30.441  46.379  0.00  0.00    +0.000 NA
ATOM     23  C   UNL     1      35.164  30.143  47.193  0.00  0.00    +0.000 A 
ATOM     24  N   UNL     1      35.256  30.230  48.501  0.00  0.00    +0.000 NA
ATOM     25  H   UNL     1      38.487  31.255  48.608  0.00  0.00    +0.000 HD
ATOM     26  H   UNL     1      34.212  29.824  46.767  0.00  0.00    +0.000 HD
BRANCH  19  27
ATOM     27  O   UNL     1      36.727  30.778  50.418  0.00  0.00    +0.000 OA
BRANCH  27  28
ATOM     28  C   UNL     1      36.790  29.693  51.316  0.00  0.00    +0.000 C 
ATOM     29  F   UNL     1      35.535  29.190  51.625  0.00  0.00    +0.000 F 
ATOM     30  F   UNL     1      37.451  30.092  52.444  0.00  0.00    +0.000 F 
ATOM     31  F   UNL     1      37.549  28.696  50.730  0.00  0.00    +0.000 F 
ENDBRANCH  27  28
ENDBRANCH  19  27
ENDBRANCH  12  21
ENDBRANCH   2  15
BRANCH   1  32
ATOM     32  O   UNL     1      38.734  30.068  42.156  0.00  0.00    +0.000 OA
BRANCH  32  35
ATOM     33 CL   UNL     1      37.475  27.975  40.232  0.00  0.00    +0.000 Cl
ATOM     34  C   UNL     1      37.813  27.732  41.921  0.00  0.00    +0.000 A 
ATOM     35  C   UNL     1      38.373  28.828  42.537  0.00  0.00    +0.000 A 
ATOM     36  C   UNL     1      38.651  28.646  43.902  0.00  0.00    +0.000 A 
ATOM     37  H   UNL     1      39.097  29.379  44.595  0.00  0.00    +0.000 HD
ATOM     38  C   UNL     1      38.388  27.470  44.577  0.00  0.00    +0.000 A 
ATOM     39  C   UNL     1      37.824  26.418  43.881  0.00  0.00    +0.000 A 
ATOM     40 CL   UNL     1      37.452  24.889  44.639  0.00  0.00    +0.000 Cl
ATOM     41  C   UNL     1      37.534  26.550  42.543  0.00  0.00    +0.000 A 
ATOM     42  H   UNL     1      37.096  25.774  41.942  0.00  0.00    +0.000 HD
ENDBRANCH  32  35
ENDBRANCH   1  32
TORSDOF 6
