REMARK  Name = 
REMARK  6 active torsions:
REMARK  status: ('A' for Active; 'I' for Inactive)
REMARK    1  A    between atoms: C_1  and  O_10
REMARK    2  A    between atoms: O_10  and  C_11
REMARK    3  A    between atoms: C_11  and  C_12
REMARK    4  A    between atoms: C_12  and  C_13
REMARK    5  A    between atoms: C_13  and  S_14
REMARK    6  A    between atoms: S_14  and  C_27
REMARK                            x       y       z     vdW  Elec       q    Type
REMARK                         _______ _______ _______ _____ _____    ______ ____
ROOT
ATOM      1  C   UNL     1      37.263  31.362  48.063  0.00  0.00    +0.000 C 
ATOM      2  H   UNL     1      36.640  31.040  47.202  0.00  0.00    +0.000 HD
ATOM      3  H   UNL     1      36.608  32.110  48.602  0.00  0.00    +0.000 HD
ENDROOT
BRANCH   1   4
ATOM      4  C   UNL     1      37.741  30.383  48.883  0.00  0.00    +0.000 C 
ATOM      5  H   UNL     1      36.931  29.603  49.036  0.00  0.00    +0.000 HD
ATOM      6  H   UNL     1      38.582  29.763  48.499  0.00  0.00    +0.000 HD
BRANCH   4   7
ATOM      7  C   UNL     1      38.106  30.816  50.259  0.00  0.00    +0.000 C 
ATOM      8  H   UNL     1      37.808  31.901  50.354  0.00  0.00    +0.000 HD
ATOM      9  H   UNL     1      39.230  30.864  50.370  0.00  0.00    +0.000 HD
BRANCH   7  10
ATOM     10  S   UNL     1      37.339  29.922  51.565  0.00  0.00    +0.000 S 
BRANCH  10  13
ATOM     11 CL   UNL     1      35.786  27.934  49.796  0.00  0.00    +0.000 Cl
ATOM     12  C   UNL     1      37.155  27.433  50.771  0.00  0.00    +0.000 A 
ATOM     13  C   UNL     1      37.928  28.245  51.611  0.00  0.00    +0.000 A 
ATOM     14  C   UNL     1      38.962  27.633  52.285  0.00  0.00    +0.000 A 
ATOM     15  H   UNL     1      39.478  28.349  52.897  0.00  0.00    +0.000 HD
ATOM     16  C   UNL     1      39.233  26.299  52.152  0.00  0.00    +0.000 A 
ATOM     17  C   UNL     1      38.473  25.482  51.322  0.00  0.00    +0.000 A 
ATOM     18 CL   UNL     1      38.923  23.805  51.244  0.00  0.00    +0.000 Cl
ATOM     19  C   UNL     1      37.434  26.067  50.636  0.00  0.00    +0.000 A 
ATOM     20  H   UNL     1      36.888  25.382  50.014  0.00  0.00    +0.000 HD
ENDBRANCH  10  13
ENDBRANCH   7  10
ENDBRANCH   4   7
ENDBRANCH   1   4
BRANCH   1  21
ATOM     21  O   UNL     1      38.426  31.986  47.742  0.00  0.00    +0.000 OA
BRANCH  21  22
ATOM     22  C   UNL     1      38.650  32.326  46.436  0.00  0.00    +0.000 A 
ATOM     23  C   UNL     1      39.919  32.827  46.236  0.00  0.00    +0.000 A 
ATOM     24  C   UNL     1      40.326  33.232  44.939  0.00  0.00    +0.000 A 
ATOM     25  N   UNL     1      39.391  33.088  43.943  0.00  0.00    +0.000 NA
ATOM     26  C   UNL     1      38.144  32.587  44.183  0.00  0.00    +0.000 A 
ATOM     27  N   UNL     1      37.798  32.218  45.409  0.00  0.00    +0.000 NA
ATOM     28  C   UNL     1      37.778  32.926  41.841  0.00  0.00    +0.000 C 
ATOM     29  O   UNL     1      38.956  33.400  41.650  0.00  0.00    +0.000 OA
ATOM     30  N   UNL     1      37.233  32.473  43.086  0.00  0.00    +0.000 N 
ATOM     31  H   UNL     1      40.684  32.955  46.999  0.00  0.00    +0.000 HD
ATOM     32  H   UNL     1      41.304  33.624  44.755  0.00  0.00    +0.000 HD
ATOM     33  H   UNL     1      37.166  32.882  40.946  0.00  0.00    +0.000 HD
ATOM     34  H   UNL     1      36.290  32.100  43.205  0.00  0.00    +0.000 HD
ENDBRANCH  21  22
ENDBRANCH   1  21
TORSDOF 6
