REMARK  Name = 
REMARK  4 active torsions:
REMARK  status: ('A' for Active; 'I' for Inactive)
REMARK    1  A    between atoms: C_1  and  C_6
REMARK    2  A    between atoms: C_1  and  C_8
REMARK    3  A    between atoms: C_8  and  C_9
REMARK    4  A    between atoms: N_12  and  C_25
REMARK                            x       y       z     vdW  Elec       q    Type
REMARK                         _______ _______ _______ _____ _____    ______ ____
ROOT
ATOM      1  C   UNL     1      32.968  28.265  47.869  0.00  0.00    +0.000 A 
ATOM      2  C   UNL     1      32.019  27.588  48.619  0.00  0.00    +0.000 A 
ATOM      3  C   UNL     1      30.744  27.855  48.160  0.00  0.00    +0.000 A 
ATOM      4  N   UNL     1      30.963  28.698  47.132  0.00  0.00    +0.000 N 
ATOM      5  N   UNL     1      32.248  28.947  46.948  0.00  0.00    +0.000 NA
ATOM      6  H   UNL     1      32.188  26.915  49.474  0.00  0.00    +0.000 HD
ATOM      7  H   UNL     1      29.766  27.555  48.437  0.00  0.00    +0.000 HD
ENDROOT
BRANCH   4  10
ATOM      8 CL   UNL     1      28.222  28.936  48.171  0.00  0.00    +0.000 Cl
ATOM      9  C   UNL     1      28.797  29.519  46.632  0.00  0.00    +0.000 A 
ATOM     10  C   UNL     1      30.107  29.368  46.212  0.00  0.00    +0.000 A 
ATOM     11  C   UNL     1      30.520  29.852  44.969  0.00  0.00    +0.000 A 
ATOM     12  H   UNL     1      31.565  29.665  44.776  0.00  0.00    +0.000 HD
ATOM     13  C   UNL     1      29.617  30.491  44.142  0.00  0.00    +0.000 A 
ATOM     14  C   UNL     1      28.302  30.646  44.556  0.00  0.00    +0.000 A 
ATOM     15 CL   UNL     1      27.188  31.468  43.465  0.00  0.00    +0.000 Cl
ATOM     16  C   UNL     1      27.890  30.163  45.795  0.00  0.00    +0.000 A 
ATOM     17  H   UNL     1      26.855  30.300  46.089  0.00  0.00    +0.000 HD
ENDBRANCH   4  10
BRANCH   1  18
ATOM     18  C   UNL     1      34.459  28.198  48.101  0.00  0.00    +0.000 C 
ATOM     19  H   UNL     1      34.854  27.225  47.718  0.00  0.00    +0.000 HD
ATOM     20  H   UNL     1      34.946  29.030  47.562  0.00  0.00    +0.000 HD
BRANCH  18  21
ATOM     21  C   UNL     1      34.663  28.286  49.581  0.00  0.00    +0.000 C 
ATOM     22  H   UNL     1      34.837  27.302  50.071  0.00  0.00    +0.000 HD
ATOM     23  H   UNL     1      33.784  28.736  50.115  0.00  0.00    +0.000 HD
BRANCH  21  28
ATOM     24  C   UNL     1      37.271  30.191  51.383  0.00  0.00    +0.000 A 
ATOM     25  C   UNL     1      38.066  30.702  50.346  0.00  0.00    +0.000 A 
ATOM     26  C   UNL     1      37.684  30.377  49.022  0.00  0.00    +0.000 A 
ATOM     27  N   UNL     1      36.593  29.605  48.821  0.00  0.00    +0.000 NA
ATOM     28  C   UNL     1      35.865  29.140  49.870  0.00  0.00    +0.000 A 
ATOM     29  N   UNL     1      36.208  29.435  51.118  0.00  0.00    +0.000 NA
ATOM     30  H   UNL     1      37.609  30.470  52.371  0.00  0.00    +0.000 HD
ATOM     31  H   UNL     1      38.936  31.314  50.402  0.00  0.00    +0.000 HD
ATOM     32  H   UNL     1      38.171  30.679  48.110  0.00  0.00    +0.000 HD
ENDBRANCH  21  28
ENDBRANCH  18  21
ENDBRANCH   1  18
TORSDOF 4
