REMARK  Name = 
REMARK  3 active torsions:
REMARK  status: ('A' for Active; 'I' for Inactive)
REMARK    1  A    between atoms: C_2  and  C_12
REMARK    2  A    between atoms: C_6  and  O_16
REMARK    3  A    between atoms: O_16  and  C_26
REMARK                            x       y       z     vdW  Elec       q    Type
REMARK                         _______ _______ _______ _____ _____    ______ ____
ROOT
ATOM      1  C   UNL     1      36.854  30.554  46.906  0.00  0.00    +0.000 A 
ATOM      2  C   UNL     1      37.517  31.035  48.023  0.00  0.00    +0.000 A 
ATOM      3  C   UNL     1      38.510  31.987  47.907  0.00  0.00    +0.000 A 
ATOM      4  C   UNL     1      38.804  32.433  46.616  0.00  0.00    +0.000 A 
ATOM      5  N   UNL     1      39.726  33.354  46.228  0.00  0.00    +0.000 N 
ATOM      6  C   UNL     1      39.639  33.445  44.902  0.00  0.00    +0.000 A 
ATOM      7  N   UNL     1      38.710  32.630  44.424  0.00  0.00    +0.000 NA
ATOM      8  C   UNL     1      38.159  31.972  45.474  0.00  0.00    +0.000 A 
ATOM      9  C   UNL     1      37.169  31.017  45.629  0.00  0.00    +0.000 A 
ATOM     10  H   UNL     1      36.064  29.805  46.925  0.00  0.00    +0.000 HD
ATOM     11  H   UNL     1      39.034  32.372  48.753  0.00  0.00    +0.000 HD
ATOM     12  H   UNL     1      40.369  33.877  46.873  0.00  0.00    +0.000 HD
ATOM     13  H   UNL     1      36.659  30.651  44.747  0.00  0.00    +0.000 HD
ENDROOT
BRANCH   2  16
ATOM     14  C   UNL     1      37.382  30.083  51.664  0.00  0.00    +0.000 A 
ATOM     15  C   UNL     1      37.876  30.646  50.491  0.00  0.00    +0.000 A 
ATOM     16  C   UNL     1      37.133  30.503  49.325  0.00  0.00    +0.000 A 
ATOM     17  N   UNL     1      35.946  29.810  49.389  0.00  0.00    +0.000 NA
ATOM     18  C   UNL     1      35.504  29.280  50.547  0.00  0.00    +0.000 A 
ATOM     19  N   UNL     1      36.218  29.417  51.669  0.00  0.00    +0.000 NA
ATOM     20  H   UNL     1      37.989  30.217  52.547  0.00  0.00    +0.000 HD
ATOM     21  H   UNL     1      38.808  31.194  50.422  0.00  0.00    +0.000 HD
ATOM     22  H   UNL     1      34.559  28.748  50.518  0.00  0.00    +0.000 HD
ENDBRANCH   2  16
BRANCH   6  23
ATOM     23  O   UNL     1      40.449  34.306  44.163  0.00  0.00    +0.000 OA
BRANCH  23  26
ATOM     24 CL   UNL     1      41.015  36.883  42.709  0.00  0.00    +0.000 Cl
ATOM     25  C   UNL     1      40.471  35.393  41.959  0.00  0.00    +0.000 A 
ATOM     26  C   UNL     1      40.263  34.309  42.787  0.00  0.00    +0.000 A 
ATOM     27  C   UNL     1      39.832  33.127  42.198  0.00  0.00    +0.000 A 
ATOM     28  H   UNL     1      39.646  32.226  42.793  0.00  0.00    +0.000 HD
ATOM     29  C   UNL     1      39.618  33.032  40.833  0.00  0.00    +0.000 A 
ATOM     30  C   UNL     1      39.838  34.139  40.042  0.00  0.00    +0.000 A 
ATOM     31 CL   UNL     1      39.589  34.096  38.305  0.00  0.00    +0.000 Cl
ATOM     32  C   UNL     1      40.267  35.330  40.595  0.00  0.00    +0.000 A 
ATOM     33  H   UNL     1      40.434  36.184  39.963  0.00  0.00    +0.000 HD
ENDBRANCH  23  26
ENDBRANCH   6  23
TORSDOF 3
