
 OpenBabel03272505353D

 36 38  0  0  1  0  0  0  0  0999 V2000
   37.3670   30.4880   49.5170 C   0  0  0  0  0  0  0  0  0  0  0  0
   37.3380   31.7330   50.1280 C   0  0  0  0  0  0  0  0  0  0  0  0
   37.7950   32.8390   49.3920 C   0  0  0  0  0  0  0  0  0  0  0  0
   38.2410   32.6160   48.1170 N   0  0  0  0  0  0  0  0  0  0  0  0
   38.2520   31.3930   47.5630 C   0  0  0  0  0  0  0  0  0  0  0  0
   37.8180   30.3640   48.2680 N   0  0  0  0  0  0  0  0  0  0  0  0
   38.7320   31.2770   46.2390 N   0  0  0  0  0  0  0  0  0  0  0  0
   40.1540   31.0160   46.0200 C   0  0  0  0  0  0  0  0  0  0  0  0
   40.6970   31.8960   44.9040 C   0  0  0  0  0  0  0  0  0  0  0  0
   39.8640   31.8550   43.7370 N   0  0  0  0  0  0  0  0  0  0  0  0
   38.6900   31.0730   43.8620 C   0  0  0  0  0  0  0  0  0  0  0  0
   37.8660   31.4110   45.0820 C   0  0  1  0  0  0  0  0  0  0  0  0
   36.9770   31.8650   51.1380 H   0  0  0  0  0  0  0  0  0  0  0  0
   37.8000   33.8310   49.8060 H   0  0  0  0  0  0  0  0  0  0  0  0
   40.7170   31.2160   46.9360 H   0  0  0  0  0  0  0  0  0  0  0  0
   40.2310   29.9760   45.6740 H   0  0  0  0  0  0  0  0  0  0  0  0
   40.6470   32.9460   45.2880 H   0  0  0  0  0  0  0  0  0  0  0  0
   41.7430   31.6500   44.7470 H   0  0  0  0  0  0  0  0  0  0  0  0
   39.6800   32.7780   43.3030 H   0  0  0  0  0  0  0  0  0  0  0  0
   38.9270   29.9740   43.9340 H   0  0  0  0  0  0  0  0  0  0  0  0
   38.1110   31.1800   42.9200 H   0  0  0  0  0  0  0  0  0  0  0  0
   37.5830   32.4960   44.9930 H   0  0  0  0  0  0  0  0  0  0  0  0
   36.8690   30.4880   42.4460 Cl  0  0  0  0  0  0  0  0  0  0  0  0
   36.0400   30.1390   43.9720 C   0  0  0  0  0  0  0  0  0  0  0  0
   36.6270   30.6450   45.1400 C   0  0  0  0  0  0  0  0  0  0  0  0
   35.9090   30.3200   46.2650 C   0  0  0  0  0  0  0  0  0  0  0  0
   36.2840   30.6590   47.2180 H   0  0  0  0  0  0  0  0  0  0  0  0
   34.7430   29.5840   46.2790 C   0  0  0  0  0  0  0  0  0  0  0  0
   34.2250   29.1180   45.0790 C   0  0  0  0  0  0  0  0  0  0  0  0
   32.7680   28.1860   44.9810 Cl  0  0  0  0  0  0  0  0  0  0  0  0
   34.8850   29.4010   43.9070 C   0  0  0  0  0  0  0  0  0  0  0  0
   34.5190   29.0600   42.9480 H   0  0  0  0  0  0  0  0  0  0  0  0
   36.8820   29.3010   50.2880 C   0  0  0  0  0  0  0  0  0  0  0  0
   36.2620   29.7340   51.4690 F   0  0  0  0  0  0  0  0  0  0  0  0
   36.0810   28.5690   49.4890 F   0  0  0  0  0  0  0  0  0  0  0  0
   38.0120   28.5860   50.6850 F   0  0  0  0  0  0  0  0  0  0  0  0
  1  2  1  0  0  0  0
  1 33  1  0  0  0  0
  2 13  1  0  0  0  0
  3 14  1  0  0  0  0
  3  2  2  0  0  0  0
  4  3  1  0  0  0  0
  5  4  2  0  0  0  0
  5  6  1  0  0  0  0
  6  1  2  0  0  0  0
  7  5  1  0  0  0  0
  8  7  1  0  0  0  0
  8 15  1  0  0  0  0
  9 17  1  0  0  0  0
  9  8  1  0  0  0  0
 10 11  1  0  0  0  0
 10  9  1  0  0  0  0
 11 20  1  0  0  0  0
 11 12  1  0  0  0  0
 12 22  1  6  0  0  0
 12 25  1  0  0  0  0
 12  7  1  0  0  0  0
 16  8  1  0  0  0  0
 18  9  1  0  0  0  0
 19 10  1  0  0  0  0
 21 11  1  0  0  0  0
 23 24  1  0  0  0  0
 24 25  1  0  0  0  0
 25 26  2  0  0  0  0
 26 28  1  0  0  0  0
 26 27  1  0  0  0  0
 29 28  2  0  0  0  0
 30 29  1  0  0  0  0
 31 24  2  0  0  0  0
 31 29  1  0  0  0  0
 32 31  1  0  0  0  0
 33 36  1  0  0  0  0
 33 34  1  0  0  0  0
 35 33  1  0  0  0  0
M  END
>  <minimizedAffinity>
-6.65651608

>  <minimizedRMSD>
1.8281132

$$$$
