
 OpenBabel03272503413D

 42 45  0  0  1  0  0  0  0  0999 V2000
   39.6870   31.2130   41.6910 C   0  0  2  0  0  0  0  0  0  0  0  0
   39.5720   32.3660   42.7160 C   0  0  1  0  0  0  0  0  0  0  0  0
   38.4060   33.0890   42.1250 C   0  0  0  0  0  0  0  0  0  0  0  0
   38.5150   32.9990   40.7590 O   0  0  0  0  0  0  0  0  0  0  0  0
   39.4550   32.0720   40.4290 C   0  0  0  0  0  0  0  0  0  0  0  0
   40.6900   30.7930   41.6950 H   0  0  0  0  0  0  0  0  0  0  0  0
   40.4600   33.0000   42.7130 H   0  0  0  0  0  0  0  0  0  0  0  0
   37.4560   32.6200   42.4720 H   0  0  0  0  0  0  0  0  0  0  0  0
   38.3870   34.1250   42.4860 H   0  0  0  0  0  0  0  0  0  0  0  0
   39.0700   31.4250   39.6130 H   0  0  0  0  0  0  0  0  0  0  0  0
   40.4050   32.5680   40.1220 H   0  0  0  0  0  0  0  0  0  0  0  0
   38.3500   31.1620   45.8780 C   0  0  0  0  0  0  0  0  0  0  0  0
   39.6900   30.9690   46.0480 C   0  0  0  0  0  0  0  0  0  0  0  0
   40.2690   31.4090   44.8590 C   0  0  0  0  0  0  0  0  0  0  0  0
   39.3090   31.8430   44.0310 N   0  0  0  0  0  0  0  0  0  0  0  0
   38.1380   31.6930   44.6510 N   0  0  0  0  0  0  0  0  0  0  0  0
   40.1810   30.5550   46.9310 H   0  0  0  0  0  0  0  0  0  0  0  0
   41.3630   31.3520   44.7550 H   0  0  0  0  0  0  0  0  0  0  0  0
   36.4850   30.6290   49.0840 C   0  0  0  0  0  0  0  0  0  0  0  0
   37.5060   30.9390   48.2070 C   0  0  0  0  0  0  0  0  0  0  0  0
   37.3230   30.8540   46.8470 C   0  0  0  0  0  0  0  0  0  0  0  0
   36.1030   30.4570   46.4230 N   0  0  0  0  0  0  0  0  0  0  0  0
   35.1020   30.1540   47.3000 C   0  0  0  0  0  0  0  0  0  0  0  0
   35.2760   30.2360   48.6000 N   0  0  0  0  0  0  0  0  0  0  0  0
   38.5070   31.2630   48.5080 H   0  0  0  0  0  0  0  0  0  0  0  0
   34.1250   29.8370   46.9340 H   0  0  0  0  0  0  0  0  0  0  0  0
   36.8650   30.7760   50.4230 O   0  0  0  0  0  0  0  0  0  0  0  0
   36.8970   29.7000   51.3340 C   0  0  0  0  0  0  0  0  0  0  0  0
   35.6280   29.2450   51.6580 F   0  0  0  0  0  0  0  0  0  0  0  0
   37.5810   30.0900   52.4520 F   0  0  0  0  0  0  0  0  0  0  0  0
   37.6170   28.6710   50.7540 F   0  0  0  0  0  0  0  0  0  0  0  0
   38.6080   30.4130   41.8930 O   0  0  0  0  0  0  0  0  0  0  0  0
   35.8060   29.1510   42.3600 Cl  0  0  0  0  0  0  0  0  0  0  0  0
   37.3290   28.3160   42.4660 C   0  0  0  0  0  0  0  0  0  0  0  0
   38.4180   29.1180   42.2110 C   0  0  0  0  0  0  0  0  0  0  0  0
   39.6560   28.4570   42.2930 C   0  0  0  0  0  0  0  0  0  0  0  0
   40.6550   28.8930   42.1300 H   0  0  0  0  0  0  0  0  0  0  0  0
   39.7770   27.1170   42.6030 C   0  0  0  0  0  3  0  0  0  0  0  0
   38.6320   26.3850   42.8450 C   0  0  0  0  0  0  0  0  0  0  0  0
   38.6740   24.6860   43.2450 Cl  0  0  0  0  0  0  0  0  0  0  0  0
   37.3970   26.9900   42.7770 C   0  0  0  0  0  0  0  0  0  0  0  0
   36.4670   26.4810   42.9530 H   0  0  0  0  0  0  0  0  0  0  0  0
  1  6  1  1  0  0  0
  1 32  1  0  0  0  0
  1  2  1  0  0  0  0
  2  7  1  6  0  0  0
  2 15  1  0  0  0  0
  3  8  1  0  0  0  0
  3  9  1  0  0  0  0
  3  2  1  0  0  0  0
  4  3  1  0  0  0  0
  5  4  1  0  0  0  0
  5  1  1  0  0  0  0
 10  5  1  0  0  0  0
 11  5  1  0  0  0  0
 12 13  1  0  0  0  0
 12 21  1  0  0  0  0
 13 17  1  0  0  0  0
 14 13  2  0  0  0  0
 15 16  1  0  0  0  0
 15 14  1  0  0  0  0
 16 12  2  0  0  0  0
 18 14  1  0  0  0  0
 19 27  1  0  0  0  0
 20 25  1  0  0  0  0
 20 19  2  0  0  0  0
 21 20  1  0  0  0  0
 22 21  2  0  0  0  0
 22 23  1  0  0  0  0
 23 24  2  0  0  0  0
 24 19  1  0  0  0  0
 26 23  1  0  0  0  0
 27 28  1  0  0  0  0
 28 29  1  0  0  0  0
 28 30  1  0  0  0  0
 31 28  1  0  0  0  0
 32 35  1  0  0  0  0
 33 34  1  0  0  0  0
 34 41  1  0  0  0  0
 35 36  1  0  0  0  0
 35 34  2  0  0  0  0
 36 38  2  0  0  0  0
 37 36  1  0  0  0  0
 38 39  1  0  0  0  0
 39 40  1  0  0  0  0
 41 39  2  0  0  0  0
 41 42  1  0  0  0  0
M  END
>  <minimizedAffinity>
-6.39159441

>  <minimizedRMSD>
0.67195797

$$$$
