
 OpenBabel03272503413D

 42 45  0  0  1  0  0  0  0  0999 V2000
   39.9990   31.0700   41.7540 C   0  0  2  0  0  0  0  0  0  0  0  0
   39.6550   32.2490   42.6940 C   0  0  1  0  0  0  0  0  0  0  0  0
   38.4450   32.7660   41.9860 C   0  0  0  0  0  0  0  0  0  0  0  0
   38.6620   32.6180   40.6380 O   0  0  0  0  0  0  0  0  0  0  0  0
   39.7420   31.8180   40.4270 C   0  0  0  0  0  0  0  0  0  0  0  0
   41.0480   30.7980   41.8470 H   0  0  0  0  0  0  0  0  0  0  0  0
   40.4450   33.0020   42.7060 H   0  0  0  0  0  0  0  0  0  0  0  0
   37.5460   32.1870   42.3030 H   0  0  0  0  0  0  0  0  0  0  0  0
   38.2580   33.8070   42.2790 H   0  0  0  0  0  0  0  0  0  0  0  0
   39.5080   31.0790   39.6320 H   0  0  0  0  0  0  0  0  0  0  0  0
   40.6330   32.4250   40.1490 H   0  0  0  0  0  0  0  0  0  0  0  0
   38.3900   31.1260   45.8690 C   0  0  0  0  0  0  0  0  0  0  0  0
   39.7300   30.9770   46.0760 C   0  0  0  0  0  0  0  0  0  0  0  0
   40.3260   31.3910   44.8870 C   0  0  0  0  0  0  0  0  0  0  0  0
   39.3740   31.7670   44.0210 N   0  0  0  0  0  0  0  0  0  0  0  0
   38.1930   31.6060   44.6190 N   0  0  0  0  0  0  0  0  0  0  0  0
   40.2110   30.6100   46.9860 H   0  0  0  0  0  0  0  0  0  0  0  0
   41.4230   31.3600   44.8100 H   0  0  0  0  0  0  0  0  0  0  0  0
   36.4770   30.6140   49.0500 C   0  0  0  0  0  0  0  0  0  0  0  0
   37.5120   30.9180   48.1860 C   0  0  0  0  0  0  0  0  0  0  0  0
   37.3490   30.8250   46.8240 C   0  0  0  0  0  0  0  0  0  0  0  0
   36.1340   30.4260   46.3840 N   0  0  0  0  0  0  0  0  0  0  0  0
   35.1210   30.1290   47.2490 C   0  0  0  0  0  0  0  0  0  0  0  0
   35.2760   30.2180   48.5500 N   0  0  0  0  0  0  0  0  0  0  0  0
   38.5080   31.2430   48.5000 H   0  0  0  0  0  0  0  0  0  0  0  0
   34.1490   29.8100   46.8690 H   0  0  0  0  0  0  0  0  0  0  0  0
   36.8370   30.7680   50.3940 O   0  0  0  0  0  0  0  0  0  0  0  0
   36.8800   29.6930   51.3050 C   0  0  0  0  0  0  0  0  0  0  0  0
   35.6150   29.2360   51.6420 F   0  0  0  0  0  0  0  0  0  0  0  0
   37.5740   30.0850   52.4160 F   0  0  0  0  0  0  0  0  0  0  0  0
   37.5960   28.6650   50.7190 F   0  0  0  0  0  0  0  0  0  0  0  0
   39.0300   30.1370   41.9390 O   0  0  0  0  0  0  0  0  0  0  0  0
   38.4010   28.6950   39.2580 Cl  0  0  0  0  0  0  0  0  0  0  0  0
   38.6940   27.9190   40.7880 C   0  0  0  0  0  0  0  0  0  0  0  0
   38.9480   28.7990   41.8150 C   0  0  0  0  0  0  0  0  0  0  0  0
   39.1870   28.1860   43.0560 C   0  0  0  0  0  0  0  0  0  0  0  0
   39.4100   28.6860   44.0140 H   0  0  0  0  0  0  0  0  0  0  0  0
   39.1680   26.8170   43.2400 C   0  0  0  0  0  3  0  0  0  0  0  0
   38.9040   26.0060   42.1530 C   0  0  0  0  0  0  0  0  0  0  0  0
   38.8580   24.2640   42.2760 Cl  0  0  0  0  0  0  0  0  0  0  0  0
   38.6650   26.5620   40.9180 C   0  0  0  0  0  0  0  0  0  0  0  0
   38.4530   25.9900   40.0310 H   0  0  0  0  0  0  0  0  0  0  0  0
  1  6  1  1  0  0  0
  1 32  1  0  0  0  0
  1  2  1  0  0  0  0
  2  7  1  1  0  0  0
  2 15  1  0  0  0  0
  3  9  1  0  0  0  0
  3  8  1  0  0  0  0
  3  2  1  0  0  0  0
  4  3  1  0  0  0  0
  5  4  1  0  0  0  0
  5  1  1  0  0  0  0
 10  5  1  0  0  0  0
 11  5  1  0  0  0  0
 12 13  1  0  0  0  0
 12 21  1  0  0  0  0
 13 17  1  0  0  0  0
 14 13  2  0  0  0  0
 15 16  1  0  0  0  0
 15 14  1  0  0  0  0
 16 12  2  0  0  0  0
 18 14  1  0  0  0  0
 19 27  1  0  0  0  0
 20 25  1  0  0  0  0
 20 19  2  0  0  0  0
 21 20  1  0  0  0  0
 22 21  2  0  0  0  0
 22 23  1  0  0  0  0
 23 24  2  0  0  0  0
 24 19  1  0  0  0  0
 26 23  1  0  0  0  0
 27 28  1  0  0  0  0
 28 29  1  0  0  0  0
 28 30  1  0  0  0  0
 31 28  1  0  0  0  0
 33 34  1  0  0  0  0
 34 41  2  0  0  0  0
 34 35  1  0  0  0  0
 35 32  1  0  0  0  0
 35 36  2  0  0  0  0
 36 38  1  0  0  0  0
 36 37  1  0  0  0  0
 39 40  1  0  0  0  0
 39 38  2  0  0  0  0
 41 39  1  0  0  0  0
 42 41  1  0  0  0  0
M  END
>  <minimizedAffinity>
-6.30427408

>  <minimizedRMSD>
1.09545994

$$$$
