
     RDKit          3D

 35 36  0  0  0  0  0  0  0  0999 V2000
   38.6498   32.3256   46.4358 C   0  0  0  0  0  0  0  0  0  0  0  0
   39.9195   32.8273   46.2359 C   0  0  0  0  0  0  0  0  0  0  0  0
   40.3259   33.2318   44.9389 C   0  0  0  0  0  0  0  0  0  0  0  0
   39.3905   33.0884   43.9427 N   0  0  0  0  0  0  0  0  0  0  0  0
   38.1438   32.5870   44.1832 C   0  0  0  0  0  0  0  0  0  0  0  0
   37.7977   32.2185   45.4093 N   0  0  0  0  0  0  0  0  0  0  0  0
   37.7782   32.9263   41.8409 C   0  0  0  0  0  0  0  0  0  0  0  0
   38.9563   33.4002   41.6502 O   0  0  0  0  0  0  0  0  0  0  0  0
   37.2335   32.4727   43.0861 N   0  0  0  0  0  0  0  0  0  0  0  0
   38.4256   31.9859   47.7416 O   0  0  0  0  0  0  0  0  0  0  0  0
   37.2631   31.3619   48.0628 C   0  0  0  0  0  0  0  0  0  0  0  0
   37.7414   30.3834   48.8828 C   0  0  0  0  0  0  0  0  0  0  0  0
   38.1065   30.8155   50.2594 C   0  0  0  0  0  0  0  0  0  0  0  0
   37.3392   29.9216   51.5654 S   0  0  0  0  0  0  0  0  0  0  0  0
   40.6838   32.9546   46.9988 H   0  0  0  0  0  0  0  0  0  0  0  0
   41.3043   33.6242   44.7545 H   0  0  0  0  0  0  0  0  0  0  0  0
   37.1665   32.8816   40.9464 H   0  0  0  0  0  0  0  0  0  0  0  0
   36.2896   32.0999   43.2051 H   0  0  0  0  0  0  0  0  0  0  0  0
   36.6399   31.0396   47.2023 H   0  0  0  0  0  0  0  0  0  0  0  0
   36.6083   32.1098   48.6023 H   0  0  0  0  0  0  0  0  0  0  0  0
   36.9312   29.6028   49.0357 H   0  0  0  0  0  0  0  0  0  0  0  0
   38.5823   29.7630   48.4992 H   0  0  0  0  0  0  0  0  0  0  0  0
   37.8078   31.9014   50.3539 H   0  0  0  0  0  0  0  0  0  0  0  0
   39.2295   30.8644   50.3700 H   0  0  0  0  0  0  0  0  0  0  0  0
   35.7861   27.9336   49.7964 Cl  0  0  0  0  0  0  0  0  0  0  0  0
   37.1550   27.4329   50.7712 C   0  0  0  0  0  0  0  0  0  0  0  0
   37.9283   28.2446   51.6107 C   0  0  0  0  0  0  0  0  0  0  0  0
   38.9619   27.6328   52.2852 C   0  0  0  0  0  0  0  0  0  0  0  0
   39.4783   28.3494   52.8969 H   0  0  0  0  0  0  0  0  0  0  0  0
   39.2325   26.2995   52.1524 C   0  0  0  0  0  0  0  0  0  0  0  0
   38.4726   25.4818   51.3221 C   0  0  0  0  0  0  0  0  0  0  0  0
   38.9231   23.8054   51.2440 Cl  0  0  0  0  0  0  0  0  0  0  0  0
   37.4336   26.0670   50.6363 C   0  0  0  0  0  0  0  0  0  0  0  0
   36.8876   25.3820   50.0143 H   0  0  0  0  0  0  0  0  0  0  0  0
   40.0814   26.0076   52.7620 H   0  0  0  0  0  0  0  0  0  0  0  0
  1 10  1  0
  2  1  2  0
  3  2  1  0
  4  5  1  0
  4  3  2  0
  5  6  2  0
  6  1  1  0
  7  9  1  0
  8  7  2  0
  9  5  1  0
 10 11  1  0
 11 12  1  0
 12 13  1  0
 13 14  1  0
  2 15  1  0
  3 16  1  0
  7 17  1  0
  9 18  1  0
 11 19  1  0
 11 20  1  0
 12 21  1  0
 12 22  1  0
 13 23  1  0
 13 24  1  0
 25 26  1  0
 26 27  2  0
 27 28  1  0
 28 29  1  0
 28 30  2  0
 30 31  1  0
 31 32  1  0
 31 33  2  0
 33 34  1  0
 33 26  1  0
 30 35  1  0
 14 27  1  0
M  ISO  8  15  14  16  14  17   6  19   8  20   8  21   8  22   8  23   8
M  ISO  3  24   8  29  16  34  15
M  END
>  <DihAtoms>  (1) 
12,13,26,25

>  <DihDeg>  (1) 
-177.84960762381192

$$$$
