
 OpenBabel03272510263D

 46 50  0  0  1  0  0  0  0  0999 V2000
   39.5160   33.4920   43.3780 O   0  0  0  0  0  0  0  0  0  0  0  0
   36.1800   30.2300   46.9810 C   0  0  0  0  0  0  0  0  0  0  0  0
   37.0410   30.7340   47.9400 C   0  0  0  0  0  0  0  0  0  0  0  0
   38.0700   31.6110   47.5750 C   0  0  0  0  0  0  0  0  0  0  0  0
   38.1530   31.9220   46.2230 C   0  0  0  0  0  0  0  0  0  0  0  0
   39.0760   32.7500   45.6210 N   0  0  0  0  0  0  0  0  0  0  0  0
   38.7840   32.7540   44.3130 C   0  0  0  0  0  0  0  0  0  0  0  0
   37.7440   31.9810   44.0950 N   0  0  0  0  0  0  0  0  0  0  0  0
   37.3210   31.4430   45.2500 C   0  0  0  0  0  0  0  0  0  0  0  0
   36.3040   30.5730   45.6400 C   0  0  0  0  0  0  0  0  0  0  0  0
   35.3630   29.5460   47.2030 H   0  0  0  0  0  0  0  0  0  0  0  0
   38.7490   32.0120   48.3140 H   0  0  0  0  0  0  0  0  0  0  0  0
   39.8460   33.2620   46.1200 H   0  0  0  0  0  0  0  0  0  0  0  0
   35.6410   30.1890   44.8750 H   0  0  0  0  0  0  0  0  0  0  0  0
   37.4200   30.1000   51.6160 C   0  0  0  0  0  0  0  0  0  0  0  0
   37.7440   30.5530   50.3440 C   0  0  0  0  0  0  0  0  0  0  0  0
   36.8490   30.3300   49.3160 C   0  0  0  0  0  0  0  0  0  0  0  0
   35.6840   29.6690   49.6190 N   0  0  0  0  0  0  0  0  0  0  0  0
   35.3910   29.2380   50.8620 C   0  0  0  0  0  0  0  0  0  0  0  0
   36.2570   29.4560   51.8430 N   0  0  0  0  0  0  0  0  0  0  0  0
   38.1370   30.2830   52.4170 H   0  0  0  0  0  0  0  0  0  0  0  0
   38.6590   31.0700   50.1120 H   0  0  0  0  0  0  0  0  0  0  0  0
   34.4440   28.7300   50.9810 H   0  0  0  0  0  0  0  0  0  0  0  0
   39.6700   31.5770   42.1000 N   0  0  0  0  0  0  0  0  0  0  0  0
   39.4810   33.0300   42.0350 C   0  0  1  0  0  0  0  0  0  0  0  0
   38.1800   33.2960   41.4360 C   0  0  0  0  0  0  0  0  0  0  0  0
   38.1970   32.8570   40.1060 O   0  0  0  0  0  0  0  0  0  0  0  0
   38.5040   31.5210   39.9500 C   0  0  0  0  0  0  0  0  0  0  0  0
   39.7530   31.1410   40.7410 C   0  0  2  0  0  0  0  0  0  0  0  0
   38.8310   31.1030   42.4780 H   0  0  0  0  0  0  0  0  0  0  0  0
   40.2960   33.3980   41.4150 H   0  0  0  0  0  0  0  0  0  0  0  0
   37.2560   32.9270   41.7970 H   0  0  0  0  0  0  0  0  0  0  0  0
   38.0680   34.4200   41.3480 H   0  0  0  0  0  0  0  0  0  0  0  0
   37.6670   30.8700   40.2530 H   0  0  0  0  0  0  0  0  0  0  0  0
   38.7110   31.3620   38.8800 H   0  0  0  0  0  0  0  0  0  0  0  0
   40.6480   31.6420   40.2550 H   0  0  0  0  0  0  0  0  0  0  0  0
   38.7900   28.8100   42.8500 Cl  0  0  0  0  0  0  0  0  0  0  0  0
   39.6180   28.5580   41.3370 C   0  0  0  0  0  0  0  0  0  0  0  0
   39.9270   29.6960   40.6400 C   0  0  0  0  0  0  0  0  0  0  0  0
   40.6060   29.3660   39.4460 C   0  0  0  0  0  0  0  0  0  0  0  0
   40.9650   30.0990   38.7080 H   0  0  0  0  0  0  0  0  0  0  0  0
   40.9260   28.0770   39.0150 C   0  0  0  0  0  3  0  0  0  0  0  0
   40.5630   27.0250   39.7980 C   0  0  0  0  0  0  0  0  0  0  0  0
   40.9110   25.3710   39.3610 Cl  0  0  0  0  0  0  0  0  0  0  0  0
   39.9050   27.2720   40.9670 C   0  0  0  0  0  0  0  0  0  0  0  0
   39.6030   26.4770   41.6070 H   0  0  0  0  0  0  0  0  0  0  0  0
  1  7  1  0  0  0  0
  2 11  1  0  0  0  0
  2  3  1  0  0  0  0
  3 17  1  0  0  0  0
  4  3  2  0  0  0  0
  4 12  1  0  0  0  0
  5  4  1  0  0  0  0
  6 13  1  0  0  0  0
  6  5  1  0  0  0  0
  7  6  1  0  0  0  0
  8  7  2  0  0  0  0
  8  9  1  0  0  0  0
  9 10  1  0  0  0  0
  9  5  2  0  0  0  0
 10  2  2  0  0  0  0
 14 10  1  0  0  0  0
 15 20  1  0  0  0  0
 15 21  1  0  0  0  0
 16 15  2  0  0  0  0
 17 18  2  0  0  0  0
 17 16  1  0  0  0  0
 18 19  1  0  0  0  0
 19 23  1  0  0  0  0
 19 20  2  0  0  0  0
 22 16  1  0  0  0  0
 24 30  1  0  0  0  0
 25 31  1  6  0  0  0
 25 24  1  0  0  0  0
 25  1  1  0  0  0  0
 26 32  1  0  0  0  0
 26 25  1  0  0  0  0
 27 26  1  0  0  0  0
 28 27  1  0  0  0  0
 28 34  1  0  0  0  0
 28 29  1  0  0  0  0
 29 36  1  6  0  0  0
 29 24  1  0  0  0  0
 33 26  1  0  0  0  0
 35 28  1  0  0  0  0
 38 37  1  0  0  0  0
 39 29  1  0  0  0  0
 39 38  2  0  0  0  0
 40 39  1  0  0  0  0
 41 40  1  0  0  0  0
 42 40  2  0  0  0  0
 42 43  1  0  0  0  0
 43 45  2  0  0  0  0
 44 43  1  0  0  0  0
 45 38  1  0  0  0  0
 45 46  1  0  0  0  0
M  END
>  <minimizedAffinity>
-6.26368427

>  <minimizedRMSD>
0.638408124

$$$$
