
 OpenBabel03272510223D

 37 40  0  0  0  0  0  0  0  0999 V2000
   38.0110   21.4620   33.4120 Br  0  0  0  0  0  0  0  0  0  0  0  0
   37.6630   23.3170   33.1700 C   0  0  0  0  0  0  0  0  0  0  0  0
   37.9850   24.2470   34.1650 C   0  0  0  0  0  0  0  0  0  0  0  0
   37.7000   25.5600   33.9070 C   0  0  0  0  0  0  0  0  0  0  0  0
   37.1200   26.0100   32.7350 C   0  0  0  0  0  0  0  0  0  0  0  0
   36.8160   25.0840   31.7810 C   0  0  0  0  0  0  0  0  0  0  0  0
   37.0890   23.7490   32.0050 C   0  0  0  0  0  0  0  0  0  0  0  0
   37.9540   26.2560   34.6820 H   0  0  0  0  0  0  0  0  0  0  0  0
   36.3610   25.3570   30.8380 H   0  0  0  0  0  0  0  0  0  0  0  0
   36.8430   23.0120   31.2380 H   0  0  0  0  0  0  0  0  0  0  0  0
   38.2940   23.3810   37.6900 C   0  0  0  0  0  0  0  0  0  0  0  0
   39.6580   23.0080   37.8210 C   0  0  0  0  0  0  0  0  0  0  0  0
   40.4440   23.0620   36.6900 C   0  0  0  0  0  0  0  0  0  0  0  0
   39.8860   23.4680   35.5050 N   0  0  0  0  0  0  0  0  0  0  0  0
   38.5950   23.8150   35.4100 C   0  0  0  0  0  0  0  0  0  0  0  0
   37.8010   23.7680   36.5190 N   0  0  0  0  0  0  0  0  0  0  0  0
   37.6810   23.3410   38.5660 H   0  0  0  0  0  0  0  0  0  0  0  0
   40.0880   22.6910   38.7540 H   0  0  0  0  0  0  0  0  0  0  0  0
   41.4940   22.8020   36.6700 H   0  0  0  0  0  0  0  0  0  0  0  0
   36.8260   27.4030   32.4820 C   0  0  0  0  0  0  0  0  0  0  0  0
   37.1290   28.0730   31.3090 C   0  0  0  0  0  0  0  0  0  0  0  0
   36.8240   29.4100   31.1220 C   0  0  0  0  0  0  0  0  0  0  0  0
   36.2120   30.1030   32.1020 N   0  0  0  0  0  0  0  0  0  0  0  0
   35.9140   29.4620   33.2420 C   0  0  0  0  0  0  0  0  0  0  0  0
   36.2130   28.1750   33.4100 N   0  0  0  0  0  0  0  0  0  0  0  0
   37.6210   27.5110   30.5260 H   0  0  0  0  0  0  0  0  0  0  0  0
   37.0610   29.9250   30.2120 H   0  0  0  0  0  0  0  0  0  0  0  0
   32.8620   29.3860   33.3060 Cl  0  0  0  0  0  0  0  0  0  0  0  0
   33.8720   30.2490   34.4200 C   0  0  0  0  0  0  0  0  0  0  0  0
   35.2510   30.2160   34.2990 C   0  0  0  0  0  0  0  0  0  0  0  0
   35.9310   30.9330   35.2350 C   0  0  0  0  0  0  0  0  0  0  0  0
   37.0180   30.9390   35.1820 H   0  0  0  0  0  0  0  0  0  0  0  0
   35.3500   31.6680   36.2610 C   0  0  0  0  0  3  0  0  0  0  0  0
   33.9680   31.6710   36.3430 C   0  0  0  0  0  0  0  0  0  0  0  0
   33.1220   32.5640   37.6000 Cl  0  0  0  0  0  0  0  0  0  0  0  0
   33.2360   30.9480   35.4040 C   0  0  0  0  0  0  0  0  0  0  0  0
   32.1490   30.9770   35.5010 H   0  0  0  0  0  0  0  0  0  0  0  0
  2  1  1  0  0  0  0
  2  3  1  0  0  0  0
  3 15  1  0  0  0  0
  4  3  2  0  0  0  0
  4  8  1  0  0  0  0
  5  4  1  0  0  0  0
  6  7  1  0  0  0  0
  6  5  2  0  0  0  0
  7  2  2  0  0  0  0
  9  6  1  0  0  0  0
 10  7  1  0  0  0  0
 11 12  1  0  0  0  0
 11 17  1  0  0  0  0
 12 18  1  0  0  0  0
 13 12  2  0  0  0  0
 14 13  1  0  0  0  0
 15 14  2  0  0  0  0
 15 16  1  0  0  0  0
 16 11  2  0  0  0  0
 19 13  1  0  0  0  0
 20  5  1  0  0  0  0
 20 25  1  0  0  0  0
 21 20  2  0  0  0  0
 22 21  1  0  0  0  0
 22 23  2  0  0  0  0
 23 24  1  0  0  0  0
 24 25  2  0  0  0  0
 24 30  1  0  0  0  0
 26 21  1  0  0  0  0
 27 22  1  0  0  0  0
 28 29  1  0  0  0  0
 29 36  1  0  0  0  0
 30 29  2  0  0  0  0
 30 31  1  0  0  0  0
 31 33  2  0  0  0  0
 32 31  1  0  0  0  0
 33 34  1  0  0  0  0
 34 35  1  0  0  0  0
 36 37  1  0  0  0  0
 36 34  2  0  0  0  0
M  END
>  <minimizedAffinity>
-6.50556993

$$$$

 OpenBabel03272510223D

 37 40  0  0  0  0  0  0  0  0999 V2000
   40.4950   24.4660   34.4830 Br  0  0  0  0  0  0  0  0  0  0  0  0
   39.1020   25.7400   34.2440 C   0  0  0  0  0  0  0  0  0  0  0  0
   38.0350   25.8190   35.1460 C   0  0  0  0  0  0  0  0  0  0  0  0
   37.0770   26.7640   34.8970 C   0  0  0  0  0  0  0  0  0  0  0  0
   37.1060   27.6300   33.8200 C   0  0  0  0  0  0  0  0  0  0  0  0
   38.1560   27.5320   32.9550 C   0  0  0  0  0  0  0  0  0  0  0  0
   39.1430   26.5910   33.1730 C   0  0  0  0  0  0  0  0  0  0  0  0
   36.2680   26.8090   35.6000 H   0  0  0  0  0  0  0  0  0  0  0  0
   38.2500   28.1740   32.0890 H   0  0  0  0  0  0  0  0  0  0  0  0
   39.9810   26.5170   32.4780 H   0  0  0  0  0  0  0  0  0  0  0  0
   37.6390   22.7390   37.0500 C   0  0  0  0  0  0  0  0  0  0  0  0
   37.8200   23.1550   38.3950 C   0  0  0  0  0  0  0  0  0  0  0  0
   38.0760   24.4900   38.6190 C   0  0  0  0  0  0  0  0  0  0  0  0
   38.1430   25.3470   37.5510 N   0  0  0  0  0  0  0  0  0  0  0  0
   37.9670   24.9270   36.2900 C   0  0  0  0  0  0  0  0  0  0  0  0
   37.7130   23.6090   36.0490 N   0  0  0  0  0  0  0  0  0  0  0  0
   37.4390   21.7020   36.8720 H   0  0  0  0  0  0  0  0  0  0  0  0
   37.7660   22.4750   39.2270 H   0  0  0  0  0  0  0  0  0  0  0  0
   38.2310   24.9210   39.6000 H   0  0  0  0  0  0  0  0  0  0  0  0
   36.0830   28.6220   33.5750 C   0  0  0  0  0  0  0  0  0  0  0  0
   35.3010   28.6830   32.4340 C   0  0  0  0  0  0  0  0  0  0  0  0
   34.3350   29.6580   32.2520 C   0  0  0  0  0  0  0  0  0  0  0  0
   34.1320   30.5880   33.2050 N   0  0  0  0  0  0  0  0  0  0  0  0
   34.8840   30.5370   34.3130 C   0  0  0  0  0  0  0  0  0  0  0  0
   35.8110   29.5940   34.4770 N   0  0  0  0  0  0  0  0  0  0  0  0
   35.4690   27.9340   31.6720 H   0  0  0  0  0  0  0  0  0  0  0  0
   33.7320   29.7020   31.3670 H   0  0  0  0  0  0  0  0  0  0  0  0
   32.5200   30.1070   36.1980 Cl  0  0  0  0  0  0  0  0  0  0  0  0
   33.6180   31.4480   36.2480 C   0  0  0  0  0  0  0  0  0  0  0  0
   34.6600   31.5450   35.3420 C   0  0  0  0  0  0  0  0  0  0  0  0
   35.4510   32.6440   35.4860 C   0  0  0  0  0  0  0  0  0  0  0  0
   36.2840   32.7650   34.7970 H   0  0  0  0  0  0  0  0  0  0  0  0
   35.2830   33.6330   36.4470 C   0  0  0  0  0  3  0  0  0  0  0  0
   34.2270   33.4940   37.3310 C   0  0  0  0  0  0  0  0  0  0  0  0
   33.9160   34.6830   38.5900 Cl  0  0  0  0  0  0  0  0  0  0  0  0
   33.3960   32.3820   37.2170 C   0  0  0  0  0  0  0  0  0  0  0  0
   32.5740   32.3090   37.9320 H   0  0  0  0  0  0  0  0  0  0  0  0
  2  1  1  0  0  0  0
  2  3  1  0  0  0  0
  3 15  1  0  0  0  0
  4  3  2  0  0  0  0
  4  8  1  0  0  0  0
  5  4  1  0  0  0  0
  6  7  1  0  0  0  0
  6  5  2  0  0  0  0
  7  2  2  0  0  0  0
  9  6  1  0  0  0  0
 10  7  1  0  0  0  0
 11 12  1  0  0  0  0
 12 13  2  0  0  0  0
 12 18  1  0  0  0  0
 13 19  1  0  0  0  0
 14 13  1  0  0  0  0
 15 14  2  0  0  0  0
 16 15  1  0  0  0  0
 16 11  2  0  0  0  0
 17 11  1  0  0  0  0
 20  5  1  0  0  0  0
 20 25  1  0  0  0  0
 21 20  2  0  0  0  0
 22 21  1  0  0  0  0
 22 23  2  0  0  0  0
 23 24  1  0  0  0  0
 24 25  2  0  0  0  0
 24 30  1  0  0  0  0
 26 21  1  0  0  0  0
 27 22  1  0  0  0  0
 28 29  1  0  0  0  0
 29 36  1  0  0  0  0
 30 31  1  0  0  0  0
 30 29  2  0  0  0  0
 31 33  2  0  0  0  0
 32 31  1  0  0  0  0
 33 34  1  0  0  0  0
 34 35  1  0  0  0  0
 36 34  2  0  0  0  0
 36 37  1  0  0  0  0
M  END
>  <minimizedAffinity>
-6.47295904

$$$$

 OpenBabel03272510223D

 37 40  0  0  0  0  0  0  0  0999 V2000
   39.4630   22.6950   36.3140 Br  0  0  0  0  0  0  0  0  0  0  0  0
   38.6230   24.1820   35.4740 C   0  0  0  0  0  0  0  0  0  0  0  0
   38.1670   24.1000   34.1530 C   0  0  0  0  0  0  0  0  0  0  0  0
   37.5750   25.2160   33.6280 C   0  0  0  0  0  0  0  0  0  0  0  0
   37.4060   26.4010   34.3200 C   0  0  0  0  0  0  0  0  0  0  0  0
   37.8590   26.4540   35.6060 C   0  0  0  0  0  0  0  0  0  0  0  0
   38.4620   25.3480   36.1700 C   0  0  0  0  0  0  0  0  0  0  0  0
   37.2330   25.1330   32.6150 H   0  0  0  0  0  0  0  0  0  0  0  0
   37.7630   27.3450   36.2130 H   0  0  0  0  0  0  0  0  0  0  0  0
   38.8220   25.3960   37.2000 H   0  0  0  0  0  0  0  0  0  0  0  0
   37.3640   20.8490   32.7190 C   0  0  0  0  0  0  0  0  0  0  0  0
   38.5280   20.5180   31.9760 C   0  0  0  0  0  0  0  0  0  0  0  0
   39.5670   21.4230   31.9840 C   0  0  0  0  0  0  0  0  0  0  0  0
   39.4360   22.5870   32.6980 N   0  0  0  0  0  0  0  0  0  0  0  0
   38.3260   22.8740   33.3910 C   0  0  0  0  0  0  0  0  0  0  0  0
   37.2870   21.9900   33.3950 N   0  0  0  0  0  0  0  0  0  0  0  0
   36.5550   20.1480   32.7170 H   0  0  0  0  0  0  0  0  0  0  0  0
   38.6220   19.6030   31.4190 H   0  0  0  0  0  0  0  0  0  0  0  0
   40.5000   21.2780   31.4550 H   0  0  0  0  0  0  0  0  0  0  0  0
   36.7780   27.5700   33.7460 C   0  0  0  0  0  0  0  0  0  0  0  0
   36.6140   27.7920   32.3900 C   0  0  0  0  0  0  0  0  0  0  0  0
   36.0040   28.9340   31.8970 C   0  0  0  0  0  0  0  0  0  0  0  0
   35.5480   29.8720   32.7480 N   0  0  0  0  0  0  0  0  0  0  0  0
   35.7020   29.6650   34.0640 C   0  0  0  0  0  0  0  0  0  0  0  0
   36.2900   28.5640   34.5270 N   0  0  0  0  0  0  0  0  0  0  0  0
   36.9830   27.0350   31.7120 H   0  0  0  0  0  0  0  0  0  0  0  0
   35.8800   29.1010   30.8450 H   0  0  0  0  0  0  0  0  0  0  0  0
   32.7920   29.4370   34.9600 Cl  0  0  0  0  0  0  0  0  0  0  0  0
   33.9030   30.6740   35.4500 C   0  0  0  0  0  0  0  0  0  0  0  0
   35.2050   30.6840   34.9810 C   0  0  0  0  0  0  0  0  0  0  0  0
   35.9780   31.7070   35.4390 C   0  0  0  0  0  0  0  0  0  0  0  0
   37.0100   31.7580   35.0990 H   0  0  0  0  0  0  0  0  0  0  0  0
   35.5560   32.7020   36.3120 C   0  0  0  0  0  3  0  0  0  0  0  0
   34.2450   32.6520   36.7550 C   0  0  0  0  0  0  0  0  0  0  0  0
   33.6000   33.8570   37.8620 Cl  0  0  0  0  0  0  0  0  0  0  0  0
   33.4230   31.6200   36.3090 C   0  0  0  0  0  0  0  0  0  0  0  0
   32.3960   31.6150   36.6800 H   0  0  0  0  0  0  0  0  0  0  0  0
  2  7  1  0  0  0  0
  2  1  1  0  0  0  0
  3  2  2  0  0  0  0
  4  3  1  0  0  0  0
  4  5  2  0  0  0  0
  5  6  1  0  0  0  0
  6  7  2  0  0  0  0
  6  9  1  0  0  0  0
  7 10  1  0  0  0  0
  8  4  1  0  0  0  0
 11 16  1  0  0  0  0
 12 13  1  0  0  0  0
 12 11  2  0  0  0  0
 13 14  2  0  0  0  0
 14 15  1  0  0  0  0
 15 16  2  0  0  0  0
 15  3  1  0  0  0  0
 17 11  1  0  0  0  0
 18 12  1  0  0  0  0
 19 13  1  0  0  0  0
 20  5  1  0  0  0  0
 20 25  1  0  0  0  0
 21 20  2  0  0  0  0
 22 21  1  0  0  0  0
 22 23  2  0  0  0  0
 23 24  1  0  0  0  0
 24 25  2  0  0  0  0
 24 30  1  0  0  0  0
 26 21  1  0  0  0  0
 27 22  1  0  0  0  0
 28 29  1  0  0  0  0
 29 36  1  0  0  0  0
 30 31  1  0  0  0  0
 30 29  2  0  0  0  0
 31 33  2  0  0  0  0
 32 31  1  0  0  0  0
 33 34  1  0  0  0  0
 34 35  1  0  0  0  0
 36 37  1  0  0  0  0
 36 34  2  0  0  0  0
M  END
>  <minimizedAffinity>
-6.33276033

$$$$

 OpenBabel03272510223D

 37 40  0  0  0  0  0  0  0  0999 V2000
   35.2420   31.6140   32.0580 Br  0  0  0  0  0  0  0  0  0  0  0  0
   35.8950   29.9200   32.6280 C   0  0  0  0  0  0  0  0  0  0  0  0
   35.7790   29.5150   33.9630 C   0  0  0  0  0  0  0  0  0  0  0  0
   36.2760   28.2810   34.2840 C   0  0  0  0  0  0  0  0  0  0  0  0
   36.8760   27.4280   33.3770 C   0  0  0  0  0  0  0  0  0  0  0  0
   36.9770   27.8470   32.0830 C   0  0  0  0  0  0  0  0  0  0  0  0
   36.4870   29.0860   31.7200 C   0  0  0  0  0  0  0  0  0  0  0  0
   36.1770   27.9890   35.3120 H   0  0  0  0  0  0  0  0  0  0  0  0
   37.4330   27.2370   31.3150 H   0  0  0  0  0  0  0  0  0  0  0  0
   36.5700   29.4160   30.6820 H   0  0  0  0  0  0  0  0  0  0  0  0
   33.1680   31.0470   35.9880 C   0  0  0  0  0  0  0  0  0  0  0  0
   33.8750   31.9830   36.7890 C   0  0  0  0  0  0  0  0  0  0  0  0
   35.2400   32.0660   36.6140 C   0  0  0  0  0  0  0  0  0  0  0  0
   35.8470   31.2560   35.6890 N   0  0  0  0  0  0  0  0  0  0  0  0
   35.1550   30.3810   34.9470 C   0  0  0  0  0  0  0  0  0  0  0  0
   33.8030   30.2850   35.1050 N   0  0  0  0  0  0  0  0  0  0  0  0
   32.1080   30.9790   36.1200 H   0  0  0  0  0  0  0  0  0  0  0  0
   33.3900   32.6140   37.5110 H   0  0  0  0  0  0  0  0  0  0  0  0
   35.8800   32.7410   37.1660 H   0  0  0  0  0  0  0  0  0  0  0  0
   37.3950   26.1280   33.7380 C   0  0  0  0  0  0  0  0  0  0  0  0
   38.1280   25.8600   34.8810 C   0  0  0  0  0  0  0  0  0  0  0  0
   38.6020   24.5920   35.1750 C   0  0  0  0  0  0  0  0  0  0  0  0
   38.3530   23.5710   34.3350 N   0  0  0  0  0  0  0  0  0  0  0  0
   37.6430   23.8200   33.2240 C   0  0  0  0  0  0  0  0  0  0  0  0
   37.1930   25.0440   32.9520 N   0  0  0  0  0  0  0  0  0  0  0  0
   38.3250   26.6850   35.5530 H   0  0  0  0  0  0  0  0  0  0  0  0
   39.1690   24.3900   36.0630 H   0  0  0  0  0  0  0  0  0  0  0  0
   39.8960   22.9830   31.3400 Cl  0  0  0  0  0  0  0  0  0  0  0  0
   38.3270   22.2500   31.4230 C   0  0  0  0  0  0  0  0  0  0  0  0
   37.3760   22.7110   32.3170 C   0  0  0  0  0  0  0  0  0  0  0  0
   36.1840   22.0530   32.2850 C   0  0  0  0  0  0  0  0  0  0  0  0
   35.4040   22.3780   32.9700 H   0  0  0  0  0  0  0  0  0  0  0  0
   35.8770   20.9910   31.4430 C   0  0  0  0  0  3  0  0  0  0  0  0
   36.8590   20.5650   30.5650 C   0  0  0  0  0  0  0  0  0  0  0  0
   36.5840   19.2310   29.4530 Cl  0  0  0  0  0  0  0  0  0  0  0  0
   38.0920   21.2130   30.5690 C   0  0  0  0  0  0  0  0  0  0  0  0
   38.8400   20.8480   29.8610 H   0  0  0  0  0  0  0  0  0  0  0  0
  1  2  1  0  0  0  0
  2  3  1  0  0  0  0
  3  4  2  0  0  0  0
  3 15  1  0  0  0  0
  4  8  1  0  0  0  0
  5 20  1  0  0  0  0
  5  4  1  0  0  0  0
  6  5  2  0  0  0  0
  7  6  1  0  0  0  0
  7  2  2  0  0  0  0
  9  6  1  0  0  0  0
 10  7  1  0  0  0  0
 11 17  1  0  0  0  0
 11 12  1  0  0  0  0
 12 18  1  0  0  0  0
 13 12  2  0  0  0  0
 13 19  1  0  0  0  0
 14 13  1  0  0  0  0
 15 16  1  0  0  0  0
 15 14  2  0  0  0  0
 16 11  2  0  0  0  0
 20 21  1  0  0  0  0
 21 22  2  0  0  0  0
 21 26  1  0  0  0  0
 22 27  1  0  0  0  0
 23 22  1  0  0  0  0
 24 23  2  0  0  0  0
 25 24  1  0  0  0  0
 25 20  2  0  0  0  0
 28 29  1  0  0  0  0
 29 30  1  0  0  0  0
 30 24  1  0  0  0  0
 31 30  2  0  0  0  0
 31 32  1  0  0  0  0
 33 31  1  0  0  0  0
 34 36  1  0  0  0  0
 34 33  2  0  0  0  0
 35 34  1  0  0  0  0
 36 29  2  0  0  0  0
 37 36  1  0  0  0  0
M  END
>  <minimizedAffinity>
-6.28295135

$$$$

 OpenBabel03272510223D

 37 40  0  0  0  0  0  0  0  0999 V2000
   35.5780   32.8550   32.4500 Br  0  0  0  0  0  0  0  0  0  0  0  0
   35.8510   30.9720   32.4620 C   0  0  0  0  0  0  0  0  0  0  0  0
   35.5140   30.2010   33.5800 C   0  0  0  0  0  0  0  0  0  0  0  0
   35.7440   28.8550   33.5010 C   0  0  0  0  0  0  0  0  0  0  0  0
   36.2840   28.2260   32.3960 C   0  0  0  0  0  0  0  0  0  0  0  0
   36.6050   28.9990   31.3190 C   0  0  0  0  0  0  0  0  0  0  0  0
   36.3870   30.3620   31.3610 C   0  0  0  0  0  0  0  0  0  0  0  0
   35.4780   28.2820   34.3680 H   0  0  0  0  0  0  0  0  0  0  0  0
   37.0310   28.5810   30.4170 H   0  0  0  0  0  0  0  0  0  0  0  0
   36.6460   30.9770   30.4950 H   0  0  0  0  0  0  0  0  0  0  0  0
   33.0010   31.3250   35.9660 C   0  0  0  0  0  0  0  0  0  0  0  0
   33.7640   31.9770   36.9700 C   0  0  0  0  0  0  0  0  0  0  0  0
   35.1320   32.0150   36.8040 C   0  0  0  0  0  0  0  0  0  0  0  0
   35.6890   31.4330   35.6940 N   0  0  0  0  0  0  0  0  0  0  0  0
   34.9430   30.8240   34.7610 C   0  0  0  0  0  0  0  0  0  0  0  0
   33.5880   30.7760   34.9080 N   0  0  0  0  0  0  0  0  0  0  0  0
   31.9380   31.2930   36.0900 H   0  0  0  0  0  0  0  0  0  0  0  0
   33.3190   32.4310   37.8370 H   0  0  0  0  0  0  0  0  0  0  0  0
   35.8130   32.4830   37.5020 H   0  0  0  0  0  0  0  0  0  0  0  0
   36.5200   26.8000   32.3330 C   0  0  0  0  0  0  0  0  0  0  0  0
   35.9390   25.9440   31.4140 C   0  0  0  0  0  0  0  0  0  0  0  0
   36.2030   24.5840   31.4010 C   0  0  0  0  0  0  0  0  0  0  0  0
   37.0500   24.0560   32.3050 N   0  0  0  0  0  0  0  0  0  0  0  0
   37.6170   24.8790   33.2000 C   0  0  0  0  0  0  0  0  0  0  0  0
   37.3570   26.1850   33.2020 N   0  0  0  0  0  0  0  0  0  0  0  0
   35.2600   26.3740   30.6900 H   0  0  0  0  0  0  0  0  0  0  0  0
   35.7500   23.9250   30.6870 H   0  0  0  0  0  0  0  0  0  0  0  0
   40.5820   24.8210   32.4670 Cl  0  0  0  0  0  0  0  0  0  0  0  0
   39.8970   24.2270   33.9450 C   0  0  0  0  0  0  0  0  0  0  0  0
   38.5340   24.3020   34.1760 C   0  0  0  0  0  0  0  0  0  0  0  0
   38.1220   23.8020   35.3730 C   0  0  0  0  0  0  0  0  0  0  0  0
   37.0590   23.8380   35.6010 H   0  0  0  0  0  0  0  0  0  0  0  0
   38.9510   23.2430   36.3380 C   0  0  0  0  0  3  0  0  0  0  0  0
   40.3070   23.1890   36.0630 C   0  0  0  0  0  0  0  0  0  0  0  0
   41.4530   22.5050   37.2080 Cl  0  0  0  0  0  0  0  0  0  0  0  0
   40.7680   23.6920   34.8480 C   0  0  0  0  0  0  0  0  0  0  0  0
   41.8440   23.6310   34.6690 H   0  0  0  0  0  0  0  0  0  0  0  0
  1  2  1  0  0  0  0
  2  3  1  0  0  0  0
  3 15  1  0  0  0  0
  4  3  2  0  0  0  0
  4  8  1  0  0  0  0
  5  4  1  0  0  0  0
  6  7  1  0  0  0  0
  6  5  2  0  0  0  0
  7  2  2  0  0  0  0
  9  6  1  0  0  0  0
 10  7  1  0  0  0  0
 11 17  1  0  0  0  0
 11 12  1  0  0  0  0
 12 18  1  0  0  0  0
 13 12  2  0  0  0  0
 13 19  1  0  0  0  0
 14 13  1  0  0  0  0
 15 16  1  0  0  0  0
 15 14  2  0  0  0  0
 16 11  2  0  0  0  0
 20  5  1  0  0  0  0
 20 25  1  0  0  0  0
 21 20  2  0  0  0  0
 22 21  1  0  0  0  0
 22 23  2  0  0  0  0
 23 24  1  0  0  0  0
 24 25  2  0  0  0  0
 24 30  1  0  0  0  0
 26 21  1  0  0  0  0
 27 22  1  0  0  0  0
 28 29  1  0  0  0  0
 29 30  2  0  0  0  0
 29 36  1  0  0  0  0
 30 31  1  0  0  0  0
 31 32  1  0  0  0  0
 31 33  2  0  0  0  0
 34 33  1  0  0  0  0
 34 35  1  0  0  0  0
 36 34  2  0  0  0  0
 37 36  1  0  0  0  0
M  END
>  <minimizedAffinity>
-6.20852709

$$$$

 OpenBabel03272510223D

 37 40  0  0  0  0  0  0  0  0999 V2000
   39.6880   23.8050   35.5610 Br  0  0  0  0  0  0  0  0  0  0  0  0
   38.5960   25.2420   34.9590 C   0  0  0  0  0  0  0  0  0  0  0  0
   37.9390   25.1800   33.7250 C   0  0  0  0  0  0  0  0  0  0  0  0
   37.1740   26.2580   33.3710 C   0  0  0  0  0  0  0  0  0  0  0  0
   37.0190   27.3870   34.1530 C   0  0  0  0  0  0  0  0  0  0  0  0
   37.6710   27.4230   35.3510 C   0  0  0  0  0  0  0  0  0  0  0  0
   38.4520   26.3530   35.7430 C   0  0  0  0  0  0  0  0  0  0  0  0
   36.6790   26.1900   32.4220 H   0  0  0  0  0  0  0  0  0  0  0  0
   37.6000   28.2710   36.0190 H   0  0  0  0  0  0  0  0  0  0  0  0
   38.9710   26.3880   36.7030 H   0  0  0  0  0  0  0  0  0  0  0  0
   37.2240   21.9150   32.2760 C   0  0  0  0  0  0  0  0  0  0  0  0
   38.2470   21.7520   31.3050 C   0  0  0  0  0  0  0  0  0  0  0  0
   39.1630   22.7720   31.1690 C   0  0  0  0  0  0  0  0  0  0  0  0
   39.0510   23.8830   31.9640 N   0  0  0  0  0  0  0  0  0  0  0  0
   38.0750   24.0110   32.8730 C   0  0  0  0  0  0  0  0  0  0  0  0
   37.1590   23.0110   33.0230 N   0  0  0  0  0  0  0  0  0  0  0  0
   36.5100   21.1250   32.3850 H   0  0  0  0  0  0  0  0  0  0  0  0
   38.3270   20.8760   30.6850 H   0  0  0  0  0  0  0  0  0  0  0  0
   39.9840   22.7590   30.4630 H   0  0  0  0  0  0  0  0  0  0  0  0
   36.2070   28.5170   33.7600 C   0  0  0  0  0  0  0  0  0  0  0  0
   35.7030   28.7210   32.4870 C   0  0  0  0  0  0  0  0  0  0  0  0
   34.9290   29.8250   32.1680 C   0  0  0  0  0  0  0  0  0  0  0  0
   34.6460   30.7420   33.1120 N   0  0  0  0  0  0  0  0  0  0  0  0
   35.1300   30.5530   34.3480 C   0  0  0  0  0  0  0  0  0  0  0  0
   35.8730   29.4870   34.6440 N   0  0  0  0  0  0  0  0  0  0  0  0
   35.9340   27.9810   31.7340 H   0  0  0  0  0  0  0  0  0  0  0  0
   34.5410   29.9790   31.1800 H   0  0  0  0  0  0  0  0  0  0  0  0
   36.7360   33.1500   34.2950 Cl  0  0  0  0  0  0  0  0  0  0  0  0
   35.4870   32.7600   35.4330 C   0  0  0  0  0  0  0  0  0  0  0  0
   34.8200   31.5480   35.3660 C   0  0  0  0  0  0  0  0  0  0  0  0
   33.8620   31.3620   36.3150 C   0  0  0  0  0  0  0  0  0  0  0  0
   33.3100   30.4250   36.3050 H   0  0  0  0  0  0  0  0  0  0  0  0
   33.5270   32.2760   37.3070 C   0  0  0  0  0  3  0  0  0  0  0  0
   34.2200   33.4740   37.3340 C   0  0  0  0  0  0  0  0  0  0  0  0
   33.8820   34.7070   38.5430 Cl  0  0  0  0  0  0  0  0  0  0  0  0
   35.2080   33.7020   36.3790 C   0  0  0  0  0  0  0  0  0  0  0  0
   35.7320   34.6580   36.4350 H   0  0  0  0  0  0  0  0  0  0  0  0
  2  1  1  0  0  0  0
  2  7  1  0  0  0  0
  3  2  2  0  0  0  0
  4  3  1  0  0  0  0
  4  5  2  0  0  0  0
  5  6  1  0  0  0  0
  6  7  2  0  0  0  0
  6  9  1  0  0  0  0
  7 10  1  0  0  0  0
  8  4  1  0  0  0  0
 11 17  1  0  0  0  0
 11 16  1  0  0  0  0
 12 11  2  0  0  0  0
 13 12  1  0  0  0  0
 13 14  2  0  0  0  0
 14 15  1  0  0  0  0
 15 16  2  0  0  0  0
 15  3  1  0  0  0  0
 18 12  1  0  0  0  0
 19 13  1  0  0  0  0
 20  5  1  0  0  0  0
 20 25  1  0  0  0  0
 21 20  2  0  0  0  0
 22 21  1  0  0  0  0
 22 23  2  0  0  0  0
 23 24  1  0  0  0  0
 24 25  2  0  0  0  0
 24 30  1  0  0  0  0
 26 21  1  0  0  0  0
 27 22  1  0  0  0  0
 28 29  1  0  0  0  0
 29 36  1  0  0  0  0
 30 29  2  0  0  0  0
 30 31  1  0  0  0  0
 31 33  2  0  0  0  0
 32 31  1  0  0  0  0
 33 34  1  0  0  0  0
 34 35  1  0  0  0  0
 36 37  1  0  0  0  0
 36 34  2  0  0  0  0
M  END
>  <minimizedAffinity>
-6.1723628

$$$$

 OpenBabel03272510223D

 37 40  0  0  0  0  0  0  0  0999 V2000
   35.0870   31.2760   31.5050 Br  0  0  0  0  0  0  0  0  0  0  0  0
   35.9630   29.6600   31.9970 C   0  0  0  0  0  0  0  0  0  0  0  0
   35.8870   29.1690   33.3050 C   0  0  0  0  0  0  0  0  0  0  0  0
   36.5460   28.0000   33.5710 C   0  0  0  0  0  0  0  0  0  0  0  0
   37.2720   27.2900   32.6330 C   0  0  0  0  0  0  0  0  0  0  0  0
   37.3310   27.7900   31.3650 C   0  0  0  0  0  0  0  0  0  0  0  0
   36.6780   28.9670   31.0590 C   0  0  0  0  0  0  0  0  0  0  0  0
   36.4750   27.6400   34.5790 H   0  0  0  0  0  0  0  0  0  0  0  0
   37.8780   27.2930   30.5750 H   0  0  0  0  0  0  0  0  0  0  0  0
   36.7280   29.3640   30.0420 H   0  0  0  0  0  0  0  0  0  0  0  0
   35.1900   31.4530   36.0560 C   0  0  0  0  0  0  0  0  0  0  0  0
   33.7960   31.2910   36.2760 C   0  0  0  0  0  0  0  0  0  0  0  0
   33.1240   30.3980   35.4700 C   0  0  0  0  0  0  0  0  0  0  0  0
   33.8180   29.7130   34.5060 N   0  0  0  0  0  0  0  0  0  0  0  0
   35.1340   29.8840   34.3210 C   0  0  0  0  0  0  0  0  0  0  0  0
   35.8170   30.7640   35.1090 N   0  0  0  0  0  0  0  0  0  0  0  0
   35.7160   32.1450   36.6800 H   0  0  0  0  0  0  0  0  0  0  0  0
   33.2600   31.8330   37.0350 H   0  0  0  0  0  0  0  0  0  0  0  0
   32.0640   30.1930   35.5460 H   0  0  0  0  0  0  0  0  0  0  0  0
   37.9630   26.0560   32.9350 C   0  0  0  0  0  0  0  0  0  0  0  0
   39.2680   25.9730   33.3870 C   0  0  0  0  0  0  0  0  0  0  0  0
   39.8800   24.7610   33.6600 C   0  0  0  0  0  0  0  0  0  0  0  0
   39.2000   23.6110   33.4860 N   0  0  0  0  0  0  0  0  0  0  0  0
   37.9350   23.6820   33.0470 C   0  0  0  0  0  0  0  0  0  0  0  0
   37.3560   24.8540   32.7890 N   0  0  0  0  0  0  0  0  0  0  0  0
   39.8090   26.9000   33.5250 H   0  0  0  0  0  0  0  0  0  0  0  0
   40.8910   24.7020   34.0110 H   0  0  0  0  0  0  0  0  0  0  0  0
   37.3750   22.0060   35.5390 Cl  0  0  0  0  0  0  0  0  0  0  0  0
   36.8950   21.6010   33.9220 C   0  0  0  0  0  0  0  0  0  0  0  0
   37.2030   22.4350   32.8610 C   0  0  0  0  0  0  0  0  0  0  0  0
   36.7710   22.0050   31.6430 C   0  0  0  0  0  0  0  0  0  0  0  0
   36.9890   22.6270   30.7770 H   0  0  0  0  0  0  0  0  0  0  0  0
   36.0720   20.8280   31.4100 C   0  0  0  0  0  3  0  0  0  0  0  0
   35.7870   20.0250   32.5010 C   0  0  0  0  0  0  0  0  0  0  0  0
   34.9060   18.5120   32.3280 Cl  0  0  0  0  0  0  0  0  0  0  0  0
   36.2110   20.4310   33.7640 C   0  0  0  0  0  0  0  0  0  0  0  0
   35.9680   19.7710   34.5990 H   0  0  0  0  0  0  0  0  0  0  0  0
  1  2  1  0  0  0  0
  2  3  1  0  0  0  0
  3  4  2  0  0  0  0
  3 15  1  0  0  0  0
  4  8  1  0  0  0  0
  5 20  1  0  0  0  0
  5  4  1  0  0  0  0
  6  5  2  0  0  0  0
  7  6  1  0  0  0  0
  7  2  2  0  0  0  0
  9  6  1  0  0  0  0
 10  7  1  0  0  0  0
 11 12  1  0  0  0  0
 11 17  1  0  0  0  0
 12 18  1  0  0  0  0
 13 19  1  0  0  0  0
 13 12  2  0  0  0  0
 14 13  1  0  0  0  0
 15 14  2  0  0  0  0
 15 16  1  0  0  0  0
 16 11  2  0  0  0  0
 20 21  1  0  0  0  0
 21 26  1  0  0  0  0
 21 22  2  0  0  0  0
 22 27  1  0  0  0  0
 23 22  1  0  0  0  0
 24 23  2  0  0  0  0
 25 20  2  0  0  0  0
 25 24  1  0  0  0  0
 29 28  1  0  0  0  0
 30 24  1  0  0  0  0
 30 29  2  0  0  0  0
 31 30  1  0  0  0  0
 32 31  1  0  0  0  0
 33 31  2  0  0  0  0
 33 34  1  0  0  0  0
 34 36  2  0  0  0  0
 35 34  1  0  0  0  0
 36 29  1  0  0  0  0
 36 37  1  0  0  0  0
M  END
>  <minimizedAffinity>
-6.14185667

$$$$

 OpenBabel03272510223D

 37 40  0  0  0  0  0  0  0  0999 V2000
   41.0680   24.2950   34.8700 Br  0  0  0  0  0  0  0  0  0  0  0  0
   39.7270   25.4890   34.2380 C   0  0  0  0  0  0  0  0  0  0  0  0
   38.4900   25.5910   34.8840 C   0  0  0  0  0  0  0  0  0  0  0  0
   37.5860   26.4750   34.3610 C   0  0  0  0  0  0  0  0  0  0  0  0
   37.8240   27.2580   33.2480 C   0  0  0  0  0  0  0  0  0  0  0  0
   39.0370   27.1400   32.6370 C   0  0  0  0  0  0  0  0  0  0  0  0
   39.9760   26.2590   33.1350 C   0  0  0  0  0  0  0  0  0  0  0  0
   36.6440   26.5380   34.8710 H   0  0  0  0  0  0  0  0  0  0  0  0
   39.2990   27.7190   31.7610 H   0  0  0  0  0  0  0  0  0  0  0  0
   40.9460   26.1680   32.6410 H   0  0  0  0  0  0  0  0  0  0  0  0
   37.5370   22.6990   36.8830 C   0  0  0  0  0  0  0  0  0  0  0  0
   37.6290   23.1740   38.2180 C   0  0  0  0  0  0  0  0  0  0  0  0
   38.0190   24.4830   38.4020 C   0  0  0  0  0  0  0  0  0  0  0  0
   38.2960   25.2590   37.3070 N   0  0  0  0  0  0  0  0  0  0  0  0
   38.2010   24.7850   36.0570 C   0  0  0  0  0  0  0  0  0  0  0  0
   37.8160   23.4920   35.8550 N   0  0  0  0  0  0  0  0  0  0  0  0
   37.2340   21.6830   36.7360 H   0  0  0  0  0  0  0  0  0  0  0  0
   37.4090   22.5580   39.0720 H   0  0  0  0  0  0  0  0  0  0  0  0
   38.1230   24.9530   39.3720 H   0  0  0  0  0  0  0  0  0  0  0  0
   36.8530   28.1860   32.7110 C   0  0  0  0  0  0  0  0  0  0  0  0
   36.9180   28.7530   31.4500 C   0  0  0  0  0  0  0  0  0  0  0  0
   35.9580   29.6380   30.9880 C   0  0  0  0  0  0  0  0  0  0  0  0
   34.9180   29.9730   31.7760 N   0  0  0  0  0  0  0  0  0  0  0  0
   34.8480   29.4280   33.0000 C   0  0  0  0  0  0  0  0  0  0  0  0
   35.7760   28.5780   33.4330 N   0  0  0  0  0  0  0  0  0  0  0  0
   37.7550   28.4810   30.8220 H   0  0  0  0  0  0  0  0  0  0  0  0
   36.0120   30.0750   30.0100 H   0  0  0  0  0  0  0  0  0  0  0  0
   35.4410   31.1660   35.4400 Cl  0  0  0  0  0  0  0  0  0  0  0  0
   33.8770   30.5770   34.9780 C   0  0  0  0  0  0  0  0  0  0  0  0
   33.7200   29.7930   33.8480 C   0  0  0  0  0  0  0  0  0  0  0  0
   32.4430   29.3940   33.5940 C   0  0  0  0  0  0  0  0  0  0  0  0
   32.2680   28.7760   32.7160 H   0  0  0  0  0  0  0  0  0  0  0  0
   31.3340   29.7120   34.3670 C   0  0  0  0  0  3  0  0  0  0  0  0
   31.5390   30.4990   35.4880 C   0  0  0  0  0  0  0  0  0  0  0  0
   30.2110   30.9650   36.5420 Cl  0  0  0  0  0  0  0  0  0  0  0  0
   32.8310   30.9280   35.7820 C   0  0  0  0  0  0  0  0  0  0  0  0
   32.9520   31.5450   36.6740 H   0  0  0  0  0  0  0  0  0  0  0  0
  2  1  1  0  0  0  0
  2  3  1  0  0  0  0
  3 15  1  0  0  0  0
  4  8  1  0  0  0  0
  4  3  2  0  0  0  0
  5  4  1  0  0  0  0
  6  7  1  0  0  0  0
  6  5  2  0  0  0  0
  7  2  2  0  0  0  0
  9  6  1  0  0  0  0
 10  7  1  0  0  0  0
 11 12  1  0  0  0  0
 12 13  2  0  0  0  0
 12 18  1  0  0  0  0
 13 19  1  0  0  0  0
 14 13  1  0  0  0  0
 15 14  2  0  0  0  0
 16 15  1  0  0  0  0
 16 11  2  0  0  0  0
 17 11  1  0  0  0  0
 20  5  1  0  0  0  0
 20 25  1  0  0  0  0
 21 20  2  0  0  0  0
 22 21  1  0  0  0  0
 22 23  2  0  0  0  0
 23 24  1  0  0  0  0
 24 25  2  0  0  0  0
 24 30  1  0  0  0  0
 26 21  1  0  0  0  0
 27 22  1  0  0  0  0
 29 28  1  0  0  0  0
 29 36  1  0  0  0  0
 30 29  2  0  0  0  0
 31 30  1  0  0  0  0
 31 33  2  0  0  0  0
 32 31  1  0  0  0  0
 33 34  1  0  0  0  0
 34 36  2  0  0  0  0
 34 35  1  0  0  0  0
 36 37  1  0  0  0  0
M  END
>  <minimizedAffinity>
-6.13050127

$$$$

 OpenBabel03272510223D

 37 40  0  0  0  0  0  0  0  0999 V2000
   39.4400   23.1960   36.4540 Br  0  0  0  0  0  0  0  0  0  0  0  0
   38.5970   24.6220   35.5180 C   0  0  0  0  0  0  0  0  0  0  0  0
   38.1820   24.4670   34.1900 C   0  0  0  0  0  0  0  0  0  0  0  0
   37.5850   25.5440   33.5950 C   0  0  0  0  0  0  0  0  0  0  0  0
   37.3740   26.7580   34.2220 C   0  0  0  0  0  0  0  0  0  0  0  0
   37.7890   26.8830   35.5160 C   0  0  0  0  0  0  0  0  0  0  0  0
   38.3950   25.8170   36.1510 C   0  0  0  0  0  0  0  0  0  0  0  0
   37.2740   25.4050   32.5780 H   0  0  0  0  0  0  0  0  0  0  0  0
   37.6590   27.8000   36.0750 H   0  0  0  0  0  0  0  0  0  0  0  0
   38.7250   25.9240   37.1870 H   0  0  0  0  0  0  0  0  0  0  0  0
   37.4890   21.1260   32.9160 C   0  0  0  0  0  0  0  0  0  0  0  0
   38.6720   20.7890   32.2060 C   0  0  0  0  0  0  0  0  0  0  0  0
   39.6850   21.7230   32.1810 C   0  0  0  0  0  0  0  0  0  0  0  0
   39.5120   22.9170   32.8320 N   0  0  0  0  0  0  0  0  0  0  0  0
   38.3850   23.2090   33.4950 C   0  0  0  0  0  0  0  0  0  0  0  0
   37.3700   22.2970   33.5320 N   0  0  0  0  0  0  0  0  0  0  0  0
   36.6990   20.4030   32.9390 H   0  0  0  0  0  0  0  0  0  0  0  0
   38.7990   19.8500   31.6990 H   0  0  0  0  0  0  0  0  0  0  0  0
   40.6290   21.5770   31.6720 H   0  0  0  0  0  0  0  0  0  0  0  0
   36.7420   27.8850   33.5740 C   0  0  0  0  0  0  0  0  0  0  0  0
   37.0060   28.3010   32.2810 C   0  0  0  0  0  0  0  0  0  0  0  0
   36.3680   29.3910   31.7110 C   0  0  0  0  0  0  0  0  0  0  0  0
   35.4580   30.0830   32.4210 N   0  0  0  0  0  0  0  0  0  0  0  0
   35.1950   29.6870   33.6760 C   0  0  0  0  0  0  0  0  0  0  0  0
   35.8140   28.6370   34.2130 N   0  0  0  0  0  0  0  0  0  0  0  0
   37.7380   27.7420   31.7160 H   0  0  0  0  0  0  0  0  0  0  0  0
   36.5770   29.7100   30.7090 H   0  0  0  0  0  0  0  0  0  0  0  0
   36.2410   31.5300   35.8750 Cl  0  0  0  0  0  0  0  0  0  0  0  0
   34.5730   31.3030   35.4580 C   0  0  0  0  0  0  0  0  0  0  0  0
   34.2080   30.4390   34.4400 C   0  0  0  0  0  0  0  0  0  0  0  0
   32.8690   30.3490   34.2100 C   0  0  0  0  0  0  0  0  0  0  0  0
   32.5320   29.6830   33.4200 H   0  0  0  0  0  0  0  0  0  0  0  0
   31.8870   31.0420   34.9080 C   0  0  0  0  0  3  0  0  0  0  0  0
   32.2990   31.8940   35.9170 C   0  0  0  0  0  0  0  0  0  0  0  0
   31.1470   32.8240   36.8670 Cl  0  0  0  0  0  0  0  0  0  0  0  0
   33.6620   32.0150   36.1820 C   0  0  0  0  0  0  0  0  0  0  0  0
   33.9470   32.6960   36.9870 H   0  0  0  0  0  0  0  0  0  0  0  0
  2  7  1  0  0  0  0
  2  1  1  0  0  0  0
  3  2  2  0  0  0  0
  4  3  1  0  0  0  0
  4  5  2  0  0  0  0
  5  6  1  0  0  0  0
  6  9  1  0  0  0  0
  6  7  2  0  0  0  0
  7 10  1  0  0  0  0
  8  4  1  0  0  0  0
 11 17  1  0  0  0  0
 11 16  1  0  0  0  0
 12 11  2  0  0  0  0
 13 12  1  0  0  0  0
 13 14  2  0  0  0  0
 14 15  1  0  0  0  0
 15 16  2  0  0  0  0
 15  3  1  0  0  0  0
 18 12  1  0  0  0  0
 19 13  1  0  0  0  0
 20 25  1  0  0  0  0
 20  5  1  0  0  0  0
 21 20  2  0  0  0  0
 22 21  1  0  0  0  0
 22 23  2  0  0  0  0
 23 24  1  0  0  0  0
 24 25  2  0  0  0  0
 24 30  1  0  0  0  0
 26 21  1  0  0  0  0
 27 22  1  0  0  0  0
 29 28  1  0  0  0  0
 29 36  1  0  0  0  0
 30 29  2  0  0  0  0
 31 30  1  0  0  0  0
 31 33  2  0  0  0  0
 32 31  1  0  0  0  0
 33 34  1  0  0  0  0
 34 36  2  0  0  0  0
 34 35  1  0  0  0  0
 36 37  1  0  0  0  0
M  END
>  <minimizedAffinity>
-5.93418264

$$$$
