
 OpenBabel03262523453D

 29 31  0  0  0  0  0  0  0  0999 V2000
   37.0230   26.2730   31.6760 Cl  0  0  0  0  0  0  0  0  0  0  0  0
   36.4830   27.6020   32.6530 C   0  0  0  0  0  0  0  0  0  0  0  0
   36.9340   27.7570   33.9480 C   0  0  0  0  0  0  0  0  0  0  0  0
   36.4650   28.8400   34.6770 C   0  0  0  0  0  0  0  0  0  0  0  0
   35.5700   29.7430   34.1270 C   0  0  0  0  0  0  0  0  0  0  0  0
   35.1390   29.5550   32.8200 C   0  0  0  0  0  0  0  0  0  0  0  0
   34.0170   30.7450   32.2220 Cl  0  0  0  0  0  0  0  0  0  0  0  0
   35.5880   28.4950   32.0810 C   0  0  0  0  0  0  0  0  0  0  0  0
   36.8530   28.9040   35.6800 H   0  0  0  0  0  0  0  0  0  0  0  0
   35.2240   28.3860   31.0640 H   0  0  0  0  0  0  0  0  0  0  0  0
   32.8410   29.3290   35.3000 Cl  0  0  0  0  0  0  0  0  0  0  0  0
   33.9380   30.6660   35.6050 C   0  0  0  0  0  0  0  0  0  0  0  0
   35.1890   30.8160   35.0410 C   0  0  0  0  0  0  0  0  0  0  0  0
   35.9590   31.9190   35.3650 C   0  0  0  0  0  0  0  0  0  0  0  0
   36.9290   31.9790   34.8890 H   0  0  0  0  0  0  0  0  0  0  0  0
   35.4630   32.8470   36.2450 C   0  0  0  0  0  3  0  0  0  0  0  0
   34.2070   32.7310   36.8350 C   0  0  0  0  0  0  0  0  0  0  0  0
   33.6520   33.9680   37.9520 Cl  0  0  0  0  0  0  0  0  0  0  0  0
   33.4440   31.6070   36.4940 C   0  0  0  0  0  0  0  0  0  0  0  0
   32.4710   31.5620   36.9810 H   0  0  0  0  0  0  0  0  0  0  0  0
   40.1520   25.9600   34.8300 C   0  0  0  0  0  0  0  0  0  0  0  0
   39.2480   26.9110   34.3490 C   0  0  0  0  0  0  0  0  0  0  0  0
   37.8750   26.7600   34.4520 C   0  0  0  0  0  0  0  0  0  0  0  0
   37.4510   25.6160   35.0600 N   0  0  0  0  0  0  0  0  0  0  0  0
   38.3200   24.7060   35.5220 C   0  0  0  0  0  0  0  0  0  0  0  0
   39.6380   24.8630   35.4150 N   0  0  0  0  0  0  0  0  0  0  0  0
   41.2220   26.0930   34.7400 H   0  0  0  0  0  0  0  0  0  0  0  0
   39.6360   27.8210   33.8630 H   0  0  0  0  0  0  0  0  0  0  0  0
   37.7820   23.8630   35.9740 H   0  0  0  0  0  0  0  0  0  0  0  0
  1  2  1  0  0  0  0
  2  3  1  0  0  0  0
  3 23  1  0  0  0  0
  3  4  2  0  0  0  0
  4  9  1  0  0  0  0
  5  4  1  0  0  0  0
  5 13  1  0  0  0  0
  6  5  2  0  0  0  0
  7  6  1  0  0  0  0
  8  2  2  0  0  0  0
  8  6  1  0  0  0  0
 10  8  1  0  0  0  0
 11 12  1  0  0  0  0
 12 19  1  0  0  0  0
 13 14  1  0  0  0  0
 13 12  2  0  0  0  0
 14 16  2  0  0  0  0
 15 14  1  0  0  0  0
 16 17  1  0  0  0  0
 17 18  1  0  0  0  0
 19 17  2  0  0  0  0
 19 20  1  0  0  0  0
 21 26  1  0  0  0  0
 22 23  1  0  0  0  0
 22 21  2  0  0  0  0
 23 24  2  0  0  0  0
 24 25  1  0  0  0  0
 25 29  1  0  0  0  0
 26 25  2  0  0  0  0
 27 21  1  0  0  0  0
 28 22  1  0  0  0  0
M  END
>  <minimizedAffinity>
-5.77129459

$$$$

 OpenBabel03262523453D

 29 31  0  0  0  0  0  0  0  0999 V2000
   35.8470   32.7390   32.4890 Cl  0  0  0  0  0  0  0  0  0  0  0  0
   35.9370   31.0220   32.2430 C   0  0  0  0  0  0  0  0  0  0  0  0
   35.4960   30.1450   33.2120 C   0  0  0  0  0  0  0  0  0  0  0  0
   35.5950   28.7850   32.9550 C   0  0  0  0  0  0  0  0  0  0  0  0
   36.1200   28.3160   31.7620 C   0  0  0  0  0  0  0  0  0  0  0  0
   36.5530   29.2290   30.8100 C   0  0  0  0  0  0  0  0  0  0  0  0
   37.1960   28.5390   29.3460 Cl  0  0  0  0  0  0  0  0  0  0  0  0
   36.4660   30.5750   31.0410 C   0  0  0  0  0  0  0  0  0  0  0  0
   35.2340   28.1540   33.7500 H   0  0  0  0  0  0  0  0  0  0  0  0
   36.8170   31.2540   30.2690 H   0  0  0  0  0  0  0  0  0  0  0  0
   38.6050   27.1370   32.9570 Cl  0  0  0  0  0  0  0  0  0  0  0  0
   37.2720   26.2730   32.2080 C   0  0  0  0  0  0  0  0  0  0  0  0
   36.1440   26.8590   31.6690 C   0  0  0  0  0  0  0  0  0  0  0  0
   35.1610   26.0640   31.1060 C   0  0  0  0  0  0  0  0  0  0  0  0
   34.3030   26.5830   30.7010 H   0  0  0  0  0  0  0  0  0  0  0  0
   35.3270   24.7030   31.0940 C   0  0  0  0  0  3  0  0  0  0  0  0
   36.4500   24.0750   31.6270 C   0  0  0  0  0  0  0  0  0  0  0  0
   36.5780   22.3240   31.5680 Cl  0  0  0  0  0  0  0  0  0  0  0  0
   37.4320   24.8970   32.1920 C   0  0  0  0  0  0  0  0  0  0  0  0
   38.2890   24.3590   32.5950 H   0  0  0  0  0  0  0  0  0  0  0  0
   35.2530   31.7980   36.6130 C   0  0  0  0  0  0  0  0  0  0  0  0
   35.7650   31.2460   35.4370 C   0  0  0  0  0  0  0  0  0  0  0  0
   34.9570   30.7220   34.4410 C   0  0  0  0  0  0  0  0  0  0  0  0
   33.6160   30.7800   34.6780 N   0  0  0  0  0  0  0  0  0  0  0  0
   33.1270   31.3110   35.8080 C   0  0  0  0  0  0  0  0  0  0  0  0
   33.9150   31.8100   36.7570 N   0  0  0  0  0  0  0  0  0  0  0  0
   35.8990   32.2020   37.3820 H   0  0  0  0  0  0  0  0  0  0  0  0
   36.8570   31.2200   35.2880 H   0  0  0  0  0  0  0  0  0  0  0  0
   32.0310   31.2630   35.8060 H   0  0  0  0  0  0  0  0  0  0  0  0
  2  1  1  0  0  0  0
  2  3  1  0  0  0  0
  3 23  1  0  0  0  0
  4  3  2  0  0  0  0
  4  9  1  0  0  0  0
  5  4  1  0  0  0  0
  6  8  1  0  0  0  0
  6  5  2  0  0  0  0
  7  6  1  0  0  0  0
  8  2  2  0  0  0  0
 10  8  1  0  0  0  0
 12 11  1  0  0  0  0
 13  5  1  0  0  0  0
 13 12  2  0  0  0  0
 14 13  1  0  0  0  0
 15 14  1  0  0  0  0
 16 14  2  0  0  0  0
 16 17  1  0  0  0  0
 17 19  2  0  0  0  0
 18 17  1  0  0  0  0
 19 12  1  0  0  0  0
 19 20  1  0  0  0  0
 21 26  1  0  0  0  0
 21 27  1  0  0  0  0
 22 21  2  0  0  0  0
 23 24  2  0  0  0  0
 23 22  1  0  0  0  0
 24 25  1  0  0  0  0
 25 26  2  0  0  0  0
 28 22  1  0  0  0  0
 29 25  1  0  0  0  0
M  END
>  <minimizedAffinity>
-5.6511941

$$$$

 OpenBabel03262523453D

 29 31  0  0  0  0  0  0  0  0999 V2000
   35.2590   32.0880   32.2820 Cl  0  0  0  0  0  0  0  0  0  0  0  0
   35.8770   30.4700   32.3990 C   0  0  0  0  0  0  0  0  0  0  0  0
   35.7380   29.7430   33.5630 C   0  0  0  0  0  0  0  0  0  0  0  0
   36.2540   28.4540   33.5930 C   0  0  0  0  0  0  0  0  0  0  0  0
   36.8910   27.9100   32.4900 C   0  0  0  0  0  0  0  0  0  0  0  0
   37.0110   28.6720   31.3360 C   0  0  0  0  0  0  0  0  0  0  0  0
   37.8270   27.8960   30.0070 Cl  0  0  0  0  0  0  0  0  0  0  0  0
   36.5110   29.9440   31.2820 C   0  0  0  0  0  0  0  0  0  0  0  0
   36.1140   27.9400   34.5290 H   0  0  0  0  0  0  0  0  0  0  0  0
   36.6280   30.5050   30.3590 H   0  0  0  0  0  0  0  0  0  0  0  0
   35.1310   25.8640   31.1810 Cl  0  0  0  0  0  0  0  0  0  0  0  0
   36.5850   25.5710   32.1220 C   0  0  0  0  0  0  0  0  0  0  0  0
   37.3670   26.5460   32.7070 C   0  0  0  0  0  0  0  0  0  0  0  0
   38.4930   26.1840   33.4250 C   0  0  0  0  0  0  0  0  0  0  0  0
   39.0620   26.9940   33.8600 H   0  0  0  0  0  0  0  0  0  0  0  0
   38.8130   24.8550   33.5410 C   0  0  0  0  0  3  0  0  0  0  0  0
   38.0500   23.8420   32.9650 C   0  0  0  0  0  0  0  0  0  0  0  0
   38.5360   22.1660   33.1660 Cl  0  0  0  0  0  0  0  0  0  0  0  0
   36.9160   24.2300   32.2430 C   0  0  0  0  0  0  0  0  0  0  0  0
   36.3540   23.4030   31.8120 H   0  0  0  0  0  0  0  0  0  0  0  0
   35.0620   31.8330   36.6500 C   0  0  0  0  0  0  0  0  0  0  0  0
   35.7110   31.2110   35.5820 C   0  0  0  0  0  0  0  0  0  0  0  0
   35.0550   30.3910   34.6790 C   0  0  0  0  0  0  0  0  0  0  0  0
   33.7190   30.2260   34.8960 N   0  0  0  0  0  0  0  0  0  0  0  0
   33.0970   30.8240   35.9220 C   0  0  0  0  0  0  0  0  0  0  0  0
   33.7410   31.6090   36.7830 N   0  0  0  0  0  0  0  0  0  0  0  0
   35.5900   32.4700   37.3470 H   0  0  0  0  0  0  0  0  0  0  0  0
   36.7940   31.3730   35.4450 H   0  0  0  0  0  0  0  0  0  0  0  0
   32.0310   30.5660   35.9220 H   0  0  0  0  0  0  0  0  0  0  0  0
  1  2  1  0  0  0  0
  2  3  1  0  0  0  0
  3  4  2  0  0  0  0
  3 23  1  0  0  0  0
  4  9  1  0  0  0  0
  5 13  1  0  0  0  0
  5  4  1  0  0  0  0
  6  5  2  0  0  0  0
  7  6  1  0  0  0  0
  8  6  1  0  0  0  0
  8  2  2  0  0  0  0
 10  8  1  0  0  0  0
 11 12  1  0  0  0  0
 12 19  2  0  0  0  0
 12 13  1  0  0  0  0
 13 14  2  0  0  0  0
 14 16  1  0  0  0  0
 14 15  1  0  0  0  0
 17 18  1  0  0  0  0
 17 16  2  0  0  0  0
 19 17  1  0  0  0  0
 20 19  1  0  0  0  0
 21 26  1  0  0  0  0
 21 27  1  0  0  0  0
 22 21  2  0  0  0  0
 23 24  2  0  0  0  0
 23 22  1  0  0  0  0
 24 25  1  0  0  0  0
 25 29  1  0  0  0  0
 25 26  2  0  0  0  0
 28 22  1  0  0  0  0
M  END
>  <minimizedAffinity>
-5.38676691

$$$$

 OpenBabel03262523453D

 29 31  0  0  0  0  0  0  0  0999 V2000
   37.5290   28.3090   28.9680 Cl  0  0  0  0  0  0  0  0  0  0  0  0
   36.8610   29.0380   30.3950 C   0  0  0  0  0  0  0  0  0  0  0  0
   36.4000   28.2600   31.4370 C   0  0  0  0  0  0  0  0  0  0  0  0
   35.8780   28.9040   32.5510 C   0  0  0  0  0  0  0  0  0  0  0  0
   35.8190   30.2860   32.6190 C   0  0  0  0  0  0  0  0  0  0  0  0
   36.2940   31.0360   31.5510 C   0  0  0  0  0  0  0  0  0  0  0  0
   36.1750   32.7630   31.7360 Cl  0  0  0  0  0  0  0  0  0  0  0  0
   36.8130   30.4240   30.4430 C   0  0  0  0  0  0  0  0  0  0  0  0
   35.5350   28.2410   33.3280 H   0  0  0  0  0  0  0  0  0  0  0  0
   37.1720   31.0500   29.6310 H   0  0  0  0  0  0  0  0  0  0  0  0
   32.8380   30.5710   32.4580 Cl  0  0  0  0  0  0  0  0  0  0  0  0
   33.8680   30.9300   33.8350 C   0  0  0  0  0  0  0  0  0  0  0  0
   35.2400   30.7830   33.8650 C   0  0  0  0  0  0  0  0  0  0  0  0
   35.9400   31.1010   35.0160 C   0  0  0  0  0  0  0  0  0  0  0  0
   37.0120   30.9640   34.9750 H   0  0  0  0  0  0  0  0  0  0  0  0
   35.2520   31.5570   36.1110 C   0  0  0  0  0  3  0  0  0  0  0  0
   33.8690   31.7190   36.1210 C   0  0  0  0  0  0  0  0  0  0  0  0
   33.0720   32.3100   37.5700 Cl  0  0  0  0  0  0  0  0  0  0  0  0
   33.1810   31.3910   34.9460 C   0  0  0  0  0  0  0  0  0  0  0  0
   32.1020   31.5340   35.0040 H   0  0  0  0  0  0  0  0  0  0  0  0
   35.4820   24.6220   30.9100 C   0  0  0  0  0  0  0  0  0  0  0  0
   35.3930   26.0080   31.0570 C   0  0  0  0  0  0  0  0  0  0  0  0
   36.4980   26.8110   31.2840 C   0  0  0  0  0  0  0  0  0  0  0  0
   37.6940   26.1620   31.3550 N   0  0  0  0  0  0  0  0  0  0  0  0
   37.7780   24.8310   31.2130 C   0  0  0  0  0  0  0  0  0  0  0  0
   36.7070   24.0710   30.9960 N   0  0  0  0  0  0  0  0  0  0  0  0
   34.6080   24.0090   30.7330 H   0  0  0  0  0  0  0  0  0  0  0  0
   34.4040   26.4910   30.9920 H   0  0  0  0  0  0  0  0  0  0  0  0
   38.8210   24.5050   31.3020 H   0  0  0  0  0  0  0  0  0  0  0  0
  1  2  1  0  0  0  0
  2  8  2  0  0  0  0
  2  3  1  0  0  0  0
  3  4  2  0  0  0  0
  4  5  1  0  0  0  0
  4  9  1  0  0  0  0
  5 13  1  0  0  0  0
  6  7  1  0  0  0  0
  6  5  2  0  0  0  0
  8  6  1  0  0  0  0
 10  8  1  0  0  0  0
 11 12  1  0  0  0  0
 12 13  2  0  0  0  0
 12 19  1  0  0  0  0
 13 14  1  0  0  0  0
 14 16  2  0  0  0  0
 15 14  1  0  0  0  0
 16 17  1  0  0  0  0
 17 18  1  0  0  0  0
 19 20  1  0  0  0  0
 19 17  2  0  0  0  0
 21 26  2  0  0  0  0
 21 22  1  0  0  0  0
 22 23  2  0  0  0  0
 23 24  1  0  0  0  0
 23  3  1  0  0  0  0
 25 29  1  0  0  0  0
 25 24  2  0  0  0  0
 26 25  1  0  0  0  0
 27 21  1  0  0  0  0
 28 22  1  0  0  0  0
M  END
>  <minimizedAffinity>
-5.35528088

$$$$

 OpenBabel03262523453D

 29 31  0  0  0  0  0  0  0  0999 V2000
   35.3770   29.9470   31.5480 Cl  0  0  0  0  0  0  0  0  0  0  0  0
   36.3180   28.6990   32.3050 C   0  0  0  0  0  0  0  0  0  0  0  0
   36.3250   28.5520   33.6760 C   0  0  0  0  0  0  0  0  0  0  0  0
   37.0980   27.5350   34.2200 C   0  0  0  0  0  0  0  0  0  0  0  0
   37.8430   26.6900   33.4130 C   0  0  0  0  0  0  0  0  0  0  0  0
   37.8110   26.8690   32.0370 C   0  0  0  0  0  0  0  0  0  0  0  0
   38.7810   25.7560   31.1130 Cl  0  0  0  0  0  0  0  0  0  0  0  0
   37.0560   27.8640   31.4780 C   0  0  0  0  0  0  0  0  0  0  0  0
   37.0610   27.4730   35.2950 H   0  0  0  0  0  0  0  0  0  0  0  0
   37.0610   27.9680   30.3970 H   0  0  0  0  0  0  0  0  0  0  0  0
   40.7400   27.4070   33.7080 Cl  0  0  0  0  0  0  0  0  0  0  0  0
   39.9320   25.9720   34.3200 C   0  0  0  0  0  0  0  0  0  0  0  0
   38.5920   25.6830   34.1600 C   0  0  0  0  0  0  0  0  0  0  0  0
   38.0740   24.5150   34.6930 C   0  0  0  0  0  0  0  0  0  0  0  0
   37.0180   24.3460   34.5330 H   0  0  0  0  0  0  0  0  0  0  0  0
   38.9060   23.6640   35.3730 C   0  0  0  0  0  3  0  0  0  0  0  0
   40.2630   23.9200   35.5550 C   0  0  0  0  0  0  0  0  0  0  0  0
   41.2550   22.7730   36.4410 Cl  0  0  0  0  0  0  0  0  0  0  0  0
   40.7660   25.1070   35.0090 C   0  0  0  0  0  0  0  0  0  0  0  0
   41.8310   25.2620   35.1780 H   0  0  0  0  0  0  0  0  0  0  0  0
   35.2870   31.4340   35.9060 C   0  0  0  0  0  0  0  0  0  0  0  0
   36.0610   30.5400   35.1620 C   0  0  0  0  0  0  0  0  0  0  0  0
   35.5120   29.4840   34.4530 C   0  0  0  0  0  0  0  0  0  0  0  0
   34.1560   29.3670   34.5230 N   0  0  0  0  0  0  0  0  0  0  0  0
   33.4160   30.2270   35.2380 C   0  0  0  0  0  0  0  0  0  0  0  0
   33.9560   31.2370   35.9150 N   0  0  0  0  0  0  0  0  0  0  0  0
   35.7320   32.2540   36.4550 H   0  0  0  0  0  0  0  0  0  0  0  0
   37.1550   30.6730   35.1340 H   0  0  0  0  0  0  0  0  0  0  0  0
   32.3530   29.9630   35.1660 H   0  0  0  0  0  0  0  0  0  0  0  0
  1  2  1  0  0  0  0
  2  3  1  0  0  0  0
  3  4  2  0  0  0  0
  3 23  1  0  0  0  0
  4  9  1  0  0  0  0
  5 13  1  0  0  0  0
  5  4  1  0  0  0  0
  6  5  2  0  0  0  0
  7  6  1  0  0  0  0
  8  6  1  0  0  0  0
  8  2  2  0  0  0  0
 10  8  1  0  0  0  0
 11 12  1  0  0  0  0
 12 19  1  0  0  0  0
 13 12  2  0  0  0  0
 13 14  1  0  0  0  0
 14 16  2  0  0  0  0
 15 14  1  0  0  0  0
 16 17  1  0  0  0  0
 17 18  1  0  0  0  0
 19 20  1  0  0  0  0
 19 17  2  0  0  0  0
 21 26  1  0  0  0  0
 21 27  1  0  0  0  0
 22 21  2  0  0  0  0
 23 24  2  0  0  0  0
 23 22  1  0  0  0  0
 24 25  1  0  0  0  0
 25 26  2  0  0  0  0
 28 22  1  0  0  0  0
 29 25  1  0  0  0  0
M  END
>  <minimizedAffinity>
-5.31925201

$$$$

 OpenBabel03262523453D

 29 31  0  0  0  0  0  0  0  0999 V2000
   38.1050   26.3620   35.4420 Cl  0  0  0  0  0  0  0  0  0  0  0  0
   37.9710   25.0610   34.3000 C   0  0  0  0  0  0  0  0  0  0  0  0
   38.1660   23.7530   34.6920 C   0  0  0  0  0  0  0  0  0  0  0  0
   38.0450   22.7590   33.7320 C   0  0  0  0  0  0  0  0  0  0  0  0
   37.7360   23.0650   32.4160 C   0  0  0  0  0  0  0  0  0  0  0  0
   37.5450   24.3930   32.0590 C   0  0  0  0  0  0  0  0  0  0  0  0
   37.1600   24.6710   30.3830 Cl  0  0  0  0  0  0  0  0  0  0  0  0
   37.6600   25.3910   32.9880 C   0  0  0  0  0  0  0  0  0  0  0  0
   38.2100   21.7600   34.1000 H   0  0  0  0  0  0  0  0  0  0  0  0
   37.5030   26.4160   32.6650 H   0  0  0  0  0  0  0  0  0  0  0  0
   34.9950   21.8460   32.4150 Cl  0  0  0  0  0  0  0  0  0  0  0  0
   36.4040   21.2980   31.5200 C   0  0  0  0  0  0  0  0  0  0  0  0
   37.6490   21.8920   31.5500 C   0  0  0  0  0  0  0  0  0  0  0  0
   38.6810   21.3610   30.7960 C   0  0  0  0  0  0  0  0  0  0  0  0
   39.6320   21.8720   30.8640 H   0  0  0  0  0  0  0  0  0  0  0  0
   38.4450   20.2500   30.0280 C   0  0  0  0  0  3  0  0  0  0  0  0
   37.2030   19.6220   29.9710 C   0  0  0  0  0  0  0  0  0  0  0  0
   36.9910   18.2020   28.9580 Cl  0  0  0  0  0  0  0  0  0  0  0  0
   36.1730   20.1750   30.7410 C   0  0  0  0  0  0  0  0  0  0  0  0
   35.2220   19.6490   30.6620 H   0  0  0  0  0  0  0  0  0  0  0  0
   40.0600   22.8880   37.8580 C   0  0  0  0  0  0  0  0  0  0  0  0
   39.7460   23.1140   36.5160 C   0  0  0  0  0  0  0  0  0  0  0  0
   38.4890   23.5170   36.0960 C   0  0  0  0  0  0  0  0  0  0  0  0
   37.5640   23.6840   37.0830 N   0  0  0  0  0  0  0  0  0  0  0  0
   37.8670   23.4670   38.3710 C   0  0  0  0  0  0  0  0  0  0  0  0
   39.0790   23.0790   38.7600 N   0  0  0  0  0  0  0  0  0  0  0  0
   41.0470   22.5720   38.1690 H   0  0  0  0  0  0  0  0  0  0  0  0
   40.5270   22.9660   35.7510 H   0  0  0  0  0  0  0  0  0  0  0  0
   36.9910   23.6550   39.0040 H   0  0  0  0  0  0  0  0  0  0  0  0
  2  3  1  0  0  0  0
  2  1  1  0  0  0  0
  3 23  1  0  0  0  0
  4  9  1  0  0  0  0
  4  3  2  0  0  0  0
  5  4  1  0  0  0  0
  6  5  2  0  0  0  0
  6  8  1  0  0  0  0
  7  6  1  0  0  0  0
  8  2  2  0  0  0  0
 10  8  1  0  0  0  0
 12 13  1  0  0  0  0
 12 11  1  0  0  0  0
 13  5  1  0  0  0  0
 14 15  1  0  0  0  0
 14 13  2  0  0  0  0
 16 14  1  0  0  0  0
 17 16  2  0  0  0  0
 17 19  1  0  0  0  0
 18 17  1  0  0  0  0
 19 12  2  0  0  0  0
 20 19  1  0  0  0  0
 21 27  1  0  0  0  0
 21 26  1  0  0  0  0
 22 21  2  0  0  0  0
 23 22  1  0  0  0  0
 23 24  2  0  0  0  0
 24 25  1  0  0  0  0
 25 26  2  0  0  0  0
 25 29  1  0  0  0  0
 28 22  1  0  0  0  0
M  END
>  <minimizedAffinity>
-5.27233601

$$$$

 OpenBabel03262523453D

 29 31  0  0  0  0  0  0  0  0999 V2000
   34.4460   30.8350   31.3210 Cl  0  0  0  0  0  0  0  0  0  0  0  0
   35.5520   29.6650   31.9720 C   0  0  0  0  0  0  0  0  0  0  0  0
   35.4170   29.2070   33.2660 C   0  0  0  0  0  0  0  0  0  0  0  0
   36.3330   28.2720   33.7270 C   0  0  0  0  0  0  0  0  0  0  0  0
   37.3560   27.8080   32.9150 C   0  0  0  0  0  0  0  0  0  0  0  0
   37.4600   28.2920   31.6170 C   0  0  0  0  0  0  0  0  0  0  0  0
   38.7770   27.6470   30.6800 Cl  0  0  0  0  0  0  0  0  0  0  0  0
   36.5680   29.2140   31.1410 C   0  0  0  0  0  0  0  0  0  0  0  0
   36.1740   27.9560   34.7440 H   0  0  0  0  0  0  0  0  0  0  0  0
   36.6870   29.5650   30.1200 H   0  0  0  0  0  0  0  0  0  0  0  0
   36.5550   24.9850   32.2980 Cl  0  0  0  0  0  0  0  0  0  0  0  0
   37.8870   25.5150   33.3130 C   0  0  0  0  0  0  0  0  0  0  0  0
   38.2200   26.8300   33.5690 C   0  0  0  0  0  0  0  0  0  0  0  0
   39.2970   27.1180   34.3890 C   0  0  0  0  0  0  0  0  0  0  0  0
   39.5060   28.1660   34.5510 H   0  0  0  0  0  0  0  0  0  0  0  0
   40.0170   26.0850   34.9330 C   0  0  0  0  0  3  0  0  0  0  0  0
   39.7130   24.7460   34.6990 C   0  0  0  0  0  0  0  0  0  0  0  0
   40.6910   23.4890   35.4380 Cl  0  0  0  0  0  0  0  0  0  0  0  0
   38.6200   24.4780   33.8660 C   0  0  0  0  0  0  0  0  0  0  0  0
   38.4230   23.4170   33.7130 H   0  0  0  0  0  0  0  0  0  0  0  0
   33.4270   31.2920   35.7270 C   0  0  0  0  0  0  0  0  0  0  0  0
   34.4810   30.7720   34.9710 C   0  0  0  0  0  0  0  0  0  0  0  0
   34.3120   29.7470   34.0540 C   0  0  0  0  0  0  0  0  0  0  0  0
   33.0410   29.2700   33.9300 N   0  0  0  0  0  0  0  0  0  0  0  0
   32.0320   29.7710   34.6560 C   0  0  0  0  0  0  0  0  0  0  0  0
   32.2080   30.7560   35.5340 N   0  0  0  0  0  0  0  0  0  0  0  0
   33.5760   32.0920   36.4400 H   0  0  0  0  0  0  0  0  0  0  0  0
   35.4930   31.1890   35.1050 H   0  0  0  0  0  0  0  0  0  0  0  0
   31.0950   29.2550   34.4100 H   0  0  0  0  0  0  0  0  0  0  0  0
  1  2  1  0  0  0  0
  2  3  1  0  0  0  0
  3  4  2  0  0  0  0
  3 23  1  0  0  0  0
  4  9  1  0  0  0  0
  5 13  1  0  0  0  0
  5  4  1  0  0  0  0
  6  5  2  0  0  0  0
  7  6  1  0  0  0  0
  8  6  1  0  0  0  0
  8  2  2  0  0  0  0
 10  8  1  0  0  0  0
 11 12  1  0  0  0  0
 12 13  2  0  0  0  0
 12 19  1  0  0  0  0
 13 14  1  0  0  0  0
 14 15  1  0  0  0  0
 14 16  2  0  0  0  0
 17 16  1  0  0  0  0
 17 18  1  0  0  0  0
 19 17  2  0  0  0  0
 20 19  1  0  0  0  0
 21 27  1  0  0  0  0
 22 28  1  0  0  0  0
 22 21  2  0  0  0  0
 23 22  1  0  0  0  0
 24 23  2  0  0  0  0
 24 25  1  0  0  0  0
 25 26  2  0  0  0  0
 26 21  1  0  0  0  0
 29 25  1  0  0  0  0
M  END
>  <minimizedAffinity>
-5.2125864

$$$$

 OpenBabel03262523453D

 29 31  0  0  0  0  0  0  0  0999 V2000
   38.6920   27.5380   31.1790 Cl  0  0  0  0  0  0  0  0  0  0  0  0
   37.3340   28.2320   32.0100 C   0  0  0  0  0  0  0  0  0  0  0  0
   37.0010   27.8230   33.2840 C   0  0  0  0  0  0  0  0  0  0  0  0
   35.9050   28.4170   33.8950 C   0  0  0  0  0  0  0  0  0  0  0  0
   35.1640   29.3930   33.2480 C   0  0  0  0  0  0  0  0  0  0  0  0
   35.5300   29.7790   31.9660 C   0  0  0  0  0  0  0  0  0  0  0  0
   34.5360   31.0110   31.2410 Cl  0  0  0  0  0  0  0  0  0  0  0  0
   36.6070   29.2080   31.3430 C   0  0  0  0  0  0  0  0  0  0  0  0
   35.6960   28.0540   34.8880 H   0  0  0  0  0  0  0  0  0  0  0  0
   36.8580   29.5400   30.3400 H   0  0  0  0  0  0  0  0  0  0  0  0
   35.9930   31.6160   35.0810 Cl  0  0  0  0  0  0  0  0  0  0  0  0
   34.3870   30.9270   34.9040 C   0  0  0  0  0  0  0  0  0  0  0  0
   34.0500   29.9010   34.0440 C   0  0  0  0  0  0  0  0  0  0  0  0
   32.7440   29.4460   33.9980 C   0  0  0  0  0  0  0  0  0  0  0  0
   32.5450   28.6400   33.3050 H   0  0  0  0  0  0  0  0  0  0  0  0
   31.8050   30.0270   34.8110 C   0  0  0  0  0  3  0  0  0  0  0  0
   32.1050   31.0640   35.6910 C   0  0  0  0  0  0  0  0  0  0  0  0
   30.8370   31.7480   36.6950 Cl  0  0  0  0  0  0  0  0  0  0  0  0
   33.4320   31.5090   35.7210 C   0  0  0  0  0  0  0  0  0  0  0  0
   33.6160   32.3210   36.4240 H   0  0  0  0  0  0  0  0  0  0  0  0
   39.7420   26.0990   35.2530 C   0  0  0  0  0  0  0  0  0  0  0  0
   38.9430   27.0850   34.6670 C   0  0  0  0  0  0  0  0  0  0  0  0
   37.8330   26.7890   33.8940 C   0  0  0  0  0  0  0  0  0  0  0  0
   37.5590   25.4630   33.7380 N   0  0  0  0  0  0  0  0  0  0  0  0
   38.3260   24.5190   34.3010 C   0  0  0  0  0  0  0  0  0  0  0  0
   39.3920   24.8170   35.0410 N   0  0  0  0  0  0  0  0  0  0  0  0
   40.6070   26.3470   35.8530 H   0  0  0  0  0  0  0  0  0  0  0  0
   39.2030   28.1450   34.8210 H   0  0  0  0  0  0  0  0  0  0  0  0
   37.9410   23.5210   34.0570 H   0  0  0  0  0  0  0  0  0  0  0  0
  1  2  1  0  0  0  0
  2  3  1  0  0  0  0
  3 23  1  0  0  0  0
  3  4  2  0  0  0  0
  4  9  1  0  0  0  0
  5  4  1  0  0  0  0
  5 13  1  0  0  0  0
  6  5  2  0  0  0  0
  7  6  1  0  0  0  0
  8  6  1  0  0  0  0
  8  2  2  0  0  0  0
 10  8  1  0  0  0  0
 12 11  1  0  0  0  0
 12 19  1  0  0  0  0
 13 12  2  0  0  0  0
 14 13  1  0  0  0  0
 14 16  2  0  0  0  0
 15 14  1  0  0  0  0
 16 17  1  0  0  0  0
 17 19  2  0  0  0  0
 17 18  1  0  0  0  0
 19 20  1  0  0  0  0
 21 27  1  0  0  0  0
 22 28  1  0  0  0  0
 22 21  2  0  0  0  0
 23 22  1  0  0  0  0
 24 23  2  0  0  0  0
 24 25  1  0  0  0  0
 25 26  2  0  0  0  0
 26 21  1  0  0  0  0
 29 25  1  0  0  0  0
M  END
>  <minimizedAffinity>
-5.14768171

$$$$

 OpenBabel03262523453D

 29 31  0  0  0  0  0  0  0  0999 V2000
   38.4500   28.3530   30.7470 Cl  0  0  0  0  0  0  0  0  0  0  0  0
   37.9340   26.7190   31.0290 C   0  0  0  0  0  0  0  0  0  0  0  0
   36.9090   26.4440   31.9110 C   0  0  0  0  0  0  0  0  0  0  0  0
   36.5430   25.1180   32.0920 C   0  0  0  0  0  0  0  0  0  0  0  0
   37.1840   24.0960   31.4110 C   0  0  0  0  0  0  0  0  0  0  0  0
   38.2110   24.4120   30.5310 C   0  0  0  0  0  0  0  0  0  0  0  0
   38.9510   23.0570   29.7250 Cl  0  0  0  0  0  0  0  0  0  0  0  0
   38.5900   25.7120   30.3350 C   0  0  0  0  0  0  0  0  0  0  0  0
   35.7380   24.9690   32.7930 H   0  0  0  0  0  0  0  0  0  0  0  0
   39.3980   25.9130   29.6380 H   0  0  0  0  0  0  0  0  0  0  0  0
   38.6320   22.8230   33.7080 Cl  0  0  0  0  0  0  0  0  0  0  0  0
   37.3030   22.1450   32.7810 C   0  0  0  0  0  0  0  0  0  0  0  0
   36.6650   22.7680   31.7280 C   0  0  0  0  0  0  0  0  0  0  0  0
   35.6270   22.1250   31.0770 C   0  0  0  0  0  0  0  0  0  0  0  0
   35.1690   22.6660   30.2610 H   0  0  0  0  0  0  0  0  0  0  0  0
   35.2500   20.8740   31.4930 C   0  0  0  0  0  3  0  0  0  0  0  0
   35.8690   20.2120   32.5510 C   0  0  0  0  0  0  0  0  0  0  0  0
   35.3190   18.6100   33.0160 Cl  0  0  0  0  0  0  0  0  0  0  0  0
   36.9160   20.8800   33.1960 C   0  0  0  0  0  0  0  0  0  0  0  0
   37.3670   20.3220   34.0160 H   0  0  0  0  0  0  0  0  0  0  0  0
   34.6900   29.4250   32.6490 C   0  0  0  0  0  0  0  0  0  0  0  0
   35.2880   28.3400   32.0050 C   0  0  0  0  0  0  0  0  0  0  0  0
   36.2870   27.5780   32.5880 C   0  0  0  0  0  0  0  0  0  0  0  0
   36.6550   27.9520   33.8460 N   0  0  0  0  0  0  0  0  0  0  0  0
   36.0790   28.9940   34.4630 C   0  0  0  0  0  0  0  0  0  0  0  0
   35.1210   29.7180   33.8900 N   0  0  0  0  0  0  0  0  0  0  0  0
   33.9110   30.0110   32.1780 H   0  0  0  0  0  0  0  0  0  0  0  0
   34.9580   28.0730   30.9870 H   0  0  0  0  0  0  0  0  0  0  0  0
   36.5140   29.1310   35.4610 H   0  0  0  0  0  0  0  0  0  0  0  0
  1  2  1  0  0  0  0
  2  3  1  0  0  0  0
  3  4  2  0  0  0  0
  3 23  1  0  0  0  0
  4  9  1  0  0  0  0
  5 13  1  0  0  0  0
  5  4  1  0  0  0  0
  6  5  2  0  0  0  0
  7  6  1  0  0  0  0
  8  6  1  0  0  0  0
  8  2  2  0  0  0  0
 10  8  1  0  0  0  0
 12 19  1  0  0  0  0
 12 11  1  0  0  0  0
 13 12  2  0  0  0  0
 14 16  2  0  0  0  0
 14 13  1  0  0  0  0
 15 14  1  0  0  0  0
 16 17  1  0  0  0  0
 17 18  1  0  0  0  0
 17 19  2  0  0  0  0
 19 20  1  0  0  0  0
 21 26  1  0  0  0  0
 22 23  1  0  0  0  0
 22 21  2  0  0  0  0
 23 24  2  0  0  0  0
 24 25  1  0  0  0  0
 25 29  1  0  0  0  0
 26 25  2  0  0  0  0
 27 21  1  0  0  0  0
 28 22  1  0  0  0  0
M  END
>  <minimizedAffinity>
-5.12106705

$$$$
