
 OpenBabel03272503413D

 42 45  0  0  1  0  0  0  0  0999 V2000
   39.7970   30.8330   41.7800 C   0  0  2  0  0  0  0  0  0  0  0  0
   39.8270   32.0570   42.7250 C   0  0  1  0  0  0  0  0  0  0  0  0
   38.7400   32.8650   42.0950 C   0  0  0  0  0  0  0  0  0  0  0  0
   38.8180   32.6730   40.7380 O   0  0  0  0  0  0  0  0  0  0  0  0
   39.6450   31.6280   40.4640 C   0  0  0  0  0  0  0  0  0  0  0  0
   40.7480   30.3050   41.8050 H   0  0  0  0  0  0  0  0  0  0  0  0
   40.7800   32.5870   42.6730 H   0  0  0  0  0  0  0  0  0  0  0  0
   37.7480   32.5300   42.4800 H   0  0  0  0  0  0  0  0  0  0  0  0
   38.8420   33.9190   42.3860 H   0  0  0  0  0  0  0  0  0  0  0  0
   39.1780   30.9750   39.6970 H   0  0  0  0  0  0  0  0  0  0  0  0
   40.6390   31.9920   40.1180 H   0  0  0  0  0  0  0  0  0  0  0  0
   38.5140   31.1110   45.9390 C   0  0  0  0  0  0  0  0  0  0  0  0
   39.8520   31.0110   46.1850 C   0  0  0  0  0  0  0  0  0  0  0  0
   40.4660   31.3620   44.9850 C   0  0  0  0  0  0  0  0  0  0  0  0
   39.5260   31.6550   44.0750 N   0  0  0  0  0  0  0  0  0  0  0  0
   38.3360   31.5030   44.6550 N   0  0  0  0  0  0  0  0  0  0  0  0
   40.3200   30.7170   47.1270 H   0  0  0  0  0  0  0  0  0  0  0  0
   41.5650   31.3560   44.9350 H   0  0  0  0  0  0  0  0  0  0  0  0
   36.5700   30.6550   49.1090 C   0  0  0  0  0  0  0  0  0  0  0  0
   37.6190   30.9230   48.2510 C   0  0  0  0  0  0  0  0  0  0  0  0
   37.4580   30.8450   46.8880 C   0  0  0  0  0  0  0  0  0  0  0  0
   36.2310   30.4970   46.4410 N   0  0  0  0  0  0  0  0  0  0  0  0
   35.2030   30.2350   47.3000 C   0  0  0  0  0  0  0  0  0  0  0  0
   35.3560   30.3090   48.6030 N   0  0  0  0  0  0  0  0  0  0  0  0
   38.6260   31.2070   48.5710 H   0  0  0  0  0  0  0  0  0  0  0  0
   34.2210   29.9560   46.9150 H   0  0  0  0  0  0  0  0  0  0  0  0
   36.9310   30.7870   50.4550 O   0  0  0  0  0  0  0  0  0  0  0  0
   36.9280   29.7060   51.3600 C   0  0  0  0  0  0  0  0  0  0  0  0
   35.6460   29.2570   51.6410 F   0  0  0  0  0  0  0  0  0  0  0  0
   37.5770   30.0850   52.5020 F   0  0  0  0  0  0  0  0  0  0  0  0
   37.6590   28.6750   50.7980 F   0  0  0  0  0  0  0  0  0  0  0  0
   38.6400   30.1740   42.0430 O   0  0  0  0  0  0  0  0  0  0  0  0
   35.8030   29.0530   41.4430 Cl  0  0  0  0  0  0  0  0  0  0  0  0
   37.1460   28.1430   42.0690 C   0  0  0  0  0  0  0  0  0  0  0  0
   38.2900   28.8890   42.2410 C   0  0  0  0  0  0  0  0  0  0  0  0
   39.3830   28.1660   42.7470 C   0  0  0  0  0  0  0  0  0  0  0  0
   40.3930   28.5510   42.9640 H   0  0  0  0  0  0  0  0  0  0  0  0
   39.3240   26.8200   43.0490 C   0  0  0  0  0  3  0  0  0  0  0  0
   38.1370   26.1450   42.8460 C   0  0  0  0  0  0  0  0  0  0  0  0
   37.9550   24.4440   43.1950 Cl  0  0  0  0  0  0  0  0  0  0  0  0
   37.0380   26.8120   42.3520 C   0  0  0  0  0  0  0  0  0  0  0  0
   36.0850   26.3500   42.1710 H   0  0  0  0  0  0  0  0  0  0  0  0
  1  6  1  1  0  0  0
  1 32  1  0  0  0  0
  1  2  1  0  0  0  0
  2  7  1  6  0  0  0
  2 15  1  0  0  0  0
  3  9  1  0  0  0  0
  3  8  1  0  0  0  0
  3  2  1  0  0  0  0
  4  3  1  0  0  0  0
  5  4  1  0  0  0  0
  5  1  1  0  0  0  0
 10  5  1  0  0  0  0
 11  5  1  0  0  0  0
 12 13  1  0  0  0  0
 12 21  1  0  0  0  0
 13 17  1  0  0  0  0
 14 13  2  0  0  0  0
 15 16  1  0  0  0  0
 15 14  1  0  0  0  0
 16 12  2  0  0  0  0
 18 14  1  0  0  0  0
 19 27  1  0  0  0  0
 20 25  1  0  0  0  0
 20 19  2  0  0  0  0
 21 20  1  0  0  0  0
 22 21  2  0  0  0  0
 22 23  1  0  0  0  0
 23 24  2  0  0  0  0
 24 19  1  0  0  0  0
 26 23  1  0  0  0  0
 27 28  1  0  0  0  0
 28 29  1  0  0  0  0
 28 30  1  0  0  0  0
 31 28  1  0  0  0  0
 32 35  1  0  0  0  0
 33 34  1  0  0  0  0
 34 35  2  0  0  0  0
 34 41  1  0  0  0  0
 35 36  1  0  0  0  0
 36 37  1  0  0  0  0
 36 38  2  0  0  0  0
 39 38  1  0  0  0  0
 39 40  1  0  0  0  0
 41 39  2  0  0  0  0
 42 41  1  0  0  0  0
M  END
>  <minimizedAffinity>
-6.35098505

>  <minimizedRMSD>
0.364715159

$$$$
