
 OpenBabel03272510303D

 29 31  0  0  0  0  0  0  0  0999 V2000
   37.3500   31.2910   49.0440 C   0  0  0  0  0  0  0  0  0  0  0  0
   37.7380   32.5470   49.5120 C   0  0  0  0  0  0  0  0  0  0  0  0
   38.6790   33.2040   48.7520 C   0  0  0  0  0  0  0  0  0  0  0  0
   39.1720   32.6150   47.6110 N   0  0  0  0  0  0  0  0  0  0  0  0
   38.7600   31.3850   47.1970 C   0  0  0  0  0  0  0  0  0  0  0  0
   37.8260   30.7060   47.9310 N   0  0  0  0  0  0  0  0  0  0  0  0
   37.3050   32.9480   50.4210 H   0  0  0  0  0  0  0  0  0  0  0  0
   39.0270   34.1840   49.0570 H   0  0  0  0  0  0  0  0  0  0  0  0
   36.2960   30.5530   49.8330 C   0  0  0  0  0  0  0  0  0  0  0  0
   36.1850   29.1180   49.8480 C   0  0  0  0  0  0  0  0  0  0  0  0
   36.8790   29.7800   51.0250 C   0  0  0  0  0  0  0  0  0  0  0  0
   35.3990   31.1850   50.0750 H   0  0  0  0  0  0  0  0  0  0  0  0
   35.2090   28.6440   49.9980 H   0  0  0  0  0  0  0  0  0  0  0  0
   36.8500   28.5580   49.1320 H   0  0  0  0  0  0  0  0  0  0  0  0
   36.2760   29.8630   51.9370 H   0  0  0  0  0  0  0  0  0  0  0  0
   37.9720   29.7100   51.1380 H   0  0  0  0  0  0  0  0  0  0  0  0
   39.2630   30.7530   45.9800 C   0  0  0  0  0  0  0  0  0  0  0  0
   39.1560   29.6330   46.0570 H   0  0  0  0  0  0  0  0  0  0  0  0
   40.3270   30.9800   45.7920 H   0  0  0  0  0  0  0  0  0  0  0  0
   39.1190   28.6060   43.8040 Cl  0  0  0  0  0  0  0  0  0  0  0  0
   38.3610   30.1860   43.7870 C   0  0  0  0  0  0  0  0  0  0  0  0
   38.4380   31.1390   44.7800 C   0  0  0  0  0  0  0  0  0  0  0  0
   37.7790   32.3380   44.6100 C   0  0  0  0  0  0  0  0  0  0  0  0
   37.8740   33.0510   45.4230 H   0  0  0  0  0  0  0  0  0  0  0  0
   37.0540   32.5950   43.4800 C   0  0  0  0  0  3  0  0  0  0  0  0
   36.9680   31.6380   42.4670 C   0  0  0  0  0  0  0  0  0  0  0  0
   36.0270   32.0140   41.0400 Cl  0  0  0  0  0  0  0  0  0  0  0  0
   37.6250   30.4290   42.6240 C   0  0  0  0  0  0  0  0  0  0  0  0
   37.5140   29.7370   41.8020 H   0  0  0  0  0  0  0  0  0  0  0  0
  1  2  1  0  0  0  0
  1  9  1  0  0  0  0
  2  7  1  0  0  0  0
  3  8  1  0  0  0  0
  3  2  2  0  0  0  0
  4  3  1  0  0  0  0
  5  4  2  0  0  0  0
  5  6  1  0  0  0  0
  6  1  2  0  0  0  0
  9 10  1  0  0  0  0
  9 12  1  0  0  0  0
  9 11  1  0  0  0  0
 10 13  1  0  0  0  0
 10 11  1  0  0  0  0
 11 16  1  0  0  0  0
 11 15  1  0  0  0  0
 14 10  1  0  0  0  0
 17 18  1  0  0  0  0
 17  5  1  0  0  0  0
 19 17  1  0  0  0  0
 21 20  1  0  0  0  0
 21 22  1  0  0  0  0
 22 17  1  0  0  0  0
 23 22  2  0  0  0  0
 23 24  1  0  0  0  0
 25 23  1  0  0  0  0
 26 28  1  0  0  0  0
 26 25  2  0  0  0  0
 27 26  1  0  0  0  0
 28 21  2  0  0  0  0
 29 28  1  0  0  0  0
M  END
>  <minimizedAffinity>
-5.47463226

>  <minimizedRMSD>
0.345984429

$$$$
