
 OpenBabel03262520183D

 19 20  0  0  0  0  0  0  0  0999 V2000
   37.5060   23.9470   37.4170 Cl  0  0  0  0  0  0  0  0  0  0  0  0
   39.0910   23.6580   36.7500 C   0  0  0  0  0  0  0  0  0  0  0  0
   39.5720   24.4370   35.7170 C   0  0  0  0  0  0  0  0  0  0  0  0
   40.8340   24.1510   35.2400 C   0  0  0  0  0  0  0  0  0  0  0  0
   41.2200   24.7500   34.4350 H   0  0  0  0  0  0  0  0  0  0  0  0
   41.6090   23.1330   35.7550 C   0  0  0  0  0  3  0  0  0  0  0  0
   41.0790   22.3700   36.8020 C   0  0  0  0  0  0  0  0  0  0  0  0
   42.0950   21.0880   37.4260 Cl  0  0  0  0  0  0  0  0  0  0  0  0
   39.8220   22.6210   37.3100 C   0  0  0  0  0  0  0  0  0  0  0  0
   39.4480   22.0090   38.1190 H   0  0  0  0  0  0  0  0  0  0  0  0
   37.7910   27.7560   35.3450 C   0  0  0  0  0  0  0  0  0  0  0  0
   38.6280   26.7440   35.8370 C   0  0  0  0  0  0  0  0  0  0  0  0
   38.7050   25.5000   35.2140 C   0  0  0  0  0  0  0  0  0  0  0  0
   37.9270   25.3320   34.1140 N   0  0  0  0  0  0  0  0  0  0  0  0
   37.1300   26.3080   33.6500 C   0  0  0  0  0  0  0  0  0  0  0  0
   37.0610   27.5000   34.2520 N   0  0  0  0  0  0  0  0  0  0  0  0
   37.7480   28.7140   35.8440 H   0  0  0  0  0  0  0  0  0  0  0  0
   39.2010   26.9640   36.7040 H   0  0  0  0  0  0  0  0  0  0  0  0
   36.5360   26.1020   32.7650 H   0  0  0  0  0  0  0  0  0  0  0  0
  2  9  1  0  0  0  0
  2  1  1  0  0  0  0
  3  2  2  0  0  0  0
  4  3  1  0  0  0  0
  4  6  2  0  0  0  0
  5  4  1  0  0  0  0
  6  7  1  0  0  0  0
  7  9  2  0  0  0  0
  7  8  1  0  0  0  0
  9 10  1  0  0  0  0
 11 12  1  0  0  0  0
 11 17  1  0  0  0  0
 12 18  1  0  0  0  0
 13  3  1  0  0  0  0
 13 12  2  0  0  0  0
 14 13  1  0  0  0  0
 15 14  2  0  0  0  0
 15 16  1  0  0  0  0
 16 11  2  0  0  0  0
 19 15  1  0  0  0  0
M  END
>  <minimizedAffinity>
-4.30692959

$$$$

 OpenBabel03262520183D

 19 20  0  0  0  0  0  0  0  0999 V2000
   37.9310   23.6790   33.5720 Cl  0  0  0  0  0  0  0  0  0  0  0  0
   37.8280   25.2850   34.2460 C   0  0  0  0  0  0  0  0  0  0  0  0
   38.4100   25.5750   35.4640 C   0  0  0  0  0  0  0  0  0  0  0  0
   38.2880   26.8660   35.9340 C   0  0  0  0  0  0  0  0  0  0  0  0
   38.7370   27.1050   36.8820 H   0  0  0  0  0  0  0  0  0  0  0  0
   37.6190   27.8490   35.2370 C   0  0  0  0  0  3  0  0  0  0  0  0
   37.0460   27.5080   34.0070 C   0  0  0  0  0  0  0  0  0  0  0  0
   36.2040   28.7860   33.1550 Cl  0  0  0  0  0  0  0  0  0  0  0  0
   37.1420   26.2300   33.4980 C   0  0  0  0  0  0  0  0  0  0  0  0
   36.6850   26.0060   32.5440 H   0  0  0  0  0  0  0  0  0  0  0  0
   39.2720   22.8660   37.9630 C   0  0  0  0  0  0  0  0  0  0  0  0
   38.5940   23.9060   37.3100 C   0  0  0  0  0  0  0  0  0  0  0  0
   39.1050   24.4910   36.1530 C   0  0  0  0  0  0  0  0  0  0  0  0
   40.2880   23.9960   35.7040 N   0  0  0  0  0  0  0  0  0  0  0  0
   40.9280   23.0000   36.3360 C   0  0  0  0  0  0  0  0  0  0  0  0
   40.4320   22.4420   37.4450 N   0  0  0  0  0  0  0  0  0  0  0  0
   38.8570   22.4260   38.8590 H   0  0  0  0  0  0  0  0  0  0  0  0
   37.6750   24.2300   37.7330 H   0  0  0  0  0  0  0  0  0  0  0  0
   41.8690   22.6550   35.9190 H   0  0  0  0  0  0  0  0  0  0  0  0
  1  2  1  0  0  0  0
  2  3  1  0  0  0  0
  3  4  2  0  0  0  0
  3 13  1  0  0  0  0
  4  5  1  0  0  0  0
  6  4  1  0  0  0  0
  7  6  2  0  0  0  0
  8  7  1  0  0  0  0
  9  7  1  0  0  0  0
  9  2  2  0  0  0  0
 10  9  1  0  0  0  0
 11 17  1  0  0  0  0
 12 18  1  0  0  0  0
 12 11  2  0  0  0  0
 13 12  1  0  0  0  0
 14 13  2  0  0  0  0
 14 15  1  0  0  0  0
 15 16  2  0  0  0  0
 16 11  1  0  0  0  0
 19 15  1  0  0  0  0
M  END
>  <minimizedAffinity>
-4.25089025

$$$$

 OpenBabel03262520183D

 19 20  0  0  0  0  0  0  0  0999 V2000
   38.5450   27.2200   36.0500 Cl  0  0  0  0  0  0  0  0  0  0  0  0
   38.0870   26.3760   34.5940 C   0  0  0  0  0  0  0  0  0  0  0  0
   38.0780   24.9960   34.5550 C   0  0  0  0  0  0  0  0  0  0  0  0
   37.7040   24.3970   33.3700 C   0  0  0  0  0  0  0  0  0  0  0  0
   37.6940   23.3220   33.3260 H   0  0  0  0  0  0  0  0  0  0  0  0
   37.3470   25.1220   32.2530 C   0  0  0  0  0  3  0  0  0  0  0  0
   37.3710   26.5180   32.3400 C   0  0  0  0  0  0  0  0  0  0  0  0
   36.9120   27.4000   30.8990 Cl  0  0  0  0  0  0  0  0  0  0  0  0
   37.7390   27.1590   33.5050 C   0  0  0  0  0  0  0  0  0  0  0  0
   37.7440   28.2410   33.5320 H   0  0  0  0  0  0  0  0  0  0  0  0
   40.0560   22.9630   37.0610 C   0  0  0  0  0  0  0  0  0  0  0  0
   39.6960   23.6430   35.8880 C   0  0  0  0  0  0  0  0  0  0  0  0
   38.4650   24.2850   35.7700 C   0  0  0  0  0  0  0  0  0  0  0  0
   37.6460   24.2110   36.8510 N   0  0  0  0  0  0  0  0  0  0  0  0
   38.0000   23.5580   37.9690 C   0  0  0  0  0  0  0  0  0  0  0  0
   39.1830   22.9450   38.0770 N   0  0  0  0  0  0  0  0  0  0  0  0
   41.0170   22.4720   37.1310 H   0  0  0  0  0  0  0  0  0  0  0  0
   40.4000   23.6480   35.0930 H   0  0  0  0  0  0  0  0  0  0  0  0
   37.2940   23.5420   38.7940 H   0  0  0  0  0  0  0  0  0  0  0  0
  2  1  1  0  0  0  0
  3  2  1  0  0  0  0
  3 13  1  0  0  0  0
  4  3  2  0  0  0  0
  5  4  1  0  0  0  0
  6  7  2  0  0  0  0
  6  4  1  0  0  0  0
  7  9  1  0  0  0  0
  8  7  1  0  0  0  0
  9 10  1  0  0  0  0
  9  2  2  0  0  0  0
 11 17  1  0  0  0  0
 11 16  1  0  0  0  0
 12 11  2  0  0  0  0
 13 12  1  0  0  0  0
 13 14  2  0  0  0  0
 14 15  1  0  0  0  0
 15 16  2  0  0  0  0
 15 19  1  0  0  0  0
 18 12  1  0  0  0  0
M  END
>  <minimizedAffinity>
-4.17214155

$$$$

 OpenBabel03262520183D

 19 20  0  0  0  0  0  0  0  0999 V2000
   38.1030   22.8640   33.4070 Cl  0  0  0  0  0  0  0  0  0  0  0  0
   37.0830   23.9660   32.5200 C   0  0  0  0  0  0  0  0  0  0  0  0
   36.1040   23.4900   31.6720 C   0  0  0  0  0  0  0  0  0  0  0  0
   35.3360   24.4210   31.0040 C   0  0  0  0  0  0  0  0  0  0  0  0
   34.5690   24.0620   30.3390 H   0  0  0  0  0  0  0  0  0  0  0  0
   35.5140   25.7790   31.1580 C   0  0  0  0  0  3  0  0  0  0  0  0
   36.5190   26.2140   32.0280 C   0  0  0  0  0  0  0  0  0  0  0  0
   36.7140   27.9460   32.1940 Cl  0  0  0  0  0  0  0  0  0  0  0  0
   37.3120   25.3190   32.7170 C   0  0  0  0  0  0  0  0  0  0  0  0
   38.0780   25.6960   33.3810 H   0  0  0  0  0  0  0  0  0  0  0  0
   34.9080   19.9350   32.1810 C   0  0  0  0  0  0  0  0  0  0  0  0
   35.0340   21.3270   32.3050 C   0  0  0  0  0  0  0  0  0  0  0  0
   35.9630   22.0410   31.5520 C   0  0  0  0  0  0  0  0  0  0  0  0
   36.7300   21.3130   30.7000 N   0  0  0  0  0  0  0  0  0  0  0  0
   36.6010   19.9810   30.5880 C   0  0  0  0  0  0  0  0  0  0  0  0
   35.7070   19.3010   31.3130 N   0  0  0  0  0  0  0  0  0  0  0  0
   34.1800   19.4010   32.7760 H   0  0  0  0  0  0  0  0  0  0  0  0
   34.3920   21.8140   32.9980 H   0  0  0  0  0  0  0  0  0  0  0  0
   37.2480   19.4650   29.8860 H   0  0  0  0  0  0  0  0  0  0  0  0
  2  9  1  0  0  0  0
  2  1  1  0  0  0  0
  3  2  2  0  0  0  0
  4  6  2  0  0  0  0
  4  3  1  0  0  0  0
  5  4  1  0  0  0  0
  6  7  1  0  0  0  0
  7  8  1  0  0  0  0
  7  9  2  0  0  0  0
  9 10  1  0  0  0  0
 11 12  1  0  0  0  0
 11 17  1  0  0  0  0
 12 18  1  0  0  0  0
 13  3  1  0  0  0  0
 13 12  2  0  0  0  0
 14 13  1  0  0  0  0
 15 14  2  0  0  0  0
 15 16  1  0  0  0  0
 16 11  2  0  0  0  0
 19 15  1  0  0  0  0
M  END
>  <minimizedAffinity>
-4.14773273

$$$$

 OpenBabel03262520183D

 19 20  0  0  0  0  0  0  0  0999 V2000
   41.3450   25.3270   34.0940 Cl  0  0  0  0  0  0  0  0  0  0  0  0
   40.7440   24.2400   35.3190 C   0  0  0  0  0  0  0  0  0  0  0  0
   39.4630   24.3790   35.8160 C   0  0  0  0  0  0  0  0  0  0  0  0
   39.0570   23.4830   36.7820 C   0  0  0  0  0  0  0  0  0  0  0  0
   38.0620   23.5810   37.1780 H   0  0  0  0  0  0  0  0  0  0  0  0
   39.8750   22.4780   37.2540 C   0  0  0  0  0  3  0  0  0  0  0  0
   41.1650   22.3770   36.7210 C   0  0  0  0  0  0  0  0  0  0  0  0
   42.1710   21.0890   37.3470 Cl  0  0  0  0  0  0  0  0  0  0  0  0
   41.6130   23.2510   35.7530 C   0  0  0  0  0  0  0  0  0  0  0  0
   42.6170   23.1400   35.3660 H   0  0  0  0  0  0  0  0  0  0  0  0
   37.7540   27.7280   35.3860 C   0  0  0  0  0  0  0  0  0  0  0  0
   38.5430   26.6960   35.9140 C   0  0  0  0  0  0  0  0  0  0  0  0
   38.6450   25.4620   35.2760 C   0  0  0  0  0  0  0  0  0  0  0  0
   37.9410   25.3240   34.1230 N   0  0  0  0  0  0  0  0  0  0  0  0
   37.1890   26.3180   33.6250 C   0  0  0  0  0  0  0  0  0  0  0  0
   37.0950   27.5010   34.2420 N   0  0  0  0  0  0  0  0  0  0  0  0
   37.6890   28.6780   35.8980 H   0  0  0  0  0  0  0  0  0  0  0  0
   39.0590   26.8930   36.8210 H   0  0  0  0  0  0  0  0  0  0  0  0
   36.6530   26.1360   32.6990 H   0  0  0  0  0  0  0  0  0  0  0  0
  1  2  1  0  0  0  0
  2  9  2  0  0  0  0
  2  3  1  0  0  0  0
  3  4  2  0  0  0  0
  4  5  1  0  0  0  0
  4  6  1  0  0  0  0
  7  6  2  0  0  0  0
  7  8  1  0  0  0  0
  9  7  1  0  0  0  0
 10  9  1  0  0  0  0
 11 17  1  0  0  0  0
 11 12  1  0  0  0  0
 12 18  1  0  0  0  0
 13  3  1  0  0  0  0
 13 12  2  0  0  0  0
 14 13  1  0  0  0  0
 15 14  2  0  0  0  0
 15 16  1  0  0  0  0
 16 11  2  0  0  0  0
 19 15  1  0  0  0  0
M  END
>  <minimizedAffinity>
-4.06252527

$$$$

 OpenBabel03262520183D

 19 20  0  0  0  0  0  0  0  0999 V2000
   37.8380   23.3460   33.6830 Cl  0  0  0  0  0  0  0  0  0  0  0  0
   38.7640   24.8250   33.6560 C   0  0  0  0  0  0  0  0  0  0  0  0
   39.3310   25.3210   34.8120 C   0  0  0  0  0  0  0  0  0  0  0  0
   40.0490   26.4940   34.7140 C   0  0  0  0  0  0  0  0  0  0  0  0
   40.4960   26.8910   35.6080 H   0  0  0  0  0  0  0  0  0  0  0  0
   40.2120   27.1670   33.5220 C   0  0  0  0  0  3  0  0  0  0  0  0
   39.6180   26.6260   32.3760 C   0  0  0  0  0  0  0  0  0  0  0  0
   39.8470   27.5130   30.8840 Cl  0  0  0  0  0  0  0  0  0  0  0  0
   38.8910   25.4550   32.4280 C   0  0  0  0  0  0  0  0  0  0  0  0
   38.4470   25.0690   31.5200 H   0  0  0  0  0  0  0  0  0  0  0  0
   37.9060   24.1280   38.1100 C   0  0  0  0  0  0  0  0  0  0  0  0
   38.0940   24.8650   36.9310 C   0  0  0  0  0  0  0  0  0  0  0  0
   39.1240   24.5620   36.0430 C   0  0  0  0  0  0  0  0  0  0  0  0
   39.9250   23.5200   36.3880 N   0  0  0  0  0  0  0  0  0  0  0  0
   39.7360   22.8220   37.5190 C   0  0  0  0  0  0  0  0  0  0  0  0
   38.7460   23.1170   38.3660 N   0  0  0  0  0  0  0  0  0  0  0  0
   37.1000   24.3810   38.7850 H   0  0  0  0  0  0  0  0  0  0  0  0
   37.4190   25.6630   36.7430 H   0  0  0  0  0  0  0  0  0  0  0  0
   40.4160   22.0020   37.7290 H   0  0  0  0  0  0  0  0  0  0  0  0
  2  1  1  0  0  0  0
  2  3  1  0  0  0  0
  3 13  1  0  0  0  0
  4  3  2  0  0  0  0
  4  5  1  0  0  0  0
  6  4  1  0  0  0  0
  7  9  1  0  0  0  0
  7  6  2  0  0  0  0
  8  7  1  0  0  0  0
  9  2  2  0  0  0  0
 10  9  1  0  0  0  0
 11 16  1  0  0  0  0
 11 17  1  0  0  0  0
 12 11  2  0  0  0  0
 13 14  2  0  0  0  0
 13 12  1  0  0  0  0
 14 15  1  0  0  0  0
 15 19  1  0  0  0  0
 15 16  2  0  0  0  0
 18 12  1  0  0  0  0
M  END
>  <minimizedAffinity>
-3.99032855

$$$$

 OpenBabel03262520183D

 19 20  0  0  0  0  0  0  0  0999 V2000
   37.7260   27.8040   35.4290 Cl  0  0  0  0  0  0  0  0  0  0  0  0
   38.0000   26.0820   35.4060 C   0  0  0  0  0  0  0  0  0  0  0  0
   37.9990   25.3850   34.2140 C   0  0  0  0  0  0  0  0  0  0  0  0
   38.2230   24.0260   34.2740 C   0  0  0  0  0  0  0  0  0  0  0  0
   38.2240   23.4710   33.3520 H   0  0  0  0  0  0  0  0  0  0  0  0
   38.4420   23.3610   35.4610 C   0  0  0  0  0  3  0  0  0  0  0  0
   38.4340   24.1090   36.6440 C   0  0  0  0  0  0  0  0  0  0  0  0
   38.7150   23.2270   38.1290 Cl  0  0  0  0  0  0  0  0  0  0  0  0
   38.2140   25.4710   36.6320 C   0  0  0  0  0  0  0  0  0  0  0  0
   38.2150   26.0140   37.5670 H   0  0  0  0  0  0  0  0  0  0  0  0
   38.5570   27.4900   31.1180 C   0  0  0  0  0  0  0  0  0  0  0  0
   38.7980   26.7620   32.2930 C   0  0  0  0  0  0  0  0  0  0  0  0
   37.7610   26.1460   32.9900 C   0  0  0  0  0  0  0  0  0  0  0  0
   36.5170   26.2920   32.4650 N   0  0  0  0  0  0  0  0  0  0  0  0
   36.2970   26.9900   31.3390 C   0  0  0  0  0  0  0  0  0  0  0  0
   37.2960   27.5790   30.6750 N   0  0  0  0  0  0  0  0  0  0  0  0
   39.3770   27.9600   30.5930 H   0  0  0  0  0  0  0  0  0  0  0  0
   39.8040   26.7010   32.6300 H   0  0  0  0  0  0  0  0  0  0  0  0
   35.2760   27.0640   30.9790 H   0  0  0  0  0  0  0  0  0  0  0  0
  2  1  1  0  0  0  0
  2  9  1  0  0  0  0
  3  4  1  0  0  0  0
  3  2  2  0  0  0  0
  4  6  2  0  0  0  0
  5  4  1  0  0  0  0
  6  7  1  0  0  0  0
  7  8  1  0  0  0  0
  9  7  2  0  0  0  0
  9 10  1  0  0  0  0
 11 12  1  0  0  0  0
 12 18  1  0  0  0  0
 12 13  2  0  0  0  0
 13  3  1  0  0  0  0
 14 13  1  0  0  0  0
 15 14  2  0  0  0  0
 16 11  2  0  0  0  0
 16 15  1  0  0  0  0
 17 11  1  0  0  0  0
 19 15  1  0  0  0  0
M  END
>  <minimizedAffinity>
-3.98992038

$$$$

 OpenBabel03262520183D

 19 20  0  0  0  0  0  0  0  0999 V2000
   35.1360   30.9600   32.0380 Cl  0  0  0  0  0  0  0  0  0  0  0  0
   35.9170   29.5220   32.6430 C   0  0  0  0  0  0  0  0  0  0  0  0
   35.9050   29.2300   33.9920 C   0  0  0  0  0  0  0  0  0  0  0  0
   36.5430   28.0760   34.3970 C   0  0  0  0  0  0  0  0  0  0  0  0
   36.5410   27.8370   35.4460 H   0  0  0  0  0  0  0  0  0  0  0  0
   37.1740   27.2280   33.5130 C   0  0  0  0  0  3  0  0  0  0  0  0
   37.1600   27.5650   32.1550 C   0  0  0  0  0  0  0  0  0  0  0  0
   37.9750   26.4620   31.0660 Cl  0  0  0  0  0  0  0  0  0  0  0  0
   36.5350   28.7090   31.7050 C   0  0  0  0  0  0  0  0  0  0  0  0
   36.5460   28.9350   30.6470 H   0  0  0  0  0  0  0  0  0  0  0  0
   35.2400   32.0230   36.4580 C   0  0  0  0  0  0  0  0  0  0  0  0
   35.9110   31.1290   35.6110 C   0  0  0  0  0  0  0  0  0  0  0  0
   35.2190   30.1670   34.8780 C   0  0  0  0  0  0  0  0  0  0  0  0
   33.8700   30.1500   35.0350 N   0  0  0  0  0  0  0  0  0  0  0  0
   33.2380   31.0110   35.8480 C   0  0  0  0  0  0  0  0  0  0  0  0
   33.9070   31.9320   36.5490 N   0  0  0  0  0  0  0  0  0  0  0  0
   35.7970   32.7620   37.0180 H   0  0  0  0  0  0  0  0  0  0  0  0
   36.9680   31.2150   35.5510 H   0  0  0  0  0  0  0  0  0  0  0  0
   32.1570   30.9390   35.9230 H   0  0  0  0  0  0  0  0  0  0  0  0
  1  2  1  0  0  0  0
  2  3  1  0  0  0  0
  3  4  2  0  0  0  0
  3 13  1  0  0  0  0
  4  5  1  0  0  0  0
  6  4  1  0  0  0  0
  7  6  2  0  0  0  0
  8  7  1  0  0  0  0
  9  7  1  0  0  0  0
  9  2  2  0  0  0  0
 10  9  1  0  0  0  0
 11 16  1  0  0  0  0
 11 17  1  0  0  0  0
 12 11  2  0  0  0  0
 13 14  2  0  0  0  0
 13 12  1  0  0  0  0
 14 15  1  0  0  0  0
 15 19  1  0  0  0  0
 15 16  2  0  0  0  0
 18 12  1  0  0  0  0
M  END
>  <minimizedAffinity>
-3.9602797

$$$$

 OpenBabel03262520183D

 19 20  0  0  0  0  0  0  0  0999 V2000
   38.8440   23.4050   30.5150 Cl  0  0  0  0  0  0  0  0  0  0  0  0
   37.4850   22.4070   30.9620 C   0  0  0  0  0  0  0  0  0  0  0  0
   36.3850   22.9570   31.5870 C   0  0  0  0  0  0  0  0  0  0  0  0
   35.3480   22.1070   31.9100 C   0  0  0  0  0  0  0  0  0  0  0  0
   34.4840   22.5230   32.3980 H   0  0  0  0  0  0  0  0  0  0  0  0
   35.3800   20.7570   31.6320 C   0  0  0  0  0  3  0  0  0  0  0  0
   36.5170   20.2450   30.9970 C   0  0  0  0  0  0  0  0  0  0  0  0
   36.5190   18.5270   30.6630 Cl  0  0  0  0  0  0  0  0  0  0  0  0
   37.5780   21.0580   30.6560 C   0  0  0  0  0  0  0  0  0  0  0  0
   38.4390   20.6240   30.1660 H   0  0  0  0  0  0  0  0  0  0  0  0
   35.7300   26.6770   31.3390 C   0  0  0  0  0  0  0  0  0  0  0  0
   35.6980   25.3000   31.0720 C   0  0  0  0  0  0  0  0  0  0  0  0
   36.4090   24.3930   31.8550 C   0  0  0  0  0  0  0  0  0  0  0  0
   37.1260   24.9200   32.8800 N   0  0  0  0  0  0  0  0  0  0  0  0
   37.1490   26.2400   33.1280 C   0  0  0  0  0  0  0  0  0  0  0  0
   36.4650   27.1050   32.3740 N   0  0  0  0  0  0  0  0  0  0  0  0
   35.1700   27.3630   30.7190 H   0  0  0  0  0  0  0  0  0  0  0  0
   35.1100   24.9770   30.2490 H   0  0  0  0  0  0  0  0  0  0  0  0
   37.7450   26.5890   33.9650 H   0  0  0  0  0  0  0  0  0  0  0  0
  1  2  1  0  0  0  0
  2  3  1  0  0  0  0
  3 13  1  0  0  0  0
  3  4  2  0  0  0  0
  4  5  1  0  0  0  0
  6  4  1  0  0  0  0
  7  6  2  0  0  0  0
  8  7  1  0  0  0  0
  9  2  2  0  0  0  0
  9  7  1  0  0  0  0
 10  9  1  0  0  0  0
 11 16  1  0  0  0  0
 12 11  2  0  0  0  0
 12 13  1  0  0  0  0
 13 14  2  0  0  0  0
 14 15  1  0  0  0  0
 15 19  1  0  0  0  0
 16 15  2  0  0  0  0
 17 11  1  0  0  0  0
 18 12  1  0  0  0  0
M  END
>  <minimizedAffinity>
-3.89417148

$$$$
