
 OpenBabel03272509513D

 34 36  0  0  0  0  0  0  0  0999 V2000
   37.5830   27.5040   35.1620 C   0  0  0  0  0  0  0  0  0  0  0  0
   38.3800   26.6180   35.8890 C   0  0  0  0  0  0  0  0  0  0  0  0
   38.5620   25.3320   35.4430 C   0  0  0  0  0  0  0  0  0  0  0  0
   37.9150   25.0450   34.2830 N   0  0  0  0  0  0  0  0  0  0  0  0
   37.1560   25.8730   33.5820 C   0  0  0  0  0  0  0  0  0  0  0  0
   36.9920   27.1230   34.0350 N   0  0  0  0  0  0  0  0  0  0  0  0
   37.4730   28.5060   35.5590 H   0  0  0  0  0  0  0  0  0  0  0  0
   38.8380   26.9280   36.7900 H   0  0  0  0  0  0  0  0  0  0  0  0
   37.7550   23.9860   38.1780 Cl  0  0  0  0  0  0  0  0  0  0  0  0
   39.1310   23.5700   37.2000 C   0  0  0  0  0  0  0  0  0  0  0  0
   39.3310   24.2590   36.0460 C   0  0  0  0  0  0  0  0  0  0  0  0
   40.4680   23.8430   35.3800 C   0  0  0  0  0  0  0  0  0  0  0  0
   40.7980   24.2810   34.4250 H   0  0  0  0  0  0  0  0  0  0  0  0
   41.3020   22.8460   35.8310 C   0  0  0  0  0  3  0  0  0  0  0  0
   41.0320   22.1950   37.0090 C   0  0  0  0  0  0  0  0  0  0  0  0
   42.1050   20.9310   37.5650 Cl  0  0  0  0  0  0  0  0  0  0  0  0
   39.9140   22.5820   37.6940 C   0  0  0  0  0  0  0  0  0  0  0  0
   39.7090   22.0660   38.6170 H   0  0  0  0  0  0  0  0  0  0  0  0
   36.6250   25.3020   32.4420 O   0  0  0  0  0  0  0  0  0  0  0  0
   36.9450   23.9580   32.1440 C   0  0  0  0  0  0  0  0  0  0  0  0
   37.3300   23.4070   33.0250 H   0  0  0  0  0  0  0  0  0  0  0  0
   37.7990   23.9950   31.4100 H   0  0  0  0  0  0  0  0  0  0  0  0
   35.8120   23.2710   31.4560 C   0  0  0  0  0  0  0  0  0  0  0  0
   35.7850   23.4820   30.3700 H   0  0  0  0  0  0  0  0  0  0  0  0
   34.8620   23.6680   31.8790 H   0  0  0  0  0  0  0  0  0  0  0  0
   35.8000   21.7970   31.7100 C   0  0  0  0  0  0  0  0  0  0  0  0
   35.6000   21.3840   33.0220 C   0  0  0  0  0  0  0  0  0  0  0  0
   35.5710   20.0460   33.3540 C   0  0  0  0  0  0  0  0  0  0  0  0
   35.7370   19.1280   32.4120 N   0  0  0  0  0  0  0  0  0  0  0  0
   35.9310   19.5460   31.1320 C   0  0  0  0  0  0  0  0  0  0  0  0
   35.9640   20.8390   30.7790 N   0  0  0  0  0  0  0  0  0  0  0  0
   35.4610   22.1070   33.8190 H   0  0  0  0  0  0  0  0  0  0  0  0
   35.4160   19.7210   34.3740 H   0  0  0  0  0  0  0  0  0  0  0  0
   36.0800   18.8950   30.2620 H   0  0  0  0  0  0  0  0  0  0  0  0
  1  7  1  0  0  0  0
  1  2  1  0  0  0  0
  2  8  1  0  0  0  0
  3  2  2  0  0  0  0
  3 11  1  0  0  0  0
  4  3  1  0  0  0  0
  5  6  1  0  0  0  0
  5  4  2  0  0  0  0
  6  1  2  0  0  0  0
 10 17  1  0  0  0  0
 10  9  1  0  0  0  0
 11 10  2  0  0  0  0
 12 14  2  0  0  0  0
 12 11  1  0  0  0  0
 13 12  1  0  0  0  0
 14 15  1  0  0  0  0
 15 16  1  0  0  0  0
 15 17  2  0  0  0  0
 17 18  1  0  0  0  0
 19  5  1  0  0  0  0
 20 19  1  0  0  0  0
 20 21  1  0  0  0  0
 22 20  1  0  0  0  0
 23 26  1  0  0  0  0
 23 25  1  0  0  0  0
 23 20  1  0  0  0  0
 24 23  1  0  0  0  0
 26 27  1  0  0  0  0
 27 28  2  0  0  0  0
 27 32  1  0  0  0  0
 28 33  1  0  0  0  0
 29 28  1  0  0  0  0
 30 29  2  0  0  0  0
 31 30  1  0  0  0  0
 31 26  2  0  0  0  0
 34 30  1  0  0  0  0
M  END
>  <minimizedAffinity>
-5.76922798

$$$$

 OpenBabel03272509513D

 34 36  0  0  0  0  0  0  0  0999 V2000
   36.2000   28.2900   31.9310 C   0  0  0  0  0  0  0  0  0  0  0  0
   35.5720   29.3270   32.6230 C   0  0  0  0  0  0  0  0  0  0  0  0
   35.6500   29.3880   33.9930 C   0  0  0  0  0  0  0  0  0  0  0  0
   36.3670   28.3810   34.5570 N   0  0  0  0  0  0  0  0  0  0  0  0
   36.9690   27.3900   33.9150 C   0  0  0  0  0  0  0  0  0  0  0  0
   36.8790   27.3510   32.5790 N   0  0  0  0  0  0  0  0  0  0  0  0
   36.1070   28.2910   30.8510 H   0  0  0  0  0  0  0  0  0  0  0  0
   35.0250   30.0650   32.0980 H   0  0  0  0  0  0  0  0  0  0  0  0
   32.5640   29.4820   34.6350 Cl  0  0  0  0  0  0  0  0  0  0  0  0
   33.7770   30.5430   35.2860 C   0  0  0  0  0  0  0  0  0  0  0  0
   35.0660   30.3610   34.8970 C   0  0  0  0  0  0  0  0  0  0  0  0
   35.9190   31.2830   35.4710 C   0  0  0  0  0  0  0  0  0  0  0  0
   37.0040   31.2990   35.2780 H   0  0  0  0  0  0  0  0  0  0  0  0
   35.5140   32.2710   36.3380 C   0  0  0  0  0  3  0  0  0  0  0  0
   34.1910   32.3900   36.6850 C   0  0  0  0  0  0  0  0  0  0  0  0
   33.6950   33.6540   37.7880 Cl  0  0  0  0  0  0  0  0  0  0  0  0
   33.3180   31.4940   36.1340 C   0  0  0  0  0  0  0  0  0  0  0  0
   32.2830   31.5940   36.4110 H   0  0  0  0  0  0  0  0  0  0  0  0
   37.6240   26.5100   34.7540 O   0  0  0  0  0  0  0  0  0  0  0  0
   38.5190   25.5730   34.1890 C   0  0  0  0  0  0  0  0  0  0  0  0
   39.5790   25.8080   34.4150 H   0  0  0  0  0  0  0  0  0  0  0  0
   38.4150   25.6760   33.0720 H   0  0  0  0  0  0  0  0  0  0  0  0
   38.1280   24.1740   34.5320 C   0  0  0  0  0  0  0  0  0  0  0  0
   38.6090   23.4260   33.8740 H   0  0  0  0  0  0  0  0  0  0  0  0
   37.0300   24.0760   34.3730 H   0  0  0  0  0  0  0  0  0  0  0  0
   38.3730   23.8490   35.9720 C   0  0  0  0  0  0  0  0  0  0  0  0
   39.5760   23.2270   36.2820 C   0  0  0  0  0  0  0  0  0  0  0  0
   39.8930   22.8900   37.5800 C   0  0  0  0  0  0  0  0  0  0  0  0
   39.0400   23.1590   38.5600 N   0  0  0  0  0  0  0  0  0  0  0  0
   37.8660   23.7700   38.2410 C   0  0  0  0  0  0  0  0  0  0  0  0
   37.5320   24.1090   36.9890 N   0  0  0  0  0  0  0  0  0  0  0  0
   40.2980   22.9910   35.5060 H   0  0  0  0  0  0  0  0  0  0  0  0
   40.8280   22.4040   37.8260 H   0  0  0  0  0  0  0  0  0  0  0  0
   37.0780   24.0470   38.9510 H   0  0  0  0  0  0  0  0  0  0  0  0
  1  6  2  0  0  0  0
  1  2  1  0  0  0  0
  2  3  2  0  0  0  0
  3  4  1  0  0  0  0
  3 11  1  0  0  0  0
  5  4  2  0  0  0  0
  5 19  1  0  0  0  0
  6  5  1  0  0  0  0
  7  1  1  0  0  0  0
  8  2  1  0  0  0  0
  9 10  1  0  0  0  0
 10 17  1  0  0  0  0
 11 10  2  0  0  0  0
 11 12  1  0  0  0  0
 12 14  2  0  0  0  0
 13 12  1  0  0  0  0
 14 15  1  0  0  0  0
 15 16  1  0  0  0  0
 17 18  1  0  0  0  0
 17 15  2  0  0  0  0
 20 21  1  0  0  0  0
 20 23  1  0  0  0  0
 20 19  1  0  0  0  0
 22 20  1  0  0  0  0
 23 26  1  0  0  0  0
 24 23  1  0  0  0  0
 25 23  1  0  0  0  0
 26 27  2  0  0  0  0
 26 31  1  0  0  0  0
 27 28  1  0  0  0  0
 28 33  1  0  0  0  0
 28 29  2  0  0  0  0
 30 29  1  0  0  0  0
 30 34  1  0  0  0  0
 31 30  2  0  0  0  0
 32 27  1  0  0  0  0
M  END
>  <minimizedAffinity>
-5.67972994

$$$$

 OpenBabel03272509513D

 34 36  0  0  0  0  0  0  0  0999 V2000
   35.6430   29.5270   31.8480 C   0  0  0  0  0  0  0  0  0  0  0  0
   35.3200   30.6350   32.6340 C   0  0  0  0  0  0  0  0  0  0  0  0
   35.5070   30.5920   33.9940 C   0  0  0  0  0  0  0  0  0  0  0  0
   36.0130   29.4180   34.4520 N   0  0  0  0  0  0  0  0  0  0  0  0
   36.3250   28.3580   33.7210 C   0  0  0  0  0  0  0  0  0  0  0  0
   36.1350   28.4220   32.3960 N   0  0  0  0  0  0  0  0  0  0  0  0
   35.4770   29.6150   30.7810 H   0  0  0  0  0  0  0  0  0  0  0  0
   34.9210   31.5070   32.1890 H   0  0  0  0  0  0  0  0  0  0  0  0
   36.9330   33.4040   33.9890 Cl  0  0  0  0  0  0  0  0  0  0  0  0
   35.7380   32.8660   35.1310 C   0  0  0  0  0  0  0  0  0  0  0  0
   35.2280   31.6150   34.9850 C   0  0  0  0  0  0  0  0  0  0  0  0
   34.3080   31.3090   35.9690 C   0  0  0  0  0  0  0  0  0  0  0  0
   33.7850   30.3410   36.0210 H   0  0  0  0  0  0  0  0  0  0  0  0
   33.9490   32.1690   36.9800 C   0  0  0  0  0  3  0  0  0  0  0  0
   34.5090   33.4200   37.0600 C   0  0  0  0  0  0  0  0  0  0  0  0
   34.0380   34.4990   38.3530 Cl  0  0  0  0  0  0  0  0  0  0  0  0
   35.4240   33.7560   36.1010 C   0  0  0  0  0  0  0  0  0  0  0  0
   35.8590   34.7380   36.1710 H   0  0  0  0  0  0  0  0  0  0  0  0
   36.8200   27.3030   34.4630 O   0  0  0  0  0  0  0  0  0  0  0  0
   37.7540   27.5730   35.4880 C   0  0  0  0  0  0  0  0  0  0  0  0
   37.3260   27.4330   36.5010 H   0  0  0  0  0  0  0  0  0  0  0  0
   37.9970   28.6710   35.4080 H   0  0  0  0  0  0  0  0  0  0  0  0
   39.0300   26.8310   35.2690 C   0  0  0  0  0  0  0  0  0  0  0  0
   39.8770   27.2670   35.8330 H   0  0  0  0  0  0  0  0  0  0  0  0
   39.2940   26.9140   34.1900 H   0  0  0  0  0  0  0  0  0  0  0  0
   38.8980   25.3690   35.5570 C   0  0  0  0  0  0  0  0  0  0  0  0
   38.1110   25.0100   36.6450 C   0  0  0  0  0  0  0  0  0  0  0  0
   37.9280   23.6870   36.9890 C   0  0  0  0  0  0  0  0  0  0  0  0
   38.5090   22.7330   36.2750 N   0  0  0  0  0  0  0  0  0  0  0  0
   39.2760   23.0990   35.2120 C   0  0  0  0  0  0  0  0  0  0  0  0
   39.4720   24.3760   34.8550 N   0  0  0  0  0  0  0  0  0  0  0  0
   37.6200   25.7640   37.2520 H   0  0  0  0  0  0  0  0  0  0  0  0
   37.3170   23.4030   37.8350 H   0  0  0  0  0  0  0  0  0  0  0  0
   39.8090   22.4140   34.5430 H   0  0  0  0  0  0  0  0  0  0  0  0
  1  6  2  0  0  0  0
  1  2  1  0  0  0  0
  2  3  2  0  0  0  0
  3  4  1  0  0  0  0
  3 11  1  0  0  0  0
  5  4  2  0  0  0  0
  5 19  1  0  0  0  0
  6  5  1  0  0  0  0
  7  1  1  0  0  0  0
  8  2  1  0  0  0  0
  9 10  1  0  0  0  0
 10 17  1  0  0  0  0
 11 10  2  0  0  0  0
 11 12  1  0  0  0  0
 12 13  1  0  0  0  0
 12 14  2  0  0  0  0
 14 15  1  0  0  0  0
 15 16  1  0  0  0  0
 17 18  1  0  0  0  0
 17 15  2  0  0  0  0
 19 20  1  0  0  0  0
 20 21  1  0  0  0  0
 22 20  1  0  0  0  0
 23 20  1  0  0  0  0
 23 26  1  0  0  0  0
 23 24  1  0  0  0  0
 25 23  1  0  0  0  0
 26 27  1  0  0  0  0
 27 28  2  0  0  0  0
 27 32  1  0  0  0  0
 28 33  1  0  0  0  0
 29 28  1  0  0  0  0
 30 29  2  0  0  0  0
 31 30  1  0  0  0  0
 31 26  2  0  0  0  0
 34 30  1  0  0  0  0
M  END
>  <minimizedAffinity>
-5.32973433

$$$$

 OpenBabel03272509513D

 34 36  0  0  0  0  0  0  0  0999 V2000
   35.4860   24.5130   31.0240 C   0  0  0  0  0  0  0  0  0  0  0  0
   35.2650   25.8910   31.0310 C   0  0  0  0  0  0  0  0  0  0  0  0
   36.2330   26.7420   31.5030 C   0  0  0  0  0  0  0  0  0  0  0  0
   37.3610   26.1210   31.9340 N   0  0  0  0  0  0  0  0  0  0  0  0
   37.5880   24.8160   31.9350 C   0  0  0  0  0  0  0  0  0  0  0  0
   36.6300   24.0040   31.4700 N   0  0  0  0  0  0  0  0  0  0  0  0
   34.6890   23.8880   30.6410 H   0  0  0  0  0  0  0  0  0  0  0  0
   34.3470   26.2860   30.6820 H   0  0  0  0  0  0  0  0  0  0  0  0
   37.2320   28.6430   29.1930 Cl  0  0  0  0  0  0  0  0  0  0  0  0
   36.5830   29.1480   30.7240 C   0  0  0  0  0  0  0  0  0  0  0  0
   36.2020   28.1890   31.6090 C   0  0  0  0  0  0  0  0  0  0  0  0
   35.7270   28.7280   32.7890 C   0  0  0  0  0  0  0  0  0  0  0  0
   35.3700   28.1110   33.6290 H   0  0  0  0  0  0  0  0  0  0  0  0
   35.6460   30.0770   33.0410 C   0  0  0  0  0  3  0  0  0  0  0  0
   36.0510   30.9860   32.0950 C   0  0  0  0  0  0  0  0  0  0  0  0
   35.9400   32.6980   32.4350 Cl  0  0  0  0  0  0  0  0  0  0  0  0
   36.5270   30.4870   30.9150 C   0  0  0  0  0  0  0  0  0  0  0  0
   36.8420   31.2060   30.1780 H   0  0  0  0  0  0  0  0  0  0  0  0
   38.8290   24.4730   32.4360 O   0  0  0  0  0  0  0  0  0  0  0  0
   39.0330   24.5180   33.8330 C   0  0  0  0  0  0  0  0  0  0  0  0
   38.9500   25.5440   34.2430 H   0  0  0  0  0  0  0  0  0  0  0  0
   40.1030   24.2060   34.0030 H   0  0  0  0  0  0  0  0  0  0  0  0
   38.1760   23.5190   34.5390 C   0  0  0  0  0  0  0  0  0  0  0  0
   38.2940   22.4970   34.1330 H   0  0  0  0  0  0  0  0  0  0  0  0
   37.1120   23.8040   34.3740 H   0  0  0  0  0  0  0  0  0  0  0  0
   38.3890   23.5290   36.0190 C   0  0  0  0  0  0  0  0  0  0  0  0
   39.5350   22.9040   36.4970 C   0  0  0  0  0  0  0  0  0  0  0  0
   39.8170   22.8630   37.8450 C   0  0  0  0  0  0  0  0  0  0  0  0
   38.9870   23.4260   38.7120 N   0  0  0  0  0  0  0  0  0  0  0  0
   37.8690   24.0350   38.2310 C   0  0  0  0  0  0  0  0  0  0  0  0
   37.5690   24.0910   36.9260 N   0  0  0  0  0  0  0  0  0  0  0  0
   40.2370   22.4330   35.8160 H   0  0  0  0  0  0  0  0  0  0  0  0
   40.7090   22.3770   38.2210 H   0  0  0  0  0  0  0  0  0  0  0  0
   37.1050   24.5360   38.8360 H   0  0  0  0  0  0  0  0  0  0  0  0
  1  2  2  0  0  0  0
  1  6  1  0  0  0  0
  2  3  1  0  0  0  0
  3 11  1  0  0  0  0
  3  4  2  0  0  0  0
  4  5  1  0  0  0  0
  5 19  1  0  0  0  0
  6  5  2  0  0  0  0
  7  1  1  0  0  0  0
  8  2  1  0  0  0  0
  9 10  1  0  0  0  0
 10 17  2  0  0  0  0
 10 11  1  0  0  0  0
 11 12  2  0  0  0  0
 12 14  1  0  0  0  0
 12 13  1  0  0  0  0
 15 16  1  0  0  0  0
 15 14  2  0  0  0  0
 17 15  1  0  0  0  0
 18 17  1  0  0  0  0
 19 20  1  0  0  0  0
 20 22  1  0  0  0  0
 20 21  1  0  0  0  0
 20 23  1  0  0  0  0
 23 26  1  0  0  0  0
 24 23  1  0  0  0  0
 25 23  1  0  0  0  0
 26 27  2  0  0  0  0
 26 31  1  0  0  0  0
 27 28  1  0  0  0  0
 28 33  1  0  0  0  0
 28 29  2  0  0  0  0
 30 29  1  0  0  0  0
 30 34  1  0  0  0  0
 31 30  2  0  0  0  0
 32 27  1  0  0  0  0
M  END
>  <minimizedAffinity>
-5.24746561

$$$$

 OpenBabel03272509513D

 34 36  0  0  0  0  0  0  0  0999 V2000
   35.2200   26.3360   31.0250 C   0  0  0  0  0  0  0  0  0  0  0  0
   35.2000   24.9470   30.8920 C   0  0  0  0  0  0  0  0  0  0  0  0
   36.0270   24.1690   31.6650 C   0  0  0  0  0  0  0  0  0  0  0  0
   36.8140   24.8700   32.5210 N   0  0  0  0  0  0  0  0  0  0  0  0
   36.8450   26.1870   32.6610 C   0  0  0  0  0  0  0  0  0  0  0  0
   36.0300   26.9260   31.8960 N   0  0  0  0  0  0  0  0  0  0  0  0
   34.5470   26.9020   30.3910 H   0  0  0  0  0  0  0  0  0  0  0  0
   34.5580   24.4870   30.1880 H   0  0  0  0  0  0  0  0  0  0  0  0
   38.5300   22.7010   30.4340 Cl  0  0  0  0  0  0  0  0  0  0  0  0
   37.1710   21.9360   31.2010 C   0  0  0  0  0  0  0  0  0  0  0  0
   36.1720   22.7250   31.6750 C   0  0  0  0  0  0  0  0  0  0  0  0
   35.1480   21.9900   32.2390 C   0  0  0  0  0  0  0  0  0  0  0  0
   34.2490   22.4500   32.6780 H   0  0  0  0  0  0  0  0  0  0  0  0
   35.1380   20.6160   32.3130 C   0  0  0  0  0  3  0  0  0  0  0  0
   36.1870   19.8860   31.8100 C   0  0  0  0  0  0  0  0  0  0  0  0
   36.1550   18.1400   31.9140 Cl  0  0  0  0  0  0  0  0  0  0  0  0
   37.2180   20.5830   31.2450 C   0  0  0  0  0  0  0  0  0  0  0  0
   38.0360   20.0040   30.8530 H   0  0  0  0  0  0  0  0  0  0  0  0
   37.7490   26.6190   33.6120 O   0  0  0  0  0  0  0  0  0  0  0  0
   39.0840   26.1630   33.5360 C   0  0  0  0  0  0  0  0  0  0  0  0
   39.7320   26.8410   32.9450 H   0  0  0  0  0  0  0  0  0  0  0  0
   39.0510   25.1950   32.9600 H   0  0  0  0  0  0  0  0  0  0  0  0
   39.6260   25.8430   34.8890 C   0  0  0  0  0  0  0  0  0  0  0  0
   39.7120   26.7380   35.5350 H   0  0  0  0  0  0  0  0  0  0  0  0
   40.6590   25.4470   34.7600 H   0  0  0  0  0  0  0  0  0  0  0  0
   38.8470   24.7670   35.5760 C   0  0  0  0  0  0  0  0  0  0  0  0
   38.8480   23.5100   34.9830 C   0  0  0  0  0  0  0  0  0  0  0  0
   38.1600   22.4550   35.5430 C   0  0  0  0  0  0  0  0  0  0  0  0
   37.4810   22.6310   36.6680 N   0  0  0  0  0  0  0  0  0  0  0  0
   37.4900   23.8660   37.2380 C   0  0  0  0  0  0  0  0  0  0  0  0
   38.1490   24.9110   36.7170 N   0  0  0  0  0  0  0  0  0  0  0  0
   39.3920   23.3290   34.0610 H   0  0  0  0  0  0  0  0  0  0  0  0
   38.1580   21.4750   35.0840 H   0  0  0  0  0  0  0  0  0  0  0  0
   36.9730   24.1460   38.1640 H   0  0  0  0  0  0  0  0  0  0  0  0
  1  6  1  0  0  0  0
  2  1  2  0  0  0  0
  2  3  1  0  0  0  0
  3 11  1  0  0  0  0
  3  4  2  0  0  0  0
  4  5  1  0  0  0  0
  5 19  1  0  0  0  0
  6  5  2  0  0  0  0
  7  1  1  0  0  0  0
  8  2  1  0  0  0  0
  9 10  1  0  0  0  0
 10 17  2  0  0  0  0
 10 11  1  0  0  0  0
 11 12  2  0  0  0  0
 12 14  1  0  0  0  0
 12 13  1  0  0  0  0
 15 16  1  0  0  0  0
 15 14  2  0  0  0  0
 17 15  1  0  0  0  0
 18 17  1  0  0  0  0
 20 19  1  0  0  0  0
 20 23  1  0  0  0  0
 21 20  1  0  0  0  0
 22 20  1  0  0  0  0
 23 24  1  0  0  0  0
 23 26  1  0  0  0  0
 25 23  1  0  0  0  0
 26 31  1  0  0  0  0
 27 28  1  0  0  0  0
 27 26  2  0  0  0  0
 28 29  2  0  0  0  0
 29 30  1  0  0  0  0
 30 34  1  0  0  0  0
 31 30  2  0  0  0  0
 32 27  1  0  0  0  0
 33 28  1  0  0  0  0
M  END
>  <minimizedAffinity>
-5.20327806

$$$$

 OpenBabel03272509513D

 34 36  0  0  0  0  0  0  0  0999 V2000
   37.2340   27.5930   34.8750 C   0  0  0  0  0  0  0  0  0  0  0  0
   38.1100   26.7470   35.5570 C   0  0  0  0  0  0  0  0  0  0  0  0
   38.5950   25.6190   34.9420 C   0  0  0  0  0  0  0  0  0  0  0  0
   38.1480   25.4380   33.6720 N   0  0  0  0  0  0  0  0  0  0  0  0
   37.3180   26.2310   33.0110 C   0  0  0  0  0  0  0  0  0  0  0  0
   36.8580   27.3260   33.6300 N   0  0  0  0  0  0  0  0  0  0  0  0
   36.8820   28.4700   35.4070 H   0  0  0  0  0  0  0  0  0  0  0  0
   38.3960   26.9640   36.5520 H   0  0  0  0  0  0  0  0  0  0  0  0
   41.6840   25.5940   34.3120 Cl  0  0  0  0  0  0  0  0  0  0  0  0
   40.8340   24.4490   35.3070 C   0  0  0  0  0  0  0  0  0  0  0  0
   39.4950   24.6090   35.4690 C   0  0  0  0  0  0  0  0  0  0  0  0
   38.9440   23.6210   36.2620 C   0  0  0  0  0  0  0  0  0  0  0  0
   37.8710   23.5790   36.5100 H   0  0  0  0  0  0  0  0  0  0  0  0
   39.6650   22.5940   36.8230 C   0  0  0  0  0  3  0  0  0  0  0  0
   41.0190   22.5000   36.6130 C   0  0  0  0  0  0  0  0  0  0  0  0
   41.9180   21.1860   37.3360 Cl  0  0  0  0  0  0  0  0  0  0  0  0
   41.5970   23.4620   35.8320 C   0  0  0  0  0  0  0  0  0  0  0  0
   42.6580   23.3810   35.6720 H   0  0  0  0  0  0  0  0  0  0  0  0
   37.0400   25.7920   31.7310 O   0  0  0  0  0  0  0  0  0  0  0  0
   36.0170   24.8330   31.5500 C   0  0  0  0  0  0  0  0  0  0  0  0
   35.1590   25.2310   30.9720 H   0  0  0  0  0  0  0  0  0  0  0  0
   35.6150   24.6080   32.5780 H   0  0  0  0  0  0  0  0  0  0  0  0
   36.5630   23.5540   31.0090 C   0  0  0  0  0  0  0  0  0  0  0  0
   37.6620   23.5820   30.8800 H   0  0  0  0  0  0  0  0  0  0  0  0
   36.1300   23.3970   29.9950 H   0  0  0  0  0  0  0  0  0  0  0  0
   36.1570   22.3690   31.8260 C   0  0  0  0  0  0  0  0  0  0  0  0
   36.8180   22.1780   33.0340 C   0  0  0  0  0  0  0  0  0  0  0  0
   36.5110   21.1160   33.8570 C   0  0  0  0  0  0  0  0  0  0  0  0
   35.5700   20.2530   33.4990 N   0  0  0  0  0  0  0  0  0  0  0  0
   34.9310   20.4510   32.3140 C   0  0  0  0  0  0  0  0  0  0  0  0
   35.2080   21.4750   31.4940 N   0  0  0  0  0  0  0  0  0  0  0  0
   37.5930   22.8650   33.3600 H   0  0  0  0  0  0  0  0  0  0  0  0
   37.0230   20.9640   34.7980 H   0  0  0  0  0  0  0  0  0  0  0  0
   34.1380   19.8160   31.9020 H   0  0  0  0  0  0  0  0  0  0  0  0
  1  7  1  0  0  0  0
  1  2  1  0  0  0  0
  2  8  1  0  0  0  0
  3 11  1  0  0  0  0
  3  2  2  0  0  0  0
  4  3  1  0  0  0  0
  5  6  1  0  0  0  0
  5  4  2  0  0  0  0
  6  1  2  0  0  0  0
  9 10  1  0  0  0  0
 10 11  2  0  0  0  0
 10 17  1  0  0  0  0
 11 12  1  0  0  0  0
 12 13  1  0  0  0  0
 12 14  2  0  0  0  0
 15 14  1  0  0  0  0
 15 16  1  0  0  0  0
 17 15  2  0  0  0  0
 18 17  1  0  0  0  0
 19  5  1  0  0  0  0
 20 19  1  0  0  0  0
 20 22  1  0  0  0  0
 21 20  1  0  0  0  0
 23 20  1  0  0  0  0
 23 26  1  0  0  0  0
 24 23  1  0  0  0  0
 25 23  1  0  0  0  0
 26 27  1  0  0  0  0
 27 32  1  0  0  0  0
 27 28  2  0  0  0  0
 28 33  1  0  0  0  0
 29 28  1  0  0  0  0
 30 29  2  0  0  0  0
 31 26  2  0  0  0  0
 31 30  1  0  0  0  0
 34 30  1  0  0  0  0
M  END
>  <minimizedAffinity>
-5.13348436

$$$$

 OpenBabel03272509513D

 34 36  0  0  0  0  0  0  0  0999 V2000
   36.7550   29.4390   31.0960 C   0  0  0  0  0  0  0  0  0  0  0  0
   35.7470   30.0490   31.8440 C   0  0  0  0  0  0  0  0  0  0  0  0
   35.4290   29.5700   33.0910 C   0  0  0  0  0  0  0  0  0  0  0  0
   36.1680   28.5000   33.4840 N   0  0  0  0  0  0  0  0  0  0  0  0
   37.1280   27.9090   32.7870 C   0  0  0  0  0  0  0  0  0  0  0  0
   37.4210   28.3940   31.5730 N   0  0  0  0  0  0  0  0  0  0  0  0
   36.9650   29.8580   30.1190 H   0  0  0  0  0  0  0  0  0  0  0  0
   35.2160   30.8750   31.4510 H   0  0  0  0  0  0  0  0  0  0  0  0
   36.1370   31.1870   35.7050 Cl  0  0  0  0  0  0  0  0  0  0  0  0
   34.5410   30.7470   35.1750 C   0  0  0  0  0  0  0  0  0  0  0  0
   34.4180   30.0430   34.0190 C   0  0  0  0  0  0  0  0  0  0  0  0
   33.1020   29.7420   33.7290 C   0  0  0  0  0  0  0  0  0  0  0  0
   32.7990   29.1760   32.8330 H   0  0  0  0  0  0  0  0  0  0  0  0
   32.0360   30.1110   34.5160 C   0  0  0  0  0  3  0  0  0  0  0  0
   32.2410   30.8240   35.6720 C   0  0  0  0  0  0  0  0  0  0  0  0
   30.8730   31.2850   36.6590 Cl  0  0  0  0  0  0  0  0  0  0  0  0
   33.5330   31.1390   35.9900 C   0  0  0  0  0  0  0  0  0  0  0  0
   33.6850   31.6980   36.8970 H   0  0  0  0  0  0  0  0  0  0  0  0
   37.7050   26.8400   33.4430 O   0  0  0  0  0  0  0  0  0  0  0  0
   38.8880   27.0570   34.1840 C   0  0  0  0  0  0  0  0  0  0  0  0
   39.3550   28.0380   33.9650 H   0  0  0  0  0  0  0  0  0  0  0  0
   39.6260   26.2820   33.8300 H   0  0  0  0  0  0  0  0  0  0  0  0
   38.6690   26.8100   35.6400 C   0  0  0  0  0  0  0  0  0  0  0  0
   37.7700   27.3260   36.0280 H   0  0  0  0  0  0  0  0  0  0  0  0
   39.5380   27.2300   36.1940 H   0  0  0  0  0  0  0  0  0  0  0  0
   38.6260   25.3520   35.9720 C   0  0  0  0  0  0  0  0  0  0  0  0
   39.6410   24.5560   35.4530 C   0  0  0  0  0  0  0  0  0  0  0  0
   39.6870   23.2020   35.7050 C   0  0  0  0  0  0  0  0  0  0  0  0
   38.7510   22.6370   36.4550 N   0  0  0  0  0  0  0  0  0  0  0  0
   37.7640   23.4270   36.9560 C   0  0  0  0  0  0  0  0  0  0  0  0
   37.6930   24.7460   36.7290 N   0  0  0  0  0  0  0  0  0  0  0  0
   40.4240   24.9850   34.8350 H   0  0  0  0  0  0  0  0  0  0  0  0
   40.4760   22.5790   35.3020 H   0  0  0  0  0  0  0  0  0  0  0  0
   36.9340   23.0890   37.5880 H   0  0  0  0  0  0  0  0  0  0  0  0
  1  6  2  0  0  0  0
  1  2  1  0  0  0  0
  2  3  2  0  0  0  0
  3  4  1  0  0  0  0
  3 11  1  0  0  0  0
  5 19  1  0  0  0  0
  5  4  2  0  0  0  0
  6  5  1  0  0  0  0
  7  1  1  0  0  0  0
  8  2  1  0  0  0  0
 10  9  1  0  0  0  0
 10 17  1  0  0  0  0
 11 10  2  0  0  0  0
 12 11  1  0  0  0  0
 12 14  2  0  0  0  0
 13 12  1  0  0  0  0
 14 15  1  0  0  0  0
 15 17  2  0  0  0  0
 15 16  1  0  0  0  0
 17 18  1  0  0  0  0
 19 20  1  0  0  0  0
 20 23  1  0  0  0  0
 21 20  1  0  0  0  0
 22 20  1  0  0  0  0
 23 26  1  0  0  0  0
 23 24  1  0  0  0  0
 23 25  1  0  0  0  0
 26 31  1  0  0  0  0
 27 28  1  0  0  0  0
 27 26  2  0  0  0  0
 28 29  2  0  0  0  0
 29 30  1  0  0  0  0
 30 34  1  0  0  0  0
 31 30  2  0  0  0  0
 32 27  1  0  0  0  0
 33 28  1  0  0  0  0
M  END
>  <minimizedAffinity>
-5.13320589

$$$$

 OpenBabel03272509513D

 34 36  0  0  0  0  0  0  0  0999 V2000
   37.6260   27.6150   35.2770 C   0  0  0  0  0  0  0  0  0  0  0  0
   38.4420   26.7070   35.9530 C   0  0  0  0  0  0  0  0  0  0  0  0
   38.6100   25.4350   35.4620 C   0  0  0  0  0  0  0  0  0  0  0  0
   37.9300   25.1850   34.3130 N   0  0  0  0  0  0  0  0  0  0  0  0
   37.1520   26.0350   33.6600 C   0  0  0  0  0  0  0  0  0  0  0  0
   37.0030   27.2700   34.1560 N   0  0  0  0  0  0  0  0  0  0  0  0
   37.5290   28.6050   35.7080 H   0  0  0  0  0  0  0  0  0  0  0  0
   38.9260   26.9880   36.8500 H   0  0  0  0  0  0  0  0  0  0  0  0
   37.6990   23.7810   37.9880 Cl  0  0  0  0  0  0  0  0  0  0  0  0
   39.1560   23.5320   37.0730 C   0  0  0  0  0  0  0  0  0  0  0  0
   39.3940   24.3430   36.0090 C   0  0  0  0  0  0  0  0  0  0  0  0
   40.5930   24.0510   35.3880 C   0  0  0  0  0  0  0  0  0  0  0  0
   40.9610   24.5990   34.5060 H   0  0  0  0  0  0  0  0  0  0  0  0
   41.4480   23.0540   35.7960 C   0  0  0  0  0  3  0  0  0  0  0  0
   41.1370   22.2740   36.8820 C   0  0  0  0  0  0  0  0  0  0  0  0
   42.2380   21.0120   37.3860 Cl  0  0  0  0  0  0  0  0  0  0  0  0
   39.9570   22.5370   37.5220 C   0  0  0  0  0  0  0  0  0  0  0  0
   39.7200   21.9210   38.3720 H   0  0  0  0  0  0  0  0  0  0  0  0
   36.5880   25.4990   32.5180 O   0  0  0  0  0  0  0  0  0  0  0  0
   36.5580   26.2840   31.3430 C   0  0  0  0  0  0  0  0  0  0  0  0
   35.7590   27.0520   31.3650 H   0  0  0  0  0  0  0  0  0  0  0  0
   36.2840   25.5810   30.5060 H   0  0  0  0  0  0  0  0  0  0  0  0
   37.9080   26.8330   31.0230 C   0  0  0  0  0  0  0  0  0  0  0  0
   38.4820   26.1780   30.3390 H   0  0  0  0  0  0  0  0  0  0  0  0
   38.4900   26.8870   31.9710 H   0  0  0  0  0  0  0  0  0  0  0  0
   37.8450   28.2290   30.4890 C   0  0  0  0  0  0  0  0  0  0  0  0
   36.7770   29.0150   30.9030 C   0  0  0  0  0  0  0  0  0  0  0  0
   36.6340   30.3150   30.4670 C   0  0  0  0  0  0  0  0  0  0  0  0
   37.5260   30.8340   29.6350 N   0  0  0  0  0  0  0  0  0  0  0  0
   38.5670   30.0530   29.2380 C   0  0  0  0  0  0  0  0  0  0  0  0
   38.7320   28.7870   29.6460 N   0  0  0  0  0  0  0  0  0  0  0  0
   36.0270   28.6230   31.5840 H   0  0  0  0  0  0  0  0  0  0  0  0
   35.8040   30.9300   30.7870 H   0  0  0  0  0  0  0  0  0  0  0  0
   39.3710   30.3580   28.5560 H   0  0  0  0  0  0  0  0  0  0  0  0
  1  7  1  0  0  0  0
  1  2  1  0  0  0  0
  2  8  1  0  0  0  0
  3  2  2  0  0  0  0
  3 11  1  0  0  0  0
  4  3  1  0  0  0  0
  5  6  1  0  0  0  0
  5  4  2  0  0  0  0
  6  1  2  0  0  0  0
 10 17  1  0  0  0  0
 10  9  1  0  0  0  0
 11 10  2  0  0  0  0
 12 14  2  0  0  0  0
 12 11  1  0  0  0  0
 13 12  1  0  0  0  0
 14 15  1  0  0  0  0
 15 16  1  0  0  0  0
 15 17  2  0  0  0  0
 17 18  1  0  0  0  0
 19  5  1  0  0  0  0
 20 21  1  0  0  0  0
 20 19  1  0  0  0  0
 22 20  1  0  0  0  0
 23 20  1  0  0  0  0
 23 25  1  0  0  0  0
 24 23  1  0  0  0  0
 26 27  1  0  0  0  0
 26 23  1  0  0  0  0
 27 32  1  0  0  0  0
 28 33  1  0  0  0  0
 28 27  2  0  0  0  0
 29 28  1  0  0  0  0
 30 29  2  0  0  0  0
 30 31  1  0  0  0  0
 31 26  2  0  0  0  0
 34 30  1  0  0  0  0
M  END
>  <minimizedAffinity>
-5.1278553

$$$$

 OpenBabel03272509513D

 34 36  0  0  0  0  0  0  0  0999 V2000
   36.4340   29.4400   30.7810 C   0  0  0  0  0  0  0  0  0  0  0  0
   36.6220   28.0900   30.4820 C   0  0  0  0  0  0  0  0  0  0  0  0
   36.4950   27.1420   31.4680 C   0  0  0  0  0  0  0  0  0  0  0  0
   36.1820   27.6450   32.6900 N   0  0  0  0  0  0  0  0  0  0  0  0
   36.0010   28.9230   32.9910 C   0  0  0  0  0  0  0  0  0  0  0  0
   36.1300   29.8300   32.0140 N   0  0  0  0  0  0  0  0  0  0  0  0
   36.5470   30.1450   29.9660 H   0  0  0  0  0  0  0  0  0  0  0  0
   36.8740   27.7900   29.4990 H   0  0  0  0  0  0  0  0  0  0  0  0
   39.3230   25.7490   31.4400 Cl  0  0  0  0  0  0  0  0  0  0  0  0
   37.7850   24.9430   31.3540 C   0  0  0  0  0  0  0  0  0  0  0  0
   36.6590   25.7030   31.3760 C   0  0  0  0  0  0  0  0  0  0  0  0
   35.5120   24.9390   31.2800 C   0  0  0  0  0  0  0  0  0  0  0  0
   34.5000   25.3740   31.2800 H   0  0  0  0  0  0  0  0  0  0  0  0
   35.5080   23.5680   31.1750 C   0  0  0  0  0  3  0  0  0  0  0  0
   36.6900   22.8690   31.1610 C   0  0  0  0  0  0  0  0  0  0  0  0
   36.6630   21.1250   31.0280 Cl  0  0  0  0  0  0  0  0  0  0  0  0
   37.8450   23.5940   31.2540 C   0  0  0  0  0  0  0  0  0  0  0  0
   38.7670   23.0390   31.2430 H   0  0  0  0  0  0  0  0  0  0  0  0
   35.6930   29.1370   34.3200 O   0  0  0  0  0  0  0  0  0  0  0  0
   35.1980   30.4030   34.7070 C   0  0  0  0  0  0  0  0  0  0  0  0
   34.1450   30.3610   35.0510 H   0  0  0  0  0  0  0  0  0  0  0  0
   35.1890   31.0330   33.7730 H   0  0  0  0  0  0  0  0  0  0  0  0
   36.1180   31.0730   35.6720 C   0  0  0  0  0  0  0  0  0  0  0  0
   37.1300   31.2340   35.2530 H   0  0  0  0  0  0  0  0  0  0  0  0
   36.2430   30.4010   36.5510 H   0  0  0  0  0  0  0  0  0  0  0  0
   35.5560   32.3540   36.2020 C   0  0  0  0  0  0  0  0  0  0  0  0
   36.0590   33.5340   35.6650 C   0  0  0  0  0  0  0  0  0  0  0  0
   35.6020   34.7630   36.0880 C   0  0  0  0  0  0  0  0  0  0  0  0
   34.6650   34.8340   37.0240 N   0  0  0  0  0  0  0  0  0  0  0  0
   34.1820   33.6720   37.5400 C   0  0  0  0  0  0  0  0  0  0  0  0
   34.6070   32.4620   37.1490 N   0  0  0  0  0  0  0  0  0  0  0  0
   36.8250   33.5150   34.8970 H   0  0  0  0  0  0  0  0  0  0  0  0
   35.9900   35.6840   35.6730 H   0  0  0  0  0  0  0  0  0  0  0  0
   33.4110   33.5890   38.3150 H   0  0  0  0  0  0  0  0  0  0  0  0
  1  6  1  0  0  0  0
  2  1  2  0  0  0  0
  2  3  1  0  0  0  0
  3  4  2  0  0  0  0
  4  5  1  0  0  0  0
  5 19  1  0  0  0  0
  6  5  2  0  0  0  0
  7  1  1  0  0  0  0
  8  2  1  0  0  0  0
 10 11  1  0  0  0  0
 10  9  1  0  0  0  0
 11  3  1  0  0  0  0
 12 13  1  0  0  0  0
 12 11  2  0  0  0  0
 14 12  1  0  0  0  0
 15 14  2  0  0  0  0
 15 17  1  0  0  0  0
 16 15  1  0  0  0  0
 17 10  2  0  0  0  0
 18 17  1  0  0  0  0
 19 20  1  0  0  0  0
 20 21  1  0  0  0  0
 20 23  1  0  0  0  0
 22 20  1  0  0  0  0
 23 26  1  0  0  0  0
 23 25  1  0  0  0  0
 24 23  1  0  0  0  0
 26 31  1  0  0  0  0
 27 28  1  0  0  0  0
 27 26  2  0  0  0  0
 28 29  2  0  0  0  0
 29 30  1  0  0  0  0
 30 34  1  0  0  0  0
 31 30  2  0  0  0  0
 32 27  1  0  0  0  0
 33 28  1  0  0  0  0
M  END
>  <minimizedAffinity>
-5.11122704

$$$$
