
 OpenBabel03272505583D

 45 48  0  0  1  0  0  0  0  0999 V2000
   35.2780   30.4160   49.9810 C   0  0  2  0  0  0  0  0  0  0  0  0
   36.1760   31.2720   49.1760 C   0  0  0  0  0  0  0  0  0  0  0  0
   37.6360   30.7840   49.1930 C   0  0  2  0  0  0  0  0  0  0  0  0
   38.2060   30.6450   50.5320 C   0  0  0  0  0  0  0  0  0  0  0  0
   37.2090   30.1190   51.5660 C   0  0  0  0  0  0  0  0  0  0  0  0
   36.0240   29.4740   50.9010 C   0  0  0  0  0  0  0  0  0  0  0  0
   34.6170   31.0140   50.6790 H   0  0  0  0  0  0  0  0  0  0  0  0
   36.2510   32.2690   49.7260 H   0  0  0  0  0  0  0  0  0  0  0  0
   36.0040   31.4780   48.1490 H   0  0  0  0  0  0  0  0  0  0  0  0
   37.6880   29.8540   48.6060 H   0  0  0  0  0  0  0  0  0  0  0  0
   39.0670   29.9490   50.5220 H   0  0  0  0  0  0  0  0  0  0  0  0
   38.5840   31.5890   50.9620 H   0  0  0  0  0  0  0  0  0  0  0  0
   37.6820   29.3290   52.1890 H   0  0  0  0  0  0  0  0  0  0  0  0
   36.8250   30.9280   52.2190 H   0  0  0  0  0  0  0  0  0  0  0  0
   35.3260   29.1550   51.6990 H   0  0  0  0  0  0  0  0  0  0  0  0
   36.3160   28.5320   50.3600 H   0  0  0  0  0  0  0  0  0  0  0  0
   37.7540   30.3490   46.2800 Cl  0  0  0  0  0  0  0  0  0  0  0  0
   38.5110   31.7310   47.0570 C   0  0  0  0  0  0  0  0  0  0  0  0
   38.3650   31.8410   48.4290 C   0  0  0  0  0  0  0  0  0  0  0  0
   38.9870   32.9640   48.9470 C   0  0  0  0  0  0  0  0  0  0  0  0
   39.6760   33.8670   48.1620 C   0  0  0  0  0  0  0  0  0  0  0  0
   39.7720   33.6770   46.7870 C   0  0  0  0  0  0  0  0  0  0  0  0
   39.1610   32.5630   46.2220 C   0  0  0  0  0  0  0  0  0  0  0  0
   38.9060   33.1060   50.0170 H   0  0  0  0  0  0  0  0  0  0  0  0
   40.1190   34.7070   48.6980 H   0  0  0  0  0  0  0  0  0  0  0  0
   40.3220   34.4170   46.2290 H   0  0  0  0  0  0  0  0  0  0  0  0
   41.4650   30.8600   45.5840 Cl  0  0  0  0  0  0  0  0  0  0  0  0
   40.3370   31.5650   44.4230 C   0  0  0  0  0  0  0  0  0  0  0  0
   39.2620   32.3650   44.7800 C   0  0  0  0  0  0  0  0  0  0  0  0
   38.4250   32.8780   43.8040 C   0  0  0  0  0  0  0  0  0  0  0  0
   37.6260   33.4810   44.1630 H   0  0  0  0  0  0  0  0  0  0  0  0
   38.7210   32.5520   42.4950 C   0  0  0  0  0  0  0  0  0  0  0  0
   39.7850   31.7600   42.1300 C   0  0  0  0  0  0  0  0  0  0  0  0
   40.0870   31.3980   40.4440 Cl  0  0  0  0  0  0  0  0  0  0  0  0
   40.5990   31.2630   43.1110 C   0  0  0  0  0  0  0  0  0  0  0  0
   41.4390   30.6350   42.7950 H   0  0  0  0  0  0  0  0  0  0  0  0
   34.3600   29.6060   49.1690 C   0  0  0  0  0  0  0  0  0  0  0  0
   34.3320   29.9270   47.8090 C   0  0  0  0  0  0  0  0  0  0  0  0
   33.4870   29.1740   46.9830 C   0  0  0  0  0  0  0  0  0  0  0  0
   32.7270   28.1560   47.5490 N   0  0  0  0  0  0  0  0  0  0  0  0
   32.7880   27.8860   48.8650 C   0  0  0  0  0  0  0  0  0  0  0  0
   33.5990   28.6140   49.6370 N   0  0  0  0  0  0  0  0  0  0  0  0
   34.7750   30.6230   47.1210 H   0  0  0  0  0  0  0  0  0  0  0  0
   33.2790   29.2060   45.9380 H   0  0  0  0  0  0  0  0  0  0  0  0
   32.1990   27.0960   49.3090 H   0  0  0  0  0  0  0  0  0  0  0  0
  1  7  1  1  0  0  0
  1  6  1  0  0  0  0
  2  3  1  0  0  0  0
  2  8  1  0  0  0  0
  2  1  1  0  0  0  0
  3 10  1  6  0  0  0
  3  4  1  0  0  0  0
  4 12  1  0  0  0  0
  4  5  1  0  0  0  0
  5 13  1  0  0  0  0
  5 14  1  0  0  0  0
  6  5  1  0  0  0  0
  6 15  1  0  0  0  0
  9  2  1  0  0  0  0
 11  4  1  0  0  0  0
 16  6  1  0  0  0  0
 17 18  1  0  0  0  0
 18 19  1  0  0  0  0
 19 20  2  0  0  0  0
 19  3  1  0  0  0  0
 20 24  1  0  0  0  0
 21 25  1  0  0  0  0
 21 20  1  0  0  0  0
 22 21  2  0  0  0  0
 23 22  1  0  0  0  0
 23 18  2  0  0  0  0
 26 22  1  0  0  0  0
 28 29  1  0  0  0  0
 28 27  1  0  0  0  0
 29 23  1  0  0  0  0
 30 31  1  0  0  0  0
 30 29  2  0  0  0  0
 32 30  1  0  0  0  0
 33 32  2  0  0  0  0
 33 35  1  0  0  0  0
 34 33  1  0  0  0  0
 35 28  2  0  0  0  0
 36 35  1  0  0  0  0
 37 42  1  0  0  0  0
 37  1  1  0  0  0  0
 38 37  2  0  0  0  0
 39 40  2  0  0  0  0
 39 38  1  0  0  0  0
 40 41  1  0  0  0  0
 41 45  1  0  0  0  0
 41 42  2  0  0  0  0
 43 38  1  0  0  0  0
 44 39  1  0  0  0  0
M  END
>  <minimizedAffinity>
-7.75507641

>  <minimizedRMSD>
0.98034966

$$$$
