
 OpenBabel03262522433D

 26 28  0  0  1  0  0  0  0  0999 V2000
   38.4550   26.3350   34.7480 C   0  0  1  0  0  0  0  0  0  0  0  0
   38.2590   26.7270   36.1370 C   0  0  0  0  0  0  0  0  0  0  0  0
   37.9610   25.3140   35.7450 C   0  0  2  0  0  0  0  0  0  0  0  0
   39.4840   26.1690   34.3430 H   0  0  0  0  0  0  0  0  0  0  0  0
   39.1660   26.9700   36.7260 H   0  0  0  0  0  0  0  0  0  0  0  0
   37.3810   27.2920   36.5030 H   0  0  0  0  0  0  0  0  0  0  0  0
   36.8840   25.0380   35.5960 H   0  0  0  0  0  0  0  0  0  0  0  0
   37.8110   24.3620   38.7370 Cl  0  0  0  0  0  0  0  0  0  0  0  0
   38.9390   23.7530   37.5660 C   0  0  0  0  0  0  0  0  0  0  0  0
   38.8330   24.2870   36.3040 C   0  0  0  0  0  0  0  0  0  0  0  0
   39.7100   23.8040   35.3500 C   0  0  0  0  0  0  0  0  0  0  0  0
   39.7830   24.0960   34.3010 H   0  0  0  0  0  0  0  0  0  0  0  0
   40.6670   22.8230   35.6320 C   0  0  0  0  0  3  0  0  0  0  0  0
   40.7460   22.3060   36.9200 C   0  0  0  0  0  0  0  0  0  0  0  0
   41.8990   21.0750   37.4050 Cl  0  0  0  0  0  0  0  0  0  0  0  0
   39.8660   22.7920   37.8740 C   0  0  0  0  0  0  0  0  0  0  0  0
   39.8990   22.4160   38.8780 H   0  0  0  0  0  0  0  0  0  0  0  0
   37.4110   26.0750   32.4510 C   0  0  0  0  0  0  0  0  0  0  0  0
   37.5190   26.7940   33.6850 C   0  0  0  0  0  0  0  0  0  0  0  0
   36.7370   27.9340   33.8600 C   0  0  0  0  0  0  0  0  0  0  0  0
   35.8970   28.3220   32.8510 N   0  0  0  0  0  0  0  0  0  0  0  0
   35.8150   27.6170   31.6860 C   0  0  0  0  0  0  0  0  0  0  0  0
   36.5700   26.5050   31.4980 N   0  0  0  0  0  0  0  0  0  0  0  0
   38.0010   25.1970   32.2910 H   0  0  0  0  0  0  0  0  0  0  0  0
   36.8250   28.4600   34.7790 H   0  0  0  0  0  0  0  0  0  0  0  0
   35.1440   27.9520   30.9130 H   0  0  0  0  0  0  0  0  0  0  0  0
  1  4  1  6  0  0  0
  1  3  1  0  0  0  0
  1  2  1  0  0  0  0
  2  6  1  0  0  0  0
  2  5  1  0  0  0  0
  3  7  1  6  0  0  0
  3  2  1  0  0  0  0
  3 10  1  0  0  0  0
  9 16  1  0  0  0  0
  9  8  1  0  0  0  0
 10  9  2  0  0  0  0
 11 13  2  0  0  0  0
 11 10  1  0  0  0  0
 12 11  1  0  0  0  0
 13 14  1  0  0  0  0
 14 15  1  0  0  0  0
 14 16  2  0  0  0  0
 16 17  1  0  0  0  0
 18 19  1  0  0  0  0
 19 20  2  0  0  0  0
 19  1  1  0  0  0  0
 20 25  1  0  0  0  0
 21 20  1  0  0  0  0
 22 21  2  0  0  0  0
 23 22  1  0  0  0  0
 23 18  2  0  0  0  0
 24 18  1  0  0  0  0
 26 22  1  0  0  0  0
M  END
>  <minimizedAffinity>
-5.12707472

$$$$

 OpenBabel03262522433D

 26 28  0  0  1  0  0  0  0  0999 V2000
   37.5740   25.8030   35.5980 C   0  0  1  0  0  0  0  0  0  0  0  0
   38.1990   27.0840   35.8980 C   0  0  0  0  0  0  0  0  0  0  0  0
   37.9920   26.7080   34.4650 C   0  0  2  0  0  0  0  0  0  0  0  0
   36.4730   25.6620   35.7340 H   0  0  0  0  0  0  0  0  0  0  0  0
   37.5650   27.8560   36.3770 H   0  0  0  0  0  0  0  0  0  0  0  0
   39.2600   27.2020   36.1890 H   0  0  0  0  0  0  0  0  0  0  0  0
   38.8820   26.3240   33.9000 H   0  0  0  0  0  0  0  0  0  0  0  0
   37.2550   26.1590   31.4590 Cl  0  0  0  0  0  0  0  0  0  0  0  0
   36.5940   27.4500   32.4140 C   0  0  0  0  0  0  0  0  0  0  0  0
   37.0330   27.5110   33.7150 C   0  0  0  0  0  0  0  0  0  0  0  0
   36.5070   28.5200   34.5010 C   0  0  0  0  0  0  0  0  0  0  0  0
   36.7250   28.7340   35.5490 H   0  0  0  0  0  0  0  0  0  0  0  0
   35.5750   29.4460   34.0170 C   0  0  0  0  0  3  0  0  0  0  0  0
   35.1550   29.3540   32.6950 C   0  0  0  0  0  0  0  0  0  0  0  0
   33.9940   30.4490   31.9660 Cl  0  0  0  0  0  0  0  0  0  0  0  0
   35.6830   28.3420   31.9110 C   0  0  0  0  0  0  0  0  0  0  0  0
   35.3820   28.2410   30.8870 H   0  0  0  0  0  0  0  0  0  0  0  0
   38.6650   24.0820   37.1090 C   0  0  0  0  0  0  0  0  0  0  0  0
   38.3150   24.5270   35.7930 C   0  0  0  0  0  0  0  0  0  0  0  0
   38.6930   23.7410   34.7060 C   0  0  0  0  0  0  0  0  0  0  0  0
   39.3800   22.5800   34.9350 N   0  0  0  0  0  0  0  0  0  0  0  0
   39.6990   22.1810   36.2000 C   0  0  0  0  0  0  0  0  0  0  0  0
   39.3390   22.9340   37.2710 N   0  0  0  0  0  0  0  0  0  0  0  0
   38.3870   24.6670   37.9620 H   0  0  0  0  0  0  0  0  0  0  0  0
   38.4290   24.0800   33.7340 H   0  0  0  0  0  0  0  0  0  0  0  0
   40.2410   21.2620   36.3430 H   0  0  0  0  0  0  0  0  0  0  0  0
  1  4  1  1  0  0  0
  1 19  1  0  0  0  0
  1  2  1  0  0  0  0
  2  6  1  0  0  0  0
  2  5  1  0  0  0  0
  3  7  1  6  0  0  0
  3  1  1  0  0  0  0
  3  2  1  0  0  0  0
  8  9  1  0  0  0  0
  9 10  1  0  0  0  0
 10  3  1  0  0  0  0
 10 11  2  0  0  0  0
 11 12  1  0  0  0  0
 13 11  1  0  0  0  0
 14 13  2  0  0  0  0
 15 14  1  0  0  0  0
 16  9  2  0  0  0  0
 16 14  1  0  0  0  0
 17 16  1  0  0  0  0
 18 23  1  0  0  0  0
 18 24  1  0  0  0  0
 19 18  2  0  0  0  0
 20 21  2  0  0  0  0
 20 19  1  0  0  0  0
 21 22  1  0  0  0  0
 22 26  1  0  0  0  0
 22 23  2  0  0  0  0
 25 20  1  0  0  0  0
M  END
>  <minimizedAffinity>
-4.74642992

$$$$

 OpenBabel03262522433D

 26 28  0  0  1  0  0  0  0  0999 V2000
   38.7890   26.3390   35.2280 C   0  0  1  0  0  0  0  0  0  0  0  0
   38.1420   25.8930   36.4540 C   0  0  0  0  0  0  0  0  0  0  0  0
   38.4810   24.8730   35.4130 C   0  0  2  0  0  0  0  0  0  0  0  0
   39.8720   26.6180   35.2250 H   0  0  0  0  0  0  0  0  0  0  0  0
   38.7310   25.9620   37.3900 H   0  0  0  0  0  0  0  0  0  0  0  0
   37.0590   25.9950   36.6550 H   0  0  0  0  0  0  0  0  0  0  0  0
   37.6470   24.5130   34.7560 H   0  0  0  0  0  0  0  0  0  0  0  0
   40.7730   23.9890   33.4510 Cl  0  0  0  0  0  0  0  0  0  0  0  0
   40.5640   23.3750   35.0620 C   0  0  0  0  0  0  0  0  0  0  0  0
   39.5090   23.9010   35.7670 C   0  0  0  0  0  0  0  0  0  0  0  0
   39.3340   23.4400   37.0590 C   0  0  0  0  0  0  0  0  0  0  0  0
   38.5630   23.7320   37.7750 H   0  0  0  0  0  0  0  0  0  0  0  0
   40.1750   22.4840   37.6400 C   0  0  0  0  0  3  0  0  0  0  0  0
   41.2330   21.9730   36.8960 C   0  0  0  0  0  0  0  0  0  0  0  0
   42.3590   20.7730   37.5050 Cl  0  0  0  0  0  0  0  0  0  0  0  0
   41.4060   22.4370   35.6030 C   0  0  0  0  0  0  0  0  0  0  0  0
   42.2110   22.0650   35.0000 H   0  0  0  0  0  0  0  0  0  0  0  0
   38.5090   27.1700   32.8470 C   0  0  0  0  0  0  0  0  0  0  0  0
   38.0290   27.0960   34.1950 C   0  0  0  0  0  0  0  0  0  0  0  0
   36.8440   27.7550   34.5130 C   0  0  0  0  0  0  0  0  0  0  0  0
   36.1850   28.4450   33.5320 N   0  0  0  0  0  0  0  0  0  0  0  0
   36.6660   28.4970   32.2560 C   0  0  0  0  0  0  0  0  0  0  0  0
   37.8190   27.8620   31.9280 N   0  0  0  0  0  0  0  0  0  0  0  0
   39.4180   26.6740   32.5760 H   0  0  0  0  0  0  0  0  0  0  0  0
   36.4960   27.6940   35.5160 H   0  0  0  0  0  0  0  0  0  0  0  0
   36.1210   29.0500   31.5090 H   0  0  0  0  0  0  0  0  0  0  0  0
  1  4  1  1  0  0  0
  1  3  1  0  0  0  0
  1  2  1  0  0  0  0
  2  6  1  0  0  0  0
  2  5  1  0  0  0  0
  3  7  1  6  0  0  0
  3 10  1  0  0  0  0
  3  2  1  0  0  0  0
  8  9  1  0  0  0  0
  9 16  2  0  0  0  0
  9 10  1  0  0  0  0
 10 11  2  0  0  0  0
 11 13  1  0  0  0  0
 11 12  1  0  0  0  0
 14 15  1  0  0  0  0
 14 13  2  0  0  0  0
 16 14  1  0  0  0  0
 17 16  1  0  0  0  0
 18 19  1  0  0  0  0
 19 20  2  0  0  0  0
 19  1  1  0  0  0  0
 20 25  1  0  0  0  0
 21 20  1  0  0  0  0
 22 21  2  0  0  0  0
 23 22  1  0  0  0  0
 23 18  2  0  0  0  0
 24 18  1  0  0  0  0
 26 22  1  0  0  0  0
M  END
>  <minimizedAffinity>
-4.6330781

$$$$

 OpenBabel03262522433D

 26 28  0  0  1  0  0  0  0  0999 V2000
   38.5470   24.2050   35.6490 C   0  0  1  0  0  0  0  0  0  0  0  0
   38.0470   25.1920   36.5960 C   0  0  0  0  0  0  0  0  0  0  0  0
   38.8880   25.6620   35.4520 C   0  0  2  0  0  0  0  0  0  0  0  0
   37.8660   23.7510   34.8870 H   0  0  0  0  0  0  0  0  0  0  0  0
   36.9540   25.3740   36.6060 H   0  0  0  0  0  0  0  0  0  0  0  0
   38.4920   25.3750   37.5930 H   0  0  0  0  0  0  0  0  0  0  0  0
   39.9640   25.8960   35.6660 H   0  0  0  0  0  0  0  0  0  0  0  0
   39.5870   25.5720   32.3880 Cl  0  0  0  0  0  0  0  0  0  0  0  0
   38.3890   26.6120   33.0940 C   0  0  0  0  0  0  0  0  0  0  0  0
   38.2210   26.4890   34.4520 C   0  0  0  0  0  0  0  0  0  0  0  0
   37.2590   27.2940   35.0340 C   0  0  0  0  0  0  0  0  0  0  0  0
   36.9760   27.3440   36.0880 H   0  0  0  0  0  0  0  0  0  0  0  0
   36.4840   28.1990   34.2980 C   0  0  0  0  0  3  0  0  0  0  0  0
   36.6830   28.2960   32.9250 C   0  0  0  0  0  0  0  0  0  0  0  0
   35.7810   29.3870   31.8890 Cl  0  0  0  0  0  0  0  0  0  0  0  0
   37.6460   27.4880   32.3460 C   0  0  0  0  0  0  0  0  0  0  0  0
   37.8260   27.5380   31.2890 H   0  0  0  0  0  0  0  0  0  0  0  0
   40.5510   22.7750   35.0380 C   0  0  0  0  0  0  0  0  0  0  0  0
   39.6410   23.2690   36.0280 C   0  0  0  0  0  0  0  0  0  0  0  0
   39.8000   22.8450   37.3460 C   0  0  0  0  0  0  0  0  0  0  0  0
   40.8160   21.9770   37.6440 N   0  0  0  0  0  0  0  0  0  0  0  0
   41.6680   21.5230   36.6800 C   0  0  0  0  0  0  0  0  0  0  0  0
   41.5270   21.9250   35.3910 N   0  0  0  0  0  0  0  0  0  0  0  0
   40.4500   23.0840   34.0190 H   0  0  0  0  0  0  0  0  0  0  0  0
   39.1200   23.2170   38.0720 H   0  0  0  0  0  0  0  0  0  0  0  0
   42.4560   20.8400   36.9500 H   0  0  0  0  0  0  0  0  0  0  0  0
  1  4  1  6  0  0  0
  1 19  1  0  0  0  0
  1  2  1  0  0  0  0
  2  5  1  0  0  0  0
  2  6  1  0  0  0  0
  3  1  1  0  0  0  0
  3  7  1  1  0  0  0
  3  2  1  0  0  0  0
  8  9  1  0  0  0  0
  9 10  1  0  0  0  0
 10 11  2  0  0  0  0
 10  3  1  0  0  0  0
 11 12  1  0  0  0  0
 13 11  1  0  0  0  0
 14 13  2  0  0  0  0
 15 14  1  0  0  0  0
 16 14  1  0  0  0  0
 16  9  2  0  0  0  0
 17 16  1  0  0  0  0
 18 23  2  0  0  0  0
 18 19  1  0  0  0  0
 19 20  2  0  0  0  0
 20 21  1  0  0  0  0
 20 25  1  0  0  0  0
 22 26  1  0  0  0  0
 22 21  2  0  0  0  0
 23 22  1  0  0  0  0
 24 18  1  0  0  0  0
M  END
>  <minimizedAffinity>
-4.61138582

$$$$

 OpenBabel03262522433D

 26 28  0  0  1  0  0  0  0  0999 V2000
   38.2000   24.9460   35.0080 C   0  0  1  0  0  0  0  0  0  0  0  0
   37.4590   26.0890   35.5230 C   0  0  0  0  0  0  0  0  0  0  0  0
   38.6730   26.3420   34.6850 C   0  0  2  0  0  0  0  0  0  0  0  0
   37.8020   24.3510   34.1480 H   0  0  0  0  0  0  0  0  0  0  0  0
   36.4440   26.2600   35.1130 H   0  0  0  0  0  0  0  0  0  0  0  0
   37.5390   26.4600   36.5620 H   0  0  0  0  0  0  0  0  0  0  0  0
   39.6180   26.6210   35.2210 H   0  0  0  0  0  0  0  0  0  0  0  0
   40.6940   26.1150   32.2880 Cl  0  0  0  0  0  0  0  0  0  0  0  0
   39.1980   26.9960   32.2350 C   0  0  0  0  0  0  0  0  0  0  0  0
   38.4460   26.9600   33.3840 C   0  0  0  0  0  0  0  0  0  0  0  0
   37.2420   27.6400   33.3590 C   0  0  0  0  0  0  0  0  0  0  0  0
   36.5080   27.7300   34.1620 H   0  0  0  0  0  0  0  0  0  0  0  0
   36.7920   28.3380   32.2320 C   0  0  0  0  0  3  0  0  0  0  0  0
   37.5810   28.3530   31.0870 C   0  0  0  0  0  0  0  0  0  0  0  0
   37.1340   29.1880   29.6100 Cl  0  0  0  0  0  0  0  0  0  0  0  0
   38.7860   27.6710   31.1150 C   0  0  0  0  0  0  0  0  0  0  0  0
   39.4200   27.6620   30.2500 H   0  0  0  0  0  0  0  0  0  0  0  0
   40.3010   23.6010   35.4680 C   0  0  0  0  0  0  0  0  0  0  0  0
   39.0350   24.1070   35.9090 C   0  0  0  0  0  0  0  0  0  0  0  0
   38.6060   23.7860   37.1960 C   0  0  0  0  0  0  0  0  0  0  0  0
   39.4060   23.0050   37.9860 N   0  0  0  0  0  0  0  0  0  0  0  0
   40.6070   22.5380   37.5380 C   0  0  0  0  0  0  0  0  0  0  0  0
   41.0410   22.8400   36.2880 N   0  0  0  0  0  0  0  0  0  0  0  0
   40.6540   23.8320   34.4840 H   0  0  0  0  0  0  0  0  0  0  0  0
   37.6660   24.1660   37.5130 H   0  0  0  0  0  0  0  0  0  0  0  0
   41.2100   21.9250   38.1860 H   0  0  0  0  0  0  0  0  0  0  0  0
  1  4  1  6  0  0  0
  1  2  1  0  0  0  0
  1 19  1  0  0  0  0
  2  6  1  0  0  0  0
  3  1  1  0  0  0  0
  3  7  1  1  0  0  0
  3  2  1  0  0  0  0
  5  2  1  0  0  0  0
  9  8  1  0  0  0  0
  9 10  1  0  0  0  0
 10  3  1  0  0  0  0
 11 10  2  0  0  0  0
 11 12  1  0  0  0  0
 13 11  1  0  0  0  0
 14 16  1  0  0  0  0
 14 13  2  0  0  0  0
 15 14  1  0  0  0  0
 16  9  2  0  0  0  0
 17 16  1  0  0  0  0
 18 19  2  0  0  0  0
 18 23  1  0  0  0  0
 19 20  1  0  0  0  0
 20 25  1  0  0  0  0
 20 21  2  0  0  0  0
 22 21  1  0  0  0  0
 22 26  1  0  0  0  0
 23 22  2  0  0  0  0
 24 18  1  0  0  0  0
M  END
>  <minimizedAffinity>
-4.48108435

$$$$

 OpenBabel03262522433D

 26 28  0  0  1  0  0  0  0  0999 V2000
   39.2460   25.2170   34.6510 C   0  0  1  0  0  0  0  0  0  0  0  0
   39.3770   24.4700   33.4080 C   0  0  0  0  0  0  0  0  0  0  0  0
   38.1000   25.2050   33.6700 C   0  0  2  0  0  0  0  0  0  0  0  0
   39.7690   26.1970   34.7840 H   0  0  0  0  0  0  0  0  0  0  0  0
   40.1040   24.8510   32.6630 H   0  0  0  0  0  0  0  0  0  0  0  0
   39.2620   23.3720   33.3300 H   0  0  0  0  0  0  0  0  0  0  0  0
   37.2230   24.6010   34.0240 H   0  0  0  0  0  0  0  0  0  0  0  0
   36.6350   27.8100   34.6440 Cl  0  0  0  0  0  0  0  0  0  0  0  0
   37.1750   27.5340   33.0160 C   0  0  0  0  0  0  0  0  0  0  0  0
   37.8100   26.3360   32.7960 C   0  0  0  0  0  0  0  0  0  0  0  0
   38.2660   26.1020   31.5110 C   0  0  0  0  0  0  0  0  0  0  0  0
   38.7910   25.2210   31.1380 H   0  0  0  0  0  0  0  0  0  0  0  0
   38.0980   27.0240   30.4710 C   0  0  0  0  0  3  0  0  0  0  0  0
   37.4500   28.2260   30.7310 C   0  0  0  0  0  0  0  0  0  0  0  0
   37.1760   29.4640   29.5190 Cl  0  0  0  0  0  0  0  0  0  0  0  0
   36.9950   28.4570   32.0190 C   0  0  0  0  0  0  0  0  0  0  0  0
   36.4910   29.3730   32.2550 H   0  0  0  0  0  0  0  0  0  0  0  0
   38.0740   24.9430   36.8840 C   0  0  0  0  0  0  0  0  0  0  0  0
   39.0720   24.5130   35.9510 C   0  0  0  0  0  0  0  0  0  0  0  0
   39.8760   23.4280   36.2950 C   0  0  0  0  0  0  0  0  0  0  0  0
   39.6840   22.8180   37.5040 N   0  0  0  0  0  0  0  0  0  0  0  0
   38.7250   23.2500   38.3730 C   0  0  0  0  0  0  0  0  0  0  0  0
   37.9320   24.3050   38.0550 N   0  0  0  0  0  0  0  0  0  0  0  0
   37.4430   25.7740   36.6450 H   0  0  0  0  0  0  0  0  0  0  0  0
   40.6130   23.1170   35.5950 H   0  0  0  0  0  0  0  0  0  0  0  0
   38.6010   22.7460   39.3160 H   0  0  0  0  0  0  0  0  0  0  0  0
  1  4  1  1  0  0  0
  1 19  1  0  0  0  0
  2  3  1  0  0  0  0
  2  1  1  0  0  0  0
  3  7  1  1  0  0  0
  3  1  1  0  0  0  0
  5  2  1  0  0  0  0
  6  2  1  0  0  0  0
  9  8  1  0  0  0  0
 10  9  1  0  0  0  0
 10  3  1  0  0  0  0
 11 10  2  0  0  0  0
 12 11  1  0  0  0  0
 13 14  2  0  0  0  0
 13 11  1  0  0  0  0
 14 16  1  0  0  0  0
 15 14  1  0  0  0  0
 16 17  1  0  0  0  0
 16  9  2  0  0  0  0
 18 23  1  0  0  0  0
 19 20  1  0  0  0  0
 19 18  2  0  0  0  0
 20 21  2  0  0  0  0
 21 22  1  0  0  0  0
 22 26  1  0  0  0  0
 23 22  2  0  0  0  0
 24 18  1  0  0  0  0
 25 20  1  0  0  0  0
M  END
>  <minimizedAffinity>
-4.45984459

$$$$

 OpenBabel03262522433D

 26 28  0  0  1  0  0  0  0  0999 V2000
   36.8010   26.2390   32.5500 C   0  0  1  0  0  0  0  0  0  0  0  0
   37.3050   24.9110   32.2320 C   0  0  0  0  0  0  0  0  0  0  0  0
   38.0810   25.7580   33.1900 C   0  0  2  0  0  0  0  0  0  0  0  0
   35.9260   26.3670   33.2350 H   0  0  0  0  0  0  0  0  0  0  0  0
   36.7140   24.0460   32.5930 H   0  0  0  0  0  0  0  0  0  0  0  0
   37.8490   24.6620   31.3010 H   0  0  0  0  0  0  0  0  0  0  0  0
   38.9930   26.2780   32.7940 H   0  0  0  0  0  0  0  0  0  0  0  0
   37.9710   27.6890   35.6680 Cl  0  0  0  0  0  0  0  0  0  0  0  0
   38.1200   25.9620   35.7720 C   0  0  0  0  0  0  0  0  0  0  0  0
   38.1330   25.2940   34.5710 C   0  0  0  0  0  0  0  0  0  0  0  0
   38.2320   23.9150   34.6300 C   0  0  0  0  0  0  0  0  0  0  0  0
   38.2580   23.2110   33.7960 H   0  0  0  0  0  0  0  0  0  0  0  0
   38.3180   23.2150   35.8390 C   0  0  0  0  0  3  0  0  0  0  0  0
   38.3020   23.9250   37.0340 C   0  0  0  0  0  0  0  0  0  0  0  0
   38.4020   23.1700   38.6140 Cl  0  0  0  0  0  0  0  0  0  0  0  0
   38.2020   25.3050   36.9720 C   0  0  0  0  0  0  0  0  0  0  0  0
   38.1880   25.8850   37.8740 H   0  0  0  0  0  0  0  0  0  0  0  0
   36.0750   28.5200   31.7100 C   0  0  0  0  0  0  0  0  0  0  0  0
   36.8800   27.3450   31.5570 C   0  0  0  0  0  0  0  0  0  0  0  0
   37.7280   27.2620   30.4540 C   0  0  0  0  0  0  0  0  0  0  0  0
   37.7600   28.3000   29.5630 N   0  0  0  0  0  0  0  0  0  0  0  0
   36.9820   29.4080   29.7350 C   0  0  0  0  0  0  0  0  0  0  0  0
   36.1500   29.5060   30.8030 N   0  0  0  0  0  0  0  0  0  0  0  0
   35.4150   28.6100   32.5470 H   0  0  0  0  0  0  0  0  0  0  0  0
   38.3210   26.3860   30.3500 H   0  0  0  0  0  0  0  0  0  0  0  0
   37.0330   30.2060   29.0140 H   0  0  0  0  0  0  0  0  0  0  0  0
  1  3  1  0  0  0  0
  1  4  1  1  0  0  0
  2  1  1  0  0  0  0
  2  5  1  0  0  0  0
  2  3  1  0  0  0  0
  3  7  1  6  0  0  0
  3 10  1  0  0  0  0
  6  2  1  0  0  0  0
  8  9  1  0  0  0  0
  9 16  1  0  0  0  0
 10 11  1  0  0  0  0
 10  9  2  0  0  0  0
 11 13  2  0  0  0  0
 12 11  1  0  0  0  0
 13 14  1  0  0  0  0
 14 15  1  0  0  0  0
 16 14  2  0  0  0  0
 16 17  1  0  0  0  0
 18 24  1  0  0  0  0
 19 18  1  0  0  0  0
 19  1  1  0  0  0  0
 20 19  2  0  0  0  0
 21 22  2  0  0  0  0
 21 20  1  0  0  0  0
 22 23  1  0  0  0  0
 23 18  2  0  0  0  0
 25 20  1  0  0  0  0
 26 22  1  0  0  0  0
M  END
>  <minimizedAffinity>
-4.45856667

$$$$

 OpenBabel03262522433D

 26 28  0  0  1  0  0  0  0  0999 V2000
   38.1510   26.6910   34.3280 C   0  0  1  0  0  0  0  0  0  0  0  0
   38.4860   26.8430   32.9190 C   0  0  0  0  0  0  0  0  0  0  0  0
   37.0580   27.0040   33.3360 C   0  0  2  0  0  0  0  0  0  0  0  0
   38.3970   27.5000   35.0610 H   0  0  0  0  0  0  0  0  0  0  0  0
   39.0940   27.7240   32.6360 H   0  0  0  0  0  0  0  0  0  0  0  0
   38.6650   25.9950   32.2310 H   0  0  0  0  0  0  0  0  0  0  0  0
   36.3680   26.1390   33.1540 H   0  0  0  0  0  0  0  0  0  0  0  0
   36.8140   28.5070   30.5850 Cl  0  0  0  0  0  0  0  0  0  0  0  0
   36.3130   29.1630   32.1130 C   0  0  0  0  0  0  0  0  0  0  0  0
   36.4890   28.3410   33.2000 C   0  0  0  0  0  0  0  0  0  0  0  0
   36.0810   28.8350   34.4250 C   0  0  0  0  0  0  0  0  0  0  0  0
   36.1340   28.3410   35.3970 H   0  0  0  0  0  0  0  0  0  0  0  0
   35.5160   30.1070   34.5760 C   0  0  0  0  0  3  0  0  0  0  0  0
   35.3550   30.9120   33.4540 C   0  0  0  0  0  0  0  0  0  0  0  0
   34.6620   32.5230   33.5060 Cl  0  0  0  0  0  0  0  0  0  0  0  0
   35.7640   30.4140   32.2280 C   0  0  0  0  0  0  0  0  0  0  0  0
   35.6550   31.0080   31.3420 H   0  0  0  0  0  0  0  0  0  0  0  0
   38.4230   24.1720   34.2060 C   0  0  0  0  0  0  0  0  0  0  0  0
   38.1560   25.3510   34.9750 C   0  0  0  0  0  0  0  0  0  0  0  0
   37.8920   25.2080   36.3360 C   0  0  0  0  0  0  0  0  0  0  0  0
   37.8990   23.9540   36.8850 N   0  0  0  0  0  0  0  0  0  0  0  0
   38.1580   22.8490   36.1270 C   0  0  0  0  0  0  0  0  0  0  0  0
   38.4160   22.9700   34.8000 N   0  0  0  0  0  0  0  0  0  0  0  0
   38.6280   24.2530   33.1590 H   0  0  0  0  0  0  0  0  0  0  0  0
   37.6950   26.0880   36.8970 H   0  0  0  0  0  0  0  0  0  0  0  0
   38.1550   21.8780   36.5910 H   0  0  0  0  0  0  0  0  0  0  0  0
  1 19  1  0  0  0  0
  1  4  1  1  0  0  0
  2  3  1  0  0  0  0
  2  1  1  0  0  0  0
  3  7  1  6  0  0  0
  3  1  1  0  0  0  0
  5  2  1  0  0  0  0
  6  2  1  0  0  0  0
  8  9  1  0  0  0  0
  9 16  2  0  0  0  0
  9 10  1  0  0  0  0
 10  3  1  0  0  0  0
 10 11  2  0  0  0  0
 11 13  1  0  0  0  0
 11 12  1  0  0  0  0
 14 15  1  0  0  0  0
 14 13  2  0  0  0  0
 16 14  1  0  0  0  0
 17 16  1  0  0  0  0
 18 23  2  0  0  0  0
 18 19  1  0  0  0  0
 19 20  2  0  0  0  0
 20 21  1  0  0  0  0
 20 25  1  0  0  0  0
 22 26  1  0  0  0  0
 22 21  2  0  0  0  0
 23 22  1  0  0  0  0
 24 18  1  0  0  0  0
M  END
>  <minimizedAffinity>
-4.43409872

$$$$

 OpenBabel03262522433D

 26 28  0  0  1  0  0  0  0  0999 V2000
   36.2250   29.1790   33.4440 C   0  0  1  0  0  0  0  0  0  0  0  0
   35.7370   30.2610   32.6000 C   0  0  0  0  0  0  0  0  0  0  0  0
   34.8450   29.7420   33.6830 C   0  0  2  0  0  0  0  0  0  0  0  0
   36.9820   29.3780   34.2430 H   0  0  0  0  0  0  0  0  0  0  0  0
   36.2350   31.2450   32.7020 H   0  0  0  0  0  0  0  0  0  0  0  0
   35.3410   30.1170   31.5770 H   0  0  0  0  0  0  0  0  0  0  0  0
   34.0240   29.0390   33.3810 H   0  0  0  0  0  0  0  0  0  0  0  0
   32.4250   29.3700   35.6540 Cl  0  0  0  0  0  0  0  0  0  0  0  0
   33.5580   30.6830   35.7240 C   0  0  0  0  0  0  0  0  0  0  0  0
   34.5570   30.6580   34.7810 C   0  0  0  0  0  0  0  0  0  0  0  0
   35.4820   31.6840   34.8290 C   0  0  0  0  0  0  0  0  0  0  0  0
   36.3420   31.8400   34.1750 H   0  0  0  0  0  0  0  0  0  0  0  0
   35.4240   32.7100   35.7790 C   0  0  0  0  0  3  0  0  0  0  0  0
   34.3980   32.7040   36.7170 C   0  0  0  0  0  0  0  0  0  0  0  0
   34.2100   33.9290   37.9600 Cl  0  0  0  0  0  0  0  0  0  0  0  0
   33.4730   31.6740   36.6670 C   0  0  0  0  0  0  0  0  0  0  0  0
   32.6680   31.6380   37.3750 H   0  0  0  0  0  0  0  0  0  0  0  0
   37.0450   26.7880   33.6590 C   0  0  0  0  0  0  0  0  0  0  0  0
   36.3400   27.7910   32.9180 C   0  0  0  0  0  0  0  0  0  0  0  0
   35.7780   27.4380   31.6930 C   0  0  0  0  0  0  0  0  0  0  0  0
   35.9170   26.1510   31.2460 N   0  0  0  0  0  0  0  0  0  0  0  0
   36.5930   25.2170   31.9750 C   0  0  0  0  0  0  0  0  0  0  0  0
   37.1480   25.5440   33.1690 N   0  0  0  0  0  0  0  0  0  0  0  0
   37.4870   27.0330   34.6020 H   0  0  0  0  0  0  0  0  0  0  0  0
   35.2570   28.1890   31.1510 H   0  0  0  0  0  0  0  0  0  0  0  0
   36.6840   24.2140   31.5920 H   0  0  0  0  0  0  0  0  0  0  0  0
  1  3  1  0  0  0  0
  1  4  1  1  0  0  0
  2  5  1  0  0  0  0
  2  1  1  0  0  0  0
  2  3  1  0  0  0  0
  3  7  1  6  0  0  0
  3 10  1  0  0  0  0
  6  2  1  0  0  0  0
  8  9  1  0  0  0  0
  9 16  1  0  0  0  0
 10 11  1  0  0  0  0
 10  9  2  0  0  0  0
 11 13  2  0  0  0  0
 12 11  1  0  0  0  0
 13 14  1  0  0  0  0
 14 15  1  0  0  0  0
 16 14  2  0  0  0  0
 16 17  1  0  0  0  0
 18 24  1  0  0  0  0
 19  1  1  0  0  0  0
 19 18  2  0  0  0  0
 20 19  1  0  0  0  0
 21 20  2  0  0  0  0
 21 22  1  0  0  0  0
 22 23  2  0  0  0  0
 23 18  1  0  0  0  0
 25 20  1  0  0  0  0
 26 22  1  0  0  0  0
M  END
>  <minimizedAffinity>
-4.42858124

$$$$
