
 OpenBabel03272510233D

 32 35  0  0  0  0  0  0  0  0999 V2000
   35.6540   29.9190   46.8500 C   0  0  0  0  0  0  0  0  0  0  0  0
   36.7040   30.5640   47.4910 C   0  0  0  0  0  0  0  0  0  0  0  0
   37.5530   31.3810   46.7830 C   0  0  0  0  0  0  0  0  0  0  0  0
   37.3120   31.5280   45.4190 C   0  0  0  0  0  0  0  0  0  0  0  0
   37.9860   32.2630   44.5040 N   0  0  0  0  0  0  0  0  0  0  0  0
   37.4200   32.1200   43.3130 C   0  0  0  0  0  0  0  0  0  0  0  0
   36.3820   31.2970   43.4490 N   0  0  0  0  0  0  0  0  0  0  0  0
   36.2850   30.9120   44.7340 C   0  0  0  0  0  0  0  0  0  0  0  0
   35.4320   30.0810   45.4780 C   0  0  0  0  0  0  0  0  0  0  0  0
   34.9530   29.2600   47.3650 H   0  0  0  0  0  0  0  0  0  0  0  0
   38.3660   31.8820   47.2760 H   0  0  0  0  0  0  0  0  0  0  0  0
   38.8070   32.8330   44.7310 H   0  0  0  0  0  0  0  0  0  0  0  0
   34.6200   29.5880   44.9620 H   0  0  0  0  0  0  0  0  0  0  0  0
   40.0350   31.2410   41.8230 Cl  0  0  0  0  0  0  0  0  0  0  0  0
   38.8240   32.3590   41.2510 C   0  0  0  0  0  0  0  0  0  0  0  0
   37.7170   32.6640   42.0010 C   0  0  0  0  0  0  0  0  0  0  0  0
   36.8930   33.5640   41.3630 C   0  0  0  0  0  0  0  0  0  0  0  0
   35.9640   33.8970   41.8560 H   0  0  0  0  0  0  0  0  0  0  0  0
   37.1160   34.1150   40.1250 C   0  0  0  0  0  3  0  0  0  0  0  0
   38.2460   33.7660   39.4270 C   0  0  0  0  0  0  0  0  0  0  0  0
   38.5050   34.4770   37.8620 Cl  0  0  0  0  0  0  0  0  0  0  0  0
   39.1120   32.8680   40.0090 C   0  0  0  0  0  0  0  0  0  0  0  0
   39.9800   32.6270   39.4250 H   0  0  0  0  0  0  0  0  0  0  0  0
   37.9730   30.4640   51.0360 C   0  0  0  0  0  0  0  0  0  0  0  0
   37.9340   30.7420   49.6670 C   0  0  0  0  0  0  0  0  0  0  0  0
   36.8460   30.3270   48.9200 C   0  0  0  0  0  0  0  0  0  0  0  0
   35.8480   29.6590   49.5550 N   0  0  0  0  0  0  0  0  0  0  0  0
   35.8990   29.3960   50.8900 C   0  0  0  0  0  0  0  0  0  0  0  0
   36.9600   29.8010   51.6180 N   0  0  0  0  0  0  0  0  0  0  0  0
   38.8700   30.8360   51.5130 H   0  0  0  0  0  0  0  0  0  0  0  0
   38.7170   31.2690   49.1490 H   0  0  0  0  0  0  0  0  0  0  0  0
   35.0940   28.8620   51.3830 H   0  0  0  0  0  0  0  0  0  0  0  0
  1 10  1  0  0  0  0
  1  2  1  0  0  0  0
  2 26  1  0  0  0  0
  3 11  1  0  0  0  0
  3  2  2  0  0  0  0
  4  3  1  0  0  0  0
  5 12  1  0  0  0  0
  5  4  1  0  0  0  0
  6  7  2  0  0  0  0
  6  5  1  0  0  0  0
  7  8  1  0  0  0  0
  8  4  2  0  0  0  0
  8  9  1  0  0  0  0
  9  1  2  0  0  0  0
 13  9  1  0  0  0  0
 15 14  1  0  0  0  0
 15 16  1  0  0  0  0
 16  6  1  0  0  0  0
 17 18  1  0  0  0  0
 17 16  2  0  0  0  0
 19 17  1  0  0  0  0
 20 22  1  0  0  0  0
 20 19  2  0  0  0  0
 21 20  1  0  0  0  0
 22 15  2  0  0  0  0
 23 22  1  0  0  0  0
 24 30  1  0  0  0  0
 24 29  1  0  0  0  0
 25 24  2  0  0  0  0
 26 27  2  0  0  0  0
 26 25  1  0  0  0  0
 27 28  1  0  0  0  0
 28 32  1  0  0  0  0
 28 29  2  0  0  0  0
 31 25  1  0  0  0  0
M  END
>  <minimizedAffinity>
-5.31948757

>  <minimizedRMSD>
3.41619515

$$$$
