
 OpenBabel03272508373D

 45 48  0  0  1  0  0  0  0  0999 V2000
   39.0450   32.0630   43.7100 N   0  0  0  0  0  0  0  0  0  0  0  0
   40.2050   31.4460   43.1910 C   0  0  0  0  0  0  0  0  0  0  0  0
   40.1040   30.0100   42.8470 C   0  0  0  0  0  0  0  0  0  0  0  0
   39.3270   29.2960   43.7560 O   0  0  0  0  0  0  0  0  0  0  0  0
   38.0900   29.8280   43.8850 C   0  0  0  0  0  0  0  0  0  0  0  0
   38.1630   31.2380   44.4020 C   0  0  1  0  0  0  0  0  0  0  0  0
   40.8480   31.4730   44.1090 H   0  0  0  0  0  0  0  0  0  0  0  0
   40.8630   32.0180   42.5310 H   0  0  0  0  0  0  0  0  0  0  0  0
   41.1330   29.5540   43.1310 H   0  0  0  0  0  0  0  0  0  0  0  0
   40.1220   29.6850   41.8240 H   0  0  0  0  0  0  0  0  0  0  0  0
   37.3570   29.6210   43.1130 H   0  0  0  0  0  0  0  0  0  0  0  0
   37.6680   29.2250   44.7290 H   0  0  0  0  0  0  0  0  0  0  0  0
   37.1350   31.6270   43.9980 H   0  0  0  0  0  0  0  0  0  0  0  0
   39.9630   33.0630   46.1810 Cl  0  0  0  0  0  0  0  0  0  0  0  0
   38.6240   32.1240   46.7220 C   0  0  0  0  0  0  0  0  0  0  0  0
   37.9230   31.3340   45.8330 C   0  0  0  0  0  0  0  0  0  0  0  0
   36.8980   30.6420   46.5160 C   0  0  0  0  0  0  0  0  0  0  0  0
   36.2590   29.9710   45.9170 H   0  0  0  0  0  0  0  0  0  0  0  0
   36.5850   30.6940   47.8550 C   0  0  0  0  0  3  0  0  0  0  0  0
   37.3550   31.5180   48.6470 C   0  0  0  0  0  0  0  0  0  0  0  0
   36.9660   31.5900   50.3410 Cl  0  0  0  0  0  0  0  0  0  0  0  0
   38.3680   32.2270   48.0740 C   0  0  0  0  0  0  0  0  0  0  0  0
   38.9270   32.8500   48.7570 H   0  0  0  0  0  0  0  0  0  0  0  0
   38.5000   33.1070   42.9140 C   0  0  0  0  0  0  0  0  0  0  0  0
   39.2590   33.8810   42.6170 H   0  0  0  0  0  0  0  0  0  0  0  0
   37.8730   33.7050   43.6460 H   0  0  0  0  0  0  0  0  0  0  0  0
   37.6730   32.7780   41.7670 C   0  0  0  0  0  0  0  0  0  0  0  0
   38.0800   33.2870   40.8300 H   0  0  0  0  0  0  0  0  0  0  0  0
   37.4930   31.7730   41.4150 H   0  0  0  0  0  0  0  0  0  0  0  0
   34.5620   34.5590   41.6790 C   0  0  0  0  0  0  0  0  0  0  0  0
   34.2610   33.5640   42.5890 C   0  0  0  0  0  0  0  0  0  0  0  0
   35.4120   32.7780   42.7290 C   0  0  0  0  0  0  0  0  0  0  0  0
   36.3240   33.3150   41.9250 N   0  0  0  0  0  0  0  0  0  0  0  0
   35.8140   34.3770   41.3010 N   0  0  0  0  0  0  0  0  0  0  0  0
   33.2880   33.4270   43.1010 H   0  0  0  0  0  0  0  0  0  0  0  0
   35.3400   31.9910   43.3810 H   0  0  0  0  0  0  0  0  0  0  0  0
   32.9080   37.7150   40.4770 C   0  0  0  0  0  0  0  0  0  0  0  0
   33.9320   36.8310   40.8390 C   0  0  0  0  0  0  0  0  0  0  0  0
   33.6050   35.5620   41.2840 C   0  0  0  0  0  0  0  0  0  0  0  0
   32.2730   35.2840   41.3310 N   0  0  0  0  0  0  0  0  0  0  0  0
   31.3020   36.1470   40.9790 C   0  0  0  0  0  0  0  0  0  0  0  0
   31.6350   37.3610   40.5530 N   0  0  0  0  0  0  0  0  0  0  0  0
   33.3370   38.6710   40.1480 H   0  0  0  0  0  0  0  0  0  0  0  0
   34.9930   37.0390   40.8070 H   0  0  0  0  0  0  0  0  0  0  0  0
   30.2710   35.8300   41.0510 H   0  0  0  0  0  0  0  0  0  0  0  0
  1  6  1  0  0  0  0
  2  1  1  0  0  0  0
  2  7  1  0  0  0  0
  3  9  1  0  0  0  0
  3  2  1  0  0  0  0
  3  4  1  0  0  0  0
  4  5  1  0  0  0  0
  5  6  1  0  0  0  0
  5 12  1  0  0  0  0
  6 13  1  6  0  0  0
  6 16  1  0  0  0  0
  8  2  1  0  0  0  0
 10  3  1  0  0  0  0
 11  5  1  0  0  0  0
 14 15  1  0  0  0  0
 15 22  1  0  0  0  0
 16 17  1  0  0  0  0
 16 15  2  0  0  0  0
 17 19  2  0  0  0  0
 18 17  1  0  0  0  0
 19 20  1  0  0  0  0
 20 21  1  0  0  0  0
 22 20  2  0  0  0  0
 22 23  1  0  0  0  0
 24 26  1  0  0  0  0
 24  1  1  0  0  0  0
 25 24  1  0  0  0  0
 27 33  1  0  0  0  0
 27 24  1  0  0  0  0
 28 27  1  0  0  0  0
 29 27  1  0  0  0  0
 30 31  1  0  0  0  0
 31 32  2  0  0  0  0
 31 35  1  0  0  0  0
 32 36  1  0  0  0  0
 33 32  1  0  0  0  0
 34 30  2  0  0  0  0
 34 33  1  0  0  0  0
 37 42  2  0  0  0  0
 37 38  1  0  0  0  0
 38 39  2  0  0  0  0
 39 40  1  0  0  0  0
 39 30  1  0  0  0  0
 41 45  1  0  0  0  0
 41 40  2  0  0  0  0
 42 41  1  0  0  0  0
 43 37  1  0  0  0  0
 44 38  1  0  0  0  0
M  END
>  <minimizedAffinity>
-5.97049236

>  <minimizedRMSD>
8.13689709

$$$$
