REMARK  Name = 
REMARK  4 active torsions:
REMARK  status: ('A' for Active; 'I' for Inactive)
REMARK    1  A    between atoms: C_1  and  C_15
REMARK    2  A    between atoms: C_4  and  C_7
REMARK    3  A    between atoms: C_15  and  C_21
REMARK    4  A    between atoms: C_19  and  C_34
REMARK                            x       y       z     vdW  Elec       q    Type
REMARK                         _______ _______ _______ _____ _____    ______ ____
ROOT
ATOM      1  C   UNL     1      35.548  29.694  49.809  0.00  0.00    +0.000 A 
ATOM      2  C   UNL     1      36.544  29.523  50.752  0.00  0.00    +0.000 A 
ATOM      3  C   UNL     1      37.666  30.069  50.137  0.00  0.00    +0.000 A 
ATOM      4  C   UNL     1      37.316  30.535  48.884  0.00  0.00    +0.000 A 
ATOM      5  O   UNL     1      36.040  30.290  48.730  0.00  0.00    +0.000 OA
ATOM      6  H   UNL     1      36.452  29.077  51.714  0.00  0.00    +0.000 HD
ATOM      7  H   UNL     1      38.651  30.096  50.624  0.00  0.00    +0.000 HD
ENDROOT
BRANCH   4   9
ATOM      8  C   UNL     1      38.628  32.460  48.137  0.00  0.00    +0.000 A 
ATOM      9  C   UNL     1      38.192  31.173  47.921  0.00  0.00    +0.000 A 
ATOM     10  C   UNL     1      38.576  30.458  46.786  0.00  0.00    +0.000 A 
ATOM     11  C   UNL     1      39.412  31.038  45.848  0.00  0.00    +0.000 A 
ATOM     12  N   UNL     1      39.947  30.624  44.683  0.00  0.00    +0.000 N 
ATOM     13  N   UNL     1      40.682  31.631  44.213  0.00  0.00    +0.000 NA
ATOM     14  C   UNL     1      40.627  32.683  45.057  0.00  0.00    +0.000 A 
ATOM     15  C   UNL     1      39.811  32.325  46.123  0.00  0.00    +0.000 A 
ATOM     16  C   UNL     1      39.475  33.079  47.209  0.00  0.00    +0.000 A 
ATOM     17  H   UNL     1      38.315  33.006  49.037  0.00  0.00    +0.000 HD
ATOM     18  H   UNL     1      38.260  29.439  46.569  0.00  0.00    +0.000 HD
ATOM     19  H   UNL     1      39.796  29.689  44.258  0.00  0.00    +0.000 HD
ATOM     20  H   UNL     1      41.137  33.651  44.924  0.00  0.00    +0.000 HD
ATOM     21  H   UNL     1      39.810  34.074  47.379  0.00  0.00    +0.000 HD
ENDBRANCH   4   9
BRANCH   1  22
ATOM     22  C   UNL     1      34.167  29.279  49.984  0.00  0.00    +0.000 C 
ATOM     23  O   UNL     1      33.502  29.829  50.893  0.00  0.00    +0.000 OA
BRANCH  22  28
ATOM     24  C   UNL     1      31.688  27.163  48.352  0.00  0.00    +0.000 A 
ATOM     25  C   UNL     1      32.472  26.354  47.523  0.00  0.00    +0.000 A 
ATOM     26  C   UNL     1      33.834  26.520  47.515  0.00  0.00    +0.000 A 
ATOM     27  N   UNL     1      34.360  27.476  48.322  0.00  0.00    +0.000 NA
ATOM     28  C   UNL     1      33.596  28.253  49.119  0.00  0.00    +0.000 A 
ATOM     29  N   UNL     1      32.258  28.093  49.130  0.00  0.00    +0.000 NA
ATOM     30  H   UNL     1      30.627  27.071  48.392  0.00  0.00    +0.000 HD
ATOM     31  H   UNL     1      31.981  25.621  46.915  0.00  0.00    +0.000 HD
BRANCH  26  34
ATOM     32 CL   UNL     1      34.246  23.717  48.461  0.00  0.00    +0.000 Cl
ATOM     33  C   UNL     1      34.956  24.397  47.031  0.00  0.00    +0.000 A 
ATOM     34  C   UNL     1      34.704  25.708  46.675  0.00  0.00    +0.000 A 
ATOM     35  C   UNL     1      35.312  26.134  45.536  0.00  0.00    +0.000 A 
ATOM     36  H   UNL     1      35.157  27.145  45.203  0.00  0.00    +0.000 HD
ATOM     37  C   UNL     1      36.131  25.333  44.766  0.00  0.00    +0.000 A 
ATOM     38  C   UNL     1      36.363  24.023  45.149  0.00  0.00    +0.000 A 
ATOM     39 CL   UNL     1      37.420  23.049  44.121  0.00  0.00    +0.000 Cl
ATOM     40  C   UNL     1      35.761  23.544  46.310  0.00  0.00    +0.000 A 
ATOM     41  H   UNL     1      35.962  22.520  46.580  0.00  0.00    +0.000 HD
ENDBRANCH  26  34
ENDBRANCH  22  28
ENDBRANCH   1  22
TORSDOF 4
