
 OpenBabel03272510233D

 32 35  0  0  0  0  0  0  0  0999 V2000
   35.4940   29.9290   46.9250 C   0  0  0  0  0  0  0  0  0  0  0  0
   36.6280   30.3820   47.5890 C   0  0  0  0  0  0  0  0  0  0  0  0
   37.6360   31.0060   46.8950 C   0  0  0  0  0  0  0  0  0  0  0  0
   37.4680   31.1620   45.5210 C   0  0  0  0  0  0  0  0  0  0  0  0
   38.2960   31.7330   44.6150 N   0  0  0  0  0  0  0  0  0  0  0  0
   37.7480   31.6690   43.4080 C   0  0  0  0  0  0  0  0  0  0  0  0
   36.5700   31.0590   43.5250 N   0  0  0  0  0  0  0  0  0  0  0  0
   36.3640   30.7320   44.8130 C   0  0  0  0  0  0  0  0  0  0  0  0
   35.3470   30.0950   45.5440 C   0  0  0  0  0  0  0  0  0  0  0  0
   34.6660   29.4270   47.4290 H   0  0  0  0  0  0  0  0  0  0  0  0
   38.5140   31.3570   47.4050 H   0  0  0  0  0  0  0  0  0  0  0  0
   39.2020   32.1450   44.8590 H   0  0  0  0  0  0  0  0  0  0  0  0
   34.4730   29.7510   45.0110 H   0  0  0  0  0  0  0  0  0  0  0  0
   39.5810   29.8160   41.6670 Cl  0  0  0  0  0  0  0  0  0  0  0  0
   38.9800   31.3970   41.2430 C   0  0  0  0  0  0  0  0  0  0  0  0
   38.1800   32.1140   42.0970 C   0  0  0  0  0  0  0  0  0  0  0  0
   37.8200   33.3330   41.5670 C   0  0  0  0  0  0  0  0  0  0  0  0
   37.1760   34.0110   42.1490 H   0  0  0  0  0  0  0  0  0  0  0  0
   38.1950   33.8120   40.3360 C   0  0  0  0  0  3  0  0  0  0  0  0
   38.9990   33.0420   39.5300 C   0  0  0  0  0  0  0  0  0  0  0  0
   39.4590   33.6710   37.9760 Cl  0  0  0  0  0  0  0  0  0  0  0  0
   39.3940   31.8110   40.0020 C   0  0  0  0  0  0  0  0  0  0  0  0
   40.0220   31.2460   39.3360 H   0  0  0  0  0  0  0  0  0  0  0  0
   37.6870   30.2900   51.2030 C   0  0  0  0  0  0  0  0  0  0  0  0
   37.7350   30.5520   49.8310 C   0  0  0  0  0  0  0  0  0  0  0  0
   36.6800   30.1580   49.0270 C   0  0  0  0  0  0  0  0  0  0  0  0
   35.6280   29.5260   49.6100 N   0  0  0  0  0  0  0  0  0  0  0  0
   35.5940   29.2780   50.9470 C   0  0  0  0  0  0  0  0  0  0  0  0
   36.6230   29.6620   51.7320 N   0  0  0  0  0  0  0  0  0  0  0  0
   38.5650   30.6430   51.7270 H   0  0  0  0  0  0  0  0  0  0  0  0
   38.5610   31.0510   49.3530 H   0  0  0  0  0  0  0  0  0  0  0  0
   34.7480   28.7740   51.3990 H   0  0  0  0  0  0  0  0  0  0  0  0
  1 10  1  0  0  0  0
  1  2  1  0  0  0  0
  2 26  1  0  0  0  0
  3 11  1  0  0  0  0
  3  2  2  0  0  0  0
  4  3  1  0  0  0  0
  5 12  1  0  0  0  0
  5  4  1  0  0  0  0
  6  7  2  0  0  0  0
  6  5  1  0  0  0  0
  7  8  1  0  0  0  0
  8  4  2  0  0  0  0
  8  9  1  0  0  0  0
  9  1  2  0  0  0  0
 13  9  1  0  0  0  0
 15 14  1  0  0  0  0
 15 16  1  0  0  0  0
 16  6  1  0  0  0  0
 17 16  2  0  0  0  0
 17 18  1  0  0  0  0
 19 17  1  0  0  0  0
 20 22  1  0  0  0  0
 20 19  2  0  0  0  0
 21 20  1  0  0  0  0
 22 15  2  0  0  0  0
 23 22  1  0  0  0  0
 24 30  1  0  0  0  0
 24 29  1  0  0  0  0
 25 24  2  0  0  0  0
 26 27  2  0  0  0  0
 26 25  1  0  0  0  0
 27 28  1  0  0  0  0
 28 32  1  0  0  0  0
 28 29  2  0  0  0  0
 31 25  1  0  0  0  0
M  END
>  <minimizedAffinity>
-5.28844118

>  <minimizedRMSD>
3.28293061

$$$$
