
     RDKit          3D

 21 22  0  0  0  0  0  0  0  0999 V2000
   37.3061   30.0035   51.1704 C   0  0  0  0  0  0  0  0  0  0  0  0
   37.9610   30.9254   50.3485 C   0  0  0  0  0  0  0  0  0  0  0  0
   37.2812   31.3890   49.2359 C   0  0  0  0  0  0  0  0  0  0  0  0
   36.0159   30.9139   49.0167 N   0  0  0  0  0  0  0  0  0  0  0  0
   35.3987   30.0227   49.8223 C   0  0  0  0  0  0  0  0  0  0  0  0
   36.0645   29.5878   50.8852 N   0  0  0  0  0  0  0  0  0  0  0  0
   38.0666   29.6017   52.2530 O   0  0  0  0  0  0  0  0  0  0  0  0
   38.9624   31.2827   50.5478 H   0  0  0  0  0  0  0  0  0  0  0  0
   34.3968   29.6833   49.5978 H   0  0  0  0  0  0  0  0  0  0  0  0
   38.4446   30.3353   52.8437 H   0  0  0  0  0  0  0  0  0  0  0  0
   37.5179   30.4295   46.4031 Cl  0  0  0  0  0  0  0  0  0  0  0  0
   37.9963   32.0215   46.9820 C   0  0  0  0  0  0  0  0  0  0  0  0
   37.8381   32.3421   48.3030 C   0  0  0  0  0  0  0  0  0  0  0  0
   38.2387   33.5935   48.6414 C   0  0  0  0  0  0  0  0  0  0  0  0
   38.1600   33.9506   49.6513 H   0  0  0  0  0  0  0  0  0  0  0  0
   38.7783   34.5198   47.7426 C   0  0  0  0  0  0  0  0  0  0  0  0
   38.9065   34.1254   46.4323 C   0  0  0  0  0  0  0  0  0  0  0  0
   39.5781   35.2532   45.2683 Cl  0  0  0  0  0  0  0  0  0  0  0  0
   38.5175   32.8682   46.0278 C   0  0  0  0  0  0  0  0  0  0  0  0
   38.6423   32.6236   45.0011 H   0  0  0  0  0  0  0  0  0  0  0  0
   39.0814   35.5052   48.0680 H   0  0  0  0  0  0  0  0  0  0  0  0
  1  7  1  0
  2  1  2  0
  3  2  1  0
  4  3  2  0
  4  5  1  0
  5  6  2  0
  6  1  1  0
  2  8  1  0
  5  9  1  0
  7 10  1  0
 11 12  1  0
 12 13  2  0
 13 14  1  0
 14 15  1  0
 14 16  2  0
 16 17  1  0
 17 18  1  0
 17 19  2  0
 19 20  1  0
 19 12  1  0
 16 21  1  0
  3 13  1  0
M  ISO  5   8  14   9  14  10   3  15  16  20  15
M  END
>  <DihAtoms>  (1) 
1,2,12,11

>  <DihDeg>  (1) 
-179.99543108892078

$$$$
