
 OpenBabel03272507243D

 31 33  0  0  1  0  0  0  0  0999 V2000
   39.6910   24.3860   34.9980 C   0  0  0  0  0  0  0  0  0  0  0  0
   38.9250   25.0080   33.9910 C   0  0  0  0  0  0  0  0  0  0  0  0
   37.9230   24.2320   33.3910 C   0  0  0  0  0  0  0  0  0  0  0  0
   37.7870   22.9750   33.8310 N   0  0  0  0  0  0  0  0  0  0  0  0
   38.5190   22.3860   34.7920 C   0  0  0  0  0  0  0  0  0  0  0  0
   39.4830   23.1130   35.3770 N   0  0  0  0  0  0  0  0  0  0  0  0
   37.0990   24.7440   32.3740 N   0  0  0  0  0  0  0  0  0  0  0  0
   36.6950   26.1510   32.2700 C   0  0  0  0  0  0  0  0  0  0  0  0
   35.7450   26.2070   31.1030 C   0  0  0  0  0  0  0  0  0  0  0  0
   35.2260   24.8030   31.0760 C   0  0  0  0  0  0  0  0  0  0  0  0
   36.5300   24.0520   31.2930 C   0  0  2  0  0  0  0  0  0  0  0  0
   40.4560   24.9950   35.4490 H   0  0  0  0  0  0  0  0  0  0  0  0
   39.0840   26.0190   33.6850 H   0  0  0  0  0  0  0  0  0  0  0  0
   38.2460   21.3610   34.9960 H   0  0  0  0  0  0  0  0  0  0  0  0
   36.2740   26.5280   33.2020 H   0  0  0  0  0  0  0  0  0  0  0  0
   37.5940   26.7350   32.0050 H   0  0  0  0  0  0  0  0  0  0  0  0
   34.8760   26.8780   31.3680 H   0  0  0  0  0  0  0  0  0  0  0  0
   36.1830   26.5440   30.1600 H   0  0  0  0  0  0  0  0  0  0  0  0
   34.4880   24.6220   31.8610 H   0  0  0  0  0  0  0  0  0  0  0  0
   34.8760   24.5030   30.0610 H   0  0  0  0  0  0  0  0  0  0  0  0
   37.1150   24.1350   30.3420 H   0  0  0  0  0  0  0  0  0  0  0  0
   38.6270   22.2090   30.2570 Cl  0  0  0  0  0  0  0  0  0  0  0  0
   37.1780   21.6490   31.1090 C   0  0  0  0  0  0  0  0  0  0  0  0
   36.2840   22.6310   31.5610 C   0  0  0  0  0  0  0  0  0  0  0  0
   35.2050   22.0740   32.2030 C   0  0  0  0  0  0  0  0  0  0  0  0
   34.4450   22.7570   32.5810 H   0  0  0  0  0  0  0  0  0  0  0  0
   35.0110   20.7260   32.3890 C   0  0  0  0  0  3  0  0  0  0  0  0
   35.9360   19.8240   31.9160 C   0  0  0  0  0  0  0  0  0  0  0  0
   35.6410   18.1360   32.1780 Cl  0  0  0  0  0  0  0  0  0  0  0  0
   37.0460   20.2850   31.2610 C   0  0  0  0  0  0  0  0  0  0  0  0
   37.7850   19.6190   30.8790 H   0  0  0  0  0  0  0  0  0  0  0  0
  1  6  1  0  0  0  0
  1 12  1  0  0  0  0
  2  1  2  0  0  0  0
  3  4  2  0  0  0  0
  3  2  1  0  0  0  0
  4  5  1  0  0  0  0
  5 14  1  0  0  0  0
  5  6  2  0  0  0  0
  7  3  1  0  0  0  0
  8  7  1  0  0  0  0
  8 15  1  0  0  0  0
  9 17  1  0  0  0  0
  9  8  1  0  0  0  0
 10  9  1  0  0  0  0
 10 11  1  0  0  0  0
 10 19  1  0  0  0  0
 11 21  1  6  0  0  0
 11 24  1  0  0  0  0
 11  7  1  0  0  0  0
 13  2  1  0  0  0  0
 16  8  1  0  0  0  0
 18  9  1  0  0  0  0
 20 10  1  0  0  0  0
 22 23  1  0  0  0  0
 23 30  2  0  0  0  0
 23 24  1  0  0  0  0
 24 25  2  0  0  0  0
 25 27  1  0  0  0  0
 25 26  1  0  0  0  0
 28 29  1  0  0  0  0
 28 27  2  0  0  0  0
 30 28  1  0  0  0  0
 31 30  1  0  0  0  0
M  END
>  <minimizedAffinity>
-5.12782478

$$$$

 OpenBabel03272507243D

 31 33  0  0  1  0  0  0  0  0999 V2000
   36.7840   23.2610   31.3840 C   0  0  0  0  0  0  0  0  0  0  0  0
   36.6940   24.3660   32.2530 C   0  0  0  0  0  0  0  0  0  0  0  0
   37.6990   24.4900   33.2220 C   0  0  0  0  0  0  0  0  0  0  0  0
   38.6510   23.5490   33.2300 N   0  0  0  0  0  0  0  0  0  0  0  0
   38.7340   22.4970   32.3980 C   0  0  0  0  0  0  0  0  0  0  0  0
   37.7810   22.3610   31.4650 N   0  0  0  0  0  0  0  0  0  0  0  0
   37.7110   25.5500   34.1450 N   0  0  0  0  0  0  0  0  0  0  0  0
   37.1950   26.8950   33.8640 C   0  0  0  0  0  0  0  0  0  0  0  0
   37.5110   27.7080   35.0910 C   0  0  0  0  0  0  0  0  0  0  0  0
   38.6870   26.9640   35.6440 C   0  0  0  0  0  0  0  0  0  0  0  0
   38.1850   25.5400   35.4670 C   0  0  2  0  0  0  0  0  0  0  0  0
   36.0050   23.1790   30.6450 H   0  0  0  0  0  0  0  0  0  0  0  0
   35.9050   25.0850   32.1940 H   0  0  0  0  0  0  0  0  0  0  0  0
   39.5840   21.8540   32.5750 H   0  0  0  0  0  0  0  0  0  0  0  0
   37.6040   27.3080   32.9420 H   0  0  0  0  0  0  0  0  0  0  0  0
   36.0970   26.8180   33.7810 H   0  0  0  0  0  0  0  0  0  0  0  0
   37.8810   28.7260   34.7730 H   0  0  0  0  0  0  0  0  0  0  0  0
   36.6840   27.8310   35.7950 H   0  0  0  0  0  0  0  0  0  0  0  0
   39.6030   27.1710   35.0880 H   0  0  0  0  0  0  0  0  0  0  0  0
   38.7940   27.1050   36.7450 H   0  0  0  0  0  0  0  0  0  0  0  0
   37.3860   25.3770   36.2350 H   0  0  0  0  0  0  0  0  0  0  0  0
   37.3830   23.1730   37.0860 Cl  0  0  0  0  0  0  0  0  0  0  0  0
   39.0270   23.4170   36.4720 C   0  0  0  0  0  0  0  0  0  0  0  0
   39.2580   24.5670   35.7040 C   0  0  0  0  0  0  0  0  0  0  0  0
   40.5640   24.6430   35.2890 C   0  0  0  0  0  0  0  0  0  0  0  0
   40.8480   25.5110   34.6940 H   0  0  0  0  0  0  0  0  0  0  0  0
   41.5370   23.7160   35.5790 C   0  0  0  0  0  3  0  0  0  0  0  0
   41.2310   22.6110   36.3390 C   0  0  0  0  0  0  0  0  0  0  0  0
   42.4950   21.4730   36.6750 Cl  0  0  0  0  0  0  0  0  0  0  0  0
   39.9530   22.4480   36.8010 C   0  0  0  0  0  0  0  0  0  0  0  0
   39.6760   21.6070   37.3920 H   0  0  0  0  0  0  0  0  0  0  0  0
  1  6  2  0  0  0  0
  1  2  1  0  0  0  0
  2  3  2  0  0  0  0
  3  4  1  0  0  0  0
  3  7  1  0  0  0  0
  5 14  1  0  0  0  0
  5  4  2  0  0  0  0
  6  5  1  0  0  0  0
  7 11  1  0  0  0  0
  8  7  1  0  0  0  0
  8  9  1  0  0  0  0
  9 10  1  0  0  0  0
  9 18  1  0  0  0  0
 10 20  1  0  0  0  0
 11 10  1  0  0  0  0
 11 24  1  0  0  0  0
 11 21  1  1  0  0  0
 12  1  1  0  0  0  0
 13  2  1  0  0  0  0
 15  8  1  0  0  0  0
 16  8  1  0  0  0  0
 17  9  1  0  0  0  0
 19 10  1  0  0  0  0
 23 30  1  0  0  0  0
 23 22  1  0  0  0  0
 24 23  2  0  0  0  0
 25 27  2  0  0  0  0
 25 24  1  0  0  0  0
 26 25  1  0  0  0  0
 27 28  1  0  0  0  0
 28 29  1  0  0  0  0
 28 30  2  0  0  0  0
 30 31  1  0  0  0  0
M  END
>  <minimizedAffinity>
-5.10003614

$$$$

 OpenBabel03272507243D

 31 33  0  0  1  0  0  0  0  0999 V2000
   36.5830   22.8420   31.3780 C   0  0  0  0  0  0  0  0  0  0  0  0
   37.5970   23.3950   32.1850 C   0  0  0  0  0  0  0  0  0  0  0  0
   37.4400   24.7360   32.5650 C   0  0  0  0  0  0  0  0  0  0  0  0
   36.3410   25.3630   32.1270 N   0  0  0  0  0  0  0  0  0  0  0  0
   35.3760   24.8310   31.3580 C   0  0  0  0  0  0  0  0  0  0  0  0
   35.5100   23.5500   30.9840 N   0  0  0  0  0  0  0  0  0  0  0  0
   38.3880   25.3940   33.3660 N   0  0  0  0  0  0  0  0  0  0  0  0
   39.2030   24.7330   34.3920 C   0  0  0  0  0  0  0  0  0  0  0  0
   39.9840   25.8380   35.0530 C   0  0  0  0  0  0  0  0  0  0  0  0
   39.1010   27.0190   34.7980 C   0  0  0  0  0  0  0  0  0  0  0  0
   38.7430   26.7530   33.3450 C   0  0  2  0  0  0  0  0  0  0  0  0
   36.7190   21.8120   31.0940 H   0  0  0  0  0  0  0  0  0  0  0  0
   38.4530   22.8380   32.5020 H   0  0  0  0  0  0  0  0  0  0  0  0
   34.5730   25.5110   31.1160 H   0  0  0  0  0  0  0  0  0  0  0  0
   38.5980   24.1460   35.0830 H   0  0  0  0  0  0  0  0  0  0  0  0
   39.9200   24.0740   33.8720 H   0  0  0  0  0  0  0  0  0  0  0  0
   39.9950   25.6650   36.1680 H   0  0  0  0  0  0  0  0  0  0  0  0
   41.0120   25.9590   34.7000 H   0  0  0  0  0  0  0  0  0  0  0  0
   38.2330   27.0340   35.4600 H   0  0  0  0  0  0  0  0  0  0  0  0
   39.6710   27.9780   34.7920 H   0  0  0  0  0  0  0  0  0  0  0  0
   39.6580   26.9730   32.7380 H   0  0  0  0  0  0  0  0  0  0  0  0
   38.9890   27.6720   30.5230 Cl  0  0  0  0  0  0  0  0  0  0  0  0
   37.6670   28.1680   31.5940 C   0  0  0  0  0  0  0  0  0  0  0  0
   37.6660   27.6400   32.8920 C   0  0  0  0  0  0  0  0  0  0  0  0
   36.5970   28.0980   33.6220 C   0  0  0  0  0  0  0  0  0  0  0  0
   36.5140   27.7540   34.6530 H   0  0  0  0  0  0  0  0  0  0  0  0
   35.6380   28.9650   33.1540 C   0  0  0  0  0  3  0  0  0  0  0  0
   35.7080   29.4390   31.8640 C   0  0  0  0  0  0  0  0  0  0  0  0
   34.4730   30.5290   31.3250 Cl  0  0  0  0  0  0  0  0  0  0  0  0
   36.7410   29.0390   31.0590 C   0  0  0  0  0  0  0  0  0  0  0  0
   36.8310   29.3830   30.0550 H   0  0  0  0  0  0  0  0  0  0  0  0
  1  2  1  0  0  0  0
  2 13  1  0  0  0  0
  2  3  2  0  0  0  0
  3  7  1  0  0  0  0
  4  3  1  0  0  0  0
  5  4  2  0  0  0  0
  6  5  1  0  0  0  0
  6  1  2  0  0  0  0
  7  8  1  0  0  0  0
  8  9  1  0  0  0  0
  8 15  1  0  0  0  0
  9 17  1  0  0  0  0
 10  9  1  0  0  0  0
 10 19  1  0  0  0  0
 11 21  1  6  0  0  0
 11  7  1  0  0  0  0
 11 10  1  0  0  0  0
 12  1  1  0  0  0  0
 14  5  1  0  0  0  0
 16  8  1  0  0  0  0
 18  9  1  0  0  0  0
 20 10  1  0  0  0  0
 22 23  1  0  0  0  0
 23 24  1  0  0  0  0
 24 11  1  0  0  0  0
 24 25  2  0  0  0  0
 25 26  1  0  0  0  0
 27 25  1  0  0  0  0
 28 27  2  0  0  0  0
 29 28  1  0  0  0  0
 30 23  2  0  0  0  0
 30 28  1  0  0  0  0
 31 30  1  0  0  0  0
M  END
>  <minimizedAffinity>
-4.99280787

$$$$

 OpenBabel03272507243D

 31 33  0  0  1  0  0  0  0  0999 V2000
   36.9370   27.1700   30.7930 C   0  0  0  0  0  0  0  0  0  0  0  0
   38.2280   27.5130   31.2420 C   0  0  0  0  0  0  0  0  0  0  0  0
   38.7400   26.7710   32.3160 C   0  0  0  0  0  0  0  0  0  0  0  0
   37.9560   25.8070   32.8130 N   0  0  0  0  0  0  0  0  0  0  0  0
   36.7250   25.4830   32.3800 C   0  0  0  0  0  0  0  0  0  0  0  0
   36.2190   26.1820   31.3540 N   0  0  0  0  0  0  0  0  0  0  0  0
   40.0150   27.0250   32.8510 N   0  0  0  0  0  0  0  0  0  0  0  0
   41.1540   27.5200   32.0680 C   0  0  0  0  0  0  0  0  0  0  0  0
   42.3160   27.5390   33.0260 C   0  0  0  0  0  0  0  0  0  0  0  0
   41.9020   26.4950   34.0150 C   0  0  0  0  0  0  0  0  0  0  0  0
   40.4400   26.8760   34.1810 C   0  0  2  0  0  0  0  0  0  0  0  0
   36.5580   27.7490   29.9680 H   0  0  0  0  0  0  0  0  0  0  0  0
   38.8050   28.2970   30.8000 H   0  0  0  0  0  0  0  0  0  0  0  0
   36.2620   24.6700   32.9220 H   0  0  0  0  0  0  0  0  0  0  0  0
   41.3280   26.9240   31.1730 H   0  0  0  0  0  0  0  0  0  0  0  0
   40.9310   28.5630   31.7830 H   0  0  0  0  0  0  0  0  0  0  0  0
   43.2350   27.1510   32.4970 H   0  0  0  0  0  0  0  0  0  0  0  0
   42.5420   28.5140   33.4660 H   0  0  0  0  0  0  0  0  0  0  0  0
   42.0430   25.4840   33.6300 H   0  0  0  0  0  0  0  0  0  0  0  0
   42.3650   26.6570   35.0170 H   0  0  0  0  0  0  0  0  0  0  0  0
   40.4150   27.8260   34.7740 H   0  0  0  0  0  0  0  0  0  0  0  0
   38.1470   27.8980   35.7830 Cl  0  0  0  0  0  0  0  0  0  0  0  0
   38.6180   26.1900   35.7420 C   0  0  0  0  0  0  0  0  0  0  0  0
   39.7050   25.8480   34.9260 C   0  0  0  0  0  0  0  0  0  0  0  0
   39.9710   24.5010   34.9790 C   0  0  0  0  0  0  0  0  0  0  0  0
   40.8100   24.1360   34.3870 H   0  0  0  0  0  0  0  0  0  0  0  0
   39.2690   23.5900   35.7310 C   0  0  0  0  0  3  0  0  0  0  0  0
   38.2110   24.0050   36.5070 C   0  0  0  0  0  0  0  0  0  0  0  0
   37.3610   22.8140   37.4360 Cl  0  0  0  0  0  0  0  0  0  0  0  0
   37.8700   25.3310   36.5200 C   0  0  0  0  0  0  0  0  0  0  0  0
   37.0590   25.6920   37.1070 H   0  0  0  0  0  0  0  0  0  0  0  0
  1  2  2  0  0  0  0
  1  6  1  0  0  0  0
  2  3  1  0  0  0  0
  3  4  2  0  0  0  0
  3  7  1  0  0  0  0
  5  4  1  0  0  0  0
  5 14  1  0  0  0  0
  6  5  2  0  0  0  0
  7 11  1  0  0  0  0
  8  7  1  0  0  0  0
  8  9  1  0  0  0  0
  9 18  1  0  0  0  0
  9 10  1  0  0  0  0
 10 11  1  0  0  0  0
 10 20  1  0  0  0  0
 11 21  1  1  0  0  0
 11 24  1  0  0  0  0
 12  1  1  0  0  0  0
 13  2  1  0  0  0  0
 15  8  1  0  0  0  0
 16  8  1  0  0  0  0
 17  9  1  0  0  0  0
 19 10  1  0  0  0  0
 23 22  1  0  0  0  0
 23 30  1  0  0  0  0
 24 25  1  0  0  0  0
 24 23  2  0  0  0  0
 25 27  2  0  0  0  0
 26 25  1  0  0  0  0
 27 28  1  0  0  0  0
 28 30  2  0  0  0  0
 28 29  1  0  0  0  0
 30 31  1  0  0  0  0
M  END
>  <minimizedAffinity>
-4.89541197

$$$$

 OpenBabel03272507243D

 31 33  0  0  1  0  0  0  0  0999 V2000
   39.2890   24.9140   35.4250 C   0  0  0  0  0  0  0  0  0  0  0  0
   38.6320   25.6390   34.4100 C   0  0  0  0  0  0  0  0  0  0  0  0
   37.8220   24.9020   33.5330 C   0  0  0  0  0  0  0  0  0  0  0  0
   37.7470   23.5830   33.7440 N   0  0  0  0  0  0  0  0  0  0  0  0
   38.3740   22.8960   34.7140 C   0  0  0  0  0  0  0  0  0  0  0  0
   39.1540   23.5830   35.5620 N   0  0  0  0  0  0  0  0  0  0  0  0
   37.1220   25.5160   32.4810 N   0  0  0  0  0  0  0  0  0  0  0  0
   36.5980   26.8870   32.5280 C   0  0  0  0  0  0  0  0  0  0  0  0
   35.8420   27.0690   31.2380 C   0  0  0  0  0  0  0  0  0  0  0  0
   35.4800   25.6540   30.9050 C   0  0  0  0  0  0  0  0  0  0  0  0
   36.8030   24.9770   31.2250 C   0  0  2  0  0  0  0  0  0  0  0  0
   39.9080   25.4930   36.0900 H   0  0  0  0  0  0  0  0  0  0  0  0
   38.7350   26.6960   34.2960 H   0  0  0  0  0  0  0  0  0  0  0  0
   38.1780   21.8340   34.7070 H   0  0  0  0  0  0  0  0  0  0  0  0
   35.9990   27.0680   33.4200 H   0  0  0  0  0  0  0  0  0  0  0  0
   37.4630   27.5730   32.5150 H   0  0  0  0  0  0  0  0  0  0  0  0
   34.8800   27.6180   31.4500 H   0  0  0  0  0  0  0  0  0  0  0  0
   36.3870   27.5920   30.4480 H   0  0  0  0  0  0  0  0  0  0  0  0
   34.6500   25.2880   31.5130 H   0  0  0  0  0  0  0  0  0  0  0  0
   35.3280   25.5050   29.8100 H   0  0  0  0  0  0  0  0  0  0  0  0
   37.5200   25.2630   30.4130 H   0  0  0  0  0  0  0  0  0  0  0  0
   39.2000   23.4990   30.2580 Cl  0  0  0  0  0  0  0  0  0  0  0  0
   37.7070   22.6960   30.7710 C   0  0  0  0  0  0  0  0  0  0  0  0
   36.6640   23.5160   31.2240 C   0  0  0  0  0  0  0  0  0  0  0  0
   35.5650   22.7800   31.5910 C   0  0  0  0  0  0  0  0  0  0  0  0
   34.6930   23.3300   31.9460 H   0  0  0  0  0  0  0  0  0  0  0  0
   35.4810   21.4090   31.5300 C   0  0  0  0  0  3  0  0  0  0  0  0
   36.5490   20.6720   31.0730 C   0  0  0  0  0  0  0  0  0  0  0  0
   36.3890   18.9470   31.0170 Cl  0  0  0  0  0  0  0  0  0  0  0  0
   37.6910   21.3190   30.6830 C   0  0  0  0  0  0  0  0  0  0  0  0
   38.5390   20.7850   30.3240 H   0  0  0  0  0  0  0  0  0  0  0  0
  1  6  1  0  0  0  0
  1 12  1  0  0  0  0
  2  1  2  0  0  0  0
  3  4  2  0  0  0  0
  3  2  1  0  0  0  0
  4  5  1  0  0  0  0
  5  6  2  0  0  0  0
  7  8  1  0  0  0  0
  7  3  1  0  0  0  0
  8 15  1  0  0  0  0
  9 17  1  0  0  0  0
  9  8  1  0  0  0  0
 10 11  1  0  0  0  0
 10  9  1  0  0  0  0
 10 19  1  0  0  0  0
 11 21  1  6  0  0  0
 11  7  1  0  0  0  0
 13  2  1  0  0  0  0
 14  5  1  0  0  0  0
 16  8  1  0  0  0  0
 18  9  1  0  0  0  0
 20 10  1  0  0  0  0
 22 23  1  0  0  0  0
 23 24  1  0  0  0  0
 24 11  1  0  0  0  0
 24 25  2  0  0  0  0
 25 26  1  0  0  0  0
 27 25  1  0  0  0  0
 28 27  2  0  0  0  0
 29 28  1  0  0  0  0
 30 23  2  0  0  0  0
 30 28  1  0  0  0  0
 31 30  1  0  0  0  0
M  END
>  <minimizedAffinity>
-4.85144091

$$$$

 OpenBabel03272507243D

 31 33  0  0  1  0  0  0  0  0999 V2000
   37.3860   22.2600   32.3950 C   0  0  0  0  0  0  0  0  0  0  0  0
   37.7650   23.1050   33.4580 C   0  0  0  0  0  0  0  0  0  0  0  0
   37.7100   24.4850   33.2170 C   0  0  0  0  0  0  0  0  0  0  0  0
   37.3020   24.8710   32.0020 N   0  0  0  0  0  0  0  0  0  0  0  0
   36.9410   24.0620   30.9910 C   0  0  0  0  0  0  0  0  0  0  0  0
   36.9880   22.7390   31.2030 N   0  0  0  0  0  0  0  0  0  0  0  0
   38.0660   25.4230   34.2010 N   0  0  0  0  0  0  0  0  0  0  0  0
   37.8870   25.2150   35.6420 C   0  0  0  0  0  0  0  0  0  0  0  0
   38.3070   26.5100   36.2870 C   0  0  0  0  0  0  0  0  0  0  0  0
   38.0690   27.4840   35.1750 C   0  0  0  0  0  0  0  0  0  0  0  0
   38.6500   26.6870   34.0180 C   0  0  2  0  0  0  0  0  0  0  0  0
   37.4340   21.2040   32.5950 H   0  0  0  0  0  0  0  0  0  0  0  0
   38.0820   22.7320   34.4080 H   0  0  0  0  0  0  0  0  0  0  0  0
   36.6430   24.5790   30.0900 H   0  0  0  0  0  0  0  0  0  0  0  0
   36.8720   24.9060   35.8910 H   0  0  0  0  0  0  0  0  0  0  0  0
   38.6010   24.4330   35.9550 H   0  0  0  0  0  0  0  0  0  0  0  0
   37.5790   26.7630   37.1120 H   0  0  0  0  0  0  0  0  0  0  0  0
   39.3230   26.5230   36.6890 H   0  0  0  0  0  0  0  0  0  0  0  0
   37.0100   27.7160   35.0500 H   0  0  0  0  0  0  0  0  0  0  0  0
   38.7150   28.3900   35.2640 H   0  0  0  0  0  0  0  0  0  0  0  0
   39.7630   26.6960   34.1420 H   0  0  0  0  0  0  0  0  0  0  0  0
   40.7920   26.4810   31.9600 Cl  0  0  0  0  0  0  0  0  0  0  0  0
   39.2520   27.3100   31.6780 C   0  0  0  0  0  0  0  0  0  0  0  0
   38.3250   27.3100   32.7300 C   0  0  0  0  0  0  0  0  0  0  0  0
   37.1760   27.9810   32.3900 C   0  0  0  0  0  0  0  0  0  0  0  0
   36.3960   28.0480   33.1490 H   0  0  0  0  0  0  0  0  0  0  0  0
   36.9450   28.5810   31.1750 C   0  0  0  0  0  3  0  0  0  0  0  0
   37.9060   28.5360   30.1910 C   0  0  0  0  0  0  0  0  0  0  0  0
   37.5630   29.3090   28.6780 Cl  0  0  0  0  0  0  0  0  0  0  0  0
   39.0870   27.8890   30.4370 C   0  0  0  0  0  0  0  0  0  0  0  0
   39.8550   27.8330   29.7020 H   0  0  0  0  0  0  0  0  0  0  0  0
  1 12  1  0  0  0  0
  1  2  1  0  0  0  0
  2 13  1  0  0  0  0
  3  2  2  0  0  0  0
  3  7  1  0  0  0  0
  4  3  1  0  0  0  0
  5  6  1  0  0  0  0
  5  4  2  0  0  0  0
  6  1  2  0  0  0  0
  7  8  1  0  0  0  0
  8 15  1  0  0  0  0
  8 16  1  0  0  0  0
  8  9  1  0  0  0  0
  9 18  1  0  0  0  0
  9 17  1  0  0  0  0
 10 20  1  0  0  0  0
 10  9  1  0  0  0  0
 11 21  1  1  0  0  0
 11  7  1  0  0  0  0
 11 10  1  0  0  0  0
 14  5  1  0  0  0  0
 19 10  1  0  0  0  0
 23 22  1  0  0  0  0
 23 24  1  0  0  0  0
 24 11  1  0  0  0  0
 25 24  2  0  0  0  0
 25 26  1  0  0  0  0
 27 25  1  0  0  0  0
 28 30  1  0  0  0  0
 28 27  2  0  0  0  0
 29 28  1  0  0  0  0
 30 23  2  0  0  0  0
 31 30  1  0  0  0  0
M  END
>  <minimizedAffinity>
-4.78039598

$$$$

 OpenBabel03272507243D

 31 33  0  0  1  0  0  0  0  0999 V2000
   37.4630   21.0770   32.1420 C   0  0  0  0  0  0  0  0  0  0  0  0
   37.8650   21.5170   33.4200 C   0  0  0  0  0  0  0  0  0  0  0  0
   37.7740   22.8940   33.6700 C   0  0  0  0  0  0  0  0  0  0  0  0
   37.3120   23.6600   32.6750 N   0  0  0  0  0  0  0  0  0  0  0  0
   36.9290   23.2360   31.4580 C   0  0  0  0  0  0  0  0  0  0  0  0
   37.0100   21.9230   31.2000 N   0  0  0  0  0  0  0  0  0  0  0  0
   38.1490   23.4480   34.9060 N   0  0  0  0  0  0  0  0  0  0  0  0
   38.0290   22.7520   36.1920 C   0  0  0  0  0  0  0  0  0  0  0  0
   38.4470   23.7600   37.2310 C   0  0  0  0  0  0  0  0  0  0  0  0
   38.1490   25.0480   36.5300 C   0  0  0  0  0  0  0  0  0  0  0  0
   38.7000   24.7160   35.1530 C   0  0  2  0  0  0  0  0  0  0  0  0
   37.5400   20.0180   31.9650 H   0  0  0  0  0  0  0  0  0  0  0  0
   38.2260   20.8510   34.1730 H   0  0  0  0  0  0  0  0  0  0  0  0
   36.5870   24.0210   30.7990 H   0  0  0  0  0  0  0  0  0  0  0  0
   37.0310   22.3450   36.3490 H   0  0  0  0  0  0  0  0  0  0  0  0
   38.7690   21.9330   36.1960 H   0  0  0  0  0  0  0  0  0  0  0  0
   37.7470   23.6900   38.1130 H   0  0  0  0  0  0  0  0  0  0  0  0
   39.4780   23.6660   37.5830 H   0  0  0  0  0  0  0  0  0  0  0  0
   37.0810   25.2750   36.5230 H   0  0  0  0  0  0  0  0  0  0  0  0
   38.7790   25.8880   36.9060 H   0  0  0  0  0  0  0  0  0  0  0  0
   39.8170   24.7160   35.2400 H   0  0  0  0  0  0  0  0  0  0  0  0
   40.7230   25.2210   33.0270 Cl  0  0  0  0  0  0  0  0  0  0  0  0
   39.1810   26.0880   33.1250 C   0  0  0  0  0  0  0  0  0  0  0  0
   38.3140   25.7320   34.1680 C   0  0  0  0  0  0  0  0  0  0  0  0
   37.1580   26.4730   34.1370 C   0  0  0  0  0  0  0  0  0  0  0  0
   36.4220   26.2780   34.9180 H   0  0  0  0  0  0  0  0  0  0  0  0
   36.8700   27.4440   33.2080 C   0  0  0  0  0  3  0  0  0  0  0  0
   37.7740   27.7350   32.2130 C   0  0  0  0  0  0  0  0  0  0  0  0
   37.3600   28.9690   31.0680 Cl  0  0  0  0  0  0  0  0  0  0  0  0
   38.9580   27.0490   32.1610 C   0  0  0  0  0  0  0  0  0  0  0  0
   39.6830   27.2460   31.4070 H   0  0  0  0  0  0  0  0  0  0  0  0
  1  2  1  0  0  0  0
  2  3  2  0  0  0  0
  2 13  1  0  0  0  0
  3  7  1  0  0  0  0
  4  3  1  0  0  0  0
  5  4  2  0  0  0  0
  6  5  1  0  0  0  0
  6  1  2  0  0  0  0
  7 11  1  0  0  0  0
  7  8  1  0  0  0  0
  8 16  1  0  0  0  0
  8 15  1  0  0  0  0
  8  9  1  0  0  0  0
  9 18  1  0  0  0  0
  9 17  1  0  0  0  0
 10 20  1  0  0  0  0
 10  9  1  0  0  0  0
 11 21  1  1  0  0  0
 11 10  1  0  0  0  0
 12  1  1  0  0  0  0
 14  5  1  0  0  0  0
 19 10  1  0  0  0  0
 22 23  1  0  0  0  0
 23 24  1  0  0  0  0
 24 11  1  0  0  0  0
 25 24  2  0  0  0  0
 25 26  1  0  0  0  0
 27 25  1  0  0  0  0
 28 27  2  0  0  0  0
 29 28  1  0  0  0  0
 30 28  1  0  0  0  0
 30 23  2  0  0  0  0
 31 30  1  0  0  0  0
M  END
>  <minimizedAffinity>
-4.70287991

$$$$

 OpenBabel03272507243D

 31 33  0  0  1  0  0  0  0  0999 V2000
   37.4640   25.9780   33.2750 C   0  0  0  0  0  0  0  0  0  0  0  0
   37.2510   26.9270   32.2540 C   0  0  0  0  0  0  0  0  0  0  0  0
   36.7610   28.1800   32.6510 C   0  0  0  0  0  0  0  0  0  0  0  0
   36.5440   28.3580   33.9590 N   0  0  0  0  0  0  0  0  0  0  0  0
   36.7500   27.4500   34.9290 C   0  0  0  0  0  0  0  0  0  0  0  0
   37.2170   26.2460   34.5690 N   0  0  0  0  0  0  0  0  0  0  0  0
   36.5080   29.2040   31.7220 N   0  0  0  0  0  0  0  0  0  0  0  0
   37.2610   29.3930   30.4770 C   0  0  0  0  0  0  0  0  0  0  0  0
   36.7120   30.6560   29.8670 C   0  0  0  0  0  0  0  0  0  0  0  0
   36.1930   31.3680   31.0770 C   0  0  0  0  0  0  0  0  0  0  0  0
   35.5210   30.2010   31.7820 C   0  0  2  0  0  0  0  0  0  0  0  0
   37.8390   25.0210   32.9550 H   0  0  0  0  0  0  0  0  0  0  0  0
   37.4450   26.7220   31.2240 H   0  0  0  0  0  0  0  0  0  0  0  0
   36.5100   27.7980   35.9240 H   0  0  0  0  0  0  0  0  0  0  0  0
   38.3380   29.4160   30.6470 H   0  0  0  0  0  0  0  0  0  0  0  0
   37.0090   28.5530   29.8050 H   0  0  0  0  0  0  0  0  0  0  0  0
   37.5680   31.2700   29.4600 H   0  0  0  0  0  0  0  0  0  0  0  0
   35.9700   30.5080   29.0780 H   0  0  0  0  0  0  0  0  0  0  0  0
   36.9950   31.8220   31.6630 H   0  0  0  0  0  0  0  0  0  0  0  0
   35.3700   32.0770   30.8280 H   0  0  0  0  0  0  0  0  0  0  0  0
   34.5940   29.9590   31.2020 H   0  0  0  0  0  0  0  0  0  0  0  0
   32.9470   29.0130   32.6940 Cl  0  0  0  0  0  0  0  0  0  0  0  0
   33.9260   30.0950   33.6990 C   0  0  0  0  0  0  0  0  0  0  0  0
   35.1280   30.5640   33.1490 C   0  0  0  0  0  0  0  0  0  0  0  0
   35.7940   31.3900   34.0210 C   0  0  0  0  0  0  0  0  0  0  0  0
   36.7360   31.8180   33.6790 H   0  0  0  0  0  0  0  0  0  0  0  0
   35.3530   31.7260   35.2780 C   0  0  0  0  0  3  0  0  0  0  0  0
   34.1610   31.2230   35.7480 C   0  0  0  0  0  0  0  0  0  0  0  0
   33.6520   31.6790   37.3410 Cl  0  0  0  0  0  0  0  0  0  0  0  0
   33.4240   30.3900   34.9490 C   0  0  0  0  0  0  0  0  0  0  0  0
   32.4970   29.9810   35.2760 H   0  0  0  0  0  0  0  0  0  0  0  0
  1  6  1  0  0  0  0
  2  3  1  0  0  0  0
  2  1  2  0  0  0  0
  3  4  2  0  0  0  0
  4  5  1  0  0  0  0
  5 14  1  0  0  0  0
  6  5  2  0  0  0  0
  7 11  1  0  0  0  0
  7  3  1  0  0  0  0
  8 15  1  0  0  0  0
  8  7  1  0  0  0  0
  9  8  1  0  0  0  0
  9 10  1  0  0  0  0
 10 19  1  0  0  0  0
 10 11  1  0  0  0  0
 11 21  1  6  0  0  0
 11 24  1  0  0  0  0
 12  1  1  0  0  0  0
 13  2  1  0  0  0  0
 16  8  1  0  0  0  0
 17  9  1  0  0  0  0
 18  9  1  0  0  0  0
 20 10  1  0  0  0  0
 22 23  1  0  0  0  0
 23 30  1  0  0  0  0
 24 23  2  0  0  0  0
 24 25  1  0  0  0  0
 25 27  2  0  0  0  0
 26 25  1  0  0  0  0
 27 28  1  0  0  0  0
 28 29  1  0  0  0  0
 30 31  1  0  0  0  0
 30 28  2  0  0  0  0
M  END
>  <minimizedAffinity>
-4.67137003

$$$$

 OpenBabel03272507243D

 31 33  0  0  1  0  0  0  0  0999 V2000
   36.6830   27.9830   33.3470 C   0  0  0  0  0  0  0  0  0  0  0  0
   36.5620   26.8350   32.5380 C   0  0  0  0  0  0  0  0  0  0  0  0
   36.9810   25.6200   33.0990 C   0  0  0  0  0  0  0  0  0  0  0  0
   37.4540   25.6640   34.3500 N   0  0  0  0  0  0  0  0  0  0  0  0
   37.5680   26.7600   35.1190 C   0  0  0  0  0  0  0  0  0  0  0  0
   37.1730   27.9320   34.5990 N   0  0  0  0  0  0  0  0  0  0  0  0
   36.9100   24.4120   32.3850 N   0  0  0  0  0  0  0  0  0  0  0  0
   35.8880   24.1080   31.3770 C   0  0  0  0  0  0  0  0  0  0  0  0
   36.1460   22.6830   30.9650 C   0  0  0  0  0  0  0  0  0  0  0  0
   36.8310   22.1420   32.1820 C   0  0  0  0  0  0  0  0  0  0  0  0
   37.7670   23.3030   32.4760 C   0  0  2  0  0  0  0  0  0  0  0  0
   36.3580   28.9080   32.9020 H   0  0  0  0  0  0  0  0  0  0  0  0
   36.1740   26.8680   31.5430 H   0  0  0  0  0  0  0  0  0  0  0  0
   37.9770   26.5760   36.1020 H   0  0  0  0  0  0  0  0  0  0  0  0
   34.8790   24.2850   31.7470 H   0  0  0  0  0  0  0  0  0  0  0  0
   36.0820   24.7550   30.5030 H   0  0  0  0  0  0  0  0  0  0  0  0
   35.1590   22.1430   30.8710 H   0  0  0  0  0  0  0  0  0  0  0  0
   36.7110   22.5600   30.0380 H   0  0  0  0  0  0  0  0  0  0  0  0
   36.1290   21.9390   32.9930 H   0  0  0  0  0  0  0  0  0  0  0  0
   37.4950   21.2790   31.9430 H   0  0  0  0  0  0  0  0  0  0  0  0
   38.5680   23.2830   31.6930 H   0  0  0  0  0  0  0  0  0  0  0  0
   40.5460   24.3600   32.6430 Cl  0  0  0  0  0  0  0  0  0  0  0  0
   39.7200   23.5830   34.0040 C   0  0  0  0  0  0  0  0  0  0  0  0
   38.4040   23.1510   33.7890 C   0  0  0  0  0  0  0  0  0  0  0  0
   37.8740   22.5670   34.9140 C   0  0  0  0  0  0  0  0  0  0  0  0
   36.8550   22.1860   34.8440 H   0  0  0  0  0  0  0  0  0  0  0  0
   38.5370   22.4170   36.1080 C   0  0  0  0  0  3  0  0  0  0  0  0
   39.8300   22.8680   36.2410 C   0  0  0  0  0  0  0  0  0  0  0  0
   40.6190   22.6540   37.7690 Cl  0  0  0  0  0  0  0  0  0  0  0  0
   40.4440   23.4650   35.1720 C   0  0  0  0  0  0  0  0  0  0  0  0
   41.4430   23.8270   35.2340 H   0  0  0  0  0  0  0  0  0  0  0  0
  1  6  1  0  0  0  0
  2  3  1  0  0  0  0
  2  1  2  0  0  0  0
  3  4  2  0  0  0  0
  4  5  1  0  0  0  0
  5 14  1  0  0  0  0
  6  5  2  0  0  0  0
  7 11  1  0  0  0  0
  7  3  1  0  0  0  0
  8 15  1  0  0  0  0
  8  7  1  0  0  0  0
  9  8  1  0  0  0  0
  9 10  1  0  0  0  0
 10 11  1  0  0  0  0
 10 19  1  0  0  0  0
 11 21  1  6  0  0  0
 11 24  1  0  0  0  0
 12  1  1  0  0  0  0
 13  2  1  0  0  0  0
 16  8  1  0  0  0  0
 17  9  1  0  0  0  0
 18  9  1  0  0  0  0
 20 10  1  0  0  0  0
 22 23  1  0  0  0  0
 23 30  1  0  0  0  0
 24 23  2  0  0  0  0
 24 25  1  0  0  0  0
 25 27  2  0  0  0  0
 26 25  1  0  0  0  0
 27 28  1  0  0  0  0
 28 29  1  0  0  0  0
 30 31  1  0  0  0  0
 30 28  2  0  0  0  0
M  END
>  <minimizedAffinity>
-4.6470685

$$$$
