
 OpenBabel03262522423D

 26 28  0  0  1  0  0  0  0  0999 V2000
   37.1200   31.7690   46.0200 C   0  0  1  0  0  0  0  0  0  0  0  0
   36.3220   30.5640   45.8450 C   0  0  0  0  0  0  0  0  0  0  0  0
   37.5480   30.4910   46.6990 C   0  0  2  0  0  0  0  0  0  0  0  0
   36.7700   32.5900   46.6940 H   0  0  0  0  0  0  0  0  0  0  0  0
   35.3130   30.5540   46.3030 H   0  0  0  0  0  0  0  0  0  0  0  0
   36.3580   29.9240   44.9420 H   0  0  0  0  0  0  0  0  0  0  0  0
   38.4660   30.0360   46.2420 H   0  0  0  0  0  0  0  0  0  0  0  0
   35.1080   28.8670   47.8350 Cl  0  0  0  0  0  0  0  0  0  0  0  0
   36.3410   29.6020   48.8110 C   0  0  0  0  0  0  0  0  0  0  0  0
   37.3340   30.2560   48.1230 C   0  0  0  0  0  0  0  0  0  0  0  0
   38.3380   30.8330   48.8790 C   0  0  0  0  0  0  0  0  0  0  0  0
   39.2070   31.3900   48.5230 H   0  0  0  0  0  0  0  0  0  0  0  0
   38.3610   30.7710   50.2770 C   0  0  0  0  0  0  0  0  0  0  0  0
   37.3380   30.1020   50.9400 C   0  0  0  0  0  0  0  0  0  0  0  0
   37.2490   29.9500   52.6860 Cl  0  0  0  0  0  0  0  0  0  0  0  0
   36.3350   29.5230   50.1800 C   0  0  0  0  0  0  0  0  0  0  0  0
   35.5310   29.0000   50.6580 H   0  0  0  0  0  0  0  0  0  0  0  0
   37.4770   32.2930   43.5640 C   0  0  0  0  0  0  0  0  0  0  0  0
   37.9620   32.2970   44.9120 C   0  0  0  0  0  0  0  0  0  0  0  0
   39.2400   32.7970   45.1550 C   0  0  0  0  0  0  0  0  0  0  0  0
   39.9800   33.2630   44.1020 N   0  0  0  0  0  0  0  0  0  0  0  0
   39.4910   33.2470   42.8290 C   0  0  0  0  0  0  0  0  0  0  0  0
   38.2490   32.7640   42.5740 N   0  0  0  0  0  0  0  0  0  0  0  0
   36.5000   31.9140   43.3490 H   0  0  0  0  0  0  0  0  0  0  0  0
   39.5900   32.7950   46.1580 H   0  0  0  0  0  0  0  0  0  0  0  0
   40.1010   33.6220   42.0240 H   0  0  0  0  0  0  0  0  0  0  0  0
  1  4  1  1  0  0  0
  1  3  1  0  0  0  0
  2  1  1  0  0  0  0
  2  5  1  0  0  0  0
  2  3  1  0  0  0  0
  3  7  1  6  0  0  0
  3 10  1  0  0  0  0
  6  2  1  0  0  0  0
  8  9  1  0  0  0  0
  9 16  1  0  0  0  0
 10  9  2  0  0  0  0
 10 11  1  0  0  0  0
 11 13  2  0  0  0  0
 12 11  1  0  0  0  0
 13 14  1  0  0  0  0
 14 15  1  0  0  0  0
 16 17  1  0  0  0  0
 16 14  2  0  0  0  0
 18 19  1  0  0  0  0
 19 20  2  0  0  0  0
 19  1  1  0  0  0  0
 20 25  1  0  0  0  0
 21 20  1  0  0  0  0
 22 21  2  0  0  0  0
 23 22  1  0  0  0  0
 23 18  2  0  0  0  0
 24 18  1  0  0  0  0
 26 22  1  0  0  0  0
M  END
>  <minimizedAffinity>
-4.64916849

>  <minimizedRMSD>
4.88620472

$$$$
