
     RDKit          3D

 46 49  0  0  0  0  0  0  0  0999 V2000
   37.6858   31.4885   46.1684 C   0  0  0  0  0  0  0  0  0  0  0  0
   38.5281   32.1086   45.2682 C   0  0  0  0  0  0  0  0  0  0  0  0
   39.5695   32.9344   45.5964 C   0  0  0  0  0  0  0  0  0  0  0  0
   39.8233   33.1844   46.9474 C   0  0  0  0  0  0  0  0  0  0  0  0
   38.9797   32.5600   47.8593 C   0  0  0  0  0  0  0  0  0  0  0  0
   37.9200   31.7232   47.5237 C   0  0  0  0  0  0  0  0  0  0  0  0
   37.0189   29.9677   44.3849 C   0  0  0  0  0  0  0  0  0  0  0  0
   36.6855   30.6461   45.6138 C   0  0  0  0  0  0  0  0  0  0  0  0
   35.4368   30.3998   46.1544 C   0  0  0  0  0  0  0  0  0  0  0  0
   34.5857   29.5471   45.5372 N   0  0  0  0  0  0  0  0  0  0  0  0
   34.9207   28.9091   44.3699 C   0  0  0  0  0  0  0  0  0  0  0  0
   36.1398   29.1284   43.8026 N   0  0  0  0  0  0  0  0  0  0  0  0
   37.0374   31.1777   48.5313 C   0  0  1  0  0  0  0  0  0  0  0  0
   37.6011   29.7324   48.8222 C   0  0  0  0  0  0  0  0  0  0  0  0
   36.7127   28.9699   49.7715 C   0  0  0  0  0  0  0  0  0  0  0  0
   36.2255   29.8749   50.8997 C   0  0  0  0  0  0  0  0  0  0  0  0
   37.1922   30.9913   50.9930 C   0  0  0  0  0  0  0  0  0  0  0  0
   37.0114   31.9236   49.8361 C   0  0  2  0  0  0  0  0  0  0  0  0
   38.3973   31.9696   44.1776 H   0  0  0  0  0  0  0  0  0  0  0  0
   40.1782   33.3825   44.8229 H   0  0  0  0  0  0  0  0  0  0  0  0
   40.6362   33.8285   47.1601 H   0  0  0  0  0  0  0  0  0  0  0  0
   39.3142   32.8357   48.8503 H   0  0  0  0  0  0  0  0  0  0  0  0
   37.9442   30.0529   43.8451 H   0  0  0  0  0  0  0  0  0  0  0  0
   34.9445   30.8188   46.9755 H   0  0  0  0  0  0  0  0  0  0  0  0
   34.2528   28.2216   43.8589 H   0  0  0  0  0  0  0  0  0  0  0  0
   36.0572   30.8618   48.4267 H   0  0  0  0  0  0  0  0  0  0  0  0
   38.6563   29.7341   49.0041 H   0  0  0  0  0  0  0  0  0  0  0  0
   37.4729   29.2468   47.8313 H   0  0  0  0  0  0  0  0  0  0  0  0
   35.8781   28.4561   49.2569 H   0  0  0  0  0  0  0  0  0  0  0  0
   37.3459   28.1550   50.1914 H   0  0  0  0  0  0  0  0  0  0  0  0
   36.1966   29.2834   51.8164 H   0  0  0  0  0  0  0  0  0  0  0  0
   35.1921   30.1555   50.5307 H   0  0  0  0  0  0  0  0  0  0  0  0
   37.4071   31.4448   51.9443 H   0  0  0  0  0  0  0  0  0  0  0  0
   38.2157   30.5379   50.7791 H   0  0  0  0  0  0  0  0  0  0  0  0
   37.8508   32.6387   49.9564 H   0  0  0  0  0  0  0  0  0  0  0  0
   37.1306   35.0576   49.3431 Cl  0  0  0  0  0  0  0  0  0  0  0  0
   35.6742   34.1799   49.7353 C   0  0  0  0  0  0  0  0  0  0  0  0
   35.8371   32.8280   49.8692 C   0  0  0  0  0  0  0  0  0  0  0  0
   34.6590   32.1118   50.1387 C   0  0  0  0  0  0  0  0  0  0  0  0
   34.4479   31.0522   50.2949 H   0  0  0  0  0  0  0  0  0  0  0  0
   33.4556   32.7761   50.2510 C   0  0  0  0  0  0  0  0  0  0  0  0
   33.3488   34.1556   50.1066 C   0  0  0  0  0  0  0  0  0  0  0  0
   31.8554   35.0595   50.2376 Cl  0  0  0  0  0  0  0  0  0  0  0  0
   34.4913   34.8596   49.8432 C   0  0  0  0  0  0  0  0  0  0  0  0
   34.5171   35.9309   49.7138 H   0  0  0  0  0  0  0  0  0  0  0  0
   32.4698   32.3448   50.4572 H   0  0  0  0  0  0  0  0  0  0  0  0
  1  6  2  0
  2  3  2  0
  2  1  1  0
  3  4  1  0
  4  5  2  0
  6  5  1  0
  6 13  1  0
  7  8  2  0
  8  1  1  0
  8  9  1  0
 10  9  2  0
 11 10  1  0
 12 11  2  0
 12  7  1  0
 13 14  1  0
 13 18  1  0
 14 15  1  0
 15 16  1  0
 16 17  1  0
 18 17  1  0
  2 19  1  0
  3 20  1  0
  4 21  1  0
  5 22  1  0
  7 23  1  0
  9 24  1  0
 11 25  1  0
 13 26  1  6
 14 27  1  0
 14 28  1  0
 15 29  1  0
 15 30  1  0
 16 31  1  0
 16 32  1  0
 17 33  1  0
 17 34  1  0
 18 35  1  6
 36 37  1  0
 37 38  2  0
 38 39  1  0
 39 40  1  0
 39 41  2  0
 41 42  1  0
 42 43  1  0
 42 44  2  0
 44 45  1  0
 44 37  1  0
 41 46  1  0
 18 38  1  0
M  ISO  8  19  14  20  14  21  14  22  14  23  14  24  14  25  14  26  13
M  ISO  8  27  13  28  13  29  13  30  13  31  13  32  13  33  13  34  13
M  ISO  3  35  13  40  16  45  15
M  END
>  <DihAtoms>  (1) 
12,17,37,36

>  <DihDeg>  (1) 
135.10996246569113

$$$$
