
 OpenBabel03272506493D

 43 46  0  0  1  0  0  0  0  0999 V2000
   37.2320   25.0730   30.7650 C   0  0  2  0  0  0  0  0  0  0  0  0
   37.3380   23.5910   30.9710 C   0  0  1  0  0  0  0  0  0  0  0  0
   38.3000   23.3630   31.9090 O   0  0  0  0  0  0  0  0  0  0  0  0
   38.6240   24.5630   32.5340 C   0  0  0  0  0  0  0  0  0  0  0  0
   37.5220   25.5430   32.2260 C   0  0  1  0  0  0  0  0  0  0  0  0
   37.9960   25.5260   30.1440 H   0  0  0  0  0  0  0  0  0  0  0  0
   37.5530   23.0460   30.0330 H   0  0  0  0  0  0  0  0  0  0  0  0
   39.6170   24.8310   32.2050 H   0  0  0  0  0  0  0  0  0  0  0  0
   38.6260   24.4540   33.6490 H   0  0  0  0  0  0  0  0  0  0  0  0
   36.6170   25.3550   32.8050 H   0  0  0  0  0  0  0  0  0  0  0  0
   35.9130   25.4350   30.4220 O   0  0  0  0  0  0  0  0  0  0  0  0
   35.3570   24.6430   30.2050 H   0  0  0  0  0  0  0  0  0  0  0  0
   35.7310   23.0120   31.6530 S   0  0  0  0  0  0  0  0  0  0  0  0
   36.2810   19.1830   30.7910 C   0  0  0  0  0  0  0  0  0  0  0  0
   35.8660   18.4880   31.9240 C   0  0  0  0  0  0  0  0  0  0  0  0
   35.3910   19.2420   33.0100 C   0  0  0  0  0  0  0  0  0  0  0  0
   35.3620   20.6000   32.9010 N   0  0  0  0  0  0  0  0  0  0  0  0
   35.7780   21.2260   31.7770 C   0  0  0  0  0  0  0  0  0  0  0  0
   36.2410   20.5290   30.7080 N   0  0  0  0  0  0  0  0  0  0  0  0
   36.6620   18.7000   29.9020 H   0  0  0  0  0  0  0  0  0  0  0  0
   35.9270   17.4010   31.9180 H   0  0  0  0  0  0  0  0  0  0  0  0
   35.0710   18.7230   33.8850 H   0  0  0  0  0  0  0  0  0  0  0  0
   38.0380   26.8160   32.2400 O   0  0  0  0  0  0  0  0  0  0  0  0
   36.4960   27.7000   34.5880 Cl  0  0  0  0  0  0  0  0  0  0  0  0
   36.6020   28.4430   33.0090 C   0  0  0  0  0  0  0  0  0  0  0  0
   37.3710   27.9390   31.9860 C   0  0  0  0  0  0  0  0  0  0  0  0
   37.3950   28.6370   30.7770 C   0  0  0  0  0  0  0  0  0  0  0  0
   36.6650   29.7960   30.6200 C   0  0  0  0  0  0  0  0  0  0  0  0
   35.8870   30.3120   31.6430 C   0  0  0  0  0  0  0  0  0  0  0  0
   35.8600   29.6250   32.8420 C   0  0  0  0  0  0  0  0  0  0  0  0
   37.9710   28.3190   29.9260 H   0  0  0  0  0  0  0  0  0  0  0  0
   36.6360   30.3860   29.7170 H   0  0  0  0  0  0  0  0  0  0  0  0
   35.2960   31.2220   31.5640 H   0  0  0  0  0  0  0  0  0  0  0  0
   32.8760   28.9970   32.9520 Cl  0  0  0  0  0  0  0  0  0  0  0  0
   33.7100   29.9750   34.1370 C   0  0  0  0  0  0  0  0  0  0  0  0
   35.0460   30.1530   33.9320 C   0  0  0  0  0  0  0  0  0  0  0  0
   35.8140   30.9180   34.8180 C   0  0  0  0  0  0  0  0  0  0  0  0
   36.8810   31.1220   34.7470 H   0  0  0  0  0  0  0  0  0  0  0  0
   35.1980   31.5060   35.9270 C   0  0  0  0  0  3  0  0  0  0  0  0
   33.8450   31.3130   36.1170 C   0  0  0  0  0  0  0  0  0  0  0  0
   33.0580   32.0500   37.5130 Cl  0  0  0  0  0  0  0  0  0  0  0  0
   33.0920   30.5590   35.2420 C   0  0  0  0  0  0  0  0  0  0  0  0
   32.0210   30.3880   35.3630 H   0  0  0  0  0  0  0  0  0  0  0  0
  1  6  1  6  0  0  0
  1  2  1  0  0  0  0
  1  5  1  0  0  0  0
  2  7  1  6  0  0  0
  2 13  1  0  0  0  0
  2  3  1  0  0  0  0
  3  4  1  0  0  0  0
  4  9  1  0  0  0  0
  5 23  1  0  0  0  0
  5  4  1  0  0  0  0
  5 10  1  1  0  0  0
  8  4  1  0  0  0  0
 11  1  1  0  0  0  0
 12 11  1  0  0  0  0
 13 18  1  0  0  0  0
 14 15  1  0  0  0  0
 15 16  2  0  0  0  0
 16 22  1  0  0  0  0
 17 16  1  0  0  0  0
 18 17  2  0  0  0  0
 19 14  2  0  0  0  0
 19 18  1  0  0  0  0
 20 14  1  0  0  0  0
 21 15  1  0  0  0  0
 25 24  1  0  0  0  0
 26 23  1  0  0  0  0
 26 25  2  0  0  0  0
 27 26  1  0  0  0  0
 28 27  2  0  0  0  0
 28 29  1  0  0  0  0
 29 30  2  0  0  0  0
 30 25  1  0  0  0  0
 30 36  1  0  0  0  0
 31 27  1  0  0  0  0
 32 28  1  0  0  0  0
 33 29  1  0  0  0  0
 34 35  1  0  0  0  0
 35 42  1  0  0  0  0
 36 35  2  0  0  0  0
 36 37  1  0  0  0  0
 37 39  2  0  0  0  0
 38 37  1  0  0  0  0
 39 40  1  0  0  0  0
 40 41  1  0  0  0  0
 42 43  1  0  0  0  0
 42 40  2  0  0  0  0
M  END
>  <minimizedAffinity>
-6.44596004

$$$$

 OpenBabel03272506493D

 43 46  0  0  1  0  0  0  0  0999 V2000
   35.5270   30.9140   34.4390 C   0  0  2  0  0  0  0  0  0  0  0  0
   34.0840   31.3250   34.4610 C   0  0  1  0  0  0  0  0  0  0  0  0
   33.4220   30.5860   33.5270 O   0  0  0  0  0  0  0  0  0  0  0  0
   34.2380   29.5410   33.1050 C   0  0  0  0  0  0  0  0  0  0  0  0
   35.3440   29.3970   34.1180 C   0  0  1  0  0  0  0  0  0  0  0  0
   36.1300   31.3230   33.6350 H   0  0  0  0  0  0  0  0  0  0  0  0
   33.9490   32.4090   34.2870 H   0  0  0  0  0  0  0  0  0  0  0  0
   34.5350   29.7630   32.0920 H   0  0  0  0  0  0  0  0  0  0  0  0
   33.6890   28.5650   33.1190 H   0  0  0  0  0  0  0  0  0  0  0  0
   35.0110   28.9160   35.0400 H   0  0  0  0  0  0  0  0  0  0  0  0
   36.1020   31.0440   35.7210 O   0  0  0  0  0  0  0  0  0  0  0  0
   35.5110   31.5450   36.3400 H   0  0  0  0  0  0  0  0  0  0  0  0
   33.4100   30.8870   36.1140 S   0  0  0  0  0  0  0  0  0  0  0  0
   29.6440   29.8390   35.4640 C   0  0  0  0  0  0  0  0  0  0  0  0
   29.6350   28.4480   35.5190 C   0  0  0  0  0  0  0  0  0  0  0  0
   30.8560   27.8000   35.7710 C   0  0  0  0  0  0  0  0  0  0  0  0
   31.9750   28.5590   35.9460 N   0  0  0  0  0  0  0  0  0  0  0  0
   31.9290   29.9080   35.8810 C   0  0  0  0  0  0  0  0  0  0  0  0
   30.7660   30.5670   35.6410 N   0  0  0  0  0  0  0  0  0  0  0  0
   28.7610   30.4340   35.2770 H   0  0  0  0  0  0  0  0  0  0  0  0
   28.6900   27.9280   35.3670 H   0  0  0  0  0  0  0  0  0  0  0  0
   30.8640   26.7340   35.8160 H   0  0  0  0  0  0  0  0  0  0  0  0
   36.4560   28.8860   33.4970 O   0  0  0  0  0  0  0  0  0  0  0  0
   38.2050   27.5440   35.4490 Cl  0  0  0  0  0  0  0  0  0  0  0  0
   37.4760   26.8850   34.0030 C   0  0  0  0  0  0  0  0  0  0  0  0
   36.6610   27.6120   33.1680 C   0  0  0  0  0  0  0  0  0  0  0  0
   36.1160   26.9680   32.0550 C   0  0  0  0  0  0  0  0  0  0  0  0
   36.3930   25.6400   31.8080 C   0  0  0  0  0  0  0  0  0  0  0  0
   37.2130   24.8980   32.6420 C   0  0  0  0  0  0  0  0  0  0  0  0
   37.7540   25.5320   33.7440 C   0  0  0  0  0  0  0  0  0  0  0  0
   35.4660   27.4570   31.3520 H   0  0  0  0  0  0  0  0  0  0  0  0
   36.0090   25.0780   30.9700 H   0  0  0  0  0  0  0  0  0  0  0  0
   37.4570   23.8500   32.4860 H   0  0  0  0  0  0  0  0  0  0  0  0
   40.7780   25.5750   33.3300 Cl  0  0  0  0  0  0  0  0  0  0  0  0
   39.9800   24.6710   34.5970 C   0  0  0  0  0  0  0  0  0  0  0  0
   38.6200   24.7660   34.6350 C   0  0  0  0  0  0  0  0  0  0  0  0
   37.8780   24.0850   35.6070 C   0  0  0  0  0  0  0  0  0  0  0  0
   36.7960   24.0920   35.7250 H   0  0  0  0  0  0  0  0  0  0  0  0
   38.5440   23.2970   36.5500 C   0  0  0  0  0  3  0  0  0  0  0  0
   39.9210   23.2140   36.4950 C   0  0  0  0  0  0  0  0  0  0  0  0
   40.7710   22.2230   37.6810 Cl  0  0  0  0  0  0  0  0  0  0  0  0
   40.6490   23.8870   35.5360 C   0  0  0  0  0  0  0  0  0  0  0  0
   41.7370   23.8420   35.4650 H   0  0  0  0  0  0  0  0  0  0  0  0
  1  6  1  6  0  0  0
  1  2  1  0  0  0  0
  1 11  1  0  0  0  0
  2  7  1  6  0  0  0
  2 13  1  0  0  0  0
  3  2  1  0  0  0  0
  4  9  1  0  0  0  0
  4  3  1  0  0  0  0
  4  5  1  0  0  0  0
  5  1  1  0  0  0  0
  5 10  1  1  0  0  0
  8  4  1  0  0  0  0
 11 12  1  0  0  0  0
 14 15  2  0  0  0  0
 14 19  1  0  0  0  0
 15 16  1  0  0  0  0
 16 22  1  0  0  0  0
 16 17  2  0  0  0  0
 18 17  1  0  0  0  0
 18 13  1  0  0  0  0
 19 18  2  0  0  0  0
 20 14  1  0  0  0  0
 21 15  1  0  0  0  0
 23  5  1  0  0  0  0
 25 24  1  0  0  0  0
 26 23  1  0  0  0  0
 26 25  2  0  0  0  0
 27 26  1  0  0  0  0
 28 27  2  0  0  0  0
 28 29  1  0  0  0  0
 29 30  2  0  0  0  0
 30 25  1  0  0  0  0
 30 36  1  0  0  0  0
 31 27  1  0  0  0  0
 32 28  1  0  0  0  0
 33 29  1  0  0  0  0
 34 35  1  0  0  0  0
 35 36  2  0  0  0  0
 35 42  1  0  0  0  0
 36 37  1  0  0  0  0
 37 38  1  0  0  0  0
 37 39  2  0  0  0  0
 40 39  1  0  0  0  0
 40 41  1  0  0  0  0
 42 40  2  0  0  0  0
 43 42  1  0  0  0  0
M  END
>  <minimizedAffinity>
-5.82397413

$$$$

 OpenBabel03272506493D

 43 46  0  0  1  0  0  0  0  0999 V2000
   36.4670   28.7250   33.1810 C   0  0  2  0  0  0  0  0  0  0  0  0
   35.6730   29.9780   32.9520 C   0  0  1  0  0  0  0  0  0  0  0  0
   35.5630   30.1660   31.6070 O   0  0  0  0  0  0  0  0  0  0  0  0
   35.9640   29.0090   30.9470 C   0  0  0  0  0  0  0  0  0  0  0  0
   35.9670   27.8920   31.9590 C   0  0  1  0  0  0  0  0  0  0  0  0
   37.5420   28.8120   33.0700 H   0  0  0  0  0  0  0  0  0  0  0  0
   36.1190   30.8600   33.4470 H   0  0  0  0  0  0  0  0  0  0  0  0
   36.9040   29.2290   30.4660 H   0  0  0  0  0  0  0  0  0  0  0  0
   35.2180   28.7060   30.1680 H   0  0  0  0  0  0  0  0  0  0  0  0
   34.9630   27.5420   32.2040 H   0  0  0  0  0  0  0  0  0  0  0  0
   36.0560   28.0860   34.3700 O   0  0  0  0  0  0  0  0  0  0  0  0
   35.4620   28.6640   34.9140 H   0  0  0  0  0  0  0  0  0  0  0  0
   33.9860   29.6930   33.6250 S   0  0  0  0  0  0  0  0  0  0  0  0
   34.7690   32.0480   36.7140 C   0  0  0  0  0  0  0  0  0  0  0  0
   33.5860   32.0980   37.4470 C   0  0  0  0  0  0  0  0  0  0  0  0
   32.4900   31.3660   36.9610 C   0  0  0  0  0  0  0  0  0  0  0  0
   32.6390   30.6530   35.8100 N   0  0  0  0  0  0  0  0  0  0  0  0
   33.8110   30.6380   35.1360 C   0  0  0  0  0  0  0  0  0  0  0  0
   34.8900   31.3320   35.5770 N   0  0  0  0  0  0  0  0  0  0  0  0
   35.6700   32.5720   37.0000 H   0  0  0  0  0  0  0  0  0  0  0  0
   33.5640   32.6970   38.3570 H   0  0  0  0  0  0  0  0  0  0  0  0
   31.5770   31.3960   37.5120 H   0  0  0  0  0  0  0  0  0  0  0  0
   36.8980   26.9540   31.5880 O   0  0  0  0  0  0  0  0  0  0  0  0
   38.8590   26.1250   33.6210 Cl  0  0  0  0  0  0  0  0  0  0  0  0
   37.7140   25.1380   32.7430 C   0  0  0  0  0  0  0  0  0  0  0  0
   36.8330   25.6450   31.8170 C   0  0  0  0  0  0  0  0  0  0  0  0
   35.9480   24.7590   31.1990 C   0  0  0  0  0  0  0  0  0  0  0  0
   35.9640   23.4160   31.5130 C   0  0  0  0  0  0  0  0  0  0  0  0
   36.8470   22.8950   32.4430 C   0  0  0  0  0  0  0  0  0  0  0  0
   37.7260   23.7680   33.0580 C   0  0  0  0  0  0  0  0  0  0  0  0
   35.2220   25.0680   30.4670 H   0  0  0  0  0  0  0  0  0  0  0  0
   35.3110   22.6760   31.0760 H   0  0  0  0  0  0  0  0  0  0  0  0
   36.8950   21.8450   32.7210 H   0  0  0  0  0  0  0  0  0  0  0  0
   40.5180   22.9040   32.1810 Cl  0  0  0  0  0  0  0  0  0  0  0  0
   39.9400   22.8070   33.8280 C   0  0  0  0  0  0  0  0  0  0  0  0
   38.6640   23.2370   34.0410 C   0  0  0  0  0  0  0  0  0  0  0  0
   38.0980   23.2060   35.3210 C   0  0  0  0  0  0  0  0  0  0  0  0
   37.0940   23.5230   35.5980 H   0  0  0  0  0  0  0  0  0  0  0  0
   38.8550   22.7250   36.3930 C   0  0  0  0  0  3  0  0  0  0  0  0
   40.1450   22.2940   36.1570 C   0  0  0  0  0  0  0  0  0  0  0  0
   41.1090   21.6860   37.5030 Cl  0  0  0  0  0  0  0  0  0  0  0  0
   40.6990   22.3280   34.8950 C   0  0  0  0  0  0  0  0  0  0  0  0
   41.7150   21.9940   34.6750 H   0  0  0  0  0  0  0  0  0  0  0  0
  1  6  1  6  0  0  0
  1 11  1  0  0  0  0
  2  1  1  0  0  0  0
  2  7  1  1  0  0  0
  2 13  1  0  0  0  0
  3  2  1  0  0  0  0
  4  3  1  0  0  0  0
  4  5  1  0  0  0  0
  5 10  1  1  0  0  0
  5  1  1  0  0  0  0
  8  4  1  0  0  0  0
  9  4  1  0  0  0  0
 11 12  1  0  0  0  0
 13 18  1  0  0  0  0
 14 20  1  0  0  0  0
 14 15  1  0  0  0  0
 15 21  1  0  0  0  0
 16 15  2  0  0  0  0
 16 22  1  0  0  0  0
 17 16  1  0  0  0  0
 18 19  1  0  0  0  0
 18 17  2  0  0  0  0
 19 14  2  0  0  0  0
 23 26  1  0  0  0  0
 23  5  1  0  0  0  0
 25 30  1  0  0  0  0
 25 24  1  0  0  0  0
 26 25  2  0  0  0  0
 27 28  2  0  0  0  0
 27 26  1  0  0  0  0
 28 29  1  0  0  0  0
 29 33  1  0  0  0  0
 29 30  2  0  0  0  0
 30 36  1  0  0  0  0
 31 27  1  0  0  0  0
 32 28  1  0  0  0  0
 34 35  1  0  0  0  0
 35 36  2  0  0  0  0
 35 42  1  0  0  0  0
 36 37  1  0  0  0  0
 37 38  1  0  0  0  0
 37 39  2  0  0  0  0
 40 39  1  0  0  0  0
 40 41  1  0  0  0  0
 42 40  2  0  0  0  0
 43 42  1  0  0  0  0
M  END
>  <minimizedAffinity>
-5.79716969

$$$$

 OpenBabel03272506493D

 43 46  0  0  1  0  0  0  0  0999 V2000
   35.3470   30.9180   34.1250 C   0  0  2  0  0  0  0  0  0  0  0  0
   33.8820   31.2360   34.1940 C   0  0  1  0  0  0  0  0  0  0  0  0
   33.2230   30.3610   33.3830 O   0  0  0  0  0  0  0  0  0  0  0  0
   34.0860   29.3320   33.0200 C   0  0  0  0  0  0  0  0  0  0  0  0
   35.2530   29.3680   33.9730 C   0  0  1  0  0  0  0  0  0  0  0  0
   35.8750   31.2780   33.2480 H   0  0  0  0  0  0  0  0  0  0  0  0
   33.6610   32.2850   33.9190 H   0  0  0  0  0  0  0  0  0  0  0  0
   34.3110   29.4640   31.9730 H   0  0  0  0  0  0  0  0  0  0  0  0
   33.6080   28.3300   33.1670 H   0  0  0  0  0  0  0  0  0  0  0  0
   35.0060   28.9670   34.9570 H   0  0  0  0  0  0  0  0  0  0  0  0
   35.9800   31.2210   35.3490 O   0  0  0  0  0  0  0  0  0  0  0  0
   35.3910   31.7460   35.9490 H   0  0  0  0  0  0  0  0  0  0  0  0
   33.3320   30.9340   35.9220 S   0  0  0  0  0  0  0  0  0  0  0  0
   34.0400   34.2630   37.9500 C   0  0  0  0  0  0  0  0  0  0  0  0
   32.8210   34.9370   37.9870 C   0  0  0  0  0  0  0  0  0  0  0  0
   31.7250   34.3290   37.3540 C   0  0  0  0  0  0  0  0  0  0  0  0
   31.9080   33.1260   36.7400 N   0  0  0  0  0  0  0  0  0  0  0  0
   33.1130   32.5150   36.7330 C   0  0  0  0  0  0  0  0  0  0  0  0
   34.1940   33.0720   37.3360 N   0  0  0  0  0  0  0  0  0  0  0  0
   34.9440   34.6420   38.4060 H   0  0  0  0  0  0  0  0  0  0  0  0
   32.7730   35.8950   38.5020 H   0  0  0  0  0  0  0  0  0  0  0  0
   30.7850   34.8340   37.3740 H   0  0  0  0  0  0  0  0  0  0  0  0
   36.3630   28.8670   33.3390 O   0  0  0  0  0  0  0  0  0  0  0  0
   38.0890   27.5730   35.3430 Cl  0  0  0  0  0  0  0  0  0  0  0  0
   37.3950   26.8840   33.8930 C   0  0  0  0  0  0  0  0  0  0  0  0
   36.5870   27.5900   33.0330 C   0  0  0  0  0  0  0  0  0  0  0  0
   36.0700   26.9230   31.9200 C   0  0  0  0  0  0  0  0  0  0  0  0
   36.3660   25.5950   31.6980 C   0  0  0  0  0  0  0  0  0  0  0  0
   37.1780   24.8740   32.5580 C   0  0  0  0  0  0  0  0  0  0  0  0
   37.6920   25.5310   33.6600 C   0  0  0  0  0  0  0  0  0  0  0  0
   35.4280   27.3950   31.1980 H   0  0  0  0  0  0  0  0  0  0  0  0
   36.0030   25.0170   30.8620 H   0  0  0  0  0  0  0  0  0  0  0  0
   37.4360   23.8270   32.4220 H   0  0  0  0  0  0  0  0  0  0  0  0
   40.7100   25.4750   33.2110 Cl  0  0  0  0  0  0  0  0  0  0  0  0
   39.9060   24.6560   34.5290 C   0  0  0  0  0  0  0  0  0  0  0  0
   38.5490   24.7880   34.5780 C   0  0  0  0  0  0  0  0  0  0  0  0
   37.8030   24.1750   35.5910 C   0  0  0  0  0  0  0  0  0  0  0  0
   36.7230   24.2160   35.7200 H   0  0  0  0  0  0  0  0  0  0  0  0
   38.4600   23.4170   36.5650 C   0  0  0  0  0  3  0  0  0  0  0  0
   39.8340   23.2960   36.4980 C   0  0  0  0  0  0  0  0  0  0  0  0
   40.6730   22.3420   37.7220 Cl  0  0  0  0  0  0  0  0  0  0  0  0
   40.5660   23.9020   35.4990 C   0  0  0  0  0  0  0  0  0  0  0  0
   41.6510   23.8250   35.4180 H   0  0  0  0  0  0  0  0  0  0  0  0
  1  6  1  6  0  0  0
  1  2  1  0  0  0  0
  1 11  1  0  0  0  0
  2  7  1  6  0  0  0
  2 13  1  0  0  0  0
  3  2  1  0  0  0  0
  4  9  1  0  0  0  0
  4  3  1  0  0  0  0
  4  5  1  0  0  0  0
  5  1  1  0  0  0  0
  5 10  1  1  0  0  0
  8  4  1  0  0  0  0
 11 12  1  0  0  0  0
 13 18  1  0  0  0  0
 14 15  1  0  0  0  0
 14 20  1  0  0  0  0
 15 21  1  0  0  0  0
 16 22  1  0  0  0  0
 16 15  2  0  0  0  0
 17 16  1  0  0  0  0
 18 17  2  0  0  0  0
 18 19  1  0  0  0  0
 19 14  2  0  0  0  0
 23  5  1  0  0  0  0
 25 24  1  0  0  0  0
 26 23  1  0  0  0  0
 26 25  2  0  0  0  0
 27 26  1  0  0  0  0
 28 27  2  0  0  0  0
 28 29  1  0  0  0  0
 29 30  2  0  0  0  0
 30 25  1  0  0  0  0
 30 36  1  0  0  0  0
 31 27  1  0  0  0  0
 32 28  1  0  0  0  0
 33 29  1  0  0  0  0
 34 35  1  0  0  0  0
 35 36  2  0  0  0  0
 35 42  1  0  0  0  0
 36 37  1  0  0  0  0
 37 38  1  0  0  0  0
 37 39  2  0  0  0  0
 40 39  1  0  0  0  0
 40 41  1  0  0  0  0
 42 40  2  0  0  0  0
 43 42  1  0  0  0  0
M  END
>  <minimizedAffinity>
-5.74808311

$$$$

 OpenBabel03272506493D

 43 46  0  0  1  0  0  0  0  0999 V2000
   37.2970   25.7330   33.3220 C   0  0  2  0  0  0  0  0  0  0  0  0
   38.4770   24.8560   33.0240 C   0  0  1  0  0  0  0  0  0  0  0  0
   38.8240   25.0460   31.7190 O   0  0  0  0  0  0  0  0  0  0  0  0
   38.1630   26.1670   31.2270 C   0  0  0  0  0  0  0  0  0  0  0  0
   37.6600   26.9490   32.4130 C   0  0  1  0  0  0  0  0  0  0  0  0
   36.3340   25.3730   32.9760 H   0  0  0  0  0  0  0  0  0  0  0  0
   38.2790   23.7890   33.2360 H   0  0  0  0  0  0  0  0  0  0  0  0
   37.4200   25.8140   30.5290 H   0  0  0  0  0  0  0  0  0  0  0  0
   38.8690   26.8530   30.6920 H   0  0  0  0  0  0  0  0  0  0  0  0
   38.4530   27.4990   32.9220 H   0  0  0  0  0  0  0  0  0  0  0  0
   37.3130   26.1480   34.6700 O   0  0  0  0  0  0  0  0  0  0  0  0
   37.9820   25.6470   35.2020 H   0  0  0  0  0  0  0  0  0  0  0  0
   39.8730   25.4350   34.0710 S   0  0  0  0  0  0  0  0  0  0  0  0
   39.1710   23.1300   37.2180 C   0  0  0  0  0  0  0  0  0  0  0  0
   40.3830   22.5000   37.4890 C   0  0  0  0  0  0  0  0  0  0  0  0
   41.4730   22.8030   36.6570 C   0  0  0  0  0  0  0  0  0  0  0  0
   41.2900   23.6890   35.6370 N   0  0  0  0  0  0  0  0  0  0  0  0
   40.0920   24.2730   35.4160 C   0  0  0  0  0  0  0  0  0  0  0  0
   39.0180   24.0040   36.2020 N   0  0  0  0  0  0  0  0  0  0  0  0
   38.2730   22.9690   37.7970 H   0  0  0  0  0  0  0  0  0  0  0  0
   40.4310   21.8060   38.3270 H   0  0  0  0  0  0  0  0  0  0  0  0
   42.4070   22.3270   36.8520 H   0  0  0  0  0  0  0  0  0  0  0  0
   36.5340   27.6440   32.0460 O   0  0  0  0  0  0  0  0  0  0  0  0
   35.2820   28.8140   34.4400 Cl  0  0  0  0  0  0  0  0  0  0  0  0
   35.8400   29.6240   32.9940 C   0  0  0  0  0  0  0  0  0  0  0  0
   36.4240   28.9660   31.9370 C   0  0  0  0  0  0  0  0  0  0  0  0
   36.8540   29.7260   30.8470 C   0  0  0  0  0  0  0  0  0  0  0  0
   36.6920   31.0960   30.8380 C   0  0  0  0  0  0  0  0  0  0  0  0
   36.1040   31.7680   31.8970 C   0  0  0  0  0  0  0  0  0  0  0  0
   35.6780   31.0200   32.9780 C   0  0  0  0  0  0  0  0  0  0  0  0
   37.3250   29.2970   29.9810 H   0  0  0  0  0  0  0  0  0  0  0  0
   36.9990   31.7450   30.0320 H   0  0  0  0  0  0  0  0  0  0  0  0
   35.9570   32.8450   31.9320 H   0  0  0  0  0  0  0  0  0  0  0  0
   32.6470   31.3730   33.0580 Cl  0  0  0  0  0  0  0  0  0  0  0  0
   33.7290   31.9560   34.3010 C   0  0  0  0  0  0  0  0  0  0  0  0
   35.0560   31.7100   34.1030 C   0  0  0  0  0  0  0  0  0  0  0  0
   36.0130   32.1310   35.0350 C   0  0  0  0  0  0  0  0  0  0  0  0
   37.0900   31.9880   34.9730 H   0  0  0  0  0  0  0  0  0  0  0  0
   35.5980   32.8140   36.1820 C   0  0  0  0  0  3  0  0  0  0  0  0
   34.2510   33.0520   36.3640 C   0  0  0  0  0  0  0  0  0  0  0  0
   33.7170   33.9120   37.8090 Cl  0  0  0  0  0  0  0  0  0  0  0  0
   33.3120   32.6350   35.4450 C   0  0  0  0  0  0  0  0  0  0  0  0
   32.2400   32.8090   35.5590 H   0  0  0  0  0  0  0  0  0  0  0  0
  1  6  1  6  0  0  0
  1 11  1  0  0  0  0
  2  7  1  1  0  0  0
  2  1  1  0  0  0  0
  2 13  1  0  0  0  0
  3  2  1  0  0  0  0
  4  3  1  0  0  0  0
  4  5  1  0  0  0  0
  5 10  1  1  0  0  0
  5  1  1  0  0  0  0
  8  4  1  0  0  0  0
  9  4  1  0  0  0  0
 11 12  1  0  0  0  0
 13 18  1  0  0  0  0
 14 15  1  0  0  0  0
 14 20  1  0  0  0  0
 15 21  1  0  0  0  0
 16 22  1  0  0  0  0
 16 15  2  0  0  0  0
 17 16  1  0  0  0  0
 18 17  2  0  0  0  0
 18 19  1  0  0  0  0
 19 14  2  0  0  0  0
 23  5  1  0  0  0  0
 25 24  1  0  0  0  0
 26 23  1  0  0  0  0
 26 25  2  0  0  0  0
 27 26  1  0  0  0  0
 28 27  2  0  0  0  0
 28 29  1  0  0  0  0
 29 33  1  0  0  0  0
 29 30  2  0  0  0  0
 30 25  1  0  0  0  0
 30 36  1  0  0  0  0
 31 27  1  0  0  0  0
 32 28  1  0  0  0  0
 34 35  1  0  0  0  0
 35 42  1  0  0  0  0
 36 35  2  0  0  0  0
 36 37  1  0  0  0  0
 37 39  2  0  0  0  0
 38 37  1  0  0  0  0
 39 40  1  0  0  0  0
 40 41  1  0  0  0  0
 42 43  1  0  0  0  0
 42 40  2  0  0  0  0
M  END
>  <minimizedAffinity>
-5.74684477

$$$$

 OpenBabel03272506493D

 43 46  0  0  1  0  0  0  0  0999 V2000
   37.0100   28.1480   32.6630 C   0  0  2  0  0  0  0  0  0  0  0  0
   36.2530   29.3570   32.1980 C   0  0  1  0  0  0  0  0  0  0  0  0
   36.1160   29.2740   30.8440 O   0  0  0  0  0  0  0  0  0  0  0  0
   36.4610   27.9920   30.4270 C   0  0  0  0  0  0  0  0  0  0  0  0
   36.4520   27.1040   31.6450 C   0  0  1  0  0  0  0  0  0  0  0  0
   38.0840   28.1700   32.5180 H   0  0  0  0  0  0  0  0  0  0  0  0
   36.7400   30.3050   32.4950 H   0  0  0  0  0  0  0  0  0  0  0  0
   37.3960   28.0750   29.8950 H   0  0  0  0  0  0  0  0  0  0  0  0
   35.6870   27.5660   29.7390 H   0  0  0  0  0  0  0  0  0  0  0  0
   35.4430   26.8500   31.9730 H   0  0  0  0  0  0  0  0  0  0  0  0
   36.6070   27.7790   33.9640 O   0  0  0  0  0  0  0  0  0  0  0  0
   36.0470   28.4780   34.3890 H   0  0  0  0  0  0  0  0  0  0  0  0
   34.5740   29.2790   32.9430 S   0  0  0  0  0  0  0  0  0  0  0  0
   33.3450   31.2900   36.1290 C   0  0  0  0  0  0  0  0  0  0  0  0
   34.4980   31.8350   36.6870 C   0  0  0  0  0  0  0  0  0  0  0  0
   35.7180   31.5680   36.0450 C   0  0  0  0  0  0  0  0  0  0  0  0
   35.7110   30.7960   34.9220 N   0  0  0  0  0  0  0  0  0  0  0  0
   34.5620   30.2900   34.4210 C   0  0  0  0  0  0  0  0  0  0  0  0
   33.3650   30.5300   35.0150 N   0  0  0  0  0  0  0  0  0  0  0  0
   32.3560   31.4350   36.5430 H   0  0  0  0  0  0  0  0  0  0  0  0
   34.4030   32.4400   37.5880 H   0  0  0  0  0  0  0  0  0  0  0  0
   36.6110   31.9780   36.4620 H   0  0  0  0  0  0  0  0  0  0  0  0
   37.3420   26.0760   31.4560 O   0  0  0  0  0  0  0  0  0  0  0  0
   39.3910   25.5560   33.5050 Cl  0  0  0  0  0  0  0  0  0  0  0  0
   38.1520   24.4790   32.9030 C   0  0  0  0  0  0  0  0  0  0  0  0
   37.2360   24.8420   31.9440 C   0  0  0  0  0  0  0  0  0  0  0  0
   36.2760   23.9020   31.5620 C   0  0  0  0  0  0  0  0  0  0  0  0
   36.2550   22.6480   32.1350 C   0  0  0  0  0  0  0  0  0  0  0  0
   37.1740   22.2710   33.1010 C   0  0  0  0  0  0  0  0  0  0  0  0
   38.1250   23.1990   33.4820 C   0  0  0  0  0  0  0  0  0  0  0  0
   35.5200   24.1010   30.8250 H   0  0  0  0  0  0  0  0  0  0  0  0
   35.5450   21.8730   31.8900 H   0  0  0  0  0  0  0  0  0  0  0  0
   37.1940   21.2950   33.5790 H   0  0  0  0  0  0  0  0  0  0  0  0
   37.5860   23.8390   36.4170 Cl  0  0  0  0  0  0  0  0  0  0  0  0
   39.0240   23.0260   35.8450 C   0  0  0  0  0  0  0  0  0  0  0  0
   39.1010   22.8200   34.4990 C   0  0  0  0  0  0  0  0  0  0  0  0
   40.2080   22.1790   33.9300 C   0  0  0  0  0  0  0  0  0  0  0  0
   40.3670   21.9670   32.8750 H   0  0  0  0  0  0  0  0  0  0  0  0
   41.2480   21.7440   34.7580 C   0  0  0  0  0  3  0  0  0  0  0  0
   41.1510   21.9610   36.1170 C   0  0  0  0  0  0  0  0  0  0  0  0
   42.4570   21.4170   37.1700 Cl  0  0  0  0  0  0  0  0  0  0  0  0
   40.0590   22.5930   36.6740 C   0  0  0  0  0  0  0  0  0  0  0  0
   39.9530   22.7810   37.7430 H   0  0  0  0  0  0  0  0  0  0  0  0
  1  6  1  6  0  0  0
  1 11  1  0  0  0  0
  2  7  1  1  0  0  0
  2  1  1  0  0  0  0
  2 13  1  0  0  0  0
  3  2  1  0  0  0  0
  4  3  1  0  0  0  0
  4  5  1  0  0  0  0
  5 10  1  1  0  0  0
  5  1  1  0  0  0  0
  8  4  1  0  0  0  0
  9  4  1  0  0  0  0
 11 12  1  0  0  0  0
 13 18  1  0  0  0  0
 14 20  1  0  0  0  0
 14 15  1  0  0  0  0
 15 21  1  0  0  0  0
 16 22  1  0  0  0  0
 16 15  2  0  0  0  0
 17 16  1  0  0  0  0
 18 17  2  0  0  0  0
 18 19  1  0  0  0  0
 19 14  2  0  0  0  0
 23  5  1  0  0  0  0
 23 26  1  0  0  0  0
 25 30  1  0  0  0  0
 25 24  1  0  0  0  0
 26 25  2  0  0  0  0
 27 26  1  0  0  0  0
 27 28  2  0  0  0  0
 28 29  1  0  0  0  0
 29 30  2  0  0  0  0
 29 33  1  0  0  0  0
 30 36  1  0  0  0  0
 31 27  1  0  0  0  0
 32 28  1  0  0  0  0
 35 34  1  0  0  0  0
 35 42  1  0  0  0  0
 36 35  2  0  0  0  0
 37 36  1  0  0  0  0
 37 39  2  0  0  0  0
 38 37  1  0  0  0  0
 39 40  1  0  0  0  0
 40 42  2  0  0  0  0
 40 41  1  0  0  0  0
 42 43  1  0  0  0  0
M  END
>  <minimizedAffinity>
-5.70089912

$$$$

 OpenBabel03272506493D

 43 46  0  0  1  0  0  0  0  0999 V2000
   37.9600   23.9330   34.6110 C   0  0  2  0  0  0  0  0  0  0  0  0
   38.2950   22.8060   35.5440 C   0  0  1  0  0  0  0  0  0  0  0  0
   38.9720   21.8590   34.8350 O   0  0  0  0  0  0  0  0  0  0  0  0
   39.3540   22.3920   33.6070 C   0  0  0  0  0  0  0  0  0  0  0  0
   39.2340   23.8910   33.7100 C   0  0  1  0  0  0  0  0  0  0  0  0
   37.1150   23.7730   33.9500 H   0  0  0  0  0  0  0  0  0  0  0  0
   37.3990   22.3780   36.0330 H   0  0  0  0  0  0  0  0  0  0  0  0
   38.7530   21.9080   32.8530 H   0  0  0  0  0  0  0  0  0  0  0  0
   40.4360   22.1910   33.3960 H   0  0  0  0  0  0  0  0  0  0  0  0
   40.0440   24.3400   34.2860 H   0  0  0  0  0  0  0  0  0  0  0  0
   37.9310   25.1610   35.3050 O   0  0  0  0  0  0  0  0  0  0  0  0
   37.9540   25.0310   36.2870 H   0  0  0  0  0  0  0  0  0  0  0  0
   39.4290   23.4710   36.8290 S   0  0  0  0  0  0  0  0  0  0  0  0
   42.3650   20.8400   37.2270 C   0  0  0  0  0  0  0  0  0  0  0  0
   43.4150   21.3440   36.4650 C   0  0  0  0  0  0  0  0  0  0  0  0
   43.2050   22.5600   35.7940 C   0  0  0  0  0  0  0  0  0  0  0  0
   41.9970   23.1770   35.9210 N   0  0  0  0  0  0  0  0  0  0  0  0
   41.0090   22.6440   36.6750 C   0  0  0  0  0  0  0  0  0  0  0  0
   41.1780   21.4710   37.3380 N   0  0  0  0  0  0  0  0  0  0  0  0
   42.4220   19.9140   37.7830 H   0  0  0  0  0  0  0  0  0  0  0  0
   44.3450   20.7780   36.4240 H   0  0  0  0  0  0  0  0  0  0  0  0
   44.0020   22.9570   35.2060 H   0  0  0  0  0  0  0  0  0  0  0  0
   38.9740   24.4050   32.4640 O   0  0  0  0  0  0  0  0  0  0  0  0
   38.8970   27.3460   32.5950 Cl  0  0  0  0  0  0  0  0  0  0  0  0
   37.6480   26.2440   32.0620 C   0  0  0  0  0  0  0  0  0  0  0  0
   37.8060   24.8780   32.0350 C   0  0  0  0  0  0  0  0  0  0  0  0
   36.7440   24.1030   31.5640 C   0  0  0  0  0  0  0  0  0  0  0  0
   35.5740   24.6980   31.1410 C   0  0  0  0  0  0  0  0  0  0  0  0
   35.4040   26.0720   31.1640 C   0  0  0  0  0  0  0  0  0  0  0  0
   36.4530   26.8430   31.6300 C   0  0  0  0  0  0  0  0  0  0  0  0
   36.7810   23.0300   31.5030 H   0  0  0  0  0  0  0  0  0  0  0  0
   34.7150   24.1630   30.7650 H   0  0  0  0  0  0  0  0  0  0  0  0
   34.5000   26.5830   30.8400 H   0  0  0  0  0  0  0  0  0  0  0  0
   37.2750   28.5160   29.2130 Cl  0  0  0  0  0  0  0  0  0  0  0  0
   36.6040   29.1880   30.6800 C   0  0  0  0  0  0  0  0  0  0  0  0
   36.2920   28.2930   31.6610 C   0  0  0  0  0  0  0  0  0  0  0  0
   35.7490   28.7200   32.8790 C   0  0  0  0  0  0  0  0  0  0  0  0
   35.4670   28.0930   33.7220 H   0  0  0  0  0  0  0  0  0  0  0  0
   35.5250   30.0840   33.0890 C   0  0  0  0  0  3  0  0  0  0  0  0
   35.8460   30.9740   32.0840 C   0  0  0  0  0  0  0  0  0  0  0  0
   35.5670   32.6960   32.3380 Cl  0  0  0  0  0  0  0  0  0  0  0  0
   36.3810   30.5490   30.8850 C   0  0  0  0  0  0  0  0  0  0  0  0
   36.6470   31.2270   30.0720 H   0  0  0  0  0  0  0  0  0  0  0  0
  1  6  1  6  0  0  0
  1 11  1  0  0  0  0
  1  2  1  0  0  0  0
  2  7  1  1  0  0  0
  2 13  1  0  0  0  0
  3  2  1  0  0  0  0
  4  5  1  0  0  0  0
  4  3  1  0  0  0  0
  5 10  1  1  0  0  0
  5  1  1  0  0  0  0
  8  4  1  0  0  0  0
  9  4  1  0  0  0  0
 11 12  1  0  0  0  0
 14 19  1  0  0  0  0
 14 20  1  0  0  0  0
 15 14  2  0  0  0  0
 16 17  2  0  0  0  0
 16 15  1  0  0  0  0
 17 18  1  0  0  0  0
 18 13  1  0  0  0  0
 18 19  2  0  0  0  0
 21 15  1  0  0  0  0
 22 16  1  0  0  0  0
 23  5  1  0  0  0  0
 25 24  1  0  0  0  0
 26 25  1  0  0  0  0
 26 23  1  0  0  0  0
 27 26  2  0  0  0  0
 28 29  2  0  0  0  0
 28 27  1  0  0  0  0
 29 30  1  0  0  0  0
 30 36  1  0  0  0  0
 30 25  2  0  0  0  0
 31 27  1  0  0  0  0
 32 28  1  0  0  0  0
 33 29  1  0  0  0  0
 34 35  1  0  0  0  0
 35 42  2  0  0  0  0
 35 36  1  0  0  0  0
 36 37  2  0  0  0  0
 37 39  1  0  0  0  0
 37 38  1  0  0  0  0
 40 41  1  0  0  0  0
 40 39  2  0  0  0  0
 42 40  1  0  0  0  0
 43 42  1  0  0  0  0
M  END
>  <minimizedAffinity>
-5.66353035

$$$$

 OpenBabel03272506493D

 43 46  0  0  1  0  0  0  0  0999 V2000
   40.9950   23.2920   32.9190 C   0  0  2  0  0  0  0  0  0  0  0  0
   41.4290   23.3060   34.3550 C   0  0  1  0  0  0  0  0  0  0  0  0
   40.9580   24.4500   34.9270 O   0  0  0  0  0  0  0  0  0  0  0  0
   40.0250   25.0370   34.0780 C   0  0  0  0  0  0  0  0  0  0  0  0
   39.6080   23.9900   33.0770 C   0  0  1  0  0  0  0  0  0  0  0  0
   41.5700   23.9110   32.2390 H   0  0  0  0  0  0  0  0  0  0  0  0
   42.5260   23.2210   34.4690 H   0  0  0  0  0  0  0  0  0  0  0  0
   40.4780   25.9320   33.6820 H   0  0  0  0  0  0  0  0  0  0  0  0
   39.0910   25.3140   34.6300 H   0  0  0  0  0  0  0  0  0  0  0  0
   38.9270   23.2500   33.5000 H   0  0  0  0  0  0  0  0  0  0  0  0
   40.7930   21.9700   32.4720 O   0  0  0  0  0  0  0  0  0  0  0  0
   41.1450   21.3040   33.1170 H   0  0  0  0  0  0  0  0  0  0  0  0
   40.6210   21.8800   35.1900 S   0  0  0  0  0  0  0  0  0  0  0  0
   37.3880   23.1640   37.0890 C   0  0  0  0  0  0  0  0  0  0  0  0
   37.8190   23.4790   38.3750 C   0  0  0  0  0  0  0  0  0  0  0  0
   39.1780   23.2850   38.6700 C   0  0  0  0  0  0  0  0  0  0  0  0
   39.9970   22.8020   37.6930 N   0  0  0  0  0  0  0  0  0  0  0  0
   39.5280   22.5120   36.4590 C   0  0  0  0  0  0  0  0  0  0  0  0
   38.2200   22.6890   36.1390 N   0  0  0  0  0  0  0  0  0  0  0  0
   36.3650   23.2770   36.7580 H   0  0  0  0  0  0  0  0  0  0  0  0
   37.0880   23.8580   39.0880 H   0  0  0  0  0  0  0  0  0  0  0  0
   39.5210   23.5210   39.6520 H   0  0  0  0  0  0  0  0  0  0  0  0
   39.2330   24.6110   31.9110 O   0  0  0  0  0  0  0  0  0  0  0  0
   39.1650   27.5550   31.9250 Cl  0  0  0  0  0  0  0  0  0  0  0  0
   37.8610   26.4350   31.6060 C   0  0  0  0  0  0  0  0  0  0  0  0
   38.0180   25.0690   31.6170 C   0  0  0  0  0  0  0  0  0  0  0  0
   36.9060   24.2780   31.3210 C   0  0  0  0  0  0  0  0  0  0  0  0
   35.6890   24.8570   31.0280 C   0  0  0  0  0  0  0  0  0  0  0  0
   35.5200   26.2310   31.0150 C   0  0  0  0  0  0  0  0  0  0  0  0
   36.6180   27.0190   31.3070 C   0  0  0  0  0  0  0  0  0  0  0  0
   36.9380   23.2030   31.3020 H   0  0  0  0  0  0  0  0  0  0  0  0
   34.7900   24.3100   30.7900 H   0  0  0  0  0  0  0  0  0  0  0  0
   34.5810   26.7300   30.7890 H   0  0  0  0  0  0  0  0  0  0  0  0
   37.4310   28.6200   28.8390 Cl  0  0  0  0  0  0  0  0  0  0  0  0
   36.7670   29.3350   30.2900 C   0  0  0  0  0  0  0  0  0  0  0  0
   36.4590   28.4690   31.2980 C   0  0  0  0  0  0  0  0  0  0  0  0
   35.9220   28.9320   32.5050 C   0  0  0  0  0  0  0  0  0  0  0  0
   35.6430   28.3290   33.3670 H   0  0  0  0  0  0  0  0  0  0  0  0
   35.7000   30.3010   32.6760 C   0  0  0  0  0  3  0  0  0  0  0  0
   36.0180   31.1610   31.6450 C   0  0  0  0  0  0  0  0  0  0  0  0
   35.7410   32.8910   31.8500 Cl  0  0  0  0  0  0  0  0  0  0  0  0
   36.5470   30.7020   30.4570 C   0  0  0  0  0  0  0  0  0  0  0  0
   36.8090   31.3550   29.6230 H   0  0  0  0  0  0  0  0  0  0  0  0
  1  6  1  6  0  0  0
  1  5  1  0  0  0  0
  1  2  1  0  0  0  0
  2  7  1  1  0  0  0
  2  3  1  0  0  0  0
  2 13  1  0  0  0  0
  4  9  1  0  0  0  0
  4  3  1  0  0  0  0
  5 10  1  1  0  0  0
  5  4  1  0  0  0  0
  8  4  1  0  0  0  0
 11  1  1  0  0  0  0
 11 12  1  0  0  0  0
 13 18  1  0  0  0  0
 14 15  1  0  0  0  0
 15 16  2  0  0  0  0
 15 21  1  0  0  0  0
 16 22  1  0  0  0  0
 17 16  1  0  0  0  0
 18 17  2  0  0  0  0
 19 18  1  0  0  0  0
 19 14  2  0  0  0  0
 20 14  1  0  0  0  0
 23  5  1  0  0  0  0
 25 26  1  0  0  0  0
 25 24  1  0  0  0  0
 26 23  1  0  0  0  0
 27 26  2  0  0  0  0
 28 27  1  0  0  0  0
 29 28  2  0  0  0  0
 29 30  1  0  0  0  0
 30 25  2  0  0  0  0
 31 27  1  0  0  0  0
 32 28  1  0  0  0  0
 33 29  1  0  0  0  0
 34 35  1  0  0  0  0
 35 42  2  0  0  0  0
 35 36  1  0  0  0  0
 36 30  1  0  0  0  0
 36 37  2  0  0  0  0
 37 39  1  0  0  0  0
 37 38  1  0  0  0  0
 40 41  1  0  0  0  0
 40 39  2  0  0  0  0
 42 40  1  0  0  0  0
 43 42  1  0  0  0  0
M  END
>  <minimizedAffinity>
-5.59212971

$$$$

 OpenBabel03272506493D

 43 46  0  0  1  0  0  0  0  0999 V2000
   35.1490   31.5900   35.2200 C   0  0  2  0  0  0  0  0  0  0  0  0
   33.6760   31.8640   35.2880 C   0  0  1  0  0  0  0  0  0  0  0  0
   33.0530   31.0470   34.3930 O   0  0  0  0  0  0  0  0  0  0  0  0
   33.9490   30.0750   33.9590 C   0  0  0  0  0  0  0  0  0  0  0  0
   35.0990   30.0560   34.9330 C   0  0  1  0  0  0  0  0  0  0  0  0
   35.6820   32.0370   34.3880 H   0  0  0  0  0  0  0  0  0  0  0  0
   33.4320   32.9270   35.1010 H   0  0  0  0  0  0  0  0  0  0  0  0
   34.1880   30.3030   32.9320 H   0  0  0  0  0  0  0  0  0  0  0  0
   33.4950   29.0520   34.0100 H   0  0  0  0  0  0  0  0  0  0  0  0
   34.8460   29.5660   35.8740 H   0  0  0  0  0  0  0  0  0  0  0  0
   35.7540   31.8000   36.4770 O   0  0  0  0  0  0  0  0  0  0  0  0
   35.1410   32.2560   37.1100 H   0  0  0  0  0  0  0  0  0  0  0  0
   33.1040   31.3990   36.9730 S   0  0  0  0  0  0  0  0  0  0  0  0
   29.3390   30.2600   36.5010 C   0  0  0  0  0  0  0  0  0  0  0  0
   29.3640   28.8700   36.5670 C   0  0  0  0  0  0  0  0  0  0  0  0
   30.6100   28.2530   36.7690 C   0  0  0  0  0  0  0  0  0  0  0  0
   31.7170   29.0380   36.8870 N   0  0  0  0  0  0  0  0  0  0  0  0
   31.6370   30.3850   36.8150 C   0  0  0  0  0  0  0  0  0  0  0  0
   30.4500   31.0150   36.6230 N   0  0  0  0  0  0  0  0  0  0  0  0
   28.4340   30.8330   36.3510 H   0  0  0  0  0  0  0  0  0  0  0  0
   28.4260   28.3270   36.4620 H   0  0  0  0  0  0  0  0  0  0  0  0
   30.6450   27.1870   36.8200 H   0  0  0  0  0  0  0  0  0  0  0  0
   36.2320   29.6400   34.2790 O   0  0  0  0  0  0  0  0  0  0  0  0
   36.6860   26.7310   34.2210 Cl  0  0  0  0  0  0  0  0  0  0  0  0
   36.5220   27.8370   32.8770 C   0  0  0  0  0  0  0  0  0  0  0  0
   36.2990   29.1850   33.0300 C   0  0  0  0  0  0  0  0  0  0  0  0
   36.1600   29.9630   31.8780 C   0  0  0  0  0  0  0  0  0  0  0  0
   36.2450   29.3880   30.6280 C   0  0  0  0  0  0  0  0  0  0  0  0
   36.4700   28.0320   30.4620 C   0  0  0  0  0  0  0  0  0  0  0  0
   36.6090   27.2580   31.5990 C   0  0  0  0  0  0  0  0  0  0  0  0
   35.9790   31.0230   31.9030 H   0  0  0  0  0  0  0  0  0  0  0  0
   36.1480   29.9260   29.6970 H   0  0  0  0  0  0  0  0  0  0  0  0
   36.5440   27.5370   29.4970 H   0  0  0  0  0  0  0  0  0  0  0  0
   39.4660   26.1850   31.5750 Cl  0  0  0  0  0  0  0  0  0  0  0  0
   38.0460   25.1790   31.4130 C   0  0  0  0  0  0  0  0  0  0  0  0
   36.8460   25.8260   31.4450 C   0  0  0  0  0  0  0  0  0  0  0  0
   35.6430   25.1200   31.3240 C   0  0  0  0  0  0  0  0  0  0  0  0
   34.6380   25.5370   31.3360 H   0  0  0  0  0  0  0  0  0  0  0  0
   35.6770   23.7310   31.1670 C   0  0  0  0  0  3  0  0  0  0  0  0
   36.9010   23.0940   31.1370 C   0  0  0  0  0  0  0  0  0  0  0  0
   36.9550   21.3420   30.9400 Cl  0  0  0  0  0  0  0  0  0  0  0  0
   38.0840   23.7940   31.2570 C   0  0  0  0  0  0  0  0  0  0  0  0
   39.0670   23.3200   31.2370 H   0  0  0  0  0  0  0  0  0  0  0  0
  1  6  1  6  0  0  0
  1  2  1  0  0  0  0
  1 11  1  0  0  0  0
  2  7  1  6  0  0  0
  2 13  1  0  0  0  0
  3  2  1  0  0  0  0
  4  9  1  0  0  0  0
  4  3  1  0  0  0  0
  4  5  1  0  0  0  0
  5  1  1  0  0  0  0
  5 10  1  1  0  0  0
  8  4  1  0  0  0  0
 11 12  1  0  0  0  0
 14 15  2  0  0  0  0
 14 19  1  0  0  0  0
 15 16  1  0  0  0  0
 16 22  1  0  0  0  0
 16 17  2  0  0  0  0
 18 17  1  0  0  0  0
 18 13  1  0  0  0  0
 19 18  2  0  0  0  0
 20 14  1  0  0  0  0
 21 15  1  0  0  0  0
 23  5  1  0  0  0  0
 25 26  1  0  0  0  0
 25 24  1  0  0  0  0
 26 23  1  0  0  0  0
 27 31  1  0  0  0  0
 27 26  2  0  0  0  0
 28 27  1  0  0  0  0
 29 28  2  0  0  0  0
 29 30  1  0  0  0  0
 30 25  2  0  0  0  0
 32 28  1  0  0  0  0
 33 29  1  0  0  0  0
 35 36  1  0  0  0  0
 35 34  1  0  0  0  0
 36 30  1  0  0  0  0
 37 38  1  0  0  0  0
 37 36  2  0  0  0  0
 39 37  1  0  0  0  0
 40 39  2  0  0  0  0
 40 42  1  0  0  0  0
 41 40  1  0  0  0  0
 42 35  2  0  0  0  0
 43 42  1  0  0  0  0
M  END
>  <minimizedAffinity>
-5.56044436

$$$$
