
     RDKit          3D

 34 36  0  0  0  0  0  0  0  0999 V2000
   37.3467   30.2959   50.5442 C   0  0  0  0  0  0  0  0  0  0  0  0
   36.7676   30.7325   49.3456 C   0  0  0  0  0  0  0  0  0  0  0  0
   35.4342   30.4031   49.1364 C   0  0  0  0  0  0  0  0  0  0  0  0
   34.7685   29.6843   50.0909 N   0  0  0  0  0  0  0  0  0  0  0  0
   35.3835   29.2897   51.2317 C   0  0  0  0  0  0  0  0  0  0  0  0
   36.6882   29.5901   51.4784 N   0  0  0  0  0  0  0  0  0  0  0  0
   37.5042   31.4788   48.3833 N   0  0  0  0  0  0  0  0  0  0  0  0
   37.2820   31.1750   46.9561 C   0  0  0  0  0  0  0  0  0  0  0  0
   38.2759   31.8350   46.0858 C   0  0  0  0  0  0  0  0  0  0  0  0
   39.5093   32.0305   46.8095 N   0  0  0  0  0  0  0  0  0  0  0  0
   39.2093   33.1159   47.7563 C   0  0  0  0  0  0  0  0  0  0  0  0
   38.4217   32.4853   48.8679 C   0  0  1  0  0  0  0  0  0  0  0  0
   38.3819   30.5237   50.7599 H   0  0  0  0  0  0  0  0  0  0  0  0
   34.9533   30.7226   48.2235 H   0  0  0  0  0  0  0  0  0  0  0  0
   34.8333   28.7208   51.9725 H   0  0  0  0  0  0  0  0  0  0  0  0
   36.2427   31.5009   46.7436 H   0  0  0  0  0  0  0  0  0  0  0  0
   37.2897   30.0826   46.8092 H   0  0  0  0  0  0  0  0  0  0  0  0
   38.4449   31.3020   45.1478 H   0  0  0  0  0  0  0  0  0  0  0  0
   37.8793   32.8574   45.8356 H   0  0  0  0  0  0  0  0  0  0  0  0
   40.2318   32.3991   46.1494 H   0  0  0  0  0  0  0  0  0  0  0  0
   38.6502   33.9200   47.2371 H   0  0  0  0  0  0  0  0  0  0  0  0
   40.1602   33.5107   48.1974 H   0  0  0  0  0  0  0  0  0  0  0  0
   39.1092   32.0597   49.6314 H   0  0  0  0  0  0  0  0  0  0  0  0
   37.2033   31.8812   51.5773 Cl  0  0  0  0  0  0  0  0  0  0  0  0
   37.0040   33.4086   50.7158 C   0  0  0  0  0  0  0  0  0  0  0  0
   37.6091   33.5773   49.4758 C   0  0  0  0  0  0  0  0  0  0  0  0
   37.4109   34.7990   48.8577 C   0  0  0  0  0  0  0  0  0  0  0  0
   37.8492   34.9903   47.9036 H   0  0  0  0  0  0  0  0  0  0  0  0
   36.6573   35.8093   49.4232 C   0  0  0  0  0  0  0  0  0  0  0  0
   36.0642   35.6205   50.6576 C   0  0  0  0  0  0  0  0  0  0  0  0
   35.1236   36.9441   51.3135 Cl  0  0  0  0  0  0  0  0  0  0  0  0
   36.2527   34.4160   51.2797 C   0  0  0  0  0  0  0  0  0  0  0  0
   35.7838   34.2825   52.2432 H   0  0  0  0  0  0  0  0  0  0  0  0
   36.5266   36.7544   48.9035 H   0  0  0  0  0  0  0  0  0  0  0  0
  1  6  2  0
  2  1  1  0
  3  2  2  0
  3  4  1  0
  4  5  2  0
  5  6  1  0
  7 12  1  0
  7  2  1  0
  8  7  1  0
  9 10  1  0
  9  8  1  0
 10 11  1  0
 11 12  1  0
  1 13  1  0
  3 14  1  0
  5 15  1  0
  8 16  1  0
  8 17  1  0
  9 18  1  0
  9 19  1  0
 10 20  1  0
 11 21  1  0
 11 22  1  0
 12 23  1  1
 24 25  1  0
 25 26  2  0
 26 27  1  0
 27 28  1  0
 27 29  2  0
 29 30  1  0
 30 31  1  0
 30 32  2  0
 32 33  1  0
 32 25  1  0
 29 34  1  0
 12 26  1  0
M  ISO  8  13  14  14  14  15  14  16  13  17  13  18  13  19  13  20   5
M  ISO  5  21  13  22  13  23  13  28  16  33  15
M  END
>  <DihAtoms>  (1) 
6,11,25,24

>  <DihDeg>  (1) 
149.72950590409536

$$$$
