REMARK  Name = 
REMARK  2 active torsions:
REMARK  status: ('A' for Active; 'I' for Inactive)
REMARK    1  A    between atoms: C_1  and  O_7
REMARK    2  A    between atoms: C_3  and  C_13
REMARK                            x       y       z     vdW  Elec       q    Type
REMARK                         _______ _______ _______ _____ _____    ______ ____
ROOT
ATOM      1  C   UNL     1      37.306  30.003  51.170  0.00  0.00    +0.000 A 
ATOM      2  C   UNL     1      37.961  30.925  50.349  0.00  0.00    +0.000 A 
ATOM      3  C   UNL     1      37.281  31.389  49.236  0.00  0.00    +0.000 A 
ATOM      4  N   UNL     1      36.016  30.914  49.017  0.00  0.00    +0.000 NA
ATOM      5  C   UNL     1      35.399  30.023  49.822  0.00  0.00    +0.000 A 
ATOM      6  N   UNL     1      36.065  29.588  50.885  0.00  0.00    +0.000 NA
ATOM      7  H   UNL     1      38.962  31.283  50.548  0.00  0.00    +0.000 HD
ATOM      8  H   UNL     1      34.397  29.683  49.598  0.00  0.00    +0.000 HD
ENDROOT
BRANCH   3  11
ATOM      9 CL   UNL     1      37.518  30.430  46.403  0.00  0.00    +0.000 Cl
ATOM     10  C   UNL     1      37.996  32.022  46.982  0.00  0.00    +0.000 A 
ATOM     11  C   UNL     1      37.838  32.342  48.303  0.00  0.00    +0.000 A 
ATOM     12  C   UNL     1      38.239  33.593  48.641  0.00  0.00    +0.000 A 
ATOM     13  H   UNL     1      38.160  33.951  49.651  0.00  0.00    +0.000 HD
ATOM     14  C   UNL     1      38.778  34.520  47.743  0.00  0.00    +0.000 A 
ATOM     15  C   UNL     1      38.907  34.125  46.432  0.00  0.00    +0.000 A 
ATOM     16 CL   UNL     1      39.578  35.253  45.268  0.00  0.00    +0.000 Cl
ATOM     17  C   UNL     1      38.517  32.868  46.028  0.00  0.00    +0.000 A 
ATOM     18  H   UNL     1      38.642  32.624  45.001  0.00  0.00    +0.000 HD
ENDBRANCH   3  11
BRANCH   1  19
ATOM     19  O   UNL     1      38.067  29.602  52.253  0.00  0.00    +0.000 OA
ATOM     20  H   UNL     1      38.445  30.335  52.844  0.00  0.00    +0.000 HD
ENDBRANCH   1  19
TORSDOF 2
