
 OpenBabel03272510343D

 29 31  0  0  0  0  0  0  0  0999 V2000
   35.9000   30.1170   46.9970 C   0  0  0  0  0  0  0  0  0  0  0  0
   35.3380   30.1120   45.7320 C   0  0  0  0  0  0  0  0  0  0  0  0
   34.2130   29.3380   45.4840 C   0  0  0  0  0  0  0  0  0  0  0  0
   33.6740   28.5870   46.4970 C   0  0  0  0  0  0  0  0  0  0  0  0
   34.2270   28.5840   47.7580 C   0  0  0  0  0  0  0  0  0  0  0  0
   35.3530   29.3560   48.0180 C   0  0  0  0  0  0  0  0  0  0  0  0
   35.7710   30.7080   44.9430 H   0  0  0  0  0  0  0  0  0  0  0  0
   33.8190   29.3770   44.4710 H   0  0  0  0  0  0  0  0  0  0  0  0
   32.7910   28.0060   46.2180 H   0  0  0  0  0  0  0  0  0  0  0  0
   33.7750   27.9800   48.5340 H   0  0  0  0  0  0  0  0  0  0  0  0
   33.5460   29.7570   50.4490 Cl  0  0  0  0  0  0  0  0  0  0  0  0
   35.2910   29.5370   50.5460 C   0  0  0  0  0  0  0  0  0  0  0  0
   35.9530   29.3680   49.3470 C   0  0  0  0  0  0  0  0  0  0  0  0
   37.3250   29.1950   49.4270 C   0  0  0  0  0  0  0  0  0  0  0  0
   37.8950   29.0580   48.5250 H   0  0  0  0  0  0  0  0  0  0  0  0
   38.0410   29.1830   50.6050 C   0  0  0  0  0  3  0  0  0  0  0  0
   37.3630   29.3530   51.7800 C   0  0  0  0  0  0  0  0  0  0  0  0
   38.2240   29.3460   53.3150 Cl  0  0  0  0  0  0  0  0  0  0  0  0
   36.0020   29.5270   51.7400 C   0  0  0  0  0  0  0  0  0  0  0  0
   35.4410   29.6640   52.6550 H   0  0  0  0  0  0  0  0  0  0  0  0
   38.0890   32.6710   48.3900 C   0  0  0  0  0  0  0  0  0  0  0  0
   39.2600   32.5870   47.6460 C   0  0  0  0  0  0  0  0  0  0  0  0
   39.2790   31.6090   46.6320 C   0  0  0  0  0  0  0  0  0  0  0  0
   38.1910   30.8290   46.4410 N   0  0  0  0  0  0  0  0  0  0  0  0
   37.0750   30.9470   47.1900 C   0  0  0  0  0  0  0  0  0  0  0  0
   37.0380   31.8730   48.1610 N   0  0  0  0  0  0  0  0  0  0  0  0
   38.0760   33.4300   49.1780 H   0  0  0  0  0  0  0  0  0  0  0  0
   40.1420   33.1810   47.7620 H   0  0  0  0  0  0  0  0  0  0  0  0
   40.1570   31.4830   46.0080 H   0  0  0  0  0  0  0  0  0  0  0  0
  1 25  1  0  0  0  0
  1  6  1  0  0  0  0
  2  1  2  0  0  0  0
  3  2  1  0  0  0  0
  3  4  2  0  0  0  0
  4  5  1  0  0  0  0
  5  6  2  0  0  0  0
  5 10  1  0  0  0  0
  6 13  1  0  0  0  0
  7  2  1  0  0  0  0
  8  3  1  0  0  0  0
  9  4  1  0  0  0  0
 11 12  1  0  0  0  0
 12 19  1  0  0  0  0
 13 14  1  0  0  0  0
 13 12  2  0  0  0  0
 14 16  2  0  0  0  0
 15 14  1  0  0  0  0
 16 17  1  0  0  0  0
 17 18  1  0  0  0  0
 19 17  2  0  0  0  0
 19 20  1  0  0  0  0
 21 27  1  0  0  0  0
 22 28  1  0  0  0  0
 22 21  2  0  0  0  0
 23 22  1  0  0  0  0
 24 23  2  0  0  0  0
 24 25  1  0  0  0  0
 25 26  2  0  0  0  0
 26 21  1  0  0  0  0
 29 23  1  0  0  0  0
M  END
>  <minimizedAffinity>
-4.41837311

>  <minimizedRMSD>
1.87476993

$$$$
