
     RDKit          3D

 36 38  0  0  0  0  0  0  0  0999 V2000
   39.4381   32.4847   47.1011 O   0  0  0  0  0  0  0  0  0  0  0  0
   38.2996   31.8263   46.4055 P   0  0  2  0  0  0  0  0  0  0  0  0
   37.7201   32.8460   45.1666 O   0  0  0  0  0  0  0  0  0  0  0  0
   37.0295   31.4007   47.4307 O   0  0  0  0  0  0  0  0  0  0  0  0
   37.6104   30.5225   50.9780 C   0  0  0  0  0  0  0  0  0  0  0  0
   37.7078   31.2981   49.8077 C   0  0  0  0  0  0  0  0  0  0  0  0
   37.0726   30.8342   48.6530 C   0  0  0  0  0  0  0  0  0  0  0  0
   36.3933   29.6529   48.7281 N   0  0  0  0  0  0  0  0  0  0  0  0
   36.3226   28.9359   49.8720 C   0  0  0  0  0  0  0  0  0  0  0  0
   36.9376   29.3843   50.9916 N   0  0  0  0  0  0  0  0  0  0  0  0
   38.8717   30.4586   45.6100 O   0  0  0  0  0  0  0  0  0  0  0  0
   36.6221   29.4484   44.0450 Cl  0  0  0  0  0  0  0  0  0  0  0  0
   38.2698   29.8344   43.4904 C   0  0  0  0  0  0  0  0  0  0  0  0
   39.2730   30.3113   44.3150 C   0  0  0  0  0  0  0  0  0  0  0  0
   40.4999   30.5645   43.7380 C   0  0  0  0  0  0  0  0  0  0  0  0
   40.7188   30.3528   42.4002 C   0  0  0  0  0  0  0  0  0  0  0  0
   39.7370   29.8811   41.5692 C   0  0  0  0  0  0  0  0  0  0  0  0
   38.5161   29.6243   42.1207 C   0  0  0  0  0  0  0  0  0  0  0  0
   37.1261   32.3621   44.5575 H   0  0  0  0  0  0  0  0  0  0  0  0
   38.1311   30.9574   51.8201 H   0  0  0  0  0  0  0  0  0  0  0  0
   38.2190   32.2291   49.6706 H   0  0  0  0  0  0  0  0  0  0  0  0
   35.7752   27.9973   49.9071 H   0  0  0  0  0  0  0  0  0  0  0  0
   41.2454   30.9384   44.4448 H   0  0  0  0  0  0  0  0  0  0  0  0
   41.7350   30.5964   42.0850 H   0  0  0  0  0  0  0  0  0  0  0  0
   39.9714   29.7351   40.5250 H   0  0  0  0  0  0  0  0  0  0  0  0
   39.0990   27.3984   40.1144 Cl  0  0  0  0  0  0  0  0  0  0  0  0
   37.5219   28.1302   40.2880 C   0  0  0  0  0  0  0  0  0  0  0  0
   37.4539   29.1192   41.2465 C   0  0  0  0  0  0  0  0  0  0  0  0
   36.2635   29.7867   41.4918 C   0  0  0  0  0  0  0  0  0  0  0  0
   36.0859   30.5741   42.2116 H   0  0  0  0  0  0  0  0  0  0  0  0
   35.1115   29.4721   40.7752 C   0  0  0  0  0  0  0  0  0  0  0  0
   35.1927   28.4677   39.8062 C   0  0  0  0  0  0  0  0  0  0  0  0
   33.7849   28.0221   38.8697 Cl  0  0  0  0  0  0  0  0  0  0  0  0
   36.3858   27.8132   39.5748 C   0  0  0  0  0  0  0  0  0  0  0  0
   36.5121   27.0221   38.8333 H   0  0  0  0  0  0  0  0  0  0  0  0
   34.1510   29.9268   40.8899 H   0  0  0  0  0  0  0  0  0  0  0  0
  2  1  2  0
  2  4  1  1
  3  2  1  0
  4  7  1  0
  5 10  2  0
  6  5  1  0
  7  8  1  0
  7  6  2  0
  8  9  2  0
  9 10  1  0
 11  2  1  0
 13 12  1  0
 13 14  2  0
 14 11  1  0
 15 14  1  0
 16 15  2  0
 17 18  2  0
 17 16  1  0
 18 13  1  0
  3 19  1  0
  5 20  1  0
  6 21  1  0
  9 22  1  0
 15 23  1  0
 16 24  1  0
 17 25  1  0
 26 27  1  0
 27 28  2  0
 28 29  1  0
 29 30  1  0
 29 31  2  0
 31 32  1  0
 32 33  1  0
 32 34  2  0
 34 35  1  0
 34 27  1  0
 31 36  1  0
 18 28  1  0
M  ISO  8  19   3  20  14  21  14  22  14  23  14  24  14  25  14  30  16
M  ISO  1  35  15
M  END
>  <DihAtoms>  (1) 
16,17,27,26

>  <DihDeg>  (1) 
-89.99908122575208

$$$$
