
 OpenBabel03272510343D

 29 31  0  0  0  0  0  0  0  0999 V2000
   35.6710   30.0350   46.4430 C   0  0  0  0  0  0  0  0  0  0  0  0
   36.6700   30.7820   47.0420 C   0  0  0  0  0  0  0  0  0  0  0  0
   37.5740   31.4770   46.2520 C   0  0  0  0  0  0  0  0  0  0  0  0
   37.4650   31.4140   44.8860 C   0  0  0  0  0  0  0  0  0  0  0  0
   36.4750   30.6720   44.2810 C   0  0  0  0  0  0  0  0  0  0  0  0
   35.5640   29.9720   45.0620 C   0  0  0  0  0  0  0  0  0  0  0  0
   36.7450   30.8250   48.1180 H   0  0  0  0  0  0  0  0  0  0  0  0
   38.3350   32.0450   46.7820 H   0  0  0  0  0  0  0  0  0  0  0  0
   38.2170   31.9890   44.3390 H   0  0  0  0  0  0  0  0  0  0  0  0
   36.4180   30.6440   43.2010 H   0  0  0  0  0  0  0  0  0  0  0  0
   33.0240   31.3860   44.1210 Cl  0  0  0  0  0  0  0  0  0  0  0  0
   33.3010   29.6540   43.9620 C   0  0  0  0  0  0  0  0  0  0  0  0
   34.5070   29.1830   44.4420 C   0  0  0  0  0  0  0  0  0  0  0  0
   34.7230   27.8200   44.3150 C   0  0  0  0  0  0  0  0  0  0  0  0
   35.6440   27.3930   44.6690 H   0  0  0  0  0  0  0  0  0  0  0  0
   33.8230   26.9380   43.7520 C   0  0  0  0  0  3  0  0  0  0  0  0
   32.6370   27.4300   43.2850 C   0  0  0  0  0  0  0  0  0  0  0  0
   31.4510   26.3530   42.5580 Cl  0  0  0  0  0  0  0  0  0  0  0  0
   32.3870   28.7750   43.3940 C   0  0  0  0  0  0  0  0  0  0  0  0
   31.4570   29.1910   43.0320 H   0  0  0  0  0  0  0  0  0  0  0  0
   32.5510   28.7690   47.8290 C   0  0  0  0  0  0  0  0  0  0  0  0
   32.9260   28.0280   48.9440 C   0  0  0  0  0  0  0  0  0  0  0  0
   34.3080   27.9740   49.2130 C   0  0  0  0  0  0  0  0  0  0  0  0
   35.1690   28.6250   48.3990 N   0  0  0  0  0  0  0  0  0  0  0  0
   34.7580   29.3320   47.3260 C   0  0  0  0  0  0  0  0  0  0  0  0
   33.4450   29.3950   47.0540 N   0  0  0  0  0  0  0  0  0  0  0  0
   31.4780   28.8090   47.6210 H   0  0  0  0  0  0  0  0  0  0  0  0
   32.2810   27.4990   49.6130 H   0  0  0  0  0  0  0  0  0  0  0  0
   34.6790   27.4160   50.0660 H   0  0  0  0  0  0  0  0  0  0  0  0
  1  2  1  0  0  0  0
  1 25  1  0  0  0  0
  2  7  1  0  0  0  0
  3  8  1  0  0  0  0
  3  2  2  0  0  0  0
  4  3  1  0  0  0  0
  5  4  2  0  0  0  0
  5  6  1  0  0  0  0
  6  1  2  0  0  0  0
  9  4  1  0  0  0  0
 10  5  1  0  0  0  0
 12 11  1  0  0  0  0
 12 13  1  0  0  0  0
 13  6  1  0  0  0  0
 14 13  2  0  0  0  0
 14 15  1  0  0  0  0
 16 14  1  0  0  0  0
 17 19  1  0  0  0  0
 17 16  2  0  0  0  0
 18 17  1  0  0  0  0
 19 12  2  0  0  0  0
 20 19  1  0  0  0  0
 21 22  1  0  0  0  0
 22 23  2  0  0  0  0
 22 28  1  0  0  0  0
 23 29  1  0  0  0  0
 24 23  1  0  0  0  0
 25 24  2  0  0  0  0
 26 25  1  0  0  0  0
 26 21  2  0  0  0  0
 27 21  1  0  0  0  0
M  END
>  <minimizedAffinity>
-3.16654944

>  <minimizedRMSD>
7.64599371

$$$$
