REMARK  Name = 
REMARK  5 active torsions:
REMARK  status: ('A' for Active; 'I' for Inactive)
REMARK    1  A    between atoms: C_1  and  C_2
REMARK    2  A    between atoms: C_1  and  O_9
REMARK    3  A    between atoms: C_2  and  C_3
REMARK    4  A    between atoms: O_9  and  C_14
REMARK    5  A    between atoms: C_12  and  C_27
REMARK                            x       y       z     vdW  Elec       q    Type
REMARK                         _______ _______ _______ _____ _____    ______ ____
ROOT
ATOM      1  C   UNL     1      37.245  30.183  51.278  0.00  0.00    +0.000 A 
ATOM      2  C   UNL     1      37.895  30.610  50.119  0.00  0.00    +0.000 A 
ATOM      3  C   UNL     1      37.427  30.227  48.886  0.00  0.00    +0.000 A 
ATOM      4  N   UNL     1      36.325  29.434  48.928  0.00  0.00    +0.000 NA
ATOM      5  C   UNL     1      35.696  29.020  50.018  0.00  0.00    +0.000 A 
ATOM      6  N   UNL     1      36.170  29.406  51.210  0.00  0.00    +0.000 NA
ATOM      7  H   UNL     1      37.656  30.515  52.224  0.00  0.00    +0.000 HD
ATOM      8  H   UNL     1      38.756  31.221  50.184  0.00  0.00    +0.000 HD
ENDROOT
BRANCH   3  11
ATOM      9 CL   UNL     1      35.638  31.394  46.566  0.00  0.00    +0.000 Cl
ATOM     10  C   UNL     1      37.340  31.049  46.471  0.00  0.00    +0.000 A 
ATOM     11  C   UNL     1      37.955  30.544  47.572  0.00  0.00    +0.000 A 
ATOM     12  C   UNL     1      39.296  30.296  47.352  0.00  0.00    +0.000 A 
ATOM     13  H   UNL     1      39.965  29.885  48.124  0.00  0.00    +0.000 HD
ATOM     14  C   UNL     1      39.937  30.532  46.158  0.00  0.00    +0.000 A 
ATOM     15  C   UNL     1      39.245  31.046  45.090  0.00  0.00    +0.000 A 
ATOM     16 CL   UNL     1      40.078  31.340  43.580  0.00  0.00    +0.000 Cl
ATOM     17  C   UNL     1      37.915  31.303  45.272  0.00  0.00    +0.000 A 
ATOM     18  H   UNL     1      37.380  31.706  44.429  0.00  0.00    +0.000 HD
ENDBRANCH   3  11
BRANCH   5  19
ATOM     19  O   UNL     1      34.602  28.220  49.752  0.00  0.00    +0.000 OA
BRANCH  19  20
ATOM     20  C   UNL     1      33.726  28.593  48.708  0.00  0.00    +0.000 C 
ATOM     21  H   UNL     1      34.258  29.045  47.847  0.00  0.00    +0.000 HD
ATOM     22  H   UNL     1      33.072  29.410  49.126  0.00  0.00    +0.000 HD
BRANCH  20  23
ATOM     23  C   UNL     1      32.822  27.467  48.330  0.00  0.00    +0.000 C 
ATOM     24  H   UNL     1      32.983  26.566  48.952  0.00  0.00    +0.000 HD
ATOM     25  H   UNL     1      33.059  27.174  47.282  0.00  0.00    +0.000 HD
BRANCH  23  26
ATOM     26  C   UNL     1      31.380  27.865  48.338  0.00  0.00    +0.000 A 
ATOM     27  C   UNL     1      30.694  27.727  49.539  0.00  0.00    +0.000 A 
ATOM     28  C   UNL     1      29.363  28.069  49.645  0.00  0.00    +0.000 A 
ATOM     29  N   UNL     1      28.715  28.539  48.588  0.00  0.00    +0.000 NA
ATOM     30  C   UNL     1      29.399  28.669  47.419  0.00  0.00    +0.000 A 
ATOM     31  N   UNL     1      30.693  28.345  47.286  0.00  0.00    +0.000 NA
ATOM     32  H   UNL     1      31.192  27.346  50.425  0.00  0.00    +0.000 HD
ATOM     33  H   UNL     1      28.825  27.963  50.578  0.00  0.00    +0.000 HD
ATOM     34  H   UNL     1      28.985  29.043  46.475  0.00  0.00    +0.000 HD
ENDBRANCH  23  26
ENDBRANCH  20  23
ENDBRANCH  19  20
ENDBRANCH   5  19
TORSDOF 5
