
 OpenBabel03272508483D

 41 45  0  0  0  0  0  0  0  0999 V2000
   35.5000   29.5370   49.6450 C   0  0  0  0  0  0  0  0  0  0  0  0
   36.5330   29.1640   50.4850 C   0  0  0  0  0  0  0  0  0  0  0  0
   37.6610   29.6730   49.8510 C   0  0  0  0  0  0  0  0  0  0  0  0
   37.2790   30.3140   48.6880 C   0  0  0  0  0  0  0  0  0  0  0  0
   35.9780   30.2080   48.6050 O   0  0  0  0  0  0  0  0  0  0  0  0
   36.4590   28.6180   51.3950 H   0  0  0  0  0  0  0  0  0  0  0  0
   38.6740   29.5520   50.2610 H   0  0  0  0  0  0  0  0  0  0  0  0
   38.5860   32.2600   47.9860 C   0  0  0  0  0  0  0  0  0  0  0  0
   38.1500   30.9780   47.7380 C   0  0  0  0  0  0  0  0  0  0  0  0
   38.5300   30.2940   46.5830 C   0  0  0  0  0  0  0  0  0  0  0  0
   39.3610   30.8990   45.6570 C   0  0  0  0  0  0  0  0  0  0  0  0
   39.8910   30.5160   44.4790 N   0  0  0  0  0  0  0  0  0  0  0  0
   40.6230   31.5360   44.0320 N   0  0  0  0  0  0  0  0  0  0  0  0
   40.5710   32.5650   44.9040 C   0  0  0  0  0  0  0  0  0  0  0  0
   39.7600   32.1790   45.9630 C   0  0  0  0  0  0  0  0  0  0  0  0
   39.4290   32.9040   47.0700 C   0  0  0  0  0  0  0  0  0  0  0  0
   38.2770   32.7820   48.9010 H   0  0  0  0  0  0  0  0  0  0  0  0
   38.2140   29.2810   46.3400 H   0  0  0  0  0  0  0  0  0  0  0  0
   39.7390   29.5930   44.0300 H   0  0  0  0  0  0  0  0  0  0  0  0
   41.0800   33.5370   44.7940 H   0  0  0  0  0  0  0  0  0  0  0  0
   39.7640   33.8940   47.2650 H   0  0  0  0  0  0  0  0  0  0  0  0
   34.0980   29.2330   49.8770 C   0  0  0  0  0  0  0  0  0  0  0  0
   33.5370   29.7760   50.8580 O   0  0  0  0  0  0  0  0  0  0  0  0
   31.3930   27.2580   48.4400 C   0  0  0  0  0  0  0  0  0  0  0  0
   32.0130   26.6310   47.3540 C   0  0  0  0  0  0  0  0  0  0  0  0
   33.3410   26.8720   47.1080 C   0  0  0  0  0  0  0  0  0  0  0  0
   33.9960   27.7200   47.9400 N   0  0  0  0  0  0  0  0  0  0  0  0
   33.3900   28.3220   48.9860 C   0  0  0  0  0  0  0  0  0  0  0  0
   32.0850   28.0870   49.2320 N   0  0  0  0  0  0  0  0  0  0  0  0
   30.3640   27.1010   48.6710 H   0  0  0  0  0  0  0  0  0  0  0  0
   31.4270   25.9730   46.7440 H   0  0  0  0  0  0  0  0  0  0  0  0
   34.2500   24.0690   47.5960 Cl  0  0  0  0  0  0  0  0  0  0  0  0
   34.5030   24.9520   46.1250 C   0  0  0  0  0  0  0  0  0  0  0  0
   34.0430   26.2480   45.9940 C   0  0  0  0  0  0  0  0  0  0  0  0
   34.2970   26.8430   44.7980 C   0  0  0  0  0  0  0  0  0  0  0  0
   33.9650   27.8530   44.6310 H   0  0  0  0  0  0  0  0  0  0  0  0
   34.9670   26.2190   43.7660 C   0  0  0  0  0  3  0  0  0  0  0  0
   35.4160   24.9190   43.9280 C   0  0  0  0  0  0  0  0  0  0  0  0
   36.2660   24.1750   42.5680 Cl  0  0  0  0  0  0  0  0  0  0  0  0
   35.1780   24.2700   45.1370 C   0  0  0  0  0  0  0  0  0  0  0  0
   35.5390   23.2590   45.2300 H   0  0  0  0  0  0  0  0  0  0  0  0
  1 22  1  0  0  0  0
  1  2  2  0  0  0  0
  2  6  1  0  0  0  0
  3  7  1  0  0  0  0
  3  2  1  0  0  0  0
  4  3  2  0  0  0  0
  5  4  1  0  0  0  0
  5  1  1  0  0  0  0
  8 17  1  0  0  0  0
  9  8  1  0  0  0  0
  9  4  1  0  0  0  0
 10  9  2  0  0  0  0
 11 15  2  0  0  0  0
 11 10  1  0  0  0  0
 12 11  1  0  0  0  0
 13 12  1  0  0  0  0
 13 14  2  0  0  0  0
 14 15  1  0  0  0  0
 15 16  1  0  0  0  0
 16 21  1  0  0  0  0
 16  8  2  0  0  0  0
 18 10  1  0  0  0  0
 19 12  1  0  0  0  0
 20 14  1  0  0  0  0
 22 23  2  0  0  0  0
 24 30  1  0  0  0  0
 24 29  1  0  0  0  0
 25 24  2  0  0  0  0
 26 25  1  0  0  0  0
 26 27  2  0  0  0  0
 27 28  1  0  0  0  0
 28 29  2  0  0  0  0
 28 22  1  0  0  0  0
 31 25  1  0  0  0  0
 33 32  1  0  0  0  0
 34 33  1  0  0  0  0
 34 26  1  0  0  0  0
 35 34  2  0  0  0  0
 36 35  1  0  0  0  0
 37 38  2  0  0  0  0
 37 35  1  0  0  0  0
 38 40  1  0  0  0  0
 39 38  1  0  0  0  0
 40 41  1  0  0  0  0
 40 33  2  0  0  0  0
M  END
>  <minimizedAffinity>
-6.86088371

>  <minimizedRMSD>
0.997037947

$$$$
