
 OpenBabel03272506473D

 43 46  0  0  1  0  0  0  0  0999 V2000
   32.0170   28.3660   47.4880 C   0  0  2  0  0  0  0  0  0  0  0  0
   33.2770   28.1650   48.2790 C   0  0  1  0  0  0  0  0  0  0  0  0
   33.6440   26.8580   48.1620 O   0  0  0  0  0  0  0  0  0  0  0  0
   32.9040   26.2620   47.1450 C   0  0  0  0  0  0  0  0  0  0  0  0
   32.3020   27.3700   46.3190 C   0  0  1  0  0  0  0  0  0  0  0  0
   31.0990   28.0290   47.9560 H   0  0  0  0  0  0  0  0  0  0  0  0
   33.1650   28.4580   49.3390 H   0  0  0  0  0  0  0  0  0  0  0  0
   32.2140   25.5790   47.6150 H   0  0  0  0  0  0  0  0  0  0  0  0
   33.5640   25.6900   46.4440 H   0  0  0  0  0  0  0  0  0  0  0  0
   33.0300   27.8510   45.6640 H   0  0  0  0  0  0  0  0  0  0  0  0
   31.9590   29.6760   46.9690 O   0  0  0  0  0  0  0  0  0  0  0  0
   32.6530   30.2620   47.3660 H   0  0  0  0  0  0  0  0  0  0  0  0
   34.5870   29.1940   47.5000 S   0  0  0  0  0  0  0  0  0  0  0  0
   37.0010   29.2480   50.6430 C   0  0  0  0  0  0  0  0  0  0  0  0
   37.4170   30.5710   50.7630 C   0  0  0  0  0  0  0  0  0  0  0  0
   36.9260   31.4940   49.8250 C   0  0  0  0  0  0  0  0  0  0  0  0
   36.0780   31.0520   48.8550 N   0  0  0  0  0  0  0  0  0  0  0  0
   35.7040   29.7540   48.7820 C   0  0  0  0  0  0  0  0  0  0  0  0
   36.1580   28.8360   49.6730 N   0  0  0  0  0  0  0  0  0  0  0  0
   37.3180   28.4600   51.3120 H   0  0  0  0  0  0  0  0  0  0  0  0
   38.0990   30.8290   51.5730 H   0  0  0  0  0  0  0  0  0  0  0  0
   37.2380   32.5110   49.9050 H   0  0  0  0  0  0  0  0  0  0  0  0
   31.1320   26.9240   45.7570 O   0  0  0  0  0  0  0  0  0  0  0  0
   29.9440   29.1620   44.2570 Cl  0  0  0  0  0  0  0  0  0  0  0  0
   29.2470   28.2310   45.5630 C   0  0  0  0  0  0  0  0  0  0  0  0
   29.8990   27.1920   46.1830 C   0  0  0  0  0  0  0  0  0  0  0  0
   29.2280   26.5060   47.1970 C   0  0  0  0  0  0  0  0  0  0  0  0
   27.9480   26.8660   47.5600 C   0  0  0  0  0  0  0  0  0  0  0  0
   27.2810   27.9120   46.9430 C   0  0  0  0  0  0  0  0  0  0  0  0
   27.9420   28.5940   45.9390 C   0  0  0  0  0  0  0  0  0  0  0  0
   29.6590   25.6780   47.7320 H   0  0  0  0  0  0  0  0  0  0  0  0
   27.3690   26.3830   48.3330 H   0  0  0  0  0  0  0  0  0  0  0  0
   26.2730   28.2300   47.1970 H   0  0  0  0  0  0  0  0  0  0  0  0
   26.5550   28.1330   43.2590 Cl  0  0  0  0  0  0  0  0  0  0  0  0
   26.5890   29.6720   44.0860 C   0  0  0  0  0  0  0  0  0  0  0  0
   27.2560   29.6980   45.2760 C   0  0  0  0  0  0  0  0  0  0  0  0
   27.3470   30.8770   46.0240 C   0  0  0  0  0  0  0  0  0  0  0  0
   27.8530   31.0050   46.9800 H   0  0  0  0  0  0  0  0  0  0  0  0
   26.7460   32.0440   45.5420 C   0  0  0  0  0  3  0  0  0  0  0  0
   26.0760   31.9960   44.3370 C   0  0  0  0  0  0  0  0  0  0  0  0
   25.3140   33.4630   43.7190 Cl  0  0  0  0  0  0  0  0  0  0  0  0
   25.9880   30.8330   43.6020 C   0  0  0  0  0  0  0  0  0  0  0  0
   25.4660   30.7630   42.6460 H   0  0  0  0  0  0  0  0  0  0  0  0
  1  6  1  1  0  0  0
  1  2  1  0  0  0  0
  2  7  1  1  0  0  0
  3  2  1  0  0  0  0
  4  8  1  0  0  0  0
  4  3  1  0  0  0  0
  5 10  1  6  0  0  0
  5  4  1  0  0  0  0
  5  1  1  0  0  0  0
  9  4  1  0  0  0  0
 11 12  1  0  0  0  0
 11  1  1  0  0  0  0
 13  2  1  0  0  0  0
 13 18  1  0  0  0  0
 14 15  1  0  0  0  0
 14 20  1  0  0  0  0
 15 21  1  0  0  0  0
 16 22  1  0  0  0  0
 16 15  2  0  0  0  0
 17 16  1  0  0  0  0
 18 17  2  0  0  0  0
 18 19  1  0  0  0  0
 19 14  2  0  0  0  0
 23 26  1  0  0  0  0
 23  5  1  0  0  0  0
 24 25  1  0  0  0  0
 25 30  2  0  0  0  0
 25 26  1  0  0  0  0
 26 27  2  0  0  0  0
 27 28  1  0  0  0  0
 27 31  1  0  0  0  0
 28 32  1  0  0  0  0
 29 33  1  0  0  0  0
 29 28  2  0  0  0  0
 30 29  1  0  0  0  0
 34 35  1  0  0  0  0
 35 36  1  0  0  0  0
 36 30  1  0  0  0  0
 36 37  2  0  0  0  0
 37 38  1  0  0  0  0
 39 37  1  0  0  0  0
 40 39  2  0  0  0  0
 41 40  1  0  0  0  0
 42 35  2  0  0  0  0
 42 40  1  0  0  0  0
 43 42  1  0  0  0  0
M  END
>  <minimizedAffinity>
-5.80017138

>  <minimizedRMSD>
0.457220286

$$$$
