
 OpenBabel03272509503D

 34 36  0  0  0  0  0  0  0  0999 V2000
   37.1520   29.9200   51.6190 C   0  0  0  0  0  0  0  0  0  0  0  0
   37.9700   30.5560   50.6840 C   0  0  0  0  0  0  0  0  0  0  0  0
   37.5460   30.7050   49.3860 C   0  0  0  0  0  0  0  0  0  0  0  0
   36.3130   30.1920   49.1390 N   0  0  0  0  0  0  0  0  0  0  0  0
   35.5240   29.5860   50.0140 C   0  0  0  0  0  0  0  0  0  0  0  0
   35.9580   29.4520   51.2740 N   0  0  0  0  0  0  0  0  0  0  0  0
   37.5360   29.8300   52.6280 H   0  0  0  0  0  0  0  0  0  0  0  0
   38.9230   30.9170   50.9660 H   0  0  0  0  0  0  0  0  0  0  0  0
   38.7920   33.5980   49.5270 Cl  0  0  0  0  0  0  0  0  0  0  0  0
   38.8290   32.5340   48.1520 C   0  0  0  0  0  0  0  0  0  0  0  0
   38.2360   31.3170   48.2660 C   0  0  0  0  0  0  0  0  0  0  0  0
   38.3200   30.5850   47.0980 C   0  0  0  0  0  0  0  0  0  0  0  0
   37.8990   29.5720   46.9920 H   0  0  0  0  0  0  0  0  0  0  0  0
   38.9330   31.0330   45.9510 C   0  0  0  0  0  3  0  0  0  0  0  0
   39.5120   32.2780   45.9140 C   0  0  0  0  0  0  0  0  0  0  0  0
   40.2860   32.8300   44.4460 Cl  0  0  0  0  0  0  0  0  0  0  0  0
   39.4470   33.0300   47.0540 C   0  0  0  0  0  0  0  0  0  0  0  0
   39.9030   34.0040   47.0170 H   0  0  0  0  0  0  0  0  0  0  0  0
   34.3240   29.1650   49.4740 O   0  0  0  0  0  0  0  0  0  0  0  0
   34.3350   28.5130   48.2210 C   0  0  0  0  0  0  0  0  0  0  0  0
   35.3560   28.2250   47.9000 H   0  0  0  0  0  0  0  0  0  0  0  0
   33.9810   29.2740   47.4700 H   0  0  0  0  0  0  0  0  0  0  0  0
   33.3560   27.3860   48.1880 C   0  0  0  0  0  0  0  0  0  0  0  0
   33.4020   26.7560   49.0960 H   0  0  0  0  0  0  0  0  0  0  0  0
   33.6210   26.7270   47.3310 H   0  0  0  0  0  0  0  0  0  0  0  0
   31.9560   27.8530   47.9390 C   0  0  0  0  0  0  0  0  0  0  0  0
   31.0120   27.5660   48.9180 C   0  0  0  0  0  0  0  0  0  0  0  0
   29.6970   27.9560   48.7790 C   0  0  0  0  0  0  0  0  0  0  0  0
   29.3150   28.6190   47.6960 N   0  0  0  0  0  0  0  0  0  0  0  0
   30.2500   28.8930   46.7460 C   0  0  0  0  0  0  0  0  0  0  0  0
   31.5350   28.5270   46.8540 N   0  0  0  0  0  0  0  0  0  0  0  0
   31.2880   27.0260   49.8180 H   0  0  0  0  0  0  0  0  0  0  0  0
   28.9590   27.7350   49.5380 H   0  0  0  0  0  0  0  0  0  0  0  0
   30.0690   29.4310   45.8080 H   0  0  0  0  0  0  0  0  0  0  0  0
  1  7  1  0  0  0  0
  2  8  1  0  0  0  0
  2  1  2  0  0  0  0
  3  2  1  0  0  0  0
  4  3  2  0  0  0  0
  4  5  1  0  0  0  0
  5  6  2  0  0  0  0
  6  1  1  0  0  0  0
 10 11  1  0  0  0  0
 10  9  1  0  0  0  0
 11  3  1  0  0  0  0
 12 11  2  0  0  0  0
 13 12  1  0  0  0  0
 14 12  1  0  0  0  0
 15 14  2  0  0  0  0
 15 17  1  0  0  0  0
 16 15  1  0  0  0  0
 17 10  2  0  0  0  0
 18 17  1  0  0  0  0
 19  5  1  0  0  0  0
 20 19  1  0  0  0  0
 21 20  1  0  0  0  0
 22 20  1  0  0  0  0
 23 20  1  0  0  0  0
 23 24  1  0  0  0  0
 25 23  1  0  0  0  0
 26 23  1  0  0  0  0
 26 27  1  0  0  0  0
 27 32  1  0  0  0  0
 28 27  2  0  0  0  0
 28 33  1  0  0  0  0
 29 28  1  0  0  0  0
 30 31  1  0  0  0  0
 30 29  2  0  0  0  0
 31 26  2  0  0  0  0
 34 30  1  0  0  0  0
M  END
>  <minimizedAffinity>
-6.58862638

>  <minimizedRMSD>
1.24761939

$$$$
