
 OpenBabel03272506473D

 43 46  0  0  1  0  0  0  0  0999 V2000
   31.9100   28.3410   47.4610 C   0  0  2  0  0  0  0  0  0  0  0  0
   33.1640   28.1180   48.2540 C   0  0  1  0  0  0  0  0  0  0  0  0
   33.5120   26.8060   48.1340 O   0  0  0  0  0  0  0  0  0  0  0  0
   32.7660   26.2260   47.1130 C   0  0  0  0  0  0  0  0  0  0  0  0
   32.1830   27.3450   46.2900 C   0  0  1  0  0  0  0  0  0  0  0  0
   30.9860   28.0160   47.9260 H   0  0  0  0  0  0  0  0  0  0  0  0
   33.0530   28.4100   49.3160 H   0  0  0  0  0  0  0  0  0  0  0  0
   32.0650   25.5510   47.5790 H   0  0  0  0  0  0  0  0  0  0  0  0
   33.4190   25.6450   46.4120 H   0  0  0  0  0  0  0  0  0  0  0  0
   32.9200   27.8170   45.6380 H   0  0  0  0  0  0  0  0  0  0  0  0
   31.8730   29.6530   46.9460 O   0  0  0  0  0  0  0  0  0  0  0  0
   32.5740   30.2280   47.3480 H   0  0  0  0  0  0  0  0  0  0  0  0
   34.4920   29.1300   47.4840 S   0  0  0  0  0  0  0  0  0  0  0  0
   36.8580   29.2340   50.6600 C   0  0  0  0  0  0  0  0  0  0  0  0
   37.2610   30.5620   50.7750 C   0  0  0  0  0  0  0  0  0  0  0  0
   36.7750   31.4720   49.8220 C   0  0  0  0  0  0  0  0  0  0  0  0
   35.9450   31.0130   48.8440 N   0  0  0  0  0  0  0  0  0  0  0  0
   35.5850   29.7120   48.7770 C   0  0  0  0  0  0  0  0  0  0  0  0
   36.0340   28.8060   49.6820 N   0  0  0  0  0  0  0  0  0  0  0  0
   37.1730   28.4550   51.3410 H   0  0  0  0  0  0  0  0  0  0  0  0
   37.9280   30.8330   51.5930 H   0  0  0  0  0  0  0  0  0  0  0  0
   37.0760   32.4930   49.8980 H   0  0  0  0  0  0  0  0  0  0  0  0
   31.0080   26.9180   45.7220 O   0  0  0  0  0  0  0  0  0  0  0  0
   29.8630   29.1890   44.2390 Cl  0  0  0  0  0  0  0  0  0  0  0  0
   29.1450   28.2580   45.5330 C   0  0  0  0  0  0  0  0  0  0  0  0
   29.7790   27.2030   46.1460 C   0  0  0  0  0  0  0  0  0  0  0  0
   29.0920   26.5190   47.1520 C   0  0  0  0  0  0  0  0  0  0  0  0
   27.8170   26.8970   47.5140 C   0  0  0  0  0  0  0  0  0  0  0  0
   27.1700   27.9580   46.9030 C   0  0  0  0  0  0  0  0  0  0  0  0
   27.8450   28.6390   45.9070 C   0  0  0  0  0  0  0  0  0  0  0  0
   29.5080   25.6800   47.6810 H   0  0  0  0  0  0  0  0  0  0  0  0
   27.2280   26.4160   48.2800 H   0  0  0  0  0  0  0  0  0  0  0  0
   26.1650   28.2910   47.1560 H   0  0  0  0  0  0  0  0  0  0  0  0
   26.4830   28.2290   43.2070 Cl  0  0  0  0  0  0  0  0  0  0  0  0
   26.5260   29.7570   44.0540 C   0  0  0  0  0  0  0  0  0  0  0  0
   27.1800   29.7600   45.2520 C   0  0  0  0  0  0  0  0  0  0  0  0
   27.2760   30.9270   46.0170 C   0  0  0  0  0  0  0  0  0  0  0  0
   27.7730   31.0370   46.9790 H   0  0  0  0  0  0  0  0  0  0  0  0
   26.6940   32.1070   45.5440 C   0  0  0  0  0  3  0  0  0  0  0  0
   26.0370   32.0850   44.3300 C   0  0  0  0  0  0  0  0  0  0  0  0
   25.2990   33.5670   43.7250 Cl  0  0  0  0  0  0  0  0  0  0  0  0
   25.9430   30.9320   43.5790 C   0  0  0  0  0  0  0  0  0  0  0  0
   25.4320   30.8810   42.6170 H   0  0  0  0  0  0  0  0  0  0  0  0
  1  6  1  1  0  0  0
  1  2  1  0  0  0  0
  2  7  1  1  0  0  0
  3  2  1  0  0  0  0
  4  8  1  0  0  0  0
  4  3  1  0  0  0  0
  5 10  1  6  0  0  0
  5  4  1  0  0  0  0
  5  1  1  0  0  0  0
  9  4  1  0  0  0  0
 11 12  1  0  0  0  0
 11  1  1  0  0  0  0
 13  2  1  0  0  0  0
 13 18  1  0  0  0  0
 14 15  1  0  0  0  0
 14 20  1  0  0  0  0
 15 21  1  0  0  0  0
 16 22  1  0  0  0  0
 16 15  2  0  0  0  0
 17 16  1  0  0  0  0
 18 17  2  0  0  0  0
 18 19  1  0  0  0  0
 19 14  2  0  0  0  0
 23 26  1  0  0  0  0
 23  5  1  0  0  0  0
 24 25  1  0  0  0  0
 25 30  2  0  0  0  0
 25 26  1  0  0  0  0
 26 27  2  0  0  0  0
 27 28  1  0  0  0  0
 27 31  1  0  0  0  0
 28 32  1  0  0  0  0
 29 33  1  0  0  0  0
 29 28  2  0  0  0  0
 30 29  1  0  0  0  0
 34 35  1  0  0  0  0
 35 36  1  0  0  0  0
 36 30  1  0  0  0  0
 36 37  2  0  0  0  0
 37 38  1  0  0  0  0
 39 37  1  0  0  0  0
 40 39  2  0  0  0  0
 41 40  1  0  0  0  0
 42 35  2  0  0  0  0
 42 40  1  0  0  0  0
 43 42  1  0  0  0  0
M  END
>  <minimizedAffinity>
-5.81339979

>  <minimizedRMSD>
0.867096841

$$$$
