
 OpenBabel03272508253D

 26 28  0  0  1  0  0  0  0  0999 V2000
   39.5050   25.2050   34.6530 C   0  0  1  0  0  0  0  0  0  0  0  0
   39.0090   26.5590   34.4370 C   0  0  1  0  0  0  0  0  0  0  0  0
   40.4460   26.3860   34.8330 C   0  0  0  0  0  0  0  0  0  0  0  0
   39.7480   24.5220   33.7970 H   0  0  0  0  0  0  0  0  0  0  0  0
   38.3800   26.9630   35.2830 H   0  0  0  0  0  0  0  0  0  0  0  0
   41.1730   26.5460   34.0260 H   0  0  0  0  0  0  0  0  0  0  0  0
   40.7920   26.6230   35.8350 H   0  0  0  0  0  0  0  0  0  0  0  0
   36.4330   27.9940   34.4790 Cl  0  0  0  0  0  0  0  0  0  0  0  0
   37.4360   27.7770   33.0490 C   0  0  0  0  0  0  0  0  0  0  0  0
   38.6300   27.0890   33.1270 C   0  0  0  0  0  0  0  0  0  0  0  0
   39.4020   26.9300   31.9930 C   0  0  0  0  0  0  0  0  0  0  0  0
   40.3460   26.3860   32.0510 H   0  0  0  0  0  0  0  0  0  0  0  0
   39.0020   27.4520   30.7590 C   0  0  0  0  0  3  0  0  0  0  0  0
   37.7920   28.1330   30.7510 C   0  0  0  0  0  0  0  0  0  0  0  0
   37.2310   28.8190   29.2190 Cl  0  0  0  0  0  0  0  0  0  0  0  0
   36.9870   28.3130   31.8740 C   0  0  0  0  0  0  0  0  0  0  0  0
   36.0640   28.8580   31.7630 H   0  0  0  0  0  0  0  0  0  0  0  0
   39.2390   24.4730   35.9440 C   0  0  0  0  0  0  0  0  0  0  0  0
   38.1400   24.8890   36.7140 C   0  0  0  0  0  0  0  0  0  0  0  0
   37.9390   24.2060   37.9010 C   0  0  0  0  0  0  0  0  0  0  0  0
   38.7760   23.2040   38.2590 N   0  0  0  0  0  0  0  0  0  0  0  0
   39.8400   22.8180   37.4890 C   0  0  0  0  0  0  0  0  0  0  0  0
   40.0630   23.4720   36.3140 N   0  0  0  0  0  0  0  0  0  0  0  0
   37.5470   25.6880   36.3410 H   0  0  0  0  0  0  0  0  0  0  0  0
   37.1070   24.5180   38.4900 H   0  0  0  0  0  0  0  0  0  0  0  0
   40.4680   22.0090   37.8350 H   0  0  0  0  0  0  0  0  0  0  0  0
  1  4  1  6  0  0  0
  1  3  1  0  0  0  0
  1 18  1  0  0  0  0
  2  1  1  0  0  0  0
  2  3  1  0  0  0  0
  2  5  1  1  0  0  0
  3  7  1  0  0  0  0
  6  3  1  0  0  0  0
  9 10  1  0  0  0  0
  9  8  1  0  0  0  0
 10  2  1  0  0  0  0
 11 12  1  0  0  0  0
 11 10  2  0  0  0  0
 13 11  1  0  0  0  0
 14 13  2  0  0  0  0
 14 16  1  0  0  0  0
 15 14  1  0  0  0  0
 16  9  2  0  0  0  0
 17 16  1  0  0  0  0
 18 23  2  0  0  0  0
 18 19  1  0  0  0  0
 19 20  2  0  0  0  0
 20 21  1  0  0  0  0
 20 25  1  0  0  0  0
 22 26  1  0  0  0  0
 22 21  2  0  0  0  0
 23 22  1  0  0  0  0
 24 19  1  0  0  0  0
M  END
>  <minimizedAffinity>
-4.95269203

$$$$

 OpenBabel03272508253D

 26 28  0  0  1  0  0  0  0  0999 V2000
   39.5020   25.4600   34.5470 C   0  0  1  0  0  0  0  0  0  0  0  0
   38.7760   26.6910   34.2590 C   0  0  1  0  0  0  0  0  0  0  0  0
   40.1360   26.8020   34.8840 C   0  0  0  0  0  0  0  0  0  0  0  0
   40.0150   24.8740   33.7400 H   0  0  0  0  0  0  0  0  0  0  0  0
   37.9500   26.9250   34.9930 H   0  0  0  0  0  0  0  0  0  0  0  0
   40.9320   27.1380   34.2070 H   0  0  0  0  0  0  0  0  0  0  0  0
   40.2610   27.0660   35.9300 H   0  0  0  0  0  0  0  0  0  0  0  0
   36.2710   28.2370   34.0730 Cl  0  0  0  0  0  0  0  0  0  0  0  0
   37.3540   27.9160   32.7240 C   0  0  0  0  0  0  0  0  0  0  0  0
   38.5070   27.1810   32.9070 C   0  0  0  0  0  0  0  0  0  0  0  0
   39.3430   26.9410   31.8350 C   0  0  0  0  0  0  0  0  0  0  0  0
   40.2550   26.3600   31.9770 H   0  0  0  0  0  0  0  0  0  0  0  0
   39.0490   27.4280   30.5570 C   0  0  0  0  0  3  0  0  0  0  0  0
   37.8740   28.1600   30.4420 C   0  0  0  0  0  0  0  0  0  0  0  0
   37.4450   28.8050   28.8510 Cl  0  0  0  0  0  0  0  0  0  0  0  0
   37.0070   28.4220   31.5010 C   0  0  0  0  0  0  0  0  0  0  0  0
   36.1190   29.0010   31.3070 H   0  0  0  0  0  0  0  0  0  0  0  0
   39.1930   24.6400   35.7750 C   0  0  0  0  0  0  0  0  0  0  0  0
   40.0600   23.5790   36.0840 C   0  0  0  0  0  0  0  0  0  0  0  0
   39.7340   22.8390   37.2070 C   0  0  0  0  0  0  0  0  0  0  0  0
   38.6360   23.1530   37.9340 N   0  0  0  0  0  0  0  0  0  0  0  0
   37.8080   24.1940   37.6100 C   0  0  0  0  0  0  0  0  0  0  0  0
   38.1040   24.9420   36.5100 N   0  0  0  0  0  0  0  0  0  0  0  0
   40.8940   23.4170   35.4450 H   0  0  0  0  0  0  0  0  0  0  0  0
   40.3890   22.0320   37.4460 H   0  0  0  0  0  0  0  0  0  0  0  0
   36.9480   24.3890   38.2350 H   0  0  0  0  0  0  0  0  0  0  0  0
  1  4  1  6  0  0  0
  1  3  1  0  0  0  0
  1 18  1  0  0  0  0
  2  1  1  0  0  0  0
  2  3  1  0  0  0  0
  2  5  1  1  0  0  0
  3  7  1  0  0  0  0
  6  3  1  0  0  0  0
  9 10  1  0  0  0  0
  9  8  1  0  0  0  0
 10  2  1  0  0  0  0
 11 12  1  0  0  0  0
 11 10  2  0  0  0  0
 13 11  1  0  0  0  0
 14 13  2  0  0  0  0
 14 16  1  0  0  0  0
 15 14  1  0  0  0  0
 16  9  2  0  0  0  0
 17 16  1  0  0  0  0
 18 19  2  0  0  0  0
 18 23  1  0  0  0  0
 19 20  1  0  0  0  0
 20 25  1  0  0  0  0
 20 21  2  0  0  0  0
 22 21  1  0  0  0  0
 22 26  1  0  0  0  0
 23 22  2  0  0  0  0
 24 19  1  0  0  0  0
M  END
>  <minimizedAffinity>
-4.83076811

$$$$

 OpenBabel03272508253D

 26 28  0  0  1  0  0  0  0  0999 V2000
   37.8280   26.3710   35.1420 C   0  0  1  0  0  0  0  0  0  0  0  0
   39.1550   25.8450   34.8490 C   0  0  1  0  0  0  0  0  0  0  0  0
   39.0580   27.1820   35.5210 C   0  0  0  0  0  0  0  0  0  0  0  0
   37.2180   25.9910   36.0030 H   0  0  0  0  0  0  0  0  0  0  0  0
   39.4610   25.9340   33.7650 H   0  0  0  0  0  0  0  0  0  0  0  0
   39.3180   27.1870   36.5880 H   0  0  0  0  0  0  0  0  0  0  0  0
   39.2550   28.1050   34.9820 H   0  0  0  0  0  0  0  0  0  0  0  0
   41.9720   25.3810   34.1090 Cl  0  0  0  0  0  0  0  0  0  0  0  0
   41.0560   24.3890   35.2380 C   0  0  0  0  0  0  0  0  0  0  0  0
   39.7390   24.6850   35.5230 C   0  0  0  0  0  0  0  0  0  0  0  0
   39.0380   23.8930   36.4110 C   0  0  0  0  0  0  0  0  0  0  0  0
   37.9960   24.1240   36.6390 H   0  0  0  0  0  0  0  0  0  0  0  0
   39.6340   22.7920   37.0350 C   0  0  0  0  0  3  0  0  0  0  0  0
   40.9610   22.5510   36.7040 C   0  0  0  0  0  0  0  0  0  0  0  0
   41.7730   21.1720   37.4590 Cl  0  0  0  0  0  0  0  0  0  0  0  0
   41.6990   23.3280   35.8120 C   0  0  0  0  0  0  0  0  0  0  0  0
   42.7240   23.0570   35.6220 H   0  0  0  0  0  0  0  0  0  0  0  0
   37.0000   27.0400   34.0730 C   0  0  0  0  0  0  0  0  0  0  0  0
   36.9260   26.4120   32.8180 C   0  0  0  0  0  0  0  0  0  0  0  0
   36.1730   27.0640   31.8580 C   0  0  0  0  0  0  0  0  0  0  0  0
   35.5600   28.2340   32.1530 N   0  0  0  0  0  0  0  0  0  0  0  0
   35.6480   28.8250   33.3850 C   0  0  0  0  0  0  0  0  0  0  0  0
   36.3820   28.2060   34.3520 N   0  0  0  0  0  0  0  0  0  0  0  0
   37.4470   25.4940   32.6920 H   0  0  0  0  0  0  0  0  0  0  0  0
   36.1140   26.5910   30.9040 H   0  0  0  0  0  0  0  0  0  0  0  0
   35.1330   29.7600   33.5530 H   0  0  0  0  0  0  0  0  0  0  0  0
  1  3  1  0  0  0  0
  1  4  1  1  0  0  0
  2  5  1  6  0  0  0
  2  1  1  0  0  0  0
  2  3  1  0  0  0  0
  2 10  1  0  0  0  0
  3  6  1  0  0  0  0
  7  3  1  0  0  0  0
  8  9  1  0  0  0  0
  9 10  2  0  0  0  0
  9 16  1  0  0  0  0
 10 11  1  0  0  0  0
 11 12  1  0  0  0  0
 11 13  2  0  0  0  0
 14 13  1  0  0  0  0
 14 15  1  0  0  0  0
 16 14  2  0  0  0  0
 17 16  1  0  0  0  0
 18 23  1  0  0  0  0
 18  1  1  0  0  0  0
 19 18  2  0  0  0  0
 20 21  2  0  0  0  0
 20 19  1  0  0  0  0
 21 22  1  0  0  0  0
 22 26  1  0  0  0  0
 22 23  2  0  0  0  0
 24 19  1  0  0  0  0
 25 20  1  0  0  0  0
M  END
>  <minimizedAffinity>
-4.74090052

$$$$

 OpenBabel03272508253D

 26 28  0  0  1  0  0  0  0  0999 V2000
   37.4410   26.7960   34.5720 C   0  0  1  0  0  0  0  0  0  0  0  0
   38.8480   26.5190   34.8340 C   0  0  1  0  0  0  0  0  0  0  0  0
   38.1720   27.5800   35.6510 C   0  0  0  0  0  0  0  0  0  0  0  0
   36.6270   26.1170   34.9380 H   0  0  0  0  0  0  0  0  0  0  0  0
   39.5570   26.9560   34.0720 H   0  0  0  0  0  0  0  0  0  0  0  0
   37.9440   27.2960   36.6870 H   0  0  0  0  0  0  0  0  0  0  0  0
   38.3640   28.6360   35.4830 H   0  0  0  0  0  0  0  0  0  0  0  0
   41.5630   25.7960   33.9390 Cl  0  0  0  0  0  0  0  0  0  0  0  0
   40.6000   24.8590   35.0760 C   0  0  0  0  0  0  0  0  0  0  0  0
   39.3360   25.2780   35.4360 C   0  0  0  0  0  0  0  0  0  0  0  0
   38.5960   24.5280   36.3290 C   0  0  0  0  0  0  0  0  0  0  0  0
   37.5960   24.8560   36.6160 H   0  0  0  0  0  0  0  0  0  0  0  0
   39.1000   23.3460   36.8820 C   0  0  0  0  0  3  0  0  0  0  0  0
   40.3770   22.9820   36.4770 C   0  0  0  0  0  0  0  0  0  0  0  0
   41.0720   21.4970   37.1410 Cl  0  0  0  0  0  0  0  0  0  0  0  0
   41.1520   23.7140   35.5790 C   0  0  0  0  0  0  0  0  0  0  0  0
   42.1330   23.3460   35.3280 H   0  0  0  0  0  0  0  0  0  0  0  0
   37.0190   27.6620   33.4110 C   0  0  0  0  0  0  0  0  0  0  0  0
   37.7970   27.6080   32.2420 C   0  0  0  0  0  0  0  0  0  0  0  0
   37.3890   28.4300   31.2060 C   0  0  0  0  0  0  0  0  0  0  0  0
   36.3010   29.2220   31.3530 N   0  0  0  0  0  0  0  0  0  0  0  0
   35.5600   29.2540   32.5040 C   0  0  0  0  0  0  0  0  0  0  0  0
   35.9360   28.4550   33.5420 N   0  0  0  0  0  0  0  0  0  0  0  0
   38.6330   26.9520   32.2330 H   0  0  0  0  0  0  0  0  0  0  0  0
   37.9760   28.3930   30.3170 H   0  0  0  0  0  0  0  0  0  0  0  0
   34.7020   29.9100   32.5530 H   0  0  0  0  0  0  0  0  0  0  0  0
  1  2  1  0  0  0  0
  1  4  1  1  0  0  0
  1  3  1  0  0  0  0
  2  5  1  6  0  0  0
  2 10  1  0  0  0  0
  2  3  1  0  0  0  0
  3  6  1  0  0  0  0
  7  3  1  0  0  0  0
  8  9  1  0  0  0  0
  9 10  2  0  0  0  0
  9 16  1  0  0  0  0
 10 11  1  0  0  0  0
 11 12  1  0  0  0  0
 11 13  2  0  0  0  0
 14 13  1  0  0  0  0
 14 15  1  0  0  0  0
 16 14  2  0  0  0  0
 17 16  1  0  0  0  0
 18 23  1  0  0  0  0
 18  1  1  0  0  0  0
 19 18  2  0  0  0  0
 20 21  2  0  0  0  0
 20 19  1  0  0  0  0
 21 22  1  0  0  0  0
 22 26  1  0  0  0  0
 22 23  2  0  0  0  0
 24 19  1  0  0  0  0
 25 20  1  0  0  0  0
M  END
>  <minimizedAffinity>
-4.68007946

$$$$

 OpenBabel03272508253D

 26 28  0  0  1  0  0  0  0  0999 V2000
   35.0480   29.9350   33.9890 C   0  0  1  0  0  0  0  0  0  0  0  0
   35.7640   31.0040   34.6730 C   0  0  1  0  0  0  0  0  0  0  0  0
   35.5200   31.1460   33.1990 C   0  0  0  0  0  0  0  0  0  0  0  0
   33.9360   29.8190   34.0750 H   0  0  0  0  0  0  0  0  0  0  0  0
   36.8440   30.7660   34.9040 H   0  0  0  0  0  0  0  0  0  0  0  0
   34.7420   31.8710   32.9240 H   0  0  0  0  0  0  0  0  0  0  0  0
   36.3190   31.0120   32.4750 H   0  0  0  0  0  0  0  0  0  0  0  0
   37.1810   33.5800   34.9140 Cl  0  0  0  0  0  0  0  0  0  0  0  0
   35.7430   33.1370   35.8270 C   0  0  0  0  0  0  0  0  0  0  0  0
   35.1470   31.9060   35.6460 C   0  0  0  0  0  0  0  0  0  0  0  0
   34.0200   31.5790   36.3720 C   0  0  0  0  0  0  0  0  0  0  0  0
   33.5470   30.6050   36.2320 H   0  0  0  0  0  0  0  0  0  0  0  0
   33.4610   32.4700   37.2940 C   0  0  0  0  0  3  0  0  0  0  0  0
   34.1090   33.6910   37.4280 C   0  0  0  0  0  0  0  0  0  0  0  0
   33.4510   34.8640   38.5780 Cl  0  0  0  0  0  0  0  0  0  0  0  0
   35.2480   34.0550   36.7120 C   0  0  0  0  0  0  0  0  0  0  0  0
   35.6770   35.0280   36.8890 H   0  0  0  0  0  0  0  0  0  0  0  0
   35.7500   28.6640   33.5760 C   0  0  0  0  0  0  0  0  0  0  0  0
   36.6040   28.0590   34.5130 C   0  0  0  0  0  0  0  0  0  0  0  0
   37.2440   26.9070   34.0920 C   0  0  0  0  0  0  0  0  0  0  0  0
   37.0310   26.4270   32.8440 N   0  0  0  0  0  0  0  0  0  0  0  0
   36.1920   27.0370   31.9510 C   0  0  0  0  0  0  0  0  0  0  0  0
   35.5470   28.1730   32.3370 N   0  0  0  0  0  0  0  0  0  0  0  0
   36.7020   28.5200   35.4660 H   0  0  0  0  0  0  0  0  0  0  0  0
   37.8940   26.4430   34.7990 H   0  0  0  0  0  0  0  0  0  0  0  0
   36.0670   26.5990   30.9700 H   0  0  0  0  0  0  0  0  0  0  0  0
  1  4  1  1  0  0  0
  1  2  1  0  0  0  0
  2  5  1  1  0  0  0
  2 10  1  0  0  0  0
  3  1  1  0  0  0  0
  3  2  1  0  0  0  0
  6  3  1  0  0  0  0
  7  3  1  0  0  0  0
  8  9  1  0  0  0  0
  9 16  1  0  0  0  0
 10  9  2  0  0  0  0
 10 11  1  0  0  0  0
 11 13  2  0  0  0  0
 12 11  1  0  0  0  0
 13 14  1  0  0  0  0
 14 15  1  0  0  0  0
 16 17  1  0  0  0  0
 16 14  2  0  0  0  0
 18  1  1  0  0  0  0
 18 19  1  0  0  0  0
 19 24  1  0  0  0  0
 20 19  2  0  0  0  0
 20 25  1  0  0  0  0
 21 20  1  0  0  0  0
 22 23  1  0  0  0  0
 22 21  2  0  0  0  0
 23 18  2  0  0  0  0
 26 22  1  0  0  0  0
M  END
>  <minimizedAffinity>
-4.66517878

$$$$

 OpenBabel03272508253D

 26 28  0  0  1  0  0  0  0  0999 V2000
   38.7340   26.2900   34.8490 C   0  0  1  0  0  0  0  0  0  0  0  0
   37.3490   26.7210   34.9860 C   0  0  1  0  0  0  0  0  0  0  0  0
   38.3270   27.1370   36.0450 C   0  0  0  0  0  0  0  0  0  0  0  0
   39.4380   26.7820   34.1270 H   0  0  0  0  0  0  0  0  0  0  0  0
   36.6450   25.9160   35.3490 H   0  0  0  0  0  0  0  0  0  0  0  0
   38.6310   28.1910   36.0090 H   0  0  0  0  0  0  0  0  0  0  0  0
   38.3300   26.6770   37.0290 H   0  0  0  0  0  0  0  0  0  0  0  0
   37.0930   25.7660   32.2070 Cl  0  0  0  0  0  0  0  0  0  0  0  0
   36.5460   27.3370   32.7820 C   0  0  0  0  0  0  0  0  0  0  0  0
   36.7080   27.6970   34.1040 C   0  0  0  0  0  0  0  0  0  0  0  0
   36.2710   28.9340   34.5340 C   0  0  0  0  0  0  0  0  0  0  0  0
   36.3990   29.2220   35.5780 H   0  0  0  0  0  0  0  0  0  0  0  0
   35.6640   29.8390   33.6570 C   0  0  0  0  0  3  0  0  0  0  0  0
   35.5310   29.4140   32.3420 C   0  0  0  0  0  0  0  0  0  0  0  0
   34.7690   30.5130   31.1830 Cl  0  0  0  0  0  0  0  0  0  0  0  0
   35.9590   28.1740   31.8730 C   0  0  0  0  0  0  0  0  0  0  0  0
   35.8100   27.9390   30.8310 H   0  0  0  0  0  0  0  0  0  0  0  0
   39.1610   24.8970   35.2430 C   0  0  0  0  0  0  0  0  0  0  0  0
   38.1520   23.9710   35.5550 C   0  0  0  0  0  0  0  0  0  0  0  0
   38.5830   22.7100   35.9290 C   0  0  0  0  0  0  0  0  0  0  0  0
   39.9060   22.4300   35.9790 N   0  0  0  0  0  0  0  0  0  0  0  0
   40.8690   23.3530   35.6690 C   0  0  0  0  0  0  0  0  0  0  0  0
   40.4760   24.6030   35.2960 N   0  0  0  0  0  0  0  0  0  0  0  0
   37.1420   24.2950   35.4840 H   0  0  0  0  0  0  0  0  0  0  0  0
   37.8210   22.0030   36.1670 H   0  0  0  0  0  0  0  0  0  0  0  0
   41.9090   23.0620   35.7300 H   0  0  0  0  0  0  0  0  0  0  0  0
  1  4  1  6  0  0  0
  1  2  1  0  0  0  0
  1 18  1  0  0  0  0
  1  3  1  0  0  0  0
  2  5  1  1  0  0  0
  2  3  1  0  0  0  0
  3  7  1  0  0  0  0
  6  3  1  0  0  0  0
  8  9  1  0  0  0  0
  9 10  1  0  0  0  0
 10 11  2  0  0  0  0
 10  2  1  0  0  0  0
 11 12  1  0  0  0  0
 13 11  1  0  0  0  0
 14 13  2  0  0  0  0
 15 14  1  0  0  0  0
 16 14  1  0  0  0  0
 16  9  2  0  0  0  0
 17 16  1  0  0  0  0
 18 23  2  0  0  0  0
 18 19  1  0  0  0  0
 19 20  2  0  0  0  0
 20 21  1  0  0  0  0
 20 25  1  0  0  0  0
 22 26  1  0  0  0  0
 22 21  2  0  0  0  0
 23 22  1  0  0  0  0
 24 19  1  0  0  0  0
M  END
>  <minimizedAffinity>
-4.59786749

$$$$

 OpenBabel03272508253D

 26 28  0  0  1  0  0  0  0  0999 V2000
   38.1230   26.7500   34.1460 C   0  0  1  0  0  0  0  0  0  0  0  0
   37.0440   27.0880   33.2270 C   0  0  1  0  0  0  0  0  0  0  0  0
   37.0360   27.7180   34.5890 C   0  0  0  0  0  0  0  0  0  0  0  0
   39.1490   27.1920   34.0420 H   0  0  0  0  0  0  0  0  0  0  0  0
   36.2540   26.2880   33.1230 H   0  0  0  0  0  0  0  0  0  0  0  0
   37.3210   28.7780   34.6130 H   0  0  0  0  0  0  0  0  0  0  0  0
   36.3410   27.3970   35.3590 H   0  0  0  0  0  0  0  0  0  0  0  0
   34.7280   28.8100   32.6190 Cl  0  0  0  0  0  0  0  0  0  0  0  0
   36.1930   28.7210   31.6480 C   0  0  0  0  0  0  0  0  0  0  0  0
   37.2270   27.8830   32.0130 C   0  0  0  0  0  0  0  0  0  0  0  0
   38.3680   27.8280   31.2360 C   0  0  0  0  0  0  0  0  0  0  0  0
   39.1870   27.1670   31.5210 H   0  0  0  0  0  0  0  0  0  0  0  0
   38.5030   28.6050   30.0810 C   0  0  0  0  0  3  0  0  0  0  0  0
   37.4260   29.4260   29.7720 C   0  0  0  0  0  0  0  0  0  0  0  0
   37.5350   30.4350   28.3230 Cl  0  0  0  0  0  0  0  0  0  0  0  0
   36.2600   29.5070   30.5310 C   0  0  0  0  0  0  0  0  0  0  0  0
   35.4810   30.1760   30.2050 H   0  0  0  0  0  0  0  0  0  0  0  0
   38.1060   25.4600   34.9300 C   0  0  0  0  0  0  0  0  0  0  0  0
   38.1740   25.5480   36.3300 C   0  0  0  0  0  0  0  0  0  0  0  0
   38.1740   24.3450   37.0130 C   0  0  0  0  0  0  0  0  0  0  0  0
   38.1120   23.1760   36.3320 N   0  0  0  0  0  0  0  0  0  0  0  0
   38.0470   23.1190   34.9660 C   0  0  0  0  0  0  0  0  0  0  0  0
   38.0440   24.2880   34.2650 N   0  0  0  0  0  0  0  0  0  0  0  0
   38.2210   26.5170   36.7640 H   0  0  0  0  0  0  0  0  0  0  0  0
   38.2250   24.4060   38.0760 H   0  0  0  0  0  0  0  0  0  0  0  0
   37.9990   22.1510   34.4860 H   0  0  0  0  0  0  0  0  0  0  0  0
  1  4  1  6  0  0  0
  1  3  1  0  0  0  0
  1 18  1  0  0  0  0
  2  5  1  6  0  0  0
  2  1  1  0  0  0  0
  2  3  1  0  0  0  0
  3  6  1  0  0  0  0
  3  7  1  0  0  0  0
  9 10  1  0  0  0  0
  9  8  1  0  0  0  0
 10  2  1  0  0  0  0
 11 12  1  0  0  0  0
 11 10  2  0  0  0  0
 13 11  1  0  0  0  0
 14 13  2  0  0  0  0
 14 16  1  0  0  0  0
 15 14  1  0  0  0  0
 16  9  2  0  0  0  0
 17 16  1  0  0  0  0
 18 19  1  0  0  0  0
 19 24  1  0  0  0  0
 19 20  2  0  0  0  0
 20 25  1  0  0  0  0
 21 20  1  0  0  0  0
 22 21  2  0  0  0  0
 23 18  2  0  0  0  0
 23 22  1  0  0  0  0
 26 22  1  0  0  0  0
M  END
>  <minimizedAffinity>
-4.50524855

$$$$

 OpenBabel03272508253D

 26 28  0  0  1  0  0  0  0  0999 V2000
   35.0040   29.5410   34.4710 C   0  0  1  0  0  0  0  0  0  0  0  0
   35.7670   28.6720   33.5840 C   0  0  1  0  0  0  0  0  0  0  0  0
   35.7110   30.1370   33.2640 C   0  0  0  0  0  0  0  0  0  0  0  0
   35.4020   29.8620   35.4700 H   0  0  0  0  0  0  0  0  0  0  0  0
   35.1340   28.0580   32.8780 H   0  0  0  0  0  0  0  0  0  0  0  0
   36.6330   30.6950   33.4760 H   0  0  0  0  0  0  0  0  0  0  0  0
   35.1060   30.5180   32.4460 H   0  0  0  0  0  0  0  0  0  0  0  0
   37.2220   27.5460   31.2780 Cl  0  0  0  0  0  0  0  0  0  0  0  0
   37.7680   27.4560   32.9490 C   0  0  0  0  0  0  0  0  0  0  0  0
   37.0180   28.0150   33.9640 C   0  0  0  0  0  0  0  0  0  0  0  0
   37.4640   27.9320   35.2680 C   0  0  0  0  0  0  0  0  0  0  0  0
   36.8730   28.3720   36.0730 H   0  0  0  0  0  0  0  0  0  0  0  0
   38.6660   27.2940   35.5890 C   0  0  0  0  0  3  0  0  0  0  0  0
   39.3710   26.7540   34.5220 C   0  0  0  0  0  0  0  0  0  0  0  0
   40.9010   25.9330   34.8610 Cl  0  0  0  0  0  0  0  0  0  0  0  0
   38.9520   26.8180   33.1940 C   0  0  0  0  0  0  0  0  0  0  0  0
   39.5720   26.3660   32.4370 H   0  0  0  0  0  0  0  0  0  0  0  0
   33.5020   29.6360   34.3690 C   0  0  0  0  0  0  0  0  0  0  0  0
   32.8240   30.3350   35.3810 C   0  0  0  0  0  0  0  0  0  0  0  0
   31.4460   30.3850   35.2630 C   0  0  0  0  0  0  0  0  0  0  0  0
   30.8300   29.7820   34.2190 N   0  0  0  0  0  0  0  0  0  0  0  0
   31.5160   29.1070   33.2460 C   0  0  0  0  0  0  0  0  0  0  0  0
   32.8740   29.0410   33.3340 N   0  0  0  0  0  0  0  0  0  0  0  0
   33.4040   30.7710   36.1580 H   0  0  0  0  0  0  0  0  0  0  0  0
   30.9260   30.9140   36.0290 H   0  0  0  0  0  0  0  0  0  0  0  0
   30.9610   28.6480   32.4390 H   0  0  0  0  0  0  0  0  0  0  0  0
  1  4  1  1  0  0  0
  2  5  1  6  0  0  0
  2 10  1  0  0  0  0
  2  1  1  0  0  0  0
  3  6  1  0  0  0  0
  3  2  1  0  0  0  0
  3  1  1  0  0  0  0
  7  3  1  0  0  0  0
  8  9  1  0  0  0  0
  9 16  2  0  0  0  0
  9 10  1  0  0  0  0
 10 11  2  0  0  0  0
 11 13  1  0  0  0  0
 11 12  1  0  0  0  0
 14 15  1  0  0  0  0
 14 13  2  0  0  0  0
 16 14  1  0  0  0  0
 17 16  1  0  0  0  0
 18  1  1  0  0  0  0
 18 19  1  0  0  0  0
 19 24  1  0  0  0  0
 20 19  2  0  0  0  0
 20 25  1  0  0  0  0
 21 20  1  0  0  0  0
 22 23  1  0  0  0  0
 22 21  2  0  0  0  0
 23 18  2  0  0  0  0
 26 22  1  0  0  0  0
M  END
>  <minimizedAffinity>
-4.50312424

$$$$

 OpenBabel03272508253D

 26 28  0  0  1  0  0  0  0  0999 V2000
   39.2850   27.0390   34.7410 C   0  0  1  0  0  0  0  0  0  0  0  0
   37.8420   26.8710   34.6240 C   0  0  1  0  0  0  0  0  0  0  0  0
   38.4090   27.1980   35.9740 C   0  0  0  0  0  0  0  0  0  0  0  0
   39.8020   27.9720   34.3930 H   0  0  0  0  0  0  0  0  0  0  0  0
   37.5040   25.7960   34.5530 H   0  0  0  0  0  0  0  0  0  0  0  0
   38.2410   28.2290   36.3120 H   0  0  0  0  0  0  0  0  0  0  0  0
   38.4790   26.4490   36.7580 H   0  0  0  0  0  0  0  0  0  0  0  0
   37.8120   26.4150   31.7100 Cl  0  0  0  0  0  0  0  0  0  0  0  0
   36.8910   27.6650   32.5390 C   0  0  0  0  0  0  0  0  0  0  0  0
   36.9690   27.8020   33.9100 C   0  0  0  0  0  0  0  0  0  0  0  0
   36.2380   28.7900   34.5400 C   0  0  0  0  0  0  0  0  0  0  0  0
   36.2970   28.9020   35.6240 H   0  0  0  0  0  0  0  0  0  0  0  0
   35.4140   29.6610   33.8190 C   0  0  0  0  0  3  0  0  0  0  0  0
   35.3820   29.4680   32.4450 C   0  0  0  0  0  0  0  0  0  0  0  0
   34.3580   30.5370   31.4750 Cl  0  0  0  0  0  0  0  0  0  0  0  0
   36.1050   28.4830   31.7750 C   0  0  0  0  0  0  0  0  0  0  0  0
   36.0110   28.4160   30.7030 H   0  0  0  0  0  0  0  0  0  0  0  0
   40.2050   25.8460   34.8330 C   0  0  0  0  0  0  0  0  0  0  0  0
   41.5870   26.0810   34.7420 C   0  0  0  0  0  0  0  0  0  0  0  0
   42.3970   24.9620   34.8120 C   0  0  0  0  0  0  0  0  0  0  0  0
   41.8490   23.7330   34.9590 N   0  0  0  0  0  0  0  0  0  0  0  0
   40.4970   23.5320   35.0450 C   0  0  0  0  0  0  0  0  0  0  0  0
   39.6730   24.6160   34.9810 N   0  0  0  0  0  0  0  0  0  0  0  0
   41.9120   27.0870   34.6260 H   0  0  0  0  0  0  0  0  0  0  0  0
   43.4470   25.1350   34.7430 H   0  0  0  0  0  0  0  0  0  0  0  0
   40.1270   22.5230   35.1620 H   0  0  0  0  0  0  0  0  0  0  0  0
  1  4  1  6  0  0  0
  1 18  1  0  0  0  0
  1  3  1  0  0  0  0
  2  5  1  6  0  0  0
  2  1  1  0  0  0  0
  2  3  1  0  0  0  0
  3  6  1  0  0  0  0
  3  7  1  0  0  0  0
  8  9  1  0  0  0  0
  9 10  1  0  0  0  0
 10 11  2  0  0  0  0
 10  2  1  0  0  0  0
 11 12  1  0  0  0  0
 13 11  1  0  0  0  0
 14 13  2  0  0  0  0
 15 14  1  0  0  0  0
 16 14  1  0  0  0  0
 16  9  2  0  0  0  0
 17 16  1  0  0  0  0
 18 23  1  0  0  0  0
 19 20  1  0  0  0  0
 19 18  2  0  0  0  0
 20 21  2  0  0  0  0
 21 22  1  0  0  0  0
 22 26  1  0  0  0  0
 23 22  2  0  0  0  0
 24 19  1  0  0  0  0
 25 20  1  0  0  0  0
M  END
>  <minimizedAffinity>
-4.50216198

$$$$
