
     RDKit          3D

 46 49  0  0  0  0  0  0  0  0999 V2000
   34.8175   28.3739   49.4429 C   0  0  0  0  0  0  0  0  0  0  0  0
   33.5946   28.3125   48.5691 C   0  0  0  0  0  0  0  0  0  0  0  0
   33.6786   28.6877   47.1847 C   0  0  0  0  0  0  0  0  0  0  0  0
   32.0145   28.4401   46.6474 S   0  0  0  0  0  0  0  0  0  0  0  0
   31.3991   27.8688   48.3173 C   0  0  0  0  0  0  0  0  0  0  0  0
   32.4084   27.9427   48.9394 N   0  0  0  0  0  0  0  0  0  0  0  0
   30.0821   27.4488   48.7675 N   0  0  0  0  0  0  0  0  0  0  0  0
   29.2481   26.8363   47.7886 C   0  0  0  0  0  0  0  0  0  0  0  0
   27.8008   26.7971   48.1707 C   0  0  0  0  0  0  0  0  0  0  0  0
   27.4855   27.5572   49.3721 N   0  0  0  0  0  0  0  0  0  0  0  0
   28.3745   27.0475   50.4013 C   0  0  0  0  0  0  0  0  0  0  0  0
   29.7145   27.6768   50.1505 C   0  0  0  0  0  0  0  0  0  0  0  0
   34.9593   29.6718   50.1065 C   0  0  0  0  0  0  0  0  0  0  0  0
   37.5165   32.2952   49.5744 C   0  0  0  0  0  0  0  0  0  0  0  0
   38.2761   31.7646   48.5387 C   0  0  0  0  0  0  0  0  0  0  0  0
   37.9145   30.4988   48.0174 C   0  0  0  0  0  0  0  0  0  0  0  0
   36.8541   29.8597   48.5412 N   0  0  0  0  0  0  0  0  0  0  0  0
   36.1440   30.4326   49.5604 C   0  0  0  0  0  0  0  0  0  0  0  0
   36.4582   31.6240   50.0747 N   0  0  0  0  0  0  0  0  0  0  0  0
   34.7103   27.5435   50.2152 H   0  0  0  0  0  0  0  0  0  0  0  0
   35.7344   28.1029   48.9049 H   0  0  0  0  0  0  0  0  0  0  0  0
   34.4986   29.0392   46.5636 H   0  0  0  0  0  0  0  0  0  0  0  0
   29.2976   27.4141   46.8286 H   0  0  0  0  0  0  0  0  0  0  0  0
   29.6596   25.8373   47.5384 H   0  0  0  0  0  0  0  0  0  0  0  0
   27.5669   25.7258   48.4172 H   0  0  0  0  0  0  0  0  0  0  0  0
   27.1177   27.0586   47.3344 H   0  0  0  0  0  0  0  0  0  0  0  0
   26.4949   27.3201   49.6094 H   0  0  0  0  0  0  0  0  0  0  0  0
   28.3861   25.9543   50.3965 H   0  0  0  0  0  0  0  0  0  0  0  0
   28.0028   27.4284   51.3668 H   0  0  0  0  0  0  0  0  0  0  0  0
   30.4921   27.3597   50.8632 H   0  0  0  0  0  0  0  0  0  0  0  0
   29.5845   28.7807   50.2623 H   0  0  0  0  0  0  0  0  0  0  0  0
   35.2023   29.5126   51.1971 H   0  0  0  0  0  0  0  0  0  0  0  0
   34.0725   30.3274   50.1153 H   0  0  0  0  0  0  0  0  0  0  0  0
   37.6475   33.2445   50.0912 H   0  0  0  0  0  0  0  0  0  0  0  0
   39.0343   32.4650   48.3236 H   0  0  0  0  0  0  0  0  0  0  0  0
   36.6439   29.5275   45.3597 Cl  0  0  0  0  0  0  0  0  0  0  0  0
   38.3489   29.6270   45.7133 C   0  0  0  0  0  0  0  0  0  0  0  0
   38.7827   30.0767   46.9381 C   0  0  0  0  0  0  0  0  0  0  0  0
   40.1492   30.0897   47.0186 C   0  0  0  0  0  0  0  0  0  0  0  0
   40.6692   30.4066   47.8983 H   0  0  0  0  0  0  0  0  0  0  0  0
   41.0028   29.7067   46.0161 C   0  0  0  0  0  0  0  0  0  0  0  0
   40.5065   29.2647   44.8106 C   0  0  0  0  0  0  0  0  0  0  0  0
   41.5889   28.7741   43.5264 Cl  0  0  0  0  0  0  0  0  0  0  0  0
   39.1375   29.2254   44.6592 C   0  0  0  0  0  0  0  0  0  0  0  0
   38.7717   28.8755   43.7056 H   0  0  0  0  0  0  0  0  0  0  0  0
   42.0682   29.7297   46.1137 H   0  0  0  0  0  0  0  0  0  0  0  0
  1 13  1  0
  2  6  1  0
  2  1  1  0
  3  2  2  0
  4  3  1  0
  4  5  1  0
  5  7  1  0
  5  6  2  0
  7 12  1  0
  8  9  1  0
  8  7  1  0
  9 10  1  0
 10 11  1  0
 12 11  1  0
 14 19  2  0
 15 14  1  0
 16 15  2  0
 16 17  1  0
 17 18  2  0
 18 19  1  0
 18 13  1  0
  1 20  1  0
  1 21  1  0
  3 22  1  0
  8 23  1  0
  8 24  1  0
  9 25  1  0
  9 26  1  0
 10 27  1  0
 11 28  1  0
 11 29  1  0
 12 30  1  0
 12 31  1  0
 13 32  1  0
 13 33  1  0
 14 34  1  0
 15 35  1  0
 36 37  1  0
 37 38  2  0
 38 39  1  0
 39 40  1  0
 39 41  2  0
 41 42  1  0
 42 43  1  0
 42 44  2  0
 44 45  1  0
 44 37  1  0
 41 46  1  0
 16 38  1  0
M  ISO  8  20   8  21   8  22  14  23  13  24  13  25  13  26  13  27   5
M  ISO  8  28  13  29  13  30  13  31  13  32   8  33   8  34  14  35  14
M  ISO  2  40  16  45  15
M  END
>  <DihAtoms>  (1) 
14,15,37,36

>  <DihDeg>  (1) 
-174.52255111490123

$$$$
