
 OpenBabel03262522083D

 41 44  0  0  1  0  0  0  0  0999 V2000
   38.7760   23.5000   36.0740 C   0  0  2  0  0  0  0  0  0  0  0  0
   38.0740   24.6050   36.7860 C   0  0  0  0  0  0  0  0  0  0  0  0
   37.9790   25.7620   35.8970 N   0  0  0  0  0  0  0  0  0  0  0  0
   37.5500   26.8740   35.0910 C   0  0  0  0  0  0  0  0  0  0  0  0
   36.5060   27.5300   34.9530 O   0  0  0  0  0  0  0  0  0  0  0  0
   38.8070   27.0310   34.4160 C   0  0  1  0  0  0  0  0  0  0  0  0
   39.3170   26.0550   35.4680 C   0  0  2  0  0  0  0  0  0  0  0  0
   39.8060   24.4260   34.8570 S   0  0  0  0  0  0  0  0  0  0  0  0
   38.6350   24.9140   37.6710 H   0  0  0  0  0  0  0  0  0  0  0  0
   37.0280   24.3080   37.0560 H   0  0  0  0  0  0  0  0  0  0  0  0
   39.3860   27.9780   34.5700 H   0  0  0  0  0  0  0  0  0  0  0  0
   39.9920   26.4700   36.2330 H   0  0  0  0  0  0  0  0  0  0  0  0
   37.9250   22.4520   35.4490 C   0  0  0  0  0  0  0  0  0  0  0  0
   38.0650   22.4440   34.3510 H   0  0  0  0  0  0  0  0  0  0  0  0
   38.0990   21.4340   35.8180 H   0  0  0  0  0  0  0  0  0  0  0  0
   36.8530   22.7060   35.6130 H   0  0  0  0  0  0  0  0  0  0  0  0
   39.8090   22.8880   37.0450 C   0  0  0  0  0  0  0  0  0  0  0  0
   40.5860   23.6750   37.1730 H   0  0  0  0  0  0  0  0  0  0  0  0
   40.2860   21.9950   36.6130 H   0  0  0  0  0  0  0  0  0  0  0  0
   39.1750   22.6240   38.2590 O   0  0  0  0  0  0  0  0  0  0  0  0
   39.3970   23.3040   38.9420 H   0  0  0  0  0  0  0  0  0  0  0  0
   38.8790   26.5620   33.0180 C   0  0  0  0  0  0  0  0  0  0  0  0
   40.0170   26.7620   32.4800 O   0  0  0  0  0  0  0  0  0  0  0  0
   37.7950   25.9380   32.3200 C   0  0  0  0  0  0  0  0  0  0  0  0
   36.9400   26.7390   31.5960 C   0  0  0  0  0  0  0  0  0  0  0  0
   35.8710   26.1260   30.9140 C   0  0  0  0  0  0  0  0  0  0  0  0
   35.7480   24.7620   31.0120 N   0  0  0  0  0  0  0  0  0  0  0  0
   36.5930   24.0130   31.7210 C   0  0  0  0  0  0  0  0  0  0  0  0
   37.6200   24.5960   32.3790 N   0  0  0  0  0  0  0  0  0  0  0  0
   37.0780   27.8090   31.5480 H   0  0  0  0  0  0  0  0  0  0  0  0
   35.1990   26.7320   30.3480 H   0  0  0  0  0  0  0  0  0  0  0  0
   38.5930   22.1270   30.3810 Cl  0  0  0  0  0  0  0  0  0  0  0  0
   37.1320   21.6340   31.1720 C   0  0  0  0  0  0  0  0  0  0  0  0
   36.3310   22.5860   31.7290 C   0  0  0  0  0  0  0  0  0  0  0  0
   35.1870   22.1140   32.3370 C   0  0  0  0  0  0  0  0  0  0  0  0
   34.4660   22.7770   32.8180 H   0  0  0  0  0  0  0  0  0  0  0  0
   34.8850   20.7480   32.3710 C   0  0  0  0  0  3  0  0  0  0  0  0
   35.7220   19.8180   31.7960 C   0  0  0  0  0  0  0  0  0  0  0  0
   35.2490   18.1400   31.8980 Cl  0  0  0  0  0  0  0  0  0  0  0  0
   36.8480   20.2920   31.1990 C   0  0  0  0  0  0  0  0  0  0  0  0
   37.5130   19.5640   30.7440 H   0  0  0  0  0  0  0  0  0  0  0  0
  1 13  1  6  0  0  0
  1  2  1  0  0  0  0
  1 17  1  0  0  0  0
  2 10  1  0  0  0  0
  2  9  1  0  0  0  0
  3  2  1  0  0  0  0
  4  3  1  0  0  0  0
  5  4  2  0  0  0  0
  6 11  1  1  0  0  0
  6  4  1  0  0  0  0
  6  7  1  0  0  0  0
  7  3  1  0  0  0  0
  7 12  1  1  0  0  0
  8  7  1  0  0  0  0
  8  1  1  0  0  0  0
 13 16  1  0  0  0  0
 13 15  1  0  0  0  0
 14 13  1  0  0  0  0
 17 18  1  0  0  0  0
 17 20  1  0  0  0  0
 19 17  1  0  0  0  0
 20 21  1  0  0  0  0
 22  6  1  0  0  0  0
 23 22  2  0  0  0  0
 24 29  1  0  0  0  0
 24 22  1  0  0  0  0
 25 24  2  0  0  0  0
 26 27  2  0  0  0  0
 26 25  1  0  0  0  0
 27 28  1  0  0  0  0
 28 34  1  0  0  0  0
 28 29  2  0  0  0  0
 30 25  1  0  0  0  0
 31 26  1  0  0  0  0
 32 33  1  0  0  0  0
 33 40  2  0  0  0  0
 33 34  1  0  0  0  0
 34 35  2  0  0  0  0
 35 37  1  0  0  0  0
 35 36  1  0  0  0  0
 38 39  1  0  0  0  0
 38 37  2  0  0  0  0
 40 38  1  0  0  0  0
 41 40  1  0  0  0  0
M  END
>  <minimizedAffinity>
-6.35671186

$$$$

 OpenBabel03262522083D

 41 44  0  0  1  0  0  0  0  0999 V2000
   41.6850   25.9990   33.6080 C   0  0  2  0  0  0  0  0  0  0  0  0
   41.4400   25.2570   34.8770 C   0  0  0  0  0  0  0  0  0  0  0  0
   40.0050   25.2380   35.1510 N   0  0  0  0  0  0  0  0  0  0  0  0
   38.6400   24.8780   35.4330 C   0  0  0  0  0  0  0  0  0  0  0  0
   38.0380   23.8530   35.7900 O   0  0  0  0  0  0  0  0  0  0  0  0
   38.1080   26.1830   35.1550 C   0  0  1  0  0  0  0  0  0  0  0  0
   39.5700   26.6060   35.1410 C   0  0  2  0  0  0  0  0  0  0  0  0
   40.2250   27.1220   33.5370 S   0  0  0  0  0  0  0  0  0  0  0  0
   41.9290   25.7560   35.7170 H   0  0  0  0  0  0  0  0  0  0  0  0
   41.7760   24.1920   34.7920 H   0  0  0  0  0  0  0  0  0  0  0  0
   37.6300   26.7570   35.9890 H   0  0  0  0  0  0  0  0  0  0  0  0
   39.9070   27.2280   35.9860 H   0  0  0  0  0  0  0  0  0  0  0  0
   41.8620   25.1840   32.3750 C   0  0  0  0  0  0  0  0  0  0  0  0
   41.0570   25.4040   31.6480 H   0  0  0  0  0  0  0  0  0  0  0  0
   42.8220   25.3220   31.8640 H   0  0  0  0  0  0  0  0  0  0  0  0
   41.7510   24.1060   32.6300 H   0  0  0  0  0  0  0  0  0  0  0  0
   42.8770   26.9530   33.8340 C   0  0  0  0  0  0  0  0  0  0  0  0
   42.4180   27.9210   34.1370 H   0  0  0  0  0  0  0  0  0  0  0  0
   43.4460   27.1130   32.9060 H   0  0  0  0  0  0  0  0  0  0  0  0
   43.6650   26.4410   34.8660 O   0  0  0  0  0  0  0  0  0  0  0  0
   43.5150   26.9260   35.7140 H   0  0  0  0  0  0  0  0  0  0  0  0
   37.3800   26.3500   33.8800 C   0  0  0  0  0  0  0  0  0  0  0  0
   37.4040   25.3060   33.1500 O   0  0  0  0  0  0  0  0  0  0  0  0
   36.7070   27.5510   33.4880 C   0  0  0  0  0  0  0  0  0  0  0  0
   36.5260   27.7860   32.1430 C   0  0  0  0  0  0  0  0  0  0  0  0
   35.8670   28.9700   31.7570 C   0  0  0  0  0  0  0  0  0  0  0  0
   35.4450   29.8200   32.7490 N   0  0  0  0  0  0  0  0  0  0  0  0
   35.6360   29.5650   34.0440 C   0  0  0  0  0  0  0  0  0  0  0  0
   36.2680   28.4310   34.4210 N   0  0  0  0  0  0  0  0  0  0  0  0
   36.8750   27.0870   31.3980 H   0  0  0  0  0  0  0  0  0  0  0  0
   35.7180   29.1680   30.7180 H   0  0  0  0  0  0  0  0  0  0  0  0
   32.6810   29.5060   34.8280 Cl  0  0  0  0  0  0  0  0  0  0  0  0
   33.8450   30.6510   35.4080 C   0  0  0  0  0  0  0  0  0  0  0  0
   35.1330   30.5600   34.9730 C   0  0  0  0  0  0  0  0  0  0  0  0
   35.9970   31.5070   35.4780 C   0  0  0  0  0  0  0  0  0  0  0  0
   37.0530   31.5390   35.2060 H   0  0  0  0  0  0  0  0  0  0  0  0
   35.5640   32.4900   36.3750 C   0  0  0  0  0  3  0  0  0  0  0  0
   34.2520   32.5480   36.7910 C   0  0  0  0  0  0  0  0  0  0  0  0
   33.8200   33.8150   37.9130 Cl  0  0  0  0  0  0  0  0  0  0  0  0
   33.4070   31.6090   36.2880 C   0  0  0  0  0  0  0  0  0  0  0  0
   32.3720   31.6490   36.6110 H   0  0  0  0  0  0  0  0  0  0  0  0
  1 13  1  6  0  0  0
  1 17  1  0  0  0  0
  1  2  1  0  0  0  0
  2  3  1  0  0  0  0
  2  9  1  0  0  0  0
  3  4  1  0  0  0  0
  4  5  2  0  0  0  0
  6  4  1  0  0  0  0
  6 11  1  1  0  0  0
  7  3  1  0  0  0  0
  7  6  1  0  0  0  0
  7 12  1  1  0  0  0
  8  1  1  0  0  0  0
  8  7  1  0  0  0  0
 10  2  1  0  0  0  0
 13 16  1  0  0  0  0
 14 13  1  0  0  0  0
 15 13  1  0  0  0  0
 17 18  1  0  0  0  0
 17 20  1  0  0  0  0
 19 17  1  0  0  0  0
 20 21  1  0  0  0  0
 22  6  1  0  0  0  0
 23 22  2  0  0  0  0
 24 22  1  0  0  0  0
 24 29  1  0  0  0  0
 25 24  2  0  0  0  0
 26 25  1  0  0  0  0
 26 27  2  0  0  0  0
 27 28  1  0  0  0  0
 28 29  2  0  0  0  0
 28 34  1  0  0  0  0
 30 25  1  0  0  0  0
 31 26  1  0  0  0  0
 32 33  1  0  0  0  0
 33 40  1  0  0  0  0
 34 33  2  0  0  0  0
 34 35  1  0  0  0  0
 35 37  2  0  0  0  0
 36 35  1  0  0  0  0
 37 38  1  0  0  0  0
 38 39  1  0  0  0  0
 40 41  1  0  0  0  0
 40 38  2  0  0  0  0
M  END
>  <minimizedAffinity>
-6.12381744

$$$$

 OpenBabel03262522083D

 41 44  0  0  1  0  0  0  0  0999 V2000
   38.9910   23.3390   36.0870 C   0  0  2  0  0  0  0  0  0  0  0  0
   37.8990   24.2050   36.6150 C   0  0  0  0  0  0  0  0  0  0  0  0
   37.9560   25.5060   35.9520 N   0  0  0  0  0  0  0  0  0  0  0  0
   37.6850   26.7170   35.2230 C   0  0  0  0  0  0  0  0  0  0  0  0
   36.6770   27.2880   34.7790 O   0  0  0  0  0  0  0  0  0  0  0  0
   39.0590   27.1250   35.1430 C   0  0  1  0  0  0  0  0  0  0  0  0
   39.2890   26.0040   36.1480 C   0  0  2  0  0  0  0  0  0  0  0  0
   40.2350   24.5880   35.5440 S   0  0  0  0  0  0  0  0  0  0  0  0
   38.0250   24.3750   37.6870 H   0  0  0  0  0  0  0  0  0  0  0  0
   36.8940   23.7640   36.3940 H   0  0  0  0  0  0  0  0  0  0  0  0
   39.3700   28.0680   35.6600 H   0  0  0  0  0  0  0  0  0  0  0  0
   39.5450   26.3130   37.1740 H   0  0  0  0  0  0  0  0  0  0  0  0
   38.6260   22.3700   35.0190 C   0  0  0  0  0  0  0  0  0  0  0  0
   39.1700   22.6010   34.0840 H   0  0  0  0  0  0  0  0  0  0  0  0
   38.8150   21.3180   35.2660 H   0  0  0  0  0  0  0  0  0  0  0  0
   37.5450   22.4840   34.7750 H   0  0  0  0  0  0  0  0  0  0  0  0
   39.6680   22.6380   37.2840 C   0  0  0  0  0  0  0  0  0  0  0  0
   40.5730   23.2490   37.5030 H   0  0  0  0  0  0  0  0  0  0  0  0
   39.9910   21.6190   37.0230 H   0  0  0  0  0  0  0  0  0  0  0  0
   38.7880   22.6620   38.3670 O   0  0  0  0  0  0  0  0  0  0  0  0
   39.0400   23.3540   39.0270 H   0  0  0  0  0  0  0  0  0  0  0  0
   39.7300   26.9620   33.8370 C   0  0  0  0  0  0  0  0  0  0  0  0
   40.9650   27.2780   33.8670 O   0  0  0  0  0  0  0  0  0  0  0  0
   39.0810   26.4960   32.6500 C   0  0  0  0  0  0  0  0  0  0  0  0
   38.9370   27.3740   31.5980 C   0  0  0  0  0  0  0  0  0  0  0  0
   38.2950   26.9150   30.4320 C   0  0  0  0  0  0  0  0  0  0  0  0
   37.8510   25.6170   30.4140 N   0  0  0  0  0  0  0  0  0  0  0  0
   38.0050   24.7900   31.4490 C   0  0  0  0  0  0  0  0  0  0  0  0
   38.6200   25.2240   32.5720 N   0  0  0  0  0  0  0  0  0  0  0  0
   39.3040   28.3870   31.6580 H   0  0  0  0  0  0  0  0  0  0  0  0
   38.1750   27.5830   29.6070 H   0  0  0  0  0  0  0  0  0  0  0  0
   34.9760   24.3660   31.4190 Cl  0  0  0  0  0  0  0  0  0  0  0  0
   36.1600   23.1140   31.2460 C   0  0  0  0  0  0  0  0  0  0  0  0
   37.4820   23.4470   31.2780 C   0  0  0  0  0  0  0  0  0  0  0  0
   38.3610   22.3950   31.1350 C   0  0  0  0  0  0  0  0  0  0  0  0
   39.4430   22.5330   31.1450 H   0  0  0  0  0  0  0  0  0  0  0  0
   37.9110   21.0810   30.9700 C   0  0  0  0  0  3  0  0  0  0  0  0
   36.5650   20.7860   30.9420 C   0  0  0  0  0  0  0  0  0  0  0  0
   36.1140   19.1120   30.7300 Cl  0  0  0  0  0  0  0  0  0  0  0  0
   35.7050   21.8300   31.0830 C   0  0  0  0  0  0  0  0  0  0  0  0
   34.6440   21.6040   31.0630 H   0  0  0  0  0  0  0  0  0  0  0  0
  1 13  1  6  0  0  0
  1  2  1  0  0  0  0
  1 17  1  0  0  0  0
  2  9  1  0  0  0  0
  3  7  1  0  0  0  0
  3  2  1  0  0  0  0
  4  3  1  0  0  0  0
  5  4  2  0  0  0  0
  6  4  1  0  0  0  0
  6 11  1  1  0  0  0
  6  7  1  0  0  0  0
  7 12  1  1  0  0  0
  8  1  1  0  0  0  0
  8  7  1  0  0  0  0
 10  2  1  0  0  0  0
 13 15  1  0  0  0  0
 14 13  1  0  0  0  0
 16 13  1  0  0  0  0
 17 18  1  0  0  0  0
 17 20  1  0  0  0  0
 19 17  1  0  0  0  0
 20 21  1  0  0  0  0
 22 23  2  0  0  0  0
 22  6  1  0  0  0  0
 24 22  1  0  0  0  0
 25 30  1  0  0  0  0
 25 24  2  0  0  0  0
 26 25  1  0  0  0  0
 27 26  2  0  0  0  0
 27 28  1  0  0  0  0
 28 29  2  0  0  0  0
 29 24  1  0  0  0  0
 31 26  1  0  0  0  0
 33 34  1  0  0  0  0
 33 32  1  0  0  0  0
 34 28  1  0  0  0  0
 35 36  1  0  0  0  0
 35 34  2  0  0  0  0
 37 35  1  0  0  0  0
 38 37  2  0  0  0  0
 38 40  1  0  0  0  0
 39 38  1  0  0  0  0
 40 33  2  0  0  0  0
 41 40  1  0  0  0  0
M  END
>  <minimizedAffinity>
-5.83549309

$$$$

 OpenBabel03262522083D

 41 44  0  0  1  0  0  0  0  0999 V2000
   42.2110   26.0750   33.2740 C   0  0  2  0  0  0  0  0  0  0  0  0
   42.0260   25.5340   34.6510 C   0  0  0  0  0  0  0  0  0  0  0  0
   40.6070   25.5820   34.9980 N   0  0  0  0  0  0  0  0  0  0  0  0
   39.2560   25.2950   35.4000 C   0  0  0  0  0  0  0  0  0  0  0  0
   38.6630   24.3450   35.9360 O   0  0  0  0  0  0  0  0  0  0  0  0
   38.7240   26.5530   34.9580 C   0  0  1  0  0  0  0  0  0  0  0  0
   40.1880   26.9420   34.8070 C   0  0  2  0  0  0  0  0  0  0  0  0
   40.7610   27.2030   33.1120 S   0  0  0  0  0  0  0  0  0  0  0  0
   42.5650   26.1420   35.3810 H   0  0  0  0  0  0  0  0  0  0  0  0
   42.3450   24.4620   34.7070 H   0  0  0  0  0  0  0  0  0  0  0  0
   38.2980   27.2540   35.7210 H   0  0  0  0  0  0  0  0  0  0  0  0
   40.5760   27.6760   35.5310 H   0  0  0  0  0  0  0  0  0  0  0  0
   42.3120   25.0840   32.1690 C   0  0  0  0  0  0  0  0  0  0  0  0
   41.4720   25.2090   31.4590 H   0  0  0  0  0  0  0  0  0  0  0  0
   43.2450   25.1260   31.5940 H   0  0  0  0  0  0  0  0  0  0  0  0
   42.2040   24.0570   32.5860 H   0  0  0  0  0  0  0  0  0  0  0  0
   43.4230   27.0290   33.2940 C   0  0  0  0  0  0  0  0  0  0  0  0
   43.1230   27.8910   32.6560 H   0  0  0  0  0  0  0  0  0  0  0  0
   44.3130   26.5590   32.8480 H   0  0  0  0  0  0  0  0  0  0  0  0
   43.6390   27.4450   34.6090 O   0  0  0  0  0  0  0  0  0  0  0  0
   43.3060   28.3640   34.7600 H   0  0  0  0  0  0  0  0  0  0  0  0
   37.9310   26.5440   33.7120 C   0  0  0  0  0  0  0  0  0  0  0  0
   38.0090   25.4410   33.0780 O   0  0  0  0  0  0  0  0  0  0  0  0
   37.1450   27.6470   33.2480 C   0  0  0  0  0  0  0  0  0  0  0  0
   37.3940   28.1380   31.9860 C   0  0  0  0  0  0  0  0  0  0  0  0
   36.6220   29.2260   31.5320 C   0  0  0  0  0  0  0  0  0  0  0  0
   35.6670   29.7310   32.3780 N   0  0  0  0  0  0  0  0  0  0  0  0
   35.4500   29.2340   33.5960 C   0  0  0  0  0  0  0  0  0  0  0  0
   36.1870   28.1900   34.0380 N   0  0  0  0  0  0  0  0  0  0  0  0
   38.1560   27.7070   31.3550 H   0  0  0  0  0  0  0  0  0  0  0  0
   36.8020   29.6200   30.5550 H   0  0  0  0  0  0  0  0  0  0  0  0
   36.2290   31.2710   35.7410 Cl  0  0  0  0  0  0  0  0  0  0  0  0
   34.6070   30.7980   35.3550 C   0  0  0  0  0  0  0  0  0  0  0  0
   34.4060   29.8750   34.3720 C   0  0  0  0  0  0  0  0  0  0  0  0
   33.0880   29.5520   34.1270 C   0  0  0  0  0  0  0  0  0  0  0  0
   32.7980   28.8260   33.3650 H   0  0  0  0  0  0  0  0  0  0  0  0
   32.0420   30.1380   34.8470 C   0  0  0  0  0  3  0  0  0  0  0  0
   32.2890   31.0680   35.8330 C   0  0  0  0  0  0  0  0  0  0  0  0
   30.9100   31.7380   36.6690 Cl  0  0  0  0  0  0  0  0  0  0  0  0
   33.5910   31.3820   36.0690 C   0  0  0  0  0  0  0  0  0  0  0  0
   33.7930   32.1140   36.8450 H   0  0  0  0  0  0  0  0  0  0  0  0
  1 13  1  6  0  0  0
  1 17  1  0  0  0  0
  1  2  1  0  0  0  0
  2 10  1  0  0  0  0
  2  3  1  0  0  0  0
  2  9  1  0  0  0  0
  3  4  1  0  0  0  0
  4  5  2  0  0  0  0
  6  4  1  0  0  0  0
  6 11  1  1  0  0  0
  7  6  1  0  0  0  0
  7  3  1  0  0  0  0
  7 12  1  1  0  0  0
  8  1  1  0  0  0  0
  8  7  1  0  0  0  0
 13 16  1  0  0  0  0
 14 13  1  0  0  0  0
 15 13  1  0  0  0  0
 17 20  1  0  0  0  0
 18 17  1  0  0  0  0
 19 17  1  0  0  0  0
 20 21  1  0  0  0  0
 22  6  1  0  0  0  0
 23 22  2  0  0  0  0
 24 22  1  0  0  0  0
 24 29  1  0  0  0  0
 25 24  2  0  0  0  0
 26 25  1  0  0  0  0
 26 27  2  0  0  0  0
 27 28  1  0  0  0  0
 28 29  2  0  0  0  0
 28 34  1  0  0  0  0
 30 25  1  0  0  0  0
 31 26  1  0  0  0  0
 33 32  1  0  0  0  0
 33 40  1  0  0  0  0
 34 33  2  0  0  0  0
 35 34  1  0  0  0  0
 35 37  2  0  0  0  0
 36 35  1  0  0  0  0
 37 38  1  0  0  0  0
 38 40  2  0  0  0  0
 38 39  1  0  0  0  0
 40 41  1  0  0  0  0
M  END
>  <minimizedAffinity>
-5.81316853

$$$$

 OpenBabel03262522083D

 41 44  0  0  1  0  0  0  0  0999 V2000
   33.0390   31.8950   36.2970 C   0  0  2  0  0  0  0  0  0  0  0  0
   32.2080   32.7320   35.3860 C   0  0  0  0  0  0  0  0  0  0  0  0
   32.3010   32.2000   34.0280 N   0  0  0  0  0  0  0  0  0  0  0  0
   32.0490   31.6670   32.7150 C   0  0  0  0  0  0  0  0  0  0  0  0
   31.0570   31.5130   31.9850 O   0  0  0  0  0  0  0  0  0  0  0  0
   33.4190   31.3230   32.4560 C   0  0  1  0  0  0  0  0  0  0  0  0
   33.7000   32.1420   33.7090 C   0  0  2  0  0  0  0  0  0  0  0  0
   34.3000   31.2110   35.1380 S   0  0  0  0  0  0  0  0  0  0  0  0
   32.5750   33.7610   35.3630 H   0  0  0  0  0  0  0  0  0  0  0  0
   31.1280   32.6980   35.6830 H   0  0  0  0  0  0  0  0  0  0  0  0
   33.9560   31.8460   31.6230 H   0  0  0  0  0  0  0  0  0  0  0  0
   34.2030   33.1090   33.5590 H   0  0  0  0  0  0  0  0  0  0  0  0
   32.3320   30.8480   37.0830 C   0  0  0  0  0  0  0  0  0  0  0  0
   32.6960   29.8410   36.8010 H   0  0  0  0  0  0  0  0  0  0  0  0
   32.4240   30.9460   38.1710 H   0  0  0  0  0  0  0  0  0  0  0  0
   31.2500   30.8610   36.8200 H   0  0  0  0  0  0  0  0  0  0  0  0
   33.8490   32.8400   37.2100 C   0  0  0  0  0  0  0  0  0  0  0  0
   33.1910   33.0250   38.0900 H   0  0  0  0  0  0  0  0  0  0  0  0
   34.0470   33.8040   36.7160 H   0  0  0  0  0  0  0  0  0  0  0  0
   35.0170   32.1860   37.6010 O   0  0  0  0  0  0  0  0  0  0  0  0
   34.9540   31.8490   38.5280 H   0  0  0  0  0  0  0  0  0  0  0  0
   33.7760   29.8920   32.5320 C   0  0  0  0  0  0  0  0  0  0  0  0
   32.8030   29.1530   32.8970 O   0  0  0  0  0  0  0  0  0  0  0  0
   35.0720   29.3670   32.2260 C   0  0  0  0  0  0  0  0  0  0  0  0
   35.7320   29.8620   31.1230 C   0  0  0  0  0  0  0  0  0  0  0  0
   37.0050   29.3410   30.8210 C   0  0  0  0  0  0  0  0  0  0  0  0
   37.5120   28.3690   31.6460 N   0  0  0  0  0  0  0  0  0  0  0  0
   36.8480   27.9090   32.7080 C   0  0  0  0  0  0  0  0  0  0  0  0
   35.6250   28.4040   33.0030 N   0  0  0  0  0  0  0  0  0  0  0  0
   35.2930   30.6280   30.5030 H   0  0  0  0  0  0  0  0  0  0  0  0
   37.5310   29.7140   29.9690 H   0  0  0  0  0  0  0  0  0  0  0  0
   36.3900   24.9720   31.9890 Cl  0  0  0  0  0  0  0  0  0  0  0  0
   37.4030   25.5380   33.2750 C   0  0  0  0  0  0  0  0  0  0  0  0
   37.5150   26.8810   33.4830 C   0  0  0  0  0  0  0  0  0  0  0  0
   38.3380   27.2500   34.5260 C   0  0  0  0  0  0  0  0  0  0  0  0
   38.5090   28.2950   34.7920 H   0  0  0  0  0  0  0  0  0  0  0  0
   39.0040   26.3000   35.3070 C   0  0  0  0  0  3  0  0  0  0  0  0
   38.8640   24.9510   35.0630 C   0  0  0  0  0  0  0  0  0  0  0  0
   39.7410   23.8520   36.0990 Cl  0  0  0  0  0  0  0  0  0  0  0  0
   38.0510   24.5960   34.0330 C   0  0  0  0  0  0  0  0  0  0  0  0
   37.9360   23.5340   33.8360 H   0  0  0  0  0  0  0  0  0  0  0  0
  1 13  1  1  0  0  0
  1 17  1  0  0  0  0
  2 10  1  0  0  0  0
  2  1  1  0  0  0  0
  3  2  1  0  0  0  0
  4  3  1  0  0  0  0
  5  4  2  0  0  0  0
  6 11  1  6  0  0  0
  6 22  1  0  0  0  0
  6  4  1  0  0  0  0
  6  7  1  0  0  0  0
  7 12  1  6  0  0  0
  7  3  1  0  0  0  0
  7  8  1  0  0  0  0
  8  1  1  0  0  0  0
  9  2  1  0  0  0  0
 13 15  1  0  0  0  0
 14 13  1  0  0  0  0
 16 13  1  0  0  0  0
 17 20  1  0  0  0  0
 17 18  1  0  0  0  0
 19 17  1  0  0  0  0
 20 21  1  0  0  0  0
 22 23  2  0  0  0  0
 24 22  1  0  0  0  0
 24 29  1  0  0  0  0
 25 24  2  0  0  0  0
 26 25  1  0  0  0  0
 26 27  2  0  0  0  0
 27 28  1  0  0  0  0
 28 29  2  0  0  0  0
 28 34  1  0  0  0  0
 30 25  1  0  0  0  0
 31 26  1  0  0  0  0
 32 33  1  0  0  0  0
 33 34  2  0  0  0  0
 33 40  1  0  0  0  0
 34 35  1  0  0  0  0
 35 36  1  0  0  0  0
 35 37  2  0  0  0  0
 38 37  1  0  0  0  0
 38 39  1  0  0  0  0
 40 38  2  0  0  0  0
 41 40  1  0  0  0  0
M  END
>  <minimizedAffinity>
-5.79564762

$$$$

 OpenBabel03262522083D

 41 44  0  0  1  0  0  0  0  0999 V2000
   38.0030   23.7790   37.3910 C   0  0  2  0  0  0  0  0  0  0  0  0
   39.2320   23.3290   36.6760 C   0  0  0  0  0  0  0  0  0  0  0  0
   39.5980   24.3320   35.6780 N   0  0  0  0  0  0  0  0  0  0  0  0
   40.2610   25.3130   34.8600 C   0  0  0  0  0  0  0  0  0  0  0  0
   41.4260   25.7130   34.7070 O   0  0  0  0  0  0  0  0  0  0  0  0
   39.0660   25.7500   34.1960 C   0  0  1  0  0  0  0  0  0  0  0  0
   38.4400   24.5270   34.8530 C   0  0  2  0  0  0  0  0  0  0  0  0
   37.2080   24.8660   36.1320 S   0  0  0  0  0  0  0  0  0  0  0  0
   39.0510   22.3900   36.1490 H   0  0  0  0  0  0  0  0  0  0  0  0
   40.0950   23.2330   37.3830 H   0  0  0  0  0  0  0  0  0  0  0  0
   38.9730   25.5850   33.0920 H   0  0  0  0  0  0  0  0  0  0  0  0
   38.1760   23.6940   34.1830 H   0  0  0  0  0  0  0  0  0  0  0  0
   38.1960   24.4450   38.7070 C   0  0  0  0  0  0  0  0  0  0  0  0
   37.8320   25.4900   38.6690 H   0  0  0  0  0  0  0  0  0  0  0  0
   37.7030   23.9490   39.5530 H   0  0  0  0  0  0  0  0  0  0  0  0
   39.2850   24.5140   38.9270 H   0  0  0  0  0  0  0  0  0  0  0  0
   37.0450   22.5730   37.4990 C   0  0  0  0  0  0  0  0  0  0  0  0
   37.5400   21.7590   36.9220 H   0  0  0  0  0  0  0  0  0  0  0  0
   36.0730   22.7900   37.0320 H   0  0  0  0  0  0  0  0  0  0  0  0
   36.9290   22.2190   38.8430 O   0  0  0  0  0  0  0  0  0  0  0  0
   37.4650   21.4160   39.0570 H   0  0  0  0  0  0  0  0  0  0  0  0
   38.5100   27.0550   34.6080 C   0  0  0  0  0  0  0  0  0  0  0  0
   39.0690   27.5290   35.6520 O   0  0  0  0  0  0  0  0  0  0  0  0
   37.4560   27.7370   33.9200 C   0  0  0  0  0  0  0  0  0  0  0  0
   37.4430   27.6940   32.5430 C   0  0  0  0  0  0  0  0  0  0  0  0
   36.4080   28.3690   31.8670 C   0  0  0  0  0  0  0  0  0  0  0  0
   35.4730   29.0300   32.6230 N   0  0  0  0  0  0  0  0  0  0  0  0
   35.5130   29.0530   33.9560 C   0  0  0  0  0  0  0  0  0  0  0  0
   36.5040   28.4080   34.6120 N   0  0  0  0  0  0  0  0  0  0  0  0
   38.2010   27.1600   31.9910 H   0  0  0  0  0  0  0  0  0  0  0  0
   36.3840   28.3460   30.7990 H   0  0  0  0  0  0  0  0  0  0  0  0
   36.2470   31.4110   35.7600 Cl  0  0  0  0  0  0  0  0  0  0  0  0
   34.6350   30.8620   35.4420 C   0  0  0  0  0  0  0  0  0  0  0  0
   34.4530   29.7940   34.6140 C   0  0  0  0  0  0  0  0  0  0  0  0
   33.1430   29.4180   34.4130 C   0  0  0  0  0  0  0  0  0  0  0  0
   32.8680   28.5780   33.7720 H   0  0  0  0  0  0  0  0  0  0  0  0
   32.0830   30.0960   35.0250 C   0  0  0  0  0  3  0  0  0  0  0  0
   32.3090   31.1720   35.8550 C   0  0  0  0  0  0  0  0  0  0  0  0
   30.9140   31.9460   36.5650 Cl  0  0  0  0  0  0  0  0  0  0  0  0
   33.6050   31.5370   36.0470 C   0  0  0  0  0  0  0  0  0  0  0  0
   33.7900   32.3840   36.7000 H   0  0  0  0  0  0  0  0  0  0  0  0
  1 17  1  1  0  0  0
  1 13  1  0  0  0  0
  2 10  1  0  0  0  0
  2  1  1  0  0  0  0
  3  2  1  0  0  0  0
  4  3  1  0  0  0  0
  5  4  2  0  0  0  0
  6 11  1  6  0  0  0
  6 22  1  0  0  0  0
  6  7  1  0  0  0  0
  6  4  1  0  0  0  0
  7 12  1  6  0  0  0
  7  3  1  0  0  0  0
  7  8  1  0  0  0  0
  8  1  1  0  0  0  0
  9  2  1  0  0  0  0
 13 16  1  0  0  0  0
 13 15  1  0  0  0  0
 14 13  1  0  0  0  0
 17 20  1  0  0  0  0
 18 17  1  0  0  0  0
 19 17  1  0  0  0  0
 20 21  1  0  0  0  0
 22 23  2  0  0  0  0
 24 22  1  0  0  0  0
 24 29  1  0  0  0  0
 25 24  2  0  0  0  0
 26 25  1  0  0  0  0
 26 27  2  0  0  0  0
 27 28  1  0  0  0  0
 28 29  2  0  0  0  0
 28 34  1  0  0  0  0
 30 25  1  0  0  0  0
 31 26  1  0  0  0  0
 33 32  1  0  0  0  0
 33 40  1  0  0  0  0
 34 33  2  0  0  0  0
 35 34  1  0  0  0  0
 35 37  2  0  0  0  0
 36 35  1  0  0  0  0
 37 38  1  0  0  0  0
 38 40  2  0  0  0  0
 38 39  1  0  0  0  0
 40 41  1  0  0  0  0
M  END
>  <minimizedAffinity>
-5.67872286

$$$$

 OpenBabel03262522083D

 41 44  0  0  1  0  0  0  0  0999 V2000
   38.6680   26.3030   35.0480 C   0  0  2  0  0  0  0  0  0  0  0  0
   39.9220   26.5220   34.2720 C   0  0  0  0  0  0  0  0  0  0  0  0
   39.5930   26.6390   32.8530 N   0  0  0  0  0  0  0  0  0  0  0  0
   39.4380   27.0530   31.4830 C   0  0  0  0  0  0  0  0  0  0  0  0
   39.9180   27.9350   30.7540 O   0  0  0  0  0  0  0  0  0  0  0  0
   38.4640   26.0490   31.1590 C   0  0  1  0  0  0  0  0  0  0  0  0
   38.8520   25.4590   32.5090 C   0  0  2  0  0  0  0  0  0  0  0  0
   37.5750   25.5160   33.7880 S   0  0  0  0  0  0  0  0  0  0  0  0
   40.6000   25.6720   34.3850 H   0  0  0  0  0  0  0  0  0  0  0  0
   40.4210   27.4770   34.5770 H   0  0  0  0  0  0  0  0  0  0  0  0
   38.7270   25.2710   30.3980 H   0  0  0  0  0  0  0  0  0  0  0  0
   39.4220   24.5180   32.4850 H   0  0  0  0  0  0  0  0  0  0  0  0
   38.0580   27.4970   35.6930 C   0  0  0  0  0  0  0  0  0  0  0  0
   37.0540   27.6940   35.2710 H   0  0  0  0  0  0  0  0  0  0  0  0
   37.9570   27.4320   36.7830 H   0  0  0  0  0  0  0  0  0  0  0  0
   38.6680   28.3960   35.4510 H   0  0  0  0  0  0  0  0  0  0  0  0
   38.9280   25.1760   36.0690 C   0  0  0  0  0  0  0  0  0  0  0  0
   39.3840   25.6830   36.9500 H   0  0  0  0  0  0  0  0  0  0  0  0
   39.6480   24.4400   35.6810 H   0  0  0  0  0  0  0  0  0  0  0  0
   37.7050   24.6000   36.4160 O   0  0  0  0  0  0  0  0  0  0  0  0
   37.3950   24.9090   37.3020 H   0  0  0  0  0  0  0  0  0  0  0  0
   37.0610   26.4940   31.0340 C   0  0  0  0  0  0  0  0  0  0  0  0
   36.2540   25.5390   30.7870 O   0  0  0  0  0  0  0  0  0  0  0  0
   36.6300   27.8520   31.1750 C   0  0  0  0  0  0  0  0  0  0  0  0
   36.8280   28.7110   30.1170 C   0  0  0  0  0  0  0  0  0  0  0  0
   36.4070   30.0480   30.2580 C   0  0  0  0  0  0  0  0  0  0  0  0
   35.8250   30.4140   31.4460 N   0  0  0  0  0  0  0  0  0  0  0  0
   35.6470   29.5580   32.4530 C   0  0  0  0  0  0  0  0  0  0  0  0
   36.0490   28.2730   32.3240 N   0  0  0  0  0  0  0  0  0  0  0  0
   37.2910   28.3780   29.2010 H   0  0  0  0  0  0  0  0  0  0  0  0
   36.5530   30.7280   29.4470 H   0  0  0  0  0  0  0  0  0  0  0  0
   32.6540   29.1040   32.8840 Cl  0  0  0  0  0  0  0  0  0  0  0  0
   33.6970   29.9680   33.9630 C   0  0  0  0  0  0  0  0  0  0  0  0
   35.0170   30.0940   33.6450 C   0  0  0  0  0  0  0  0  0  0  0  0
   35.7800   30.7960   34.5530 C   0  0  0  0  0  0  0  0  0  0  0  0
   36.8490   30.9650   34.4110 H   0  0  0  0  0  0  0  0  0  0  0  0
   35.2220   31.3360   35.7170 C   0  0  0  0  0  3  0  0  0  0  0  0
   33.8830   31.1860   36.0030 C   0  0  0  0  0  0  0  0  0  0  0  0
   33.2920   31.9000   37.4830 Cl  0  0  0  0  0  0  0  0  0  0  0  0
   33.1380   30.4920   35.1020 C   0  0  0  0  0  0  0  0  0  0  0  0
   32.0820   30.3700   35.3200 H   0  0  0  0  0  0  0  0  0  0  0  0
  1 13  1  1  0  0  0
  1 17  1  0  0  0  0
  2  9  1  0  0  0  0
  2 10  1  0  0  0  0
  2  1  1  0  0  0  0
  3  2  1  0  0  0  0
  4  3  1  0  0  0  0
  5  4  2  0  0  0  0
  6 11  1  6  0  0  0
  6  4  1  0  0  0  0
  6  7  1  0  0  0  0
  7 12  1  6  0  0  0
  7  3  1  0  0  0  0
  7  8  1  0  0  0  0
  8  1  1  0  0  0  0
 13 15  1  0  0  0  0
 14 13  1  0  0  0  0
 16 13  1  0  0  0  0
 17 20  1  0  0  0  0
 17 18  1  0  0  0  0
 19 17  1  0  0  0  0
 20 21  1  0  0  0  0
 22  6  1  0  0  0  0
 22 24  1  0  0  0  0
 23 22  2  0  0  0  0
 24 29  1  0  0  0  0
 25 26  1  0  0  0  0
 25 24  2  0  0  0  0
 26 27  2  0  0  0  0
 27 28  1  0  0  0  0
 28 34  1  0  0  0  0
 29 28  2  0  0  0  0
 30 25  1  0  0  0  0
 31 26  1  0  0  0  0
 32 33  1  0  0  0  0
 33 40  1  0  0  0  0
 34 33  2  0  0  0  0
 34 35  1  0  0  0  0
 35 37  2  0  0  0  0
 36 35  1  0  0  0  0
 37 38  1  0  0  0  0
 38 39  1  0  0  0  0
 40 41  1  0  0  0  0
 40 38  2  0  0  0  0
M  END
>  <minimizedAffinity>
-5.65915966

$$$$

 OpenBabel03262522083D

 41 44  0  0  1  0  0  0  0  0999 V2000
   31.5720   31.0290   35.2850 C   0  0  2  0  0  0  0  0  0  0  0  0
   32.4610   31.2870   36.4540 C   0  0  0  0  0  0  0  0  0  0  0  0
   33.8480   31.3380   35.9980 N   0  0  0  0  0  0  0  0  0  0  0  0
   35.2110   31.6960   35.7040 C   0  0  0  0  0  0  0  0  0  0  0  0
   36.0060   32.5760   36.0700 O   0  0  0  0  0  0  0  0  0  0  0  0
   35.4190   30.6310   34.7630 C   0  0  1  0  0  0  0  0  0  0  0  0
   34.0910   30.1090   35.2970 C   0  0  2  0  0  0  0  0  0  0  0  0
   32.7080   30.1430   34.1340 S   0  0  0  0  0  0  0  0  0  0  0  0
   32.3830   30.4790   37.1850 H   0  0  0  0  0  0  0  0  0  0  0  0
   32.2290   32.2770   36.9240 H   0  0  0  0  0  0  0  0  0  0  0  0
   36.1760   29.8420   35.0020 H   0  0  0  0  0  0  0  0  0  0  0  0
   34.1380   29.1990   35.9150 H   0  0  0  0  0  0  0  0  0  0  0  0
   30.9110   32.2110   34.6670 C   0  0  0  0  0  0  0  0  0  0  0  0
   31.2500   32.3400   33.6210 H   0  0  0  0  0  0  0  0  0  0  0  0
   29.8150   32.1780   34.6640 H   0  0  0  0  0  0  0  0  0  0  0  0
   31.2330   33.1320   35.2030 H   0  0  0  0  0  0  0  0  0  0  0  0
   30.5440   29.9530   35.6940 C   0  0  0  0  0  0  0  0  0  0  0  0
   31.0450   28.9810   35.4830 H   0  0  0  0  0  0  0  0  0  0  0  0
   29.6320   30.0140   35.0820 H   0  0  0  0  0  0  0  0  0  0  0  0
   30.2850   30.0840   37.0590 O   0  0  0  0  0  0  0  0  0  0  0  0
   30.7560   29.3930   37.5880 H   0  0  0  0  0  0  0  0  0  0  0  0
   35.4340   30.9970   33.3320 C   0  0  0  0  0  0  0  0  0  0  0  0
   35.0350   32.1890   33.1160 O   0  0  0  0  0  0  0  0  0  0  0  0
   35.8550   30.1220   32.2800 C   0  0  0  0  0  0  0  0  0  0  0  0
   36.2850   30.6840   31.0980 C   0  0  0  0  0  0  0  0  0  0  0  0
   36.6940   29.8210   30.0620 C   0  0  0  0  0  0  0  0  0  0  0  0
   36.6400   28.4700   30.2950 N   0  0  0  0  0  0  0  0  0  0  0  0
   36.2180   27.9550   31.4510 C   0  0  0  0  0  0  0  0  0  0  0  0
   35.8230   28.7770   32.4490 N   0  0  0  0  0  0  0  0  0  0  0  0
   36.3110   31.7540   30.9610 H   0  0  0  0  0  0  0  0  0  0  0  0
   37.0310   30.2400   29.1390 H   0  0  0  0  0  0  0  0  0  0  0  0
   38.5360   26.5580   32.8740 Cl  0  0  0  0  0  0  0  0  0  0  0  0
   37.1820   25.7570   32.1490 C   0  0  0  0  0  0  0  0  0  0  0  0
   36.2180   26.5080   31.5450 C   0  0  0  0  0  0  0  0  0  0  0  0
   35.1760   25.7970   30.9900 C   0  0  0  0  0  0  0  0  0  0  0  0
   34.3430   26.2840   30.4800 H   0  0  0  0  0  0  0  0  0  0  0  0
   35.1270   24.4000   31.0510 C   0  0  0  0  0  3  0  0  0  0  0  0
   36.1230   23.6770   31.6710 C   0  0  0  0  0  0  0  0  0  0  0  0
   35.9610   21.9380   31.6890 Cl  0  0  0  0  0  0  0  0  0  0  0  0
   37.1470   24.3870   32.2160 C   0  0  0  0  0  0  0  0  0  0  0  0
   37.9350   23.8240   32.7050 H   0  0  0  0  0  0  0  0  0  0  0  0
  1 13  1  6  0  0  0
  1 17  1  0  0  0  0
  1  2  1  0  0  0  0
  2 10  1  0  0  0  0
  2  9  1  0  0  0  0
  3  2  1  0  0  0  0
  4  3  1  0  0  0  0
  4  5  2  0  0  0  0
  6 11  1  1  0  0  0
  6  7  1  0  0  0  0
  6  4  1  0  0  0  0
  7 12  1  1  0  0  0
  7  3  1  0  0  0  0
  8  1  1  0  0  0  0
  8  7  1  0  0  0  0
 13 16  1  0  0  0  0
 14 13  1  0  0  0  0
 15 13  1  0  0  0  0
 17 20  1  0  0  0  0
 18 17  1  0  0  0  0
 19 17  1  0  0  0  0
 20 21  1  0  0  0  0
 22  6  1  0  0  0  0
 23 22  2  0  0  0  0
 24 29  1  0  0  0  0
 24 22  1  0  0  0  0
 25 24  2  0  0  0  0
 26 27  2  0  0  0  0
 26 25  1  0  0  0  0
 27 28  1  0  0  0  0
 28 34  1  0  0  0  0
 28 29  2  0  0  0  0
 30 25  1  0  0  0  0
 31 26  1  0  0  0  0
 33 40  1  0  0  0  0
 33 32  1  0  0  0  0
 34 33  2  0  0  0  0
 35 37  2  0  0  0  0
 35 34  1  0  0  0  0
 36 35  1  0  0  0  0
 37 38  1  0  0  0  0
 38 39  1  0  0  0  0
 38 40  2  0  0  0  0
 40 41  1  0  0  0  0
M  END
>  <minimizedAffinity>
-5.62419796

$$$$

 OpenBabel03262522083D

 41 44  0  0  1  0  0  0  0  0999 V2000
   39.0670   25.8860   31.2560 C   0  0  2  0  0  0  0  0  0  0  0  0
   40.5020   25.7620   31.6400 C   0  0  0  0  0  0  0  0  0  0  0  0
   40.6190   25.8580   33.0930 N   0  0  0  0  0  0  0  0  0  0  0  0
   40.8950   25.6500   34.4910 C   0  0  0  0  0  0  0  0  0  0  0  0
   41.5970   24.8760   35.1600 O   0  0  0  0  0  0  0  0  0  0  0  0
   40.0350   26.7060   34.9460 C   0  0  1  0  0  0  0  0  0  0  0  0
   39.9820   27.0870   33.4720 C   0  0  2  0  0  0  0  0  0  0  0  0
   38.3820   26.8650   32.6600 S   0  0  0  0  0  0  0  0  0  0  0  0
   41.0900   26.5750   31.2080 H   0  0  0  0  0  0  0  0  0  0  0  0
   40.9140   24.7650   31.3390 H   0  0  0  0  0  0  0  0  0  0  0  0
   40.4920   27.5820   35.4720 H   0  0  0  0  0  0  0  0  0  0  0  0
   40.5060   28.0130   33.1880 H   0  0  0  0  0  0  0  0  0  0  0  0
   38.3260   24.6210   31.0020 C   0  0  0  0  0  0  0  0  0  0  0  0
   37.5010   24.5040   31.7310 H   0  0  0  0  0  0  0  0  0  0  0  0
   37.9000   24.5290   29.9960 H   0  0  0  0  0  0  0  0  0  0  0  0
   39.0060   23.7570   31.1760 H   0  0  0  0  0  0  0  0  0  0  0  0
   38.9760   26.8480   30.0530 C   0  0  0  0  0  0  0  0  0  0  0  0
   39.4120   26.2840   29.1970 H   0  0  0  0  0  0  0  0  0  0  0  0
   39.5800   27.7540   30.2150 H   0  0  0  0  0  0  0  0  0  0  0  0
   37.6320   27.1350   29.8150 O   0  0  0  0  0  0  0  0  0  0  0  0
   37.2820   26.6290   29.0410 H   0  0  0  0  0  0  0  0  0  0  0  0
   38.7480   26.3060   35.5510 C   0  0  0  0  0  0  0  0  0  0  0  0
   38.0020   27.2990   35.8410 O   0  0  0  0  0  0  0  0  0  0  0  0
   38.3570   24.9500   35.7920 C   0  0  0  0  0  0  0  0  0  0  0  0
   38.1810   24.5460   37.0970 C   0  0  0  0  0  0  0  0  0  0  0  0
   37.7990   23.2110   37.3340 C   0  0  0  0  0  0  0  0  0  0  0  0
   37.6260   22.3920   36.2460 N   0  0  0  0  0  0  0  0  0  0  0  0
   37.8050   22.8130   34.9930 C   0  0  0  0  0  0  0  0  0  0  0  0
   38.1710   24.0930   34.7590 N   0  0  0  0  0  0  0  0  0  0  0  0
   38.3270   25.2270   37.9210 H   0  0  0  0  0  0  0  0  0  0  0  0
   37.6580   22.8810   38.3400 H   0  0  0  0  0  0  0  0  0  0  0  0
   40.1130   22.0860   33.1220 Cl  0  0  0  0  0  0  0  0  0  0  0  0
   38.5190   21.4120   33.0500 C   0  0  0  0  0  0  0  0  0  0  0  0
   37.5850   21.8290   33.9500 C   0  0  0  0  0  0  0  0  0  0  0  0
   36.3410   21.2470   33.8250 C   0  0  0  0  0  0  0  0  0  0  0  0
   35.5100   21.4980   34.4860 H   0  0  0  0  0  0  0  0  0  0  0  0
   36.0730   20.2950   32.8360 C   0  0  0  0  0  3  0  0  0  0  0  0
   37.0460   19.8990   31.9450 C   0  0  0  0  0  0  0  0  0  0  0  0
   36.6040   18.7040   30.7510 Cl  0  0  0  0  0  0  0  0  0  0  0  0
   38.2700   20.4780   32.0750 C   0  0  0  0  0  0  0  0  0  0  0  0
   39.0410   20.1710   31.3760 H   0  0  0  0  0  0  0  0  0  0  0  0
  1 17  1  6  0  0  0
  1  2  1  0  0  0  0
  1  8  1  0  0  0  0
  2  3  1  0  0  0  0
  3  7  1  0  0  0  0
  3  4  1  0  0  0  0
  4  6  1  0  0  0  0
  4  5  2  0  0  0  0
  6 11  1  1  0  0  0
  6 22  1  0  0  0  0
  7 12  1  6  0  0  0
  7  6  1  0  0  0  0
  8  7  1  0  0  0  0
  9  2  1  0  0  0  0
 10  2  1  0  0  0  0
 13 16  1  0  0  0  0
 13  1  1  0  0  0  0
 13 14  1  0  0  0  0
 15 13  1  0  0  0  0
 17 19  1  0  0  0  0
 18 17  1  0  0  0  0
 20 17  1  0  0  0  0
 21 20  1  0  0  0  0
 22 24  1  0  0  0  0
 22 23  2  0  0  0  0
 24 25  1  0  0  0  0
 25 26  2  0  0  0  0
 25 30  1  0  0  0  0
 26 31  1  0  0  0  0
 27 26  1  0  0  0  0
 28 27  2  0  0  0  0
 29 28  1  0  0  0  0
 29 24  2  0  0  0  0
 33 32  1  0  0  0  0
 33 34  1  0  0  0  0
 34 28  1  0  0  0  0
 35 34  2  0  0  0  0
 35 36  1  0  0  0  0
 37 35  1  0  0  0  0
 38 40  1  0  0  0  0
 38 37  2  0  0  0  0
 39 38  1  0  0  0  0
 40 33  2  0  0  0  0
 41 40  1  0  0  0  0
M  END
>  <minimizedAffinity>
-5.61078024

$$$$
