
 OpenBabel03272510343D

 29 31  0  0  0  0  0  0  0  0999 V2000
   36.0400   30.5070   46.9250 C   0  0  0  0  0  0  0  0  0  0  0  0
   35.4350   30.5570   45.6820 C   0  0  0  0  0  0  0  0  0  0  0  0
   34.3710   29.7120   45.4020 C   0  0  0  0  0  0  0  0  0  0  0  0
   33.9330   28.8370   46.3630 C   0  0  0  0  0  0  0  0  0  0  0  0
   34.5290   28.7780   47.6030 C   0  0  0  0  0  0  0  0  0  0  0  0
   35.5960   29.6200   47.8940 C   0  0  0  0  0  0  0  0  0  0  0  0
   35.7880   31.2510   44.9340 H   0  0  0  0  0  0  0  0  0  0  0  0
   33.9390   29.8000   44.4080 H   0  0  0  0  0  0  0  0  0  0  0  0
   33.0920   28.2070   46.0610 H   0  0  0  0  0  0  0  0  0  0  0  0
   34.1590   28.0760   48.3370 H   0  0  0  0  0  0  0  0  0  0  0  0
   38.6260   29.2560   48.0330 Cl  0  0  0  0  0  0  0  0  0  0  0  0
   37.5890   29.4170   49.4480 C   0  0  0  0  0  0  0  0  0  0  0  0
   36.2400   29.5750   49.2010 C   0  0  0  0  0  0  0  0  0  0  0  0
   35.4270   29.7030   50.3160 C   0  0  0  0  0  0  0  0  0  0  0  0
   34.3660   29.8280   50.1880 H   0  0  0  0  0  0  0  0  0  0  0  0
   35.8810   29.6800   51.6180 C   0  0  0  0  0  3  0  0  0  0  0  0
   37.2220   29.5220   51.8360 C   0  0  0  0  0  0  0  0  0  0  0  0
   37.8590   29.4860   53.4760 Cl  0  0  0  0  0  0  0  0  0  0  0  0
   38.0590   29.3930   50.7560 C   0  0  0  0  0  0  0  0  0  0  0  0
   39.1230   29.2670   50.9000 H   0  0  0  0  0  0  0  0  0  0  0  0
   38.1900   32.9220   48.6000 C   0  0  0  0  0  0  0  0  0  0  0  0
   39.2160   33.1770   47.6970 C   0  0  0  0  0  0  0  0  0  0  0  0
   39.1490   32.4840   46.4720 C   0  0  0  0  0  0  0  0  0  0  0  0
   38.1220   31.6330   46.2470 N   0  0  0  0  0  0  0  0  0  0  0  0
   37.1480   31.4160   47.1540 C   0  0  0  0  0  0  0  0  0  0  0  0
   37.1950   32.0690   48.3270 N   0  0  0  0  0  0  0  0  0  0  0  0
   38.2440   33.4600   49.5500 H   0  0  0  0  0  0  0  0  0  0  0  0
   40.0450   33.8400   47.8340 H   0  0  0  0  0  0  0  0  0  0  0  0
   39.9130   32.6310   45.7170 H   0  0  0  0  0  0  0  0  0  0  0  0
  1 25  1  0  0  0  0
  1  6  1  0  0  0  0
  2  1  2  0  0  0  0
  3  2  1  0  0  0  0
  3  4  2  0  0  0  0
  4  5  1  0  0  0  0
  5  6  2  0  0  0  0
  5 10  1  0  0  0  0
  6 13  1  0  0  0  0
  7  2  1  0  0  0  0
  8  3  1  0  0  0  0
  9  4  1  0  0  0  0
 11 12  1  0  0  0  0
 12 19  1  0  0  0  0
 13 12  2  0  0  0  0
 13 14  1  0  0  0  0
 14 16  2  0  0  0  0
 15 14  1  0  0  0  0
 16 17  1  0  0  0  0
 17 18  1  0  0  0  0
 19 20  1  0  0  0  0
 19 17  2  0  0  0  0
 21 27  1  0  0  0  0
 22 28  1  0  0  0  0
 22 21  2  0  0  0  0
 23 22  1  0  0  0  0
 24 23  2  0  0  0  0
 24 25  1  0  0  0  0
 25 26  2  0  0  0  0
 26 21  1  0  0  0  0
 29 23  1  0  0  0  0
M  END
>  <minimizedAffinity>
-0.889718592

>  <minimizedRMSD>
1.74492157

$$$$
