REMARK  Name = 
REMARK  4 active torsions:
REMARK  status: ('A' for Active; 'I' for Inactive)
REMARK    1  A    between atoms: C_3  and  C_12
REMARK    2  A    between atoms: C_7  and  S_14
REMARK    3  A    between atoms: S_14  and  C_17
REMARK    4  A    between atoms: C_21  and  C_33
REMARK                            x       y       z     vdW  Elec       q    Type
REMARK                         _______ _______ _______ _____ _____    ______ ____
ROOT
ATOM      1  S   UNL     1      34.036  29.947  47.512  0.00  0.00    +0.000 S 
ENDROOT
BRANCH   1   8
ATOM      2 CL   UNL     1      36.385  30.910  45.694  0.00  0.00    +0.000 Cl
ATOM      3  C   UNL     1      36.675  30.760  47.406  0.00  0.00    +0.000 A 
ATOM      4  C   UNL     1      37.936  31.078  47.869  0.00  0.00    +0.000 A 
ATOM      5  C   UNL     1      38.178  30.962  49.228  0.00  0.00    +0.000 A 
ATOM      6  C   UNL     1      37.184  30.546  50.059  0.00  0.00    +0.000 A 
ATOM      7  C   UNL     1      35.927  30.238  49.536  0.00  0.00    +0.000 A 
ATOM      8  C   UNL     1      35.620  30.330  48.202  0.00  0.00    +0.000 A 
ATOM      9  H   UNL     1      39.175  31.216  49.571  0.00  0.00    +0.000 HD
ATOM     10  H   UNL     1      37.394  30.462  51.116  0.00  0.00    +0.000 HD
ATOM     11  H   UNL     1      35.158  29.909  50.227  0.00  0.00    +0.000 HD
BRANCH   4  16
ATOM     12  C   UNL     1      40.204  33.313  46.084  0.00  0.00    +0.000 A 
ATOM     13  C   UNL     1      40.915  32.458  45.214  0.00  0.00    +0.000 A 
ATOM     14  C   UNL     1      40.596  31.097  45.256  0.00  0.00    +0.000 A 
ATOM     15  N   UNL     1      39.629  30.671  46.122  0.00  0.00    +0.000 NA
ATOM     16  C   UNL     1      38.985  31.527  46.926  0.00  0.00    +0.000 A 
ATOM     17  N   UNL     1      39.273  32.825  46.903  0.00  0.00    +0.000 NA
ATOM     18  H   UNL     1      40.429  34.377  46.076  0.00  0.00    +0.000 HD
ATOM     19  H   UNL     1      41.675  32.818  44.539  0.00  0.00    +0.000 HD
ATOM     20  H   UNL     1      41.102  30.372  44.614  0.00  0.00    +0.000 HD
ENDBRANCH   4  16
ENDBRANCH   1   8
BRANCH   1  23
ATOM     21 CL   UNL     1      33.754  29.183  44.467  0.00  0.00    +0.000 Cl
ATOM     22  C   UNL     1      33.783  27.953  45.724  0.00  0.00    +0.000 A 
ATOM     23  C   UNL     1      33.904  28.197  47.089  0.00  0.00    +0.000 A 
ATOM     24  C   UNL     1      33.916  27.159  47.975  0.00  0.00    +0.000 A 
ATOM     25  C   UNL     1      33.807  25.864  47.529  0.00  0.00    +0.000 A 
ATOM     26  C   UNL     1      33.684  25.558  46.179  0.00  0.00    +0.000 A 
ATOM     27  C   UNL     1      33.676  26.619  45.316  0.00  0.00    +0.000 A 
ATOM     28  H   UNL     1      34.014  27.438  49.025  0.00  0.00    +0.000 HD
ATOM     29  H   UNL     1      33.818  25.058  48.242  0.00  0.00    +0.000 HD
ATOM     30  H   UNL     1      33.600  24.531  45.849  0.00  0.00    +0.000 HD
BRANCH  27  33
ATOM     31 CL   UNL     1      31.159  25.198  44.810  0.00  0.00    +0.000 Cl
ATOM     32  C   UNL     1      32.351  25.636  43.633  0.00  0.00    +0.000 A 
ATOM     33  C   UNL     1      33.546  26.313  43.885  0.00  0.00    +0.000 A 
ATOM     34  C   UNL     1      34.436  26.619  42.876  0.00  0.00    +0.000 A 
ATOM     35  H   UNL     1      35.322  27.145  43.207  0.00  0.00    +0.000 HD
ATOM     36  C   UNL     1      34.145  26.249  41.580  0.00  0.00    +0.000 A 
ATOM     37  C   UNL     1      32.967  25.578  41.302  0.00  0.00    +0.000 A 
ATOM     38 CL   UNL     1      32.592  25.104  39.651  0.00  0.00    +0.000 Cl
ATOM     39  C   UNL     1      32.066  25.266  42.315  0.00  0.00    +0.000 A 
ATOM     40  H   UNL     1      31.164  24.742  42.042  0.00  0.00    +0.000 HD
ENDBRANCH  27  33
ENDBRANCH   1  23
TORSDOF 4
