
 OpenBabel03262520083D

 19 20  0  0  0  0  0  0  0  0999 V2000
   37.8290   23.6720   33.5760 Cl  0  0  0  0  0  0  0  0  0  0  0  0
   37.7820   25.2720   34.2400 C   0  0  0  0  0  0  0  0  0  0  0  0
   38.4440   25.5440   35.4130 C   0  0  0  0  0  0  0  0  0  0  0  0
   38.4360   26.8010   35.9800 C   0  0  0  0  0  0  0  0  0  0  0  0
   38.9520   27.0490   36.9110 H   0  0  0  0  0  0  0  0  0  0  0  0
   37.7450   27.8340   35.3630 C   0  0  0  0  0  3  0  0  0  0  0  0
   37.0680   27.5940   34.1820 C   0  0  0  0  0  0  0  0  0  0  0  0
   36.1560   28.8050   33.2980 Cl  0  0  0  0  0  0  0  0  0  0  0  0
   37.1090   26.3160   33.6560 C   0  0  0  0  0  0  0  0  0  0  0  0
   36.5870   26.0910   32.7270 H   0  0  0  0  0  0  0  0  0  0  0  0
   41.0170   23.0530   36.2300 C   0  0  0  0  0  0  0  0  0  0  0  0
   40.5200   22.4560   37.3990 C   0  0  0  0  0  0  0  0  0  0  0  0
   39.2840   22.9310   37.8930 C   0  0  0  0  0  0  0  0  0  0  0  0
   38.6620   23.9250   37.2120 N   0  0  0  0  0  0  0  0  0  0  0  0
   39.1790   24.4770   36.0830 C   0  0  0  0  0  0  0  0  0  0  0  0
   40.3550   24.0310   35.6060 N   0  0  0  0  0  0  0  0  0  0  0  0
   41.9650   22.6560   35.8950 H   0  0  0  0  0  0  0  0  0  0  0  0
   40.9760   21.6700   37.9690 H   0  0  0  0  0  0  0  0  0  0  0  0
   38.7920   22.5510   38.7890 H   0  0  0  0  0  0  0  0  0  0  0  0
  1  2  1  0  0  0  0
  2  3  1  0  0  0  0
  3  4  2  0  0  0  0
  3 15  1  0  0  0  0
  4  5  1  0  0  0  0
  6  4  1  0  0  0  0
  7  6  2  0  0  0  0
  8  7  1  0  0  0  0
  9  7  1  0  0  0  0
  9  2  2  0  0  0  0
 10  9  1  0  0  0  0
 11 12  1  0  0  0  0
 12 13  2  0  0  0  0
 12 18  1  0  0  0  0
 13 19  1  0  0  0  0
 14 13  1  0  0  0  0
 15 14  2  0  0  0  0
 16 15  1  0  0  0  0
 16 11  2  0  0  0  0
 17 11  1  0  0  0  0
M  END
>  <minimizedAffinity>
-4.34364796

$$$$

 OpenBabel03262520083D

 19 20  0  0  0  0  0  0  0  0999 V2000
   37.5650   23.7820   37.4940 Cl  0  0  0  0  0  0  0  0  0  0  0  0
   39.1440   23.5010   36.8400 C   0  0  0  0  0  0  0  0  0  0  0  0
   39.6070   24.2870   35.8120 C   0  0  0  0  0  0  0  0  0  0  0  0
   40.8560   24.1030   35.2580 C   0  0  0  0  0  0  0  0  0  0  0  0
   41.2530   24.7100   34.4410 H   0  0  0  0  0  0  0  0  0  0  0  0
   41.6850   23.0990   35.7400 C   0  0  0  0  0  3  0  0  0  0  0  0
   41.2510   22.2910   36.7730 C   0  0  0  0  0  0  0  0  0  0  0  0
   42.1920   20.9880   37.4760 Cl  0  0  0  0  0  0  0  0  0  0  0  0
   39.9890   22.5190   37.2920 C   0  0  0  0  0  0  0  0  0  0  0  0
   39.6140   21.9010   38.1070 H   0  0  0  0  0  0  0  0  0  0  0  0
   37.2170   26.1410   33.7270 C   0  0  0  0  0  0  0  0  0  0  0  0
   37.1720   27.4020   34.3430 C   0  0  0  0  0  0  0  0  0  0  0  0
   37.9800   27.5940   35.4860 C   0  0  0  0  0  0  0  0  0  0  0  0
   38.7430   26.5560   35.9120 N   0  0  0  0  0  0  0  0  0  0  0  0
   38.7570   25.3500   35.2860 C   0  0  0  0  0  0  0  0  0  0  0  0
   37.9910   25.1590   34.1970 N   0  0  0  0  0  0  0  0  0  0  0  0
   36.5810   26.0460   32.8590 H   0  0  0  0  0  0  0  0  0  0  0  0
   36.5860   28.2490   34.0420 H   0  0  0  0  0  0  0  0  0  0  0  0
   38.0350   28.5230   36.0520 H   0  0  0  0  0  0  0  0  0  0  0  0
  2  9  1  0  0  0  0
  2  1  1  0  0  0  0
  3  2  2  0  0  0  0
  4  6  2  0  0  0  0
  4  3  1  0  0  0  0
  5  4  1  0  0  0  0
  6  7  1  0  0  0  0
  7  9  2  0  0  0  0
  7  8  1  0  0  0  0
  9 10  1  0  0  0  0
 11 16  2  0  0  0  0
 11 12  1  0  0  0  0
 12 13  2  0  0  0  0
 13 14  1  0  0  0  0
 13 19  1  0  0  0  0
 15  3  1  0  0  0  0
 15 14  2  0  0  0  0
 16 15  1  0  0  0  0
 17 11  1  0  0  0  0
 18 12  1  0  0  0  0
M  END
>  <minimizedAffinity>
-4.28360224

$$$$

 OpenBabel03262520083D

 19 20  0  0  0  0  0  0  0  0999 V2000
   38.9720   24.1860   33.7240 Cl  0  0  0  0  0  0  0  0  0  0  0  0
   37.8130   22.8990   33.6730 C   0  0  0  0  0  0  0  0  0  0  0  0
   37.5100   22.2090   34.8220 C   0  0  0  0  0  0  0  0  0  0  0  0
   36.5940   21.1780   34.8320 C   0  0  0  0  0  0  0  0  0  0  0  0
   36.3310   20.6100   35.7280 H   0  0  0  0  0  0  0  0  0  0  0  0
   35.9510   20.8120   33.6580 C   0  0  0  0  0  3  0  0  0  0  0  0
   36.2330   21.4860   32.4850 C   0  0  0  0  0  0  0  0  0  0  0  0
   35.4950   21.1290   30.9340 Cl  0  0  0  0  0  0  0  0  0  0  0  0
   37.1580   22.5120   32.5310 C   0  0  0  0  0  0  0  0  0  0  0  0
   37.4060   23.0650   31.6250 H   0  0  0  0  0  0  0  0  0  0  0  0
   40.0350   22.5490   37.4680 C   0  0  0  0  0  0  0  0  0  0  0  0
   39.3630   23.2910   38.4520 C   0  0  0  0  0  0  0  0  0  0  0  0
   38.0290   23.6680   38.1810 C   0  0  0  0  0  0  0  0  0  0  0  0
   37.4850   23.2910   36.9970 N   0  0  0  0  0  0  0  0  0  0  0  0
   38.1710   22.5720   36.0700 C   0  0  0  0  0  0  0  0  0  0  0  0
   39.4410   22.2090   36.3210 N   0  0  0  0  0  0  0  0  0  0  0  0
   41.0520   22.2870   37.7230 H   0  0  0  0  0  0  0  0  0  0  0  0
   39.7520   23.6110   39.4000 H   0  0  0  0  0  0  0  0  0  0  0  0
   37.4010   24.2430   38.8620 H   0  0  0  0  0  0  0  0  0  0  0  0
  2  1  1  0  0  0  0
  2  3  1  0  0  0  0
  3  4  2  0  0  0  0
  3 15  1  0  0  0  0
  4  5  1  0  0  0  0
  6  4  1  0  0  0  0
  7  9  1  0  0  0  0
  7  6  2  0  0  0  0
  8  7  1  0  0  0  0
  9  2  2  0  0  0  0
 10  9  1  0  0  0  0
 11 17  1  0  0  0  0
 11 12  1  0  0  0  0
 12 18  1  0  0  0  0
 13 12  2  0  0  0  0
 13 19  1  0  0  0  0
 14 13  1  0  0  0  0
 15 16  1  0  0  0  0
 15 14  2  0  0  0  0
 16 11  2  0  0  0  0
M  END
>  <minimizedAffinity>
-4.20023823

$$$$

 OpenBabel03262520083D

 19 20  0  0  0  0  0  0  0  0999 V2000
   38.5240   27.3400   36.0400 Cl  0  0  0  0  0  0  0  0  0  0  0  0
   38.0150   26.5150   34.6030 C   0  0  0  0  0  0  0  0  0  0  0  0
   38.0740   25.1440   34.5460 C   0  0  0  0  0  0  0  0  0  0  0  0
   37.6810   24.4420   33.4260 C   0  0  0  0  0  0  0  0  0  0  0  0
   37.7150   23.3530   33.3500 H   0  0  0  0  0  0  0  0  0  0  0  0
   37.2100   25.1250   32.3140 C   0  0  0  0  0  3  0  0  0  0  0  0
   37.1380   26.5040   32.3370 C   0  0  0  0  0  0  0  0  0  0  0  0
   36.5630   27.4910   31.0040 Cl  0  0  0  0  0  0  0  0  0  0  0  0
   37.5440   27.1580   33.4860 C   0  0  0  0  0  0  0  0  0  0  0  0
   37.5010   28.2460   33.5400 H   0  0  0  0  0  0  0  0  0  0  0  0
   40.2190   23.1500   36.7650 C   0  0  0  0  0  0  0  0  0  0  0  0
   39.4350   23.0090   37.9200 C   0  0  0  0  0  0  0  0  0  0  0  0
   38.1580   23.6140   37.9140 C   0  0  0  0  0  0  0  0  0  0  0  0
   37.7740   24.2870   36.8010 N   0  0  0  0  0  0  0  0  0  0  0  0
   38.5650   24.4010   35.7020 C   0  0  0  0  0  0  0  0  0  0  0  0
   39.7820   23.8280   35.7000 N   0  0  0  0  0  0  0  0  0  0  0  0
   41.1860   22.6710   36.8210 H   0  0  0  0  0  0  0  0  0  0  0  0
   39.6960   22.4880   38.8210 H   0  0  0  0  0  0  0  0  0  0  0  0
   37.4550   23.5770   38.7460 H   0  0  0  0  0  0  0  0  0  0  0  0
  2  1  1  0  0  0  0
  3  2  1  0  0  0  0
  3 15  1  0  0  0  0
  4  3  2  0  0  0  0
  5  4  1  0  0  0  0
  6  7  2  0  0  0  0
  6  4  1  0  0  0  0
  7  9  1  0  0  0  0
  8  7  1  0  0  0  0
  9 10  1  0  0  0  0
  9  2  2  0  0  0  0
 11 17  1  0  0  0  0
 11 12  1  0  0  0  0
 12 18  1  0  0  0  0
 13 12  2  0  0  0  0
 13 19  1  0  0  0  0
 14 13  1  0  0  0  0
 15 14  2  0  0  0  0
 16 15  1  0  0  0  0
 16 11  2  0  0  0  0
M  END
>  <minimizedAffinity>
-4.18732357

$$$$

 OpenBabel03262520083D

 19 20  0  0  0  0  0  0  0  0999 V2000
   32.8820   29.3340   34.0350 Cl  0  0  0  0  0  0  0  0  0  0  0  0
   33.8460   30.4300   34.9680 C   0  0  0  0  0  0  0  0  0  0  0  0
   35.2160   30.3940   34.8640 C   0  0  0  0  0  0  0  0  0  0  0  0
   36.0260   31.2460   35.5850 C   0  0  0  0  0  0  0  0  0  0  0  0
   37.1170   31.2420   35.5240 H   0  0  0  0  0  0  0  0  0  0  0  0
   35.4580   32.1740   36.4460 C   0  0  0  0  0  3  0  0  0  0  0  0
   34.0840   32.2380   36.5750 C   0  0  0  0  0  0  0  0  0  0  0  0
   33.2370   33.3600   37.6250 Cl  0  0  0  0  0  0  0  0  0  0  0  0
   33.3190   31.3610   35.8290 C   0  0  0  0  0  0  0  0  0  0  0  0
   32.2320   31.3820   35.9050 H   0  0  0  0  0  0  0  0  0  0  0  0
   36.5100   28.7700   31.8330 C   0  0  0  0  0  0  0  0  0  0  0  0
   37.0290   27.5610   32.3200 C   0  0  0  0  0  0  0  0  0  0  0  0
   36.9230   27.3220   33.7080 C   0  0  0  0  0  0  0  0  0  0  0  0
   36.3300   28.2690   34.4770 N   0  0  0  0  0  0  0  0  0  0  0  0
   35.8390   29.4280   33.9650 C   0  0  0  0  0  0  0  0  0  0  0  0
   35.9370   29.6630   32.6440 N   0  0  0  0  0  0  0  0  0  0  0  0
   36.6170   28.9050   30.7660 H   0  0  0  0  0  0  0  0  0  0  0  0
   37.5060   26.7850   31.7510 H   0  0  0  0  0  0  0  0  0  0  0  0
   37.2860   26.4240   34.2080 H   0  0  0  0  0  0  0  0  0  0  0  0
  1  2  1  0  0  0  0
  2  9  1  0  0  0  0
  3  2  2  0  0  0  0
  3  4  1  0  0  0  0
  4  6  2  0  0  0  0
  5  4  1  0  0  0  0
  6  7  1  0  0  0  0
  7  8  1  0  0  0  0
  9 10  1  0  0  0  0
  9  7  2  0  0  0  0
 11 12  2  0  0  0  0
 11 16  1  0  0  0  0
 12 13  1  0  0  0  0
 13 19  1  0  0  0  0
 13 14  2  0  0  0  0
 15 14  1  0  0  0  0
 15  3  1  0  0  0  0
 16 15  2  0  0  0  0
 17 11  1  0  0  0  0
 18 12  1  0  0  0  0
M  END
>  <minimizedAffinity>
-4.09171581

$$$$

 OpenBabel03262520083D

 19 20  0  0  0  0  0  0  0  0999 V2000
   41.3640   25.2810   34.1070 Cl  0  0  0  0  0  0  0  0  0  0  0  0
   40.7680   24.2220   35.3430 C   0  0  0  0  0  0  0  0  0  0  0  0
   39.4990   24.4010   35.8410 C   0  0  0  0  0  0  0  0  0  0  0  0
   38.9800   23.5850   36.8230 C   0  0  0  0  0  0  0  0  0  0  0  0
   37.9760   23.7000   37.2390 H   0  0  0  0  0  0  0  0  0  0  0  0
   39.7460   22.5480   37.3370 C   0  0  0  0  0  3  0  0  0  0  0  0
   41.0260   22.3400   36.8590 C   0  0  0  0  0  0  0  0  0  0  0  0
   42.1010   21.0710   37.4180 Cl  0  0  0  0  0  0  0  0  0  0  0  0
   41.4970   23.1880   35.8730 C   0  0  0  0  0  0  0  0  0  0  0  0
   42.5020   23.0540   35.4720 H   0  0  0  0  0  0  0  0  0  0  0  0
   37.8450   27.6570   35.4470 C   0  0  0  0  0  0  0  0  0  0  0  0
   37.0870   27.4870   34.2780 C   0  0  0  0  0  0  0  0  0  0  0  0
   37.1610   26.2310   33.6350 C   0  0  0  0  0  0  0  0  0  0  0  0
   37.9530   25.2770   34.1840 N   0  0  0  0  0  0  0  0  0  0  0  0
   38.6720   25.4820   35.3180 C   0  0  0  0  0  0  0  0  0  0  0  0
   38.6070   26.6750   35.9370 N   0  0  0  0  0  0  0  0  0  0  0  0
   37.7550   28.6340   35.9000 H   0  0  0  0  0  0  0  0  0  0  0  0
   36.4500   28.2120   33.8090 H   0  0  0  0  0  0  0  0  0  0  0  0
   36.6220   25.9740   32.7230 H   0  0  0  0  0  0  0  0  0  0  0  0
  1  2  1  0  0  0  0
  2  3  2  0  0  0  0
  2  9  1  0  0  0  0
  3  4  1  0  0  0  0
  4  5  1  0  0  0  0
  4  6  2  0  0  0  0
  7  6  1  0  0  0  0
  7  8  1  0  0  0  0
  9  7  2  0  0  0  0
 10  9  1  0  0  0  0
 11 17  1  0  0  0  0
 11 16  1  0  0  0  0
 12 11  2  0  0  0  0
 13 14  2  0  0  0  0
 13 12  1  0  0  0  0
 14 15  1  0  0  0  0
 15  3  1  0  0  0  0
 15 16  2  0  0  0  0
 18 12  1  0  0  0  0
 19 13  1  0  0  0  0
M  END
>  <minimizedAffinity>
-4.06267738

$$$$

 OpenBabel03262520083D

 19 20  0  0  0  0  0  0  0  0999 V2000
   38.1540   22.9700   33.5370 Cl  0  0  0  0  0  0  0  0  0  0  0  0
   37.1810   24.0850   32.6360 C   0  0  0  0  0  0  0  0  0  0  0  0
   36.2150   23.6110   31.7800 C   0  0  0  0  0  0  0  0  0  0  0  0
   35.4160   24.4580   31.0430 C   0  0  0  0  0  0  0  0  0  0  0  0
   34.6400   24.1140   30.3550 H   0  0  0  0  0  0  0  0  0  0  0  0
   35.5760   25.8320   31.1540 C   0  0  0  0  0  3  0  0  0  0  0  0
   36.5380   26.3420   32.0050 C   0  0  0  0  0  0  0  0  0  0  0  0
   36.8480   28.0530   32.2420 Cl  0  0  0  0  0  0  0  0  0  0  0  0
   37.3120   25.4480   32.7220 C   0  0  0  0  0  0  0  0  0  0  0  0
   38.0810   25.8140   33.4020 H   0  0  0  0  0  0  0  0  0  0  0  0
   36.6090   20.1200   30.7070 C   0  0  0  0  0  0  0  0  0  0  0  0
   35.6110   19.4520   31.4320 C   0  0  0  0  0  0  0  0  0  0  0  0
   34.8060   20.2300   32.2940 C   0  0  0  0  0  0  0  0  0  0  0  0
   35.0460   21.5630   32.3650 N   0  0  0  0  0  0  0  0  0  0  0  0
   36.0240   22.1710   31.6440 C   0  0  0  0  0  0  0  0  0  0  0  0
   36.7950   21.4380   30.8210 N   0  0  0  0  0  0  0  0  0  0  0  0
   37.1970   19.4810   30.0640 H   0  0  0  0  0  0  0  0  0  0  0  0
   35.3860   18.4030   31.4090 H   0  0  0  0  0  0  0  0  0  0  0  0
   33.9990   19.8310   32.9100 H   0  0  0  0  0  0  0  0  0  0  0  0
  2  9  1  0  0  0  0
  2  1  1  0  0  0  0
  3  2  2  0  0  0  0
  4  6  2  0  0  0  0
  4  3  1  0  0  0  0
  5  4  1  0  0  0  0
  6  7  1  0  0  0  0
  7  8  1  0  0  0  0
  7  9  2  0  0  0  0
  9 10  1  0  0  0  0
 11 16  2  0  0  0  0
 11 12  1  0  0  0  0
 12 13  2  0  0  0  0
 13 14  1  0  0  0  0
 13 19  1  0  0  0  0
 15  3  1  0  0  0  0
 15 14  2  0  0  0  0
 16 15  1  0  0  0  0
 17 11  1  0  0  0  0
 18 12  1  0  0  0  0
M  END
>  <minimizedAffinity>
-4.05476189

$$$$

 OpenBabel03262520083D

 19 20  0  0  0  0  0  0  0  0999 V2000
   37.8070   23.3480   33.6690 Cl  0  0  0  0  0  0  0  0  0  0  0  0
   38.7270   24.8160   33.6260 C   0  0  0  0  0  0  0  0  0  0  0  0
   39.3080   25.2900   34.7780 C   0  0  0  0  0  0  0  0  0  0  0  0
   40.0500   26.4520   34.7940 C   0  0  0  0  0  0  0  0  0  0  0  0
   40.5250   26.8560   35.6920 H   0  0  0  0  0  0  0  0  0  0  0  0
   40.2250   27.1780   33.6240 C   0  0  0  0  0  3  0  0  0  0  0  0
   39.6540   26.7290   32.4490 C   0  0  0  0  0  0  0  0  0  0  0  0
   39.7940   27.5460   30.9020 Cl  0  0  0  0  0  0  0  0  0  0  0  0
   38.9210   25.5570   32.4880 C   0  0  0  0  0  0  0  0  0  0  0  0
   38.4560   25.1740   31.5800 H   0  0  0  0  0  0  0  0  0  0  0  0
   39.7870   22.8500   37.4820 C   0  0  0  0  0  0  0  0  0  0  0  0
   38.7710   23.1830   38.3910 C   0  0  0  0  0  0  0  0  0  0  0  0
   37.9240   24.2620   38.0500 C   0  0  0  0  0  0  0  0  0  0  0  0
   38.1440   24.9020   36.8750 N   0  0  0  0  0  0  0  0  0  0  0  0
   39.1410   24.5470   36.0220 C   0  0  0  0  0  0  0  0  0  0  0  0
   39.9510   23.5220   36.3390 N   0  0  0  0  0  0  0  0  0  0  0  0
   40.4070   22.0200   37.7900 H   0  0  0  0  0  0  0  0  0  0  0  0
   38.5600   22.7070   39.3300 H   0  0  0  0  0  0  0  0  0  0  0  0
   37.1010   24.6180   38.6690 H   0  0  0  0  0  0  0  0  0  0  0  0
  2  1  1  0  0  0  0
  2  3  1  0  0  0  0
  3  4  2  0  0  0  0
  3 15  1  0  0  0  0
  4  5  1  0  0  0  0
  6  4  1  0  0  0  0
  7  9  1  0  0  0  0
  7  6  2  0  0  0  0
  8  7  1  0  0  0  0
  9  2  2  0  0  0  0
 10  9  1  0  0  0  0
 11 17  1  0  0  0  0
 11 12  1  0  0  0  0
 12 18  1  0  0  0  0
 13 12  2  0  0  0  0
 13 19  1  0  0  0  0
 14 13  1  0  0  0  0
 15 16  1  0  0  0  0
 15 14  2  0  0  0  0
 16 11  2  0  0  0  0
M  END
>  <minimizedAffinity>
-4.02474117

$$$$

 OpenBabel03262520083D

 19 20  0  0  0  0  0  0  0  0999 V2000
   37.7850   27.7500   35.5080 Cl  0  0  0  0  0  0  0  0  0  0  0  0
   38.0260   26.0360   35.5840 C   0  0  0  0  0  0  0  0  0  0  0  0
   38.0570   25.2990   34.4240 C   0  0  0  0  0  0  0  0  0  0  0  0
   38.2460   23.9330   34.4330 C   0  0  0  0  0  0  0  0  0  0  0  0
   38.2760   23.3190   33.5290 H   0  0  0  0  0  0  0  0  0  0  0  0
   38.4120   23.2660   35.6380 C   0  0  0  0  0  3  0  0  0  0  0  0
   38.3860   23.9760   36.8230 C   0  0  0  0  0  0  0  0  0  0  0  0
   38.5820   23.2620   38.4140 Cl  0  0  0  0  0  0  0  0  0  0  0  0
   38.1940   25.3440   36.7570 C   0  0  0  0  0  0  0  0  0  0  0  0
   38.1670   25.9370   37.6720 H   0  0  0  0  0  0  0  0  0  0  0  0
   36.5360   26.6990   31.3880 C   0  0  0  0  0  0  0  0  0  0  0  0
   37.6310   27.2660   30.7180 C   0  0  0  0  0  0  0  0  0  0  0  0
   38.8970   27.1540   31.3360 C   0  0  0  0  0  0  0  0  0  0  0  0
   38.9730   26.5100   32.5270 N   0  0  0  0  0  0  0  0  0  0  0  0
   37.8860   25.9750   33.1430 C   0  0  0  0  0  0  0  0  0  0  0  0
   36.6780   26.0770   32.5610 N   0  0  0  0  0  0  0  0  0  0  0  0
   35.5910   26.8130   30.8740 H   0  0  0  0  0  0  0  0  0  0  0  0
   37.6180   27.7830   29.7780 H   0  0  0  0  0  0  0  0  0  0  0  0
   39.8230   27.5510   30.9190 H   0  0  0  0  0  0  0  0  0  0  0  0
  1  2  1  0  0  0  0
  2  9  1  0  0  0  0
  3  4  1  0  0  0  0
  3  2  2  0  0  0  0
  4  6  2  0  0  0  0
  5  4  1  0  0  0  0
  6  7  1  0  0  0  0
  7  8  1  0  0  0  0
  9  7  2  0  0  0  0
  9 10  1  0  0  0  0
 11 16  1  0  0  0  0
 12 13  1  0  0  0  0
 12 11  2  0  0  0  0
 13 14  2  0  0  0  0
 14 15  1  0  0  0  0
 15  3  1  0  0  0  0
 16 15  2  0  0  0  0
 17 11  1  0  0  0  0
 18 12  1  0  0  0  0
 19 13  1  0  0  0  0
M  END
>  <minimizedAffinity>
-3.97568417

$$$$
