
 OpenBabel03272505113D

 40 43  0  0  0  0  0  0  0  0999 V2000
   34.0660   29.9720   47.5580 S   0  0  0  0  0  0  0  0  0  0  0  0
   36.4100   30.9110   45.7210 Cl  0  0  0  0  0  0  0  0  0  0  0  0
   36.7020   30.7920   47.4360 C   0  0  0  0  0  0  0  0  0  0  0  0
   37.9620   31.1230   47.8920 C   0  0  0  0  0  0  0  0  0  0  0  0
   38.2050   31.0320   49.2530 C   0  0  0  0  0  0  0  0  0  0  0  0
   37.2130   30.6270   50.0920 C   0  0  0  0  0  0  0  0  0  0  0  0
   35.9570   30.3050   49.5750 C   0  0  0  0  0  0  0  0  0  0  0  0
   35.6490   30.3730   48.2400 C   0  0  0  0  0  0  0  0  0  0  0  0
   39.2010   31.2950   49.5910 H   0  0  0  0  0  0  0  0  0  0  0  0
   37.4240   30.5620   51.1500 H   0  0  0  0  0  0  0  0  0  0  0  0
   35.1890   29.9860   50.2720 H   0  0  0  0  0  0  0  0  0  0  0  0
   40.2260   33.3330   46.0720 C   0  0  0  0  0  0  0  0  0  0  0  0
   40.9350   32.4660   45.2120 C   0  0  0  0  0  0  0  0  0  0  0  0
   40.6150   31.1060   45.2730 C   0  0  0  0  0  0  0  0  0  0  0  0
   39.6500   30.6920   46.1460 N   0  0  0  0  0  0  0  0  0  0  0  0
   39.0090   31.5590   46.9410 C   0  0  0  0  0  0  0  0  0  0  0  0
   39.2970   32.8560   46.9000 N   0  0  0  0  0  0  0  0  0  0  0  0
   40.4520   34.3970   46.0500 H   0  0  0  0  0  0  0  0  0  0  0  0
   41.6930   32.8170   44.5300 H   0  0  0  0  0  0  0  0  0  0  0  0
   41.1190   30.3730   44.6390 H   0  0  0  0  0  0  0  0  0  0  0  0
   33.8980   29.2230   44.5010 Cl  0  0  0  0  0  0  0  0  0  0  0  0
   33.8860   27.9860   45.7510 C   0  0  0  0  0  0  0  0  0  0  0  0
   33.9570   28.2230   47.1210 C   0  0  0  0  0  0  0  0  0  0  0  0
   33.9410   27.1810   48.0020 C   0  0  0  0  0  0  0  0  0  0  0  0
   33.8530   25.8880   47.5460 C   0  0  0  0  0  0  0  0  0  0  0  0
   33.7810   25.5880   46.1900 C   0  0  0  0  0  0  0  0  0  0  0  0
   33.8000   26.6540   45.3330 C   0  0  0  0  0  0  0  0  0  0  0  0
   33.9990   27.4550   49.0560 H   0  0  0  0  0  0  0  0  0  0  0  0
   33.8420   25.0780   48.2540 H   0  0  0  0  0  0  0  0  0  0  0  0
   33.7130   24.5630   45.8520 H   0  0  0  0  0  0  0  0  0  0  0  0
   30.9970   26.5480   44.4700 Cl  0  0  0  0  0  0  0  0  0  0  0  0
   32.3930   26.3030   43.4740 C   0  0  0  0  0  0  0  0  0  0  0  0
   33.7230   26.3550   43.8970 C   0  0  0  0  0  0  0  0  0  0  0  0
   34.7720   26.1440   43.0260 C   0  0  0  0  0  0  0  0  0  0  0  0
   35.7510   26.2130   43.4810 H   0  0  0  0  0  0  0  0  0  0  0  0
   34.5080   25.8730   41.6990 C   0  0  0  0  0  3  0  0  0  0  0  0
   33.1980   25.8150   41.2540 C   0  0  0  0  0  0  0  0  0  0  0  0
   32.8570   25.4700   39.5640 Cl  0  0  0  0  0  0  0  0  0  0  0  0
   32.1370   26.0270   42.1280 C   0  0  0  0  0  0  0  0  0  0  0  0
   31.1380   25.9700   41.7280 H   0  0  0  0  0  0  0  0  0  0  0  0
  1  8  1  0  0  0  0
  2  3  1  0  0  0  0
  3  4  2  0  0  0  0
  3  8  1  0  0  0  0
  4  5  1  0  0  0  0
  5  9  1  0  0  0  0
  5  6  2  0  0  0  0
  6 10  1  0  0  0  0
  7  6  1  0  0  0  0
  7 11  1  0  0  0  0
  8  7  2  0  0  0  0
 12 17  1  0  0  0  0
 13 14  1  0  0  0  0
 13 12  2  0  0  0  0
 14 15  2  0  0  0  0
 15 16  1  0  0  0  0
 16  4  1  0  0  0  0
 17 16  2  0  0  0  0
 18 12  1  0  0  0  0
 19 13  1  0  0  0  0
 20 14  1  0  0  0  0
 21 22  1  0  0  0  0
 22 23  1  0  0  0  0
 23  1  1  0  0  0  0
 23 24  2  0  0  0  0
 24 28  1  0  0  0  0
 25 24  1  0  0  0  0
 25 29  1  0  0  0  0
 26 25  2  0  0  0  0
 27 22  2  0  0  0  0
 27 26  1  0  0  0  0
 30 26  1  0  0  0  0
 32 33  1  0  0  0  0
 32 31  1  0  0  0  0
 33 27  1  0  0  0  0
 34 35  1  0  0  0  0
 34 33  2  0  0  0  0
 36 34  1  0  0  0  0
 37 36  2  0  0  0  0
 37 39  1  0  0  0  0
 38 37  1  0  0  0  0
 39 32  2  0  0  0  0
 40 39  1  0  0  0  0
M  END
>  <minimizedAffinity>
-5.73226118

>  <minimizedRMSD>
0.224874064

$$$$
