
 OpenBabel03272500563D

 36 38  0  0  0  0  0  0  0  0999 V2000
   38.2190   31.9120   47.3620 C   0  0  0  0  0  0  0  0  0  0  0  0
   38.8490   32.7440   48.2460 C   0  0  0  0  0  0  0  0  0  0  0  0
   38.4650   32.8400   49.5870 C   0  0  0  0  0  0  0  0  0  0  0  0
   37.3570   32.0140   50.0200 C   0  0  0  0  0  0  0  0  0  0  0  0
   36.7770   31.2120   49.0970 C   0  0  0  0  0  0  0  0  0  0  0  0
   37.1520   31.1280   47.8060 C   0  0  0  0  0  0  0  0  0  0  0  0
   39.6950   33.3810   47.9400 H   0  0  0  0  0  0  0  0  0  0  0  0
   39.0140   33.5270   50.2340 H   0  0  0  0  0  0  0  0  0  0  0  0
   37.1820   32.1930   51.0550 H   0  0  0  0  0  0  0  0  0  0  0  0
   36.0110   30.6810   49.6410 H   0  0  0  0  0  0  0  0  0  0  0  0
   39.9550   31.1980   45.7930 C   0  0  0  0  0  0  0  0  0  0  0  0
   38.7490   31.9050   46.0150 C   0  0  0  0  0  0  0  0  0  0  0  0
   38.2200   32.4990   44.8960 C   0  0  0  0  0  0  0  0  0  0  0  0
   38.8330   32.3910   43.7050 N   0  0  0  0  0  0  0  0  0  0  0  0
   39.9520   31.7310   43.5180 C   0  0  0  0  0  0  0  0  0  0  0  0
   40.5050   31.1380   44.5640 N   0  0  0  0  0  0  0  0  0  0  0  0
   40.4490   30.6980   46.6060 H   0  0  0  0  0  0  0  0  0  0  0  0
   37.2970   33.0410   45.0650 H   0  0  0  0  0  0  0  0  0  0  0  0
   40.3480   31.7150   42.5170 H   0  0  0  0  0  0  0  0  0  0  0  0
   35.1090   30.0880   47.2760 C   0  0  0  0  0  0  0  0  0  0  0  0
   34.6640   30.6180   48.3710 O   0  0  0  0  0  0  0  0  0  0  0  0
   36.4970   30.3110   46.9190 N   0  0  0  0  0  0  0  0  0  0  0  0
   36.9300   29.8950   46.0910 H   0  0  0  0  0  0  0  0  0  0  0  0
   34.2570   29.3420   46.5070 O   0  0  0  0  0  0  0  0  0  0  0  0
   32.9090   29.6220   46.3170 C   0  0  0  0  0  0  0  0  0  0  0  0
   32.4670   30.8500   46.1540 O   0  0  0  0  0  0  0  0  0  0  0  0
   32.5470   28.0400   48.8050 Cl  0  0  0  0  0  0  0  0  0  0  0  0
   31.6120   27.7280   47.3390 C   0  0  0  0  0  0  0  0  0  0  0  0
   31.8920   28.5460   46.2620 C   0  0  0  0  0  0  0  0  0  0  0  0
   31.1740   28.3150   45.1200 C   0  0  0  0  0  0  0  0  0  0  0  0
   31.3480   28.9200   44.2450 H   0  0  0  0  0  0  0  0  0  0  0  0
   30.2160   27.3280   45.0140 C   0  0  0  0  0  3  0  0  0  0  0  0
   29.9550   26.5240   46.1040 C   0  0  0  0  0  0  0  0  0  0  0  0
   28.7590   25.2430   46.0740 Cl  0  0  0  0  0  0  0  0  0  0  0  0
   30.6620   26.7310   47.2710 C   0  0  0  0  0  0  0  0  0  0  0  0
   30.4970   26.1290   48.1590 H   0  0  0  0  0  0  0  0  0  0  0  0
  1  6  2  0  0  0  0
  1  2  1  0  0  0  0
  2  3  2  0  0  0  0
  3  4  1  0  0  0  0
  3  8  1  0  0  0  0
  4  9  1  0  0  0  0
  5 10  1  0  0  0  0
  5  4  2  0  0  0  0
  6  5  1  0  0  0  0
  7  2  1  0  0  0  0
 11 12  1  0  0  0  0
 11 17  1  0  0  0  0
 12  1  1  0  0  0  0
 13 18  1  0  0  0  0
 13 12  2  0  0  0  0
 14 13  1  0  0  0  0
 15 14  2  0  0  0  0
 15 16  1  0  0  0  0
 16 11  2  0  0  0  0
 19 15  1  0  0  0  0
 20 21  2  0  0  0  0
 22 20  1  0  0  0  0
 22  6  1  0  0  0  0
 23 22  1  0  0  0  0
 24 20  1  0  0  0  0
 25 24  1  0  0  0  0
 26 25  2  0  0  0  0
 28 27  1  0  0  0  0
 29 25  1  0  0  0  0
 29 28  2  0  0  0  0
 30 29  1  0  0  0  0
 31 30  1  0  0  0  0
 32 30  2  0  0  0  0
 32 33  1  0  0  0  0
 33 35  2  0  0  0  0
 34 33  1  0  0  0  0
 35 28  1  0  0  0  0
 35 36  1  0  0  0  0
M  END
>  <minimizedAffinity>
-6.11902428

>  <minimizedRMSD>
0.983154118

$$$$
