
 OpenBabel03272500563D

 36 38  0  0  0  0  0  0  0  0999 V2000
   38.3190   32.0630   47.4310 C   0  0  0  0  0  0  0  0  0  0  0  0
   38.8430   33.0400   48.2300 C   0  0  0  0  0  0  0  0  0  0  0  0
   38.4410   33.2180   49.5590 C   0  0  0  0  0  0  0  0  0  0  0  0
   37.4310   32.3140   50.0710 C   0  0  0  0  0  0  0  0  0  0  0  0
   36.9530   31.3680   49.2290 C   0  0  0  0  0  0  0  0  0  0  0  0
   37.3450   31.2070   47.9500 C   0  0  0  0  0  0  0  0  0  0  0  0
   39.6130   33.7390   47.8630 H   0  0  0  0  0  0  0  0  0  0  0  0
   38.9030   34.0200   50.1360 H   0  0  0  0  0  0  0  0  0  0  0  0
   37.2280   32.5690   51.0850 H   0  0  0  0  0  0  0  0  0  0  0  0
   36.2490   30.8070   49.8230 H   0  0  0  0  0  0  0  0  0  0  0  0
   40.0880   31.3150   45.9160 C   0  0  0  0  0  0  0  0  0  0  0  0
   38.8560   31.9900   46.0890 C   0  0  0  0  0  0  0  0  0  0  0  0
   38.3120   32.4920   44.9330 C   0  0  0  0  0  0  0  0  0  0  0  0
   38.9350   32.3320   43.7530 N   0  0  0  0  0  0  0  0  0  0  0  0
   40.0790   31.7030   43.6120 C   0  0  0  0  0  0  0  0  0  0  0  0
   40.6460   31.1980   44.6950 N   0  0  0  0  0  0  0  0  0  0  0  0
   40.5960   30.8860   46.7610 H   0  0  0  0  0  0  0  0  0  0  0  0
   37.3690   33.0100   45.0640 H   0  0  0  0  0  0  0  0  0  0  0  0
   40.4800   31.6380   42.6160 H   0  0  0  0  0  0  0  0  0  0  0  0
   35.3860   30.0190   47.4140 C   0  0  0  0  0  0  0  0  0  0  0  0
   34.8300   30.6900   48.3730 O   0  0  0  0  0  0  0  0  0  0  0  0
   36.7940   30.2410   47.1460 N   0  0  0  0  0  0  0  0  0  0  0  0
   37.3110   29.7230   46.4320 H   0  0  0  0  0  0  0  0  0  0  0  0
   34.6270   29.1330   46.6990 O   0  0  0  0  0  0  0  0  0  0  0  0
   34.2770   29.2850   45.3620 C   0  0  0  0  0  0  0  0  0  0  0  0
   35.1220   29.7510   44.4680 O   0  0  0  0  0  0  0  0  0  0  0  0
   32.1240   31.2930   45.7600 Cl  0  0  0  0  0  0  0  0  0  0  0  0
   31.8360   29.7370   44.9750 C   0  0  0  0  0  0  0  0  0  0  0  0
   32.9350   28.9070   44.8620 C   0  0  0  0  0  0  0  0  0  0  0  0
   32.7240   27.6990   44.2560 C   0  0  0  0  0  0  0  0  0  0  0  0
   33.5450   27.0090   44.1390 H   0  0  0  0  0  0  0  0  0  0  0  0
   31.4970   27.2960   43.7730 C   0  0  0  0  0  3  0  0  0  0  0  0
   30.4150   28.1430   43.8970 C   0  0  0  0  0  0  0  0  0  0  0  0
   28.8150   27.7280   43.3170 Cl  0  0  0  0  0  0  0  0  0  0  0  0
   30.5920   29.3690   44.5040 C   0  0  0  0  0  0  0  0  0  0  0  0
   29.7760   30.0740   44.6280 H   0  0  0  0  0  0  0  0  0  0  0  0
  1  6  2  0  0  0  0
  1  2  1  0  0  0  0
  2  3  2  0  0  0  0
  3  4  1  0  0  0  0
  3  8  1  0  0  0  0
  4  9  1  0  0  0  0
  5 10  1  0  0  0  0
  5  4  2  0  0  0  0
  6  5  1  0  0  0  0
  7  2  1  0  0  0  0
 11 12  1  0  0  0  0
 11 17  1  0  0  0  0
 12  1  1  0  0  0  0
 13 18  1  0  0  0  0
 13 12  2  0  0  0  0
 14 13  1  0  0  0  0
 15 14  2  0  0  0  0
 15 16  1  0  0  0  0
 16 11  2  0  0  0  0
 19 15  1  0  0  0  0
 20 21  2  0  0  0  0
 22 20  1  0  0  0  0
 22  6  1  0  0  0  0
 23 22  1  0  0  0  0
 24 20  1  0  0  0  0
 25 24  1  0  0  0  0
 26 25  2  0  0  0  0
 28 27  1  0  0  0  0
 29 28  1  0  0  0  0
 29 25  1  0  0  0  0
 30 29  2  0  0  0  0
 31 30  1  0  0  0  0
 32 33  2  0  0  0  0
 32 30  1  0  0  0  0
 33 35  1  0  0  0  0
 34 33  1  0  0  0  0
 35 36  1  0  0  0  0
 35 28  2  0  0  0  0
M  END
>  <minimizedAffinity>
-5.37621212

>  <minimizedRMSD>
1.02404273

$$$$
