
 OpenBabel03272500563D

 36 38  0  0  0  0  0  0  0  0999 V2000
   38.0850   31.9400   47.4550 C   0  0  0  0  0  0  0  0  0  0  0  0
   38.4670   32.9410   48.3040 C   0  0  0  0  0  0  0  0  0  0  0  0
   37.9550   33.0600   49.6010 C   0  0  0  0  0  0  0  0  0  0  0  0
   36.9880   32.0680   50.0240 C   0  0  0  0  0  0  0  0  0  0  0  0
   36.6530   31.1030   49.1360 C   0  0  0  0  0  0  0  0  0  0  0  0
   37.1490   30.9990   47.8890 C   0  0  0  0  0  0  0  0  0  0  0  0
   39.2020   33.7060   48.0050 H   0  0  0  0  0  0  0  0  0  0  0  0
   38.3070   33.8850   50.2220 H   0  0  0  0  0  0  0  0  0  0  0  0
   36.6920   32.2850   51.0240 H   0  0  0  0  0  0  0  0  0  0  0  0
   35.9550   30.4750   49.6690 H   0  0  0  0  0  0  0  0  0  0  0  0
   39.9890   31.3120   46.0530 C   0  0  0  0  0  0  0  0  0  0  0  0
   38.7230   31.9370   46.1550 C   0  0  0  0  0  0  0  0  0  0  0  0
   38.2480   32.4630   44.9800 C   0  0  0  0  0  0  0  0  0  0  0  0
   38.9630   32.3690   43.8460 N   0  0  0  0  0  0  0  0  0  0  0  0
   40.1370   31.7860   43.7700 C   0  0  0  0  0  0  0  0  0  0  0  0
   40.6410   31.2610   44.8750 N   0  0  0  0  0  0  0  0  0  0  0  0
   40.4480   30.8690   46.9190 H   0  0  0  0  0  0  0  0  0  0  0  0
   37.2800   32.9420   45.0570 H   0  0  0  0  0  0  0  0  0  0  0  0
   40.6140   31.7730   42.8060 H   0  0  0  0  0  0  0  0  0  0  0  0
   35.2970   29.8670   46.9800 C   0  0  0  0  0  0  0  0  0  0  0  0
   34.5780   30.6250   47.7470 O   0  0  0  0  0  0  0  0  0  0  0  0
   36.7390   30.0070   47.0330 N   0  0  0  0  0  0  0  0  0  0  0  0
   37.3730   29.4190   46.4870 H   0  0  0  0  0  0  0  0  0  0  0  0
   34.6690   28.9710   46.1580 O   0  0  0  0  0  0  0  0  0  0  0  0
   33.6450   29.2880   45.2730 C   0  0  0  0  0  0  0  0  0  0  0  0
   33.8800   29.8350   44.1000 O   0  0  0  0  0  0  0  0  0  0  0  0
   31.9010   31.6570   45.6870 Cl  0  0  0  0  0  0  0  0  0  0  0  0
   31.2960   30.0010   45.8110 C   0  0  0  0  0  0  0  0  0  0  0  0
   32.2260   29.0030   45.5910 C   0  0  0  0  0  0  0  0  0  0  0  0
   31.7700   27.7170   45.6850 C   0  0  0  0  0  0  0  0  0  0  0  0
   32.4490   26.8930   45.5240 H   0  0  0  0  0  0  0  0  0  0  0  0
   30.4620   27.3950   45.9790 C   0  0  0  0  0  3  0  0  0  0  0  0
   29.5520   28.4100   46.1930 C   0  0  0  0  0  0  0  0  0  0  0  0
   27.8680   28.1080   46.5720 Cl  0  0  0  0  0  0  0  0  0  0  0  0
   29.9790   29.7180   46.1070 C   0  0  0  0  0  0  0  0  0  0  0  0
   29.3060   30.5570   46.2660 H   0  0  0  0  0  0  0  0  0  0  0  0
  1  6  2  0  0  0  0
  1  2  1  0  0  0  0
  2  3  2  0  0  0  0
  3  4  1  0  0  0  0
  3  8  1  0  0  0  0
  4  9  1  0  0  0  0
  5 10  1  0  0  0  0
  5  4  2  0  0  0  0
  6  5  1  0  0  0  0
  7  2  1  0  0  0  0
 11 12  1  0  0  0  0
 11 17  1  0  0  0  0
 12  1  1  0  0  0  0
 13 18  1  0  0  0  0
 13 12  2  0  0  0  0
 14 13  1  0  0  0  0
 15 14  2  0  0  0  0
 15 16  1  0  0  0  0
 16 11  2  0  0  0  0
 19 15  1  0  0  0  0
 20 22  1  0  0  0  0
 20 21  2  0  0  0  0
 22  6  1  0  0  0  0
 23 22  1  0  0  0  0
 24 20  1  0  0  0  0
 25 29  1  0  0  0  0
 25 24  1  0  0  0  0
 26 25  2  0  0  0  0
 27 28  1  0  0  0  0
 28 35  1  0  0  0  0
 29 30  1  0  0  0  0
 29 28  2  0  0  0  0
 30 32  2  0  0  0  0
 31 30  1  0  0  0  0
 32 33  1  0  0  0  0
 33 34  1  0  0  0  0
 35 33  2  0  0  0  0
 35 36  1  0  0  0  0
M  END
>  <minimizedAffinity>
-5.53453207

>  <minimizedRMSD>
0.928688943

$$$$
