
 OpenBabel03272508563D

 41 44  0  0  1  0  0  0  0  0999 V2000
   39.1490   31.4890   43.3220 C   0  0  0  0  0  0  0  0  0  0  0  0
   40.1380   30.5560   43.4650 C   0  0  0  0  0  0  0  0  0  0  0  0
   40.8550   30.1930   42.3430 C   0  0  0  0  0  0  0  0  0  0  0  0
   40.5250   30.7980   41.1430 C   0  0  0  0  0  0  0  0  0  0  0  0
   39.5260   31.7400   40.9950 C   0  0  0  0  0  0  0  0  0  0  0  0
   38.8690   32.0480   42.1240 N   0  0  0  0  0  0  0  0  0  0  0  0
   40.3740   30.1000   44.4200 H   0  0  0  0  0  0  0  0  0  0  0  0
   41.6410   29.4590   42.4320 H   0  0  0  0  0  0  0  0  0  0  0  0
   41.1200   30.4730   40.3040 H   0  0  0  0  0  0  0  0  0  0  0  0
   38.3750   31.8890   44.5150 C   0  0  0  0  0  0  0  0  0  0  0  0
   37.2590   32.4510   44.4080 O   0  0  0  0  0  0  0  0  0  0  0  0
   38.9530   31.6080   45.8200 N   0  0  0  0  0  0  0  0  0  0  0  0
   39.9260   31.3300   45.9610 H   0  0  0  0  0  0  0  0  0  0  0  0
   38.4400   31.1010   48.1900 C   0  0  2  0  0  0  0  0  0  0  0  0
   38.6840   32.5640   48.1120 C   0  0  0  0  0  0  0  0  0  0  0  0
   38.0810   31.7380   46.9650 C   0  0  1  0  0  0  0  0  0  0  0  0
   39.3510   30.4760   48.2740 H   0  0  0  0  0  0  0  0  0  0  0  0
   39.7200   32.8990   48.0130 H   0  0  0  0  0  0  0  0  0  0  0  0
   38.0420   33.2780   48.6550 H   0  0  0  0  0  0  0  0  0  0  0  0
   37.0240   32.0170   46.7670 H   0  0  0  0  0  0  0  0  0  0  0  0
   35.0690   30.2420   49.5090 C   0  0  0  0  0  0  0  0  0  0  0  0
   35.4050   29.5530   50.7240 C   0  0  0  0  0  0  0  0  0  0  0  0
   36.8020   29.4090   51.0670 C   0  0  0  0  0  0  0  0  0  0  0  0
   37.7480   29.9310   50.2260 N   0  0  0  0  0  0  0  0  0  0  0  0
   37.3530   30.5660   49.0970 C   0  0  0  0  0  0  0  0  0  0  0  0
   36.0310   30.7410   48.7060 N   0  0  0  0  0  0  0  0  0  0  0  0
   34.0150   30.3270   49.2900 H   0  0  0  0  0  0  0  0  0  0  0  0
   34.6330   29.1660   51.3440 H   0  0  0  0  0  0  0  0  0  0  0  0
   37.0420   28.8980   51.9700 H   0  0  0  0  0  0  0  0  0  0  0  0
   39.2260   32.3370   39.6980 C   0  0  0  0  0  0  0  0  0  0  0  0
   38.6780   33.4630   39.6570 O   0  0  0  0  0  0  0  0  0  0  0  0
   37.4180   30.1090   38.6570 Cl  0  0  0  0  0  0  0  0  0  0  0  0
   38.8280   30.6810   37.8060 C   0  0  0  0  0  0  0  0  0  0  0  0
   39.5280   31.6940   38.4250 C   0  0  0  0  0  0  0  0  0  0  0  0
   40.6640   32.1710   37.7610 C   0  0  0  0  0  0  0  0  0  0  0  0
   41.2650   32.9800   38.2040 H   0  0  0  0  0  0  0  0  0  0  0  0
   41.1280   31.6970   36.5370 C   0  0  0  0  0  3  0  0  0  0  0  0
   40.3780   30.6850   35.9800 C   0  0  0  0  0  0  0  0  0  0  0  0
   40.9380   30.0680   34.4360 Cl  0  0  0  0  0  0  0  0  0  0  0  0
   39.2490   30.1780   36.5920 C   0  0  0  0  0  0  0  0  0  0  0  0
   38.6730   29.3780   36.1310 H   0  0  0  0  0  0  0  0  0  0  0  0
  1  2  1  0  0  0  0
  1 10  1  0  0  0  0
  2  7  1  0  0  0  0
  3  8  1  0  0  0  0
  3  2  2  0  0  0  0
  4  3  1  0  0  0  0
  5  4  2  0  0  0  0
  5  6  1  0  0  0  0
  6  1  2  0  0  0  0
  9  4  1  0  0  0  0
 10 12  1  0  0  0  0
 11 10  2  0  0  0  0
 12 13  1  0  0  0  0
 12 16  1  0  0  0  0
 14 17  1  6  0  0  0
 14 25  1  0  0  0  0
 15 14  1  0  0  0  0
 15 19  1  0  0  0  0
 16 20  1  6  0  0  0
 16 15  1  0  0  0  0
 16 14  1  0  0  0  0
 18 15  1  0  0  0  0
 21 22  1  0  0  0  0
 22 23  2  0  0  0  0
 22 28  1  0  0  0  0
 23 29  1  0  0  0  0
 24 23  1  0  0  0  0
 25 24  2  0  0  0  0
 26 25  1  0  0  0  0
 26 21  2  0  0  0  0
 27 21  1  0  0  0  0
 30  5  1  0  0  0  0
 31 30  2  0  0  0  0
 33 34  1  0  0  0  0
 33 32  1  0  0  0  0
 34 30  1  0  0  0  0
 35 36  1  0  0  0  0
 35 34  2  0  0  0  0
 37 35  1  0  0  0  0
 38 37  2  0  0  0  0
 38 40  1  0  0  0  0
 39 38  1  0  0  0  0
 40 33  2  0  0  0  0
 41 40  1  0  0  0  0
M  END
>  <minimizedAffinity>
-4.96861601

>  <minimizedRMSD>
0.36298281

$$$$
