
 OpenBabel03272508563D

 41 44  0  0  1  0  0  0  0  0999 V2000
   39.1500   31.4890   43.3210 C   0  0  0  0  0  0  0  0  0  0  0  0
   40.1380   30.5560   43.4650 C   0  0  0  0  0  0  0  0  0  0  0  0
   40.8550   30.1930   42.3430 C   0  0  0  0  0  0  0  0  0  0  0  0
   40.5260   30.7980   41.1420 C   0  0  0  0  0  0  0  0  0  0  0  0
   39.5260   31.7410   40.9950 C   0  0  0  0  0  0  0  0  0  0  0  0
   38.8690   32.0480   42.1240 N   0  0  0  0  0  0  0  0  0  0  0  0
   40.3750   30.1000   44.4200 H   0  0  0  0  0  0  0  0  0  0  0  0
   41.6410   29.4580   42.4310 H   0  0  0  0  0  0  0  0  0  0  0  0
   41.1200   30.4730   40.3030 H   0  0  0  0  0  0  0  0  0  0  0  0
   38.3750   31.8890   44.5150 C   0  0  0  0  0  0  0  0  0  0  0  0
   37.2600   32.4520   44.4080 O   0  0  0  0  0  0  0  0  0  0  0  0
   38.9530   31.6070   45.8200 N   0  0  0  0  0  0  0  0  0  0  0  0
   39.9260   31.3280   45.9610 H   0  0  0  0  0  0  0  0  0  0  0  0
   38.4400   31.1000   48.1900 C   0  0  2  0  0  0  0  0  0  0  0  0
   38.6830   32.5630   48.1110 C   0  0  0  0  0  0  0  0  0  0  0  0
   38.0810   31.7360   46.9650 C   0  0  1  0  0  0  0  0  0  0  0  0
   39.3510   30.4750   48.2740 H   0  0  0  0  0  0  0  0  0  0  0  0
   39.7200   32.8980   48.0120 H   0  0  0  0  0  0  0  0  0  0  0  0
   38.0410   33.2770   48.6540 H   0  0  0  0  0  0  0  0  0  0  0  0
   37.0240   32.0160   46.7670 H   0  0  0  0  0  0  0  0  0  0  0  0
   35.0690   30.2390   49.5080 C   0  0  0  0  0  0  0  0  0  0  0  0
   35.4050   29.5520   50.7250 C   0  0  0  0  0  0  0  0  0  0  0  0
   36.8020   29.4110   51.0690 C   0  0  0  0  0  0  0  0  0  0  0  0
   37.7480   29.9320   50.2280 N   0  0  0  0  0  0  0  0  0  0  0  0
   37.3540   30.5650   49.0970 C   0  0  0  0  0  0  0  0  0  0  0  0
   36.0310   30.7380   48.7050 N   0  0  0  0  0  0  0  0  0  0  0  0
   34.0160   30.3220   49.2890 H   0  0  0  0  0  0  0  0  0  0  0  0
   34.6330   29.1650   51.3450 H   0  0  0  0  0  0  0  0  0  0  0  0
   37.0430   28.9020   51.9730 H   0  0  0  0  0  0  0  0  0  0  0  0
   39.2270   32.3370   39.6980 C   0  0  0  0  0  0  0  0  0  0  0  0
   38.6800   33.4640   39.6570 O   0  0  0  0  0  0  0  0  0  0  0  0
   37.4190   30.1090   38.6580 Cl  0  0  0  0  0  0  0  0  0  0  0  0
   38.8280   30.6790   37.8070 C   0  0  0  0  0  0  0  0  0  0  0  0
   39.5280   31.6950   38.4250 C   0  0  0  0  0  0  0  0  0  0  0  0
   40.6650   32.1710   37.7600 C   0  0  0  0  0  0  0  0  0  0  0  0
   41.2650   32.9810   38.2030 H   0  0  0  0  0  0  0  0  0  0  0  0
   41.1280   31.6970   36.5370 C   0  0  0  0  0  3  0  0  0  0  0  0
   40.3770   30.6840   35.9810 C   0  0  0  0  0  0  0  0  0  0  0  0
   40.9370   30.0660   34.4370 Cl  0  0  0  0  0  0  0  0  0  0  0  0
   39.2500   30.1770   36.5930 C   0  0  0  0  0  0  0  0  0  0  0  0
   38.6730   29.3770   36.1330 H   0  0  0  0  0  0  0  0  0  0  0  0
  1  2  1  0  0  0  0
  1 10  1  0  0  0  0
  2  7  1  0  0  0  0
  3  8  1  0  0  0  0
  3  2  2  0  0  0  0
  4  3  1  0  0  0  0
  5  4  2  0  0  0  0
  5  6  1  0  0  0  0
  6  1  2  0  0  0  0
  9  4  1  0  0  0  0
 10 12  1  0  0  0  0
 11 10  2  0  0  0  0
 12 13  1  0  0  0  0
 12 16  1  0  0  0  0
 14 17  1  6  0  0  0
 14 25  1  0  0  0  0
 15 14  1  0  0  0  0
 15 19  1  0  0  0  0
 16 20  1  6  0  0  0
 16 15  1  0  0  0  0
 16 14  1  0  0  0  0
 18 15  1  0  0  0  0
 21 22  1  0  0  0  0
 22 23  2  0  0  0  0
 22 28  1  0  0  0  0
 23 29  1  0  0  0  0
 24 23  1  0  0  0  0
 25 24  2  0  0  0  0
 26 25  1  0  0  0  0
 26 21  2  0  0  0  0
 27 21  1  0  0  0  0
 30  5  1  0  0  0  0
 31 30  2  0  0  0  0
 33 34  1  0  0  0  0
 33 32  1  0  0  0  0
 34 30  1  0  0  0  0
 35 36  1  0  0  0  0
 35 34  2  0  0  0  0
 37 35  1  0  0  0  0
 38 37  2  0  0  0  0
 38 40  1  0  0  0  0
 39 38  1  0  0  0  0
 40 33  2  0  0  0  0
 41 40  1  0  0  0  0
M  END
>  <minimizedAffinity>
-4.96875572

>  <minimizedRMSD>
0.587229252

$$$$
