
 OpenBabel03272508563D

 41 44  0  0  1  0  0  0  0  0999 V2000
   38.8830   31.0360   43.6250 C   0  0  0  0  0  0  0  0  0  0  0  0
   40.0660   30.3510   43.6600 C   0  0  0  0  0  0  0  0  0  0  0  0
   40.7810   30.2320   42.4850 C   0  0  0  0  0  0  0  0  0  0  0  0
   40.2530   30.8140   41.3460 C   0  0  0  0  0  0  0  0  0  0  0  0
   39.0570   31.5050   41.3080 C   0  0  0  0  0  0  0  0  0  0  0  0
   38.4130   31.5840   42.4830 N   0  0  0  0  0  0  0  0  0  0  0  0
   40.4550   29.9070   44.5690 H   0  0  0  0  0  0  0  0  0  0  0  0
   41.7190   29.6970   42.4880 H   0  0  0  0  0  0  0  0  0  0  0  0
   40.8570   30.6860   40.4620 H   0  0  0  0  0  0  0  0  0  0  0  0
   38.1070   31.1730   44.8760 C   0  0  0  0  0  0  0  0  0  0  0  0
   37.1010   30.4590   45.0990 O   0  0  0  0  0  0  0  0  0  0  0  0
   38.5530   32.1680   45.8400 N   0  0  0  0  0  0  0  0  0  0  0  0
   39.2400   32.8930   45.6290 H   0  0  0  0  0  0  0  0  0  0  0  0
   38.6120   31.3110   48.1630 C   0  0  2  0  0  0  0  0  0  0  0  0
   38.8300   32.7780   48.2450 C   0  0  0  0  0  0  0  0  0  0  0  0
   37.9740   32.1030   47.1630 C   0  0  1  0  0  0  0  0  0  0  0  0
   39.5170   30.7120   47.9400 H   0  0  0  0  0  0  0  0  0  0  0  0
   39.8140   33.1590   47.9580 H   0  0  0  0  0  0  0  0  0  0  0  0
   38.3340   33.3850   49.0210 H   0  0  0  0  0  0  0  0  0  0  0  0
   36.9000   32.3710   47.2600 H   0  0  0  0  0  0  0  0  0  0  0  0
   36.0230   29.1370   49.7160 C   0  0  0  0  0  0  0  0  0  0  0  0
   36.2880   29.3310   51.1140 C   0  0  0  0  0  0  0  0  0  0  0  0
   37.3600   30.2250   51.4920 C   0  0  0  0  0  0  0  0  0  0  0  0
   38.0780   30.8500   50.5080 N   0  0  0  0  0  0  0  0  0  0  0  0
   37.7700   30.6160   49.2100 C   0  0  0  0  0  0  0  0  0  0  0  0
   36.7540   29.7710   48.7760 N   0  0  0  0  0  0  0  0  0  0  0  0
   35.2150   28.4620   49.4780 H   0  0  0  0  0  0  0  0  0  0  0  0
   35.7010   28.8230   51.8400 H   0  0  0  0  0  0  0  0  0  0  0  0
   37.5500   30.3640   52.5310 H   0  0  0  0  0  0  0  0  0  0  0  0
   38.5540   32.0910   40.0710 C   0  0  0  0  0  0  0  0  0  0  0  0
   39.3520   32.6920   39.3130 O   0  0  0  0  0  0  0  0  0  0  0  0
   36.5960   34.2590   40.9540 Cl  0  0  0  0  0  0  0  0  0  0  0  0
   36.1450   32.9060   39.9540 C   0  0  0  0  0  0  0  0  0  0  0  0
   37.1600   32.0210   39.6520 C   0  0  0  0  0  0  0  0  0  0  0  0
   36.8220   30.9250   38.8500 C   0  0  0  0  0  0  0  0  0  0  0  0
   37.5890   30.1850   38.5740 H   0  0  0  0  0  0  0  0  0  0  0  0
   35.5500   30.6710   38.3440 C   0  0  0  0  0  3  0  0  0  0  0  0
   34.5900   31.5970   38.6870 C   0  0  0  0  0  0  0  0  0  0  0  0
   32.9770   31.3030   38.0640 Cl  0  0  0  0  0  0  0  0  0  0  0  0
   34.8680   32.6950   39.4750 C   0  0  0  0  0  0  0  0  0  0  0  0
   34.0910   33.4130   39.7320 H   0  0  0  0  0  0  0  0  0  0  0  0
  1  2  1  0  0  0  0
  1 10  1  0  0  0  0
  2  7  1  0  0  0  0
  3  8  1  0  0  0  0
  3  2  2  0  0  0  0
  4  3  1  0  0  0  0
  5  4  2  0  0  0  0
  5  6  1  0  0  0  0
  6  1  2  0  0  0  0
  9  4  1  0  0  0  0
 10 11  2  0  0  0  0
 10 12  1  0  0  0  0
 12 16  1  0  0  0  0
 13 12  1  0  0  0  0
 14 17  1  6  0  0  0
 14 15  1  0  0  0  0
 14 25  1  0  0  0  0
 15 19  1  0  0  0  0
 16 20  1  1  0  0  0
 16 14  1  0  0  0  0
 16 15  1  0  0  0  0
 18 15  1  0  0  0  0
 21 22  1  0  0  0  0
 22 23  2  0  0  0  0
 22 28  1  0  0  0  0
 23 29  1  0  0  0  0
 24 23  1  0  0  0  0
 25 24  2  0  0  0  0
 26 25  1  0  0  0  0
 26 21  2  0  0  0  0
 27 21  1  0  0  0  0
 30  5  1  0  0  0  0
 31 30  2  0  0  0  0
 33 32  1  0  0  0  0
 34 33  1  0  0  0  0
 34 30  1  0  0  0  0
 35 34  2  0  0  0  0
 36 35  1  0  0  0  0
 37 38  2  0  0  0  0
 37 35  1  0  0  0  0
 38 40  1  0  0  0  0
 39 38  1  0  0  0  0
 40 41  1  0  0  0  0
 40 33  2  0  0  0  0
M  END
>  <minimizedAffinity>
-5.25147104

>  <minimizedRMSD>
2.79742527

$$$$
