
 OpenBabel03272508563D

 41 44  0  0  1  0  0  0  0  0999 V2000
   39.1200   31.4890   43.3420 C   0  0  0  0  0  0  0  0  0  0  0  0
   40.1160   30.5650   43.4900 C   0  0  0  0  0  0  0  0  0  0  0  0
   40.8440   30.2110   42.3730 C   0  0  0  0  0  0  0  0  0  0  0  0
   40.5160   30.8150   41.1710 C   0  0  0  0  0  0  0  0  0  0  0  0
   39.5090   31.7480   41.0190 C   0  0  0  0  0  0  0  0  0  0  0  0
   38.8410   32.0470   42.1440 N   0  0  0  0  0  0  0  0  0  0  0  0
   40.3500   30.1100   44.4460 H   0  0  0  0  0  0  0  0  0  0  0  0
   41.6360   29.4840   42.4650 H   0  0  0  0  0  0  0  0  0  0  0  0
   41.1190   30.4970   40.3360 H   0  0  0  0  0  0  0  0  0  0  0  0
   38.3330   31.8800   44.5320 C   0  0  0  0  0  0  0  0  0  0  0  0
   37.1720   32.3390   44.4210 O   0  0  0  0  0  0  0  0  0  0  0  0
   38.9550   31.7130   45.8360 N   0  0  0  0  0  0  0  0  0  0  0  0
   39.9500   31.5250   45.9700 H   0  0  0  0  0  0  0  0  0  0  0  0
   38.4550   31.1500   48.1960 C   0  0  2  0  0  0  0  0  0  0  0  0
   38.7170   32.6120   48.1540 C   0  0  0  0  0  0  0  0  0  0  0  0
   38.0940   31.8230   46.9920 C   0  0  1  0  0  0  0  0  0  0  0  0
   39.3580   30.5110   48.2550 H   0  0  0  0  0  0  0  0  0  0  0  0
   39.7570   32.9350   48.0550 H   0  0  0  0  0  0  0  0  0  0  0  0
   38.0890   33.3190   48.7210 H   0  0  0  0  0  0  0  0  0  0  0  0
   37.0390   32.1220   46.8100 H   0  0  0  0  0  0  0  0  0  0  0  0
   35.0860   30.2530   49.4950 C   0  0  0  0  0  0  0  0  0  0  0  0
   35.4220   29.5760   50.7170 C   0  0  0  0  0  0  0  0  0  0  0  0
   36.8180   29.4530   51.0710 C   0  0  0  0  0  0  0  0  0  0  0  0
   37.7640   29.9820   50.2340 N   0  0  0  0  0  0  0  0  0  0  0  0
   37.3690   30.6060   49.0980 C   0  0  0  0  0  0  0  0  0  0  0  0
   36.0470   30.7610   48.6960 N   0  0  0  0  0  0  0  0  0  0  0  0
   34.0330   30.3230   49.2680 H   0  0  0  0  0  0  0  0  0  0  0  0
   34.6510   29.1820   51.3330 H   0  0  0  0  0  0  0  0  0  0  0  0
   37.0590   28.9500   51.9790 H   0  0  0  0  0  0  0  0  0  0  0  0
   39.2120   32.3440   39.7210 C   0  0  0  0  0  0  0  0  0  0  0  0
   38.6760   33.4760   39.6780 O   0  0  0  0  0  0  0  0  0  0  0  0
   37.3840   30.1230   38.6980 Cl  0  0  0  0  0  0  0  0  0  0  0  0
   38.7920   30.6820   37.8370 C   0  0  0  0  0  0  0  0  0  0  0  0
   39.5030   31.6940   38.4490 C   0  0  0  0  0  0  0  0  0  0  0  0
   40.6390   32.1620   37.7770 C   0  0  0  0  0  0  0  0  0  0  0  0
   41.2480   32.9680   38.2130 H   0  0  0  0  0  0  0  0  0  0  0  0
   41.0920   31.6810   36.5520 C   0  0  0  0  0  3  0  0  0  0  0  0
   40.3320   30.6700   36.0030 C   0  0  0  0  0  0  0  0  0  0  0  0
   40.8810   30.0430   34.4590 Cl  0  0  0  0  0  0  0  0  0  0  0  0
   39.2040   30.1730   36.6230 C   0  0  0  0  0  0  0  0  0  0  0  0
   38.6210   29.3750   36.1680 H   0  0  0  0  0  0  0  0  0  0  0  0
  1  2  1  0  0  0  0
  1 10  1  0  0  0  0
  2  7  1  0  0  0  0
  3  8  1  0  0  0  0
  3  2  2  0  0  0  0
  4  3  1  0  0  0  0
  5  4  2  0  0  0  0
  5  6  1  0  0  0  0
  6  1  2  0  0  0  0
  9  4  1  0  0  0  0
 10 12  1  0  0  0  0
 11 10  2  0  0  0  0
 12 13  1  0  0  0  0
 12 16  1  0  0  0  0
 14 17  1  6  0  0  0
 14 25  1  0  0  0  0
 15 14  1  0  0  0  0
 15 19  1  0  0  0  0
 16 20  1  6  0  0  0
 16 15  1  0  0  0  0
 16 14  1  0  0  0  0
 18 15  1  0  0  0  0
 21 22  1  0  0  0  0
 22 23  2  0  0  0  0
 22 28  1  0  0  0  0
 23 29  1  0  0  0  0
 24 23  1  0  0  0  0
 25 24  2  0  0  0  0
 26 25  1  0  0  0  0
 26 21  2  0  0  0  0
 27 21  1  0  0  0  0
 30  5  1  0  0  0  0
 31 30  2  0  0  0  0
 33 34  1  0  0  0  0
 33 32  1  0  0  0  0
 34 30  1  0  0  0  0
 35 36  1  0  0  0  0
 35 34  2  0  0  0  0
 37 35  1  0  0  0  0
 38 37  2  0  0  0  0
 38 40  1  0  0  0  0
 39 38  1  0  0  0  0
 40 33  2  0  0  0  0
 41 40  1  0  0  0  0
M  END
>  <minimizedAffinity>
-4.96902514

>  <minimizedRMSD>
0.771261632

$$$$
