REMARK  Name = 
REMARK  3 active torsions:
REMARK  status: ('A' for Active; 'I' for Inactive)
REMARK    1  A    between atoms: C_1  and  C_8
REMARK    2  A    between atoms: C_3  and  N_12
REMARK    3  A    between atoms: C_10  and  C_23
REMARK                            x       y       z     vdW  Elec       q    Type
REMARK                         _______ _______ _______ _____ _____    ______ ____
ROOT
ATOM      1  C   UNL     1      38.366  30.596  47.096  0.00  0.00    +0.000 C 
ATOM      2  C   UNL     1      36.974  30.550  47.524  0.00  0.00    +0.000 C 
ATOM      3  C   UNL     1      38.089  31.129  48.420  0.00  0.00    +0.000 C 
ATOM      4  H   UNL     1      38.927  29.598  47.126  0.00  0.00    +0.000 HD
ATOM      5  H   UNL     1      36.526  29.631  47.901  0.00  0.00    +0.000 HD
ATOM      6  H   UNL     1      36.261  31.328  47.178  0.00  0.00    +0.000 HD
ATOM      7  H   UNL     1      37.966  32.187  48.650  0.00  0.00    +0.000 HD
ENDROOT
BRANCH   1  12
ATOM      8  C   UNL     1      40.612  32.687  45.025  0.00  0.00    +0.000 A 
ATOM      9  C   UNL     1      39.719  33.178  44.033  0.00  0.00    +0.000 A 
ATOM     10  C   UNL     1      38.343  32.771  44.103  0.00  0.00    +0.000 A 
ATOM     11  N   UNL     1      37.976  31.947  45.104  0.00  0.00    +0.000 NA
ATOM     12  C   UNL     1      38.865  31.506  46.023  0.00  0.00    +0.000 A 
ATOM     13  N   UNL     1      40.177  31.852  46.014  0.00  0.00    +0.000 NA
ATOM     14  H   UNL     1      41.625  33.044  44.897  0.00  0.00    +0.000 HD
ATOM     15  H   UNL     1      40.061  33.829  43.260  0.00  0.00    +0.000 HD
ATOM     16  H   UNL     1      37.693  33.158  43.339  0.00  0.00    +0.000 HD
ENDBRANCH   1  12
BRANCH   3  19
ATOM     17  C   UNL     1      37.675  30.505  50.772  0.00  0.00    +0.000 C 
ATOM     18  O   UNL     1      36.750  31.357  50.813  0.00  0.00    +0.000 OA
ATOM     19  N   UNL     1      38.427  30.290  49.565  0.00  0.00    +0.000 N 
ATOM     20  H   UNL     1      39.184  29.580  49.471  0.00  0.00    +0.000 HD
BRANCH  17  23
ATOM     21 CL   UNL     1      36.762  30.999  53.675  0.00  0.00    +0.000 Cl
ATOM     22  C   UNL     1      37.819  29.673  53.265  0.00  0.00    +0.000 A 
ATOM     23  C   UNL     1      38.081  29.653  51.915  0.00  0.00    +0.000 A 
ATOM     24  C   UNL     1      38.914  28.659  51.383  0.00  0.00    +0.000 A 
ATOM     25  H   UNL     1      39.235  28.476  50.358  0.00  0.00    +0.000 HD
ATOM     26  C   UNL     1      39.476  27.690  52.222  0.00  0.00    +0.000 A 
ATOM     27  C   UNL     1      39.189  27.743  53.575  0.00  0.00    +0.000 A 
ATOM     28 CL   UNL     1      39.862  26.562  54.706  0.00  0.00    +0.000 Cl
ATOM     29  C   UNL     1      38.373  28.718  54.089  0.00  0.00    +0.000 A 
ATOM     30  H   UNL     1      38.092  28.842  55.120  0.00  0.00    +0.000 HD
ENDBRANCH  17  23
ENDBRANCH   3  19
TORSDOF 3
