
 OpenBabel03272508503D

 30 32  0  0  1  0  0  0  0  0999 V2000
   38.1180   30.6630   46.6790 C   0  0  2  0  0  0  0  0  0  0  0  0
   36.7680   30.6260   47.2260 C   0  0  0  0  0  0  0  0  0  0  0  0
   37.9910   31.0080   48.0860 C   0  0  1  0  0  0  0  0  0  0  0  0
   38.6140   29.6440   46.5140 H   0  0  0  0  0  0  0  0  0  0  0  0
   36.2960   29.6850   47.5090 H   0  0  0  0  0  0  0  0  0  0  0  0
   36.0790   31.4820   47.0630 H   0  0  0  0  0  0  0  0  0  0  0  0
   37.9570   32.0260   48.4740 H   0  0  0  0  0  0  0  0  0  0  0  0
   40.0420   33.4180   45.1260 C   0  0  0  0  0  0  0  0  0  0  0  0
   39.3790   33.5670   43.8760 C   0  0  0  0  0  0  0  0  0  0  0  0
   38.2680   32.7010   43.5950 C   0  0  0  0  0  0  0  0  0  0  0  0
   37.9160   31.7970   44.5300 N   0  0  0  0  0  0  0  0  0  0  0  0
   38.5800   31.6940   45.7040 C   0  0  0  0  0  0  0  0  0  0  0  0
   39.6370   32.4790   46.0310 N   0  0  0  0  0  0  0  0  0  0  0  0
   40.8640   34.1090   45.2540 H   0  0  0  0  0  0  0  0  0  0  0  0
   39.6980   34.2990   43.1690 H   0  0  0  0  0  0  0  0  0  0  0  0
   37.7880   32.8370   42.6430 H   0  0  0  0  0  0  0  0  0  0  0  0
   37.6210   29.9590   50.2890 C   0  0  0  0  0  0  0  0  0  0  0  0
   36.6620   30.7520   50.4820 O   0  0  0  0  0  0  0  0  0  0  0  0
   38.3720   29.9940   49.0630 N   0  0  0  0  0  0  0  0  0  0  0  0
   39.1560   29.3440   48.8440 H   0  0  0  0  0  0  0  0  0  0  0  0
   37.2700   30.2360   53.3400 Cl  0  0  0  0  0  0  0  0  0  0  0  0
   38.0330   28.8350   52.6330 C   0  0  0  0  0  0  0  0  0  0  0  0
   38.0700   28.9350   51.2620 C   0  0  0  0  0  0  0  0  0  0  0  0
   38.6460   27.9050   50.5050 C   0  0  0  0  0  0  0  0  0  0  0  0
   38.7670   27.8000   49.4270 H   0  0  0  0  0  0  0  0  0  0  0  0
   39.1810   26.7800   51.1420 C   0  0  0  0  0  3  0  0  0  0  0  0
   39.1250   26.7160   52.5240 C   0  0  0  0  0  0  0  0  0  0  0  0
   39.7830   25.3330   53.4080 Cl  0  0  0  0  0  0  0  0  0  0  0  0
   38.5600   27.7260   53.2580 C   0  0  0  0  0  0  0  0  0  0  0  0
   38.4690   27.7680   54.3290 H   0  0  0  0  0  0  0  0  0  0  0  0
  1  4  1  6  0  0  0
  1  2  1  0  0  0  0
  1  3  1  0  0  0  0
  2  5  1  0  0  0  0
  2  3  1  0  0  0  0
  3  7  1  1  0  0  0
  3 19  1  0  0  0  0
  6  2  1  0  0  0  0
  8 14  1  0  0  0  0
  8 13  1  0  0  0  0
  9  8  2  0  0  0  0
 10  9  1  0  0  0  0
 10 11  2  0  0  0  0
 11 12  1  0  0  0  0
 12 13  2  0  0  0  0
 12  1  1  0  0  0  0
 15  9  1  0  0  0  0
 16 10  1  0  0  0  0
 17 18  2  0  0  0  0
 17 23  1  0  0  0  0
 19 17  1  0  0  0  0
 20 19  1  0  0  0  0
 22 29  1  0  0  0  0
 22 21  1  0  0  0  0
 23 22  2  0  0  0  0
 24 26  2  0  0  0  0
 24 23  1  0  0  0  0
 25 24  1  0  0  0  0
 26 27  1  0  0  0  0
 27 29  2  0  0  0  0
 27 28  1  0  0  0  0
 29 30  1  0  0  0  0
M  END
>  <minimizedAffinity>
1.80483663

>  <minimizedRMSD>
0.953106403

$$$$
