
 OpenBabel03272508423D

 21 22  0  0  0  0  0  0  0  0999 V2000
   32.4970   27.5320   47.8440 C   0  0  0  0  0  0  0  0  0  0  0  0
   32.5560   27.9370   49.0440 O   0  0  0  0  0  0  0  0  0  0  0  0
   34.5780   29.4180   46.9930 Cl  0  0  0  0  0  0  0  0  0  0  0  0
   32.8820   29.5650   46.5110 C   0  0  0  0  0  0  0  0  0  0  0  0
   31.9860   28.6030   46.9820 C   0  0  0  0  0  0  0  0  0  0  0  0
   30.6730   28.7480   46.5860 C   0  0  0  0  0  0  0  0  0  0  0  0
   29.9660   28.0110   46.9420 H   0  0  0  0  0  0  0  0  0  0  0  0
   30.2860   29.7910   45.7710 C   0  0  0  0  0  3  0  0  0  0  0  0
   31.2080   30.7140   45.3340 C   0  0  0  0  0  0  0  0  0  0  0  0
   30.8080   32.0840   44.2890 Cl  0  0  0  0  0  0  0  0  0  0  0  0
   32.5420   30.6390   45.6850 C   0  0  0  0  0  0  0  0  0  0  0  0
   33.3190   31.3240   45.3810 H   0  0  0  0  0  0  0  0  0  0  0  0
   32.4060   23.9160   47.4560 C   0  0  0  0  0  0  0  0  0  0  0  0
   33.5830   23.6210   46.7550 C   0  0  0  0  0  0  0  0  0  0  0  0
   34.4140   24.6920   46.4160 C   0  0  0  0  0  0  0  0  0  0  0  0
   34.0240   25.9350   46.7870 N   0  0  0  0  0  0  0  0  0  0  0  0
   32.8960   26.1910   47.4560 C   0  0  0  0  0  0  0  0  0  0  0  0
   32.1050   25.1730   47.7790 N   0  0  0  0  0  0  0  0  0  0  0  0
   31.8080   23.0570   47.6910 H   0  0  0  0  0  0  0  0  0  0  0  0
   33.9410   22.6510   46.4360 H   0  0  0  0  0  0  0  0  0  0  0  0
   35.3370   24.6770   45.8920 H   0  0  0  0  0  0  0  0  0  0  0  0
  1  2  2  0  0  0  0
  4  5  1  0  0  0  0
  4  3  1  0  0  0  0
  5  1  1  0  0  0  0
  6  7  1  0  0  0  0
  6  5  2  0  0  0  0
  8  6  1  0  0  0  0
  9 11  1  0  0  0  0
  9  8  2  0  0  0  0
 10  9  1  0  0  0  0
 11  4  2  0  0  0  0
 12 11  1  0  0  0  0
 13 19  1  0  0  0  0
 13 18  1  0  0  0  0
 14 13  2  0  0  0  0
 15 14  1  0  0  0  0
 15 16  2  0  0  0  0
 16 17  1  0  0  0  0
 17 18  2  0  0  0  0
 17  1  1  0  0  0  0
 20 14  1  0  0  0  0
 21 15  1  0  0  0  0
M  END
>  <minimizedAffinity>
-2.78982067

>  <minimizedRMSD>
6.49583721

$$$$
