
 OpenBabel03272510023D

 14 14  0  0  0  0  0  0  0  0999 V2000
   38.2050   23.4950   34.7000 C   0  0  0  0  0  0  0  0  0  0  0  0
   38.1410   24.8360   34.2840 C   0  0  0  0  0  0  0  0  0  0  0  0
   38.1040   25.8210   35.2680 C   0  0  0  0  0  0  0  0  0  0  0  0
   38.1300   25.4360   36.5760 N   0  0  0  0  0  0  0  0  0  0  0  0
   38.1900   24.1420   36.9280 C   0  0  0  0  0  0  0  0  0  0  0  0
   38.2280   23.1710   35.9990 N   0  0  0  0  0  0  0  0  0  0  0  0
   38.2350   22.7230   33.9360 H   0  0  0  0  0  0  0  0  0  0  0  0
   38.1230   25.0860   33.2350 H   0  0  0  0  0  0  0  0  0  0  0  0
   38.2150   23.8230   38.3850 C   0  0  0  0  0  0  0  0  0  0  0  0
   39.4400   23.3750   38.8240 F   0  0  0  0  0  0  0  0  0  0  0  0
   37.9030   24.9460   39.1490 F   0  0  0  0  0  0  0  0  0  0  0  0
   37.2930   22.8560   38.7350 F   0  0  0  0  0  0  0  0  0  0  0  0
   38.0350   27.2550   34.8760 C   0  0  0  0  0  2  0  0  0  0  0  0
   38.2460   27.9020   35.7280 H   0  0  0  0  0  0  0  0  0  0  0  0
  1  6  1  0  0  0  0
  2  1  2  0  0  0  0
  2  3  1  0  0  0  0
  3  4  2  0  0  0  0
  4  5  1  0  0  0  0
  5  9  1  0  0  0  0
  6  5  2  0  0  0  0
  7  1  1  0  0  0  0
  8  2  1  0  0  0  0
  9 12  1  0  0  0  0
  9 10  1  0  0  0  0
  9 11  1  0  0  0  0
 13  3  1  0  0  0  0
 13 14  1  0  0  0  0
M  END
>  <minimizedAffinity>
-4.09627771

$$$$

 OpenBabel03272510023D

 14 14  0  0  0  0  0  0  0  0999 V2000
   39.7100   22.7730   35.1170 C   0  0  0  0  0  0  0  0  0  0  0  0
   40.8480   22.0080   35.4300 C   0  0  0  0  0  0  0  0  0  0  0  0
   41.1550   21.8200   36.7750 C   0  0  0  0  0  0  0  0  0  0  0  0
   40.3430   22.3850   37.7140 N   0  0  0  0  0  0  0  0  0  0  0  0
   39.2660   23.1090   37.3700 C   0  0  0  0  0  0  0  0  0  0  0  0
   38.9460   23.3060   36.0780 N   0  0  0  0  0  0  0  0  0  0  0  0
   39.4660   22.9220   34.0690 H   0  0  0  0  0  0  0  0  0  0  0  0
   41.4570   21.5840   34.6470 H   0  0  0  0  0  0  0  0  0  0  0  0
   38.4400   23.6850   38.4690 C   0  0  0  0  0  0  0  0  0  0  0  0
   37.3780   22.8880   38.8270 F   0  0  0  0  0  0  0  0  0  0  0  0
   39.2030   23.8750   39.6210 F   0  0  0  0  0  0  0  0  0  0  0  0
   37.9160   24.9230   38.1510 F   0  0  0  0  0  0  0  0  0  0  0  0
   42.3490   21.0190   37.1550 C   0  0  0  0  0  2  0  0  0  0  0  0
   42.3280   20.7670   38.2150 H   0  0  0  0  0  0  0  0  0  0  0  0
  1  2  2  0  0  0  0
  1  6  1  0  0  0  0
  2  3  1  0  0  0  0
  3 13  1  0  0  0  0
  3  4  2  0  0  0  0
  5  4  1  0  0  0  0
  5  9  1  0  0  0  0
  6  5  2  0  0  0  0
  7  1  1  0  0  0  0
  8  2  1  0  0  0  0
  9 10  1  0  0  0  0
  9 11  1  0  0  0  0
 12  9  1  0  0  0  0
 13 14  1  0  0  0  0
M  END
>  <minimizedAffinity>
-4.06655884

$$$$

 OpenBabel03272510023D

 14 14  0  0  0  0  0  0  0  0999 V2000
   38.1340   25.4910   35.0940 C   0  0  0  0  0  0  0  0  0  0  0  0
   38.1500   24.3940   34.2150 C   0  0  0  0  0  0  0  0  0  0  0  0
   38.1770   23.1160   34.7700 C   0  0  0  0  0  0  0  0  0  0  0  0
   38.1880   22.9970   36.1290 N   0  0  0  0  0  0  0  0  0  0  0  0
   38.1720   24.0740   36.9300 C   0  0  0  0  0  0  0  0  0  0  0  0
   38.1460   25.3180   36.4210 N   0  0  0  0  0  0  0  0  0  0  0  0
   38.1120   26.4890   34.6650 H   0  0  0  0  0  0  0  0  0  0  0  0
   38.1400   24.5440   33.1470 H   0  0  0  0  0  0  0  0  0  0  0  0
   38.1860   23.8390   38.4030 C   0  0  0  0  0  0  0  0  0  0  0  0
   37.2960   22.8720   38.8080 F   0  0  0  0  0  0  0  0  0  0  0  0
   39.4460   23.4280   38.8330 F   0  0  0  0  0  0  0  0  0  0  0  0
   37.8880   24.9780   39.1270 F   0  0  0  0  0  0  0  0  0  0  0  0
   38.1960   21.9240   33.8810 C   0  0  0  0  0  2  0  0  0  0  0  0
   37.9830   21.0150   34.4430 H   0  0  0  0  0  0  0  0  0  0  0  0
  1  6  1  0  0  0  0
  2  3  1  0  0  0  0
  2  1  2  0  0  0  0
  3  4  2  0  0  0  0
  4  5  1  0  0  0  0
  5  9  1  0  0  0  0
  6  5  2  0  0  0  0
  7  1  1  0  0  0  0
  8  2  1  0  0  0  0
  9 10  1  0  0  0  0
  9 11  1  0  0  0  0
  9 12  1  0  0  0  0
 13 14  1  0  0  0  0
 13  3  1  0  0  0  0
M  END
>  <minimizedAffinity>
-3.93750381

$$$$

 OpenBabel03272510023D

 14 14  0  0  0  0  0  0  0  0999 V2000
   39.0020   22.9440   34.5590 C   0  0  0  0  0  0  0  0  0  0  0  0
   37.9610   22.0870   34.1600 C   0  0  0  0  0  0  0  0  0  0  0  0
   37.0230   21.7140   35.1190 C   0  0  0  0  0  0  0  0  0  0  0  0
   37.1620   22.1950   36.3880 N   0  0  0  0  0  0  0  0  0  0  0  0
   38.1720   23.0110   36.7250 C   0  0  0  0  0  0  0  0  0  0  0  0
   39.0920   23.3880   35.8180 N   0  0  0  0  0  0  0  0  0  0  0  0
   39.7360   23.2390   33.8140 H   0  0  0  0  0  0  0  0  0  0  0  0
   37.8980   21.7350   33.1420 H   0  0  0  0  0  0  0  0  0  0  0  0
   38.2370   23.4850   38.1370 C   0  0  0  0  0  0  0  0  0  0  0  0
   39.4730   23.3080   38.7150 F   0  0  0  0  0  0  0  0  0  0  0  0
   37.9470   24.8460   38.2230 F   0  0  0  0  0  0  0  0  0  0  0  0
   37.3240   22.8480   38.9560 F   0  0  0  0  0  0  0  0  0  0  0  0
   35.9040   20.8080   34.7450 C   0  0  0  0  0  2  0  0  0  0  0  0
   35.1370   20.7950   35.5200 H   0  0  0  0  0  0  0  0  0  0  0  0
  1  6  1  0  0  0  0
  2  1  2  0  0  0  0
  2  3  1  0  0  0  0
  3  4  2  0  0  0  0
  4  5  1  0  0  0  0
  5  9  1  0  0  0  0
  6  5  2  0  0  0  0
  7  1  1  0  0  0  0
  8  2  1  0  0  0  0
  9 11  1  0  0  0  0
  9 10  1  0  0  0  0
  9 12  1  0  0  0  0
 13  3  1  0  0  0  0
 13 14  1  0  0  0  0
M  END
>  <minimizedAffinity>
-3.67274165

$$$$

 OpenBabel03272510023D

 14 14  0  0  0  0  0  0  0  0999 V2000
   38.5260   22.4720   35.4200 C   0  0  0  0  0  0  0  0  0  0  0  0
   37.9200   23.2450   36.4250 C   0  0  0  0  0  0  0  0  0  0  0  0
   38.6250   23.4400   37.6100 C   0  0  0  0  0  0  0  0  0  0  0  0
   39.8610   22.8740   37.7330 N   0  0  0  0  0  0  0  0  0  0  0  0
   40.4010   22.1430   36.7460 C   0  0  0  0  0  0  0  0  0  0  0  0
   39.7410   21.9390   35.5920 N   0  0  0  0  0  0  0  0  0  0  0  0
   37.9790   22.3180   34.4940 H   0  0  0  0  0  0  0  0  0  0  0  0
   36.9390   23.6700   36.2770 H   0  0  0  0  0  0  0  0  0  0  0  0
   41.7570   21.5670   36.9760 C   0  0  0  0  0  0  0  0  0  0  0  0
   42.1400   20.6700   36.0050 F   0  0  0  0  0  0  0  0  0  0  0  0
   42.7280   22.5670   37.0010 F   0  0  0  0  0  0  0  0  0  0  0  0
   41.8590   20.9070   38.1850 F   0  0  0  0  0  0  0  0  0  0  0  0
   38.0240   24.2490   38.7040 C   0  0  0  0  0  2  0  0  0  0  0  0
   38.7720   24.5050   39.4550 H   0  0  0  0  0  0  0  0  0  0  0  0
  1  6  2  0  0  0  0
  1  2  1  0  0  0  0
  2  3  2  0  0  0  0
  3  4  1  0  0  0  0
  3 13  1  0  0  0  0
  5  9  1  0  0  0  0
  5  4  2  0  0  0  0
  6  5  1  0  0  0  0
  7  1  1  0  0  0  0
  8  2  1  0  0  0  0
  9 11  1  0  0  0  0
  9 12  1  0  0  0  0
 10  9  1  0  0  0  0
 13 14  1  0  0  0  0
M  END
>  <minimizedAffinity>
-3.6633203

$$$$

 OpenBabel03272510023D

 14 14  0  0  0  0  0  0  0  0999 V2000
   38.2090   23.2640   34.8040 C   0  0  0  0  0  0  0  0  0  0  0  0
   38.3400   22.8820   36.1510 C   0  0  0  0  0  0  0  0  0  0  0  0
   38.3180   23.8840   37.1170 C   0  0  0  0  0  0  0  0  0  0  0  0
   38.1730   25.1780   36.7090 N   0  0  0  0  0  0  0  0  0  0  0  0
   38.0510   25.4980   35.4120 C   0  0  0  0  0  0  0  0  0  0  0  0
   38.0690   24.5490   34.4580 N   0  0  0  0  0  0  0  0  0  0  0  0
   38.2250   22.4850   34.0470 H   0  0  0  0  0  0  0  0  0  0  0  0
   38.4530   21.8430   36.4190 H   0  0  0  0  0  0  0  0  0  0  0  0
   37.8960   26.9400   35.0670 C   0  0  0  0  0  0  0  0  0  0  0  0
   36.5840   27.3500   35.0160 F   0  0  0  0  0  0  0  0  0  0  0  0
   38.5310   27.7510   36.0070 F   0  0  0  0  0  0  0  0  0  0  0  0
   38.4580   27.2610   33.8460 F   0  0  0  0  0  0  0  0  0  0  0  0
   38.4540   23.5280   38.5550 C   0  0  0  0  0  2  0  0  0  0  0  0
   38.1880   24.3720   39.1920 H   0  0  0  0  0  0  0  0  0  0  0  0
  1  2  1  0  0  0  0
  2  8  1  0  0  0  0
  2  3  2  0  0  0  0
  3 13  1  0  0  0  0
  4  3  1  0  0  0  0
  5  4  2  0  0  0  0
  6  1  2  0  0  0  0
  6  5  1  0  0  0  0
  7  1  1  0  0  0  0
  9  5  1  0  0  0  0
  9 11  1  0  0  0  0
 10  9  1  0  0  0  0
 12  9  1  0  0  0  0
 13 14  1  0  0  0  0
M  END
>  <minimizedAffinity>
-3.64470267

$$$$

 OpenBabel03272510023D

 14 14  0  0  0  0  0  0  0  0999 V2000
   37.9290   22.7850   30.9980 C   0  0  0  0  0  0  0  0  0  0  0  0
   37.1680   23.9390   30.7450 C   0  0  0  0  0  0  0  0  0  0  0  0
   35.8400   23.9490   31.1670 C   0  0  0  0  0  0  0  0  0  0  0  0
   35.3500   22.8440   31.7990 N   0  0  0  0  0  0  0  0  0  0  0  0
   36.1130   21.7630   32.0200 C   0  0  0  0  0  0  0  0  0  0  0  0
   37.3980   21.7270   31.6230 N   0  0  0  0  0  0  0  0  0  0  0  0
   38.9650   22.7730   30.6710 H   0  0  0  0  0  0  0  0  0  0  0  0
   37.6050   24.7860   30.2400 H   0  0  0  0  0  0  0  0  0  0  0  0
   35.4860   20.6050   32.7200 C   0  0  0  0  0  0  0  0  0  0  0  0
   35.3100   20.8140   34.0690 F   0  0  0  0  0  0  0  0  0  0  0  0
   34.2270   20.3240   32.1920 F   0  0  0  0  0  0  0  0  0  0  0  0
   36.2210   19.4420   32.5930 F   0  0  0  0  0  0  0  0  0  0  0  0
   34.9950   25.1480   30.9200 C   0  0  0  0  0  2  0  0  0  0  0  0
   34.0740   25.1020   31.5010 H   0  0  0  0  0  0  0  0  0  0  0  0
  1  6  1  0  0  0  0
  2  1  2  0  0  0  0
  2  3  1  0  0  0  0
  3  4  2  0  0  0  0
  4  5  1  0  0  0  0
  5  9  1  0  0  0  0
  6  5  2  0  0  0  0
  7  1  1  0  0  0  0
  8  2  1  0  0  0  0
  9 10  1  0  0  0  0
 11  9  1  0  0  0  0
 12  9  1  0  0  0  0
 13  3  1  0  0  0  0
 13 14  1  0  0  0  0
M  END
>  <minimizedAffinity>
-3.52663994

$$$$

 OpenBabel03272510023D

 14 14  0  0  0  0  0  0  0  0999 V2000
   38.5110   26.7500   36.0190 C   0  0  0  0  0  0  0  0  0  0  0  0
   39.5950   26.7970   35.1250 C   0  0  0  0  0  0  0  0  0  0  0  0
   40.2650   25.6070   34.8510 C   0  0  0  0  0  0  0  0  0  0  0  0
   39.8380   24.4640   35.4620 N   0  0  0  0  0  0  0  0  0  0  0  0
   38.7980   24.4650   36.3100 C   0  0  0  0  0  0  0  0  0  0  0  0
   38.1340   25.6010   36.5920 N   0  0  0  0  0  0  0  0  0  0  0  0
   37.9850   27.6760   36.2350 H   0  0  0  0  0  0  0  0  0  0  0  0
   39.8910   27.7290   34.6690 H   0  0  0  0  0  0  0  0  0  0  0  0
   38.4080   23.1650   36.9270 C   0  0  0  0  0  0  0  0  0  0  0  0
   37.0470   23.0100   37.0540 F   0  0  0  0  0  0  0  0  0  0  0  0
   38.8630   22.0920   36.1620 F   0  0  0  0  0  0  0  0  0  0  0  0
   38.9450   22.9890   38.1870 F   0  0  0  0  0  0  0  0  0  0  0  0
   41.4190   25.6070   33.9120 C   0  0  0  0  0  2  0  0  0  0  0  0
   41.6850   24.5910   33.6220 H   0  0  0  0  0  0  0  0  0  0  0  0
  1  7  1  0  0  0  0
  1  6  1  0  0  0  0
  2  1  2  0  0  0  0
  3  2  1  0  0  0  0
  3  4  2  0  0  0  0
  4  5  1  0  0  0  0
  5  6  2  0  0  0  0
  5  9  1  0  0  0  0
  8  2  1  0  0  0  0
  9 10  1  0  0  0  0
  9 12  1  0  0  0  0
 11  9  1  0  0  0  0
 13  3  1  0  0  0  0
 14 13  1  0  0  0  0
M  END
>  <minimizedAffinity>
-3.41470957

$$$$

 OpenBabel03272510023D

 14 14  0  0  0  0  0  0  0  0999 V2000
   36.1990   28.1390   32.4260 C   0  0  0  0  0  0  0  0  0  0  0  0
   37.0150   27.8890   33.5430 C   0  0  0  0  0  0  0  0  0  0  0  0
   37.3660   26.5670   33.8090 C   0  0  0  0  0  0  0  0  0  0  0  0
   36.9030   25.5910   32.9770 N   0  0  0  0  0  0  0  0  0  0  0  0
   36.1260   25.8760   31.9210 C   0  0  0  0  0  0  0  0  0  0  0  0
   35.7710   27.1430   31.6410 N   0  0  0  0  0  0  0  0  0  0  0  0
   35.9230   29.1690   32.2150 H   0  0  0  0  0  0  0  0  0  0  0  0
   37.3540   28.6990   34.1690 H   0  0  0  0  0  0  0  0  0  0  0  0
   35.6710   24.7390   31.0700 C   0  0  0  0  0  0  0  0  0  0  0  0
   36.6870   24.1580   30.3470 F   0  0  0  0  0  0  0  0  0  0  0  0
   35.1050   23.7280   31.8470 F   0  0  0  0  0  0  0  0  0  0  0  0
   34.6990   25.1080   30.1600 F   0  0  0  0  0  0  0  0  0  0  0  0
   38.2270   26.2530   34.9810 C   0  0  0  0  0  2  0  0  0  0  0  0
   38.6020   25.2310   34.9250 H   0  0  0  0  0  0  0  0  0  0  0  0
  1  2  1  0  0  0  0
  2  3  2  0  0  0  0
  2  8  1  0  0  0  0
  3 13  1  0  0  0  0
  4  3  1  0  0  0  0
  5  4  2  0  0  0  0
  6  5  1  0  0  0  0
  6  1  2  0  0  0  0
  7  1  1  0  0  0  0
  9 11  1  0  0  0  0
  9  5  1  0  0  0  0
 10  9  1  0  0  0  0
 12  9  1  0  0  0  0
 14 13  1  0  0  0  0
M  END
>  <minimizedAffinity>
-3.39698982

$$$$
