
 OpenBabel03272510233D

 24 26  0  0  0  0  0  0  0  0999 V2000
   37.8730   24.6620   36.7230 C   0  0  0  0  0  0  0  0  0  0  0  0
   38.4060   24.9210   35.4670 C   0  0  0  0  0  0  0  0  0  0  0  0
   39.5320   24.2660   35.0500 C   0  0  0  0  0  0  0  0  0  0  0  0
   40.1170   23.3480   35.9050 C   0  0  0  0  0  0  0  0  0  0  0  0
   41.2260   22.5930   35.6980 N   0  0  0  0  0  0  0  0  0  0  0  0
   41.4070   21.8520   36.8140 C   0  0  0  0  0  0  0  0  0  0  0  0
   40.4460   22.1190   37.7100 N   0  0  0  0  0  0  0  0  0  0  0  0
   39.6180   23.0520   37.1800 C   0  0  0  0  0  0  0  0  0  0  0  0
   38.4790   23.7320   37.5700 C   0  0  0  0  0  0  0  0  0  0  0  0
   36.9840   25.1560   37.0960 H   0  0  0  0  0  0  0  0  0  0  0  0
   39.9540   24.4620   34.0720 H   0  0  0  0  0  0  0  0  0  0  0  0
   41.8610   22.5410   34.8720 H   0  0  0  0  0  0  0  0  0  0  0  0
   38.0830   23.5130   38.5520 H   0  0  0  0  0  0  0  0  0  0  0  0
   36.6590   28.0300   34.2520 C   0  0  0  0  0  0  0  0  0  0  0  0
   37.3180   27.1560   35.1110 C   0  0  0  0  0  0  0  0  0  0  0  0
   37.7100   25.9060   34.6470 C   0  0  0  0  0  0  0  0  0  0  0  0
   37.4320   25.5750   33.3540 N   0  0  0  0  0  0  0  0  0  0  0  0
   36.7890   26.4440   32.5350 C   0  0  0  0  0  0  0  0  0  0  0  0
   36.4100   27.6530   32.9870 N   0  0  0  0  0  0  0  0  0  0  0  0
   36.3780   28.9850   34.6650 H   0  0  0  0  0  0  0  0  0  0  0  0
   37.5310   27.4220   36.1180 H   0  0  0  0  0  0  0  0  0  0  0  0
   36.5550   26.2110   31.5120 H   0  0  0  0  0  0  0  0  0  0  0  0
   42.4300   20.8550   37.1780 C   0  0  0  0  0  2  0  0  0  0  0  0
   43.1930   20.7260   36.3760 H   0  0  0  0  0  0  0  0  0  0  0  0
  1 10  1  0  0  0  0
  1  9  1  0  0  0  0
  2  1  2  0  0  0  0
  3  2  1  0  0  0  0
  3  4  2  0  0  0  0
  4  8  1  0  0  0  0
  5  4  1  0  0  0  0
  5  6  1  0  0  0  0
  6 23  1  0  0  0  0
  6  7  2  0  0  0  0
  8  9  2  0  0  0  0
  8  7  1  0  0  0  0
  9 13  1  0  0  0  0
 11  3  1  0  0  0  0
 12  5  1  0  0  0  0
 14 20  1  0  0  0  0
 14 15  1  0  0  0  0
 15 21  1  0  0  0  0
 16 15  2  0  0  0  0
 16  2  1  0  0  0  0
 17 16  1  0  0  0  0
 18 19  1  0  0  0  0
 18 17  2  0  0  0  0
 19 14  2  0  0  0  0
 22 18  1  0  0  0  0
 24 23  1  0  0  0  0
M  END
>  <minimizedAffinity>
-4.85665798

$$$$

 OpenBabel03272510233D

 24 26  0  0  0  0  0  0  0  0999 V2000
   38.0730   24.7280   33.8520 C   0  0  0  0  0  0  0  0  0  0  0  0
   38.0630   25.2290   35.1470 C   0  0  0  0  0  0  0  0  0  0  0  0
   37.5260   26.4600   35.4030 C   0  0  0  0  0  0  0  0  0  0  0  0
   36.9990   27.1840   34.3480 C   0  0  0  0  0  0  0  0  0  0  0  0
   36.4220   28.4120   34.3740 N   0  0  0  0  0  0  0  0  0  0  0  0
   36.0620   28.7020   33.1040 C   0  0  0  0  0  0  0  0  0  0  0  0
   36.3950   27.6940   32.2860 N   0  0  0  0  0  0  0  0  0  0  0  0
   36.9850   26.7220   33.0250 C   0  0  0  0  0  0  0  0  0  0  0  0
   37.5360   25.4740   32.8010 C   0  0  0  0  0  0  0  0  0  0  0  0
   38.4880   23.7590   33.6000 H   0  0  0  0  0  0  0  0  0  0  0  0
   37.5150   26.8580   36.4100 H   0  0  0  0  0  0  0  0  0  0  0  0
   36.2560   29.0610   35.1750 H   0  0  0  0  0  0  0  0  0  0  0  0
   37.5310   25.1070   31.7840 H   0  0  0  0  0  0  0  0  0  0  0  0
   38.7240   23.4040   38.3750 C   0  0  0  0  0  0  0  0  0  0  0  0
   38.0960   24.2330   37.4510 C   0  0  0  0  0  0  0  0  0  0  0  0
   38.6450   24.3850   36.1840 C   0  0  0  0  0  0  0  0  0  0  0  0
   39.7920   23.7100   35.8870 N   0  0  0  0  0  0  0  0  0  0  0  0
   40.3860   22.9070   36.8040 C   0  0  0  0  0  0  0  0  0  0  0  0
   39.8520   22.7620   38.0290 N   0  0  0  0  0  0  0  0  0  0  0  0
   38.2540   23.3230   39.3430 H   0  0  0  0  0  0  0  0  0  0  0  0
   37.2020   24.7550   37.6920 H   0  0  0  0  0  0  0  0  0  0  0  0
   41.2900   22.3630   36.5980 H   0  0  0  0  0  0  0  0  0  0  0  0
   35.4010   29.8790   32.5130 C   0  0  0  0  0  2  0  0  0  0  0  0
   35.1900   30.6670   33.2720 H   0  0  0  0  0  0  0  0  0  0  0  0
  1  2  1  0  0  0  0
  2  3  2  0  0  0  0
  2 16  1  0  0  0  0
  3 11  1  0  0  0  0
  4  5  1  0  0  0  0
  4  3  1  0  0  0  0
  5 12  1  0  0  0  0
  6  5  1  0  0  0  0
  7  8  1  0  0  0  0
  7  6  2  0  0  0  0
  8  4  2  0  0  0  0
  9  8  1  0  0  0  0
  9  1  2  0  0  0  0
 10  1  1  0  0  0  0
 13  9  1  0  0  0  0
 14 20  1  0  0  0  0
 15 21  1  0  0  0  0
 15 14  2  0  0  0  0
 16 15  1  0  0  0  0
 17 16  2  0  0  0  0
 17 18  1  0  0  0  0
 18 19  2  0  0  0  0
 19 14  1  0  0  0  0
 22 18  1  0  0  0  0
 23  6  1  0  0  0  0
 23 24  1  0  0  0  0
M  END
>  <minimizedAffinity>
-4.77990818

$$$$

 OpenBabel03272510233D

 24 26  0  0  0  0  0  0  0  0999 V2000
   37.3620   23.7990   32.7300 C   0  0  0  0  0  0  0  0  0  0  0  0
   36.4490   23.4360   31.7490 C   0  0  0  0  0  0  0  0  0  0  0  0
   35.8960   24.3890   30.9390 C   0  0  0  0  0  0  0  0  0  0  0  0
   36.2690   25.7090   31.1220 C   0  0  0  0  0  0  0  0  0  0  0  0
   35.8500   26.8050   30.4390 N   0  0  0  0  0  0  0  0  0  0  0  0
   36.4900   27.8680   30.9760 C   0  0  0  0  0  0  0  0  0  0  0  0
   37.2950   27.4710   31.9720 N   0  0  0  0  0  0  0  0  0  0  0  0
   37.1850   26.1250   32.0960 C   0  0  0  0  0  0  0  0  0  0  0  0
   37.7250   25.1360   32.8980 C   0  0  0  0  0  0  0  0  0  0  0  0
   37.8250   23.0800   33.3950 H   0  0  0  0  0  0  0  0  0  0  0  0
   35.1820   24.1150   30.1720 H   0  0  0  0  0  0  0  0  0  0  0  0
   35.1740   26.8880   29.6480 H   0  0  0  0  0  0  0  0  0  0  0  0
   38.4340   25.4440   33.6540 H   0  0  0  0  0  0  0  0  0  0  0  0
   34.8380   20.0540   32.1480 C   0  0  0  0  0  0  0  0  0  0  0  0
   35.0680   21.4160   32.3140 C   0  0  0  0  0  0  0  0  0  0  0  0
   36.1260   22.0180   31.6420 C   0  0  0  0  0  0  0  0  0  0  0  0
   36.9090   21.2460   30.8370 N   0  0  0  0  0  0  0  0  0  0  0  0
   36.6650   19.9200   30.6910 C   0  0  0  0  0  0  0  0  0  0  0  0
   35.6410   19.3400   31.3420 N   0  0  0  0  0  0  0  0  0  0  0  0
   34.0040   19.6400   32.6920 H   0  0  0  0  0  0  0  0  0  0  0  0
   34.4520   22.0110   32.9440 H   0  0  0  0  0  0  0  0  0  0  0  0
   37.2650   19.2860   30.0630 H   0  0  0  0  0  0  0  0  0  0  0  0
   36.4460   29.3070   30.6580 C   0  0  0  0  0  2  0  0  0  0  0  0
   35.7300   29.5320   29.8340 H   0  0  0  0  0  0  0  0  0  0  0  0
  1  9  1  0  0  0  0
  1 10  1  0  0  0  0
  2  1  2  0  0  0  0
  3  4  2  0  0  0  0
  3  2  1  0  0  0  0
  4  8  1  0  0  0  0
  5  6  1  0  0  0  0
  5  4  1  0  0  0  0
  6  7  2  0  0  0  0
  7  8  1  0  0  0  0
  8  9  2  0  0  0  0
  9 13  1  0  0  0  0
 11  3  1  0  0  0  0
 12  5  1  0  0  0  0
 14 15  1  0  0  0  0
 14 20  1  0  0  0  0
 15 21  1  0  0  0  0
 16  2  1  0  0  0  0
 16 15  2  0  0  0  0
 17 16  1  0  0  0  0
 18 17  2  0  0  0  0
 18 19  1  0  0  0  0
 19 14  2  0  0  0  0
 22 18  1  0  0  0  0
 23  6  1  0  0  0  0
 24 23  1  0  0  0  0
M  END
>  <minimizedAffinity>
-4.69364214

$$$$

 OpenBabel03272510233D

 24 26  0  0  0  0  0  0  0  0999 V2000
   35.9670   28.7190   34.1440 C   0  0  0  0  0  0  0  0  0  0  0  0
   35.5330   30.0210   33.9340 C   0  0  0  0  0  0  0  0  0  0  0  0
   35.7120   30.6170   32.7170 C   0  0  0  0  0  0  0  0  0  0  0  0
   36.3310   29.8940   31.7120 C   0  0  0  0  0  0  0  0  0  0  0  0
   36.6070   30.2850   30.4420 N   0  0  0  0  0  0  0  0  0  0  0  0
   37.2170   29.2410   29.8360 C   0  0  0  0  0  0  0  0  0  0  0  0
   37.3290   28.2120   30.6870 N   0  0  0  0  0  0  0  0  0  0  0  0
   36.7860   28.5800   31.8740 C   0  0  0  0  0  0  0  0  0  0  0  0
   36.5900   28.0070   33.1170 C   0  0  0  0  0  0  0  0  0  0  0  0
   35.8480   28.2050   35.0910 H   0  0  0  0  0  0  0  0  0  0  0  0
   35.3760   31.6320   32.5450 H   0  0  0  0  0  0  0  0  0  0  0  0
   36.4180   31.1910   29.9590 H   0  0  0  0  0  0  0  0  0  0  0  0
   36.9370   26.9920   33.2550 H   0  0  0  0  0  0  0  0  0  0  0  0
   34.8640   32.1460   36.9730 C   0  0  0  0  0  0  0  0  0  0  0  0
   35.5610   31.5510   35.9250 C   0  0  0  0  0  0  0  0  0  0  0  0
   34.8930   30.6910   35.0610 C   0  0  0  0  0  0  0  0  0  0  0  0
   33.5680   30.4560   35.2720 N   0  0  0  0  0  0  0  0  0  0  0  0
   32.9100   31.0480   36.3010 C   0  0  0  0  0  0  0  0  0  0  0  0
   33.5580   31.8790   37.1350 N   0  0  0  0  0  0  0  0  0  0  0  0
   35.4320   32.8040   37.6110 H   0  0  0  0  0  0  0  0  0  0  0  0
   36.5950   31.7410   35.7670 H   0  0  0  0  0  0  0  0  0  0  0  0
   31.8650   30.8810   36.4920 H   0  0  0  0  0  0  0  0  0  0  0  0
   37.7440   29.0670   28.4700 C   0  0  0  0  0  2  0  0  0  0  0  0
   37.6230   29.9870   27.8540 H   0  0  0  0  0  0  0  0  0  0  0  0
  1 10  1  0  0  0  0
  2  1  1  0  0  0  0
  2 16  1  0  0  0  0
  3  2  2  0  0  0  0
  4  8  2  0  0  0  0
  4  3  1  0  0  0  0
  5  4  1  0  0  0  0
  6  5  1  0  0  0  0
  6  7  2  0  0  0  0
  7  8  1  0  0  0  0
  8  9  1  0  0  0  0
  9 13  1  0  0  0  0
  9  1  2  0  0  0  0
 11  3  1  0  0  0  0
 12  5  1  0  0  0  0
 14 19  1  0  0  0  0
 14 20  1  0  0  0  0
 15 14  2  0  0  0  0
 16 17  2  0  0  0  0
 16 15  1  0  0  0  0
 17 18  1  0  0  0  0
 18 22  1  0  0  0  0
 18 19  2  0  0  0  0
 21 15  1  0  0  0  0
 23  6  1  0  0  0  0
 24 23  1  0  0  0  0
M  END
>  <minimizedAffinity>
-4.61280394

$$$$

 OpenBabel03272510233D

 24 26  0  0  0  0  0  0  0  0999 V2000
   37.7630   26.7170   35.7320 C   0  0  0  0  0  0  0  0  0  0  0  0
   38.2870   25.5500   35.1920 C   0  0  0  0  0  0  0  0  0  0  0  0
   38.3180   25.3750   33.8360 C   0  0  0  0  0  0  0  0  0  0  0  0
   37.8190   26.3810   33.0280 C   0  0  0  0  0  0  0  0  0  0  0  0
   37.7510   26.4180   31.6730 N   0  0  0  0  0  0  0  0  0  0  0  0
   37.1870   27.6010   31.3410 C   0  0  0  0  0  0  0  0  0  0  0  0
   36.9010   28.3040   32.4460 N   0  0  0  0  0  0  0  0  0  0  0  0
   37.2810   27.5750   33.5250 C   0  0  0  0  0  0  0  0  0  0  0  0
   37.2650   27.7200   34.9000 C   0  0  0  0  0  0  0  0  0  0  0  0
   37.7170   26.9000   36.7990 H   0  0  0  0  0  0  0  0  0  0  0  0
   38.7250   24.4680   33.4060 H   0  0  0  0  0  0  0  0  0  0  0  0
   38.0530   25.7140   30.9640 H   0  0  0  0  0  0  0  0  0  0  0  0
   36.8520   28.6370   35.2960 H   0  0  0  0  0  0  0  0  0  0  0  0
   38.7620   23.3410   38.2060 C   0  0  0  0  0  0  0  0  0  0  0  0
   38.2140   24.3140   37.3760 C   0  0  0  0  0  0  0  0  0  0  0  0
   38.7870   24.5540   36.1330 C   0  0  0  0  0  0  0  0  0  0  0  0
   39.8770   23.8230   35.7670 N   0  0  0  0  0  0  0  0  0  0  0  0
   40.3930   22.8790   36.5930 C   0  0  0  0  0  0  0  0  0  0  0  0
   39.8360   22.6490   37.7950 N   0  0  0  0  0  0  0  0  0  0  0  0
   38.2760   23.1970   39.1590 H   0  0  0  0  0  0  0  0  0  0  0  0
   37.3630   24.8800   37.6700 H   0  0  0  0  0  0  0  0  0  0  0  0
   41.2520   22.2870   36.3320 H   0  0  0  0  0  0  0  0  0  0  0  0
   36.8580   28.2030   30.0370 C   0  0  0  0  0  2  0  0  0  0  0  0
   37.1120   27.5280   29.1880 H   0  0  0  0  0  0  0  0  0  0  0  0
  1 10  1  0  0  0  0
  2  1  1  0  0  0  0
  2 16  1  0  0  0  0
  3  2  2  0  0  0  0
  4  8  2  0  0  0  0
  4  3  1  0  0  0  0
  5  4  1  0  0  0  0
  6  5  1  0  0  0  0
  6  7  2  0  0  0  0
  7  8  1  0  0  0  0
  8  9  1  0  0  0  0
  9 13  1  0  0  0  0
  9  1  2  0  0  0  0
 11  3  1  0  0  0  0
 12  5  1  0  0  0  0
 14 20  1  0  0  0  0
 15 21  1  0  0  0  0
 15 14  2  0  0  0  0
 16 15  1  0  0  0  0
 17 16  2  0  0  0  0
 17 18  1  0  0  0  0
 18 19  2  0  0  0  0
 19 14  1  0  0  0  0
 22 18  1  0  0  0  0
 23  6  1  0  0  0  0
 24 23  1  0  0  0  0
M  END
>  <minimizedAffinity>
-4.61068344

$$$$

 OpenBabel03272510233D

 24 26  0  0  0  0  0  0  0  0999 V2000
   37.5870   27.8150   35.1200 C   0  0  0  0  0  0  0  0  0  0  0  0
   37.1370   27.3430   33.8940 C   0  0  0  0  0  0  0  0  0  0  0  0
   37.3020   26.0270   33.5620 C   0  0  0  0  0  0  0  0  0  0  0  0
   37.9220   25.1890   34.4720 C   0  0  0  0  0  0  0  0  0  0  0  0
   38.1850   23.8630   34.3510 N   0  0  0  0  0  0  0  0  0  0  0  0
   38.8020   23.4810   35.4920 C   0  0  0  0  0  0  0  0  0  0  0  0
   38.9300   24.5270   36.3220 N   0  0  0  0  0  0  0  0  0  0  0  0
   38.3920   25.6160   35.7200 C   0  0  0  0  0  0  0  0  0  0  0  0
   38.2090   26.9530   36.0240 C   0  0  0  0  0  0  0  0  0  0  0  0
   37.4790   28.8490   35.4270 H   0  0  0  0  0  0  0  0  0  0  0  0
   36.9540   25.6510   32.6080 H   0  0  0  0  0  0  0  0  0  0  0  0
   37.9830   23.2040   33.5670 H   0  0  0  0  0  0  0  0  0  0  0  0
   38.5680   27.2950   36.9850 H   0  0  0  0  0  0  0  0  0  0  0  0
   34.9920   30.1170   32.5160 C   0  0  0  0  0  0  0  0  0  0  0  0
   35.5460   29.2310   33.4350 C   0  0  0  0  0  0  0  0  0  0  0  0
   36.4980   28.3110   33.0100 C   0  0  0  0  0  0  0  0  0  0  0  0
   36.8580   28.3080   31.6960 N   0  0  0  0  0  0  0  0  0  0  0  0
   36.3040   29.1820   30.8190 C   0  0  0  0  0  0  0  0  0  0  0  0
   35.3840   30.0700   31.2320 N   0  0  0  0  0  0  0  0  0  0  0  0
   34.2600   30.8090   32.9010 H   0  0  0  0  0  0  0  0  0  0  0  0
   35.2600   29.2420   34.4590 H   0  0  0  0  0  0  0  0  0  0  0  0
   36.5680   29.2020   29.7760 H   0  0  0  0  0  0  0  0  0  0  0  0
   39.3220   22.1770   35.9420 C   0  0  0  0  0  2  0  0  0  0  0  0
   39.1870   21.3840   35.1710 H   0  0  0  0  0  0  0  0  0  0  0  0
  1 10  1  0  0  0  0
  1  9  1  0  0  0  0
  2  1  2  0  0  0  0
  3  2  1  0  0  0  0
  3  4  2  0  0  0  0
  4  8  1  0  0  0  0
  5  4  1  0  0  0  0
  5  6  1  0  0  0  0
  6 23  1  0  0  0  0
  6  7  2  0  0  0  0
  8  9  2  0  0  0  0
  8  7  1  0  0  0  0
  9 13  1  0  0  0  0
 11  3  1  0  0  0  0
 12  5  1  0  0  0  0
 14 20  1  0  0  0  0
 14 15  1  0  0  0  0
 15 21  1  0  0  0  0
 16 15  2  0  0  0  0
 16  2  1  0  0  0  0
 17 16  1  0  0  0  0
 18 19  1  0  0  0  0
 18 17  2  0  0  0  0
 19 14  2  0  0  0  0
 22 18  1  0  0  0  0
 24 23  1  0  0  0  0
M  END
>  <minimizedAffinity>
-4.55024433

$$$$

 OpenBabel03272510233D

 24 26  0  0  0  0  0  0  0  0999 V2000
   37.5010   25.3200   32.8200 C   0  0  0  0  0  0  0  0  0  0  0  0
   37.1910   26.4820   33.5140 C   0  0  0  0  0  0  0  0  0  0  0  0
   37.3580   26.5370   34.8700 C   0  0  0  0  0  0  0  0  0  0  0  0
   37.8380   25.4160   35.5230 C   0  0  0  0  0  0  0  0  0  0  0  0
   38.0780   25.2520   36.8490 N   0  0  0  0  0  0  0  0  0  0  0  0
   38.5390   23.9910   37.0100 C   0  0  0  0  0  0  0  0  0  0  0  0
   38.5960   23.3640   35.8260 N   0  0  0  0  0  0  0  0  0  0  0  0
   38.1650   24.2210   34.8680 C   0  0  0  0  0  0  0  0  0  0  0  0
   37.9840   24.1990   33.4980 C   0  0  0  0  0  0  0  0  0  0  0  0
   37.3850   25.2280   31.7460 H   0  0  0  0  0  0  0  0  0  0  0  0
   37.1180   27.4400   35.4190 H   0  0  0  0  0  0  0  0  0  0  0  0
   37.9550   25.9180   37.6430 H   0  0  0  0  0  0  0  0  0  0  0  0
   38.2330   23.2830   32.9810 H   0  0  0  0  0  0  0  0  0  0  0  0
   35.5670   29.7090   32.4440 C   0  0  0  0  0  0  0  0  0  0  0  0
   36.0050   28.6820   33.2750 C   0  0  0  0  0  0  0  0  0  0  0  0
   36.6920   27.6040   32.7280 C   0  0  0  0  0  0  0  0  0  0  0  0
   36.9120   27.5890   31.3830 N   0  0  0  0  0  0  0  0  0  0  0  0
   36.4760   28.6020   30.5930 C   0  0  0  0  0  0  0  0  0  0  0  0
   35.8130   29.6430   31.1250 N   0  0  0  0  0  0  0  0  0  0  0  0
   35.0410   30.5190   32.9220 H   0  0  0  0  0  0  0  0  0  0  0  0
   35.8280   28.7030   34.3230 H   0  0  0  0  0  0  0  0  0  0  0  0
   36.6360   28.6160   29.5300 H   0  0  0  0  0  0  0  0  0  0  0  0
   38.9650   23.2440   38.2070 C   0  0  0  0  0  2  0  0  0  0  0  0
   38.8550   23.8460   39.1380 H   0  0  0  0  0  0  0  0  0  0  0  0
  1  9  2  0  0  0  0
  1  2  1  0  0  0  0
  2  3  2  0  0  0  0
  3 11  1  0  0  0  0
  3  4  1  0  0  0  0
  4  5  1  0  0  0  0
  5  6  1  0  0  0  0
  5 12  1  0  0  0  0
  6 23  1  0  0  0  0
  7  6  2  0  0  0  0
  8  4  2  0  0  0  0
  8  7  1  0  0  0  0
  9  8  1  0  0  0  0
 10  1  1  0  0  0  0
 13  9  1  0  0  0  0
 14 20  1  0  0  0  0
 14 15  1  0  0  0  0
 15 21  1  0  0  0  0
 16 15  2  0  0  0  0
 16  2  1  0  0  0  0
 17 16  1  0  0  0  0
 18 19  1  0  0  0  0
 18 17  2  0  0  0  0
 19 14  2  0  0  0  0
 22 18  1  0  0  0  0
 23 24  1  0  0  0  0
M  END
>  <minimizedAffinity>
-4.51766539

$$$$

 OpenBabel03272510233D

 24 26  0  0  0  0  0  0  0  0999 V2000
   35.2650   31.2310   33.4220 C   0  0  0  0  0  0  0  0  0  0  0  0
   35.5930   30.2570   34.3550 C   0  0  0  0  0  0  0  0  0  0  0  0
   35.4990   30.5280   35.6930 C   0  0  0  0  0  0  0  0  0  0  0  0
   35.0720   31.7850   36.0840 C   0  0  0  0  0  0  0  0  0  0  0  0
   34.9070   32.2640   37.3430 N   0  0  0  0  0  0  0  0  0  0  0  0
   34.4760   33.5390   37.2230 C   0  0  0  0  0  0  0  0  0  0  0  0
   34.3650   33.8710   35.9280 N   0  0  0  0  0  0  0  0  0  0  0  0
   34.7300   32.8000   35.1820 C   0  0  0  0  0  0  0  0  0  0  0  0
   34.8360   32.4930   33.8370 C   0  0  0  0  0  0  0  0  0  0  0  0
   35.3240   31.0640   32.3530 H   0  0  0  0  0  0  0  0  0  0  0  0
   35.7530   29.7740   36.4270 H   0  0  0  0  0  0  0  0  0  0  0  0
   35.0620   31.8010   38.2660 H   0  0  0  0  0  0  0  0  0  0  0  0
   34.5750   33.2690   33.1310 H   0  0  0  0  0  0  0  0  0  0  0  0
   37.1020   26.8230   34.0040 C   0  0  0  0  0  0  0  0  0  0  0  0
   36.7260   28.0290   34.5890 C   0  0  0  0  0  0  0  0  0  0  0  0
   36.0310   28.9670   33.8350 C   0  0  0  0  0  0  0  0  0  0  0  0
   35.7410   28.6730   32.5360 N   0  0  0  0  0  0  0  0  0  0  0  0
   36.1180   27.4910   31.9890 C   0  0  0  0  0  0  0  0  0  0  0  0
   36.7900   26.5850   32.7200 N   0  0  0  0  0  0  0  0  0  0  0  0
   37.6380   26.1330   34.6360 H   0  0  0  0  0  0  0  0  0  0  0  0
   36.9560   28.2500   35.6030 H   0  0  0  0  0  0  0  0  0  0  0  0
   35.9040   27.2310   30.9670 H   0  0  0  0  0  0  0  0  0  0  0  0
   34.1270   34.5600   38.2280 C   0  0  0  0  0  2  0  0  0  0  0  0
   34.2770   34.1910   39.2690 H   0  0  0  0  0  0  0  0  0  0  0  0
  1  9  2  0  0  0  0
  1  2  1  0  0  0  0
  2  3  2  0  0  0  0
  3  4  1  0  0  0  0
  3 11  1  0  0  0  0
  4  5  1  0  0  0  0
  5 12  1  0  0  0  0
  6  5  1  0  0  0  0
  6 23  1  0  0  0  0
  7  6  2  0  0  0  0
  8  7  1  0  0  0  0
  8  4  2  0  0  0  0
  9  8  1  0  0  0  0
 10  1  1  0  0  0  0
 13  9  1  0  0  0  0
 14 15  1  0  0  0  0
 14 20  1  0  0  0  0
 15 21  1  0  0  0  0
 16  2  1  0  0  0  0
 16 15  2  0  0  0  0
 17 16  1  0  0  0  0
 18 17  2  0  0  0  0
 18 19  1  0  0  0  0
 19 14  2  0  0  0  0
 22 18  1  0  0  0  0
 23 24  1  0  0  0  0
M  END
>  <minimizedAffinity>
-4.48650217

$$$$

 OpenBabel03272510233D

 24 26  0  0  0  0  0  0  0  0999 V2000
   37.3870   26.6300   35.2950 C   0  0  0  0  0  0  0  0  0  0  0  0
   38.3140   25.6620   34.9330 C   0  0  0  0  0  0  0  0  0  0  0  0
   38.8150   25.6320   33.6610 C   0  0  0  0  0  0  0  0  0  0  0  0
   38.3780   26.5830   32.7570 C   0  0  0  0  0  0  0  0  0  0  0  0
   38.7390   26.7380   31.4570 N   0  0  0  0  0  0  0  0  0  0  0  0
   38.0490   27.8000   30.9840 C   0  0  0  0  0  0  0  0  0  0  0  0
   37.2700   28.3130   31.9470 N   0  0  0  0  0  0  0  0  0  0  0  0
   37.4460   27.5800   33.0730 C   0  0  0  0  0  0  0  0  0  0  0  0
   36.9590   27.5810   34.3680 C   0  0  0  0  0  0  0  0  0  0  0  0
   36.9620   26.6930   36.2900 H   0  0  0  0  0  0  0  0  0  0  0  0
   39.5380   24.8790   33.3710 H   0  0  0  0  0  0  0  0  0  0  0  0
   39.4070   26.1880   30.8740 H   0  0  0  0  0  0  0  0  0  0  0  0
   36.2390   28.3460   34.6240 H   0  0  0  0  0  0  0  0  0  0  0  0
   40.0670   22.9470   36.8700 C   0  0  0  0  0  0  0  0  0  0  0  0
   39.7680   23.8220   35.8300 C   0  0  0  0  0  0  0  0  0  0  0  0
   38.7050   24.7070   35.9640 C   0  0  0  0  0  0  0  0  0  0  0  0
   37.9840   24.6870   37.1210 N   0  0  0  0  0  0  0  0  0  0  0  0
   38.2950   23.8260   38.1210 C   0  0  0  0  0  0  0  0  0  0  0  0
   39.3240   22.9700   37.9880 N   0  0  0  0  0  0  0  0  0  0  0  0
   40.9020   22.2830   36.7110 H   0  0  0  0  0  0  0  0  0  0  0  0
   40.3370   23.8300   34.9310 H   0  0  0  0  0  0  0  0  0  0  0  0
   37.7440   23.7870   39.0440 H   0  0  0  0  0  0  0  0  0  0  0  0
   38.0220   28.4440   29.6590 C   0  0  0  0  0  2  0  0  0  0  0  0
   38.6840   27.9270   28.9270 H   0  0  0  0  0  0  0  0  0  0  0  0
  1 10  1  0  0  0  0
  2  1  1  0  0  0  0
  2 16  1  0  0  0  0
  3  2  2  0  0  0  0
  4  8  2  0  0  0  0
  4  3  1  0  0  0  0
  5  4  1  0  0  0  0
  6  5  1  0  0  0  0
  6  7  2  0  0  0  0
  7  8  1  0  0  0  0
  8  9  1  0  0  0  0
  9 13  1  0  0  0  0
  9  1  2  0  0  0  0
 11  3  1  0  0  0  0
 12  5  1  0  0  0  0
 14 19  1  0  0  0  0
 15 16  1  0  0  0  0
 15 14  2  0  0  0  0
 16 17  2  0  0  0  0
 17 18  1  0  0  0  0
 18 22  1  0  0  0  0
 19 18  2  0  0  0  0
 20 14  1  0  0  0  0
 21 15  1  0  0  0  0
 23  6  1  0  0  0  0
 24 23  1  0  0  0  0
M  END
>  <minimizedAffinity>
-4.4597044

$$$$
