
 OpenBabel03272503453D

 26 27  0  0  0  0  0  0  0  0999 V2000
   39.4720   23.4110   36.8730 C   0  0  0  0  0  0  0  0  0  0  0  0
   39.8950   24.2150   35.8410 C   0  0  0  0  0  0  0  0  0  0  0  0
   41.1490   24.0930   35.2950 C   0  0  0  0  0  0  0  0  0  0  0  0
   42.0280   23.1520   35.7670 C   0  0  0  0  0  0  0  0  0  0  0  0
   41.6060   22.3350   36.8100 C   0  0  0  0  0  0  0  0  0  0  0  0
   40.3450   22.4430   37.3780 C   0  0  0  0  0  0  0  0  0  0  0  0
   41.4540   24.7400   34.4830 H   0  0  0  0  0  0  0  0  0  0  0  0
   43.0110   22.9860   35.4060 H   0  0  0  0  0  0  0  0  0  0  0  0
   42.2690   21.5770   37.2140 H   0  0  0  0  0  0  0  0  0  0  0  0
   40.0770   21.7760   38.1870 H   0  0  0  0  0  0  0  0  0  0  0  0
   38.9280   26.4670   35.9850 C   0  0  0  0  0  0  0  0  0  0  0  0
   38.9450   25.2110   35.3540 C   0  0  0  0  0  0  0  0  0  0  0  0
   38.0450   25.0010   34.2970 C   0  0  0  0  0  0  0  0  0  0  0  0
   37.2130   26.0170   33.9440 N   0  0  0  0  0  0  0  0  0  0  0  0
   37.2380   27.2070   34.5850 C   0  0  0  0  0  0  0  0  0  0  0  0
   38.0840   27.4310   35.5940 N   0  0  0  0  0  0  0  0  0  0  0  0
   39.6210   26.6460   36.8100 H   0  0  0  0  0  0  0  0  0  0  0  0
   38.1070   24.0340   33.8620 H   0  0  0  0  0  0  0  0  0  0  0  0
   36.2740   28.2590   34.1130 C   0  0  0  0  0  2  0  0  0  0  0  0
   36.8150   29.1970   33.8750 H   0  0  0  0  0  0  0  0  0  0  0  0
   37.2070   22.6340   37.1700 N   0  0  0  0  0  0  0  0  0  0  0  0
   38.1730   23.4380   37.5420 C   0  0  0  0  0  0  0  0  0  0  0  0
   37.7740   24.2830   38.6290 N   0  0  0  0  0  0  0  0  0  0  0  0
   37.3100   21.9600   36.4010 H   0  0  0  0  0  0  0  0  0  0  0  0
   38.0630   25.2390   38.3330 H   0  0  0  0  0  0  0  0  0  0  0  0
   37.2980   23.8790   39.4830 H   0  0  0  0  0  0  0  0  0  0  0  0
  1  6  1  0  0  0  0
  1 22  1  0  0  0  0
  2  1  2  0  0  0  0
  3  4  2  0  0  0  0
  3  2  1  0  0  0  0
  4  5  1  0  0  0  0
  5  9  1  0  0  0  0
  5  6  2  0  0  0  0
  6 10  1  0  0  0  0
  7  3  1  0  0  0  0
  8  4  1  0  0  0  0
 11 17  1  0  0  0  0
 12  2  1  0  0  0  0
 12 11  2  0  0  0  0
 13 12  1  0  0  0  0
 14 13  2  0  0  0  0
 14 15  1  0  0  0  0
 15 16  2  0  0  0  0
 16 11  1  0  0  0  0
 18 13  1  0  0  0  0
 19 15  1  0  0  0  0
 20 19  1  0  0  0  0
 21 22  2  0  0  0  0
 22 23  1  0  0  0  0
 23 26  1  0  0  0  0
 24 21  1  0  0  0  0
 25 23  1  0  0  0  0
M  END
>  <minimizedAffinity>
-4.85847187

$$$$

 OpenBabel03272503453D

 26 27  0  0  0  0  0  0  0  0999 V2000
   39.0470   24.3030   36.2910 C   0  0  0  0  0  0  0  0  0  0  0  0
   40.1870   24.4820   35.5430 C   0  0  0  0  0  0  0  0  0  0  0  0
   40.4650   25.6730   34.9200 C   0  0  0  0  0  0  0  0  0  0  0  0
   39.6040   26.7350   35.0270 C   0  0  0  0  0  0  0  0  0  0  0  0
   38.4490   26.5610   35.7840 C   0  0  0  0  0  0  0  0  0  0  0  0
   38.1490   25.3660   36.4190 C   0  0  0  0  0  0  0  0  0  0  0  0
   41.3700   25.7850   34.3370 H   0  0  0  0  0  0  0  0  0  0  0  0
   39.7370   27.6890   34.5830 H   0  0  0  0  0  0  0  0  0  0  0  0
   37.7400   27.3750   35.8950 H   0  0  0  0  0  0  0  0  0  0  0  0
   37.2340   25.2940   36.9940 H   0  0  0  0  0  0  0  0  0  0  0  0
   42.1330   23.2410   36.3780 C   0  0  0  0  0  0  0  0  0  0  0  0
   41.0900   23.3390   35.4410 C   0  0  0  0  0  0  0  0  0  0  0  0
   40.9890   22.3290   34.4700 C   0  0  0  0  0  0  0  0  0  0  0  0
   41.8990   21.3190   34.4910 N   0  0  0  0  0  0  0  0  0  0  0  0
   42.8840   21.2720   35.4160 C   0  0  0  0  0  0  0  0  0  0  0  0
   43.0010   22.2210   36.3480 N   0  0  0  0  0  0  0  0  0  0  0  0
   42.2250   24.0180   37.1390 H   0  0  0  0  0  0  0  0  0  0  0  0
   40.1820   22.4610   33.7930 H   0  0  0  0  0  0  0  0  0  0  0  0
   43.8340   20.1100   35.3440 C   0  0  0  0  0  2  0  0  0  0  0  0
   43.8830   19.5930   36.3240 H   0  0  0  0  0  0  0  0  0  0  0  0
   37.7760   22.2590   36.4660 N   0  0  0  0  0  0  0  0  0  0  0  0
   38.6340   23.0940   37.0000 C   0  0  0  0  0  0  0  0  0  0  0  0
   39.0660   22.6560   38.2950 N   0  0  0  0  0  0  0  0  0  0  0  0
   37.3550   22.4120   35.5410 H   0  0  0  0  0  0  0  0  0  0  0  0
   38.9640   23.4990   38.9000 H   0  0  0  0  0  0  0  0  0  0  0  0
   39.3920   21.6620   38.4510 H   0  0  0  0  0  0  0  0  0  0  0  0
  1  6  1  0  0  0  0
  1 22  1  0  0  0  0
  2  1  2  0  0  0  0
  3  4  2  0  0  0  0
  3  2  1  0  0  0  0
  4  5  1  0  0  0  0
  5  9  1  0  0  0  0
  5  6  2  0  0  0  0
  6 10  1  0  0  0  0
  7  3  1  0  0  0  0
  8  4  1  0  0  0  0
 11 17  1  0  0  0  0
 12  2  1  0  0  0  0
 12 11  2  0  0  0  0
 13 14  2  0  0  0  0
 13 12  1  0  0  0  0
 14 15  1  0  0  0  0
 15 16  2  0  0  0  0
 16 11  1  0  0  0  0
 18 13  1  0  0  0  0
 19 15  1  0  0  0  0
 19 20  1  0  0  0  0
 21 22  2  0  0  0  0
 22 23  1  0  0  0  0
 23 26  1  0  0  0  0
 23 25  1  0  0  0  0
 24 21  1  0  0  0  0
M  END
>  <minimizedAffinity>
-4.56436062

$$$$

 OpenBabel03272503453D

 26 27  0  0  0  0  0  0  0  0999 V2000
   38.4800   26.2870   34.0520 C   0  0  0  0  0  0  0  0  0  0  0  0
   38.2760   24.9320   33.9420 C   0  0  0  0  0  0  0  0  0  0  0  0
   37.4330   24.4000   32.9980 C   0  0  0  0  0  0  0  0  0  0  0  0
   36.7600   25.2140   32.1240 C   0  0  0  0  0  0  0  0  0  0  0  0
   36.9620   26.5870   32.2280 C   0  0  0  0  0  0  0  0  0  0  0  0
   37.8070   27.1450   33.1750 C   0  0  0  0  0  0  0  0  0  0  0  0
   37.2920   23.3290   32.9350 H   0  0  0  0  0  0  0  0  0  0  0  0
   36.0930   24.8930   31.3650 H   0  0  0  0  0  0  0  0  0  0  0  0
   36.4490   27.2680   31.5570 H   0  0  0  0  0  0  0  0  0  0  0  0
   37.9220   28.2210   33.2050 H   0  0  0  0  0  0  0  0  0  0  0  0
   40.2240   23.5310   34.4610 C   0  0  0  0  0  0  0  0  0  0  0  0
   39.0010   24.0820   34.8820 C   0  0  0  0  0  0  0  0  0  0  0  0
   38.5620   23.7780   36.1810 C   0  0  0  0  0  0  0  0  0  0  0  0
   39.3380   22.9720   36.9530 N   0  0  0  0  0  0  0  0  0  0  0  0
   40.5070   22.4680   36.4990 C   0  0  0  0  0  0  0  0  0  0  0  0
   40.9460   22.7420   35.2680 N   0  0  0  0  0  0  0  0  0  0  0  0
   40.5790   23.7580   33.4540 H   0  0  0  0  0  0  0  0  0  0  0  0
   37.6330   24.2240   36.4380 H   0  0  0  0  0  0  0  0  0  0  0  0
   41.2840   21.5880   37.4380 C   0  0  0  0  0  2  0  0  0  0  0  0
   42.3230   21.9610   37.5440 H   0  0  0  0  0  0  0  0  0  0  0  0
   38.8480   27.5240   36.0900 N   0  0  0  0  0  0  0  0  0  0  0  0
   39.3430   26.9790   35.0060 C   0  0  0  0  0  0  0  0  0  0  0  0
   40.7620   27.1600   34.9200 N   0  0  0  0  0  0  0  0  0  0  0  0
   37.8450   27.4980   36.3180 H   0  0  0  0  0  0  0  0  0  0  0  0
   40.9200   27.5090   33.9500 H   0  0  0  0  0  0  0  0  0  0  0  0
   41.3880   26.9440   35.7450 H   0  0  0  0  0  0  0  0  0  0  0  0
  1 22  1  0  0  0  0
  2  1  1  0  0  0  0
  2 12  1  0  0  0  0
  3  2  2  0  0  0  0
  4  5  2  0  0  0  0
  4  3  1  0  0  0  0
  5  6  1  0  0  0  0
  6 10  1  0  0  0  0
  6  1  2  0  0  0  0
  7  3  1  0  0  0  0
  8  4  1  0  0  0  0
  9  5  1  0  0  0  0
 11 12  2  0  0  0  0
 11 16  1  0  0  0  0
 12 13  1  0  0  0  0
 13 18  1  0  0  0  0
 13 14  2  0  0  0  0
 15 14  1  0  0  0  0
 15 19  1  0  0  0  0
 16 15  2  0  0  0  0
 17 11  1  0  0  0  0
 19 20  1  0  0  0  0
 21 24  1  0  0  0  0
 22 21  2  0  0  0  0
 23 22  1  0  0  0  0
 23 26  1  0  0  0  0
 25 23  1  0  0  0  0
M  END
>  <minimizedAffinity>
-4.50202513

$$$$

 OpenBabel03272503453D

 26 27  0  0  0  0  0  0  0  0999 V2000
   40.7230   24.3540   35.4980 C   0  0  0  0  0  0  0  0  0  0  0  0
   39.4210   24.4120   35.9350 C   0  0  0  0  0  0  0  0  0  0  0  0
   38.9390   23.5530   36.8920 C   0  0  0  0  0  0  0  0  0  0  0  0
   39.7520   22.6000   37.4490 C   0  0  0  0  0  0  0  0  0  0  0  0
   41.0710   22.5360   37.0110 C   0  0  0  0  0  0  0  0  0  0  0  0
   41.5780   23.3920   36.0450 C   0  0  0  0  0  0  0  0  0  0  0  0
   37.9090   23.6230   37.2170 H   0  0  0  0  0  0  0  0  0  0  0  0
   39.4670   21.8990   38.1910 H   0  0  0  0  0  0  0  0  0  0  0  0
   41.7490   21.7960   37.4250 H   0  0  0  0  0  0  0  0  0  0  0  0
   42.6130   23.2910   35.7480 H   0  0  0  0  0  0  0  0  0  0  0  0
   38.4540   26.6670   35.9930 C   0  0  0  0  0  0  0  0  0  0  0  0
   38.5710   25.4330   35.3300 C   0  0  0  0  0  0  0  0  0  0  0  0
   37.8630   25.2700   34.1280 C   0  0  0  0  0  0  0  0  0  0  0  0
   37.1080   26.3060   33.6760 N   0  0  0  0  0  0  0  0  0  0  0  0
   37.0300   27.4730   34.3540 C   0  0  0  0  0  0  0  0  0  0  0  0
   37.6930   27.6530   35.4990 N   0  0  0  0  0  0  0  0  0  0  0  0
   38.9980   26.8100   36.9290 H   0  0  0  0  0  0  0  0  0  0  0  0
   37.9940   24.3180   33.6770 H   0  0  0  0  0  0  0  0  0  0  0  0
   36.1650   28.5520   33.7620 C   0  0  0  0  0  2  0  0  0  0  0  0
   36.7430   29.4910   33.6540 H   0  0  0  0  0  0  0  0  0  0  0  0
   41.4530   24.8100   33.2440 N   0  0  0  0  0  0  0  0  0  0  0  0
   41.3580   25.2010   34.4910 C   0  0  0  0  0  0  0  0  0  0  0  0
   41.9370   26.4980   34.6880 N   0  0  0  0  0  0  0  0  0  0  0  0
   41.0960   23.9030   32.9170 H   0  0  0  0  0  0  0  0  0  0  0  0
   42.5500   26.3830   35.5230 H   0  0  0  0  0  0  0  0  0  0  0  0
   41.6970   27.3020   34.0440 H   0  0  0  0  0  0  0  0  0  0  0  0
  1  2  2  0  0  0  0
  1  6  1  0  0  0  0
  2  3  1  0  0  0  0
  3  7  1  0  0  0  0
  3  4  2  0  0  0  0
  4  8  1  0  0  0  0
  5  9  1  0  0  0  0
  5  4  1  0  0  0  0
  6  5  2  0  0  0  0
 10  6  1  0  0  0  0
 11 17  1  0  0  0  0
 12  2  1  0  0  0  0
 12 11  2  0  0  0  0
 13 12  1  0  0  0  0
 14 13  2  0  0  0  0
 14 15  1  0  0  0  0
 15 16  2  0  0  0  0
 16 11  1  0  0  0  0
 18 13  1  0  0  0  0
 19 15  1  0  0  0  0
 20 19  1  0  0  0  0
 21 22  2  0  0  0  0
 22 23  1  0  0  0  0
 22  1  1  0  0  0  0
 23 25  1  0  0  0  0
 24 21  1  0  0  0  0
 26 23  1  0  0  0  0
M  END
>  <minimizedAffinity>
-4.44684744

$$$$

 OpenBabel03272503453D

 26 27  0  0  0  0  0  0  0  0999 V2000
   36.7980   28.8920   31.0360 C   0  0  0  0  0  0  0  0  0  0  0  0
   36.0910   28.1910   31.9850 C   0  0  0  0  0  0  0  0  0  0  0  0
   35.3580   28.8240   32.9570 C   0  0  0  0  0  0  0  0  0  0  0  0
   35.3070   30.1930   33.0120 C   0  0  0  0  0  0  0  0  0  0  0  0
   36.0190   30.9090   32.0550 C   0  0  0  0  0  0  0  0  0  0  0  0
   36.7670   30.2890   31.0660 C   0  0  0  0  0  0  0  0  0  0  0  0
   34.8120   28.2460   33.6900 H   0  0  0  0  0  0  0  0  0  0  0  0
   34.7680   30.7650   33.7240 H   0  0  0  0  0  0  0  0  0  0  0  0
   36.0060   31.9940   32.0620 H   0  0  0  0  0  0  0  0  0  0  0  0
   37.2980   30.9030   30.3500 H   0  0  0  0  0  0  0  0  0  0  0  0
   35.2360   26.0760   31.0790 C   0  0  0  0  0  0  0  0  0  0  0  0
   36.1600   26.7340   31.9090 C   0  0  0  0  0  0  0  0  0  0  0  0
   37.0870   25.9430   32.6070 C   0  0  0  0  0  0  0  0  0  0  0  0
   37.0400   24.5940   32.4430 N   0  0  0  0  0  0  0  0  0  0  0  0
   36.1290   24.0110   31.6310 C   0  0  0  0  0  0  0  0  0  0  0  0
   35.2370   24.7420   30.9570 N   0  0  0  0  0  0  0  0  0  0  0  0
   34.5080   26.6760   30.5290 H   0  0  0  0  0  0  0  0  0  0  0  0
   37.7570   26.4990   33.2150 H   0  0  0  0  0  0  0  0  0  0  0  0
   36.1670   22.5120   31.5260 C   0  0  0  0  0  2  0  0  0  0  0  0
   36.2380   22.2040   30.4630 H   0  0  0  0  0  0  0  0  0  0  0  0
   37.1250   28.2020   28.7470 N   0  0  0  0  0  0  0  0  0  0  0  0
   37.6140   28.3440   29.9550 C   0  0  0  0  0  0  0  0  0  0  0  0
   38.9770   27.9060   30.0320 N   0  0  0  0  0  0  0  0  0  0  0  0
   36.1600   28.4590   28.5050 H   0  0  0  0  0  0  0  0  0  0  0  0
   39.0030   27.2890   30.8720 H   0  0  0  0  0  0  0  0  0  0  0  0
   39.6910   28.2250   29.3190 H   0  0  0  0  0  0  0  0  0  0  0  0
  1  6  2  0  0  0  0
  1  2  1  0  0  0  0
  2  3  2  0  0  0  0
  3  4  1  0  0  0  0
  3  7  1  0  0  0  0
  4  8  1  0  0  0  0
  5  9  1  0  0  0  0
  5  4  2  0  0  0  0
  6  5  1  0  0  0  0
 10  6  1  0  0  0  0
 11 12  1  0  0  0  0
 12  2  1  0  0  0  0
 12 13  2  0  0  0  0
 13 18  1  0  0  0  0
 14 13  1  0  0  0  0
 15 14  2  0  0  0  0
 16 11  2  0  0  0  0
 16 15  1  0  0  0  0
 17 11  1  0  0  0  0
 19 15  1  0  0  0  0
 20 19  1  0  0  0  0
 21 22  2  0  0  0  0
 22 23  1  0  0  0  0
 22  1  1  0  0  0  0
 23 25  1  0  0  0  0
 24 21  1  0  0  0  0
 26 23  1  0  0  0  0
M  END
>  <minimizedAffinity>
-4.398036

$$$$

 OpenBabel03272503453D

 26 27  0  0  0  0  0  0  0  0999 V2000
   39.7140   26.0940   34.8510 C   0  0  0  0  0  0  0  0  0  0  0  0
   40.0700   24.7730   34.9870 C   0  0  0  0  0  0  0  0  0  0  0  0
   41.3550   24.3420   34.7670 C   0  0  0  0  0  0  0  0  0  0  0  0
   42.3360   25.2270   34.4000 C   0  0  0  0  0  0  0  0  0  0  0  0
   41.9830   26.5660   34.2620 C   0  0  0  0  0  0  0  0  0  0  0  0
   40.6920   27.0220   34.4780 C   0  0  0  0  0  0  0  0  0  0  0  0
   41.6050   23.2950   34.8810 H   0  0  0  0  0  0  0  0  0  0  0  0
   43.3500   24.9850   34.2120 H   0  0  0  0  0  0  0  0  0  0  0  0
   42.7280   27.3000   33.9730 H   0  0  0  0  0  0  0  0  0  0  0  0
   40.4820   28.0760   34.3540 H   0  0  0  0  0  0  0  0  0  0  0  0
   38.4980   22.9830   34.3930 C   0  0  0  0  0  0  0  0  0  0  0  0
   39.0110   23.8460   35.3770 C   0  0  0  0  0  0  0  0  0  0  0  0
   38.4680   23.7560   36.6690 C   0  0  0  0  0  0  0  0  0  0  0  0
   37.4830   22.8460   36.8940 N   0  0  0  0  0  0  0  0  0  0  0  0
   37.0260   22.0390   35.9110 C   0  0  0  0  0  0  0  0  0  0  0  0
   37.5260   22.1060   34.6740 N   0  0  0  0  0  0  0  0  0  0  0  0
   38.9100   23.0410   33.3830 H   0  0  0  0  0  0  0  0  0  0  0  0
   38.8970   24.4330   37.3650 H   0  0  0  0  0  0  0  0  0  0  0  0
   35.9350   21.0700   36.2730 C   0  0  0  0  0  2  0  0  0  0  0  0
   36.2270   20.0390   35.9890 H   0  0  0  0  0  0  0  0  0  0  0  0
   38.1510   27.4630   36.0770 N   0  0  0  0  0  0  0  0  0  0  0  0
   38.3920   26.6810   35.0530 C   0  0  0  0  0  0  0  0  0  0  0  0
   37.2320   26.5110   34.2290 N   0  0  0  0  0  0  0  0  0  0  0  0
   38.8650   27.6950   36.7800 H   0  0  0  0  0  0  0  0  0  0  0  0
   37.1670   25.4810   34.0830 H   0  0  0  0  0  0  0  0  0  0  0  0
   36.6630   27.3460   33.9140 H   0  0  0  0  0  0  0  0  0  0  0  0
  1  2  1  0  0  0  0
  1 22  1  0  0  0  0
  2 12  1  0  0  0  0
  3  7  1  0  0  0  0
  3  2  2  0  0  0  0
  4  3  1  0  0  0  0
  5  4  2  0  0  0  0
  5  6  1  0  0  0  0
  6  1  2  0  0  0  0
  8  4  1  0  0  0  0
  9  5  1  0  0  0  0
 10  6  1  0  0  0  0
 11 16  2  0  0  0  0
 11 12  1  0  0  0  0
 12 13  2  0  0  0  0
 13 14  1  0  0  0  0
 13 18  1  0  0  0  0
 15 19  1  0  0  0  0
 15 14  2  0  0  0  0
 16 15  1  0  0  0  0
 17 11  1  0  0  0  0
 20 19  1  0  0  0  0
 21 24  1  0  0  0  0
 22 21  2  0  0  0  0
 23 22  1  0  0  0  0
 25 23  1  0  0  0  0
 26 23  1  0  0  0  0
M  END
>  <minimizedAffinity>
-4.39121294

$$$$

 OpenBabel03272503453D

 26 27  0  0  0  0  0  0  0  0999 V2000
   38.6640   25.3970   35.8950 C   0  0  0  0  0  0  0  0  0  0  0  0
   39.7510   24.8770   35.2320 C   0  0  0  0  0  0  0  0  0  0  0  0
   40.2700   23.6460   35.5450 C   0  0  0  0  0  0  0  0  0  0  0  0
   39.7140   22.8860   36.5410 C   0  0  0  0  0  0  0  0  0  0  0  0
   38.6130   23.4040   37.2160 C   0  0  0  0  0  0  0  0  0  0  0  0
   38.0740   24.6460   36.9170 C   0  0  0  0  0  0  0  0  0  0  0  0
   41.1270   23.2630   35.0050 H   0  0  0  0  0  0  0  0  0  0  0  0
   40.0470   21.9270   36.8490 H   0  0  0  0  0  0  0  0  0  0  0  0
   38.1420   22.8370   38.0120 H   0  0  0  0  0  0  0  0  0  0  0  0
   37.2160   24.9930   37.4790 H   0  0  0  0  0  0  0  0  0  0  0  0
   39.8700   25.5030   32.8610 C   0  0  0  0  0  0  0  0  0  0  0  0
   40.3280   25.7030   34.1750 C   0  0  0  0  0  0  0  0  0  0  0  0
   41.3110   26.6850   34.3800 C   0  0  0  0  0  0  0  0  0  0  0  0
   41.7620   27.3830   33.3040 N   0  0  0  0  0  0  0  0  0  0  0  0
   41.2860   27.1510   32.0590 C   0  0  0  0  0  0  0  0  0  0  0  0
   40.3530   26.2220   31.8390 N   0  0  0  0  0  0  0  0  0  0  0  0
   39.1070   24.7430   32.6850 H   0  0  0  0  0  0  0  0  0  0  0  0
   41.6140   26.7870   35.3920 H   0  0  0  0  0  0  0  0  0  0  0  0
   41.8560   27.9810   30.9430 C   0  0  0  0  0  2  0  0  0  0  0  0
   41.0410   28.4750   30.3770 H   0  0  0  0  0  0  0  0  0  0  0  0
   38.4430   27.7710   36.2630 N   0  0  0  0  0  0  0  0  0  0  0  0
   38.0170   26.6860   35.6630 C   0  0  0  0  0  0  0  0  0  0  0  0
   36.8990   26.9550   34.8070 N   0  0  0  0  0  0  0  0  0  0  0  0
   39.2340   27.7690   36.9180 H   0  0  0  0  0  0  0  0  0  0  0  0
   36.1990   26.2240   35.0590 H   0  0  0  0  0  0  0  0  0  0  0  0
   36.9230   27.7570   34.1180 H   0  0  0  0  0  0  0  0  0  0  0  0
  1  6  1  0  0  0  0
  2  3  1  0  0  0  0
  2  1  2  0  0  0  0
  3  4  2  0  0  0  0
  4  8  1  0  0  0  0
  4  5  1  0  0  0  0
  5  9  1  0  0  0  0
  6  5  2  0  0  0  0
  6 10  1  0  0  0  0
  7  3  1  0  0  0  0
 11 12  1  0  0  0  0
 12 13  2  0  0  0  0
 12  2  1  0  0  0  0
 13 18  1  0  0  0  0
 14 13  1  0  0  0  0
 15 14  2  0  0  0  0
 16 15  1  0  0  0  0
 16 11  2  0  0  0  0
 17 11  1  0  0  0  0
 19 15  1  0  0  0  0
 20 19  1  0  0  0  0
 21 24  1  0  0  0  0
 22  1  1  0  0  0  0
 22 21  2  0  0  0  0
 23 25  1  0  0  0  0
 23 22  1  0  0  0  0
 26 23  1  0  0  0  0
M  END
>  <minimizedAffinity>
-4.37769127

$$$$

 OpenBabel03272503453D

 26 27  0  0  0  0  0  0  0  0999 V2000
   36.2290   29.5370   32.3330 C   0  0  0  0  0  0  0  0  0  0  0  0
   36.0700   29.0650   33.6150 C   0  0  0  0  0  0  0  0  0  0  0  0
   36.6180   27.8740   34.0220 C   0  0  0  0  0  0  0  0  0  0  0  0
   37.3520   27.1090   33.1530 C   0  0  0  0  0  0  0  0  0  0  0  0
   37.5180   27.5800   31.8540 C   0  0  0  0  0  0  0  0  0  0  0  0
   36.9710   28.7790   31.4220 C   0  0  0  0  0  0  0  0  0  0  0  0
   36.4760   27.5280   35.0380 H   0  0  0  0  0  0  0  0  0  0  0  0
   37.8110   26.1810   33.3790 H   0  0  0  0  0  0  0  0  0  0  0  0
   38.0910   27.0070   31.1330 H   0  0  0  0  0  0  0  0  0  0  0  0
   37.1370   29.0910   30.3990 H   0  0  0  0  0  0  0  0  0  0  0  0
   35.9760   30.7930   35.3560 C   0  0  0  0  0  0  0  0  0  0  0  0
   35.2850   29.8940   34.5250 C   0  0  0  0  0  0  0  0  0  0  0  0
   33.8850   29.8570   34.6280 C   0  0  0  0  0  0  0  0  0  0  0  0
   33.2800   30.6860   35.5200 N   0  0  0  0  0  0  0  0  0  0  0  0
   33.9930   31.5330   36.2960 C   0  0  0  0  0  0  0  0  0  0  0  0
   35.3250   31.5860   36.2160 N   0  0  0  0  0  0  0  0  0  0  0  0
   37.0650   30.8340   35.2880 H   0  0  0  0  0  0  0  0  0  0  0  0
   33.4230   29.1580   33.9760 H   0  0  0  0  0  0  0  0  0  0  0  0
   33.2200   32.4040   37.2460 C   0  0  0  0  0  2  0  0  0  0  0  0
   33.4900   33.4690   37.0970 H   0  0  0  0  0  0  0  0  0  0  0  0
   34.6140   30.7790   31.0410 N   0  0  0  0  0  0  0  0  0  0  0  0
   35.7000   30.7790   31.7740 C   0  0  0  0  0  0  0  0  0  0  0  0
   36.2410   32.0980   31.9250 N   0  0  0  0  0  0  0  0  0  0  0  0
   34.0910   29.9210   30.8220 H   0  0  0  0  0  0  0  0  0  0  0  0
   37.2540   31.9880   31.7050 H   0  0  0  0  0  0  0  0  0  0  0  0
   35.6220   32.9090   32.2050 H   0  0  0  0  0  0  0  0  0  0  0  0
  1  2  1  0  0  0  0
  2  3  2  0  0  0  0
  2 12  1  0  0  0  0
  3  7  1  0  0  0  0
  4  8  1  0  0  0  0
  4  3  1  0  0  0  0
  5  4  2  0  0  0  0
  6  5  1  0  0  0  0
  6  1  2  0  0  0  0
  9  5  1  0  0  0  0
 10  6  1  0  0  0  0
 11 16  1  0  0  0  0
 12 13  1  0  0  0  0
 12 11  2  0  0  0  0
 13 14  2  0  0  0  0
 14 15  1  0  0  0  0
 15 19  1  0  0  0  0
 16 15  2  0  0  0  0
 17 11  1  0  0  0  0
 18 13  1  0  0  0  0
 20 19  1  0  0  0  0
 21 22  2  0  0  0  0
 22 23  1  0  0  0  0
 22  1  1  0  0  0  0
 23 26  1  0  0  0  0
 24 21  1  0  0  0  0
 25 23  1  0  0  0  0
M  END
>  <minimizedAffinity>
-4.37615538

$$$$

 OpenBabel03272503453D

 26 27  0  0  0  0  0  0  0  0999 V2000
   39.7140   23.5550   36.3590 C   0  0  0  0  0  0  0  0  0  0  0  0
   38.8060   24.5760   36.2060 C   0  0  0  0  0  0  0  0  0  0  0  0
   37.9320   24.9240   37.2050 C   0  0  0  0  0  0  0  0  0  0  0  0
   37.9380   24.2570   38.4030 C   0  0  0  0  0  0  0  0  0  0  0  0
   38.8550   23.2230   38.5650 C   0  0  0  0  0  0  0  0  0  0  0  0
   39.7450   22.8540   37.5680 C   0  0  0  0  0  0  0  0  0  0  0  0
   37.2280   25.7330   37.0560 H   0  0  0  0  0  0  0  0  0  0  0  0
   37.3030   24.4570   39.2280 H   0  0  0  0  0  0  0  0  0  0  0  0
   38.8940   22.6680   39.4970 H   0  0  0  0  0  0  0  0  0  0  0  0
   40.4340   22.0410   37.7570 H   0  0  0  0  0  0  0  0  0  0  0  0
   39.6490   26.3970   34.7930 C   0  0  0  0  0  0  0  0  0  0  0  0
   38.8150   25.2740   34.9230 C   0  0  0  0  0  0  0  0  0  0  0  0
   38.0480   24.8990   33.8080 C   0  0  0  0  0  0  0  0  0  0  0  0
   38.1530   25.6390   32.6720 N   0  0  0  0  0  0  0  0  0  0  0  0
   38.9730   26.7120   32.6000 C   0  0  0  0  0  0  0  0  0  0  0  0
   39.7120   27.0890   33.6470 N   0  0  0  0  0  0  0  0  0  0  0  0
   40.2520   26.7020   35.6510 H   0  0  0  0  0  0  0  0  0  0  0  0
   37.4400   24.0440   33.9700 H   0  0  0  0  0  0  0  0  0  0  0  0
   39.0110   27.4580   31.2950 C   0  0  0  0  0  2  0  0  0  0  0  0
   40.0550   27.5480   30.9340 H   0  0  0  0  0  0  0  0  0  0  0  0
   41.9240   23.5340   35.3910 N   0  0  0  0  0  0  0  0  0  0  0  0
   40.6930   23.0860   35.3800 C   0  0  0  0  0  0  0  0  0  0  0  0
   40.4820   22.1320   34.3320 N   0  0  0  0  0  0  0  0  0  0  0  0
   42.2570   24.2300   36.0710 H   0  0  0  0  0  0  0  0  0  0  0  0
   39.6070   22.4510   33.8640 H   0  0  0  0  0  0  0  0  0  0  0  0
   41.1550   21.3280   34.1860 H   0  0  0  0  0  0  0  0  0  0  0  0
  1  6  1  0  0  0  0
  2  1  2  0  0  0  0
  2  3  1  0  0  0  0
  3  4  2  0  0  0  0
  4  5  1  0  0  0  0
  4  8  1  0  0  0  0
  5  9  1  0  0  0  0
  6 10  1  0  0  0  0
  6  5  2  0  0  0  0
  7  3  1  0  0  0  0
 11 12  1  0  0  0  0
 11 17  1  0  0  0  0
 12  2  1  0  0  0  0
 13 18  1  0  0  0  0
 13 12  2  0  0  0  0
 14 13  1  0  0  0  0
 15 14  2  0  0  0  0
 15 16  1  0  0  0  0
 16 11  2  0  0  0  0
 19 15  1  0  0  0  0
 20 19  1  0  0  0  0
 21 24  1  0  0  0  0
 22 21  2  0  0  0  0
 22  1  1  0  0  0  0
 23 22  1  0  0  0  0
 25 23  1  0  0  0  0
 26 23  1  0  0  0  0
M  END
>  <minimizedAffinity>
-4.35499144

$$$$
