
     RDKit          3D

 23 24  0  0  0  0  0  0  0  0999 V2000
   38.0015   33.1074   49.4802 C   0  0  0  0  0  0  0  0  0  0  0  0
   38.9680   33.2090   48.4653 C   0  0  0  0  0  0  0  0  0  0  0  0
   38.9522   32.2227   47.4640 C   0  0  0  0  0  0  0  0  0  0  0  0
   38.0178   31.2405   47.5316 N   0  0  0  0  0  0  0  0  0  0  0  0
   37.1119   31.1760   48.5148 C   0  0  0  0  0  0  0  0  0  0  0  0
   37.1087   32.1203   49.4946 N   0  0  0  0  0  0  0  0  0  0  0  0
   36.0983   30.1281   48.6063 C   0  0  0  0  0  0  0  0  0  0  0  0
   35.2810   29.9575   47.5050 C   0  0  0  0  0  0  0  0  0  0  0  0
   34.2971   28.9912   47.5053 C   0  0  0  0  0  0  0  0  0  0  0  0
   34.1494   28.1981   48.6345 C   0  0  0  0  0  0  0  0  0  0  0  0
   34.9597   28.3554   49.7470 C   0  0  0  0  0  0  0  0  0  0  0  0
   35.9393   29.3297   49.7255 C   0  0  0  0  0  0  0  0  0  0  0  0
   38.0063   33.8699   50.2629 H   0  0  0  0  0  0  0  0  0  0  0  0
   39.6804   34.0233   48.4813 H   0  0  0  0  0  0  0  0  0  0  0  0
   39.6799   32.2781   46.6780 H   0  0  0  0  0  0  0  0  0  0  0  0
   35.3935   30.5741   46.6231 H   0  0  0  0  0  0  0  0  0  0  0  0
   33.6552   28.8677   46.6219 H   0  0  0  0  0  0  0  0  0  0  0  0
   33.3667   27.4435   48.6101 H   0  0  0  0  0  0  0  0  0  0  0  0
   34.8181   27.7182   50.6150 H   0  0  0  0  0  0  0  0  0  0  0  0
   36.8215   29.5256   50.8937 C   0  0  0  0  0  0  0  0  0  0  0  0
   36.6589   28.7619   51.6557 H   0  0  0  0  0  0  0  0  0  0  0  0
   36.6294   30.5237   51.3030 H   0  0  0  0  0  0  0  0  0  0  0  0
   37.9044   29.5280   50.5874 H   0  0  0  0  0  0  0  0  0  0  0  0
  1  6  2  0
  2  1  1  0
  3  4  1  0
  3  2  2  0
  4  5  2  0
  5  7  1  0
  5  6  1  0
  7 12  1  0
  8  7  2  0
  9  8  1  0
  9 10  2  0
 10 11  1  0
 12 11  2  0
  1 13  1  0
  2 14  1  0
  3 15  1  0
  8 16  1  0
  9 17  1  0
 10 18  1  0
 11 19  1  0
 20 21  1  0
 20 22  1  0
 20 23  1  0
 12 20  1  0
M  ISO  8  13  14  14  14  15  14  16  14  17  14  18  14  19  14  21   8
M  END
>  <DihAtoms>  (1) 
6,11,19,20

>  <DihDeg>  (1) 
-173.7647214131331

$$$$
