
 OpenBabel03272506583D

 21 22  0  0  0  0  0  0  0  0999 V2000
   40.2480   23.3040   35.9460 C   0  0  0  0  0  0  0  0  0  0  0  0
   39.7570   22.8210   37.1510 C   0  0  0  0  0  0  0  0  0  0  0  0
   38.5280   23.3620   37.5470 C   0  0  0  0  0  0  0  0  0  0  0  0
   37.9030   24.2870   36.7770 N   0  0  0  0  0  0  0  0  0  0  0  0
   38.4400   24.7070   35.6210 C   0  0  0  0  0  0  0  0  0  0  0  0
   39.6240   24.2270   35.1780 N   0  0  0  0  0  0  0  0  0  0  0  0
   41.2140   22.8680   35.6510 H   0  0  0  0  0  0  0  0  0  0  0  0
   38.0800   23.0350   38.4780 H   0  0  0  0  0  0  0  0  0  0  0  0
   37.7860   25.7010   34.7760 C   0  0  0  0  0  0  0  0  0  0  0  0
   37.4500   26.9400   35.2470 C   0  0  0  0  0  0  0  0  0  0  0  0
   36.8310   27.9530   34.5380 C   0  0  0  0  0  0  0  0  0  0  0  0
   36.5400   27.6580   33.2460 N   0  0  0  0  0  0  0  0  0  0  0  0
   36.8590   26.4350   32.7410 C   0  0  0  0  0  0  0  0  0  0  0  0
   37.4710   25.4620   33.4760 N   0  0  0  0  0  0  0  0  0  0  0  0
   37.6800   27.1790   36.2800 H   0  0  0  0  0  0  0  0  0  0  0  0
   36.5960   28.9100   34.9840 H   0  0  0  0  0  0  0  0  0  0  0  0
   36.5410   26.1110   31.3220 C   0  0  0  0  0  2  0  0  0  0  0  0
   35.5390   26.5400   31.0830 H   0  0  0  0  0  0  0  0  0  0  0  0
   40.4340   21.8590   37.9250 N   0  0  0  0  0  0  0  0  0  0  0  0
   40.3510   20.8230   37.8070 H   0  0  0  0  0  0  0  0  0  0  0  0
   41.0460   22.3220   38.6490 H   0  0  0  0  0  0  0  0  0  0  0  0
  1  2  1  0  0  0  0
  2  3  2  0  0  0  0
  2 19  1  0  0  0  0
  3  8  1  0  0  0  0
  4  3  1  0  0  0  0
  5  4  2  0  0  0  0
  6  5  1  0  0  0  0
  6  1  2  0  0  0  0
  7  1  1  0  0  0  0
  9 10  1  0  0  0  0
  9  5  1  0  0  0  0
 10 15  1  0  0  0  0
 11 16  1  0  0  0  0
 11 10  2  0  0  0  0
 12 11  1  0  0  0  0
 13 12  2  0  0  0  0
 13 14  1  0  0  0  0
 14  9  2  0  0  0  0
 17 13  1  0  0  0  0
 18 17  1  0  0  0  0
 19 21  1  0  0  0  0
 20 19  1  0  0  0  0
M  END
>  <minimizedAffinity>
-4.5161767

$$$$

 OpenBabel03272506583D

 21 22  0  0  0  0  0  0  0  0999 V2000
   40.0770   23.2540   35.8670 C   0  0  0  0  0  0  0  0  0  0  0  0
   39.6010   22.9190   37.1270 C   0  0  0  0  0  0  0  0  0  0  0  0
   38.4150   23.5610   37.5000 C   0  0  0  0  0  0  0  0  0  0  0  0
   37.8130   24.4370   36.6590 N   0  0  0  0  0  0  0  0  0  0  0  0
   38.3320   24.7120   35.4520 C   0  0  0  0  0  0  0  0  0  0  0  0
   39.4760   24.1280   35.0280 N   0  0  0  0  0  0  0  0  0  0  0  0
   41.0090   22.7390   35.5900 H   0  0  0  0  0  0  0  0  0  0  0  0
   37.9810   23.3520   38.4710 H   0  0  0  0  0  0  0  0  0  0  0  0
   37.7030   25.6520   34.5300 C   0  0  0  0  0  0  0  0  0  0  0  0
   37.5770   25.3800   33.1960 C   0  0  0  0  0  0  0  0  0  0  0  0
   37.0010   26.1940   32.2370 C   0  0  0  0  0  0  0  0  0  0  0  0
   36.5210   27.3760   32.6980 N   0  0  0  0  0  0  0  0  0  0  0  0
   36.6270   27.6830   34.0210 C   0  0  0  0  0  0  0  0  0  0  0  0
   37.2040   26.8500   34.9340 N   0  0  0  0  0  0  0  0  0  0  0  0
   37.9610   24.4360   32.8240 H   0  0  0  0  0  0  0  0  0  0  0  0
   36.9400   25.9070   31.1970 H   0  0  0  0  0  0  0  0  0  0  0  0
   36.0990   28.9800   34.5270 C   0  0  0  0  0  2  0  0  0  0  0  0
   36.3390   29.7710   33.7770 H   0  0  0  0  0  0  0  0  0  0  0  0
   40.2540   22.0030   37.9740 N   0  0  0  0  0  0  0  0  0  0  0  0
   40.1140   20.9670   37.9630 H   0  0  0  0  0  0  0  0  0  0  0  0
   40.9110   22.5020   38.6310 H   0  0  0  0  0  0  0  0  0  0  0  0
  1  2  1  0  0  0  0
  2  3  2  0  0  0  0
  2 19  1  0  0  0  0
  3  8  1  0  0  0  0
  4  3  1  0  0  0  0
  5  4  2  0  0  0  0
  6  5  1  0  0  0  0
  6  1  2  0  0  0  0
  7  1  1  0  0  0  0
  9 14  1  0  0  0  0
  9  5  1  0  0  0  0
 10  9  2  0  0  0  0
 11 12  2  0  0  0  0
 11 10  1  0  0  0  0
 12 13  1  0  0  0  0
 13 17  1  0  0  0  0
 13 14  2  0  0  0  0
 15 10  1  0  0  0  0
 16 11  1  0  0  0  0
 18 17  1  0  0  0  0
 19 21  1  0  0  0  0
 20 19  1  0  0  0  0
M  END
>  <minimizedAffinity>
-4.4130311

$$$$

 OpenBabel03272506583D

 21 22  0  0  0  0  0  0  0  0999 V2000
   37.3450   23.9540   32.3600 C   0  0  0  0  0  0  0  0  0  0  0  0
   37.1520   25.2780   31.9900 C   0  0  0  0  0  0  0  0  0  0  0  0
   37.3930   26.2160   33.0000 C   0  0  0  0  0  0  0  0  0  0  0  0
   37.7860   25.8120   34.2340 N   0  0  0  0  0  0  0  0  0  0  0  0
   37.9530   24.5110   34.5200 C   0  0  0  0  0  0  0  0  0  0  0  0
   37.7370   23.5520   33.5900 N   0  0  0  0  0  0  0  0  0  0  0  0
   37.1510   23.2320   31.5530 H   0  0  0  0  0  0  0  0  0  0  0  0
   37.2630   27.2700   32.7880 H   0  0  0  0  0  0  0  0  0  0  0  0
   38.3750   24.0530   35.8390 C   0  0  0  0  0  0  0  0  0  0  0  0
   37.7240   24.4370   36.9790 C   0  0  0  0  0  0  0  0  0  0  0  0
   38.0370   24.0650   38.2740 C   0  0  0  0  0  0  0  0  0  0  0  0
   39.1020   23.2350   38.3940 N   0  0  0  0  0  0  0  0  0  0  0  0
   39.7770   22.8310   37.2820 C   0  0  0  0  0  0  0  0  0  0  0  0
   39.4350   23.2220   36.0210 N   0  0  0  0  0  0  0  0  0  0  0  0
   36.8710   25.1010   36.8860 H   0  0  0  0  0  0  0  0  0  0  0  0
   37.4710   24.4130   39.1270 H   0  0  0  0  0  0  0  0  0  0  0  0
   40.9470   21.9180   37.4130 C   0  0  0  0  0  2  0  0  0  0  0  0
   41.5360   22.2340   38.3070 H   0  0  0  0  0  0  0  0  0  0  0  0
   36.7430   25.6600   30.6980 N   0  0  0  0  0  0  0  0  0  0  0  0
   37.3840   25.8300   29.8880 H   0  0  0  0  0  0  0  0  0  0  0  0
   35.6940   25.7560   30.6480 H   0  0  0  0  0  0  0  0  0  0  0  0
  1  6  1  0  0  0  0
  2  1  2  0  0  0  0
  2  3  1  0  0  0  0
  3  4  2  0  0  0  0
  4  5  1  0  0  0  0
  5  9  1  0  0  0  0
  6  5  2  0  0  0  0
  7  1  1  0  0  0  0
  8  3  1  0  0  0  0
  9 14  2  0  0  0  0
  9 10  1  0  0  0  0
 10 11  2  0  0  0  0
 11 12  1  0  0  0  0
 11 16  1  0  0  0  0
 13 17  1  0  0  0  0
 13 12  2  0  0  0  0
 14 13  1  0  0  0  0
 15 10  1  0  0  0  0
 17 18  1  0  0  0  0
 19  2  1  0  0  0  0
 20 19  1  0  0  0  0
 21 19  1  0  0  0  0
M  END
>  <minimizedAffinity>
-4.34612322

$$$$

 OpenBabel03272506583D

 21 22  0  0  0  0  0  0  0  0999 V2000
   36.0910   21.1130   33.2670 C   0  0  0  0  0  0  0  0  0  0  0  0
   36.2420   21.8780   32.1190 C   0  0  0  0  0  0  0  0  0  0  0  0
   37.1660   22.9240   32.2230 C   0  0  0  0  0  0  0  0  0  0  0  0
   37.8390   23.1340   33.3810 N   0  0  0  0  0  0  0  0  0  0  0  0
   37.6410   22.3510   34.4530 C   0  0  0  0  0  0  0  0  0  0  0  0
   36.7630   21.3230   34.4220 N   0  0  0  0  0  0  0  0  0  0  0  0
   35.3620   20.2950   33.1660 H   0  0  0  0  0  0  0  0  0  0  0  0
   37.3380   23.5660   31.3670 H   0  0  0  0  0  0  0  0  0  0  0  0
   38.3540   22.5590   35.7090 C   0  0  0  0  0  0  0  0  0  0  0  0
   37.8060   23.2670   36.7420 C   0  0  0  0  0  0  0  0  0  0  0  0
   38.3890   23.5230   37.9700 C   0  0  0  0  0  0  0  0  0  0  0  0
   39.6310   23.0070   38.1360 N   0  0  0  0  0  0  0  0  0  0  0  0
   40.2120   22.2960   37.1310 C   0  0  0  0  0  0  0  0  0  0  0  0
   39.6000   22.0650   35.9330 N   0  0  0  0  0  0  0  0  0  0  0  0
   36.8110   23.6820   36.6110 H   0  0  0  0  0  0  0  0  0  0  0  0
   37.8870   24.0950   38.7390 H   0  0  0  0  0  0  0  0  0  0  0  0
   41.5770   21.7270   37.3130 C   0  0  0  0  0  2  0  0  0  0  0  0
   42.1960   22.4780   37.8590 H   0  0  0  0  0  0  0  0  0  0  0  0
   35.5250   21.6290   30.9330 N   0  0  0  0  0  0  0  0  0  0  0  0
   35.8170   20.9640   30.1800 H   0  0  0  0  0  0  0  0  0  0  0  0
   34.6430   22.2070   30.8980 H   0  0  0  0  0  0  0  0  0  0  0  0
  1  6  1  0  0  0  0
  2  3  1  0  0  0  0
  2  1  2  0  0  0  0
  3  4  2  0  0  0  0
  4  5  1  0  0  0  0
  5  9  1  0  0  0  0
  6  5  2  0  0  0  0
  7  1  1  0  0  0  0
  8  3  1  0  0  0  0
  9 14  2  0  0  0  0
  9 10  1  0  0  0  0
 10 11  2  0  0  0  0
 11 12  1  0  0  0  0
 11 16  1  0  0  0  0
 13 17  1  0  0  0  0
 13 12  2  0  0  0  0
 14 13  1  0  0  0  0
 15 10  1  0  0  0  0
 17 18  1  0  0  0  0
 19  2  1  0  0  0  0
 20 19  1  0  0  0  0
 21 19  1  0  0  0  0
M  END
>  <minimizedAffinity>
-4.12372446

$$$$

 OpenBabel03272506583D

 21 22  0  0  0  0  0  0  0  0999 V2000
   35.6990   29.8540   31.0990 C   0  0  0  0  0  0  0  0  0  0  0  0
   36.1660   28.5490   31.0420 C   0  0  0  0  0  0  0  0  0  0  0  0
   36.2140   27.8840   32.2730 C   0  0  0  0  0  0  0  0  0  0  0  0
   35.8230   28.5120   33.4090 N   0  0  0  0  0  0  0  0  0  0  0  0
   35.3810   29.7790   33.3870 C   0  0  0  0  0  0  0  0  0  0  0  0
   35.3090   30.4800   32.2330 N   0  0  0  0  0  0  0  0  0  0  0  0
   35.6670   30.3600   30.1220 H   0  0  0  0  0  0  0  0  0  0  0  0
   36.5690   26.8610   32.3100 H   0  0  0  0  0  0  0  0  0  0  0  0
   34.9560   30.4760   34.5970 C   0  0  0  0  0  0  0  0  0  0  0  0
   35.7850   31.3290   35.2690 C   0  0  0  0  0  0  0  0  0  0  0  0
   35.4870   32.0380   36.4190 C   0  0  0  0  0  0  0  0  0  0  0  0
   34.2360   31.8450   36.9060 N   0  0  0  0  0  0  0  0  0  0  0  0
   33.3800   31.0020   36.2650 C   0  0  0  0  0  0  0  0  0  0  0  0
   33.7150   30.3220   35.1310 N   0  0  0  0  0  0  0  0  0  0  0  0
   36.7870   31.4850   34.8820 H   0  0  0  0  0  0  0  0  0  0  0  0
   36.2020   32.6960   36.8930 H   0  0  0  0  0  0  0  0  0  0  0  0
   32.0060   30.7910   36.8000 C   0  0  0  0  0  2  0  0  0  0  0  0
   32.0690   30.7390   37.9130 H   0  0  0  0  0  0  0  0  0  0  0  0
   36.5630   27.9280   29.8420 N   0  0  0  0  0  0  0  0  0  0  0  0
   35.9260   27.4230   29.1850 H   0  0  0  0  0  0  0  0  0  0  0  0
   37.6010   28.0390   29.6880 H   0  0  0  0  0  0  0  0  0  0  0  0
  1  6  1  0  0  0  0
  2  1  2  0  0  0  0
  2  3  1  0  0  0  0
  3  8  1  0  0  0  0
  3  4  2  0  0  0  0
  5  4  1  0  0  0  0
  5  9  1  0  0  0  0
  6  5  2  0  0  0  0
  7  1  1  0  0  0  0
  9 14  2  0  0  0  0
  9 10  1  0  0  0  0
 10 11  2  0  0  0  0
 11 16  1  0  0  0  0
 11 12  1  0  0  0  0
 13 17  1  0  0  0  0
 13 12  2  0  0  0  0
 14 13  1  0  0  0  0
 15 10  1  0  0  0  0
 17 18  1  0  0  0  0
 19  2  1  0  0  0  0
 20 19  1  0  0  0  0
 21 19  1  0  0  0  0
M  END
>  <minimizedAffinity>
-4.10752487

$$$$

 OpenBabel03272506583D

 21 22  0  0  0  0  0  0  0  0999 V2000
   36.7780   20.2680   30.8550 C   0  0  0  0  0  0  0  0  0  0  0  0
   35.7470   19.5370   31.4290 C   0  0  0  0  0  0  0  0  0  0  0  0
   34.8140   20.2940   32.1470 C   0  0  0  0  0  0  0  0  0  0  0  0
   34.9500   21.6390   32.2460 N   0  0  0  0  0  0  0  0  0  0  0  0
   35.9750   22.2800   31.6630 C   0  0  0  0  0  0  0  0  0  0  0  0
   36.9130   21.6100   30.9540 N   0  0  0  0  0  0  0  0  0  0  0  0
   37.5010   19.6570   30.2950 H   0  0  0  0  0  0  0  0  0  0  0  0
   33.9800   19.7940   32.6250 H   0  0  0  0  0  0  0  0  0  0  0  0
   36.1420   23.7270   31.7560 C   0  0  0  0  0  0  0  0  0  0  0  0
   35.3200   24.5930   31.0920 C   0  0  0  0  0  0  0  0  0  0  0  0
   35.3870   25.9740   31.1090 C   0  0  0  0  0  0  0  0  0  0  0  0
   36.3820   26.4930   31.8710 N   0  0  0  0  0  0  0  0  0  0  0  0
   37.2220   25.6630   32.5480 C   0  0  0  0  0  0  0  0  0  0  0  0
   37.1200   24.3030   32.5040 N   0  0  0  0  0  0  0  0  0  0  0  0
   34.5230   24.1810   30.4810 H   0  0  0  0  0  0  0  0  0  0  0  0
   34.6960   26.5930   30.5530 H   0  0  0  0  0  0  0  0  0  0  0  0
   38.3150   26.2320   33.3860 C   0  0  0  0  0  2  0  0  0  0  0  0
   38.7520   27.1030   32.8430 H   0  0  0  0  0  0  0  0  0  0  0  0
   35.6380   18.1390   31.3050 N   0  0  0  0  0  0  0  0  0  0  0  0
   35.1660   17.6390   30.5160 H   0  0  0  0  0  0  0  0  0  0  0  0
   36.0990   17.6520   32.1190 H   0  0  0  0  0  0  0  0  0  0  0  0
  1  6  2  0  0  0  0
  1  2  1  0  0  0  0
  2  3  2  0  0  0  0
  3  4  1  0  0  0  0
  3  8  1  0  0  0  0
  5  9  1  0  0  0  0
  5  4  2  0  0  0  0
  6  5  1  0  0  0  0
  7  1  1  0  0  0  0
  9 14  1  0  0  0  0
 10 11  1  0  0  0  0
 10  9  2  0  0  0  0
 11 12  2  0  0  0  0
 12 13  1  0  0  0  0
 13 17  1  0  0  0  0
 14 13  2  0  0  0  0
 15 10  1  0  0  0  0
 16 11  1  0  0  0  0
 18 17  1  0  0  0  0
 19  2  1  0  0  0  0
 19 21  1  0  0  0  0
 20 19  1  0  0  0  0
M  END
>  <minimizedAffinity>
-4.08160305

$$$$

 OpenBabel03272506583D

 21 22  0  0  0  0  0  0  0  0999 V2000
   36.0620   21.1050   33.2130 C   0  0  0  0  0  0  0  0  0  0  0  0
   36.2790   21.7800   32.0200 C   0  0  0  0  0  0  0  0  0  0  0  0
   37.2750   22.7620   32.0700 C   0  0  0  0  0  0  0  0  0  0  0  0
   37.9500   22.9990   33.2220 N   0  0  0  0  0  0  0  0  0  0  0  0
   37.6850   22.3050   34.3400 C   0  0  0  0  0  0  0  0  0  0  0  0
   36.7350   21.3420   34.3620 N   0  0  0  0  0  0  0  0  0  0  0  0
   35.2760   20.3360   33.1550 H   0  0  0  0  0  0  0  0  0  0  0  0
   37.5030   23.3330   31.1780 H   0  0  0  0  0  0  0  0  0  0  0  0
   38.3970   22.5430   35.5910 C   0  0  0  0  0  0  0  0  0  0  0  0
   39.6320   22.0090   35.8320 C   0  0  0  0  0  0  0  0  0  0  0  0
   40.3930   22.1680   36.9760 C   0  0  0  0  0  0  0  0  0  0  0  0
   39.8300   22.9390   37.9390 N   0  0  0  0  0  0  0  0  0  0  0  0
   38.6010   23.4890   37.7370 C   0  0  0  0  0  0  0  0  0  0  0  0
   37.8830   23.3060   36.5910 N   0  0  0  0  0  0  0  0  0  0  0  0
   40.0850   21.3910   35.0630 H   0  0  0  0  0  0  0  0  0  0  0  0
   41.3650   21.7100   37.0910 H   0  0  0  0  0  0  0  0  0  0  0  0
   37.9820   24.3370   38.7940 C   0  0  0  0  0  2  0  0  0  0  0  0
   38.1990   23.8710   39.7850 H   0  0  0  0  0  0  0  0  0  0  0  0
   35.5590   21.5060   30.8420 N   0  0  0  0  0  0  0  0  0  0  0  0
   35.8100   20.7730   30.1390 H   0  0  0  0  0  0  0  0  0  0  0  0
   34.7210   22.1410   30.7570 H   0  0  0  0  0  0  0  0  0  0  0  0
  1  6  1  0  0  0  0
  2  3  1  0  0  0  0
  2  1  2  0  0  0  0
  3  4  2  0  0  0  0
  4  5  1  0  0  0  0
  5  6  2  0  0  0  0
  5  9  1  0  0  0  0
  7  1  1  0  0  0  0
  8  3  1  0  0  0  0
  9 10  2  0  0  0  0
  9 14  1  0  0  0  0
 10 11  1  0  0  0  0
 11 16  1  0  0  0  0
 11 12  2  0  0  0  0
 13 12  1  0  0  0  0
 13 17  1  0  0  0  0
 14 13  2  0  0  0  0
 15 10  1  0  0  0  0
 17 18  1  0  0  0  0
 19  2  1  0  0  0  0
 20 19  1  0  0  0  0
 21 19  1  0  0  0  0
M  END
>  <minimizedAffinity>
-4.06562757

$$$$

 OpenBabel03272506583D

 21 22  0  0  0  0  0  0  0  0999 V2000
   37.7950   24.3510   37.2650 C   0  0  0  0  0  0  0  0  0  0  0  0
   38.6440   23.2890   37.5460 C   0  0  0  0  0  0  0  0  0  0  0  0
   39.2930   22.7400   36.4330 C   0  0  0  0  0  0  0  0  0  0  0  0
   39.0750   23.2440   35.1930 N   0  0  0  0  0  0  0  0  0  0  0  0
   38.2380   24.2750   34.9970 C   0  0  0  0  0  0  0  0  0  0  0  0
   37.5790   24.8520   36.0270 N   0  0  0  0  0  0  0  0  0  0  0  0
   37.2950   24.7690   38.1510 H   0  0  0  0  0  0  0  0  0  0  0  0
   39.9710   21.9070   36.5730 H   0  0  0  0  0  0  0  0  0  0  0  0
   37.9890   24.8330   33.6720 C   0  0  0  0  0  0  0  0  0  0  0  0
   37.3350   26.0210   33.5000 C   0  0  0  0  0  0  0  0  0  0  0  0
   37.0460   26.6390   32.2970 C   0  0  0  0  0  0  0  0  0  0  0  0
   37.4670   25.9740   31.1920 N   0  0  0  0  0  0  0  0  0  0  0  0
   38.1210   24.7870   31.3220 C   0  0  0  0  0  0  0  0  0  0  0  0
   38.3860   24.2110   32.5300 N   0  0  0  0  0  0  0  0  0  0  0  0
   36.9970   26.5550   34.3820 H   0  0  0  0  0  0  0  0  0  0  0  0
   36.5220   27.5830   32.2440 H   0  0  0  0  0  0  0  0  0  0  0  0
   38.5840   24.0560   30.1090 C   0  0  0  0  0  2  0  0  0  0  0  0
   37.7930   24.1450   29.3270 H   0  0  0  0  0  0  0  0  0  0  0  0
   38.8450   22.7930   38.8480 N   0  0  0  0  0  0  0  0  0  0  0  0
   39.5480   23.1590   39.5310 H   0  0  0  0  0  0  0  0  0  0  0  0
   38.1880   21.9930   39.0510 H   0  0  0  0  0  0  0  0  0  0  0  0
  1  2  1  0  0  0  0
  1  7  1  0  0  0  0
  2 19  1  0  0  0  0
  3  8  1  0  0  0  0
  3  2  2  0  0  0  0
  4  3  1  0  0  0  0
  5  4  2  0  0  0  0
  5  6  1  0  0  0  0
  6  1  2  0  0  0  0
  9  5  1  0  0  0  0
 10  9  1  0  0  0  0
 10 15  1  0  0  0  0
 11 10  2  0  0  0  0
 12 13  2  0  0  0  0
 12 11  1  0  0  0  0
 13 14  1  0  0  0  0
 14  9  2  0  0  0  0
 16 11  1  0  0  0  0
 17 13  1  0  0  0  0
 18 17  1  0  0  0  0
 19 21  1  0  0  0  0
 19 20  1  0  0  0  0
M  END
>  <minimizedAffinity>
-4.02856398

$$$$

 OpenBabel03272506583D

 21 22  0  0  0  0  0  0  0  0999 V2000
   36.9630   26.1380   32.6820 C   0  0  0  0  0  0  0  0  0  0  0  0
   36.5590   25.4190   31.5660 C   0  0  0  0  0  0  0  0  0  0  0  0
   36.8280   24.0460   31.6170 C   0  0  0  0  0  0  0  0  0  0  0  0
   37.4410   23.5060   32.6990 N   0  0  0  0  0  0  0  0  0  0  0  0
   37.8040   24.2650   33.7450 C   0  0  0  0  0  0  0  0  0  0  0  0
   37.5740   25.5980   33.7610 N   0  0  0  0  0  0  0  0  0  0  0  0
   36.7430   27.2140   32.6240 H   0  0  0  0  0  0  0  0  0  0  0  0
   36.5430   23.4180   30.7820 H   0  0  0  0  0  0  0  0  0  0  0  0
   38.4650   23.7060   34.9190 C   0  0  0  0  0  0  0  0  0  0  0  0
   39.5010   22.8210   34.8130 C   0  0  0  0  0  0  0  0  0  0  0  0
   40.1960   22.2310   35.8530 C   0  0  0  0  0  0  0  0  0  0  0  0
   39.7840   22.5880   37.0950 N   0  0  0  0  0  0  0  0  0  0  0  0
   38.7550   23.4680   37.2430 C   0  0  0  0  0  0  0  0  0  0  0  0
   38.0960   24.0260   36.1880 N   0  0  0  0  0  0  0  0  0  0  0  0
   39.8320   22.5330   33.8200 H   0  0  0  0  0  0  0  0  0  0  0  0
   41.0070   21.5370   35.6860 H   0  0  0  0  0  0  0  0  0  0  0  0
   38.3030   23.8600   38.6070 C   0  0  0  0  0  2  0  0  0  0  0  0
   38.3240   22.9520   39.2560 H   0  0  0  0  0  0  0  0  0  0  0  0
   35.9240   26.0150   30.4590 N   0  0  0  0  0  0  0  0  0  0  0  0
   34.8950   26.1770   30.3700 H   0  0  0  0  0  0  0  0  0  0  0  0
   36.6290   26.2810   29.7200 H   0  0  0  0  0  0  0  0  0  0  0  0
  1  6  1  0  0  0  0
  2  3  1  0  0  0  0
  2  1  2  0  0  0  0
  3  4  2  0  0  0  0
  4  5  1  0  0  0  0
  5  6  2  0  0  0  0
  5  9  1  0  0  0  0
  7  1  1  0  0  0  0
  8  3  1  0  0  0  0
  9 14  1  0  0  0  0
 10  9  2  0  0  0  0
 10 11  1  0  0  0  0
 11 12  2  0  0  0  0
 12 13  1  0  0  0  0
 13 17  1  0  0  0  0
 14 13  2  0  0  0  0
 15 10  1  0  0  0  0
 16 11  1  0  0  0  0
 17 18  1  0  0  0  0
 19  2  1  0  0  0  0
 20 19  1  0  0  0  0
 21 19  1  0  0  0  0
M  END
>  <minimizedAffinity>
-4.02378798

$$$$
