REMARK  Name = 
REMARK  2 active torsions:
REMARK  status: ('A' for Active; 'I' for Inactive)
REMARK    1  A    between atoms: C_5  and  C_7
REMARK    2  A    between atoms: C_12  and  C_20
REMARK                            x       y       z     vdW  Elec       q    Type
REMARK                         _______ _______ _______ _____ _____    ______ ____
ROOT
ATOM      1  C   UNL     1      36.098  30.128  48.606  0.00  0.00    +0.000 A 
ATOM      2  C   UNL     1      35.281  29.957  47.505  0.00  0.00    +0.000 A 
ATOM      3  C   UNL     1      34.297  28.991  47.505  0.00  0.00    +0.000 A 
ATOM      4  C   UNL     1      34.149  28.198  48.635  0.00  0.00    +0.000 A 
ATOM      5  C   UNL     1      34.960  28.355  49.747  0.00  0.00    +0.000 A 
ATOM      6  C   UNL     1      35.939  29.330  49.725  0.00  0.00    +0.000 A 
ATOM      7  H   UNL     1      35.394  30.574  46.623  0.00  0.00    +0.000 HD
ATOM      8  H   UNL     1      33.655  28.868  46.622  0.00  0.00    +0.000 HD
ATOM      9  H   UNL     1      33.367  27.444  48.610  0.00  0.00    +0.000 HD
ATOM     10  H   UNL     1      34.818  27.718  50.615  0.00  0.00    +0.000 HD
ENDROOT
BRANCH   1  15
ATOM     11  C   UNL     1      38.002  33.107  49.480  0.00  0.00    +0.000 A 
ATOM     12  C   UNL     1      38.968  33.209  48.465  0.00  0.00    +0.000 A 
ATOM     13  C   UNL     1      38.952  32.223  47.464  0.00  0.00    +0.000 A 
ATOM     14  N   UNL     1      38.018  31.241  47.532  0.00  0.00    +0.000 NA
ATOM     15  C   UNL     1      37.112  31.176  48.515  0.00  0.00    +0.000 A 
ATOM     16  N   UNL     1      37.109  32.120  49.495  0.00  0.00    +0.000 NA
ATOM     17  H   UNL     1      38.006  33.870  50.263  0.00  0.00    +0.000 HD
ATOM     18  H   UNL     1      39.680  34.023  48.481  0.00  0.00    +0.000 HD
ATOM     19  H   UNL     1      39.680  32.278  46.678  0.00  0.00    +0.000 HD
ENDBRANCH   1  15
BRANCH   6  20
ATOM     20  C   UNL     1      36.822  29.526  50.894  0.00  0.00    +0.000 C 
ATOM     21  H   UNL     1      36.279  29.414  51.834  0.00  0.00    +0.000 HD
ENDBRANCH   6  20
TORSDOF 2
