
 OpenBabel03272500483D

 32 35  0  0  1  0  0  0  0  0999 V2000
   32.5870   28.5210   47.4180 C   0  0  0  0  0  0  0  0  0  0  0  0
   33.2820   28.5400   46.2250 C   0  0  0  0  0  0  0  0  0  0  0  0
   34.4830   29.2390   46.4310 C   0  0  0  0  0  0  0  0  0  0  0  0
   34.4830   29.6170   47.7230 N   0  0  0  0  0  0  0  0  0  0  0  0
   33.3690   29.1830   48.2580 N   0  0  0  0  0  0  0  0  0  0  0  0
   32.9840   28.1060   45.2810 H   0  0  0  0  0  0  0  0  0  0  0  0
   35.2480   29.4300   45.7000 H   0  0  0  0  0  0  0  0  0  0  0  0
   30.7620   27.5900   48.8640 C   0  0  0  0  0  0  0  0  0  0  0  0
   31.3110   27.8930   47.5880 C   0  0  0  0  0  0  0  0  0  0  0  0
   30.5440   27.5470   46.4940 C   0  0  0  0  0  0  0  0  0  0  0  0
   29.3410   26.9550   46.6800 N   0  0  0  0  0  0  0  0  0  0  0  0
   28.8570   26.6860   47.8970 C   0  0  0  0  0  0  0  0  0  0  0  0
   29.5680   27.0040   49.0070 N   0  0  0  0  0  0  0  0  0  0  0  0
   31.3450   27.8520   49.7500 H   0  0  0  0  0  0  0  0  0  0  0  0
   30.8780   27.7380   45.4700 H   0  0  0  0  0  0  0  0  0  0  0  0
   27.8900   26.2100   48.0340 H   0  0  0  0  0  0  0  0  0  0  0  0
   35.5230   30.3690   48.4070 C   0  0  1  0  0  0  0  0  0  0  0  0
   36.6080   29.5150   49.1480 C   0  0  0  0  0  0  0  0  0  0  0  0
   36.9100   30.2890   47.9170 C   0  0  2  0  0  0  0  0  0  0  0  0
   35.1760   31.2550   48.9660 H   0  0  0  0  0  0  0  0  0  0  0  0
   36.9790   29.9300   50.1030 H   0  0  0  0  0  0  0  0  0  0  0  0
   36.4380   28.4320   49.1090 H   0  0  0  0  0  0  0  0  0  0  0  0
   37.0640   29.7080   47.0070 H   0  0  0  0  0  0  0  0  0  0  0  0
   37.7900   31.5030   48.0070 C   0  0  0  0  0  0  0  0  0  0  0  0
   38.4110   32.0920   46.8910 C   0  0  0  0  0  0  0  0  0  0  0  0
   39.1240   33.1560   47.3460 N   0  0  0  0  0  0  0  0  0  0  0  0
   38.9580   33.2320   48.6960 C   0  0  0  0  0  0  0  0  0  0  0  0
   38.1430   32.2220   49.1020 N   0  0  0  0  0  0  0  0  0  0  0  0
   38.3700   31.8100   45.8690 H   0  0  0  0  0  0  0  0  0  0  0  0
   39.7170   33.8450   46.8470 H   0  0  0  0  0  0  0  0  0  0  0  0
   39.5250   34.2140   49.6730 C   0  0  0  0  0  0  0  0  0  0  0  0
   39.3810   33.7950   50.6910 H   0  0  0  0  0  0  0  0  0  0  0  0
  1  9  1  0  0  0  0
  1  5  2  0  0  0  0
  2  3  2  0  0  0  0
  2  1  1  0  0  0  0
  3  4  1  0  0  0  0
  4  5  1  0  0  0  0
  4 17  1  0  0  0  0
  6  2  1  0  0  0  0
  7  3  1  0  0  0  0
  8 13  1  0  0  0  0
  8 14  1  0  0  0  0
  9  8  2  0  0  0  0
 10 11  2  0  0  0  0
 10  9  1  0  0  0  0
 11 12  1  0  0  0  0
 12 16  1  0  0  0  0
 12 13  2  0  0  0  0
 15 10  1  0  0  0  0
 17 20  1  1  0  0  0
 17 18  1  0  0  0  0
 18 21  1  0  0  0  0
 19 23  1  6  0  0  0
 19 24  1  0  0  0  0
 19 17  1  0  0  0  0
 19 18  1  0  0  0  0
 22 18  1  0  0  0  0
 24 28  1  0  0  0  0
 25 26  1  0  0  0  0
 25 24  2  0  0  0  0
 26 27  1  0  0  0  0
 27 28  2  0  0  0  0
 27 31  1  0  0  0  0
 29 25  1  0  0  0  0
 30 26  1  0  0  0  0
 31 32  1  0  0  0  0
M  END
>  <minimizedAffinity>
-5.180861

>  <minimizedRMSD>
1.0984925

$$$$
