
 OpenBabel03272500493D

 32 35  0  0  1  0  0  0  0  0999 V2000
   36.2790   27.7740   32.6920 C   0  0  0  0  0  0  0  0  0  0  0  0
   36.3160   26.5580   32.0400 C   0  0  0  0  0  0  0  0  0  0  0  0
   37.1500   25.6960   32.7720 C   0  0  0  0  0  0  0  0  0  0  0  0
   37.5870   26.4020   33.8310 N   0  0  0  0  0  0  0  0  0  0  0  0
   37.0600   27.5990   33.7480 N   0  0  0  0  0  0  0  0  0  0  0  0
   35.8080   26.2830   31.1260 H   0  0  0  0  0  0  0  0  0  0  0  0
   37.3880   24.6750   32.5310 H   0  0  0  0  0  0  0  0  0  0  0  0
   34.2350   29.2260   32.7320 C   0  0  0  0  0  0  0  0  0  0  0  0
   35.5260   28.9020   32.2340 C   0  0  0  0  0  0  0  0  0  0  0  0
   36.0350   29.7430   31.2640 C   0  0  0  0  0  0  0  0  0  0  0  0
   35.3050   30.8030   30.8470 N   0  0  0  0  0  0  0  0  0  0  0  0
   34.0920   31.0760   31.3400 C   0  0  0  0  0  0  0  0  0  0  0  0
   33.5440   30.2850   32.2940 N   0  0  0  0  0  0  0  0  0  0  0  0
   33.8030   28.5800   33.5010 H   0  0  0  0  0  0  0  0  0  0  0  0
   37.0200   29.5790   30.8160 H   0  0  0  0  0  0  0  0  0  0  0  0
   33.5160   31.9300   30.9980 H   0  0  0  0  0  0  0  0  0  0  0  0
   38.4780   25.9320   34.8800 C   0  0  1  0  0  0  0  0  0  0  0  0
   38.5100   26.7970   36.1860 C   0  0  0  0  0  0  0  0  0  0  0  0
   37.9050   25.4410   36.1460 C   0  0  2  0  0  0  0  0  0  0  0  0
   39.4660   25.5800   34.5390 H   0  0  0  0  0  0  0  0  0  0  0  0
   39.4960   26.8900   36.6790 H   0  0  0  0  0  0  0  0  0  0  0  0
   37.8860   27.6990   36.1510 H   0  0  0  0  0  0  0  0  0  0  0  0
   36.8160   25.3980   36.1940 H   0  0  0  0  0  0  0  0  0  0  0  0
   38.5810   24.3100   36.8660 C   0  0  0  0  0  0  0  0  0  0  0  0
   38.1160   23.7810   38.0820 C   0  0  0  0  0  0  0  0  0  0  0  0
   38.9680   22.7830   38.4360 N   0  0  0  0  0  0  0  0  0  0  0  0
   39.9320   22.6890   37.4780 C   0  0  0  0  0  0  0  0  0  0  0  0
   39.6970   23.6230   36.5180 N   0  0  0  0  0  0  0  0  0  0  0  0
   37.2720   24.0600   38.6620 H   0  0  0  0  0  0  0  0  0  0  0  0
   38.9770   22.1500   39.2580 H   0  0  0  0  0  0  0  0  0  0  0  0
   41.1020   21.7590   37.3900 C   0  0  0  0  0  2  0  0  0  0  0  0
   41.7920   22.1610   36.6180 H   0  0  0  0  0  0  0  0  0  0  0  0
  1  5  2  0  0  0  0
  2  1  1  0  0  0  0
  2  3  2  0  0  0  0
  3  4  1  0  0  0  0
  4 17  1  0  0  0  0
  5  4  1  0  0  0  0
  6  2  1  0  0  0  0
  7  3  1  0  0  0  0
  8 14  1  0  0  0  0
  9  1  1  0  0  0  0
  9  8  2  0  0  0  0
 10  9  1  0  0  0  0
 11 10  2  0  0  0  0
 11 12  1  0  0  0  0
 12 13  2  0  0  0  0
 13  8  1  0  0  0  0
 15 10  1  0  0  0  0
 16 12  1  0  0  0  0
 17 20  1  6  0  0  0
 17 19  1  0  0  0  0
 17 18  1  0  0  0  0
 18 21  1  0  0  0  0
 19 18  1  0  0  0  0
 19 23  1  1  0  0  0
 19 24  1  0  0  0  0
 22 18  1  0  0  0  0
 24 25  2  0  0  0  0
 25 26  1  0  0  0  0
 25 29  1  0  0  0  0
 26 30  1  0  0  0  0
 27 26  1  0  0  0  0
 28 24  1  0  0  0  0
 28 27  2  0  0  0  0
 31 27  1  0  0  0  0
 32 31  1  0  0  0  0
M  END
>  <minimizedAffinity>
-5.70732832

$$$$

 OpenBabel03272500493D

 32 35  0  0  1  0  0  0  0  0999 V2000
   37.6900   27.3340   31.6350 C   0  0  0  0  0  0  0  0  0  0  0  0
   36.7260   26.3620   31.8090 C   0  0  0  0  0  0  0  0  0  0  0  0
   37.0110   25.6740   33.0010 C   0  0  0  0  0  0  0  0  0  0  0  0
   38.1210   26.2410   33.5080 N   0  0  0  0  0  0  0  0  0  0  0  0
   38.4820   27.1970   32.6890 N   0  0  0  0  0  0  0  0  0  0  0  0
   35.8890   26.1400   31.1630 H   0  0  0  0  0  0  0  0  0  0  0  0
   36.4500   24.8580   33.4210 H   0  0  0  0  0  0  0  0  0  0  0  0
   38.5450   28.0260   29.3820 C   0  0  0  0  0  0  0  0  0  0  0  0
   37.7230   28.2350   30.5230 C   0  0  0  0  0  0  0  0  0  0  0  0
   36.9400   29.3720   30.5130 C   0  0  0  0  0  0  0  0  0  0  0  0
   36.9890   30.2090   29.4490 N   0  0  0  0  0  0  0  0  0  0  0  0
   37.7760   29.9780   28.3920 C   0  0  0  0  0  0  0  0  0  0  0  0
   38.5650   28.8770   28.3500 N   0  0  0  0  0  0  0  0  0  0  0  0
   39.1770   27.1350   29.3590 H   0  0  0  0  0  0  0  0  0  0  0  0
   36.2750   29.6230   31.3430 H   0  0  0  0  0  0  0  0  0  0  0  0
   37.8060   30.6570   27.5450 H   0  0  0  0  0  0  0  0  0  0  0  0
   38.8010   25.8680   34.7380 C   0  0  1  0  0  0  0  0  0  0  0  0
   38.3740   26.6600   36.0210 C   0  0  0  0  0  0  0  0  0  0  0  0
   38.0330   25.2290   35.8210 C   0  0  2  0  0  0  0  0  0  0  0  0
   39.8870   25.6970   34.6460 H   0  0  0  0  0  0  0  0  0  0  0  0
   39.1830   26.8850   36.7410 H   0  0  0  0  0  0  0  0  0  0  0  0
   37.6340   27.4510   35.8420 H   0  0  0  0  0  0  0  0  0  0  0  0
   36.9870   25.0090   35.6010 H   0  0  0  0  0  0  0  0  0  0  0  0
   38.6960   24.1860   36.6740 C   0  0  0  0  0  0  0  0  0  0  0  0
   38.2000   23.7810   37.9250 C   0  0  0  0  0  0  0  0  0  0  0  0
   39.0490   22.8350   38.4050 N   0  0  0  0  0  0  0  0  0  0  0  0
   40.0420   22.6530   37.4900 C   0  0  0  0  0  0  0  0  0  0  0  0
   39.8280   23.4790   36.4310 N   0  0  0  0  0  0  0  0  0  0  0  0
   37.3370   24.1090   38.4480 H   0  0  0  0  0  0  0  0  0  0  0  0
   39.0390   22.2900   39.2880 H   0  0  0  0  0  0  0  0  0  0  0  0
   41.2210   21.7320   37.5320 C   0  0  0  0  0  2  0  0  0  0  0  0
   41.9310   22.0590   36.7430 H   0  0  0  0  0  0  0  0  0  0  0  0
  1  2  1  0  0  0  0
  1  5  2  0  0  0  0
  2  3  2  0  0  0  0
  3  7  1  0  0  0  0
  3  4  1  0  0  0  0
  4 17  1  0  0  0  0
  5  4  1  0  0  0  0
  6  2  1  0  0  0  0
  8  9  1  0  0  0  0
  9  1  1  0  0  0  0
 10  9  2  0  0  0  0
 10 15  1  0  0  0  0
 11 10  1  0  0  0  0
 12 11  2  0  0  0  0
 13 12  1  0  0  0  0
 13  8  2  0  0  0  0
 14  8  1  0  0  0  0
 16 12  1  0  0  0  0
 17 20  1  6  0  0  0
 17 19  1  0  0  0  0
 17 18  1  0  0  0  0
 18 21  1  0  0  0  0
 19 23  1  6  0  0  0
 19 18  1  0  0  0  0
 19 24  1  0  0  0  0
 22 18  1  0  0  0  0
 24 25  2  0  0  0  0
 25 26  1  0  0  0  0
 25 29  1  0  0  0  0
 26 30  1  0  0  0  0
 27 31  1  0  0  0  0
 27 26  1  0  0  0  0
 28 24  1  0  0  0  0
 28 27  2  0  0  0  0
 32 31  1  0  0  0  0
M  END
>  <minimizedAffinity>
-5.44318008

$$$$

 OpenBabel03272500493D

 32 35  0  0  1  0  0  0  0  0999 V2000
   37.1160   27.4740   34.4210 C   0  0  0  0  0  0  0  0  0  0  0  0
   37.8260   27.8650   35.5380 C   0  0  0  0  0  0  0  0  0  0  0  0
   38.5300   26.7490   36.0200 C   0  0  0  0  0  0  0  0  0  0  0  0
   38.2320   25.7290   35.1940 N   0  0  0  0  0  0  0  0  0  0  0  0
   37.4110   26.1900   34.2830 N   0  0  0  0  0  0  0  0  0  0  0  0
   37.8580   28.8470   35.9890 H   0  0  0  0  0  0  0  0  0  0  0  0
   39.1780   26.7200   36.8780 H   0  0  0  0  0  0  0  0  0  0  0  0
   36.2660   28.3710   32.2390 C   0  0  0  0  0  0  0  0  0  0  0  0
   36.2780   28.3510   33.6600 C   0  0  0  0  0  0  0  0  0  0  0  0
   35.4270   29.2370   34.2920 C   0  0  0  0  0  0  0  0  0  0  0  0
   34.6450   30.0560   33.5510 N   0  0  0  0  0  0  0  0  0  0  0  0
   34.6600   30.0460   32.2140 C   0  0  0  0  0  0  0  0  0  0  0  0
   35.4760   29.1970   31.5420 N   0  0  0  0  0  0  0  0  0  0  0  0
   36.9280   27.6820   31.7090 H   0  0  0  0  0  0  0  0  0  0  0  0
   35.3630   29.3000   35.3820 H   0  0  0  0  0  0  0  0  0  0  0  0
   34.0280   30.7080   31.6310 H   0  0  0  0  0  0  0  0  0  0  0  0
   38.7250   24.3640   35.2880 C   0  0  1  0  0  0  0  0  0  0  0  0
   39.5590   23.8540   34.0630 C   0  0  0  0  0  0  0  0  0  0  0  0
   40.1760   24.1280   35.3860 C   0  0  2  0  0  0  0  0  0  0  0  0
   38.0090   23.6290   35.6930 H   0  0  0  0  0  0  0  0  0  0  0  0
   39.4140   22.7930   33.7890 H   0  0  0  0  0  0  0  0  0  0  0  0
   39.6420   24.5740   33.2390 H   0  0  0  0  0  0  0  0  0  0  0  0
   40.8030   25.0180   35.4510 H   0  0  0  0  0  0  0  0  0  0  0  0
   40.6770   22.9810   36.2170 C   0  0  0  0  0  0  0  0  0  0  0  0
   40.0950   22.6000   37.4390 C   0  0  0  0  0  0  0  0  0  0  0  0
   40.8050   21.5390   37.9050 N   0  0  0  0  0  0  0  0  0  0  0  0
   41.7950   21.2650   37.0110 C   0  0  0  0  0  0  0  0  0  0  0  0
   41.7190   22.1460   35.9780 N   0  0  0  0  0  0  0  0  0  0  0  0
   39.2640   23.0160   37.9500 H   0  0  0  0  0  0  0  0  0  0  0  0
   40.6990   20.9700   38.7670 H   0  0  0  0  0  0  0  0  0  0  0  0
   42.8480   20.2020   37.0500 C   0  0  0  0  0  2  0  0  0  0  0  0
   43.6180   20.4640   36.2930 H   0  0  0  0  0  0  0  0  0  0  0  0
  1  2  1  0  0  0  0
  2  6  1  0  0  0  0
  2  3  2  0  0  0  0
  3  7  1  0  0  0  0
  4 17  1  0  0  0  0
  4  3  1  0  0  0  0
  5  1  2  0  0  0  0
  5  4  1  0  0  0  0
  8  9  1  0  0  0  0
  9 10  2  0  0  0  0
  9  1  1  0  0  0  0
 10 15  1  0  0  0  0
 11 10  1  0  0  0  0
 12 11  2  0  0  0  0
 13 12  1  0  0  0  0
 13  8  2  0  0  0  0
 14  8  1  0  0  0  0
 16 12  1  0  0  0  0
 17 19  1  0  0  0  0
 17 20  1  1  0  0  0
 18 17  1  0  0  0  0
 18 19  1  0  0  0  0
 19 23  1  1  0  0  0
 19 24  1  0  0  0  0
 21 18  1  0  0  0  0
 22 18  1  0  0  0  0
 24 25  2  0  0  0  0
 25 26  1  0  0  0  0
 25 29  1  0  0  0  0
 26 30  1  0  0  0  0
 27 31  1  0  0  0  0
 27 26  1  0  0  0  0
 28 24  1  0  0  0  0
 28 27  2  0  0  0  0
 32 31  1  0  0  0  0
M  END
>  <minimizedAffinity>
-5.35215616

$$$$

 OpenBabel03272500493D

 32 35  0  0  1  0  0  0  0  0999 V2000
   35.5950   28.9040   33.7500 C   0  0  0  0  0  0  0  0  0  0  0  0
   36.0290   28.6380   32.4670 C   0  0  0  0  0  0  0  0  0  0  0  0
   37.0600   27.6860   32.5430 C   0  0  0  0  0  0  0  0  0  0  0  0
   37.2170   27.4050   33.8500 N   0  0  0  0  0  0  0  0  0  0  0  0
   36.3520   28.1300   34.5140 N   0  0  0  0  0  0  0  0  0  0  0  0
   35.6650   29.0690   31.5440 H   0  0  0  0  0  0  0  0  0  0  0  0
   37.6090   27.2670   31.7190 H   0  0  0  0  0  0  0  0  0  0  0  0
   34.6810   30.8400   35.0550 C   0  0  0  0  0  0  0  0  0  0  0  0
   34.5490   29.8310   34.0630 C   0  0  0  0  0  0  0  0  0  0  0  0
   33.3400   29.7800   33.3990 C   0  0  0  0  0  0  0  0  0  0  0  0
   32.3670   30.6670   33.7130 N   0  0  0  0  0  0  0  0  0  0  0  0
   32.5280   31.6040   34.6530 C   0  0  0  0  0  0  0  0  0  0  0  0
   33.6950   31.6990   35.3360 N   0  0  0  0  0  0  0  0  0  0  0  0
   35.6270   30.9070   35.5980 H   0  0  0  0  0  0  0  0  0  0  0  0
   33.1390   29.0390   32.6200 H   0  0  0  0  0  0  0  0  0  0  0  0
   31.7400   32.3100   34.8960 H   0  0  0  0  0  0  0  0  0  0  0  0
   38.1700   26.4700   34.4270 C   0  0  1  0  0  0  0  0  0  0  0  0
   39.1950   27.0800   35.4420 C   0  0  0  0  0  0  0  0  0  0  0  0
   38.1020   26.1700   35.8680 C   0  0  2  0  0  0  0  0  0  0  0  0
   38.6020   25.7390   33.7230 H   0  0  0  0  0  0  0  0  0  0  0  0
   40.2160   26.6550   35.4110 H   0  0  0  0  0  0  0  0  0  0  0  0
   39.1130   28.1660   35.5740 H   0  0  0  0  0  0  0  0  0  0  0  0
   37.2780   26.6290   36.4150 H   0  0  0  0  0  0  0  0  0  0  0  0
   38.4380   24.7860   36.3450 C   0  0  0  0  0  0  0  0  0  0  0  0
   37.5600   23.9990   37.1110 C   0  0  0  0  0  0  0  0  0  0  0  0
   38.1940   22.8220   37.3600 N   0  0  0  0  0  0  0  0  0  0  0  0
   39.4220   22.8690   36.7740 C   0  0  0  0  0  0  0  0  0  0  0  0
   39.5740   24.0700   36.1540 N   0  0  0  0  0  0  0  0  0  0  0  0
   36.5820   24.2200   37.4580 H   0  0  0  0  0  0  0  0  0  0  0  0
   37.8910   21.9800   37.8860 H   0  0  0  0  0  0  0  0  0  0  0  0
   40.5080   21.8390   36.7500 C   0  0  0  0  0  2  0  0  0  0  0  0
   41.4380   22.3400   36.4090 H   0  0  0  0  0  0  0  0  0  0  0  0
  1  9  1  0  0  0  0
  1  5  2  0  0  0  0
  2  3  2  0  0  0  0
  2  1  1  0  0  0  0
  3  4  1  0  0  0  0
  4 17  1  0  0  0  0
  4  5  1  0  0  0  0
  6  2  1  0  0  0  0
  7  3  1  0  0  0  0
  8 13  1  0  0  0  0
  8 14  1  0  0  0  0
  9  8  2  0  0  0  0
 10 11  2  0  0  0  0
 10  9  1  0  0  0  0
 11 12  1  0  0  0  0
 12 16  1  0  0  0  0
 12 13  2  0  0  0  0
 15 10  1  0  0  0  0
 17 20  1  6  0  0  0
 17 18  1  0  0  0  0
 17 19  1  0  0  0  0
 18 22  1  0  0  0  0
 18 19  1  0  0  0  0
 19 24  1  0  0  0  0
 19 23  1  1  0  0  0
 21 18  1  0  0  0  0
 24 25  2  0  0  0  0
 25 26  1  0  0  0  0
 25 29  1  0  0  0  0
 26 30  1  0  0  0  0
 27 26  1  0  0  0  0
 28 24  1  0  0  0  0
 28 27  2  0  0  0  0
 31 27  1  0  0  0  0
 32 31  1  0  0  0  0
M  END
>  <minimizedAffinity>
-5.24552011

$$$$

 OpenBabel03272500493D

 32 35  0  0  1  0  0  0  0  0999 V2000
   35.8670   29.1860   34.2620 C   0  0  0  0  0  0  0  0  0  0  0  0
   35.7230   28.8550   32.9300 C   0  0  0  0  0  0  0  0  0  0  0  0
   36.4460   27.6740   32.6920 C   0  0  0  0  0  0  0  0  0  0  0  0
   37.0000   27.3270   33.8690 N   0  0  0  0  0  0  0  0  0  0  0  0
   36.6400   28.2270   34.7510 N   0  0  0  0  0  0  0  0  0  0  0  0
   35.1610   29.3880   32.1750 H   0  0  0  0  0  0  0  0  0  0  0  0
   36.5360   27.1540   31.7560 H   0  0  0  0  0  0  0  0  0  0  0  0
   33.9160   30.7150   34.6390 C   0  0  0  0  0  0  0  0  0  0  0  0
   35.2660   30.3350   34.8690 C   0  0  0  0  0  0  0  0  0  0  0  0
   35.9930   31.1430   35.7220 C   0  0  0  0  0  0  0  0  0  0  0  0
   35.4030   32.2240   36.2830 N   0  0  0  0  0  0  0  0  0  0  0  0
   34.1280   32.5500   36.0440 C   0  0  0  0  0  0  0  0  0  0  0  0
   33.3690   31.7930   35.2140 N   0  0  0  0  0  0  0  0  0  0  0  0
   33.3140   30.0970   33.9690 H   0  0  0  0  0  0  0  0  0  0  0  0
   37.0400   30.9360   35.9620 H   0  0  0  0  0  0  0  0  0  0  0  0
   33.6660   33.4200   36.5000 H   0  0  0  0  0  0  0  0  0  0  0  0
   37.8410   26.1700   34.1250 C   0  0  1  0  0  0  0  0  0  0  0  0
   39.3830   26.4450   34.1790 C   0  0  0  0  0  0  0  0  0  0  0  0
   38.5960   26.0920   35.3880 C   0  0  2  0  0  0  0  0  0  0  0  0
   37.5580   25.2510   33.5840 H   0  0  0  0  0  0  0  0  0  0  0  0
   40.0290   25.6540   33.7550 H   0  0  0  0  0  0  0  0  0  0  0  0
   39.6670   27.4840   33.9700 H   0  0  0  0  0  0  0  0  0  0  0  0
   38.4200   26.8990   36.1010 H   0  0  0  0  0  0  0  0  0  0  0  0
   38.8020   24.7540   36.0380 C   0  0  0  0  0  0  0  0  0  0  0  0
   37.8110   24.0980   36.7880 C   0  0  0  0  0  0  0  0  0  0  0  0
   38.3470   22.9270   37.2200 N   0  0  0  0  0  0  0  0  0  0  0  0
   39.6260   22.8500   36.7600 C   0  0  0  0  0  0  0  0  0  0  0  0
   39.9070   23.9670   36.0370 N   0  0  0  0  0  0  0  0  0  0  0  0
   36.8190   24.4030   37.0090 H   0  0  0  0  0  0  0  0  0  0  0  0
   37.9460   22.1630   37.7970 H   0  0  0  0  0  0  0  0  0  0  0  0
   40.6470   21.7710   36.9530 C   0  0  0  0  0  2  0  0  0  0  0  0
   41.6340   22.1870   36.6580 H   0  0  0  0  0  0  0  0  0  0  0  0
  1  5  2  0  0  0  0
  1  9  1  0  0  0  0
  2  1  1  0  0  0  0
  3  2  2  0  0  0  0
  3  4  1  0  0  0  0
  4 17  1  0  0  0  0
  4  5  1  0  0  0  0
  6  2  1  0  0  0  0
  7  3  1  0  0  0  0
  8  9  2  0  0  0  0
  8 13  1  0  0  0  0
  9 10  1  0  0  0  0
 10 15  1  0  0  0  0
 10 11  2  0  0  0  0
 12 11  1  0  0  0  0
 12 16  1  0  0  0  0
 13 12  2  0  0  0  0
 14  8  1  0  0  0  0
 17 20  1  6  0  0  0
 17 18  1  0  0  0  0
 17 19  1  0  0  0  0
 18 19  1  0  0  0  0
 19 24  1  0  0  0  0
 19 23  1  1  0  0  0
 21 18  1  0  0  0  0
 22 18  1  0  0  0  0
 24 25  2  0  0  0  0
 25 29  1  0  0  0  0
 25 26  1  0  0  0  0
 26 30  1  0  0  0  0
 27 31  1  0  0  0  0
 27 26  1  0  0  0  0
 28 24  1  0  0  0  0
 28 27  2  0  0  0  0
 32 31  1  0  0  0  0
M  END
>  <minimizedAffinity>
-5.15062189

$$$$

 OpenBabel03272500493D

 32 35  0  0  1  0  0  0  0  0999 V2000
   39.8740   23.1160   36.6180 C   0  0  0  0  0  0  0  0  0  0  0  0
   39.0940   23.1550   37.7560 C   0  0  0  0  0  0  0  0  0  0  0  0
   38.1630   24.1970   37.6120 C   0  0  0  0  0  0  0  0  0  0  0  0
   38.3990   24.7510   36.4090 N   0  0  0  0  0  0  0  0  0  0  0  0
   39.3960   24.0970   35.8650 N   0  0  0  0  0  0  0  0  0  0  0  0
   39.1620   22.5140   38.6240 H   0  0  0  0  0  0  0  0  0  0  0  0
   37.4110   24.4890   38.3240 H   0  0  0  0  0  0  0  0  0  0  0  0
   41.4620   21.8800   35.1220 C   0  0  0  0  0  0  0  0  0  0  0  0
   40.9350   22.1780   36.4080 C   0  0  0  0  0  0  0  0  0  0  0  0
   41.5020   21.5060   37.4720 C   0  0  0  0  0  0  0  0  0  0  0  0
   42.5040   20.6240   37.2490 N   0  0  0  0  0  0  0  0  0  0  0  0
   42.9750   20.3700   36.0230 C   0  0  0  0  0  0  0  0  0  0  0  0
   42.4540   21.0010   34.9420 N   0  0  0  0  0  0  0  0  0  0  0  0
   41.0340   22.3960   34.2580 H   0  0  0  0  0  0  0  0  0  0  0  0
   41.1670   21.6640   38.5010 H   0  0  0  0  0  0  0  0  0  0  0  0
   43.7790   19.6600   35.8560 H   0  0  0  0  0  0  0  0  0  0  0  0
   37.6850   25.8680   35.8130 C   0  0  1  0  0  0  0  0  0  0  0  0
   38.4430   27.2400   35.8100 C   0  0  0  0  0  0  0  0  0  0  0  0
   38.1950   26.4670   34.5660 C   0  0  2  0  0  0  0  0  0  0  0  0
   36.6140   25.9370   36.0690 H   0  0  0  0  0  0  0  0  0  0  0  0
   37.8180   28.1370   35.9740 H   0  0  0  0  0  0  0  0  0  0  0  0
   39.4220   27.2190   36.3050 H   0  0  0  0  0  0  0  0  0  0  0  0
   39.0630   25.9790   34.1210 H   0  0  0  0  0  0  0  0  0  0  0  0
   37.2190   26.9940   33.5530 C   0  0  0  0  0  0  0  0  0  0  0  0
   36.7840   26.2520   32.4420 C   0  0  0  0  0  0  0  0  0  0  0  0
   35.9170   27.0380   31.7510 N   0  0  0  0  0  0  0  0  0  0  0  0
   35.8130   28.2290   32.4030 C   0  0  0  0  0  0  0  0  0  0  0  0
   36.6090   28.2040   33.5060 N   0  0  0  0  0  0  0  0  0  0  0  0
   37.0420   25.2660   32.1440 H   0  0  0  0  0  0  0  0  0  0  0  0
   35.3810   26.8640   30.8800 H   0  0  0  0  0  0  0  0  0  0  0  0
   34.9950   29.4360   32.0620 C   0  0  0  0  0  2  0  0  0  0  0  0
   35.3750   30.2820   32.6730 H   0  0  0  0  0  0  0  0  0  0  0  0
  1  2  1  0  0  0  0
  2  6  1  0  0  0  0
  3  2  2  0  0  0  0
  3  7  1  0  0  0  0
  4  3  1  0  0  0  0
  5  4  1  0  0  0  0
  5  1  2  0  0  0  0
  8  9  1  0  0  0  0
  9  1  1  0  0  0  0
  9 10  2  0  0  0  0
 10 15  1  0  0  0  0
 11 10  1  0  0  0  0
 12 11  2  0  0  0  0
 13  8  2  0  0  0  0
 13 12  1  0  0  0  0
 14  8  1  0  0  0  0
 16 12  1  0  0  0  0
 17 20  1  1  0  0  0
 17  4  1  0  0  0  0
 18 17  1  0  0  0  0
 18 21  1  0  0  0  0
 18 22  1  0  0  0  0
 19 23  1  6  0  0  0
 19 18  1  0  0  0  0
 19 17  1  0  0  0  0
 24 19  1  0  0  0  0
 25 24  2  0  0  0  0
 26 27  1  0  0  0  0
 26 25  1  0  0  0  0
 27 28  2  0  0  0  0
 28 24  1  0  0  0  0
 29 25  1  0  0  0  0
 30 26  1  0  0  0  0
 31 27  1  0  0  0  0
 31 32  1  0  0  0  0
M  END
>  <minimizedAffinity>
-5.09523201

$$$$

 OpenBabel03272500493D

 32 35  0  0  1  0  0  0  0  0999 V2000
   38.1340   23.6750   34.5830 C   0  0  0  0  0  0  0  0  0  0  0  0
   38.2270   22.6120   33.7070 C   0  0  0  0  0  0  0  0  0  0  0  0
   37.8730   23.0710   32.4260 C   0  0  0  0  0  0  0  0  0  0  0  0
   37.5820   24.3780   32.5610 N   0  0  0  0  0  0  0  0  0  0  0  0
   37.7450   24.6880   33.8230 N   0  0  0  0  0  0  0  0  0  0  0  0
   38.5150   21.5950   33.9320 H   0  0  0  0  0  0  0  0  0  0  0  0
   37.8440   22.4890   31.5220 H   0  0  0  0  0  0  0  0  0  0  0  0
   39.5450   22.8820   36.4990 C   0  0  0  0  0  0  0  0  0  0  0  0
   38.4210   23.5830   35.9830 C   0  0  0  0  0  0  0  0  0  0  0  0
   37.5950   24.1830   36.9130 C   0  0  0  0  0  0  0  0  0  0  0  0
   37.8870   24.0820   38.2310 N   0  0  0  0  0  0  0  0  0  0  0  0
   38.9560   23.4150   38.6790 C   0  0  0  0  0  0  0  0  0  0  0  0
   39.8000   22.8050   37.8100 N   0  0  0  0  0  0  0  0  0  0  0  0
   40.2180   22.3960   35.7890 H   0  0  0  0  0  0  0  0  0  0  0  0
   36.7040   24.7450   36.6170 H   0  0  0  0  0  0  0  0  0  0  0  0
   39.1790   23.3400   39.7380 H   0  0  0  0  0  0  0  0  0  0  0  0
   37.1630   25.2860   31.5050 C   0  0  1  0  0  0  0  0  0  0  0  0
   35.6330   25.2830   31.1700 C   0  0  0  0  0  0  0  0  0  0  0  0
   36.2970   26.4300   31.8400 C   0  0  2  0  0  0  0  0  0  0  0  0
   37.8260   25.3250   30.6240 H   0  0  0  0  0  0  0  0  0  0  0  0
   35.3720   25.4110   30.1030 H   0  0  0  0  0  0  0  0  0  0  0  0
   35.0430   24.5550   31.7410 H   0  0  0  0  0  0  0  0  0  0  0  0
   36.0720   26.5660   32.8990 H   0  0  0  0  0  0  0  0  0  0  0  0
   36.4680   27.7220   31.0950 C   0  0  0  0  0  0  0  0  0  0  0  0
   35.8380   28.9210   31.4720 C   0  0  0  0  0  0  0  0  0  0  0  0
   36.2160   29.8700   30.5760 N   0  0  0  0  0  0  0  0  0  0  0  0
   37.0510   29.2900   29.6700 C   0  0  0  0  0  0  0  0  0  0  0  0
   37.2060   27.9760   29.9850 N   0  0  0  0  0  0  0  0  0  0  0  0
   35.1850   29.1140   32.2860 H   0  0  0  0  0  0  0  0  0  0  0  0
   35.9740   30.8760   30.5020 H   0  0  0  0  0  0  0  0  0  0  0  0
   37.7420   29.8920   28.4860 C   0  0  0  0  0  2  0  0  0  0  0  0
   38.1120   29.0570   27.8540 H   0  0  0  0  0  0  0  0  0  0  0  0
  1  9  1  0  0  0  0
  2  6  1  0  0  0  0
  2  1  1  0  0  0  0
  3  4  1  0  0  0  0
  3  2  2  0  0  0  0
  4  5  1  0  0  0  0
  5  1  2  0  0  0  0
  7  3  1  0  0  0  0
  8 13  1  0  0  0  0
  9  8  2  0  0  0  0
  9 10  1  0  0  0  0
 10 11  2  0  0  0  0
 11 12  1  0  0  0  0
 12 16  1  0  0  0  0
 13 12  2  0  0  0  0
 14  8  1  0  0  0  0
 15 10  1  0  0  0  0
 17 20  1  6  0  0  0
 17 19  1  0  0  0  0
 17  4  1  0  0  0  0
 18 17  1  0  0  0  0
 18 22  1  0  0  0  0
 18 19  1  0  0  0  0
 19 23  1  1  0  0  0
 21 18  1  0  0  0  0
 24 25  2  0  0  0  0
 24 19  1  0  0  0  0
 25 29  1  0  0  0  0
 26 25  1  0  0  0  0
 27 28  2  0  0  0  0
 27 26  1  0  0  0  0
 28 24  1  0  0  0  0
 30 26  1  0  0  0  0
 31 27  1  0  0  0  0
 32 31  1  0  0  0  0
M  END
>  <minimizedAffinity>
-4.87966681

$$$$

 OpenBabel03272500493D

 32 35  0  0  1  0  0  0  0  0999 V2000
   39.4430   24.0860   35.8310 C   0  0  0  0  0  0  0  0  0  0  0  0
   38.5130   24.4170   36.7960 C   0  0  0  0  0  0  0  0  0  0  0  0
   37.5500   25.2530   36.2050 C   0  0  0  0  0  0  0  0  0  0  0  0
   37.9180   25.4020   34.9190 N   0  0  0  0  0  0  0  0  0  0  0  0
   39.0180   24.7120   34.7430 N   0  0  0  0  0  0  0  0  0  0  0  0
   38.4970   24.1070   37.8320 H   0  0  0  0  0  0  0  0  0  0  0  0
   36.6920   25.6840   36.6880 H   0  0  0  0  0  0  0  0  0  0  0  0
   40.5740   22.1970   37.0320 C   0  0  0  0  0  0  0  0  0  0  0  0
   40.5760   23.2440   36.0710 C   0  0  0  0  0  0  0  0  0  0  0  0
   41.7480   23.4200   35.3610 C   0  0  0  0  0  0  0  0  0  0  0  0
   42.8050   22.6110   35.6050 N   0  0  0  0  0  0  0  0  0  0  0  0
   42.7650   21.6350   36.5180 C   0  0  0  0  0  0  0  0  0  0  0  0
   41.6410   21.4180   37.2440 N   0  0  0  0  0  0  0  0  0  0  0  0
   39.6610   22.0320   37.6100 H   0  0  0  0  0  0  0  0  0  0  0  0
   41.8510   24.1980   34.6000 H   0  0  0  0  0  0  0  0  0  0  0  0
   43.6200   20.9930   36.7050 H   0  0  0  0  0  0  0  0  0  0  0  0
   37.2290   26.1840   33.9050 C   0  0  1  0  0  0  0  0  0  0  0  0
   36.9590   27.6840   34.2660 C   0  0  0  0  0  0  0  0  0  0  0  0
   37.9450   27.2810   33.2310 C   0  0  2  0  0  0  0  0  0  0  0  0
   36.3880   25.6740   33.4050 H   0  0  0  0  0  0  0  0  0  0  0  0
   36.0000   28.1020   33.9070 H   0  0  0  0  0  0  0  0  0  0  0  0
   37.2810   27.9750   35.2740 H   0  0  0  0  0  0  0  0  0  0  0  0
   38.9970   27.4000   33.4950 H   0  0  0  0  0  0  0  0  0  0  0  0
   37.6550   27.5660   31.7850 C   0  0  0  0  0  0  0  0  0  0  0  0
   36.4100   27.3160   31.1830 C   0  0  0  0  0  0  0  0  0  0  0  0
   36.5150   27.6900   29.8800 N   0  0  0  0  0  0  0  0  0  0  0  0
   37.7770   28.1560   29.6720 C   0  0  0  0  0  0  0  0  0  0  0  0
   38.4770   28.0810   30.8360 N   0  0  0  0  0  0  0  0  0  0  0  0
   35.5230   26.9160   31.6060 H   0  0  0  0  0  0  0  0  0  0  0  0
   35.8260   27.6660   29.1040 H   0  0  0  0  0  0  0  0  0  0  0  0
   38.4040   28.6870   28.4210 C   0  0  0  0  0  2  0  0  0  0  0  0
   39.5030   28.7160   28.5830 H   0  0  0  0  0  0  0  0  0  0  0  0
  1  9  1  0  0  0  0
  1  2  1  0  0  0  0
  2  6  1  0  0  0  0
  3  7  1  0  0  0  0
  3  2  2  0  0  0  0
  4  3  1  0  0  0  0
  5  4  1  0  0  0  0
  5  1  2  0  0  0  0
  8 13  1  0  0  0  0
  8 14  1  0  0  0  0
  9  8  2  0  0  0  0
 10 11  2  0  0  0  0
 10  9  1  0  0  0  0
 11 12  1  0  0  0  0
 12 16  1  0  0  0  0
 12 13  2  0  0  0  0
 15 10  1  0  0  0  0
 17 20  1  6  0  0  0
 17 18  1  0  0  0  0
 17  4  1  0  0  0  0
 18 22  1  0  0  0  0
 19 23  1  1  0  0  0
 19 17  1  0  0  0  0
 19 18  1  0  0  0  0
 21 18  1  0  0  0  0
 24 19  1  0  0  0  0
 25 29  1  0  0  0  0
 25 24  2  0  0  0  0
 26 25  1  0  0  0  0
 27 26  1  0  0  0  0
 27 28  2  0  0  0  0
 28 24  1  0  0  0  0
 30 26  1  0  0  0  0
 31 32  1  0  0  0  0
 31 27  1  0  0  0  0
M  END
>  <minimizedAffinity>
-4.83949375

$$$$

 OpenBabel03272500493D

 32 35  0  0  1  0  0  0  0  0999 V2000
   35.3910   30.0550   33.9000 C   0  0  0  0  0  0  0  0  0  0  0  0
   35.6410   30.6760   32.6930 C   0  0  0  0  0  0  0  0  0  0  0  0
   36.2240   29.7340   31.8290 C   0  0  0  0  0  0  0  0  0  0  0  0
   36.3090   28.5850   32.5260 N   0  0  0  0  0  0  0  0  0  0  0  0
   35.8170   28.8130   33.7190 N   0  0  0  0  0  0  0  0  0  0  0  0
   35.4380   31.7040   32.4260 H   0  0  0  0  0  0  0  0  0  0  0  0
   36.5370   29.9010   30.8140 H   0  0  0  0  0  0  0  0  0  0  0  0
   35.5480   31.4820   35.9550 C   0  0  0  0  0  0  0  0  0  0  0  0
   34.7990   30.7090   35.0270 C   0  0  0  0  0  0  0  0  0  0  0  0
   33.4420   30.6130   35.2660 C   0  0  0  0  0  0  0  0  0  0  0  0
   32.9050   31.2400   36.3390 N   0  0  0  0  0  0  0  0  0  0  0  0
   33.6430   31.9600   37.1910 C   0  0  0  0  0  0  0  0  0  0  0  0
   34.9800   32.0880   37.0050 N   0  0  0  0  0  0  0  0  0  0  0  0
   36.6240   31.5790   35.7940 H   0  0  0  0  0  0  0  0  0  0  0  0
   32.7790   30.0400   34.6120 H   0  0  0  0  0  0  0  0  0  0  0  0
   33.2010   32.4590   38.0480 H   0  0  0  0  0  0  0  0  0  0  0  0
   36.8450   27.3200   32.0500 C   0  0  1  0  0  0  0  0  0  0  0  0
   38.3820   27.1060   32.2680 C   0  0  0  0  0  0  0  0  0  0  0  0
   37.3590   26.3430   33.0270 C   0  0  2  0  0  0  0  0  0  0  0  0
   36.4700   26.9860   31.0690 H   0  0  0  0  0  0  0  0  0  0  0  0
   38.9120   26.5650   31.4620 H   0  0  0  0  0  0  0  0  0  0  0  0
   38.9010   27.9620   32.7170 H   0  0  0  0  0  0  0  0  0  0  0  0
   37.2410   26.6090   34.0780 H   0  0  0  0  0  0  0  0  0  0  0  0
   37.1820   24.8760   32.7580 C   0  0  0  0  0  0  0  0  0  0  0  0
   37.9390   23.8780   33.3950 C   0  0  0  0  0  0  0  0  0  0  0  0
   37.5140   22.6820   32.9080 N   0  0  0  0  0  0  0  0  0  0  0  0
   36.5280   22.9210   32.0000 C   0  0  0  0  0  0  0  0  0  0  0  0
   36.3240   24.2620   31.9060 N   0  0  0  0  0  0  0  0  0  0  0  0
   38.7060   23.9720   34.1230 H   0  0  0  0  0  0  0  0  0  0  0  0
   37.8140   21.7120   33.1190 H   0  0  0  0  0  0  0  0  0  0  0  0
   35.7320   21.9540   31.1800 C   0  0  0  0  0  2  0  0  0  0  0  0
   35.2230   22.5330   30.3790 H   0  0  0  0  0  0  0  0  0  0  0  0
  1  9  1  0  0  0  0
  2  1  1  0  0  0  0
  3  4  1  0  0  0  0
  3  2  2  0  0  0  0
  4  5  1  0  0  0  0
  5  1  2  0  0  0  0
  6  2  1  0  0  0  0
  7  3  1  0  0  0  0
  8 13  1  0  0  0  0
  9 10  1  0  0  0  0
  9  8  2  0  0  0  0
 10 11  2  0  0  0  0
 11 12  1  0  0  0  0
 12 16  1  0  0  0  0
 13 12  2  0  0  0  0
 14  8  1  0  0  0  0
 15 10  1  0  0  0  0
 17 20  1  6  0  0  0
 17 18  1  0  0  0  0
 17  4  1  0  0  0  0
 17 19  1  0  0  0  0
 18 22  1  0  0  0  0
 18 19  1  0  0  0  0
 19 23  1  1  0  0  0
 21 18  1  0  0  0  0
 24 19  1  0  0  0  0
 24 25  2  0  0  0  0
 25 29  1  0  0  0  0
 26 30  1  0  0  0  0
 26 25  1  0  0  0  0
 27 26  1  0  0  0  0
 28 27  2  0  0  0  0
 28 24  1  0  0  0  0
 31 27  1  0  0  0  0
 32 31  1  0  0  0  0
M  END
>  <minimizedAffinity>
-4.83421564

$$$$
