
     RDKit          3D

 28 29  0  0  0  0  0  0  0  0999 V2000
   33.7252   28.6153   48.7003 C   0  0  0  0  0  0  0  0  0  0  0  0
   32.8150   27.4665   48.3319 C   0  0  0  0  0  0  0  0  0  0  0  0
   31.3860   27.8625   48.3436 C   0  0  0  0  0  0  0  0  0  0  0  0
   30.6986   27.7195   49.5431 C   0  0  0  0  0  0  0  0  0  0  0  0
   29.3700   28.0628   49.6431 C   0  0  0  0  0  0  0  0  0  0  0  0
   28.7105   28.5406   48.5929 N   0  0  0  0  0  0  0  0  0  0  0  0
   29.3978   28.6757   47.4218 C   0  0  0  0  0  0  0  0  0  0  0  0
   30.6869   28.3506   47.2962 N   0  0  0  0  0  0  0  0  0  0  0  0
   34.6185   28.2106   49.7271 O   0  0  0  0  0  0  0  0  0  0  0  0
   37.2190   30.1975   51.2746 C   0  0  0  0  0  0  0  0  0  0  0  0
   37.9136   30.6320   50.1309 C   0  0  0  0  0  0  0  0  0  0  0  0
   37.4348   30.2082   48.9071 C   0  0  0  0  0  0  0  0  0  0  0  0
   36.3304   29.4049   48.9060 N   0  0  0  0  0  0  0  0  0  0  0  0
   35.6940   29.0099   50.0038 C   0  0  0  0  0  0  0  0  0  0  0  0
   36.1497   29.4165   51.2206 N   0  0  0  0  0  0  0  0  0  0  0  0
   33.0619   29.4167   49.1293 H   0  0  0  0  0  0  0  0  0  0  0  0
   34.2555   29.0482   47.8289 H   0  0  0  0  0  0  0  0  0  0  0  0
   32.9759   26.5728   48.9447 H   0  0  0  0  0  0  0  0  0  0  0  0
   33.0726   27.1773   47.2765 H   0  0  0  0  0  0  0  0  0  0  0  0
   31.1253   27.3422   50.4664 H   0  0  0  0  0  0  0  0  0  0  0  0
   28.8007   27.9651   50.5623 H   0  0  0  0  0  0  0  0  0  0  0  0
   28.9985   29.0501   46.4812 H   0  0  0  0  0  0  0  0  0  0  0  0
   37.6088   30.5402   52.2325 H   0  0  0  0  0  0  0  0  0  0  0  0
   38.7866   31.2695   50.1738 H   0  0  0  0  0  0  0  0  0  0  0  0
   38.1433   30.6481   47.6897 C   0  0  0  0  0  0  0  0  0  0  0  0
   39.1314   30.1606   47.5704 H   0  0  0  0  0  0  0  0  0  0  0  0
   37.5205   30.3135   46.8158 H   0  0  0  0  0  0  0  0  0  0  0  0
   38.2480   31.7421   47.6317 H   0  0  0  0  0  0  0  0  0  0  0  0
  1  9  1  0
  2  1  1  0
  3  2  1  0
  3  4  2  0
  4  5  1  0
  6  5  2  0
  7  6  1  0
  8  7  2  0
  8  3  1  0
  9 14  1  0
 11 10  2  0
 12 11  1  0
 13 12  2  0
 13 14  1  0
 14 15  2  0
 15 10  1  0
  1 16  1  0
  1 17  1  0
  2 18  1  0
  2 19  1  0
  4 20  1  0
  5 21  1  0
  7 22  1  0
 10 23  1  0
 11 24  1  0
 25 26  1  0
 25 27  1  0
 25 28  1  0
 12 25  1  0
M  ISO  8  16   8  17   8  18   8  19   8  20  14  21  14  22  14  23  14
M  ISO  2  24  14  26   8
M  END
>  <DihAtoms>  (1) 
10,11,24,25

>  <DihDeg>  (1) 
-168.75048948745967

$$$$
