REMARK  Name = 
REMARK  2 active torsions:
REMARK  status: ('A' for Active; 'I' for Inactive)
REMARK    1  A    between atoms: C_5  and  C_9
REMARK    2  A    between atoms: C_11  and  C_20
REMARK                            x       y       z     vdW  Elec       q    Type
REMARK                         _______ _______ _______ _____ _____    ______ ____
ROOT
ATOM      1 BR   UNL     1      37.267  29.356  51.051  0.00  0.00    +0.000 Br
ATOM      2  C   UNL     1      35.959  29.315  49.670  0.00  0.00    +0.000 A 
ATOM      3  C   UNL     1      36.006  30.216  48.615  0.00  0.00    +0.000 A 
ATOM      4  C   UNL     1      35.020  30.126  47.646  0.00  0.00    +0.000 A 
ATOM      5  C   UNL     1      34.004  29.185  47.689  0.00  0.00    +0.000 A 
ATOM      6  C   UNL     1      33.988  28.310  48.746  0.00  0.00    +0.000 A 
ATOM      7  C   UNL     1      34.971  28.380  49.736  0.00  0.00    +0.000 A 
ATOM      8  H   UNL     1      35.090  30.846  46.838  0.00  0.00    +0.000 HD
ATOM      9  H   UNL     1      33.186  27.569  48.778  0.00  0.00    +0.000 HD
ATOM     10  H   UNL     1      34.861  27.641  50.524  0.00  0.00    +0.000 HD
ENDROOT
BRANCH   3  15
ATOM     11  C   UNL     1      37.981  33.164  49.434  0.00  0.00    +0.000 A 
ATOM     12  C   UNL     1      39.015  33.161  48.465  0.00  0.00    +0.000 A 
ATOM     13  C   UNL     1      39.010  32.130  47.539  0.00  0.00    +0.000 A 
ATOM     14  N   UNL     1      38.026  31.177  47.596  0.00  0.00    +0.000 NA
ATOM     15  C   UNL     1      37.056  31.215  48.537  0.00  0.00    +0.000 A 
ATOM     16  N   UNL     1      37.036  32.216  49.460  0.00  0.00    +0.000 NA
ATOM     17  H   UNL     1      37.897  33.938  50.211  0.00  0.00    +0.000 HD
ATOM     18  H   UNL     1      39.747  33.957  48.500  0.00  0.00    +0.000 HD
ATOM     19  H   UNL     1      39.790  32.107  46.789  0.00  0.00    +0.000 HD
ENDBRANCH   3  15
BRANCH   5  20
ATOM     20  C   UNL     1      33.028  29.212  46.587  0.00  0.00    +0.000 C 
ATOM     21  H   UNL     1      33.577  29.385  45.646  0.00  0.00    +0.000 HD
ENDBRANCH   5  20
TORSDOF 2
