
 OpenBabel03272506463D

 35 37  0  0  1  0  0  0  0  0999 V2000
   32.1560   28.5290   47.4300 C   0  0  2  0  0  0  0  0  0  0  0  0
   33.4050   28.3420   48.2400 C   0  0  1  0  0  0  0  0  0  0  0  0
   33.7840   27.0380   48.1320 O   0  0  0  0  0  0  0  0  0  0  0  0
   33.0750   26.4390   47.0960 C   0  0  0  0  0  0  0  0  0  0  0  0
   32.4690   27.5390   46.2640 C   0  0  1  0  0  0  0  0  0  0  0  0
   31.2410   28.1970   47.9110 H   0  0  0  0  0  0  0  0  0  0  0  0
   33.2350   28.6550   49.2990 H   0  0  0  0  0  0  0  0  0  0  0  0
   33.8660   25.9780   46.4300 H   0  0  0  0  0  0  0  0  0  0  0  0
   32.3980   25.7060   47.5010 H   0  0  0  0  0  0  0  0  0  0  0  0
   33.1800   28.0420   45.6110 H   0  0  0  0  0  0  0  0  0  0  0  0
   32.0920   29.8380   46.9090 O   0  0  0  0  0  0  0  0  0  0  0  0
   32.5890   29.8860   46.0580 H   0  0  0  0  0  0  0  0  0  0  0  0
   34.7150   29.3860   47.4860 S   0  0  0  0  0  0  0  0  0  0  0  0
   37.1190   29.2910   50.6280 C   0  0  0  0  0  0  0  0  0  0  0  0
   37.6250   30.5890   50.7460 C   0  0  0  0  0  0  0  0  0  0  0  0
   37.1950   31.5360   49.8010 C   0  0  0  0  0  0  0  0  0  0  0  0
   36.3220   31.1480   48.8340 N   0  0  0  0  0  0  0  0  0  0  0  0
   35.8620   29.8790   48.7630 C   0  0  0  0  0  0  0  0  0  0  0  0
   36.2530   28.9340   49.6590 N   0  0  0  0  0  0  0  0  0  0  0  0
   37.4050   28.5220   51.3130 H   0  0  0  0  0  0  0  0  0  0  0  0
   38.3180   30.8040   51.5500 H   0  0  0  0  0  0  0  0  0  0  0  0
   37.5720   32.5280   49.8770 H   0  0  0  0  0  0  0  0  0  0  0  0
   31.3150   27.0790   45.6820 O   0  0  0  0  0  0  0  0  0  0  0  0
   29.8260   29.2080   44.2980 Cl  0  0  0  0  0  0  0  0  0  0  0  0
   29.2930   28.1810   45.6090 C   0  0  0  0  0  0  0  0  0  0  0  0
   30.0830   27.2050   46.1700 C   0  0  0  0  0  0  0  0  0  0  0  0
   29.5370   26.4290   47.1970 C   0  0  0  0  0  0  0  0  0  0  0  0
   28.2450   26.6440   47.6260 C   0  0  0  0  0  0  0  0  0  0  0  0
   27.4420   27.6240   47.0670 C   0  0  0  0  0  0  0  0  0  0  0  0
   27.9790   28.3920   46.0520 C   0  0  0  0  0  0  0  0  0  0  0  0
   30.0880   25.6440   47.6860 H   0  0  0  0  0  0  0  0  0  0  0  0
   27.8070   26.0550   48.4160 H   0  0  0  0  0  0  0  0  0  0  0  0
   26.4280   27.8000   47.3970 H   0  0  0  0  0  0  0  0  0  0  0  0
   27.1310   29.4280   45.4600 C   0  0  0  0  0  2  0  0  0  0  0  0
   27.4340   29.6220   44.4060 H   0  0  0  0  0  0  0  0  0  0  0  0
  1  6  1  1  0  0  0
  1  2  1  0  0  0  0
  2  7  1  1  0  0  0
  3  2  1  0  0  0  0
  4  9  1  0  0  0  0
  4  3  1  0  0  0  0
  5 10  1  6  0  0  0
  5  4  1  0  0  0  0
  5  1  1  0  0  0  0
  8  4  1  0  0  0  0
 11  1  1  0  0  0  0
 12 11  1  0  0  0  0
 13  2  1  0  0  0  0
 13 18  1  0  0  0  0
 14 15  1  0  0  0  0
 14 20  1  0  0  0  0
 15 21  1  0  0  0  0
 16 22  1  0  0  0  0
 16 15  2  0  0  0  0
 17 16  1  0  0  0  0
 18 17  2  0  0  0  0
 18 19  1  0  0  0  0
 19 14  2  0  0  0  0
 23 26  1  0  0  0  0
 23  5  1  0  0  0  0
 24 25  1  0  0  0  0
 25 30  2  0  0  0  0
 25 26  1  0  0  0  0
 26 27  2  0  0  0  0
 27 28  1  0  0  0  0
 27 31  1  0  0  0  0
 28 32  1  0  0  0  0
 29 33  1  0  0  0  0
 29 28  2  0  0  0  0
 30 29  1  0  0  0  0
 34 30  1  0  0  0  0
 35 34  1  0  0  0  0
M  END
>  <minimizedAffinity>
-4.66248512

>  <minimizedRMSD>
0.0681852177

$$$$
