
 OpenBabel03272503393D

 22 23  0  0  0  0  0  0  0  0999 V2000
   36.2180   30.5550   49.1030 C   0  0  0  0  0  0  0  0  0  0  0  0
   37.2470   30.9190   48.2390 C   0  0  0  0  0  0  0  0  0  0  0  0
   37.0880   30.8220   46.8670 C   0  0  0  0  0  0  0  0  0  0  0  0
   35.8920   30.3600   46.4260 N   0  0  0  0  0  0  0  0  0  0  0  0
   34.8970   30.0090   47.2830 C   0  0  0  0  0  0  0  0  0  0  0  0
   35.0560   30.1040   48.5920 N   0  0  0  0  0  0  0  0  0  0  0  0
   38.2180   31.2940   48.5700 H   0  0  0  0  0  0  0  0  0  0  0  0
   34.0040   29.6600   46.8230 H   0  0  0  0  0  0  0  0  0  0  0  0
   38.1250   31.1870   45.9390 C   0  0  0  0  0  0  0  0  0  0  0  0
   39.0050   30.3190   45.3570 C   0  0  0  0  0  0  0  0  0  0  0  0
   39.8110   31.1140   44.5480 C   0  0  0  0  0  0  0  0  0  0  0  0
   39.4160   32.4110   44.6510 N   0  0  0  0  0  0  0  0  0  0  0  0
   38.3840   32.4420   45.5060 N   0  0  0  0  0  0  0  0  0  0  0  0
   39.0980   29.2450   45.4680 H   0  0  0  0  0  0  0  0  0  0  0  0
   40.6420   30.8000   43.9090 H   0  0  0  0  0  0  0  0  0  0  0  0
   39.9990   33.5540   43.9660 C   0  0  0  0  0  0  0  0  0  0  0  0
   39.4440   33.8140   43.0330 H   0  0  0  0  0  0  0  0  0  0  0  0
   36.5510   30.7160   50.4420 O   0  0  0  0  0  0  0  0  0  0  0  0
   36.7100   29.6650   51.3420 C   0  0  0  0  0  0  0  0  0  0  0  0
   35.4860   29.1210   51.7230 F   0  0  0  0  0  0  0  0  0  0  0  0
   37.3900   30.1130   52.4410 F   0  0  0  0  0  0  0  0  0  0  0  0
   37.4700   28.6820   50.7300 F   0  0  0  0  0  0  0  0  0  0  0  0
  1 18  1  0  0  0  0
  2  7  1  0  0  0  0
  2  1  2  0  0  0  0
  3  2  1  0  0  0  0
  4  3  2  0  0  0  0
  4  5  1  0  0  0  0
  5  6  2  0  0  0  0
  6  1  1  0  0  0  0
  8  5  1  0  0  0  0
  9  3  1  0  0  0  0
 10 14  1  0  0  0  0
 10  9  1  0  0  0  0
 11 12  1  0  0  0  0
 11 10  2  0  0  0  0
 12 13  1  0  0  0  0
 13  9  2  0  0  0  0
 15 11  1  0  0  0  0
 16 12  1  0  0  0  0
 17 16  1  0  0  0  0
 18 19  1  0  0  0  0
 19 20  1  0  0  0  0
 19 21  1  0  0  0  0
 22 19  1  0  0  0  0
M  END
>  <minimizedAffinity>
-5.38123322

>  <minimizedRMSD>
0.976151526

$$$$
