
 OpenBabel03262522583D

 18 19  0  0  0  0  0  0  0  0999 V2000
   37.3220   27.6390   34.9140 C   0  0  0  0  0  0  0  0  0  0  0  0
   37.0440   27.2410   33.5670 C   0  0  0  0  0  0  0  0  0  0  0  0
   37.2820   25.8980   33.1980 C   0  0  0  0  0  0  0  0  0  0  0  0
   37.7650   25.0600   34.1490 N   0  0  0  0  0  0  0  0  0  0  0  0
   38.0200   25.4630   35.4130 C   0  0  0  0  0  0  0  0  0  0  0  0
   37.7970   26.7300   35.7710 N   0  0  0  0  0  0  0  0  0  0  0  0
   37.1610   28.6400   35.2500 H   0  0  0  0  0  0  0  0  0  0  0  0
   36.6600   28.0020   32.8950 H   0  0  0  0  0  0  0  0  0  0  0  0
   37.0710   25.6150   32.1960 H   0  0  0  0  0  0  0  0  0  0  0  0
   38.5400   24.5030   36.3850 C   0  0  0  0  0  0  0  0  0  0  0  0
   38.0140   24.2870   37.6510 C   0  0  0  0  0  0  0  0  0  0  0  0
   38.7770   23.3150   38.2500 C   0  0  0  0  0  0  0  0  0  0  0  0
   39.7520   22.9490   37.3550 N   0  0  0  0  0  0  0  0  0  0  0  0
   39.5760   23.6820   36.2550 N   0  0  0  0  0  0  0  0  0  0  0  0
   37.1570   24.7700   38.1290 H   0  0  0  0  0  0  0  0  0  0  0  0
   38.7020   22.8670   39.2190 H   0  0  0  0  0  0  0  0  0  0  0  0
   40.8140   21.9680   37.4840 C   0  0  0  0  0  2  0  0  0  0  0  0
   40.6380   21.3670   38.3860 H   0  0  0  0  0  0  0  0  0  0  0  0
  1  7  1  0  0  0  0
  1  6  1  0  0  0  0
  2  1  2  0  0  0  0
  3  2  1  0  0  0  0
  3  4  2  0  0  0  0
  4  5  1  0  0  0  0
  5  6  2  0  0  0  0
  5 10  1  0  0  0  0
  8  2  1  0  0  0  0
  9  3  1  0  0  0  0
 10 11  1  0  0  0  0
 11 15  1  0  0  0  0
 11 12  2  0  0  0  0
 12 16  1  0  0  0  0
 13 17  1  0  0  0  0
 13 12  1  0  0  0  0
 14 10  2  0  0  0  0
 14 13  1  0  0  0  0
 17 18  1  0  0  0  0
M  END
>  <minimizedAffinity>
-3.88826632

$$$$

 OpenBabel03262522583D

 18 19  0  0  0  0  0  0  0  0999 V2000
   40.1840   23.0460   36.5820 C   0  0  0  0  0  0  0  0  0  0  0  0
   39.6260   22.8300   37.8840 C   0  0  0  0  0  0  0  0  0  0  0  0
   38.4950   23.5850   38.2660 C   0  0  0  0  0  0  0  0  0  0  0  0
   38.0000   24.4760   37.3700 N   0  0  0  0  0  0  0  0  0  0  0  0
   38.5460   24.6600   36.1480 C   0  0  0  0  0  0  0  0  0  0  0  0
   39.6160   23.9500   35.7780 N   0  0  0  0  0  0  0  0  0  0  0  0
   41.0380   22.5040   36.2390 H   0  0  0  0  0  0  0  0  0  0  0  0
   40.1090   22.0900   38.5130 H   0  0  0  0  0  0  0  0  0  0  0  0
   38.0900   23.4160   39.2330 H   0  0  0  0  0  0  0  0  0  0  0  0
   37.9590   25.6380   35.2360 C   0  0  0  0  0  0  0  0  0  0  0  0
   37.7430   26.9760   35.5330 C   0  0  0  0  0  0  0  0  0  0  0  0
   37.1780   27.5560   34.4240 C   0  0  0  0  0  0  0  0  0  0  0  0
   37.0550   26.5780   33.4690 N   0  0  0  0  0  0  0  0  0  0  0  0
   37.5310   25.4490   33.9920 N   0  0  0  0  0  0  0  0  0  0  0  0
   37.9630   27.5160   36.4580 H   0  0  0  0  0  0  0  0  0  0  0  0
   36.8640   28.5630   34.2470 H   0  0  0  0  0  0  0  0  0  0  0  0
   36.5220   26.6560   32.1200 C   0  0  0  0  0  2  0  0  0  0  0  0
   36.3750   27.7100   31.8540 H   0  0  0  0  0  0  0  0  0  0  0  0
  1  2  1  0  0  0  0
  2  3  2  0  0  0  0
  2  8  1  0  0  0  0
  3  9  1  0  0  0  0
  4  3  1  0  0  0  0
  5  4  2  0  0  0  0
  6  5  1  0  0  0  0
  6  1  2  0  0  0  0
  7  1  1  0  0  0  0
 10 11  1  0  0  0  0
 10  5  1  0  0  0  0
 11 15  1  0  0  0  0
 12 11  2  0  0  0  0
 13 14  1  0  0  0  0
 13 12  1  0  0  0  0
 14 10  2  0  0  0  0
 16 12  1  0  0  0  0
 17 13  1  0  0  0  0
 18 17  1  0  0  0  0
M  END
>  <minimizedAffinity>
-3.72188497

$$$$

 OpenBabel03262522583D

 18 19  0  0  0  0  0  0  0  0999 V2000
   40.0260   22.6280   37.5590 C   0  0  0  0  0  0  0  0  0  0  0  0
   39.2040   23.3390   38.4920 C   0  0  0  0  0  0  0  0  0  0  0  0
   37.8610   23.6040   38.1430 C   0  0  0  0  0  0  0  0  0  0  0  0
   37.4260   23.1640   36.9350 N   0  0  0  0  0  0  0  0  0  0  0  0
   38.2230   22.4950   36.0740 C   0  0  0  0  0  0  0  0  0  0  0  0
   39.4940   22.2410   36.3960 N   0  0  0  0  0  0  0  0  0  0  0  0
   41.0480   22.3990   37.7690 H   0  0  0  0  0  0  0  0  0  0  0  0
   39.6640   23.6400   39.4280 H   0  0  0  0  0  0  0  0  0  0  0  0
   37.2620   24.1310   38.8430 H   0  0  0  0  0  0  0  0  0  0  0  0
   37.6850   22.0520   34.7890 C   0  0  0  0  0  0  0  0  0  0  0  0
   38.2230   22.3660   33.5500 C   0  0  0  0  0  0  0  0  0  0  0  0
   37.4350   21.7660   32.5980 C   0  0  0  0  0  0  0  0  0  0  0  0
   36.4330   21.0980   33.2580 N   0  0  0  0  0  0  0  0  0  0  0  0
   36.6170   21.2940   34.5630 N   0  0  0  0  0  0  0  0  0  0  0  0
   39.1040   22.9710   33.3180 H   0  0  0  0  0  0  0  0  0  0  0  0
   37.5090   21.7630   31.5310 H   0  0  0  0  0  0  0  0  0  0  0  0
   35.3380   20.3050   32.7290 C   0  0  0  0  0  2  0  0  0  0  0  0
   35.5070   20.1310   31.6590 H   0  0  0  0  0  0  0  0  0  0  0  0
  1  7  1  0  0  0  0
  1  2  1  0  0  0  0
  2  8  1  0  0  0  0
  3  2  2  0  0  0  0
  3  9  1  0  0  0  0
  4  3  1  0  0  0  0
  5  6  1  0  0  0  0
  5  4  2  0  0  0  0
  6  1  2  0  0  0  0
 10  5  1  0  0  0  0
 11 10  1  0  0  0  0
 12 13  1  0  0  0  0
 12 11  2  0  0  0  0
 13 14  1  0  0  0  0
 14 10  2  0  0  0  0
 15 11  1  0  0  0  0
 16 12  1  0  0  0  0
 17 13  1  0  0  0  0
 18 17  1  0  0  0  0
M  END
>  <minimizedAffinity>
-3.60860848

$$$$

 OpenBabel03262522583D

 18 19  0  0  0  0  0  0  0  0999 V2000
   38.1230   24.0810   38.4280 C   0  0  0  0  0  0  0  0  0  0  0  0
   39.1920   23.1430   38.2560 C   0  0  0  0  0  0  0  0  0  0  0  0
   39.7720   23.0100   36.9740 C   0  0  0  0  0  0  0  0  0  0  0  0
   39.2780   23.7850   35.9760 N   0  0  0  0  0  0  0  0  0  0  0  0
   38.2680   24.6620   36.1670 C   0  0  0  0  0  0  0  0  0  0  0  0
   37.7140   24.7940   37.3750 N   0  0  0  0  0  0  0  0  0  0  0  0
   37.6470   24.2240   39.3730 H   0  0  0  0  0  0  0  0  0  0  0  0
   39.5010   22.5790   39.1290 H   0  0  0  0  0  0  0  0  0  0  0  0
   40.5640   22.3120   36.8590 H   0  0  0  0  0  0  0  0  0  0  0  0
   37.7880   25.4640   35.0430 C   0  0  0  0  0  0  0  0  0  0  0  0
   37.7980   25.0610   33.7160 C   0  0  0  0  0  0  0  0  0  0  0  0
   37.2680   26.0880   32.9730 C   0  0  0  0  0  0  0  0  0  0  0  0
   36.9430   27.0980   33.8440 N   0  0  0  0  0  0  0  0  0  0  0  0
   37.2700   26.6870   35.0690 N   0  0  0  0  0  0  0  0  0  0  0  0
   38.1470   24.1170   33.2880 H   0  0  0  0  0  0  0  0  0  0  0  0
   37.1020   26.1740   31.9190 H   0  0  0  0  0  0  0  0  0  0  0  0
   36.3560   28.4000   33.5820 C   0  0  0  0  0  2  0  0  0  0  0  0
   36.0030   28.4310   32.5440 H   0  0  0  0  0  0  0  0  0  0  0  0
  1  7  1  0  0  0  0
  2  1  1  0  0  0  0
  2  8  1  0  0  0  0
  3  2  2  0  0  0  0
  4  5  2  0  0  0  0
  4  3  1  0  0  0  0
  5  6  1  0  0  0  0
  6  1  2  0  0  0  0
  9  3  1  0  0  0  0
 10 14  2  0  0  0  0
 10  5  1  0  0  0  0
 11 10  1  0  0  0  0
 12 11  2  0  0  0  0
 12 13  1  0  0  0  0
 13 14  1  0  0  0  0
 15 11  1  0  0  0  0
 16 12  1  0  0  0  0
 17 13  1  0  0  0  0
 18 17  1  0  0  0  0
M  END
>  <minimizedAffinity>
-3.59553719

$$$$

 OpenBabel03262522583D

 18 19  0  0  0  0  0  0  0  0999 V2000
   34.8850   20.4890   32.3320 C   0  0  0  0  0  0  0  0  0  0  0  0
   35.8100   19.7240   31.5500 C   0  0  0  0  0  0  0  0  0  0  0  0
   36.7950   20.4120   30.8070 C   0  0  0  0  0  0  0  0  0  0  0  0
   36.8060   21.7670   30.8780 N   0  0  0  0  0  0  0  0  0  0  0  0
   35.9210   22.4640   31.6230 C   0  0  0  0  0  0  0  0  0  0  0  0
   34.9860   21.8220   32.3290 N   0  0  0  0  0  0  0  0  0  0  0  0
   34.1200   20.0240   32.9130 H   0  0  0  0  0  0  0  0  0  0  0  0
   35.7020   18.6450   31.5720 H   0  0  0  0  0  0  0  0  0  0  0  0
   37.4750   19.8330   30.2320 H   0  0  0  0  0  0  0  0  0  0  0  0
   35.9930   23.9230   31.6510 C   0  0  0  0  0  0  0  0  0  0  0  0
   35.1620   24.7760   30.9410 C   0  0  0  0  0  0  0  0  0  0  0  0
   35.5470   26.0610   31.2320 C   0  0  0  0  0  0  0  0  0  0  0  0
   36.6010   25.9830   32.1090 N   0  0  0  0  0  0  0  0  0  0  0  0
   36.8370   24.6910   32.3330 N   0  0  0  0  0  0  0  0  0  0  0  0
   34.3400   24.5250   30.2650 H   0  0  0  0  0  0  0  0  0  0  0  0
   35.1630   27.0000   30.8930 H   0  0  0  0  0  0  0  0  0  0  0  0
   37.3770   27.0420   32.7290 C   0  0  0  0  0  2  0  0  0  0  0  0
   36.8790   28.0040   32.5480 H   0  0  0  0  0  0  0  0  0  0  0  0
  1  7  1  0  0  0  0
  2  8  1  0  0  0  0
  2  1  2  0  0  0  0
  3  4  2  0  0  0  0
  3  2  1  0  0  0  0
  4  5  1  0  0  0  0
  5 10  1  0  0  0  0
  5  6  2  0  0  0  0
  6  1  1  0  0  0  0
  9  3  1  0  0  0  0
 10 14  2  0  0  0  0
 11 12  2  0  0  0  0
 11 10  1  0  0  0  0
 12 13  1  0  0  0  0
 13 14  1  0  0  0  0
 13 17  1  0  0  0  0
 15 11  1  0  0  0  0
 16 12  1  0  0  0  0
 18 17  1  0  0  0  0
M  END
>  <minimizedAffinity>
-3.52412415

$$$$

 OpenBabel03262522583D

 18 19  0  0  0  0  0  0  0  0999 V2000
   36.7460   26.6190   32.4070 C   0  0  0  0  0  0  0  0  0  0  0  0
   36.3150   27.8900   32.9070 C   0  0  0  0  0  0  0  0  0  0  0  0
   36.5170   28.1800   34.2750 C   0  0  0  0  0  0  0  0  0  0  0  0
   37.1130   27.2290   35.0390 N   0  0  0  0  0  0  0  0  0  0  0  0
   37.5090   26.0380   34.5400 C   0  0  0  0  0  0  0  0  0  0  0  0
   37.3220   25.7560   33.2480 N   0  0  0  0  0  0  0  0  0  0  0  0
   36.6200   26.3460   31.3820 H   0  0  0  0  0  0  0  0  0  0  0  0
   35.8510   28.5690   32.2000 H   0  0  0  0  0  0  0  0  0  0  0  0
   36.1940   29.1260   34.6340 H   0  0  0  0  0  0  0  0  0  0  0  0
   38.1440   25.0620   35.4240 C   0  0  0  0  0  0  0  0  0  0  0  0
   39.1630   24.1970   35.0530 C   0  0  0  0  0  0  0  0  0  0  0  0
   39.4840   23.4460   36.1570 C   0  0  0  0  0  0  0  0  0  0  0  0
   38.6670   23.8550   37.1820 N   0  0  0  0  0  0  0  0  0  0  0  0
   37.8820   24.8200   36.7040 N   0  0  0  0  0  0  0  0  0  0  0  0
   39.6540   24.0920   34.0820 H   0  0  0  0  0  0  0  0  0  0  0  0
   40.2120   22.6730   36.2890 H   0  0  0  0  0  0  0  0  0  0  0  0
   38.5920   23.3900   38.5560 C   0  0  0  0  0  2  0  0  0  0  0  0
   39.4530   22.7400   38.7610 H   0  0  0  0  0  0  0  0  0  0  0  0
  1  2  2  0  0  0  0
  1  6  1  0  0  0  0
  2  3  1  0  0  0  0
  3  9  1  0  0  0  0
  3  4  2  0  0  0  0
  5  4  1  0  0  0  0
  5 10  1  0  0  0  0
  6  5  2  0  0  0  0
  7  1  1  0  0  0  0
  8  2  1  0  0  0  0
 10 14  2  0  0  0  0
 11 10  1  0  0  0  0
 11 12  2  0  0  0  0
 12 16  1  0  0  0  0
 12 13  1  0  0  0  0
 13 17  1  0  0  0  0
 14 13  1  0  0  0  0
 15 11  1  0  0  0  0
 17 18  1  0  0  0  0
M  END
>  <minimizedAffinity>
-3.51841331

$$$$

 OpenBabel03262522583D

 18 19  0  0  0  0  0  0  0  0999 V2000
   36.0890   29.7360   31.4430 C   0  0  0  0  0  0  0  0  0  0  0  0
   36.6020   28.4070   31.5970 C   0  0  0  0  0  0  0  0  0  0  0  0
   36.6170   27.8360   32.8890 C   0  0  0  0  0  0  0  0  0  0  0  0
   36.1410   28.5860   33.9150 N   0  0  0  0  0  0  0  0  0  0  0  0
   35.6640   29.8380   33.7410 C   0  0  0  0  0  0  0  0  0  0  0  0
   35.6460   30.3860   32.5230 N   0  0  0  0  0  0  0  0  0  0  0  0
   36.0530   30.2180   30.4910 H   0  0  0  0  0  0  0  0  0  0  0  0
   36.9550   27.9060   30.7020 H   0  0  0  0  0  0  0  0  0  0  0  0
   36.9990   26.8500   32.9900 H   0  0  0  0  0  0  0  0  0  0  0  0
   35.1670   30.5870   34.8940 C   0  0  0  0  0  0  0  0  0  0  0  0
   35.9330   31.4280   35.6870 C   0  0  0  0  0  0  0  0  0  0  0  0
   35.1080   31.9390   36.6590 C   0  0  0  0  0  0  0  0  0  0  0  0
   33.8580   31.4100   36.4530 N   0  0  0  0  0  0  0  0  0  0  0  0
   33.9350   30.6080   35.3910 N   0  0  0  0  0  0  0  0  0  0  0  0
   36.9950   31.6740   35.5990 H   0  0  0  0  0  0  0  0  0  0  0  0
   35.3090   32.6200   37.4590 H   0  0  0  0  0  0  0  0  0  0  0  0
   32.6250   31.6190   37.1910 C   0  0  0  0  0  2  0  0  0  0  0  0
   32.7640   32.4540   37.8890 H   0  0  0  0  0  0  0  0  0  0  0  0
  1  2  2  0  0  0  0
  1  6  1  0  0  0  0
  2  3  1  0  0  0  0
  3  9  1  0  0  0  0
  3  4  2  0  0  0  0
  5  4  1  0  0  0  0
  5 10  1  0  0  0  0
  6  5  2  0  0  0  0
  7  1  1  0  0  0  0
  8  2  1  0  0  0  0
 10 14  2  0  0  0  0
 10 11  1  0  0  0  0
 11 12  2  0  0  0  0
 12 16  1  0  0  0  0
 13 12  1  0  0  0  0
 13 17  1  0  0  0  0
 14 13  1  0  0  0  0
 15 11  1  0  0  0  0
 17 18  1  0  0  0  0
M  END
>  <minimizedAffinity>
-3.42509246

$$$$

 OpenBabel03262522583D

 18 19  0  0  0  0  0  0  0  0999 V2000
   35.4910   20.6990   33.4400 C   0  0  0  0  0  0  0  0  0  0  0  0
   35.6590   21.3530   32.1770 C   0  0  0  0  0  0  0  0  0  0  0  0
   36.6670   22.3350   32.0540 C   0  0  0  0  0  0  0  0  0  0  0  0
   37.4230   22.6020   33.1490 N   0  0  0  0  0  0  0  0  0  0  0  0
   37.2430   21.9700   34.3290 C   0  0  0  0  0  0  0  0  0  0  0  0
   36.2920   21.0400   34.4540 N   0  0  0  0  0  0  0  0  0  0  0  0
   34.7460   19.9490   33.5910 H   0  0  0  0  0  0  0  0  0  0  0  0
   34.9940   21.0550   31.3730 H   0  0  0  0  0  0  0  0  0  0  0  0
   36.7820   22.8120   31.1120 H   0  0  0  0  0  0  0  0  0  0  0  0
   38.0960   22.3100   35.4660 C   0  0  0  0  0  0  0  0  0  0  0  0
   37.7100   23.0930   36.5440 C   0  0  0  0  0  0  0  0  0  0  0  0
   38.7860   23.1780   37.3940 C   0  0  0  0  0  0  0  0  0  0  0  0
   39.8090   22.4540   36.8330 N   0  0  0  0  0  0  0  0  0  0  0  0
   39.3570   21.9530   35.6830 N   0  0  0  0  0  0  0  0  0  0  0  0
   36.7460   23.5740   36.7320 H   0  0  0  0  0  0  0  0  0  0  0  0
   38.8990   23.6840   38.3300 H   0  0  0  0  0  0  0  0  0  0  0  0
   41.1570   22.2190   37.3160 C   0  0  0  0  0  2  0  0  0  0  0  0
   41.2300   22.5650   38.3550 H   0  0  0  0  0  0  0  0  0  0  0  0
  1  7  1  0  0  0  0
  1  6  1  0  0  0  0
  2  1  2  0  0  0  0
  3  2  1  0  0  0  0
  3  4  2  0  0  0  0
  4  5  1  0  0  0  0
  5  6  2  0  0  0  0
  5 10  1  0  0  0  0
  8  2  1  0  0  0  0
  9  3  1  0  0  0  0
 10 14  2  0  0  0  0
 10 11  1  0  0  0  0
 11 15  1  0  0  0  0
 11 12  2  0  0  0  0
 12 16  1  0  0  0  0
 13 17  1  0  0  0  0
 13 12  1  0  0  0  0
 14 13  1  0  0  0  0
 17 18  1  0  0  0  0
M  END
>  <minimizedAffinity>
-3.41884136

$$$$

 OpenBabel03262522583D

 18 19  0  0  0  0  0  0  0  0999 V2000
   35.3540   29.6490   32.2890 C   0  0  0  0  0  0  0  0  0  0  0  0
   35.9830   30.3100   31.1850 C   0  0  0  0  0  0  0  0  0  0  0  0
   36.6240   29.5220   30.2030 C   0  0  0  0  0  0  0  0  0  0  0  0
   36.6050   28.1750   30.3660 N   0  0  0  0  0  0  0  0  0  0  0  0
   36.0040   27.5770   31.4180 C   0  0  0  0  0  0  0  0  0  0  0  0
   35.3960   28.3150   32.3510 N   0  0  0  0  0  0  0  0  0  0  0  0
   34.8550   30.1930   33.0610 H   0  0  0  0  0  0  0  0  0  0  0  0
   35.9320   31.3940   31.1630 H   0  0  0  0  0  0  0  0  0  0  0  0
   37.0860   30.0230   29.3890 H   0  0  0  0  0  0  0  0  0  0  0  0
   36.0250   26.1200   31.5280 C   0  0  0  0  0  0  0  0  0  0  0  0
   35.1350   25.2610   30.8990 C   0  0  0  0  0  0  0  0  0  0  0  0
   35.4840   23.9800   31.2500 C   0  0  0  0  0  0  0  0  0  0  0  0
   36.5720   24.0670   32.0830 N   0  0  0  0  0  0  0  0  0  0  0  0
   36.8630   25.3600   32.2240 N   0  0  0  0  0  0  0  0  0  0  0  0
   34.2990   25.5050   30.2380 H   0  0  0  0  0  0  0  0  0  0  0  0
   35.0530   23.0400   30.9780 H   0  0  0  0  0  0  0  0  0  0  0  0
   37.3310   23.0150   32.7350 C   0  0  0  0  0  2  0  0  0  0  0  0
   37.0290   22.0450   32.3190 H   0  0  0  0  0  0  0  0  0  0  0  0
  1  6  1  0  0  0  0
  1  7  1  0  0  0  0
  2  1  2  0  0  0  0
  3  4  2  0  0  0  0
  3  2  1  0  0  0  0
  4  5  1  0  0  0  0
  5 10  1  0  0  0  0
  5  6  2  0  0  0  0
  8  2  1  0  0  0  0
  9  3  1  0  0  0  0
 10 14  2  0  0  0  0
 11 12  2  0  0  0  0
 11 10  1  0  0  0  0
 12 13  1  0  0  0  0
 13 14  1  0  0  0  0
 13 17  1  0  0  0  0
 15 11  1  0  0  0  0
 16 12  1  0  0  0  0
 18 17  1  0  0  0  0
M  END
>  <minimizedAffinity>
-3.41328263

$$$$
