
     RDKit          3D

 30 32  0  0  0  0  0  0  0  0999 V2000
   33.8405   28.7818   48.2786 C   0  0  0  0  0  0  0  0  0  0  0  0
   34.4361   28.4193   49.4332 C   0  0  0  0  0  0  0  0  0  0  0  0
   35.7114   28.7906   49.8089 C   0  0  0  0  0  0  0  0  0  0  0  0
   36.4592   29.5791   48.9865 C   0  0  0  0  0  0  0  0  0  0  0  0
   35.8492   29.9580   47.7900 C   0  0  0  0  0  0  0  0  0  0  0  0
   34.6063   29.5667   47.4775 N   0  0  0  0  0  0  0  0  0  0  0  0
   31.6333   27.6573   48.6995 C   0  0  0  0  0  0  0  0  0  0  0  0
   32.5171   28.4002   47.8818 C   0  0  0  0  0  0  0  0  0  0  0  0
   32.0344   28.7597   46.6310 C   0  0  0  0  0  0  0  0  0  0  0  0
   30.7774   28.3935   46.2625 N   0  0  0  0  0  0  0  0  0  0  0  0
   29.9770   27.6762   47.1018 C   0  0  0  0  0  0  0  0  0  0  0  0
   30.4028   27.3037   48.3281 N   0  0  0  0  0  0  0  0  0  0  0  0
   37.7570   30.0415   49.2143 O   0  0  0  0  0  0  0  0  0  0  0  0
   38.1608   31.3029   48.7826 C   0  0  0  0  0  0  0  0  0  0  0  0
   37.8761   32.3318   49.6745 C   0  0  0  0  0  0  0  0  0  0  0  0
   38.3348   33.5192   49.1090 C   0  0  0  0  0  0  0  0  0  0  0  0
   38.8673   33.1797   47.9262 N   0  0  0  0  0  0  0  0  0  0  0  0
   38.7664   31.8880   47.7349 N   0  0  0  0  0  0  0  0  0  0  0  0
   33.9144   27.7932   50.1459 H   0  0  0  0  0  0  0  0  0  0  0  0
   36.1831   28.4924   50.7438 H   0  0  0  0  0  0  0  0  0  0  0  0
   36.4081   30.5888   47.0994 H   0  0  0  0  0  0  0  0  0  0  0  0
   31.9762   27.3623   49.6762 H   0  0  0  0  0  0  0  0  0  0  0  0
   32.6918   29.3230   45.9990 H   0  0  0  0  0  0  0  0  0  0  0  0
   29.0334   27.5112   46.5813 H   0  0  0  0  0  0  0  0  0  0  0  0
   37.4009   32.4071   50.6603 H   0  0  0  0  0  0  0  0  0  0  0  0
   38.3446   34.5544   49.4061 H   0  0  0  0  0  0  0  0  0  0  0  0
   39.5066   33.9294   46.8605 C   0  0  0  0  0  0  0  0  0  0  0  0
   39.9996   34.8592   47.2632 H   0  0  0  0  0  0  0  0  0  0  0  0
   40.3424   33.3653   46.3935 H   0  0  0  0  0  0  0  0  0  0  0  0
   38.7839   34.3019   46.0971 H   0  0  0  0  0  0  0  0  0  0  0  0
  1  2  2  0
  2  3  1  0
  4 13  1  0
  4  3  2  0
  5  4  1  0
  6  5  2  0
  6  1  1  0
  8  1  1  0
  8  7  2  0
  9  8  1  0
 10  9  2  0
 10 11  1  0
 11 12  2  0
 12  7  1  0
 14 13  1  0
 14 15  1  0
 16 15  2  0
 17 16  1  0
 18 17  1  0
 18 14  2  0
  2 19  1  0
  3 20  1  0
  5 21  1  0
  7 22  1  0
  9 23  1  0
 11 24  1  0
 15 25  1  0
 16 26  1  0
 27 28  1  0
 27 29  1  0
 27 30  1  0
 17 27  1  0
M  ISO  8  19  14  20  14  21  14  22  14  23  14  24  14  25  14  26  14
M  ISO  1  28   8
M  END
>  <DihAtoms>  (1) 
15,16,26,27

>  <DihDeg>  (1) 
-107.27164529773297

$$$$
