
 OpenBabel03262521563D

 32 33  0  0  1  0  0  0  0  0999 V2000
   35.8820   26.6530   31.5380 C   0  0  1  0  0  0  0  0  0  0  0  0
   37.1980   26.0630   31.9920 C   0  0  2  0  0  0  0  0  0  0  0  0
   38.2710   26.6250   31.1350 C   0  0  0  0  0  0  0  0  0  0  0  0
   37.8010   27.4950   30.1610 O   0  0  0  0  0  0  0  0  0  0  0  0
   37.1180   28.5830   30.7240 C   0  0  0  0  0  0  0  0  0  0  0  0
   36.0290   28.1650   31.6500 C   0  0  2  0  0  0  0  0  0  0  0  0
   35.0710   26.3430   32.2160 H   0  0  0  0  0  0  0  0  0  0  0  0
   37.3510   26.3740   33.0390 H   0  0  0  0  0  0  0  0  0  0  0  0
   39.0320   27.1940   31.7170 H   0  0  0  0  0  0  0  0  0  0  0  0
   38.7680   25.7950   30.5770 H   0  0  0  0  0  0  0  0  0  0  0  0
   36.6430   29.1080   29.8520 H   0  0  0  0  0  0  0  0  0  0  0  0
   37.8930   29.2320   31.1560 H   0  0  0  0  0  0  0  0  0  0  0  0
   35.0610   28.6770   31.4730 H   0  0  0  0  0  0  0  0  0  0  0  0
   35.6350   26.3670   30.1980 O   0  0  0  0  0  0  0  0  0  0  0  0
   34.8170   25.7830   30.2070 H   0  0  0  0  0  0  0  0  0  0  0  0
   37.1730   24.2480   31.9310 S   0  0  0  0  0  0  0  0  0  0  0  0
   38.0100   23.5730   33.3860 C   0  0  0  0  0  0  0  0  0  0  0  0
   37.3240   22.8670   33.9390 H   0  0  0  0  0  0  0  0  0  0  0  0
   38.8230   22.9140   33.0080 H   0  0  0  0  0  0  0  0  0  0  0  0
   38.7400   24.8080   34.4440 S   0  0  0  0  0  0  0  0  0  0  0  0
   38.8670   24.1620   36.0960 C   0  0  0  0  0  0  0  0  0  0  0  0
   37.9420   24.6630   36.9830 C   0  0  0  0  0  0  0  0  0  0  0  0
   37.9680   24.2090   38.3130 C   0  0  0  0  0  0  0  0  0  0  0  0
   38.9180   23.2880   38.6510 N   0  0  0  0  0  0  0  0  0  0  0  0
   39.7990   22.8330   37.7370 C   0  0  0  0  0  0  0  0  0  0  0  0
   39.7730   23.2610   36.4920 N   0  0  0  0  0  0  0  0  0  0  0  0
   37.1850   25.3920   36.7280 H   0  0  0  0  0  0  0  0  0  0  0  0
   37.2600   24.5820   39.0290 H   0  0  0  0  0  0  0  0  0  0  0  0
   40.5390   22.0970   38.0620 H   0  0  0  0  0  0  0  0  0  0  0  0
   36.3720   28.3950   32.9800 O   0  0  0  0  0  0  0  0  0  0  0  0
   35.4620   29.1820   33.6660 C   0  0  0  0  0  2  0  0  0  0  0  0
   34.8180   29.6590   32.8920 H   0  0  0  0  0  0  0  0  0  0  0  0
  1  6  1  0  0  0  0
  1  2  1  0  0  0  0
  1  7  1  1  0  0  0
  2  8  1  1  0  0  0
  3  9  1  0  0  0  0
  3  2  1  0  0  0  0
  4  5  1  0  0  0  0
  4  3  1  0  0  0  0
  5 12  1  0  0  0  0
  5  6  1  0  0  0  0
  6 13  1  6  0  0  0
  6 30  1  0  0  0  0
 10  3  1  0  0  0  0
 11  5  1  0  0  0  0
 14 15  1  0  0  0  0
 14  1  1  0  0  0  0
 16  2  1  0  0  0  0
 16 17  1  0  0  0  0
 17 18  1  0  0  0  0
 17 20  1  0  0  0  0
 19 17  1  0  0  0  0
 20 21  1  0  0  0  0
 21 26  2  0  0  0  0
 21 22  1  0  0  0  0
 22 23  2  0  0  0  0
 23 24  1  0  0  0  0
 23 28  1  0  0  0  0
 25 29  1  0  0  0  0
 25 24  2  0  0  0  0
 26 25  1  0  0  0  0
 27 22  1  0  0  0  0
 30 31  1  0  0  0  0
 32 31  1  0  0  0  0
M  END
>  <minimizedAffinity>
-4.30924654

$$$$

 OpenBabel03262521563D

 32 33  0  0  1  0  0  0  0  0999 V2000
   37.8600   25.4340   31.0370 C   0  0  1  0  0  0  0  0  0  0  0  0
   37.8010   26.1400   32.3740 C   0  0  2  0  0  0  0  0  0  0  0  0
   36.5530   26.9440   32.4110 C   0  0  0  0  0  0  0  0  0  0  0  0
   35.8070   26.8580   31.2440 O   0  0  0  0  0  0  0  0  0  0  0  0
   35.4310   25.5370   30.9640 C   0  0  0  0  0  0  0  0  0  0  0  0
   36.5900   24.6000   30.9370 C   0  0  2  0  0  0  0  0  0  0  0  0
   38.7190   24.7440   31.0090 H   0  0  0  0  0  0  0  0  0  0  0  0
   37.7700   25.3610   33.1530 H   0  0  0  0  0  0  0  0  0  0  0  0
   35.8710   26.6390   33.2370 H   0  0  0  0  0  0  0  0  0  0  0  0
   36.8160   28.0240   32.5180 H   0  0  0  0  0  0  0  0  0  0  0  0
   34.9970   25.5730   29.9290 H   0  0  0  0  0  0  0  0  0  0  0  0
   34.6340   25.2930   31.6800 H   0  0  0  0  0  0  0  0  0  0  0  0
   36.6150   23.9350   30.0500 H   0  0  0  0  0  0  0  0  0  0  0  0
   37.8350   26.3430   29.9840 O   0  0  0  0  0  0  0  0  0  0  0  0
   38.7270   26.2390   29.5340 H   0  0  0  0  0  0  0  0  0  0  0  0
   39.2700   27.1710   32.6510 S   0  0  0  0  0  0  0  0  0  0  0  0
   39.9320   26.8650   34.3070 C   0  0  0  0  0  0  0  0  0  0  0  0
   40.6170   25.9680   34.2940 H   0  0  0  0  0  0  0  0  0  0  0  0
   40.6090   27.7160   34.5410 H   0  0  0  0  0  0  0  0  0  0  0  0
   38.6880   26.7740   35.5810 S   0  0  0  0  0  0  0  0  0  0  0  0
   38.3150   25.0670   35.9130 C   0  0  0  0  0  0  0  0  0  0  0  0
   37.9970   24.7920   37.2230 C   0  0  0  0  0  0  0  0  0  0  0  0
   37.6890   23.4660   37.5780 C   0  0  0  0  0  0  0  0  0  0  0  0
   37.7220   22.5210   36.5930 N   0  0  0  0  0  0  0  0  0  0  0  0
   38.0420   22.8520   35.3250 C   0  0  0  0  0  0  0  0  0  0  0  0
   38.3310   24.0930   34.9960 N   0  0  0  0  0  0  0  0  0  0  0  0
   37.9670   25.5300   38.0110 H   0  0  0  0  0  0  0  0  0  0  0  0
   37.4370   23.2200   38.5920 H   0  0  0  0  0  0  0  0  0  0  0  0
   38.0540   22.0550   34.5760 H   0  0  0  0  0  0  0  0  0  0  0  0
   36.6090   23.7780   32.0610 O   0  0  0  0  0  0  0  0  0  0  0  0
   35.9010   22.5990   31.9060 C   0  0  0  0  0  2  0  0  0  0  0  0
   35.2630   22.7350   31.0020 H   0  0  0  0  0  0  0  0  0  0  0  0
  1  7  1  6  0  0  0
  1  2  1  0  0  0  0
  2  3  1  0  0  0  0
  2 16  1  0  0  0  0
  2  8  1  1  0  0  0
  3 10  1  0  0  0  0
  3  9  1  0  0  0  0
  4  3  1  0  0  0  0
  5  4  1  0  0  0  0
  5 12  1  0  0  0  0
  6 13  1  6  0  0  0
  6  5  1  0  0  0  0
  6  1  1  0  0  0  0
  6 30  1  0  0  0  0
 11  5  1  0  0  0  0
 14  1  1  0  0  0  0
 15 14  1  0  0  0  0
 16 17  1  0  0  0  0
 17 19  1  0  0  0  0
 17 20  1  0  0  0  0
 18 17  1  0  0  0  0
 20 21  1  0  0  0  0
 21 22  1  0  0  0  0
 22 23  2  0  0  0  0
 22 27  1  0  0  0  0
 23 28  1  0  0  0  0
 24 23  1  0  0  0  0
 25 24  2  0  0  0  0
 26 25  1  0  0  0  0
 26 21  2  0  0  0  0
 29 25  1  0  0  0  0
 31 30  1  0  0  0  0
 32 31  1  0  0  0  0
M  END
>  <minimizedAffinity>
-4.17047071

$$$$

 OpenBabel03262521563D

 32 33  0  0  1  0  0  0  0  0999 V2000
   36.3180   28.1680   30.9420 C   0  0  1  0  0  0  0  0  0  0  0  0
   37.5000   27.9780   31.8660 C   0  0  2  0  0  0  0  0  0  0  0  0
   38.6880   27.6690   31.0320 C   0  0  0  0  0  0  0  0  0  0  0  0
   38.4090   27.6140   29.6730 O   0  0  0  0  0  0  0  0  0  0  0  0
   37.8850   28.8260   29.2020 C   0  0  0  0  0  0  0  0  0  0  0  0
   36.7010   29.2860   29.9810 C   0  0  2  0  0  0  0  0  0  0  0  0
   35.4380   28.5020   31.5130 H   0  0  0  0  0  0  0  0  0  0  0  0
   37.6530   28.9300   32.4000 H   0  0  0  0  0  0  0  0  0  0  0  0
   39.5030   28.4200   31.1500 H   0  0  0  0  0  0  0  0  0  0  0  0
   39.0700   26.6550   31.2980 H   0  0  0  0  0  0  0  0  0  0  0  0
   37.5410   28.6050   28.1560 H   0  0  0  0  0  0  0  0  0  0  0  0
   38.7330   29.5250   29.1610 H   0  0  0  0  0  0  0  0  0  0  0  0
   35.8370   29.5920   29.3560 H   0  0  0  0  0  0  0  0  0  0  0  0
   36.0910   27.0300   30.1730 O   0  0  0  0  0  0  0  0  0  0  0  0
   35.1900   26.6970   30.4680 H   0  0  0  0  0  0  0  0  0  0  0  0
   37.1870   26.6770   33.0930 S   0  0  0  0  0  0  0  0  0  0  0  0
   37.0720   27.4060   34.7460 C   0  0  0  0  0  0  0  0  0  0  0  0
   36.8760   28.5150   34.6700 H   0  0  0  0  0  0  0  0  0  0  0  0
   36.1440   27.0010   35.2070 H   0  0  0  0  0  0  0  0  0  0  0  0
   38.4450   27.0100   35.8110 S   0  0  0  0  0  0  0  0  0  0  0  0
   38.6510   25.2450   35.8670 C   0  0  0  0  0  0  0  0  0  0  0  0
   37.7750   24.5890   36.7020 C   0  0  0  0  0  0  0  0  0  0  0  0
   37.8660   23.1900   36.8100 C   0  0  0  0  0  0  0  0  0  0  0  0
   38.8260   22.5570   36.0720 N   0  0  0  0  0  0  0  0  0  0  0  0
   39.6560   23.2540   35.2710 C   0  0  0  0  0  0  0  0  0  0  0  0
   39.5700   24.5640   35.1730 N   0  0  0  0  0  0  0  0  0  0  0  0
   37.0120   25.0780   37.2900 H   0  0  0  0  0  0  0  0  0  0  0  0
   37.1970   22.6500   37.4530 H   0  0  0  0  0  0  0  0  0  0  0  0
   40.4070   22.6970   34.7030 H   0  0  0  0  0  0  0  0  0  0  0  0
   37.0150   30.3690   30.7970 O   0  0  0  0  0  0  0  0  0  0  0  0
   37.4250   31.4950   30.1020 C   0  0  0  0  0  2  0  0  0  0  0  0
   37.6600   31.1530   29.0680 H   0  0  0  0  0  0  0  0  0  0  0  0
  1  7  1  1  0  0  0
  1  2  1  0  0  0  0
  2  8  1  1  0  0  0
  2 16  1  0  0  0  0
  3  9  1  0  0  0  0
  3 10  1  0  0  0  0
  3  2  1  0  0  0  0
  4  3  1  0  0  0  0
  5  4  1  0  0  0  0
  5  6  1  0  0  0  0
  6 13  1  6  0  0  0
  6 30  1  0  0  0  0
  6  1  1  0  0  0  0
 11  5  1  0  0  0  0
 12  5  1  0  0  0  0
 14 15  1  0  0  0  0
 14  1  1  0  0  0  0
 16 17  1  0  0  0  0
 17 19  1  0  0  0  0
 17 20  1  0  0  0  0
 18 17  1  0  0  0  0
 20 21  1  0  0  0  0
 21 22  1  0  0  0  0
 22 23  2  0  0  0  0
 22 27  1  0  0  0  0
 23 28  1  0  0  0  0
 24 23  1  0  0  0  0
 25 24  2  0  0  0  0
 26 25  1  0  0  0  0
 26 21  2  0  0  0  0
 29 25  1  0  0  0  0
 31 30  1  0  0  0  0
 32 31  1  0  0  0  0
M  END
>  <minimizedAffinity>
-4.10239077

$$$$

 OpenBabel03262521563D

 32 33  0  0  1  0  0  0  0  0999 V2000
   37.8960   23.9210   36.5190 C   0  0  1  0  0  0  0  0  0  0  0  0
   38.5380   24.8520   35.5140 C   0  0  2  0  0  0  0  0  0  0  0  0
   39.9750   24.4940   35.4140 C   0  0  0  0  0  0  0  0  0  0  0  0
   40.3450   23.4520   36.2540 O   0  0  0  0  0  0  0  0  0  0  0  0
   39.6150   22.2850   35.9860 C   0  0  0  0  0  0  0  0  0  0  0  0
   38.1410   22.5060   36.0110 C   0  0  2  0  0  0  0  0  0  0  0  0
   36.8060   24.0840   36.5470 H   0  0  0  0  0  0  0  0  0  0  0  0
   38.0390   24.6810   34.5470 H   0  0  0  0  0  0  0  0  0  0  0  0
   40.2680   24.1800   34.3860 H   0  0  0  0  0  0  0  0  0  0  0  0
   40.5940   25.3670   35.7320 H   0  0  0  0  0  0  0  0  0  0  0  0
   39.8700   21.5850   36.8260 H   0  0  0  0  0  0  0  0  0  0  0  0
   40.0230   21.8840   35.0470 H   0  0  0  0  0  0  0  0  0  0  0  0
   37.5810   21.7610   36.6110 H   0  0  0  0  0  0  0  0  0  0  0  0
   38.5110   24.0200   37.7640 O   0  0  0  0  0  0  0  0  0  0  0  0
   37.8000   24.3850   38.3730 H   0  0  0  0  0  0  0  0  0  0  0  0
   38.3120   26.5930   35.9770 S   0  0  0  0  0  0  0  0  0  0  0  0
   37.3620   27.4500   34.6980 C   0  0  0  0  0  0  0  0  0  0  0  0
   36.2630   27.2170   34.8060 H   0  0  0  0  0  0  0  0  0  0  0  0
   37.4280   28.5370   34.9270 H   0  0  0  0  0  0  0  0  0  0  0  0
   37.9720   27.1910   33.0430 S   0  0  0  0  0  0  0  0  0  0  0  0
   36.9420   25.9970   32.2210 C   0  0  0  0  0  0  0  0  0  0  0  0
   35.8560   26.5290   31.5640 C   0  0  0  0  0  0  0  0  0  0  0  0
   34.9850   25.6570   30.8870 C   0  0  0  0  0  0  0  0  0  0  0  0
   35.2700   24.3220   30.9200 N   0  0  0  0  0  0  0  0  0  0  0  0
   36.3500   23.8590   31.5810 C   0  0  0  0  0  0  0  0  0  0  0  0
   37.1630   24.6770   32.2160 N   0  0  0  0  0  0  0  0  0  0  0  0
   35.6200   27.5830   31.5310 H   0  0  0  0  0  0  0  0  0  0  0  0
   34.1290   26.0420   30.3650 H   0  0  0  0  0  0  0  0  0  0  0  0
   36.5300   22.7810   31.5750 H   0  0  0  0  0  0  0  0  0  0  0  0
   37.5990   22.4860   34.7290 O   0  0  0  0  0  0  0  0  0  0  0  0
   38.2330   21.6080   33.8660 C   0  0  0  0  0  2  0  0  0  0  0  0
   39.1990   21.3390   34.3500 H   0  0  0  0  0  0  0  0  0  0  0  0
  1  7  1  1  0  0  0
  1 14  1  0  0  0  0
  2  8  1  6  0  0  0
  2 16  1  0  0  0  0
  2  1  1  0  0  0  0
  3  2  1  0  0  0  0
  3 10  1  0  0  0  0
  3  4  1  0  0  0  0
  5  6  1  0  0  0  0
  5  4  1  0  0  0  0
  5 11  1  0  0  0  0
  6  1  1  0  0  0  0
  6 13  1  1  0  0  0
  9  3  1  0  0  0  0
 12  5  1  0  0  0  0
 14 15  1  0  0  0  0
 17 18  1  0  0  0  0
 17 19  1  0  0  0  0
 17 16  1  0  0  0  0
 20 17  1  0  0  0  0
 21 20  1  0  0  0  0
 22 21  2  0  0  0  0
 23 24  2  0  0  0  0
 23 22  1  0  0  0  0
 24 25  1  0  0  0  0
 25 26  2  0  0  0  0
 26 21  1  0  0  0  0
 27 22  1  0  0  0  0
 28 23  1  0  0  0  0
 29 25  1  0  0  0  0
 30  6  1  0  0  0  0
 31 32  1  0  0  0  0
 31 30  1  0  0  0  0
M  END
>  <minimizedAffinity>
-4.01491785

$$$$

 OpenBabel03262521563D

 32 33  0  0  1  0  0  0  0  0999 V2000
   38.7490   22.2730   35.5010 C   0  0  1  0  0  0  0  0  0  0  0  0
   39.1200   23.4440   34.6190 C   0  0  2  0  0  0  0  0  0  0  0  0
   38.4610   24.6560   35.1670 C   0  0  0  0  0  0  0  0  0  0  0  0
   37.6860   24.4020   36.2910 O   0  0  0  0  0  0  0  0  0  0  0  0
   38.4470   23.8470   37.3300 C   0  0  0  0  0  0  0  0  0  0  0  0
   39.2050   22.6360   36.9090 C   0  0  2  0  0  0  0  0  0  0  0  0
   39.3020   21.3710   35.1910 H   0  0  0  0  0  0  0  0  0  0  0  0
   40.2150   23.5560   34.6690 H   0  0  0  0  0  0  0  0  0  0  0  0
   39.1900   25.4430   35.4650 H   0  0  0  0  0  0  0  0  0  0  0  0
   37.7550   25.0660   34.4050 H   0  0  0  0  0  0  0  0  0  0  0  0
   37.6940   23.5290   38.1010 H   0  0  0  0  0  0  0  0  0  0  0  0
   39.0490   24.6730   37.7350 H   0  0  0  0  0  0  0  0  0  0  0  0
   39.1020   21.7740   37.5990 H   0  0  0  0  0  0  0  0  0  0  0  0
   37.3700   22.0960   35.5530 O   0  0  0  0  0  0  0  0  0  0  0  0
   37.2090   21.2010   35.1240 H   0  0  0  0  0  0  0  0  0  0  0  0
   38.6520   23.1510   32.8890 S   0  0  0  0  0  0  0  0  0  0  0  0
   37.2110   24.1600   32.4640 C   0  0  0  0  0  0  0  0  0  0  0  0
   36.7450   24.5880   33.3980 H   0  0  0  0  0  0  0  0  0  0  0  0
   37.5970   25.0530   31.9240 H   0  0  0  0  0  0  0  0  0  0  0  0
   36.0330   23.3360   31.4100 S   0  0  0  0  0  0  0  0  0  0  0  0
   35.8820   21.6380   31.9180 C   0  0  0  0  0  0  0  0  0  0  0  0
   36.1080   20.7160   30.9210 C   0  0  0  0  0  0  0  0  0  0  0  0
   36.0080   19.3490   31.2330 C   0  0  0  0  0  0  0  0  0  0  0  0
   35.6910   19.0120   32.5180 N   0  0  0  0  0  0  0  0  0  0  0  0
   35.4810   19.9610   33.4520 C   0  0  0  0  0  0  0  0  0  0  0  0
   35.5730   21.2400   33.1580 N   0  0  0  0  0  0  0  0  0  0  0  0
   36.3600   20.9710   29.9020 H   0  0  0  0  0  0  0  0  0  0  0  0
   36.1790   18.6060   30.4770 H   0  0  0  0  0  0  0  0  0  0  0  0
   35.2290   19.6340   34.4650 H   0  0  0  0  0  0  0  0  0  0  0  0
   40.5660   22.9000   36.7890 O   0  0  0  0  0  0  0  0  0  0  0  0
   41.3790   21.8550   37.1940 C   0  0  0  0  0  2  0  0  0  0  0  0
   40.7270   21.1610   37.7740 H   0  0  0  0  0  0  0  0  0  0  0  0
  1  7  1  6  0  0  0
  1 14  1  0  0  0  0
  1  6  1  0  0  0  0
  2  8  1  1  0  0  0
  2  3  1  0  0  0  0
  2  1  1  0  0  0  0
  3  9  1  0  0  0  0
  3  4  1  0  0  0  0
  4  5  1  0  0  0  0
  5 12  1  0  0  0  0
  5 11  1  0  0  0  0
  6  5  1  0  0  0  0
  6 13  1  1  0  0  0
 10  3  1  0  0  0  0
 15 14  1  0  0  0  0
 16  2  1  0  0  0  0
 17 16  1  0  0  0  0
 17 18  1  0  0  0  0
 19 17  1  0  0  0  0
 20 21  1  0  0  0  0
 20 17  1  0  0  0  0
 21 26  1  0  0  0  0
 22 23  1  0  0  0  0
 22 21  2  0  0  0  0
 23 24  2  0  0  0  0
 24 25  1  0  0  0  0
 25 29  1  0  0  0  0
 26 25  2  0  0  0  0
 27 22  1  0  0  0  0
 28 23  1  0  0  0  0
 30  6  1  0  0  0  0
 30 31  1  0  0  0  0
 31 32  1  0  0  0  0
M  END
>  <minimizedAffinity>
-3.99966979

$$$$

 OpenBabel03262521563D

 32 33  0  0  1  0  0  0  0  0999 V2000
   38.0130   26.5560   35.8660 C   0  0  1  0  0  0  0  0  0  0  0  0
   37.4950   26.1690   34.4990 C   0  0  2  0  0  0  0  0  0  0  0  0
   38.5890   25.4710   33.7770 C   0  0  0  0  0  0  0  0  0  0  0  0
   39.7640   25.3790   34.5100 O   0  0  0  0  0  0  0  0  0  0  0  0
   39.5700   24.6930   35.7170 C   0  0  0  0  0  0  0  0  0  0  0  0
   38.4630   25.2630   36.5350 C   0  0  2  0  0  0  0  0  0  0  0  0
   37.2000   26.9840   36.4740 H   0  0  0  0  0  0  0  0  0  0  0  0
   36.6480   25.4820   34.6540 H   0  0  0  0  0  0  0  0  0  0  0  0
   38.3180   24.4270   33.4950 H   0  0  0  0  0  0  0  0  0  0  0  0
   38.8530   26.0520   32.8610 H   0  0  0  0  0  0  0  0  0  0  0  0
   40.5260   24.8370   36.2880 H   0  0  0  0  0  0  0  0  0  0  0  0
   39.4690   23.6320   35.4470 H   0  0  0  0  0  0  0  0  0  0  0  0
   38.7260   25.4320   37.5990 H   0  0  0  0  0  0  0  0  0  0  0  0
   39.1340   27.3750   35.7690 O   0  0  0  0  0  0  0  0  0  0  0  0
   38.8450   28.2530   36.1620 H   0  0  0  0  0  0  0  0  0  0  0  0
   36.9000   27.6150   33.5760 S   0  0  0  0  0  0  0  0  0  0  0  0
   37.0260   27.3030   31.7980 C   0  0  0  0  0  0  0  0  0  0  0  0
   37.1040   28.2780   31.2350 H   0  0  0  0  0  0  0  0  0  0  0  0
   38.0120   26.8170   31.6290 H   0  0  0  0  0  0  0  0  0  0  0  0
   35.7570   26.2270   31.1570 S   0  0  0  0  0  0  0  0  0  0  0  0
   36.3980   24.5730   31.0400 C   0  0  0  0  0  0  0  0  0  0  0  0
   35.5330   23.5890   31.4650 C   0  0  0  0  0  0  0  0  0  0  0  0
   35.9570   22.2490   31.4100 C   0  0  0  0  0  0  0  0  0  0  0  0
   37.2120   21.9990   30.9320 N   0  0  0  0  0  0  0  0  0  0  0  0
   38.0140   23.0060   30.5310 C   0  0  0  0  0  0  0  0  0  0  0  0
   37.6160   24.2590   30.5850 N   0  0  0  0  0  0  0  0  0  0  0  0
   34.5390   23.7740   31.8440 H   0  0  0  0  0  0  0  0  0  0  0  0
   35.3060   21.4600   31.7340 H   0  0  0  0  0  0  0  0  0  0  0  0
   39.0100   22.7480   30.1580 H   0  0  0  0  0  0  0  0  0  0  0  0
   37.3400   24.4410   36.5200 O   0  0  0  0  0  0  0  0  0  0  0  0
   37.6070   23.1200   36.8350 C   0  0  0  0  0  2  0  0  0  0  0  0
   38.7120   22.9980   36.7540 H   0  0  0  0  0  0  0  0  0  0  0  0
  1  7  1  1  0  0  0
  1  6  1  0  0  0  0
  2  8  1  1  0  0  0
  2  1  1  0  0  0  0
  3  2  1  0  0  0  0
  3  4  1  0  0  0  0
  4  5  1  0  0  0  0
  5 11  1  0  0  0  0
  5  6  1  0  0  0  0
  6 13  1  1  0  0  0
  9  3  1  0  0  0  0
 10  3  1  0  0  0  0
 12  5  1  0  0  0  0
 14  1  1  0  0  0  0
 14 15  1  0  0  0  0
 16  2  1  0  0  0  0
 17 16  1  0  0  0  0
 18 17  1  0  0  0  0
 19 17  1  0  0  0  0
 20 17  1  0  0  0  0
 21 20  1  0  0  0  0
 21 22  1  0  0  0  0
 22 27  1  0  0  0  0
 23 22  2  0  0  0  0
 23 28  1  0  0  0  0
 24 23  1  0  0  0  0
 25 26  1  0  0  0  0
 25 24  2  0  0  0  0
 26 21  2  0  0  0  0
 29 25  1  0  0  0  0
 30  6  1  0  0  0  0
 30 31  1  0  0  0  0
 32 31  1  0  0  0  0
M  END
>  <minimizedAffinity>
-3.99056888

$$$$

 OpenBabel03262521563D

 32 33  0  0  1  0  0  0  0  0999 V2000
   39.3250   24.1620   35.6110 C   0  0  1  0  0  0  0  0  0  0  0  0
   38.4250   23.1780   34.8960 C   0  0  2  0  0  0  0  0  0  0  0  0
   37.6590   22.4300   35.9240 C   0  0  0  0  0  0  0  0  0  0  0  0
   37.9740   22.7980   37.2250 O   0  0  0  0  0  0  0  0  0  0  0  0
   37.7330   24.1610   37.4500 C   0  0  0  0  0  0  0  0  0  0  0  0
   38.4130   25.0400   36.4570 C   0  0  2  0  0  0  0  0  0  0  0  0
   39.8350   24.8110   34.8810 H   0  0  0  0  0  0  0  0  0  0  0  0
   37.7370   23.7650   34.2670 H   0  0  0  0  0  0  0  0  0  0  0  0
   36.5580   22.5660   35.8220 H   0  0  0  0  0  0  0  0  0  0  0  0
   37.9120   21.3450   35.8530 H   0  0  0  0  0  0  0  0  0  0  0  0
   38.1840   24.3710   38.4570 H   0  0  0  0  0  0  0  0  0  0  0  0
   36.6410   24.2670   37.5160 H   0  0  0  0  0  0  0  0  0  0  0  0
   38.9730   25.8850   36.9070 H   0  0  0  0  0  0  0  0  0  0  0  0
   40.1900   23.5110   36.4860 O   0  0  0  0  0  0  0  0  0  0  0  0
   41.1080   23.6830   36.1140 H   0  0  0  0  0  0  0  0  0  0  0  0
   39.3740   22.0630   33.8230 S   0  0  0  0  0  0  0  0  0  0  0  0
   38.6410   22.0310   32.1690 C   0  0  0  0  0  0  0  0  0  0  0  0
   39.1610   22.7750   31.4980 H   0  0  0  0  0  0  0  0  0  0  0  0
   38.9000   21.0440   31.7260 H   0  0  0  0  0  0  0  0  0  0  0  0
   36.8670   22.2000   32.1570 S   0  0  0  0  0  0  0  0  0  0  0  0
   36.4440   23.8890   31.7910 C   0  0  0  0  0  0  0  0  0  0  0  0
   35.2460   24.0530   31.1330 C   0  0  0  0  0  0  0  0  0  0  0  0
   34.8310   25.3550   30.8020 C   0  0  0  0  0  0  0  0  0  0  0  0
   35.6480   26.3910   31.1560 N   0  0  0  0  0  0  0  0  0  0  0  0
   36.8120   26.1680   31.8000 C   0  0  0  0  0  0  0  0  0  0  0  0
   37.1980   24.9480   32.1070 N   0  0  0  0  0  0  0  0  0  0  0  0
   34.5920   23.2410   30.8480 H   0  0  0  0  0  0  0  0  0  0  0  0
   33.9020   25.5150   30.2890 H   0  0  0  0  0  0  0  0  0  0  0  0
   37.4270   27.0340   32.0590 H   0  0  0  0  0  0  0  0  0  0  0  0
   37.5050   25.5900   35.5560 O   0  0  0  0  0  0  0  0  0  0  0  0
   37.6740   26.9480   35.3470 C   0  0  0  0  0  2  0  0  0  0  0  0
   38.3310   27.3100   36.1720 H   0  0  0  0  0  0  0  0  0  0  0  0
  1  7  1  6  0  0  0
  1  6  1  0  0  0  0
  1 14  1  0  0  0  0
  2  8  1  6  0  0  0
  2  1  1  0  0  0  0
  2  3  1  0  0  0  0
  3  4  1  0  0  0  0
  4  5  1  0  0  0  0
  5 12  1  0  0  0  0
  5 11  1  0  0  0  0
  6 13  1  1  0  0  0
  6  5  1  0  0  0  0
  9  3  1  0  0  0  0
 10  3  1  0  0  0  0
 15 14  1  0  0  0  0
 16  2  1  0  0  0  0
 17 16  1  0  0  0  0
 18 17  1  0  0  0  0
 19 17  1  0  0  0  0
 20 17  1  0  0  0  0
 21 26  1  0  0  0  0
 21 20  1  0  0  0  0
 22 21  2  0  0  0  0
 23 22  1  0  0  0  0
 23 24  2  0  0  0  0
 24 25  1  0  0  0  0
 25 29  1  0  0  0  0
 25 26  2  0  0  0  0
 27 22  1  0  0  0  0
 28 23  1  0  0  0  0
 30  6  1  0  0  0  0
 31 30  1  0  0  0  0
 31 32  1  0  0  0  0
M  END
>  <minimizedAffinity>
-3.98976064

$$$$

 OpenBabel03262521563D

 32 33  0  0  1  0  0  0  0  0999 V2000
   35.9260   21.6140   31.5280 C   0  0  1  0  0  0  0  0  0  0  0  0
   37.2220   21.8730   32.2640 C   0  0  2  0  0  0  0  0  0  0  0  0
   37.0710   21.3610   33.6490 C   0  0  0  0  0  0  0  0  0  0  0  0
   35.8190   20.8190   33.9040 O   0  0  0  0  0  0  0  0  0  0  0  0
   35.5310   19.7510   33.0420 C   0  0  0  0  0  0  0  0  0  0  0  0
   35.6840   20.1120   31.6040 C   0  0  2  0  0  0  0  0  0  0  0  0
   36.0320   21.8840   30.4650 H   0  0  0  0  0  0  0  0  0  0  0  0
   38.0130   21.3120   31.7400 H   0  0  0  0  0  0  0  0  0  0  0  0
   37.8090   20.5630   33.8950 H   0  0  0  0  0  0  0  0  0  0  0  0
   37.1800   22.2090   34.3680 H   0  0  0  0  0  0  0  0  0  0  0  0
   34.4470   19.5190   33.2230 H   0  0  0  0  0  0  0  0  0  0  0  0
   36.1420   18.9080   33.3930 H   0  0  0  0  0  0  0  0  0  0  0  0
   34.8280   19.8100   30.9670 H   0  0  0  0  0  0  0  0  0  0  0  0
   34.8530   22.2320   32.1620 O   0  0  0  0  0  0  0  0  0  0  0  0
   34.5270   22.9180   31.5040 H   0  0  0  0  0  0  0  0  0  0  0  0
   37.6600   23.6350   32.2450 S   0  0  0  0  0  0  0  0  0  0  0  0
   39.1830   23.9000   33.1860 C   0  0  0  0  0  0  0  0  0  0  0  0
   39.5580   22.9200   33.6040 H   0  0  0  0  0  0  0  0  0  0  0  0
   39.9640   24.1930   32.4490 H   0  0  0  0  0  0  0  0  0  0  0  0
   39.0640   25.1840   34.4150 S   0  0  0  0  0  0  0  0  0  0  0  0
   38.9270   24.4410   36.0250 C   0  0  0  0  0  0  0  0  0  0  0  0
   39.8510   23.4540   36.2840 C   0  0  0  0  0  0  0  0  0  0  0  0
   39.8170   22.8100   37.5340 C   0  0  0  0  0  0  0  0  0  0  0  0
   38.8600   23.2040   38.4250 N   0  0  0  0  0  0  0  0  0  0  0  0
   37.9810   24.1770   38.1140 C   0  0  0  0  0  0  0  0  0  0  0  0
   38.0140   24.7780   36.9440 N   0  0  0  0  0  0  0  0  0  0  0  0
   40.6120   23.1340   35.5870 H   0  0  0  0  0  0  0  0  0  0  0  0
   40.5240   22.0360   37.7650 H   0  0  0  0  0  0  0  0  0  0  0  0
   37.2350   24.4520   38.8660 H   0  0  0  0  0  0  0  0  0  0  0  0
   36.8240   19.5350   31.0510 O   0  0  0  0  0  0  0  0  0  0  0  0
   36.6320   19.0200   29.7810 C   0  0  0  0  0  2  0  0  0  0  0  0
   35.5290   18.9570   29.6340 H   0  0  0  0  0  0  0  0  0  0  0  0
  1  7  1  6  0  0  0
  1  6  1  0  0  0  0
  1 14  1  0  0  0  0
  1  2  1  0  0  0  0
  2  8  1  6  0  0  0
  2  3  1  0  0  0  0
  3  9  1  0  0  0  0
  3  4  1  0  0  0  0
  3 10  1  0  0  0  0
  5 11  1  0  0  0  0
  5 12  1  0  0  0  0
  5  4  1  0  0  0  0
  6 13  1  6  0  0  0
  6  5  1  0  0  0  0
 15 14  1  0  0  0  0
 16  2  1  0  0  0  0
 16 17  1  0  0  0  0
 17 18  1  0  0  0  0
 17 20  1  0  0  0  0
 19 17  1  0  0  0  0
 20 21  1  0  0  0  0
 21 22  2  0  0  0  0
 21 26  1  0  0  0  0
 22 23  1  0  0  0  0
 23 28  1  0  0  0  0
 23 24  2  0  0  0  0
 25 24  1  0  0  0  0
 25 29  1  0  0  0  0
 26 25  2  0  0  0  0
 27 22  1  0  0  0  0
 30  6  1  0  0  0  0
 31 30  1  0  0  0  0
 32 31  1  0  0  0  0
M  END
>  <minimizedAffinity>
-3.93530273

$$$$

 OpenBabel03262521563D

 32 33  0  0  1  0  0  0  0  0999 V2000
   39.2250   24.3250   35.5750 C   0  0  1  0  0  0  0  0  0  0  0  0
   38.2250   23.6870   34.6360 C   0  0  2  0  0  0  0  0  0  0  0  0
   38.7800   22.3840   34.1940 C   0  0  0  0  0  0  0  0  0  0  0  0
   40.0360   22.1110   34.7200 O   0  0  0  0  0  0  0  0  0  0  0  0
   40.0180   22.0910   36.1220 C   0  0  0  0  0  0  0  0  0  0  0  0
   39.4400   23.3320   36.7100 C   0  0  2  0  0  0  0  0  0  0  0  0
   38.8060   25.2470   36.0090 H   0  0  0  0  0  0  0  0  0  0  0  0
   37.2970   23.5260   35.2090 H   0  0  0  0  0  0  0  0  0  0  0  0
   38.1330   21.5230   34.4780 H   0  0  0  0  0  0  0  0  0  0  0  0
   38.9190   22.4010   33.0860 H   0  0  0  0  0  0  0  0  0  0  0  0
   41.0980   22.0400   36.4240 H   0  0  0  0  0  0  0  0  0  0  0  0
   39.5210   21.1520   36.4020 H   0  0  0  0  0  0  0  0  0  0  0  0
   40.0510   23.7770   37.5220 H   0  0  0  0  0  0  0  0  0  0  0  0
   40.4570   24.5060   34.9530 O   0  0  0  0  0  0  0  0  0  0  0  0
   40.5830   25.5020   34.9180 H   0  0  0  0  0  0  0  0  0  0  0  0
   37.8490   24.7680   33.2270 S   0  0  0  0  0  0  0  0  0  0  0  0
   37.6720   23.7770   31.7230 C   0  0  0  0  0  0  0  0  0  0  0  0
   38.1390   24.3120   30.8460 H   0  0  0  0  0  0  0  0  0  0  0  0
   38.3110   22.8760   31.8590 H   0  0  0  0  0  0  0  0  0  0  0  0
   36.0050   23.2340   31.4020 S   0  0  0  0  0  0  0  0  0  0  0  0
   35.9010   21.4780   31.6640 C   0  0  0  0  0  0  0  0  0  0  0  0
   35.5140   21.1070   32.9320 C   0  0  0  0  0  0  0  0  0  0  0  0
   35.4060   19.7370   33.2300 C   0  0  0  0  0  0  0  0  0  0  0  0
   35.6940   18.8460   32.2360 N   0  0  0  0  0  0  0  0  0  0  0  0
   36.0700   19.2700   31.0120 C   0  0  0  0  0  0  0  0  0  0  0  0
   36.1710   20.5530   30.7360 N   0  0  0  0  0  0  0  0  0  0  0  0
   35.2830   21.8020   33.7260 H   0  0  0  0  0  0  0  0  0  0  0  0
   35.1060   19.4160   34.2100 H   0  0  0  0  0  0  0  0  0  0  0  0
   36.2890   18.5130   30.2530 H   0  0  0  0  0  0  0  0  0  0  0  0
   38.1710   23.1070   37.2360 O   0  0  0  0  0  0  0  0  0  0  0  0
   37.9300   23.7700   38.4270 C   0  0  0  0  0  2  0  0  0  0  0  0
   38.9250   24.1050   38.8030 H   0  0  0  0  0  0  0  0  0  0  0  0
  1  7  1  1  0  0  0
  1  6  1  0  0  0  0
  2  8  1  1  0  0  0
  2  1  1  0  0  0  0
  3  9  1  0  0  0  0
  3  2  1  0  0  0  0
  3  4  1  0  0  0  0
  4  5  1  0  0  0  0
  5 12  1  0  0  0  0
  5 11  1  0  0  0  0
  5  6  1  0  0  0  0
  6 30  1  0  0  0  0
  6 13  1  1  0  0  0
 10  3  1  0  0  0  0
 14  1  1  0  0  0  0
 15 14  1  0  0  0  0
 16  2  1  0  0  0  0
 17 19  1  0  0  0  0
 17 16  1  0  0  0  0
 18 17  1  0  0  0  0
 20 21  1  0  0  0  0
 20 17  1  0  0  0  0
 21 22  1  0  0  0  0
 22 23  2  0  0  0  0
 22 27  1  0  0  0  0
 23 28  1  0  0  0  0
 24 23  1  0  0  0  0
 25 24  2  0  0  0  0
 26 25  1  0  0  0  0
 26 21  2  0  0  0  0
 29 25  1  0  0  0  0
 30 31  1  0  0  0  0
 31 32  1  0  0  0  0
M  END
>  <minimizedAffinity>
-3.9297936

$$$$
