
 OpenBabel03272502303D

 17 17  0  0  0  0  0  0  0  0999 V2000
   37.3620   30.2360   51.3870 C   0  0  0  0  0  0  0  0  0  0  0  0
   38.0100   30.7530   50.2700 C   0  0  0  0  0  0  0  0  0  0  0  0
   37.5680   30.4250   48.9930 C   0  0  0  0  0  0  0  0  0  0  0  0
   36.4980   29.5970   48.8660 N   0  0  0  0  0  0  0  0  0  0  0  0
   35.8910   29.1130   49.9770 C   0  0  0  0  0  0  0  0  0  0  0  0
   36.3010   29.4160   51.2170 N   0  0  0  0  0  0  0  0  0  0  0  0
   37.7190   30.5000   52.3660 H   0  0  0  0  0  0  0  0  0  0  0  0
   38.8610   31.4110   50.4150 H   0  0  0  0  0  0  0  0  0  0  0  0
   35.0330   28.4480   49.8920 H   0  0  0  0  0  0  0  0  0  0  0  0
   38.2440   30.9620   47.8480 C   0  0  0  0  0  0  0  0  0  0  0  0
   38.8000   32.1460   47.8590 C   0  0  0  0  0  0  0  0  0  0  0  0
   39.4890   32.6170   46.6030 C   0  0  0  0  0  0  0  0  0  0  0  0
   40.5710   32.3800   46.7860 H   0  0  0  0  0  0  0  0  0  0  0  0
   39.3480   33.6870   46.4270 H   0  0  0  0  0  0  0  0  0  0  0  0
   38.9570   31.5710   45.2110 S   0  0  0  0  0  0  0  0  0  0  0  0
   37.6510   32.3600   44.2550 C   0  0  0  0  0  0  0  0  0  0  0  0
   36.9100   31.6320   43.8700 H   0  0  0  0  0  0  0  0  0  0  0  0
  1  7  1  0  0  0  0
  2  8  1  0  0  0  0
  2  1  2  0  0  0  0
  3  2  1  0  0  0  0
  4  3  2  0  0  0  0
  4  5  1  0  0  0  0
  5  6  2  0  0  0  0
  6  1  1  0  0  0  0
  9  5  1  0  0  0  0
 10 11  2  0  0  0  0
 10  3  1  0  0  0  0
 12 13  1  0  0  0  0
 12 11  1  0  0  0  0
 14 12  1  0  0  0  0
 15 12  1  0  0  0  0
 16 15  1  0  0  0  0
 17 16  1  0  0  0  0
M  END
>  <minimizedAffinity>
-4.02286148

>  <minimizedRMSD>
0.598687172

$$$$
