
 OpenBabel03262522573D

 18 19  0  0  0  0  0  0  0  0999 V2000
   39.4830   34.1770   49.0080 C   0  0  0  0  0  0  0  0  0  0  0  0
   39.9150   33.9300   47.6650 C   0  0  0  0  0  0  0  0  0  0  0  0
   39.4790   32.7500   47.0230 C   0  0  0  0  0  0  0  0  0  0  0  0
   38.6700   31.9140   47.7220 N   0  0  0  0  0  0  0  0  0  0  0  0
   38.2780   32.1720   48.9890 C   0  0  0  0  0  0  0  0  0  0  0  0
   38.6850   33.2850   49.6040 N   0  0  0  0  0  0  0  0  0  0  0  0
   39.7800   35.0520   49.5430 H   0  0  0  0  0  0  0  0  0  0  0  0
   40.5620   34.6720   47.2090 H   0  0  0  0  0  0  0  0  0  0  0  0
   39.8060   32.5780   46.0270 H   0  0  0  0  0  0  0  0  0  0  0  0
   37.4050   31.2250   49.6800 C   0  0  0  0  0  0  0  0  0  0  0  0
   37.7480   30.5090   50.8170 C   0  0  0  0  0  0  0  0  0  0  0  0
   36.6660   29.7350   51.1560 C   0  0  0  0  0  0  0  0  0  0  0  0
   35.6810   29.9810   50.2320 N   0  0  0  0  0  0  0  0  0  0  0  0
   36.1620   30.8750   49.3680 N   0  0  0  0  0  0  0  0  0  0  0  0
   38.6870   30.5230   51.3780 H   0  0  0  0  0  0  0  0  0  0  0  0
   36.5250   29.0460   51.9630 H   0  0  0  0  0  0  0  0  0  0  0  0
   34.3440   29.4270   50.1270 C   0  0  0  0  0  0  0  0  0  0  0  0
   34.1130   28.8720   51.0450 H   0  0  0  0  0  0  0  0  0  0  0  0
  1  7  1  0  0  0  0
  1  6  1  0  0  0  0
  2  1  2  0  0  0  0
  3  2  1  0  0  0  0
  3  4  2  0  0  0  0
  4  5  1  0  0  0  0
  5  6  2  0  0  0  0
  5 10  1  0  0  0  0
  8  2  1  0  0  0  0
  9  3  1  0  0  0  0
 10 11  1  0  0  0  0
 11 12  2  0  0  0  0
 11 15  1  0  0  0  0
 12 16  1  0  0  0  0
 13 12  1  0  0  0  0
 14 10  2  0  0  0  0
 14 13  1  0  0  0  0
 17 13  1  0  0  0  0
 17 18  1  0  0  0  0
M  END
>  <minimizedAffinity>
-4.32120657

>  <minimizedRMSD>
1.94429696

$$$$
