
 OpenBabel03272504163D

 19 19  0  0  0  0  0  0  0  0999 V2000
   35.8540   30.6240   49.3710 C   0  0  0  0  0  0  0  0  0  0  0  0
   36.1820   29.9460   50.5400 C   0  0  0  0  0  0  0  0  0  0  0  0
   37.4570   30.1230   51.0690 C   0  0  0  0  0  0  0  0  0  0  0  0
   38.3280   30.9500   50.4200 N   0  0  0  0  0  0  0  0  0  0  0  0
   37.9680   31.5950   49.2780 C   0  0  0  0  0  0  0  0  0  0  0  0
   36.7330   31.4280   48.7610 N   0  0  0  0  0  0  0  0  0  0  0  0
   37.6730   29.5930   51.9590 H   0  0  0  0  0  0  0  0  0  0  0  0
   38.7250   32.2220   48.8440 H   0  0  0  0  0  0  0  0  0  0  0  0
   35.1580   29.1410   51.0660 N   0  0  0  0  0  0  0  0  0  0  0  0
   35.4340   28.1520   51.3350 H   0  0  0  0  0  0  0  0  0  0  0  0
   34.1760   29.4440   51.2010 H   0  0  0  0  0  0  0  0  0  0  0  0
   34.6350   30.5680   48.7050 O   0  0  0  0  0  0  0  0  0  0  0  0
   35.2050   29.6470   46.2630 O   0  0  0  0  0  0  0  0  0  0  0  0
   34.3200   29.4130   47.4660 P   0  0  1  0  0  0  0  0  0  0  0  0
   34.5590   27.8880   48.1370 O   0  0  0  0  0  0  0  0  0  0  0  0
   33.8790   27.7500   48.8290 H   0  0  0  0  0  0  0  0  0  0  0  0
   32.7380   29.6160   46.9050 O   0  0  0  0  0  0  0  0  0  0  0  0
   32.6310   30.6460   45.9720 C   0  0  0  0  0  0  0  0  0  0  0  0
   32.5290   30.2820   44.9340 H   0  0  0  0  0  0  0  0  0  0  0  0
  1  2  1  0  0  0  0
  2  9  1  0  0  0  0
  2  3  2  0  0  0  0
  3  7  1  0  0  0  0
  4  3  1  0  0  0  0
  5  4  2  0  0  0  0
  6  5  1  0  0  0  0
  6  1  2  0  0  0  0
  8  5  1  0  0  0  0
  9 11  1  0  0  0  0
  9 10  1  0  0  0  0
 12  1  1  0  0  0  0
 14 13  2  6  0  0  0
 14 15  1  0  0  0  0
 14 12  1  0  0  0  0
 15 16  1  0  0  0  0
 17 14  1  0  0  0  0
 18 17  1  0  0  0  0
 19 18  1  0  0  0  0
M  END
>  <minimizedAffinity>
-3.55275989

>  <minimizedRMSD>
0.771985948

$$$$
