
 OpenBabel03272508073D

 17 17  0  0  0  0  0  0  0  0999 V2000
   37.3680   30.2560   51.2800 C   0  0  0  0  0  0  0  0  0  0  0  0
   38.0700   30.6020   50.1250 C   0  0  0  0  0  0  0  0  0  0  0  0
   37.5650   30.1940   48.8990 C   0  0  0  0  0  0  0  0  0  0  0  0
   36.4110   29.4760   48.8810 N   0  0  0  0  0  0  0  0  0  0  0  0
   35.7550   29.1580   50.0250 C   0  0  0  0  0  0  0  0  0  0  0  0
   36.2380   29.5500   51.2230 N   0  0  0  0  0  0  0  0  0  0  0  0
   37.8640   30.6320   52.1770 H   0  0  0  0  0  0  0  0  0  0  0  0
   38.9820   31.1610   50.0350 H   0  0  0  0  0  0  0  0  0  0  0  0
   34.8300   28.5840   50.0260 H   0  0  0  0  0  0  0  0  0  0  0  0
   38.0660   30.4070   47.6600 O   0  0  0  0  0  0  0  0  0  0  0  0
   39.1020   32.8300   48.0290 O   0  0  0  0  0  0  0  0  0  0  0  0
   38.7620   31.7930   47.0130 P   0  0  2  0  0  0  0  0  0  0  0  0
   37.7280   32.4740   45.8340 O   0  0  0  0  0  0  0  0  0  0  0  0
   37.8160   33.4600   45.8240 H   0  0  0  0  0  0  0  0  0  0  0  0
   40.1980   31.3830   46.2080 O   0  0  0  0  0  0  0  0  0  0  0  0
   40.6310   32.4000   45.3570 C   0  0  0  0  0  0  0  0  0  0  0  0
   40.6880   32.0180   44.3190 H   0  0  0  0  0  0  0  0  0  0  0  0
  1  7  1  0  0  0  0
  2  1  2  0  0  0  0
  3  2  1  0  0  0  0
  4  3  2  0  0  0  0
  4  5  1  0  0  0  0
  5  9  1  0  0  0  0
  5  6  2  0  0  0  0
  6  1  1  0  0  0  0
  8  2  1  0  0  0  0
 10  3  1  0  0  0  0
 12 10  1  0  0  0  0
 12 11  2  1  0  0  0
 13 12  1  0  0  0  0
 14 13  1  0  0  0  0
 15 12  1  0  0  0  0
 16 15  1  0  0  0  0
 17 16  1  0  0  0  0
M  END
>  <minimizedAffinity>
-4.52269793

>  <minimizedRMSD>
0.227071151

$$$$
