REMARK  Name = 
REMARK  3 active torsions:
REMARK  status: ('A' for Active; 'I' for Inactive)
REMARK    1  A    between atoms: C_2  and  C_12
REMARK    2  A    between atoms: C_6  and  O_16
REMARK    3  A    between atoms: O_16  and  C_24
REMARK                            x       y       z     vdW  Elec       q    Type
REMARK                         _______ _______ _______ _____ _____    ______ ____
ROOT
ATOM      1  C   UNL     1      36.849  30.559  46.909  0.00  0.00    +0.000 A 
ATOM      2  C   UNL     1      37.520  31.043  48.027  0.00  0.00    +0.000 A 
ATOM      3  C   UNL     1      38.511  31.989  47.900  0.00  0.00    +0.000 A 
ATOM      4  C   UNL     1      38.797  32.426  46.613  0.00  0.00    +0.000 A 
ATOM      5  N   UNL     1      39.726  33.349  46.220  0.00  0.00    +0.000 N 
ATOM      6  C   UNL     1      39.640  33.443  44.880  0.00  0.00    +0.000 A 
ATOM      7  N   UNL     1      38.705  32.627  44.418  0.00  0.00    +0.000 NA
ATOM      8  C   UNL     1      38.154  31.973  45.465  0.00  0.00    +0.000 A 
ATOM      9  C   UNL     1      37.165  31.022  45.638  0.00  0.00    +0.000 A 
ATOM     10  H   UNL     1      36.056  29.804  46.994  0.00  0.00    +0.000 HD
ATOM     11  H   UNL     1      39.033  32.368  48.752  0.00  0.00    +0.000 HD
ATOM     12  H   UNL     1      40.372  33.868  46.885  0.00  0.00    +0.000 HD
ATOM     13  H   UNL     1      36.654  30.657  44.758  0.00  0.00    +0.000 HD
ENDROOT
BRANCH   2  16
ATOM     14  C   UNL     1      37.386  30.091  51.669  0.00  0.00    +0.000 A 
ATOM     15  C   UNL     1      37.863  30.653  50.488  0.00  0.00    +0.000 A 
ATOM     16  C   UNL     1      37.124  30.502  49.319  0.00  0.00    +0.000 A 
ATOM     17  N   UNL     1      35.953  29.802  49.393  0.00  0.00    +0.000 NA
ATOM     18  C   UNL     1      35.515  29.267  50.560  0.00  0.00    +0.000 A 
ATOM     19  N   UNL     1      36.213  29.407  51.672  0.00  0.00    +0.000 NA
ATOM     20  H   UNL     1      37.967  30.215  52.566  0.00  0.00    +0.000 HD
ATOM     21  H   UNL     1      38.800  31.214  50.423  0.00  0.00    +0.000 HD
ATOM     22  H   UNL     1      34.590  28.712  50.628  0.00  0.00    +0.000 HD
ENDBRANCH   2  16
BRANCH   6  23
ATOM     23  O   UNL     1      40.475  34.318  44.186  0.00  0.00    +0.000 OA
BRANCH  23  24
ATOM     24  C   UNL     1      40.385  34.418  42.776  0.00  0.00    +0.000 C 
ATOM     25  H   UNL     1      40.733  33.506  42.255  0.00  0.00    +0.000 HD
ENDBRANCH  23  24
ENDBRANCH   6  23
TORSDOF 3
