
 OpenBabel03272505443D

 17 17  0  0  0  0  0  0  0  0999 V2000
   39.8330   22.9630   37.0270 C   0  0  0  0  0  0  0  0  0  0  0  0
   39.2220   23.1110   38.2910 C   0  0  0  0  0  0  0  0  0  0  0  0
   38.1550   24.0270   38.3840 C   0  0  0  0  0  0  0  0  0  0  0  0
   37.7790   24.7050   37.2700 N   0  0  0  0  0  0  0  0  0  0  0  0
   38.3910   24.5300   36.0860 C   0  0  0  0  0  0  0  0  0  0  0  0
   39.4200   23.6590   35.9600 N   0  0  0  0  0  0  0  0  0  0  0  0
   40.6430   22.2760   36.9330 H   0  0  0  0  0  0  0  0  0  0  0  0
   39.5320   22.5660   39.1650 H   0  0  0  0  0  0  0  0  0  0  0  0
   37.6290   24.1970   39.3330 H   0  0  0  0  0  0  0  0  0  0  0  0
   37.8610   25.3150   35.0680 O   0  0  0  0  0  0  0  0  0  0  0  0
   39.0620   27.2880   33.8350 O   0  0  0  0  0  0  0  0  0  0  0  0
   38.0580   26.9930   34.9530 P   0  0  2  0  0  0  0  0  0  0  0  0
   38.7150   27.6550   36.3620 O   0  0  0  0  0  0  0  0  0  0  0  0
   39.3750   27.0090   36.7160 H   0  0  0  0  0  0  0  0  0  0  0  0
   36.6470   27.8140   34.5750 O   0  0  0  0  0  0  0  0  0  0  0  0
   36.4910   28.0500   33.2300 C   0  0  0  0  0  2  0  0  0  0  0  0
   37.3100   28.6440   32.7850 H   0  0  0  0  0  0  0  0  0  0  0  0
  1  2  1  0  0  0  0
  2  3  2  0  0  0  0
  2  8  1  0  0  0  0
  3  9  1  0  0  0  0
  4  3  1  0  0  0  0
  5  4  2  0  0  0  0
  6  5  1  0  0  0  0
  6  1  2  0  0  0  0
  7  1  1  0  0  0  0
 10  5  1  0  0  0  0
 12 11  2  6  0  0  0
 12 10  1  0  0  0  0
 12 13  1  0  0  0  0
 13 14  1  0  0  0  0
 15 12  1  0  0  0  0
 16 15  1  0  0  0  0
 17 16  1  0  0  0  0
M  END
>  <minimizedAffinity>
-3.79875135

$$$$

 OpenBabel03272505443D

 17 17  0  0  0  0  0  0  0  0999 V2000
   37.9810   24.2220   38.3520 C   0  0  0  0  0  0  0  0  0  0  0  0
   38.8820   23.1600   38.5840 C   0  0  0  0  0  0  0  0  0  0  0  0
   39.7700   22.8340   37.5390 C   0  0  0  0  0  0  0  0  0  0  0  0
   39.7110   23.5470   36.3860 N   0  0  0  0  0  0  0  0  0  0  0  0
   38.8350   24.5520   36.2110 C   0  0  0  0  0  0  0  0  0  0  0  0
   37.9660   24.8920   37.1930 N   0  0  0  0  0  0  0  0  0  0  0  0
   37.3000   24.4860   39.1280 H   0  0  0  0  0  0  0  0  0  0  0  0
   38.9170   22.6040   39.5040 H   0  0  0  0  0  0  0  0  0  0  0  0
   40.5010   22.0210   37.6440 H   0  0  0  0  0  0  0  0  0  0  0  0
   38.9300   25.1580   34.9640 O   0  0  0  0  0  0  0  0  0  0  0  0
   40.3650   27.1940   34.1590 O   0  0  0  0  0  0  0  0  0  0  0  0
   38.9850   26.8320   34.7160 P   0  0  2  0  0  0  0  0  0  0  0  0
   38.8200   27.6950   36.1590 O   0  0  0  0  0  0  0  0  0  0  0  0
   39.2930   27.1900   36.8650 H   0  0  0  0  0  0  0  0  0  0  0  0
   37.8490   27.3900   33.6170 O   0  0  0  0  0  0  0  0  0  0  0  0
   37.0500   26.3980   33.1000 C   0  0  0  0  0  2  0  0  0  0  0  0
   37.6110   25.6060   32.5730 H   0  0  0  0  0  0  0  0  0  0  0  0
  1  2  1  0  0  0  0
  1  7  1  0  0  0  0
  2  8  1  0  0  0  0
  3  9  1  0  0  0  0
  3  2  2  0  0  0  0
  4  3  1  0  0  0  0
  5  4  2  0  0  0  0
  5  6  1  0  0  0  0
  6  1  2  0  0  0  0
 10  5  1  0  0  0  0
 12 11  2  6  0  0  0
 12 10  1  0  0  0  0
 12 13  1  0  0  0  0
 13 14  1  0  0  0  0
 15 12  1  0  0  0  0
 16 15  1  0  0  0  0
 17 16  1  0  0  0  0
M  END
>  <minimizedAffinity>
-3.76189828

$$$$

 OpenBabel03272505443D

 17 17  0  0  0  0  0  0  0  0999 V2000
   37.7490   27.6850   35.4210 C   0  0  0  0  0  0  0  0  0  0  0  0
   37.1220   27.3580   34.1990 C   0  0  0  0  0  0  0  0  0  0  0  0
   37.3220   26.0530   33.7060 C   0  0  0  0  0  0  0  0  0  0  0  0
   38.0930   25.1960   34.4220 N   0  0  0  0  0  0  0  0  0  0  0  0
   38.6700   25.5530   35.5830 C   0  0  0  0  0  0  0  0  0  0  0  0
   38.5010   26.7990   36.0860 N   0  0  0  0  0  0  0  0  0  0  0  0
   37.6120   28.6670   35.8130 H   0  0  0  0  0  0  0  0  0  0  0  0
   36.5130   28.0490   33.6430 H   0  0  0  0  0  0  0  0  0  0  0  0
   36.8670   25.7230   32.7630 H   0  0  0  0  0  0  0  0  0  0  0  0
   39.4210   24.5370   36.1640 O   0  0  0  0  0  0  0  0  0  0  0  0
   37.3800   23.4520   37.3920 O   0  0  0  0  0  0  0  0  0  0  0  0
   38.7660   23.1240   36.8280 P   0  0  2  0  0  0  0  0  0  0  0  0
   39.6780   22.5510   38.1290 O   0  0  0  0  0  0  0  0  0  0  0  0
   40.0110   23.3350   38.6300 H   0  0  0  0  0  0  0  0  0  0  0  0
   38.5650   21.8860   35.7180 O   0  0  0  0  0  0  0  0  0  0  0  0
   37.2780   21.7710   35.2480 C   0  0  0  0  0  2  0  0  0  0  0  0
   36.5310   21.5860   36.0400 H   0  0  0  0  0  0  0  0  0  0  0  0
  1  7  1  0  0  0  0
  1  6  1  0  0  0  0
  2  1  2  0  0  0  0
  3  2  1  0  0  0  0
  3  4  2  0  0  0  0
  4  5  1  0  0  0  0
  5  6  2  0  0  0  0
  5 10  1  0  0  0  0
  8  2  1  0  0  0  0
  9  3  1  0  0  0  0
 10 12  1  0  0  0  0
 12 11  2  1  0  0  0
 12 13  1  0  0  0  0
 13 14  1  0  0  0  0
 15 12  1  0  0  0  0
 16 15  1  0  0  0  0
 16 17  1  0  0  0  0
M  END
>  <minimizedAffinity>
-3.56328607

$$$$

 OpenBabel03272505443D

 17 17  0  0  0  0  0  0  0  0999 V2000
   37.3650   26.8060   34.0200 C   0  0  0  0  0  0  0  0  0  0  0  0
   38.6450   27.0840   33.4910 C   0  0  0  0  0  0  0  0  0  0  0  0
   39.7560   26.6290   34.2300 C   0  0  0  0  0  0  0  0  0  0  0  0
   39.5370   25.9580   35.3900 N   0  0  0  0  0  0  0  0  0  0  0  0
   38.2990   25.7170   35.8540 C   0  0  0  0  0  0  0  0  0  0  0  0
   37.2090   26.1400   35.1710 N   0  0  0  0  0  0  0  0  0  0  0  0
   36.5100   27.1410   33.4780 H   0  0  0  0  0  0  0  0  0  0  0  0
   38.8010   27.6170   32.5700 H   0  0  0  0  0  0  0  0  0  0  0  0
   40.7830   26.8060   33.8840 H   0  0  0  0  0  0  0  0  0  0  0  0
   38.2850   25.0180   37.0560 O   0  0  0  0  0  0  0  0  0  0  0  0
   37.4000   22.6240   36.4750 O   0  0  0  0  0  0  0  0  0  0  0  0
   38.5400   23.3500   37.1950 P   0  0  2  0  0  0  0  0  0  0  0  0
   38.4860   22.8310   38.8020 O   0  0  0  0  0  0  0  0  0  0  0  0
   37.7900   23.3590   39.2640 H   0  0  0  0  0  0  0  0  0  0  0  0
   39.9720   22.8250   36.5030 O   0  0  0  0  0  0  0  0  0  0  0  0
   40.7610   22.0930   37.3570 C   0  0  0  0  0  2  0  0  0  0  0  0
   41.0550   22.6400   38.2700 H   0  0  0  0  0  0  0  0  0  0  0  0
  1  6  1  0  0  0  0
  2  1  2  0  0  0  0
  2  3  1  0  0  0  0
  3  4  2  0  0  0  0
  4  5  1  0  0  0  0
  5 10  1  0  0  0  0
  6  5  2  0  0  0  0
  7  1  1  0  0  0  0
  8  2  1  0  0  0  0
  9  3  1  0  0  0  0
 10 12  1  0  0  0  0
 12 11  2  6  0  0  0
 12 13  1  0  0  0  0
 13 14  1  0  0  0  0
 15 12  1  0  0  0  0
 15 16  1  0  0  0  0
 16 17  1  0  0  0  0
M  END
>  <minimizedAffinity>
-3.54793

$$$$

 OpenBabel03272505443D

 17 17  0  0  0  0  0  0  0  0999 V2000
   37.5060   27.4690   35.2430 C   0  0  0  0  0  0  0  0  0  0  0  0
   38.7970   27.1120   35.6920 C   0  0  0  0  0  0  0  0  0  0  0  0
   39.7790   26.8950   34.7050 C   0  0  0  0  0  0  0  0  0  0  0  0
   39.4370   27.0400   33.4000 N   0  0  0  0  0  0  0  0  0  0  0  0
   38.1930   27.3820   33.0210 C   0  0  0  0  0  0  0  0  0  0  0  0
   37.2230   27.5970   33.9410 N   0  0  0  0  0  0  0  0  0  0  0  0
   36.7460   27.6380   35.9720 H   0  0  0  0  0  0  0  0  0  0  0  0
   39.0530   27.0020   36.7300 H   0  0  0  0  0  0  0  0  0  0  0  0
   40.8070   26.6150   34.9740 H   0  0  0  0  0  0  0  0  0  0  0  0
   38.0410   27.4780   31.6420 O   0  0  0  0  0  0  0  0  0  0  0  0
   35.6740   26.5180   31.0700 O   0  0  0  0  0  0  0  0  0  0  0  0
   36.5640   27.7470   30.8590 P   0  0  2  0  0  0  0  0  0  0  0  0
   36.7510   27.9100   29.1880 O   0  0  0  0  0  0  0  0  0  0  0  0
   37.4610   27.2830   28.9030 H   0  0  0  0  0  0  0  0  0  0  0  0
   35.7210   29.0710   31.4430 O   0  0  0  0  0  0  0  0  0  0  0  0
   36.0790   30.2580   30.8480 C   0  0  0  0  0  2  0  0  0  0  0  0
   37.1480   30.5090   30.9670 H   0  0  0  0  0  0  0  0  0  0  0  0
  1  2  1  0  0  0  0
  1  7  1  0  0  0  0
  2  8  1  0  0  0  0
  3  9  1  0  0  0  0
  3  2  2  0  0  0  0
  4  3  1  0  0  0  0
  5  4  2  0  0  0  0
  5  6  1  0  0  0  0
  6  1  2  0  0  0  0
 10  5  1  0  0  0  0
 12 11  2  1  0  0  0
 12 15  1  0  0  0  0
 12 10  1  0  0  0  0
 13 12  1  0  0  0  0
 14 13  1  0  0  0  0
 16 17  1  0  0  0  0
 16 15  1  0  0  0  0
M  END
>  <minimizedAffinity>
-3.4070096

$$$$

 OpenBabel03272505443D

 17 17  0  0  0  0  0  0  0  0999 V2000
   40.0830   26.6550   34.9300 C   0  0  0  0  0  0  0  0  0  0  0  0
   38.9180   26.9990   35.6500 C   0  0  0  0  0  0  0  0  0  0  0  0
   38.2190   25.9480   36.2760 C   0  0  0  0  0  0  0  0  0  0  0  0
   38.6970   24.6830   36.1550 N   0  0  0  0  0  0  0  0  0  0  0  0
   39.8120   24.4040   35.4570 C   0  0  0  0  0  0  0  0  0  0  0  0
   40.5090   25.3890   34.8420 N   0  0  0  0  0  0  0  0  0  0  0  0
   40.6290   27.4340   34.4480 H   0  0  0  0  0  0  0  0  0  0  0  0
   38.5530   28.0070   35.7370 H   0  0  0  0  0  0  0  0  0  0  0  0
   37.3040   26.1350   36.8550 H   0  0  0  0  0  0  0  0  0  0  0  0
   40.1360   23.0520   35.4500 O   0  0  0  0  0  0  0  0  0  0  0  0
   41.8730   21.1220   35.7820 O   0  0  0  0  0  0  0  0  0  0  0  0
   41.2610   22.3320   36.4920 P   0  0  2  0  0  0  0  0  0  0  0  0
   40.5360   21.7360   37.8960 O   0  0  0  0  0  0  0  0  0  0  0  0
   39.6510   21.3720   37.6450 H   0  0  0  0  0  0  0  0  0  0  0  0
   42.5260   23.3430   36.9220 O   0  0  0  0  0  0  0  0  0  0  0  0
   43.5210   23.4120   35.9760 C   0  0  0  0  0  2  0  0  0  0  0  0
   43.9840   22.4360   35.7450 H   0  0  0  0  0  0  0  0  0  0  0  0
  1  2  1  0  0  0  0
  2  8  1  0  0  0  0
  2  3  2  0  0  0  0
  3  9  1  0  0  0  0
  4  3  1  0  0  0  0
  5  4  2  0  0  0  0
  6  1  2  0  0  0  0
  6  5  1  0  0  0  0
  7  1  1  0  0  0  0
 10  5  1  0  0  0  0
 10 12  1  0  0  0  0
 12 11  2  6  0  0  0
 12 15  1  0  0  0  0
 12 13  1  0  0  0  0
 14 13  1  0  0  0  0
 16 15  1  0  0  0  0
 17 16  1  0  0  0  0
M  END
>  <minimizedAffinity>
-3.32986808

$$$$

 OpenBabel03272505443D

 17 17  0  0  0  0  0  0  0  0999 V2000
   39.9660   22.9480   36.9250 C   0  0  0  0  0  0  0  0  0  0  0  0
   39.3580   22.9430   38.1990 C   0  0  0  0  0  0  0  0  0  0  0  0
   38.2400   23.7820   38.3790 C   0  0  0  0  0  0  0  0  0  0  0  0
   37.8150   24.5360   37.3330 N   0  0  0  0  0  0  0  0  0  0  0  0
   38.4270   24.5070   36.1360 C   0  0  0  0  0  0  0  0  0  0  0  0
   39.5040   23.7130   35.9280 N   0  0  0  0  0  0  0  0  0  0  0  0
   40.8140   22.3210   36.7660 H   0  0  0  0  0  0  0  0  0  0  0  0
   39.7060   22.3390   39.0190 H   0  0  0  0  0  0  0  0  0  0  0  0
   37.7120   23.8330   39.3410 H   0  0  0  0  0  0  0  0  0  0  0  0
   37.8440   25.3490   35.1960 O   0  0  0  0  0  0  0  0  0  0  0  0
   37.6680   27.9410   35.5110 O   0  0  0  0  0  0  0  0  0  0  0  0
   38.4570   26.8650   34.7590 P   0  0  2  0  0  0  0  0  0  0  0  0
   38.2430   27.1890   33.1150 O   0  0  0  0  0  0  0  0  0  0  0  0
   37.3710   26.8080   32.8460 H   0  0  0  0  0  0  0  0  0  0  0  0
   40.0730   27.0780   35.1480 O   0  0  0  0  0  0  0  0  0  0  0  0
   40.9300   26.7970   34.1110 C   0  0  0  0  0  2  0  0  0  0  0  0
   40.8480   25.7620   33.7340 H   0  0  0  0  0  0  0  0  0  0  0  0
  1  2  1  0  0  0  0
  2  3  2  0  0  0  0
  2  8  1  0  0  0  0
  3  9  1  0  0  0  0
  4  3  1  0  0  0  0
  5  4  2  0  0  0  0
  6  5  1  0  0  0  0
  6  1  2  0  0  0  0
  7  1  1  0  0  0  0
 10  5  1  0  0  0  0
 12 15  1  0  0  0  0
 12 10  1  0  0  0  0
 12 11  2  1  0  0  0
 13 12  1  0  0  0  0
 14 13  1  0  0  0  0
 16 15  1  0  0  0  0
 17 16  1  0  0  0  0
M  END
>  <minimizedAffinity>
-3.32872581

$$$$

 OpenBabel03272505443D

 17 17  0  0  0  0  0  0  0  0999 V2000
   35.6620   23.9540   31.3130 C   0  0  0  0  0  0  0  0  0  0  0  0
   35.0580   25.1350   30.8270 C   0  0  0  0  0  0  0  0  0  0  0  0
   35.5620   26.3580   31.3130 C   0  0  0  0  0  0  0  0  0  0  0  0
   36.5840   26.3350   32.2050 N   0  0  0  0  0  0  0  0  0  0  0  0
   37.1280   25.1840   32.6390 C   0  0  0  0  0  0  0  0  0  0  0  0
   36.6690   23.9900   32.1950 N   0  0  0  0  0  0  0  0  0  0  0  0
   35.2970   23.0170   30.9600 H   0  0  0  0  0  0  0  0  0  0  0  0
   34.2480   25.1370   30.1190 H   0  0  0  0  0  0  0  0  0  0  0  0
   35.1450   27.3190   30.9820 H   0  0  0  0  0  0  0  0  0  0  0  0
   38.1620   25.3690   33.5500 O   0  0  0  0  0  0  0  0  0  0  0  0
   37.6970   25.2760   36.1240 O   0  0  0  0  0  0  0  0  0  0  0  0
   38.0230   26.2510   34.9890 P   0  0  2  0  0  0  0  0  0  0  0  0
   36.7450   27.3550   34.9370 O   0  0  0  0  0  0  0  0  0  0  0  0
   36.0060   26.9340   34.4320 H   0  0  0  0  0  0  0  0  0  0  0  0
   39.4230   27.0610   35.4220 O   0  0  0  0  0  0  0  0  0  0  0  0
   40.5210   26.7000   34.6780 C   0  0  0  0  0  2  0  0  0  0  0  0
   40.7670   25.6250   34.7420 H   0  0  0  0  0  0  0  0  0  0  0  0
  1  6  1  0  0  0  0
  2  3  1  0  0  0  0
  2  1  2  0  0  0  0
  3  4  2  0  0  0  0
  4  5  1  0  0  0  0
  5 10  1  0  0  0  0
  6  5  2  0  0  0  0
  7  1  1  0  0  0  0
  8  2  1  0  0  0  0
  9  3  1  0  0  0  0
 10 12  1  0  0  0  0
 12 15  1  0  0  0  0
 12 11  2  1  0  0  0
 13 12  1  0  0  0  0
 14 13  1  0  0  0  0
 16 17  1  0  0  0  0
 16 15  1  0  0  0  0
M  END
>  <minimizedAffinity>
-3.28094006

$$$$

 OpenBabel03272505443D

 17 17  0  0  0  0  0  0  0  0999 V2000
   36.0490   23.1420   31.4460 C   0  0  0  0  0  0  0  0  0  0  0  0
   35.5960   21.8040   31.4420 C   0  0  0  0  0  0  0  0  0  0  0  0
   36.1320   20.9440   32.4220 C   0  0  0  0  0  0  0  0  0  0  0  0
   37.0370   21.4410   33.3020 N   0  0  0  0  0  0  0  0  0  0  0  0
   37.4380   22.7250   33.2670 C   0  0  0  0  0  0  0  0  0  0  0  0
   36.9450   23.5790   32.3390 N   0  0  0  0  0  0  0  0  0  0  0  0
   35.6570   23.8110   30.7140 H   0  0  0  0  0  0  0  0  0  0  0  0
   34.8770   21.4250   30.7370 H   0  0  0  0  0  0  0  0  0  0  0  0
   35.8300   19.8900   32.4830 H   0  0  0  0  0  0  0  0  0  0  0  0
   38.3700   23.0400   34.2490 O   0  0  0  0  0  0  0  0  0  0  0  0
   39.4770   22.2330   36.4800 O   0  0  0  0  0  0  0  0  0  0  0  0
   38.1540   22.7460   35.9030 P   0  0  2  0  0  0  0  0  0  0  0  0
   37.0150   21.5310   36.1890 O   0  0  0  0  0  0  0  0  0  0  0  0
   37.1190   20.8510   35.4800 H   0  0  0  0  0  0  0  0  0  0  0  0
   37.7280   24.1070   36.7820 O   0  0  0  0  0  0  0  0  0  0  0  0
   38.0150   24.0080   38.1220 C   0  0  0  0  0  2  0  0  0  0  0  0
   37.5120   23.1620   38.6230 H   0  0  0  0  0  0  0  0  0  0  0  0
  1  6  1  0  0  0  0
  2  1  2  0  0  0  0
  2  3  1  0  0  0  0
  3  9  1  0  0  0  0
  3  4  2  0  0  0  0
  5  4  1  0  0  0  0
  5 10  1  0  0  0  0
  6  5  2  0  0  0  0
  7  1  1  0  0  0  0
  8  2  1  0  0  0  0
 10 12  1  0  0  0  0
 12 13  1  0  0  0  0
 12 11  2  1  0  0  0
 12 15  1  0  0  0  0
 14 13  1  0  0  0  0
 15 16  1  0  0  0  0
 16 17  1  0  0  0  0
M  END
>  <minimizedAffinity>
-3.27948976

$$$$
