
 OpenBabel03272507253D

 26 27  0  0  1  0  0  0  0  0999 V2000
   36.6120   30.0010   49.3590 C   0  0  0  0  0  0  0  0  0  0  0  0
   37.6270   30.6690   48.6530 C   0  0  0  0  0  0  0  0  0  0  0  0
   37.4370   30.9260   47.2860 C   0  0  0  0  0  0  0  0  0  0  0  0
   36.2820   30.5120   46.7270 N   0  0  0  0  0  0  0  0  0  0  0  0
   35.3170   29.8690   47.4300 C   0  0  0  0  0  0  0  0  0  0  0  0
   35.4980   29.6220   48.7400 N   0  0  0  0  0  0  0  0  0  0  0  0
   38.4110   31.5850   46.5250 N   0  0  0  0  0  0  0  0  0  0  0  0
   39.3760   32.5510   47.0660 C   0  0  0  0  0  0  0  0  0  0  0  0
   40.0950   33.1240   45.8890 C   0  0  0  0  0  0  0  0  0  0  0  0
   39.1060   32.8880   44.7830 C   0  0  0  0  0  0  0  0  0  0  0  0
   38.6760   31.4720   45.1300 C   0  0  2  0  0  0  0  0  0  0  0  0
   36.7410   29.7940   50.4140 H   0  0  0  0  0  0  0  0  0  0  0  0
   38.5330   30.9760   49.1590 H   0  0  0  0  0  0  0  0  0  0  0  0
   34.4290   29.5900   46.8500 H   0  0  0  0  0  0  0  0  0  0  0  0
   38.9130   33.2750   47.7400 H   0  0  0  0  0  0  0  0  0  0  0  0
   40.1310   31.9060   47.6000 H   0  0  0  0  0  0  0  0  0  0  0  0
   41.0380   32.6340   45.6200 H   0  0  0  0  0  0  0  0  0  0  0  0
   40.2610   34.2080   46.1060 H   0  0  0  0  0  0  0  0  0  0  0  0
   38.2320   33.5430   44.8440 H   0  0  0  0  0  0  0  0  0  0  0  0
   39.5850   32.9460   43.7760 H   0  0  0  0  0  0  0  0  0  0  0  0
   37.6030   30.9770   44.2450 C   0  0  0  0  0  0  0  0  0  0  0  0
   36.5270   31.8500   44.3960 F   0  0  0  0  0  0  0  0  0  0  0  0
   37.1390   29.7260   44.5210 F   0  0  0  0  0  0  0  0  0  0  0  0
   38.0370   31.1460   42.9440 F   0  0  0  0  0  0  0  0  0  0  0  0
   39.8590   30.5120   44.9980 C   0  0  0  0  0  0  0  0  0  0  0  0
   39.6570   29.8710   44.1100 H   0  0  0  0  0  0  0  0  0  0  0  0
  1 12  1  0  0  0  0
  2 13  1  0  0  0  0
  2  1  2  0  0  0  0
  3  2  1  0  0  0  0
  4  3  2  0  0  0  0
  4  5  1  0  0  0  0
  5  6  2  0  0  0  0
  6  1  1  0  0  0  0
  7  8  1  0  0  0  0
  7  3  1  0  0  0  0
  8 16  1  0  0  0  0
  8 15  1  0  0  0  0
  9 18  1  0  0  0  0
  9  8  1  0  0  0  0
 10 19  1  0  0  0  0
 10 11  1  0  0  0  0
 10  9  1  0  0  0  0
 11 25  1  6  0  0  0
 11  7  1  0  0  0  0
 14  5  1  0  0  0  0
 17  9  1  0  0  0  0
 20 10  1  0  0  0  0
 21 22  1  0  0  0  0
 21 23  1  0  0  0  0
 21 11  1  0  0  0  0
 24 21  1  0  0  0  0
 26 25  1  0  0  0  0
M  END
>  <minimizedAffinity>
-4.47873163

>  <minimizedRMSD>
2.53909421

$$$$
