
 OpenBabel03272509003D

 21 22  0  0  0  0  0  0  0  0999 V2000
   38.0070   23.5910   33.5290 Cl  0  0  0  0  0  0  0  0  0  0  0  0
   37.8940   25.1960   34.2000 C   0  0  0  0  0  0  0  0  0  0  0  0
   38.5150   25.4750   35.4010 C   0  0  0  0  0  0  0  0  0  0  0  0
   38.4530   26.7190   35.9660 C   0  0  0  0  0  0  0  0  0  0  0  0
   37.7630   27.7380   35.3440 C   0  0  0  0  0  0  0  0  0  0  0  0
   37.1280   27.4950   34.1420 C   0  0  0  0  0  0  0  0  0  0  0  0
   36.2190   28.6970   33.2480 Cl  0  0  0  0  0  0  0  0  0  0  0  0
   37.2180   26.2210   33.6060 C   0  0  0  0  0  0  0  0  0  0  0  0
   38.9340   26.9670   36.9130 H   0  0  0  0  0  0  0  0  0  0  0  0
   37.6860   28.7430   35.7550 H   0  0  0  0  0  0  0  0  0  0  0  0
   41.1050   23.0160   36.2650 C   0  0  0  0  0  0  0  0  0  0  0  0
   40.6020   22.4160   37.4190 C   0  0  0  0  0  0  0  0  0  0  0  0
   39.3480   22.8730   37.8990 C   0  0  0  0  0  0  0  0  0  0  0  0
   38.7310   23.8610   37.2010 N   0  0  0  0  0  0  0  0  0  0  0  0
   39.2510   24.4210   36.0820 C   0  0  0  0  0  0  0  0  0  0  0  0
   40.4340   23.9810   35.6380 N   0  0  0  0  0  0  0  0  0  0  0  0
   42.0620   22.6160   35.9610 H   0  0  0  0  0  0  0  0  0  0  0  0
   41.0190   21.6420   38.0220 H   0  0  0  0  0  0  0  0  0  0  0  0
   38.8010   22.5420   38.7600 H   0  0  0  0  0  0  0  0  0  0  0  0
   36.5360   25.9270   32.2960 C   0  0  0  0  0  2  0  0  0  0  0  0
   35.6920   26.6160   32.1050 H   0  0  0  0  0  0  0  0  0  0  0  0
  1  2  1  0  0  0  0
  2  3  1  0  0  0  0
  3  4  2  0  0  0  0
  3 15  1  0  0  0  0
  4  9  1  0  0  0  0
  5 10  1  0  0  0  0
  5  4  1  0  0  0  0
  6  5  2  0  0  0  0
  7  6  1  0  0  0  0
  8  6  1  0  0  0  0
  8  2  2  0  0  0  0
 11 12  1  0  0  0  0
 12 13  2  0  0  0  0
 12 18  1  0  0  0  0
 13 19  1  0  0  0  0
 14 13  1  0  0  0  0
 15 14  2  0  0  0  0
 16 15  1  0  0  0  0
 16 11  2  0  0  0  0
 17 11  1  0  0  0  0
 20  8  1  0  0  0  0
 21 20  1  0  0  0  0
M  END
>  <minimizedAffinity>
-4.58306026

$$$$

 OpenBabel03272509003D

 21 22  0  0  0  0  0  0  0  0999 V2000
   37.9810   23.5650   33.5860 Cl  0  0  0  0  0  0  0  0  0  0  0  0
   37.8800   25.1820   34.2300 C   0  0  0  0  0  0  0  0  0  0  0  0
   38.4970   25.4730   35.4310 C   0  0  0  0  0  0  0  0  0  0  0  0
   38.4450   26.7260   35.9760 C   0  0  0  0  0  0  0  0  0  0  0  0
   37.7690   27.7420   35.3330 C   0  0  0  0  0  0  0  0  0  0  0  0
   37.1390   27.4870   34.1320 C   0  0  0  0  0  0  0  0  0  0  0  0
   36.2480   28.6850   33.2130 Cl  0  0  0  0  0  0  0  0  0  0  0  0
   37.2180   26.2040   33.6170 C   0  0  0  0  0  0  0  0  0  0  0  0
   38.9230   26.9840   36.9210 H   0  0  0  0  0  0  0  0  0  0  0  0
   37.7000   28.7550   35.7290 H   0  0  0  0  0  0  0  0  0  0  0  0
   39.3860   22.8650   37.8620 C   0  0  0  0  0  0  0  0  0  0  0  0
   40.6350   22.4320   37.4210 C   0  0  0  0  0  0  0  0  0  0  0  0
   41.1720   23.0550   36.2660 C   0  0  0  0  0  0  0  0  0  0  0  0
   40.4310   24.0270   35.6750 N   0  0  0  0  0  0  0  0  0  0  0  0
   39.2180   24.4220   36.1320 C   0  0  0  0  0  0  0  0  0  0  0  0
   38.7220   23.8270   37.2230 N   0  0  0  0  0  0  0  0  0  0  0  0
   39.0430   22.3450   38.7460 H   0  0  0  0  0  0  0  0  0  0  0  0
   41.2770   21.6820   37.8240 H   0  0  0  0  0  0  0  0  0  0  0  0
   42.1080   22.8640   35.7770 H   0  0  0  0  0  0  0  0  0  0  0  0
   36.5420   25.8970   32.3070 C   0  0  0  0  0  2  0  0  0  0  0  0
   35.7060   26.5910   32.1000 H   0  0  0  0  0  0  0  0  0  0  0  0
  1  2  1  0  0  0  0
  2  3  1  0  0  0  0
  3  4  2  0  0  0  0
  3 15  1  0  0  0  0
  4  9  1  0  0  0  0
  5 10  1  0  0  0  0
  5  4  1  0  0  0  0
  6  5  2  0  0  0  0
  7  6  1  0  0  0  0
  8  6  1  0  0  0  0
  8  2  2  0  0  0  0
 11 17  1  0  0  0  0
 12 18  1  0  0  0  0
 12 11  1  0  0  0  0
 13 12  2  0  0  0  0
 14 15  2  0  0  0  0
 14 13  1  0  0  0  0
 15 16  1  0  0  0  0
 16 11  2  0  0  0  0
 19 13  1  0  0  0  0
 20  8  1  0  0  0  0
 21 20  1  0  0  0  0
M  END
>  <minimizedAffinity>
-4.56974697

$$$$

 OpenBabel03272509003D

 21 22  0  0  0  0  0  0  0  0999 V2000
   38.6800   23.7130   33.5380 Cl  0  0  0  0  0  0  0  0  0  0  0  0
   37.4790   22.4670   33.7430 C   0  0  0  0  0  0  0  0  0  0  0  0
   37.2650   21.9300   34.9970 C   0  0  0  0  0  0  0  0  0  0  0  0
   36.3350   20.9500   35.2060 C   0  0  0  0  0  0  0  0  0  0  0  0
   35.5770   20.4680   34.1600 C   0  0  0  0  0  0  0  0  0  0  0  0
   35.7640   20.9800   32.8920 C   0  0  0  0  0  0  0  0  0  0  0  0
   34.8710   20.4580   31.4770 Cl  0  0  0  0  0  0  0  0  0  0  0  0
   36.7170   21.9710   32.7260 C   0  0  0  0  0  0  0  0  0  0  0  0
   36.1450   20.5090   36.1860 H   0  0  0  0  0  0  0  0  0  0  0  0
   34.8250   19.6890   34.2790 H   0  0  0  0  0  0  0  0  0  0  0  0
   40.0540   22.5570   37.3050 C   0  0  0  0  0  0  0  0  0  0  0  0
   39.4840   23.3760   38.2780 C   0  0  0  0  0  0  0  0  0  0  0  0
   38.1150   23.7130   38.1280 C   0  0  0  0  0  0  0  0  0  0  0  0
   37.4610   23.2130   37.0480 N   0  0  0  0  0  0  0  0  0  0  0  0
   38.0490   22.4180   36.1210 C   0  0  0  0  0  0  0  0  0  0  0  0
   39.3410   22.1070   36.2740 N   0  0  0  0  0  0  0  0  0  0  0  0
   41.0990   22.3440   37.4870 H   0  0  0  0  0  0  0  0  0  0  0  0
   39.9240   23.8080   39.1490 H   0  0  0  0  0  0  0  0  0  0  0  0
   37.5030   24.3240   38.7630 H   0  0  0  0  0  0  0  0  0  0  0  0
   36.9420   22.5490   31.3540 C   0  0  0  0  0  2  0  0  0  0  0  0
   36.6410   21.8470   30.5540 H   0  0  0  0  0  0  0  0  0  0  0  0
  1  2  1  0  0  0  0
  2  3  1  0  0  0  0
  3  4  2  0  0  0  0
  3 15  1  0  0  0  0
  4  9  1  0  0  0  0
  5 10  1  0  0  0  0
  5  4  1  0  0  0  0
  6  5  2  0  0  0  0
  7  6  1  0  0  0  0
  8  6  1  0  0  0  0
  8  2  2  0  0  0  0
 11 17  1  0  0  0  0
 11 12  1  0  0  0  0
 12 18  1  0  0  0  0
 13 12  2  0  0  0  0
 13 19  1  0  0  0  0
 14 13  1  0  0  0  0
 15 16  1  0  0  0  0
 15 14  2  0  0  0  0
 16 11  2  0  0  0  0
 20  8  1  0  0  0  0
 21 20  1  0  0  0  0
M  END
>  <minimizedAffinity>
-4.52503872

$$$$

 OpenBabel03272509003D

 21 22  0  0  0  0  0  0  0  0999 V2000
   38.3670   26.7880   36.0990 Cl  0  0  0  0  0  0  0  0  0  0  0  0
   37.8930   25.9050   34.6730 C   0  0  0  0  0  0  0  0  0  0  0  0
   38.2460   24.5750   34.5500 C   0  0  0  0  0  0  0  0  0  0  0  0
   37.8970   23.8420   33.4500 C   0  0  0  0  0  0  0  0  0  0  0  0
   37.1750   24.4160   32.4250 C   0  0  0  0  0  0  0  0  0  0  0  0
   36.8060   25.7440   32.5130 C   0  0  0  0  0  0  0  0  0  0  0  0
   35.8900   26.5940   31.2850 Cl  0  0  0  0  0  0  0  0  0  0  0  0
   37.1800   26.4470   33.6450 C   0  0  0  0  0  0  0  0  0  0  0  0
   38.1620   22.7910   33.3270 H   0  0  0  0  0  0  0  0  0  0  0  0
   36.8750   23.8720   31.5300 H   0  0  0  0  0  0  0  0  0  0  0  0
   39.1520   23.0290   37.7570 C   0  0  0  0  0  0  0  0  0  0  0  0
   40.5060   22.7380   37.5990 C   0  0  0  0  0  0  0  0  0  0  0  0
   41.1090   23.0850   36.3630 C   0  0  0  0  0  0  0  0  0  0  0  0
   40.3230   23.6730   35.4250 N   0  0  0  0  0  0  0  0  0  0  0  0
   39.0080   23.9410   35.6140 C   0  0  0  0  0  0  0  0  0  0  0  0
   38.4510   23.6100   36.7850 N   0  0  0  0  0  0  0  0  0  0  0  0
   38.7650   22.7360   38.7240 H   0  0  0  0  0  0  0  0  0  0  0  0
   41.1890   22.2810   38.2780 H   0  0  0  0  0  0  0  0  0  0  0  0
   42.1260   22.9440   36.0520 H   0  0  0  0  0  0  0  0  0  0  0  0
   36.7910   27.8970   33.7690 C   0  0  0  0  0  2  0  0  0  0  0  0
   36.6210   28.3660   32.7820 H   0  0  0  0  0  0  0  0  0  0  0  0
  2  1  1  0  0  0  0
  3  2  1  0  0  0  0
  3 15  1  0  0  0  0
  4  3  2  0  0  0  0
  5  6  2  0  0  0  0
  5  4  1  0  0  0  0
  6  8  1  0  0  0  0
  7  6  1  0  0  0  0
  8 20  1  0  0  0  0
  8  2  2  0  0  0  0
  9  4  1  0  0  0  0
 10  5  1  0  0  0  0
 11 17  1  0  0  0  0
 12 11  1  0  0  0  0
 12 18  1  0  0  0  0
 13 12  2  0  0  0  0
 14 15  2  0  0  0  0
 14 13  1  0  0  0  0
 15 16  1  0  0  0  0
 16 11  2  0  0  0  0
 19 13  1  0  0  0  0
 21 20  1  0  0  0  0
M  END
>  <minimizedAffinity>
-4.411551

$$$$

 OpenBabel03272509003D

 21 22  0  0  0  0  0  0  0  0999 V2000
   38.1290   23.1980   33.4750 Cl  0  0  0  0  0  0  0  0  0  0  0  0
   37.1120   24.2840   32.5670 C   0  0  0  0  0  0  0  0  0  0  0  0
   36.1480   23.7660   31.7250 C   0  0  0  0  0  0  0  0  0  0  0  0
   35.3280   24.5790   30.9930 C   0  0  0  0  0  0  0  0  0  0  0  0
   35.4420   25.9510   31.0780 C   0  0  0  0  0  0  0  0  0  0  0  0
   36.3960   26.5040   31.9090 C   0  0  0  0  0  0  0  0  0  0  0  0
   36.6470   28.2270   32.1100 Cl  0  0  0  0  0  0  0  0  0  0  0  0
   37.2040   25.6430   32.6320 C   0  0  0  0  0  0  0  0  0  0  0  0
   34.5580   24.1980   30.3210 H   0  0  0  0  0  0  0  0  0  0  0  0
   34.8110   26.6370   30.5140 H   0  0  0  0  0  0  0  0  0  0  0  0
   36.6350   20.2720   30.7010 C   0  0  0  0  0  0  0  0  0  0  0  0
   35.6790   19.5850   31.4470 C   0  0  0  0  0  0  0  0  0  0  0  0
   34.8570   20.3480   32.3150 C   0  0  0  0  0  0  0  0  0  0  0  0
   35.0620   21.6900   32.3560 N   0  0  0  0  0  0  0  0  0  0  0  0
   36.0030   22.3240   31.6140 C   0  0  0  0  0  0  0  0  0  0  0  0
   36.7720   21.5930   30.7990 N   0  0  0  0  0  0  0  0  0  0  0  0
   37.2220   19.6250   30.0630 H   0  0  0  0  0  0  0  0  0  0  0  0
   35.4550   18.5430   31.4740 H   0  0  0  0  0  0  0  0  0  0  0  0
   34.0740   20.0080   32.9640 H   0  0  0  0  0  0  0  0  0  0  0  0
   38.2530   26.2180   33.5470 C   0  0  0  0  0  2  0  0  0  0  0  0
   38.5600   27.2350   33.2380 H   0  0  0  0  0  0  0  0  0  0  0  0
  2  8  1  0  0  0  0
  2  1  1  0  0  0  0
  3  2  2  0  0  0  0
  4  5  2  0  0  0  0
  4  3  1  0  0  0  0
  5  6  1  0  0  0  0
  6  7  1  0  0  0  0
  6  8  2  0  0  0  0
  8 20  1  0  0  0  0
  9  4  1  0  0  0  0
 10  5  1  0  0  0  0
 11 16  2  0  0  0  0
 11 12  1  0  0  0  0
 12 18  1  0  0  0  0
 12 13  2  0  0  0  0
 13 14  1  0  0  0  0
 13 19  1  0  0  0  0
 15  3  1  0  0  0  0
 15 14  2  0  0  0  0
 16 15  1  0  0  0  0
 17 11  1  0  0  0  0
 21 20  1  0  0  0  0
M  END
>  <minimizedAffinity>
-4.29051161

$$$$

 OpenBabel03272509003D

 21 22  0  0  0  0  0  0  0  0999 V2000
   35.1480   31.4740   32.1920 Cl  0  0  0  0  0  0  0  0  0  0  0  0
   35.8700   29.9500   32.6330 C   0  0  0  0  0  0  0  0  0  0  0  0
   35.8040   29.5220   33.9440 C   0  0  0  0  0  0  0  0  0  0  0  0
   36.3560   28.3340   34.3360 C   0  0  0  0  0  0  0  0  0  0  0  0
   36.9990   27.5240   33.4240 C   0  0  0  0  0  0  0  0  0  0  0  0
   37.0850   27.9210   32.1040 C   0  0  0  0  0  0  0  0  0  0  0  0
   37.8720   26.9890   30.8460 Cl  0  0  0  0  0  0  0  0  0  0  0  0
   36.5120   29.1310   31.7510 C   0  0  0  0  0  0  0  0  0  0  0  0
   36.3190   27.9710   35.3640 H   0  0  0  0  0  0  0  0  0  0  0  0
   37.4540   26.5700   33.6900 H   0  0  0  0  0  0  0  0  0  0  0  0
   35.1810   31.9770   36.6050 C   0  0  0  0  0  0  0  0  0  0  0  0
   33.8000   31.9080   36.7850 C   0  0  0  0  0  0  0  0  0  0  0  0
   33.0810   30.9970   35.9710 C   0  0  0  0  0  0  0  0  0  0  0  0
   33.7880   30.2600   35.0760 N   0  0  0  0  0  0  0  0  0  0  0  0
   35.1330   30.3540   34.9290 C   0  0  0  0  0  0  0  0  0  0  0  0
   35.8000   31.2170   35.7040 N   0  0  0  0  0  0  0  0  0  0  0  0
   35.6600   32.6920   37.2610 H   0  0  0  0  0  0  0  0  0  0  0  0
   33.1730   32.4470   37.4580 H   0  0  0  0  0  0  0  0  0  0  0  0
   32.0260   30.8010   35.9580 H   0  0  0  0  0  0  0  0  0  0  0  0
   36.5900   29.5890   30.3190 C   0  0  0  0  0  2  0  0  0  0  0  0
   37.4470   29.1370   29.7860 H   0  0  0  0  0  0  0  0  0  0  0  0
  1  2  1  0  0  0  0
  2  3  1  0  0  0  0
  3  4  2  0  0  0  0
  3 15  1  0  0  0  0
  4  9  1  0  0  0  0
  5 10  1  0  0  0  0
  5  4  1  0  0  0  0
  6  5  2  0  0  0  0
  7  6  1  0  0  0  0
  8  6  1  0  0  0  0
  8  2  2  0  0  0  0
 11 12  1  0  0  0  0
 11 17  1  0  0  0  0
 12 18  1  0  0  0  0
 13 12  2  0  0  0  0
 14 13  1  0  0  0  0
 15 14  2  0  0  0  0
 15 16  1  0  0  0  0
 16 11  2  0  0  0  0
 19 13  1  0  0  0  0
 20  8  1  0  0  0  0
 21 20  1  0  0  0  0
M  END
>  <minimizedAffinity>
-4.2725873

$$$$

 OpenBabel03272509003D

 21 22  0  0  0  0  0  0  0  0999 V2000
   41.2490   25.1450   34.0190 Cl  0  0  0  0  0  0  0  0  0  0  0  0
   40.6790   24.1630   35.3420 C   0  0  0  0  0  0  0  0  0  0  0  0
   39.4330   24.4100   35.8830 C   0  0  0  0  0  0  0  0  0  0  0  0
   38.9450   23.6650   36.9210 C   0  0  0  0  0  0  0  0  0  0  0  0
   39.6910   22.6380   37.4590 C   0  0  0  0  0  0  0  0  0  0  0  0
   40.9420   22.3640   36.9440 C   0  0  0  0  0  0  0  0  0  0  0  0
   41.9910   21.0900   37.5340 Cl  0  0  0  0  0  0  0  0  0  0  0  0
   41.3960   23.1420   35.8930 C   0  0  0  0  0  0  0  0  0  0  0  0
   37.9650   23.8380   37.3680 H   0  0  0  0  0  0  0  0  0  0  0  0
   39.3430   22.0190   38.2860 H   0  0  0  0  0  0  0  0  0  0  0  0
   37.8250   27.6780   35.4040 C   0  0  0  0  0  0  0  0  0  0  0  0
   37.0630   27.4920   34.2520 C   0  0  0  0  0  0  0  0  0  0  0  0
   37.1100   26.2150   33.6370 C   0  0  0  0  0  0  0  0  0  0  0  0
   37.8940   25.2680   34.2150 N   0  0  0  0  0  0  0  0  0  0  0  0
   38.6220   25.4860   35.3370 C   0  0  0  0  0  0  0  0  0  0  0  0
   38.5690   26.6950   35.9080 N   0  0  0  0  0  0  0  0  0  0  0  0
   37.7380   28.6750   35.8150 H   0  0  0  0  0  0  0  0  0  0  0  0
   36.4270   28.1760   33.7370 H   0  0  0  0  0  0  0  0  0  0  0  0
   36.6010   25.8780   32.7540 H   0  0  0  0  0  0  0  0  0  0  0  0
   42.7570   22.8650   35.3110 C   0  0  0  0  0  2  0  0  0  0  0  0
   43.4240   22.3630   36.0360 H   0  0  0  0  0  0  0  0  0  0  0  0
  1  2  1  0  0  0  0
  2  3  2  0  0  0  0
  2  8  1  0  0  0  0
  3  4  1  0  0  0  0
  4  9  1  0  0  0  0
  4  5  2  0  0  0  0
  5 10  1  0  0  0  0
  6  5  1  0  0  0  0
  6  7  1  0  0  0  0
  8  6  2  0  0  0  0
 11 17  1  0  0  0  0
 11 16  1  0  0  0  0
 12 11  2  0  0  0  0
 13 14  2  0  0  0  0
 13 12  1  0  0  0  0
 14 15  1  0  0  0  0
 15  3  1  0  0  0  0
 15 16  2  0  0  0  0
 18 12  1  0  0  0  0
 19 13  1  0  0  0  0
 20  8  1  0  0  0  0
 20 21  1  0  0  0  0
M  END
>  <minimizedAffinity>
-4.24476576

$$$$

 OpenBabel03272509003D

 21 22  0  0  0  0  0  0  0  0999 V2000
   32.9600   29.2140   33.7230 Cl  0  0  0  0  0  0  0  0  0  0  0  0
   33.8910   30.2620   34.7590 C   0  0  0  0  0  0  0  0  0  0  0  0
   35.2700   30.2160   34.7080 C   0  0  0  0  0  0  0  0  0  0  0  0
   36.0420   31.0190   35.5020 C   0  0  0  0  0  0  0  0  0  0  0  0
   35.4580   31.9040   36.3820 C   0  0  0  0  0  0  0  0  0  0  0  0
   34.0810   31.9760   36.4620 C   0  0  0  0  0  0  0  0  0  0  0  0
   33.2120   33.0550   37.5360 Cl  0  0  0  0  0  0  0  0  0  0  0  0
   33.3390   31.1460   35.6390 C   0  0  0  0  0  0  0  0  0  0  0  0
   37.1320   31.0040   35.4810 H   0  0  0  0  0  0  0  0  0  0  0  0
   36.0310   32.5620   37.0340 H   0  0  0  0  0  0  0  0  0  0  0  0
   36.6910   28.7390   31.6590 C   0  0  0  0  0  0  0  0  0  0  0  0
   37.1500   27.4960   32.0920 C   0  0  0  0  0  0  0  0  0  0  0  0
   36.9630   27.1710   33.4590 C   0  0  0  0  0  0  0  0  0  0  0  0
   36.3500   28.0930   34.2450 N   0  0  0  0  0  0  0  0  0  0  0  0
   35.9160   29.2930   33.7890 C   0  0  0  0  0  0  0  0  0  0  0  0
   36.0980   29.5880   32.4960 N   0  0  0  0  0  0  0  0  0  0  0  0
   36.8680   28.9150   30.6060 H   0  0  0  0  0  0  0  0  0  0  0  0
   37.6380   26.7220   31.5440 H   0  0  0  0  0  0  0  0  0  0  0  0
   37.2440   26.2750   33.9770 H   0  0  0  0  0  0  0  0  0  0  0  0
   31.8360   31.2040   35.7040 C   0  0  0  0  0  2  0  0  0  0  0  0
   31.4770   31.5810   36.6800 H   0  0  0  0  0  0  0  0  0  0  0  0
  1  2  1  0  0  0  0
  2  8  1  0  0  0  0
  3  2  2  0  0  0  0
  3  4  1  0  0  0  0
  4  5  2  0  0  0  0
  5  6  1  0  0  0  0
  5 10  1  0  0  0  0
  6  7  1  0  0  0  0
  8 20  1  0  0  0  0
  8  6  2  0  0  0  0
  9  4  1  0  0  0  0
 11 12  2  0  0  0  0
 11 16  1  0  0  0  0
 12 13  1  0  0  0  0
 13 19  1  0  0  0  0
 13 14  2  0  0  0  0
 15 14  1  0  0  0  0
 15  3  1  0  0  0  0
 16 15  2  0  0  0  0
 17 11  1  0  0  0  0
 18 12  1  0  0  0  0
 20 21  1  0  0  0  0
M  END
>  <minimizedAffinity>
-4.20130825

$$$$

 OpenBabel03272509003D

 21 22  0  0  0  0  0  0  0  0999 V2000
   37.8190   23.3050   33.6780 Cl  0  0  0  0  0  0  0  0  0  0  0  0
   38.7190   24.7960   33.6150 C   0  0  0  0  0  0  0  0  0  0  0  0
   39.2690   25.3060   34.7740 C   0  0  0  0  0  0  0  0  0  0  0  0
   39.9840   26.4720   34.7730 C   0  0  0  0  0  0  0  0  0  0  0  0
   40.1770   27.1750   33.6030 C   0  0  0  0  0  0  0  0  0  0  0  0
   39.6400   26.6960   32.4240 C   0  0  0  0  0  0  0  0  0  0  0  0
   39.8090   27.4880   30.8710 Cl  0  0  0  0  0  0  0  0  0  0  0  0
   38.9250   25.5110   32.4720 C   0  0  0  0  0  0  0  0  0  0  0  0
   40.4290   26.8980   35.6730 H   0  0  0  0  0  0  0  0  0  0  0  0
   40.7380   28.1080   33.5530 H   0  0  0  0  0  0  0  0  0  0  0  0
   37.9430   24.2390   38.0300 C   0  0  0  0  0  0  0  0  0  0  0  0
   38.7820   23.1840   38.3850 C   0  0  0  0  0  0  0  0  0  0  0  0
   39.8200   22.8420   37.4810 C   0  0  0  0  0  0  0  0  0  0  0  0
   39.9200   23.5670   36.3370 N   0  0  0  0  0  0  0  0  0  0  0  0
   39.0840   24.5870   36.0240 C   0  0  0  0  0  0  0  0  0  0  0  0
   38.1090   24.9000   36.8860 N   0  0  0  0  0  0  0  0  0  0  0  0
   37.1780   24.4400   38.7670 H   0  0  0  0  0  0  0  0  0  0  0  0
   38.7720   22.5690   39.2560 H   0  0  0  0  0  0  0  0  0  0  0  0
   40.5600   22.0700   37.5730 H   0  0  0  0  0  0  0  0  0  0  0  0
   38.3280   24.9630   31.2020 C   0  0  0  0  0  2  0  0  0  0  0  0
   38.1540   25.7560   30.4510 H   0  0  0  0  0  0  0  0  0  0  0  0
  2  1  1  0  0  0  0
  2  3  1  0  0  0  0
  3 15  1  0  0  0  0
  4  3  2  0  0  0  0
  4  9  1  0  0  0  0
  5  4  1  0  0  0  0
  6  8  1  0  0  0  0
  6  5  2  0  0  0  0
  7  6  1  0  0  0  0
  8  2  2  0  0  0  0
 10  5  1  0  0  0  0
 11 12  1  0  0  0  0
 11 17  1  0  0  0  0
 12 18  1  0  0  0  0
 13 19  1  0  0  0  0
 13 12  2  0  0  0  0
 14 13  1  0  0  0  0
 15 14  2  0  0  0  0
 15 16  1  0  0  0  0
 16 11  2  0  0  0  0
 20  8  1  0  0  0  0
 21 20  1  0  0  0  0
M  END
>  <minimizedAffinity>
-4.18622017

$$$$
