
 OpenBabel03262521503D

 25 26  0  0  1  0  0  0  0  0999 V2000
   36.9530   27.7880   34.5660 C   0  0  0  0  0  0  0  0  0  0  0  0
   36.6810   27.5940   33.2110 C   0  0  0  0  0  0  0  0  0  0  0  0
   36.9820   26.3240   32.6650 C   0  0  0  0  0  0  0  0  0  0  0  0
   37.5090   25.3960   33.4990 N   0  0  0  0  0  0  0  0  0  0  0  0
   37.7560   25.6210   34.7990 C   0  0  0  0  0  0  0  0  0  0  0  0
   37.4740   26.8200   35.3220 N   0  0  0  0  0  0  0  0  0  0  0  0
   38.3030   24.6120   35.6020 N   0  0  0  0  0  0  0  0  0  0  0  0
   38.0160   24.5170   37.0310 C   0  0  0  0  0  0  0  0  0  0  0  0
   37.4930   23.1580   37.3320 C   0  0  0  0  0  0  0  0  0  0  0  0
   37.7120   22.1480   36.3970 N   0  0  0  0  0  0  0  0  0  0  0  0
   38.7620   22.2610   35.4630 C   0  0  0  0  0  0  0  0  0  0  0  0
   39.1930   23.6060   35.0310 C   0  0  2  0  0  0  0  0  0  0  0  0
   36.7080   28.7830   34.9570 H   0  0  0  0  0  0  0  0  0  0  0  0
   36.2660   28.3190   32.5490 H   0  0  0  0  0  0  0  0  0  0  0  0
   36.8060   26.0790   31.6230 H   0  0  0  0  0  0  0  0  0  0  0  0
   37.2890   25.3140   37.3020 H   0  0  0  0  0  0  0  0  0  0  0  0
   38.9690   24.7280   37.5920 H   0  0  0  0  0  0  0  0  0  0  0  0
   36.3910   23.2420   37.5130 H   0  0  0  0  0  0  0  0  0  0  0  0
   37.9300   22.8500   38.3270 H   0  0  0  0  0  0  0  0  0  0  0  0
   36.8500   21.6950   36.0160 H   0  0  0  0  0  0  0  0  0  0  0  0
   38.4900   21.6220   34.5720 H   0  0  0  0  0  0  0  0  0  0  0  0
   39.6570   21.7520   35.8850 H   0  0  0  0  0  0  0  0  0  0  0  0
   39.1430   23.6780   33.9140 H   0  0  0  0  0  0  0  0  0  0  0  0
   40.6180   23.9650   35.3990 C   0  0  0  0  0  2  0  0  0  0  0  0
   41.1900   22.9980   35.3390 H   0  0  0  0  0  0  0  0  0  0  0  0
  1 13  1  0  0  0  0
  1  6  1  0  0  0  0
  2  1  2  0  0  0  0
  3  2  1  0  0  0  0
  3  4  2  0  0  0  0
  4  5  1  0  0  0  0
  5  6  2  0  0  0  0
  5  7  1  0  0  0  0
  7  8  1  0  0  0  0
  8 16  1  0  0  0  0
  8  9  1  0  0  0  0
  8 17  1  0  0  0  0
  9 18  1  0  0  0  0
  9 19  1  0  0  0  0
 10  9  1  0  0  0  0
 11 22  1  0  0  0  0
 11 10  1  0  0  0  0
 12 23  1  6  0  0  0
 12 24  1  0  0  0  0
 12 11  1  0  0  0  0
 12  7  1  0  0  0  0
 14  2  1  0  0  0  0
 15  3  1  0  0  0  0
 20 10  1  0  0  0  0
 21 11  1  0  0  0  0
 25 24  1  0  0  0  0
M  END
>  <minimizedAffinity>
-4.13933039

$$$$

 OpenBabel03262521503D

 25 26  0  0  1  0  0  0  0  0999 V2000
   41.3730   25.9600   33.7350 C   0  0  0  0  0  0  0  0  0  0  0  0
   40.6280   27.1330   33.8700 C   0  0  0  0  0  0  0  0  0  0  0  0
   39.5000   27.0910   34.7220 C   0  0  0  0  0  0  0  0  0  0  0  0
   39.2310   25.9180   35.3430 N   0  0  0  0  0  0  0  0  0  0  0  0
   39.9720   24.8090   35.1890 C   0  0  0  0  0  0  0  0  0  0  0  0
   41.0410   24.8410   34.3830 N   0  0  0  0  0  0  0  0  0  0  0  0
   39.6340   23.6300   35.8640 N   0  0  0  0  0  0  0  0  0  0  0  0
   40.6400   22.6530   36.2720 C   0  0  0  0  0  0  0  0  0  0  0  0
   40.5080   22.4010   37.7310 C   0  0  0  0  0  0  0  0  0  0  0  0
   39.3190   22.7720   38.3580 N   0  0  0  0  0  0  0  0  0  0  0  0
   38.1380   22.9260   37.6040 C   0  0  0  0  0  0  0  0  0  0  0  0
   38.2420   23.3300   36.1870 C   0  0  2  0  0  0  0  0  0  0  0  0
   42.2390   26.0270   33.0670 H   0  0  0  0  0  0  0  0  0  0  0  0
   40.8340   28.0600   33.3840 H   0  0  0  0  0  0  0  0  0  0  0  0
   38.8620   27.9520   34.8890 H   0  0  0  0  0  0  0  0  0  0  0  0
   41.6460   23.0450   36.0050 H   0  0  0  0  0  0  0  0  0  0  0  0
   40.4760   21.7140   35.6730 H   0  0  0  0  0  0  0  0  0  0  0  0
   41.3580   22.9130   38.2510 H   0  0  0  0  0  0  0  0  0  0  0  0
   40.6890   21.2980   37.8940 H   0  0  0  0  0  0  0  0  0  0  0  0
   39.4190   23.4610   39.1380 H   0  0  0  0  0  0  0  0  0  0  0  0
   37.4640   23.6320   38.1730 H   0  0  0  0  0  0  0  0  0  0  0  0
   37.5840   21.9610   37.6270 H   0  0  0  0  0  0  0  0  0  0  0  0
   37.6280   24.2510   36.0110 H   0  0  0  0  0  0  0  0  0  0  0  0
   37.7310   22.3050   35.1950 C   0  0  0  0  0  2  0  0  0  0  0  0
   36.8720   21.7970   35.7130 H   0  0  0  0  0  0  0  0  0  0  0  0
  1  2  2  0  0  0  0
  1  6  1  0  0  0  0
  2  3  1  0  0  0  0
  3 15  1  0  0  0  0
  3  4  2  0  0  0  0
  5  4  1  0  0  0  0
  5  7  1  0  0  0  0
  6  5  2  0  0  0  0
  7 12  1  0  0  0  0
  7  8  1  0  0  0  0
  8  9  1  0  0  0  0
  9 19  1  0  0  0  0
  9 18  1  0  0  0  0
  9 10  1  0  0  0  0
 10 20  1  0  0  0  0
 11 22  1  0  0  0  0
 11 21  1  0  0  0  0
 11 10  1  0  0  0  0
 12 23  1  6  0  0  0
 12 11  1  0  0  0  0
 13  1  1  0  0  0  0
 14  2  1  0  0  0  0
 16  8  1  0  0  0  0
 17  8  1  0  0  0  0
 24 25  1  0  0  0  0
 24 12  1  0  0  0  0
M  END
>  <minimizedAffinity>
-4.10298729

$$$$

 OpenBabel03262521503D

 25 26  0  0  1  0  0  0  0  0999 V2000
   39.7460   22.8370   37.6590 C   0  0  0  0  0  0  0  0  0  0  0  0
   38.8750   23.2810   38.6550 C   0  0  0  0  0  0  0  0  0  0  0  0
   37.9490   24.2910   38.3040 C   0  0  0  0  0  0  0  0  0  0  0  0
   37.9770   24.7470   37.0300 N   0  0  0  0  0  0  0  0  0  0  0  0
   38.8310   24.2940   36.0970 C   0  0  0  0  0  0  0  0  0  0  0  0
   39.7110   23.3380   36.4230 N   0  0  0  0  0  0  0  0  0  0  0  0
   38.8030   24.8130   34.7970 N   0  0  0  0  0  0  0  0  0  0  0  0
   39.1760   24.0130   33.6340 C   0  0  0  0  0  0  0  0  0  0  0  0
   38.0630   24.0400   32.6490 C   0  0  0  0  0  0  0  0  0  0  0  0
   37.1010   25.0410   32.7710 N   0  0  0  0  0  0  0  0  0  0  0  0
   37.4000   26.2320   33.4630 C   0  0  0  0  0  0  0  0  0  0  0  0
   38.3940   26.1930   34.5550 C   0  0  2  0  0  0  0  0  0  0  0  0
   40.4500   22.0550   37.9640 H   0  0  0  0  0  0  0  0  0  0  0  0
   38.8470   22.9260   39.6600 H   0  0  0  0  0  0  0  0  0  0  0  0
   37.2340   24.6990   39.0110 H   0  0  0  0  0  0  0  0  0  0  0  0
   39.4090   22.9800   33.9720 H   0  0  0  0  0  0  0  0  0  0  0  0
   40.1220   24.4460   33.2030 H   0  0  0  0  0  0  0  0  0  0  0  0
   37.5480   23.0460   32.6790 H   0  0  0  0  0  0  0  0  0  0  0  0
   38.5320   24.0940   31.6220 H   0  0  0  0  0  0  0  0  0  0  0  0
   36.1200   24.7060   32.9040 H   0  0  0  0  0  0  0  0  0  0  0  0
   36.4220   26.6650   33.8260 H   0  0  0  0  0  0  0  0  0  0  0  0
   37.7590   26.9820   32.7230 H   0  0  0  0  0  0  0  0  0  0  0  0
   37.9390   26.6010   35.4950 H   0  0  0  0  0  0  0  0  0  0  0  0
   39.6370   27.0240   34.3120 C   0  0  0  0  0  2  0  0  0  0  0  0
   39.2850   27.9150   33.7220 H   0  0  0  0  0  0  0  0  0  0  0  0
  1 13  1  0  0  0  0
  1  2  1  0  0  0  0
  2 14  1  0  0  0  0
  3  2  2  0  0  0  0
  3 15  1  0  0  0  0
  4  3  1  0  0  0  0
  5  6  1  0  0  0  0
  5  4  2  0  0  0  0
  6  1  2  0  0  0  0
  7  5  1  0  0  0  0
  8 16  1  0  0  0  0
  8  7  1  0  0  0  0
  9 18  1  0  0  0  0
  9 10  1  0  0  0  0
  9  8  1  0  0  0  0
 10 20  1  0  0  0  0
 10 11  1  0  0  0  0
 11 21  1  0  0  0  0
 11 12  1  0  0  0  0
 12  7  1  0  0  0  0
 12 23  1  1  0  0  0
 17  8  1  0  0  0  0
 19  9  1  0  0  0  0
 22 11  1  0  0  0  0
 24 12  1  0  0  0  0
 25 24  1  0  0  0  0
M  END
>  <minimizedAffinity>
-4.08542442

$$$$

 OpenBabel03262521503D

 25 26  0  0  1  0  0  0  0  0999 V2000
   37.2450   23.3500   32.5290 C   0  0  0  0  0  0  0  0  0  0  0  0
   37.4190   22.0630   32.0180 C   0  0  0  0  0  0  0  0  0  0  0  0
   38.2390   21.1770   32.7570 C   0  0  0  0  0  0  0  0  0  0  0  0
   38.7900   21.6460   33.9010 N   0  0  0  0  0  0  0  0  0  0  0  0
   38.5990   22.8940   34.3610 C   0  0  0  0  0  0  0  0  0  0  0  0
   37.8250   23.7370   33.6670 N   0  0  0  0  0  0  0  0  0  0  0  0
   39.2020   23.3100   35.5540 N   0  0  0  0  0  0  0  0  0  0  0  0
   38.5910   24.3120   36.4240 C   0  0  0  0  0  0  0  0  0  0  0  0
   38.4640   23.7520   37.7950 C   0  0  0  0  0  0  0  0  0  0  0  0
   39.2300   22.6340   38.1230 N   0  0  0  0  0  0  0  0  0  0  0  0
   40.3990   22.3370   37.3930 C   0  0  0  0  0  0  0  0  0  0  0  0
   40.4820   22.7500   35.9780 C   0  0  2  0  0  0  0  0  0  0  0  0
   36.6050   24.0100   31.9330 H   0  0  0  0  0  0  0  0  0  0  0  0
   36.9890   21.6870   31.1190 H   0  0  0  0  0  0  0  0  0  0  0  0
   38.4330   20.1580   32.4390 H   0  0  0  0  0  0  0  0  0  0  0  0
   37.6050   24.6000   35.9980 H   0  0  0  0  0  0  0  0  0  0  0  0
   39.2440   25.2290   36.4100 H   0  0  0  0  0  0  0  0  0  0  0  0
   37.3850   23.5070   37.9720 H   0  0  0  0  0  0  0  0  0  0  0  0
   38.6940   24.5900   38.5170 H   0  0  0  0  0  0  0  0  0  0  0  0
   38.6890   21.7920   38.4230 H   0  0  0  0  0  0  0  0  0  0  0  0
   40.5900   21.2290   37.4990 H   0  0  0  0  0  0  0  0  0  0  0  0
   41.2630   22.8020   37.9190 H   0  0  0  0  0  0  0  0  0  0  0  0
   40.7110   21.8590   35.3370 H   0  0  0  0  0  0  0  0  0  0  0  0
   41.5700   23.7600   35.6720 C   0  0  0  0  0  2  0  0  0  0  0  0
   42.4110   23.5070   36.3750 H   0  0  0  0  0  0  0  0  0  0  0  0
  1  6  1  0  0  0  0
  2  1  2  0  0  0  0
  2  3  1  0  0  0  0
  3  4  2  0  0  0  0
  4  5  1  0  0  0  0
  5  7  1  0  0  0  0
  6  5  2  0  0  0  0
  7 12  1  0  0  0  0
  7  8  1  0  0  0  0
  8  9  1  0  0  0  0
  9 18  1  0  0  0  0
  9 10  1  0  0  0  0
  9 19  1  0  0  0  0
 10 20  1  0  0  0  0
 11 21  1  0  0  0  0
 11 22  1  0  0  0  0
 11 10  1  0  0  0  0
 12 23  1  6  0  0  0
 12 11  1  0  0  0  0
 13  1  1  0  0  0  0
 14  2  1  0  0  0  0
 15  3  1  0  0  0  0
 16  8  1  0  0  0  0
 17  8  1  0  0  0  0
 24 12  1  0  0  0  0
 24 25  1  0  0  0  0
M  END
>  <minimizedAffinity>
-3.88437819

$$$$

 OpenBabel03262521503D

 25 26  0  0  1  0  0  0  0  0999 V2000
   35.4930   24.4090   31.1990 C   0  0  0  0  0  0  0  0  0  0  0  0
   35.9020   23.1000   31.4630 C   0  0  0  0  0  0  0  0  0  0  0  0
   36.9750   22.9260   32.3680 C   0  0  0  0  0  0  0  0  0  0  0  0
   37.5210   24.0410   32.9090 N   0  0  0  0  0  0  0  0  0  0  0  0
   37.1010   25.2850   32.6300 C   0  0  0  0  0  0  0  0  0  0  0  0
   36.0850   25.4570   31.7740 N   0  0  0  0  0  0  0  0  0  0  0  0
   37.7140   26.3930   33.2270 N   0  0  0  0  0  0  0  0  0  0  0  0
   36.9860   27.6280   33.5050 C   0  0  0  0  0  0  0  0  0  0  0  0
   37.1340   27.9660   34.9450 C   0  0  0  0  0  0  0  0  0  0  0  0
   38.1660   27.3590   35.6600 N   0  0  0  0  0  0  0  0  0  0  0  0
   39.2880   26.8400   34.9840 C   0  0  0  0  0  0  0  0  0  0  0  0
   39.1250   26.3520   33.5990 C   0  0  2  0  0  0  0  0  0  0  0  0
   34.6610   24.5080   30.4940 H   0  0  0  0  0  0  0  0  0  0  0  0
   35.4760   22.2190   31.0420 H   0  0  0  0  0  0  0  0  0  0  0  0
   37.3610   21.9480   32.6350 H   0  0  0  0  0  0  0  0  0  0  0  0
   35.9210   27.4860   33.2170 H   0  0  0  0  0  0  0  0  0  0  0  0
   37.4070   28.4360   32.8440 H   0  0  0  0  0  0  0  0  0  0  0  0
   36.1640   27.7380   35.4570 H   0  0  0  0  0  0  0  0  0  0  0  0
   37.2420   29.0880   35.0110 H   0  0  0  0  0  0  0  0  0  0  0  0
   37.8660   26.7910   36.4850 H   0  0  0  0  0  0  0  0  0  0  0  0
   39.7370   26.0380   35.6410 H   0  0  0  0  0  0  0  0  0  0  0  0
   40.0740   27.6280   34.9610 H   0  0  0  0  0  0  0  0  0  0  0  0
   39.4830   25.2920   33.5270 H   0  0  0  0  0  0  0  0  0  0  0  0
   39.9160   27.1180   32.5580 C   0  0  0  0  0  2  0  0  0  0  0  0
   40.8620   27.4320   33.0790 H   0  0  0  0  0  0  0  0  0  0  0  0
  1  2  2  0  0  0  0
  1  6  1  0  0  0  0
  2  3  1  0  0  0  0
  3 15  1  0  0  0  0
  3  4  2  0  0  0  0
  5  4  1  0  0  0  0
  5  7  1  0  0  0  0
  6  5  2  0  0  0  0
  7  8  1  0  0  0  0
  7 12  1  0  0  0  0
  8  9  1  0  0  0  0
  9 19  1  0  0  0  0
  9 18  1  0  0  0  0
  9 10  1  0  0  0  0
 10 20  1  0  0  0  0
 11 21  1  0  0  0  0
 11 10  1  0  0  0  0
 12 23  1  6  0  0  0
 12 11  1  0  0  0  0
 13  1  1  0  0  0  0
 14  2  1  0  0  0  0
 16  8  1  0  0  0  0
 17  8  1  0  0  0  0
 22 11  1  0  0  0  0
 24 25  1  0  0  0  0
 24 12  1  0  0  0  0
M  END
>  <minimizedAffinity>
-3.74505496

$$$$

 OpenBabel03262521503D

 25 26  0  0  1  0  0  0  0  0999 V2000
   38.5840   23.3490   38.3970 C   0  0  0  0  0  0  0  0  0  0  0  0
   37.8840   24.0710   37.4290 C   0  0  0  0  0  0  0  0  0  0  0  0
   38.5120   24.2500   36.1740 C   0  0  0  0  0  0  0  0  0  0  0  0
   39.7410   23.7060   36.0080 N   0  0  0  0  0  0  0  0  0  0  0  0
   40.3830   23.0160   36.9650 C   0  0  0  0  0  0  0  0  0  0  0  0
   39.7950   22.8430   38.1560 N   0  0  0  0  0  0  0  0  0  0  0  0
   41.6540   22.4820   36.7220 N   0  0  0  0  0  0  0  0  0  0  0  0
   42.1210   21.2620   37.3750 C   0  0  0  0  0  0  0  0  0  0  0  0
   42.5580   20.2920   36.3370 C   0  0  0  0  0  0  0  0  0  0  0  0
   42.8210   20.7740   35.0560 N   0  0  0  0  0  0  0  0  0  0  0  0
   43.1280   22.1360   34.8600 C   0  0  0  0  0  0  0  0  0  0  0  0
   42.5720   23.1350   35.7940 C   0  0  2  0  0  0  0  0  0  0  0  0
   38.0700   23.2290   39.3570 H   0  0  0  0  0  0  0  0  0  0  0  0
   36.9170   24.5010   37.5520 H   0  0  0  0  0  0  0  0  0  0  0  0
   38.0460   24.7960   35.3600 H   0  0  0  0  0  0  0  0  0  0  0  0
   41.2980   20.8580   38.0050 H   0  0  0  0  0  0  0  0  0  0  0  0
   42.9660   21.5380   38.0670 H   0  0  0  0  0  0  0  0  0  0  0  0
   41.7800   19.4890   36.2620 H   0  0  0  0  0  0  0  0  0  0  0  0
   43.4770   19.7710   36.7380 H   0  0  0  0  0  0  0  0  0  0  0  0
   42.2470   20.3520   34.2920 H   0  0  0  0  0  0  0  0  0  0  0  0
   42.8590   22.3910   33.7930 H   0  0  0  0  0  0  0  0  0  0  0  0
   44.2350   22.2480   34.8840 H   0  0  0  0  0  0  0  0  0  0  0  0
   42.0060   23.9150   35.2210 H   0  0  0  0  0  0  0  0  0  0  0  0
   43.6060   23.8950   36.6010 C   0  0  0  0  0  2  0  0  0  0  0  0
   44.4940   23.9980   35.9180 H   0  0  0  0  0  0  0  0  0  0  0  0
  1 13  1  0  0  0  0
  2 14  1  0  0  0  0
  2  1  2  0  0  0  0
  3  2  1  0  0  0  0
  4  3  2  0  0  0  0
  4  5  1  0  0  0  0
  5  6  2  0  0  0  0
  6  1  1  0  0  0  0
  7  5  1  0  0  0  0
  7  8  1  0  0  0  0
  8 16  1  0  0  0  0
  8 17  1  0  0  0  0
  9 19  1  0  0  0  0
  9  8  1  0  0  0  0
 10  9  1  0  0  0  0
 11 22  1  0  0  0  0
 11 10  1  0  0  0  0
 11 12  1  0  0  0  0
 12 23  1  6  0  0  0
 12 24  1  0  0  0  0
 12  7  1  0  0  0  0
 15  3  1  0  0  0  0
 18  9  1  0  0  0  0
 20 10  1  0  0  0  0
 21 11  1  0  0  0  0
 25 24  1  0  0  0  0
M  END
>  <minimizedAffinity>
-3.7109735

$$$$

 OpenBabel03262521503D

 25 26  0  0  1  0  0  0  0  0999 V2000
   37.8550   24.1350   38.2310 C   0  0  0  0  0  0  0  0  0  0  0  0
   38.9070   23.3040   38.6200 C   0  0  0  0  0  0  0  0  0  0  0  0
   39.7930   22.8640   37.6090 C   0  0  0  0  0  0  0  0  0  0  0  0
   39.5540   23.2840   36.3440 N   0  0  0  0  0  0  0  0  0  0  0  0
   38.5300   24.0850   36.0080 C   0  0  0  0  0  0  0  0  0  0  0  0
   37.6870   24.5050   36.9600 N   0  0  0  0  0  0  0  0  0  0  0  0
   38.3440   24.4790   34.6780 N   0  0  0  0  0  0  0  0  0  0  0  0
   37.7370   25.7600   34.3260 C   0  0  0  0  0  0  0  0  0  0  0  0
   38.6550   26.4990   33.4200 C   0  0  0  0  0  0  0  0  0  0  0  0
   39.6620   25.7820   32.7750 N   0  0  0  0  0  0  0  0  0  0  0  0
   39.5380   24.3890   32.5980 C   0  0  0  0  0  0  0  0  0  0  0  0
   38.7560   23.6110   33.5790 C   0  0  2  0  0  0  0  0  0  0  0  0
   37.1870   24.4570   39.0380 H   0  0  0  0  0  0  0  0  0  0  0  0
   39.1010   22.9700   39.6140 H   0  0  0  0  0  0  0  0  0  0  0  0
   40.6390   22.2160   37.8150 H   0  0  0  0  0  0  0  0  0  0  0  0
   37.5280   26.3240   35.2610 H   0  0  0  0  0  0  0  0  0  0  0  0
   36.7460   25.5510   33.8320 H   0  0  0  0  0  0  0  0  0  0  0  0
   39.1280   27.3280   34.0060 H   0  0  0  0  0  0  0  0  0  0  0  0
   38.0110   27.0170   32.6490 H   0  0  0  0  0  0  0  0  0  0  0  0
   40.6370   26.1010   32.9740 H   0  0  0  0  0  0  0  0  0  0  0  0
   40.5810   23.9690   32.4930 H   0  0  0  0  0  0  0  0  0  0  0  0
   39.0810   24.2060   31.5990 H   0  0  0  0  0  0  0  0  0  0  0  0
   39.3880   22.7830   33.9950 H   0  0  0  0  0  0  0  0  0  0  0  0
   37.5220   22.9340   33.0160 C   0  0  0  0  0  2  0  0  0  0  0  0
   37.7960   22.6520   31.9630 H   0  0  0  0  0  0  0  0  0  0  0  0
  1  2  1  0  0  0  0
  1 13  1  0  0  0  0
  2 14  1  0  0  0  0
  3 15  1  0  0  0  0
  3  2  2  0  0  0  0
  4  3  1  0  0  0  0
  5  4  2  0  0  0  0
  5  6  1  0  0  0  0
  6  1  2  0  0  0  0
  7  5  1  0  0  0  0
  8  7  1  0  0  0  0
  8 16  1  0  0  0  0
  9 18  1  0  0  0  0
  9  8  1  0  0  0  0
 10 20  1  0  0  0  0
 10  9  1  0  0  0  0
 11 10  1  0  0  0  0
 11 12  1  0  0  0  0
 12 23  1  1  0  0  0
 12  7  1  0  0  0  0
 17  8  1  0  0  0  0
 19  9  1  0  0  0  0
 21 11  1  0  0  0  0
 22 11  1  0  0  0  0
 24 12  1  0  0  0  0
 25 24  1  0  0  0  0
M  END
>  <minimizedAffinity>
-3.69086862

$$$$

 OpenBabel03262521503D

 25 26  0  0  1  0  0  0  0  0999 V2000
   37.4770   26.3620   33.6500 C   0  0  0  0  0  0  0  0  0  0  0  0
   37.6470   27.5590   34.3480 C   0  0  0  0  0  0  0  0  0  0  0  0
   38.1460   27.4750   35.6700 C   0  0  0  0  0  0  0  0  0  0  0  0
   38.4220   26.2410   36.1530 N   0  0  0  0  0  0  0  0  0  0  0  0
   38.2460   25.1100   35.4500 C   0  0  0  0  0  0  0  0  0  0  0  0
   37.7740   25.1830   34.2000 N   0  0  0  0  0  0  0  0  0  0  0  0
   38.5540   23.8670   36.0170 N   0  0  0  0  0  0  0  0  0  0  0  0
   39.0050   22.7370   35.2090 C   0  0  0  0  0  0  0  0  0  0  0  0
   40.2950   22.2370   35.7520 C   0  0  0  0  0  0  0  0  0  0  0  0
   40.6490   22.6030   37.0500 N   0  0  0  0  0  0  0  0  0  0  0  0
   39.6590   23.0090   37.9670 C   0  0  0  0  0  0  0  0  0  0  0  0
   38.4320   23.6530   37.4550 C   0  0  2  0  0  0  0  0  0  0  0  0
   37.0890   26.4640   32.6310 H   0  0  0  0  0  0  0  0  0  0  0  0
   37.4320   28.5340   33.9740 H   0  0  0  0  0  0  0  0  0  0  0  0
   38.3110   28.3500   36.2890 H   0  0  0  0  0  0  0  0  0  0  0  0
   39.0980   23.0690   34.1520 H   0  0  0  0  0  0  0  0  0  0  0  0
   38.2060   21.9440   35.2430 H   0  0  0  0  0  0  0  0  0  0  0  0
   41.1130   22.5580   35.0570 H   0  0  0  0  0  0  0  0  0  0  0  0
   40.2720   21.1100   35.6740 H   0  0  0  0  0  0  0  0  0  0  0  0
   41.5510   23.1240   37.1390 H   0  0  0  0  0  0  0  0  0  0  0  0
   40.1620   23.6620   38.7390 H   0  0  0  0  0  0  0  0  0  0  0  0
   39.3390   22.1160   38.5490 H   0  0  0  0  0  0  0  0  0  0  0  0
   38.2910   24.6470   37.9540 H   0  0  0  0  0  0  0  0  0  0  0  0
   37.1530   22.8830   37.7170 C   0  0  0  0  0  2  0  0  0  0  0  0
   37.3130   22.3770   38.7090 H   0  0  0  0  0  0  0  0  0  0  0  0
  1  6  2  0  0  0  0
  1  2  1  0  0  0  0
  2  3  2  0  0  0  0
  3  4  1  0  0  0  0
  3 15  1  0  0  0  0
  5  7  1  0  0  0  0
  5  4  2  0  0  0  0
  6  5  1  0  0  0  0
  7 12  1  0  0  0  0
  8 17  1  0  0  0  0
  8  9  1  0  0  0  0
  8  7  1  0  0  0  0
  9 10  1  0  0  0  0
 10 20  1  0  0  0  0
 10 11  1  0  0  0  0
 11 22  1  0  0  0  0
 11 21  1  0  0  0  0
 12 24  1  0  0  0  0
 12 23  1  1  0  0  0
 12 11  1  0  0  0  0
 13  1  1  0  0  0  0
 14  2  1  0  0  0  0
 16  8  1  0  0  0  0
 18  9  1  0  0  0  0
 19  9  1  0  0  0  0
 24 25  1  0  0  0  0
M  END
>  <minimizedAffinity>
-3.67319894

$$$$

 OpenBabel03262521503D

 25 26  0  0  1  0  0  0  0  0999 V2000
   37.4810   23.3830   31.3850 C   0  0  0  0  0  0  0  0  0  0  0  0
   36.3960   24.1530   30.9660 C   0  0  0  0  0  0  0  0  0  0  0  0
   36.0960   25.3140   31.7170 C   0  0  0  0  0  0  0  0  0  0  0  0
   36.8860   25.5890   32.7820 N   0  0  0  0  0  0  0  0  0  0  0  0
   37.9240   24.8220   33.1550 C   0  0  0  0  0  0  0  0  0  0  0  0
   38.2120   23.7220   32.4490 N   0  0  0  0  0  0  0  0  0  0  0  0
   38.6970   25.1680   34.2690 N   0  0  0  0  0  0  0  0  0  0  0  0
   40.1150   24.8300   34.3650 C   0  0  0  0  0  0  0  0  0  0  0  0
   40.8930   26.0680   34.6300 C   0  0  0  0  0  0  0  0  0  0  0  0
   40.2090   27.1860   35.1060 N   0  0  0  0  0  0  0  0  0  0  0  0
   38.9670   27.0340   35.7550 C   0  0  0  0  0  0  0  0  0  0  0  0
   38.1060   25.8900   35.3920 C   0  0  2  0  0  0  0  0  0  0  0  0
   37.6850   22.4910   30.7820 H   0  0  0  0  0  0  0  0  0  0  0  0
   35.7700   23.9430   30.1290 H   0  0  0  0  0  0  0  0  0  0  0  0
   35.2720   25.9750   31.4680 H   0  0  0  0  0  0  0  0  0  0  0  0
   40.4270   24.3340   33.4200 H   0  0  0  0  0  0  0  0  0  0  0  0
   40.2370   24.0780   35.1940 H   0  0  0  0  0  0  0  0  0  0  0  0
   41.4250   26.3530   33.6860 H   0  0  0  0  0  0  0  0  0  0  0  0
   41.7140   25.7940   35.3560 H   0  0  0  0  0  0  0  0  0  0  0  0
   40.2750   28.0400   34.5080 H   0  0  0  0  0  0  0  0  0  0  0  0
   38.4070   28.0080   35.6440 H   0  0  0  0  0  0  0  0  0  0  0  0
   39.1550   26.9640   36.8500 H   0  0  0  0  0  0  0  0  0  0  0  0
   37.0940   26.2620   35.0840 H   0  0  0  0  0  0  0  0  0  0  0  0
   37.8520   24.9040   36.5140 C   0  0  0  0  0  2  0  0  0  0  0  0
   37.8260   25.5250   37.4510 H   0  0  0  0  0  0  0  0  0  0  0  0
  1  6  1  0  0  0  0
  2  1  2  0  0  0  0
  2  3  1  0  0  0  0
  3  4  2  0  0  0  0
  4  5  1  0  0  0  0
  5  7  1  0  0  0  0
  6  5  2  0  0  0  0
  7  8  1  0  0  0  0
  7 12  1  0  0  0  0
  8  9  1  0  0  0  0
  8 17  1  0  0  0  0
  9 10  1  0  0  0  0
  9 19  1  0  0  0  0
 10 11  1  0  0  0  0
 11 22  1  0  0  0  0
 12 23  1  6  0  0  0
 12 11  1  0  0  0  0
 12 24  1  0  0  0  0
 13  1  1  0  0  0  0
 14  2  1  0  0  0  0
 15  3  1  0  0  0  0
 16  8  1  0  0  0  0
 18  9  1  0  0  0  0
 20 10  1  0  0  0  0
 21 11  1  0  0  0  0
 24 25  1  0  0  0  0
M  END
>  <minimizedAffinity>
-3.65340281

$$$$
