
 OpenBabel03262521493D

 25 26  0  0  1  0  0  0  0  0999 V2000
   37.2490   29.2620   50.4960 C   0  0  0  0  0  0  0  0  0  0  0  0
   37.3740   30.6190   50.8020 C   0  0  0  0  0  0  0  0  0  0  0  0
   36.5840   31.5270   50.0580 C   0  0  0  0  0  0  0  0  0  0  0  0
   35.7670   31.0100   49.1100 N   0  0  0  0  0  0  0  0  0  0  0  0
   35.6730   29.6970   48.8440 C   0  0  0  0  0  0  0  0  0  0  0  0
   36.4190   28.8320   49.5440 N   0  0  0  0  0  0  0  0  0  0  0  0
   34.8060   29.2350   47.8480 N   0  0  0  0  0  0  0  0  0  0  0  0
   34.1720   27.9210   47.9190 C   0  0  0  0  0  0  0  0  0  0  0  0
   32.7000   28.0840   47.7940 C   0  0  0  0  0  0  0  0  0  0  0  0
   32.2130   29.2820   47.2740 N   0  0  0  0  0  0  0  0  0  0  0  0
   33.0380   30.0940   46.4690 C   0  0  0  0  0  0  0  0  0  0  0  0
   34.4990   30.0620   46.6850 C   0  0  2  0  0  0  0  0  0  0  0  0
   37.8750   28.5870   51.0900 H   0  0  0  0  0  0  0  0  0  0  0  0
   38.0150   31.0320   51.5470 H   0  0  0  0  0  0  0  0  0  0  0  0
   36.6130   32.5990   50.2240 H   0  0  0  0  0  0  0  0  0  0  0  0
   34.4590   27.4380   48.8780 H   0  0  0  0  0  0  0  0  0  0  0  0
   34.5910   27.2880   47.0870 H   0  0  0  0  0  0  0  0  0  0  0  0
   32.2460   27.9260   48.8060 H   0  0  0  0  0  0  0  0  0  0  0  0
   32.3240   27.2230   47.1680 H   0  0  0  0  0  0  0  0  0  0  0  0
   31.5730   29.8170   47.9030 H   0  0  0  0  0  0  0  0  0  0  0  0
   32.6450   31.1500   46.5420 H   0  0  0  0  0  0  0  0  0  0  0  0
   32.8600   29.8220   45.4050 H   0  0  0  0  0  0  0  0  0  0  0  0
   34.8760   31.1010   46.8750 H   0  0  0  0  0  0  0  0  0  0  0  0
   35.3040   29.5490   45.5080 C   0  0  0  0  0  0  0  0  0  0  0  0
   34.7410   29.8900   44.5950 H   0  0  0  0  0  0  0  0  0  0  0  0
  1  2  1  0  0  0  0
  1 13  1  0  0  0  0
  2 14  1  0  0  0  0
  3 15  1  0  0  0  0
  3  2  2  0  0  0  0
  4  3  1  0  0  0  0
  5  4  2  0  0  0  0
  5  6  1  0  0  0  0
  6  1  2  0  0  0  0
  7  8  1  0  0  0  0
  7  5  1  0  0  0  0
  8 16  1  0  0  0  0
  9  8  1  0  0  0  0
  9 18  1  0  0  0  0
 10  9  1  0  0  0  0
 10 20  1  0  0  0  0
 11 21  1  0  0  0  0
 11 12  1  0  0  0  0
 11 10  1  0  0  0  0
 12 23  1  1  0  0  0
 12  7  1  0  0  0  0
 17  8  1  0  0  0  0
 19  9  1  0  0  0  0
 22 11  1  0  0  0  0
 24 12  1  0  0  0  0
 25 24  1  0  0  0  0
M  END
>  <minimizedAffinity>
-4.18361807

>  <minimizedRMSD>
0.474291116

$$$$
