
 OpenBabel03272510263D

 38 41  0  0  1  0  0  0  0  0999 V2000
   36.2270   30.1900   46.8470 C   0  0  0  0  0  0  0  0  0  0  0  0
   37.0690   30.7290   47.7890 C   0  0  0  0  0  0  0  0  0  0  0  0
   38.0720   31.6400   47.4170 C   0  0  0  0  0  0  0  0  0  0  0  0
   38.1670   31.9620   46.0750 C   0  0  0  0  0  0  0  0  0  0  0  0
   39.0450   32.8170   45.4720 N   0  0  0  0  0  0  0  0  0  0  0  0
   38.7420   32.8000   44.1630 C   0  0  0  0  0  0  0  0  0  0  0  0
   37.7330   31.9880   43.9290 N   0  0  0  0  0  0  0  0  0  0  0  0
   37.3330   31.4340   45.1040 C   0  0  0  0  0  0  0  0  0  0  0  0
   36.3430   30.5280   45.5080 C   0  0  0  0  0  0  0  0  0  0  0  0
   35.4520   29.4880   47.1190 H   0  0  0  0  0  0  0  0  0  0  0  0
   38.7480   32.0800   48.1390 H   0  0  0  0  0  0  0  0  0  0  0  0
   39.8040   33.3700   45.9610 H   0  0  0  0  0  0  0  0  0  0  0  0
   35.7000   30.1220   44.7520 H   0  0  0  0  0  0  0  0  0  0  0  0
   37.5090   30.1700   51.4890 C   0  0  0  0  0  0  0  0  0  0  0  0
   37.8110   30.5970   50.2030 C   0  0  0  0  0  0  0  0  0  0  0  0
   36.9250   30.3590   49.1850 C   0  0  0  0  0  0  0  0  0  0  0  0
   35.7580   29.6950   49.5070 N   0  0  0  0  0  0  0  0  0  0  0  0
   35.4660   29.2820   50.7530 C   0  0  0  0  0  0  0  0  0  0  0  0
   36.3320   29.5180   51.7290 N   0  0  0  0  0  0  0  0  0  0  0  0
   38.2240   30.3670   52.2820 H   0  0  0  0  0  0  0  0  0  0  0  0
   38.7080   31.1120   49.9290 H   0  0  0  0  0  0  0  0  0  0  0  0
   34.5330   28.7660   50.9420 H   0  0  0  0  0  0  0  0  0  0  0  0
   39.4580   33.5770   43.2420 O   0  0  0  0  0  0  0  0  0  0  0  0
   39.5940   31.8670   41.7310 N   0  0  0  0  0  0  0  0  0  0  0  0
   39.2180   33.2920   41.8700 C   0  0  1  0  0  0  0  0  0  0  0  0
   37.8130   33.4390   41.5120 C   0  0  0  0  0  0  0  0  0  0  0  0
   37.6590   33.1200   40.1490 O   0  0  0  0  0  0  0  0  0  0  0  0
   38.1110   31.8850   39.7890 C   0  0  0  0  0  0  0  0  0  0  0  0
   39.4960   31.5980   40.3120 C   0  0  2  0  0  0  0  0  0  0  0  0
   40.6130   31.8580   41.9650 H   0  0  0  0  0  0  0  0  0  0  0  0
   39.8580   33.8830   41.1890 H   0  0  0  0  0  0  0  0  0  0  0  0
   37.0030   32.9540   41.9810 H   0  0  0  0  0  0  0  0  0  0  0  0
   37.5770   34.5480   41.5360 H   0  0  0  0  0  0  0  0  0  0  0  0
   38.1160   31.8190   38.7040 H   0  0  0  0  0  0  0  0  0  0  0  0
   37.4440   31.1110   40.2660 H   0  0  0  0  0  0  0  0  0  0  0  0
   40.1810   32.3370   39.8130 H   0  0  0  0  0  0  0  0  0  0  0  0
   39.9390   30.2200   39.9230 C   0  0  0  0  0  2  0  0  0  0  0  0
   39.7260   30.0560   38.8480 H   0  0  0  0  0  0  0  0  0  0  0  0
  1 10  1  0  0  0  0
  1  2  1  0  0  0  0
  2 16  1  0  0  0  0
  3  2  2  0  0  0  0
  3 11  1  0  0  0  0
  4  3  1  0  0  0  0
  5 12  1  0  0  0  0
  5  4  1  0  0  0  0
  6  5  1  0  0  0  0
  7  6  2  0  0  0  0
  7  8  1  0  0  0  0
  8  9  1  0  0  0  0
  8  4  2  0  0  0  0
  9  1  2  0  0  0  0
 13  9  1  0  0  0  0
 14 19  1  0  0  0  0
 14 20  1  0  0  0  0
 15 14  2  0  0  0  0
 16 17  2  0  0  0  0
 16 15  1  0  0  0  0
 17 18  1  0  0  0  0
 18 22  1  0  0  0  0
 18 19  2  0  0  0  0
 21 15  1  0  0  0  0
 23  6  1  0  0  0  0
 24 25  1  0  0  0  0
 24 30  1  0  0  0  0
 25 31  1  6  0  0  0
 25 23  1  0  0  0  0
 26 33  1  0  0  0  0
 26 25  1  0  0  0  0
 26 32  1  0  0  0  0
 27 26  1  0  0  0  0
 28 27  1  0  0  0  0
 28 35  1  0  0  0  0
 28 29  1  0  0  0  0
 29 36  1  6  0  0  0
 29 24  1  0  0  0  0
 34 28  1  0  0  0  0
 37 29  1  0  0  0  0
 38 37  1  0  0  0  0
M  END
>  <minimizedAffinity>
-5.66378546

>  <minimizedRMSD>
0.0354110673

$$$$
