REMARK  Name = 
REMARK  4 active torsions:
REMARK  status: ('A' for Active; 'I' for Inactive)
REMARK    1  A    between atoms: C_2  and  C_12
REMARK    2  A    between atoms: C_6  and  O_16
REMARK    3  A    between atoms: O_16  and  C_18
REMARK    4  A    between atoms: C_22  and  C_37
REMARK                            x       y       z     vdW  Elec       q    Type
REMARK                         _______ _______ _______ _____ _____    ______ ____
ROOT
ATOM      1  C   UNL     1      36.243  30.161  46.853  0.00  0.00    +0.000 A 
ATOM      2  C   UNL     1      37.069  30.721  47.797  0.00  0.00    +0.000 A 
ATOM      3  C   UNL     1      38.062  31.643  47.425  0.00  0.00    +0.000 A 
ATOM      4  C   UNL     1      38.164  31.953  46.081  0.00  0.00    +0.000 A 
ATOM      5  N   UNL     1      39.035  32.814  45.477  0.00  0.00    +0.000 N 
ATOM      6  C   UNL     1      38.744  32.780  44.166  0.00  0.00    +0.000 A 
ATOM      7  N   UNL     1      37.749  31.952  43.931  0.00  0.00    +0.000 NA
ATOM      8  C   UNL     1      37.346  31.404  45.108  0.00  0.00    +0.000 A 
ATOM      9  C   UNL     1      36.366  30.488  45.512  0.00  0.00    +0.000 A 
ATOM     10  H   UNL     1      35.475  29.451  47.125  0.00  0.00    +0.000 HD
ATOM     11  H   UNL     1      38.725  32.099  48.148  0.00  0.00    +0.000 HD
ATOM     12  H   UNL     1      39.782  33.383  45.967  0.00  0.00    +0.000 HD
ATOM     13  H   UNL     1      35.735  30.066  44.755  0.00  0.00    +0.000 HD
ENDROOT
BRANCH   2  16
ATOM     14  C   UNL     1      37.491  30.191  51.503  0.00  0.00    +0.000 A 
ATOM     15  C   UNL     1      37.800  30.606  50.215  0.00  0.00    +0.000 A 
ATOM     16  C   UNL     1      36.917  30.363  49.195  0.00  0.00    +0.000 A 
ATOM     17  N   UNL     1      35.747  29.705  49.518  0.00  0.00    +0.000 NA
ATOM     18  C   UNL     1      35.449  29.303  50.766  0.00  0.00    +0.000 A 
ATOM     19  N   UNL     1      36.311  29.544  51.743  0.00  0.00    +0.000 NA
ATOM     20  H   UNL     1      38.203  30.392  52.298  0.00  0.00    +0.000 HD
ATOM     21  H   UNL     1      38.699  31.117  49.941  0.00  0.00    +0.000 HD
ATOM     22  H   UNL     1      34.513  28.791  50.955  0.00  0.00    +0.000 HD
ENDBRANCH   2  16
BRANCH   6  23
ATOM     23  O   UNL     1      39.457  33.559  43.243  0.00  0.00    +0.000 OA
BRANCH  23  25
ATOM     24  N   UNL     1      39.556  31.857  41.720  0.00  0.00    +0.000 NA
ATOM     25  C   UNL     1      39.201  33.286  41.872  0.00  0.00    +0.000 C 
ATOM     26  C   UNL     1      37.795  33.454  41.527  0.00  0.00    +0.000 C 
ATOM     27  O   UNL     1      37.625  33.146  40.164  0.00  0.00    +0.000 OA
ATOM     28  C   UNL     1      38.057  31.908  39.792  0.00  0.00    +0.000 C 
ATOM     29  C   UNL     1      39.442  31.598  40.301  0.00  0.00    +0.000 C 
ATOM     30  H   UNL     1      40.577  31.832  41.945  0.00  0.00    +0.000 HD
ATOM     31  H   UNL     1      39.843  33.872  41.189  0.00  0.00    +0.000 HD
ATOM     32  H   UNL     1      36.983  32.977  42.000  0.00  0.00    +0.000 HD
ATOM     33  H   UNL     1      37.575  34.566  41.560  0.00  0.00    +0.000 HD
ATOM     34  H   UNL     1      38.051  31.849  38.706  0.00  0.00    +0.000 HD
ATOM     35  H   UNL     1      37.383  31.140  40.270  0.00  0.00    +0.000 HD
ATOM     36  H   UNL     1      40.133  32.331  39.800  0.00  0.00    +0.000 HD
BRANCH  29  37
ATOM     37  C   UNL     1      39.863  30.217  39.899  0.00  0.00    +0.000 C 
ATOM     38  H   UNL     1      40.797  30.277  39.306  0.00  0.00    +0.000 HD
ENDBRANCH  29  37
ENDBRANCH  23  25
ENDBRANCH   6  23
TORSDOF 4
