
     RDKit          3D

 40 43  0  0  0  0  0  0  0  0999 V2000
   36.2427   30.1610   46.8532 C   0  0  0  0  0  0  0  0  0  0  0  0
   37.0685   30.7214   47.7969 C   0  0  0  0  0  0  0  0  0  0  0  0
   38.0617   31.6434   47.4252 C   0  0  0  0  0  0  0  0  0  0  0  0
   38.1639   31.9533   46.0806 C   0  0  0  0  0  0  0  0  0  0  0  0
   39.0348   32.8137   45.4770 N   0  0  0  0  0  0  0  0  0  0  0  0
   38.7440   32.7802   44.1665 C   0  0  0  0  0  0  0  0  0  0  0  0
   37.7494   31.9519   43.9311 N   0  0  0  0  0  0  0  0  0  0  0  0
   37.3458   31.4039   45.1078 C   0  0  0  0  0  0  0  0  0  0  0  0
   36.3661   30.4885   45.5116 C   0  0  0  0  0  0  0  0  0  0  0  0
   37.4911   30.1907   51.5030 C   0  0  0  0  0  0  0  0  0  0  0  0
   37.8000   30.6058   50.2152 C   0  0  0  0  0  0  0  0  0  0  0  0
   36.9170   30.3626   49.1953 C   0  0  0  0  0  0  0  0  0  0  0  0
   35.7474   29.7047   49.5181 N   0  0  0  0  0  0  0  0  0  0  0  0
   35.4490   29.3029   50.7663 C   0  0  0  0  0  0  0  0  0  0  0  0
   36.3109   29.5439   51.7435 N   0  0  0  0  0  0  0  0  0  0  0  0
   39.4568   33.5595   43.2430 O   0  0  0  0  0  0  0  0  0  0  0  0
   39.5561   31.8570   41.7200 N   0  0  0  0  0  0  0  0  0  0  0  0
   39.2007   33.2865   41.8716 C   0  0  1  0  0  0  0  0  0  0  0  0
   37.7950   33.4539   41.5271 C   0  0  0  0  0  0  0  0  0  0  0  0
   37.6251   33.1463   40.1641 O   0  0  0  0  0  0  0  0  0  0  0  0
   38.0574   31.9076   39.7917 C   0  0  0  0  0  0  0  0  0  0  0  0
   39.4418   31.5980   40.3014 C   0  0  2  0  0  0  0  0  0  0  0  0
   35.4751   29.4511   47.1250 H   0  0  0  0  0  0  0  0  0  0  0  0
   38.7253   32.0993   48.1484 H   0  0  0  0  0  0  0  0  0  0  0  0
   39.7818   33.3826   45.9665 H   0  0  0  0  0  0  0  0  0  0  0  0
   35.7352   30.0662   44.7554 H   0  0  0  0  0  0  0  0  0  0  0  0
   38.2028   30.3920   52.2983 H   0  0  0  0  0  0  0  0  0  0  0  0
   38.6990   31.1166   49.9410 H   0  0  0  0  0  0  0  0  0  0  0  0
   34.5134   28.7905   50.9552 H   0  0  0  0  0  0  0  0  0  0  0  0
   40.5765   31.8321   41.9449 H   0  0  0  0  0  0  0  0  0  0  0  0
   39.8426   33.8723   41.1894 H   0  0  0  0  0  0  0  0  0  0  0  0
   36.9832   32.9766   42.0001 H   0  0  0  0  0  0  0  0  0  0  0  0
   37.5751   34.5658   41.5598 H   0  0  0  0  0  0  0  0  0  0  0  0
   38.0506   31.8490   38.7064 H   0  0  0  0  0  0  0  0  0  0  0  0
   37.3826   31.1400   40.2703 H   0  0  0  0  0  0  0  0  0  0  0  0
   40.1327   32.3312   39.8002 H   0  0  0  0  0  0  0  0  0  0  0  0
   39.8632   30.2171   39.8988 C   0  0  0  0  0  0  0  0  0  0  0  0
   40.2948   29.6955   40.7752 H   0  0  0  0  0  0  0  0  0  0  0  0
   40.6821   30.2630   39.1332 H   0  0  0  0  0  0  0  0  0  0  0  0
   39.0391   29.6250   39.4494 H   0  0  0  0  0  0  0  0  0  0  0  0
  1  2  2  0
  2 12  1  0
  3  2  1  0
  4  3  2  0
  5  4  1  0
  6  5  1  0
  7  6  2  0
  7  8  1  0
  8  9  2  0
  8  4  1  0
  9  1  1  0
 10 15  2  0
 11 10  1  0
 12 13  1  0
 12 11  2  0
 13 14  2  0
 14 15  1  0
 16  6  1  0
 17 18  1  0
 18 16  1  0
 19 18  1  0
 20 19  1  0
 21 20  1  0
 21 22  1  0
 22 17  1  0
  1 23  1  0
  3 24  1  0
  5 25  1  0
  9 26  1  0
 10 27  1  0
 11 28  1  0
 14 29  1  0
 17 30  1  0
 18 31  1  6
 19 32  1  0
 19 33  1  0
 21 34  1  0
 21 35  1  0
 22 36  1  6
 37 38  1  0
 37 39  1  0
 37 40  1  0
 22 37  1  0
M  ISO  8  23  14  24  14  25   9  26  14  27  14  28  14  29  14  30   5
M  ISO  7  31  13  32  13  33  13  34  13  35  13  36  13  38   8
M  END
>  <DihAtoms>  (1) 
20,21,36,37

>  <DihDeg>  (1) 
-148.2640117151522

$$$$
