
     RDKit          3D

 43 46  0  0  0  0  0  0  0  0999 V2000
   35.4946   28.9174   49.1503 C   0  0  0  0  0  0  0  0  0  0  0  0
   35.4253   30.1033   48.4056 C   0  0  0  0  0  0  0  0  0  0  0  0
   34.3264   30.2656   47.5621 C   0  0  0  0  0  0  0  0  0  0  0  0
   33.3966   29.2739   47.5123 N   0  0  0  0  0  0  0  0  0  0  0  0
   33.4901   28.1561   48.2327 C   0  0  0  0  0  0  0  0  0  0  0  0
   34.5490   27.9649   49.0665 N   0  0  0  0  0  0  0  0  0  0  0  0
   36.4629   31.0566   48.5476 N   0  0  0  0  0  0  0  0  0  0  0  0
   36.6393   31.7595   49.6615 C   0  0  0  0  0  0  0  0  0  0  0  0
   37.6847   32.6803   49.7243 C   0  0  0  0  0  0  0  0  0  0  0  0
   38.4549   32.7818   48.6080 C   0  0  0  0  0  0  0  0  0  0  0  0
   39.4037   33.6107   48.6504 O   0  0  0  0  0  0  0  0  0  0  0  0
   38.3108   32.1010   47.4833 N   0  0  0  0  0  0  0  0  0  0  0  0
   37.2797   31.2063   47.4486 C   0  0  0  0  0  0  0  0  0  0  0  0
   37.1280   30.5452   46.3765 O   0  0  0  0  0  0  0  0  0  0  0  0
   32.5366   27.1326   48.1832 O   0  0  0  0  0  0  0  0  0  0  0  0
   31.1977   27.5606   48.2511 C   0  0  0  0  0  0  0  0  0  0  0  0
   30.7651   27.7306   49.5686 C   0  0  0  0  0  0  0  0  0  0  0  0
   29.4832   28.1471   49.8388 C   0  0  0  0  0  0  0  0  0  0  0  0
   28.6270   28.3954   48.7757 C   0  0  0  0  0  0  0  0  0  0  0  0
   29.0819   28.2188   47.4943 C   0  0  0  0  0  0  0  0  0  0  0  0
   30.3615   27.8015   47.1835 C   0  0  0  0  0  0  0  0  0  0  0  0
   36.3610   28.7954   49.8122 H   0  0  0  0  0  0  0  0  0  0  0  0
   34.2567   31.1672   46.9846 H   0  0  0  0  0  0  0  0  0  0  0  0
   35.9976   31.6384   50.5181 H   0  0  0  0  0  0  0  0  0  0  0  0
   37.8256   33.2497   50.6301 H   0  0  0  0  0  0  0  0  0  0  0  0
   38.9475   32.2371   46.6657 H   0  0  0  0  0  0  0  0  0  0  0  0
   31.3831   27.5542   50.4443 H   0  0  0  0  0  0  0  0  0  0  0  0
   29.1311   28.2839   50.8512 H   0  0  0  0  0  0  0  0  0  0  0  0
   27.6140   28.7248   48.9822 H   0  0  0  0  0  0  0  0  0  0  0  0
   28.3731   28.4271   46.7082 H   0  0  0  0  0  0  0  0  0  0  0  0
   28.6988   27.4655   44.8700 O   0  0  0  0  0  0  0  0  0  0  0  0
   29.9203   26.8474   44.9218 C   0  0  2  0  0  0  0  0  0  0  0  0
   30.8715   27.5892   45.8421 C   0  0  1  0  0  0  0  0  0  0  0  0
   30.9589   28.8806   45.0085 C   0  0  1  0  0  0  0  0  0  0  0  0
   29.9673   29.3891   44.9906 H   0  0  0  0  0  0  0  0  0  0  0  0
   31.1526   28.4333   43.7019 O   0  0  0  0  0  0  0  0  0  0  0  0
   30.6512   27.1456   43.6048 C   0  0  2  0  0  0  0  0  0  0  0  0
   29.9793   27.0077   42.7415 H   0  0  0  0  0  0  0  0  0  0  0  0
   28.0042   26.9852   45.3948 H   0  0  0  0  0  0  0  0  0  0  0  0
   29.9112   25.7591   45.0613 H   0  0  0  0  0  0  0  0  0  0  0  0
   31.8771   27.1549   45.7519 H   0  0  0  0  0  0  0  0  0  0  0  0
   31.7709   29.5342   45.3148 H   0  0  0  0  0  0  0  0  0  0  0  0
   31.5297   26.4644   43.5758 H   0  0  0  0  0  0  0  0  0  0  0  0
  2  7  1  0
  2  1  2  0
  3  2  1  0
  4  3  2  0
  4  5  1  0
  5  6  2  0
  6  1  1  0
  7  8  1  0
  8  9  2  0
 10 11  2  0
 10  9  1  0
 12 10  1  0
 13 12  1  0
 13  7  1  0
 14 13  2  0
 15  5  1  0
 15 16  1  0
 16 17  2  0
 17 18  1  0
 19 18  2  0
 20 19  1  0
 21 20  2  0
 21 16  1  0
  1 22  1  0
  3 23  1  0
  8 24  1  0
  9 25  1  0
 12 26  1  0
 17 27  1  0
 18 28  1  0
 19 29  1  0
 20 30  1  0
 31 32  1  0
 32 33  1  0
 33 34  1  0
 34 35  1  6
 34 36  1  0
 36 37  1  0
 37 38  1  6
 37 32  1  0
 31 39  1  0
 32 40  1  1
 33 41  1  1
 34 42  1  0
 37 43  1  0
 21 33  1  0
M  ISO  8  22  14  23  14  24  14  25  14  26   9  27  14  28  14  29  14
M  ISO  3  30  14  35  15  38  16
M  END
>  <DihAtoms>  (1) 
19,20,32,31

>  <DihDeg>  (1) 
-89.02511991858424

$$$$
