
 OpenBabel03272500033D

 28 30  0  0  1  0  0  0  0  0999 V2000
   38.3030   24.1530   33.3370 C   0  0  0  0  0  0  0  0  0  0  0  0
   38.5940   24.6170   34.6510 C   0  0  0  0  0  0  0  0  0  0  0  0
   38.0720   25.8420   35.0350 C   0  0  0  0  0  0  0  0  0  0  0  0
   37.3140   26.5410   34.1500 N   0  0  0  0  0  0  0  0  0  0  0  0
   37.0500   26.0930   32.9190 C   0  0  0  0  0  0  0  0  0  0  0  0
   37.5380   24.9080   32.5100 N   0  0  0  0  0  0  0  0  0  0  0  0
   38.7000   23.1990   33.0150 H   0  0  0  0  0  0  0  0  0  0  0  0
   38.2950   26.1910   36.0350 H   0  0  0  0  0  0  0  0  0  0  0  0
   39.4010   23.7860   35.4790 N   0  0  0  0  0  0  0  0  0  0  0  0
   40.7450   23.8150   35.4300 C   0  0  0  0  0  0  0  0  0  0  0  0
   41.5030   22.9900   36.2540 C   0  0  0  0  0  0  0  0  0  0  0  0
   40.7310   22.1820   37.0800 C   0  0  0  0  0  0  0  0  0  0  0  0
   41.3910   21.4080   37.8520 O   0  0  0  0  0  0  0  0  0  0  0  0
   39.3990   22.1220   37.1600 N   0  0  0  0  0  0  0  0  0  0  0  0
   38.7350   22.9580   36.3250 C   0  0  0  0  0  0  0  0  0  0  0  0
   37.4680   22.9210   36.3800 O   0  0  0  0  0  0  0  0  0  0  0  0
   41.2560   24.4790   34.7540 H   0  0  0  0  0  0  0  0  0  0  0  0
   42.5640   22.9670   36.2620 H   0  0  0  0  0  0  0  0  0  0  0  0
   38.9410   21.4790   37.8150 H   0  0  0  0  0  0  0  0  0  0  0  0
   36.9840   27.4090   30.8170 C   0  0  2  0  0  3  0  0  0  0  0  0
   36.2110   26.9240   32.0180 C   0  0  2  0  0  3  0  0  0  0  0  0
   35.7400   28.2040   32.6240 C   0  0  0  0  0  3  0  0  0  0  0  0
   35.8360   28.1420   33.7460 H   0  0  0  0  0  0  0  0  0  0  0  0
   36.5670   29.2330   32.2220 O   0  0  0  0  0  0  0  0  0  0  0  0
   37.3640   28.8190   31.1880 C   0  0  0  0  0  3  0  0  0  0  0  0
   37.3470   29.5100   30.3140 H   0  0  0  0  0  0  0  0  0  0  0  0
   36.2050   27.4670   29.6660 O   0  0  0  0  0  0  0  0  0  0  0  0
   36.2940   26.6560   29.1240 H   0  0  0  0  0  0  0  0  0  0  0  0
  1  2  1  0  0  0  0
  2  3  2  0  0  0  0
  2  9  1  0  0  0  0
  3  8  1  0  0  0  0
  4  3  1  0  0  0  0
  5  4  2  0  0  0  0
  6  5  1  0  0  0  0
  6  1  2  0  0  0  0
  7  1  1  0  0  0  0
  9 15  1  0  0  0  0
 10  9  1  0  0  0  0
 10 11  2  0  0  0  0
 11 18  1  0  0  0  0
 11 12  1  0  0  0  0
 12 14  1  0  0  0  0
 12 13  2  0  0  0  0
 14 19  1  0  0  0  0
 15 16  2  0  0  0  0
 15 14  1  0  0  0  0
 17 10  1  0  0  0  0
 20 27  1  6  0  0  0
 20 25  1  0  0  0  0
 20 21  1  0  0  0  0
 21 22  1  0  0  0  0
 21  5  1  1  0  0  0
 22 23  1  0  0  0  0
 24 22  1  0  0  0  0
 25 24  1  0  0  0  0
 26 25  1  0  0  0  0
 28 27  1  0  0  0  0
M  END
>  <minimizedAffinity>
-5.30376291

$$$$

 OpenBabel03272500033D

 28 30  0  0  1  0  0  0  0  0999 V2000
   37.6700   25.8720   34.0780 C   0  0  0  0  0  0  0  0  0  0  0  0
   37.8830   25.4600   32.7320 C   0  0  0  0  0  0  0  0  0  0  0  0
   38.1620   24.1220   32.5020 C   0  0  0  0  0  0  0  0  0  0  0  0
   38.2200   23.2710   33.5580 N   0  0  0  0  0  0  0  0  0  0  0  0
   38.0180   23.6720   34.8170 C   0  0  0  0  0  0  0  0  0  0  0  0
   37.7440   24.9620   35.0810 N   0  0  0  0  0  0  0  0  0  0  0  0
   37.4510   26.9120   34.2830 H   0  0  0  0  0  0  0  0  0  0  0  0
   38.3230   23.8130   31.4770 H   0  0  0  0  0  0  0  0  0  0  0  0
   37.7940   26.4550   31.7170 N   0  0  0  0  0  0  0  0  0  0  0  0
   38.8450   27.2160   31.3660 C   0  0  0  0  0  0  0  0  0  0  0  0
   38.7230   28.1790   30.3700 C   0  0  0  0  0  0  0  0  0  0  0  0
   37.4460   28.2420   29.8230 C   0  0  0  0  0  0  0  0  0  0  0  0
   37.2930   29.1160   28.9040 O   0  0  0  0  0  0  0  0  0  0  0  0
   36.3770   27.5070   30.1420 N   0  0  0  0  0  0  0  0  0  0  0  0
   36.5810   26.5920   31.1200 C   0  0  0  0  0  0  0  0  0  0  0  0
   35.5820   25.8800   31.4430 O   0  0  0  0  0  0  0  0  0  0  0  0
   39.7990   27.0940   31.8490 H   0  0  0  0  0  0  0  0  0  0  0  0
   39.5130   28.8100   30.0490 H   0  0  0  0  0  0  0  0  0  0  0  0
   35.4820   27.6480   29.6620 H   0  0  0  0  0  0  0  0  0  0  0  0
   37.6320   23.2350   37.2290 C   0  0  2  0  0  3  0  0  0  0  0  0
   38.1000   22.6700   35.9110 C   0  0  2  0  0  3  0  0  0  0  0  0
   39.4870   22.2280   36.2360 C   0  0  0  0  0  3  0  0  0  0  0  0
   40.1720   22.4880   35.3780 H   0  0  0  0  0  0  0  0  0  0  0  0
   39.9500   22.9340   37.3270 O   0  0  0  0  0  0  0  0  0  0  0  0
   38.9140   23.5930   37.9340 C   0  0  0  0  0  3  0  0  0  0  0  0
   38.8610   23.4150   39.0330 H   0  0  0  0  0  0  0  0  0  0  0  0
   36.9640   22.2970   38.0080 O   0  0  0  0  0  0  0  0  0  0  0  0
   35.9940   22.3470   37.8900 H   0  0  0  0  0  0  0  0  0  0  0  0
  1  7  1  0  0  0  0
  1  6  1  0  0  0  0
  2  1  2  0  0  0  0
  3  2  1  0  0  0  0
  3  4  2  0  0  0  0
  4  5  1  0  0  0  0
  5  6  2  0  0  0  0
  8  3  1  0  0  0  0
  9  2  1  0  0  0  0
 10  9  1  0  0  0  0
 10 17  1  0  0  0  0
 11 10  2  0  0  0  0
 12 14  1  0  0  0  0
 12 11  1  0  0  0  0
 13 12  2  0  0  0  0
 14 15  1  0  0  0  0
 15 16  2  0  0  0  0
 15  9  1  0  0  0  0
 18 11  1  0  0  0  0
 19 14  1  0  0  0  0
 20 25  1  0  0  0  0
 20 27  1  1  0  0  0
 21  5  1  6  0  0  0
 21 22  1  0  0  0  0
 21 20  1  0  0  0  0
 22 24  1  0  0  0  0
 23 22  1  0  0  0  0
 24 25  1  0  0  0  0
 25 26  1  0  0  0  0
 28 27  1  0  0  0  0
M  END
>  <minimizedAffinity>
-5.14484549

$$$$

 OpenBabel03272500033D

 28 30  0  0  1  0  0  0  0  0999 V2000
   37.7640   26.4840   34.5080 C   0  0  0  0  0  0  0  0  0  0  0  0
   38.0060   25.1040   34.2560 C   0  0  0  0  0  0  0  0  0  0  0  0
   37.6210   24.5940   33.0260 C   0  0  0  0  0  0  0  0  0  0  0  0
   37.0350   25.4230   32.1240 N   0  0  0  0  0  0  0  0  0  0  0  0
   36.8130   26.7170   32.3740 C   0  0  0  0  0  0  0  0  0  0  0  0
   37.1730   27.2490   33.5560 N   0  0  0  0  0  0  0  0  0  0  0  0
   38.0560   26.9060   35.4610 H   0  0  0  0  0  0  0  0  0  0  0  0
   37.8080   23.5440   32.8380 H   0  0  0  0  0  0  0  0  0  0  0  0
   38.6290   24.3460   35.2870 N   0  0  0  0  0  0  0  0  0  0  0  0
   37.9520   23.9100   36.3640 C   0  0  0  0  0  0  0  0  0  0  0  0
   38.5920   23.1710   37.3540 C   0  0  0  0  0  0  0  0  0  0  0  0
   39.9410   22.9600   37.0940 C   0  0  0  0  0  0  0  0  0  0  0  0
   40.5650   22.2850   37.9800 O   0  0  0  0  0  0  0  0  0  0  0  0
   40.6500   23.3750   36.0400 N   0  0  0  0  0  0  0  0  0  0  0  0
   39.9520   24.0870   35.1220 C   0  0  0  0  0  0  0  0  0  0  0  0
   40.6020   24.4940   34.1120 O   0  0  0  0  0  0  0  0  0  0  0  0
   36.9030   24.1240   36.4780 H   0  0  0  0  0  0  0  0  0  0  0  0
   38.1140   22.7990   38.2250 H   0  0  0  0  0  0  0  0  0  0  0  0
   41.6490   23.1540   35.9610 H   0  0  0  0  0  0  0  0  0  0  0  0
   37.1470   27.9850   30.2670 C   0  0  2  0  0  3  0  0  0  0  0  0
   36.1660   27.5490   31.3280 C   0  0  2  0  0  3  0  0  0  0  0  0
   35.6390   28.8550   31.8210 C   0  0  0  0  0  3  0  0  0  0  0  0
   35.5410   28.8180   32.9440 H   0  0  0  0  0  0  0  0  0  0  0  0
   36.5540   29.8520   31.5470 O   0  0  0  0  0  0  0  0  0  0  0  0
   37.5020   29.3910   30.6720 C   0  0  0  0  0  3  0  0  0  0  0  0
   37.6560   30.0620   29.7950 H   0  0  0  0  0  0  0  0  0  0  0  0
   36.5770   28.0360   29.0000 O   0  0  0  0  0  0  0  0  0  0  0  0
   36.7310   27.2110   28.4960 H   0  0  0  0  0  0  0  0  0  0  0  0
  1  7  1  0  0  0  0
  2  1  1  0  0  0  0
  2  9  1  0  0  0  0
  3  2  2  0  0  0  0
  4  5  2  0  0  0  0
  4  3  1  0  0  0  0
  5  6  1  0  0  0  0
  6  1  2  0  0  0  0
  8  3  1  0  0  0  0
  9 10  1  0  0  0  0
 10 17  1  0  0  0  0
 10 11  2  0  0  0  0
 11 18  1  0  0  0  0
 12 11  1  0  0  0  0
 12 13  2  0  0  0  0
 14 12  1  0  0  0  0
 15  9  1  0  0  0  0
 15 14  1  0  0  0  0
 16 15  2  0  0  0  0
 19 14  1  0  0  0  0
 20 27  1  6  0  0  0
 20 25  1  0  0  0  0
 20 21  1  0  0  0  0
 21 22  1  0  0  0  0
 21  5  1  1  0  0  0
 22 23  1  0  0  0  0
 24 22  1  0  0  0  0
 25 24  1  0  0  0  0
 26 25  1  0  0  0  0
 28 27  1  0  0  0  0
M  END
>  <minimizedAffinity>
-4.9483676

$$$$

 OpenBabel03272500033D

 28 30  0  0  1  0  0  0  0  0999 V2000
   38.0990   24.7080   32.4500 C   0  0  0  0  0  0  0  0  0  0  0  0
   37.8770   26.0970   32.6680 C   0  0  0  0  0  0  0  0  0  0  0  0
   37.6850   26.5230   33.9730 C   0  0  0  0  0  0  0  0  0  0  0  0
   37.7170   25.6080   34.9760 N   0  0  0  0  0  0  0  0  0  0  0  0
   37.9260   24.3070   34.7560 C   0  0  0  0  0  0  0  0  0  0  0  0
   38.1170   23.8540   33.5030 N   0  0  0  0  0  0  0  0  0  0  0  0
   38.2510   24.3510   31.4390 H   0  0  0  0  0  0  0  0  0  0  0  0
   37.5170   27.5810   34.1350 H   0  0  0  0  0  0  0  0  0  0  0  0
   37.8690   26.9500   31.5280 N   0  0  0  0  0  0  0  0  0  0  0  0
   38.9780   27.5710   31.0910 C   0  0  0  0  0  0  0  0  0  0  0  0
   38.9340   28.3980   29.9730 C   0  0  0  0  0  0  0  0  0  0  0  0
   37.6670   28.4890   29.4080 C   0  0  0  0  0  0  0  0  0  0  0  0
   37.5850   29.2400   28.3780 O   0  0  0  0  0  0  0  0  0  0  0  0
   36.5420   27.8900   29.8100 N   0  0  0  0  0  0  0  0  0  0  0  0
   36.6720   27.1010   30.9050 C   0  0  0  0  0  0  0  0  0  0  0  0
   35.6180   26.5210   31.3090 O   0  0  0  0  0  0  0  0  0  0  0  0
   39.9190   27.4390   31.5970 H   0  0  0  0  0  0  0  0  0  0  0  0
   39.7730   28.9150   29.5790 H   0  0  0  0  0  0  0  0  0  0  0  0
   35.6610   28.0360   29.3060 H   0  0  0  0  0  0  0  0  0  0  0  0
   38.8670   23.8560   37.0070 C   0  0  2  0  0  3  0  0  0  0  0  0
   37.9440   23.3770   35.9140 C   0  0  2  0  0  3  0  0  0  0  0  0
   38.4980   22.0260   35.6090 C   0  0  0  0  0  3  0  0  0  0  0  0
   38.4910   21.8640   34.4920 H   0  0  0  0  0  0  0  0  0  0  0  0
   39.8210   21.9730   35.9980 O   0  0  0  0  0  0  0  0  0  0  0  0
   40.1200   23.0510   36.7880 C   0  0  0  0  0  3  0  0  0  0  0  0
   40.6210   22.7710   37.7440 H   0  0  0  0  0  0  0  0  0  0  0  0
   38.3880   23.5630   38.2790 O   0  0  0  0  0  0  0  0  0  0  0  0
   37.8940   24.3140   38.6670 H   0  0  0  0  0  0  0  0  0  0  0  0
  1  2  2  0  0  0  0
  1  6  1  0  0  0  0
  2  3  1  0  0  0  0
  3  8  1  0  0  0  0
  3  4  2  0  0  0  0
  5  4  1  0  0  0  0
  6  5  2  0  0  0  0
  7  1  1  0  0  0  0
  9  2  1  0  0  0  0
 10  9  1  0  0  0  0
 10 17  1  0  0  0  0
 11 10  2  0  0  0  0
 12 14  1  0  0  0  0
 12 11  1  0  0  0  0
 13 12  2  0  0  0  0
 14 15  1  0  0  0  0
 15 16  2  0  0  0  0
 15  9  1  0  0  0  0
 18 11  1  0  0  0  0
 19 14  1  0  0  0  0
 20 27  1  1  0  0  0
 21  5  1  6  0  0  0
 21 20  1  0  0  0  0
 22 21  1  0  0  0  0
 22 24  1  0  0  0  0
 23 22  1  0  0  0  0
 24 25  1  0  0  0  0
 25 20  1  0  0  0  0
 25 26  1  0  0  0  0
 27 28  1  0  0  0  0
M  END
>  <minimizedAffinity>
-4.9121623

$$$$

 OpenBabel03272500033D

 28 30  0  0  1  0  0  0  0  0999 V2000
   38.0580   27.1040   35.7730 C   0  0  0  0  0  0  0  0  0  0  0  0
   38.0750   25.8110   35.1800 C   0  0  0  0  0  0  0  0  0  0  0  0
   37.4600   25.6560   33.9480 C   0  0  0  0  0  0  0  0  0  0  0  0
   36.8720   26.7330   33.3650 N   0  0  0  0  0  0  0  0  0  0  0  0
   36.8640   27.9420   33.9340 C   0  0  0  0  0  0  0  0  0  0  0  0
   37.4510   28.1320   35.1300 N   0  0  0  0  0  0  0  0  0  0  0  0
   38.5320   27.2500   36.7360 H   0  0  0  0  0  0  0  0  0  0  0  0
   37.4750   24.6700   33.5000 H   0  0  0  0  0  0  0  0  0  0  0  0
   38.7250   24.7660   35.8970 N   0  0  0  0  0  0  0  0  0  0  0  0
   38.1680   24.1790   36.9700 C   0  0  0  0  0  0  0  0  0  0  0  0
   38.8310   23.1610   37.6480 C   0  0  0  0  0  0  0  0  0  0  0  0
   40.0700   22.8550   37.0980 C   0  0  0  0  0  0  0  0  0  0  0  0
   40.7120   21.9240   37.6920 O   0  0  0  0  0  0  0  0  0  0  0  0
   40.6590   23.4120   36.0360 N   0  0  0  0  0  0  0  0  0  0  0  0
   39.9470   24.3940   35.4330 C   0  0  0  0  0  0  0  0  0  0  0  0
   40.4840   24.9410   34.4220 O   0  0  0  0  0  0  0  0  0  0  0  0
   37.1980   24.4860   37.3230 H   0  0  0  0  0  0  0  0  0  0  0  0
   38.4440   22.6600   38.4990 H   0  0  0  0  0  0  0  0  0  0  0  0
   41.5850   23.0960   35.7240 H   0  0  0  0  0  0  0  0  0  0  0  0
   35.5020   30.0020   34.1800 C   0  0  2  0  0  3  0  0  0  0  0  0
   36.1980   29.0640   33.2240 C   0  0  2  0  0  3  0  0  0  0  0  0
   35.0820   28.6480   32.3270 C   0  0  0  0  0  3  0  0  0  0  0  0
   35.1710   27.5450   32.1090 H   0  0  0  0  0  0  0  0  0  0  0  0
   33.8790   28.8160   32.9820 O   0  0  0  0  0  0  0  0  0  0  0  0
   34.0610   29.5670   34.1130 C   0  0  0  0  0  3  0  0  0  0  0  0
   33.3520   30.4230   34.1930 H   0  0  0  0  0  0  0  0  0  0  0  0
   35.5660   31.3290   33.7700 O   0  0  0  0  0  0  0  0  0  0  0  0
   36.3120   31.8060   34.1890 H   0  0  0  0  0  0  0  0  0  0  0  0
  1  7  1  0  0  0  0
  2  1  1  0  0  0  0
  2  9  1  0  0  0  0
  3  2  2  0  0  0  0
  4  5  2  0  0  0  0
  4  3  1  0  0  0  0
  5  6  1  0  0  0  0
  6  1  2  0  0  0  0
  8  3  1  0  0  0  0
  9 10  1  0  0  0  0
 10 17  1  0  0  0  0
 10 11  2  0  0  0  0
 11 18  1  0  0  0  0
 12 11  1  0  0  0  0
 12 13  2  0  0  0  0
 14 12  1  0  0  0  0
 15  9  1  0  0  0  0
 15 14  1  0  0  0  0
 16 15  2  0  0  0  0
 19 14  1  0  0  0  0
 20 27  1  6  0  0  0
 21  5  1  1  0  0  0
 21 20  1  0  0  0  0
 22 24  1  0  0  0  0
 22 21  1  0  0  0  0
 23 22  1  0  0  0  0
 24 25  1  0  0  0  0
 25 20  1  0  0  0  0
 25 26  1  0  0  0  0
 27 28  1  0  0  0  0
M  END
>  <minimizedAffinity>
-4.91101408

$$$$

 OpenBabel03272500033D

 28 30  0  0  1  0  0  0  0  0999 V2000
   38.2500   26.8440   33.8610 C   0  0  0  0  0  0  0  0  0  0  0  0
   38.4370   26.2490   32.5820 C   0  0  0  0  0  0  0  0  0  0  0  0
   38.7880   24.9090   32.5370 C   0  0  0  0  0  0  0  0  0  0  0  0
   38.9370   24.2280   33.7030 N   0  0  0  0  0  0  0  0  0  0  0  0
   38.7590   24.8000   34.8970 C   0  0  0  0  0  0  0  0  0  0  0  0
   38.4170   26.0990   34.9820 N   0  0  0  0  0  0  0  0  0  0  0  0
   37.9760   27.8900   33.9220 H   0  0  0  0  0  0  0  0  0  0  0  0
   38.9290   24.4600   31.5620 H   0  0  0  0  0  0  0  0  0  0  0  0
   38.2490   27.0760   31.4370 N   0  0  0  0  0  0  0  0  0  0  0  0
   39.2580   27.7690   30.8820 C   0  0  0  0  0  0  0  0  0  0  0  0
   39.0390   28.5670   29.7630 C   0  0  0  0  0  0  0  0  0  0  0  0
   37.7190   28.5510   29.3290 C   0  0  0  0  0  0  0  0  0  0  0  0
   37.4770   29.2730   28.3030 O   0  0  0  0  0  0  0  0  0  0  0  0
   36.6900   27.8780   29.8510 N   0  0  0  0  0  0  0  0  0  0  0  0
   36.9880   27.1240   30.9370 C   0  0  0  0  0  0  0  0  0  0  0  0
   36.0270   26.4760   31.4530 O   0  0  0  0  0  0  0  0  0  0  0  0
   40.2530   27.7180   31.2910 H   0  0  0  0  0  0  0  0  0  0  0  0
   39.7930   29.1370   29.2800 H   0  0  0  0  0  0  0  0  0  0  0  0
   35.7530   27.9480   29.4370 H   0  0  0  0  0  0  0  0  0  0  0  0
   38.8630   22.5010   35.8250 C   0  0  2  0  0  3  0  0  0  0  0  0
   38.9430   23.9790   36.1210 C   0  0  2  0  0  3  0  0  0  0  0  0
   37.8700   24.1500   37.1430 C   0  0  0  0  0  3  0  0  0  0  0  0
   37.3070   25.1050   36.9360 H   0  0  0  0  0  0  0  0  0  0  0  0
   36.9530   23.1260   37.0230 O   0  0  0  0  0  0  0  0  0  0  0  0
   37.4550   22.1390   36.2170 C   0  0  0  0  0  3  0  0  0  0  0  0
   37.3860   21.1230   36.6700 H   0  0  0  0  0  0  0  0  0  0  0  0
   39.7310   21.7500   36.6100 O   0  0  0  0  0  0  0  0  0  0  0  0
   40.5790   21.5750   36.1530 H   0  0  0  0  0  0  0  0  0  0  0  0
  1  7  1  0  0  0  0
  1  6  1  0  0  0  0
  2  1  2  0  0  0  0
  3  2  1  0  0  0  0
  3  4  2  0  0  0  0
  4  5  1  0  0  0  0
  5  6  2  0  0  0  0
  8  3  1  0  0  0  0
  9  2  1  0  0  0  0
 10 17  1  0  0  0  0
 10  9  1  0  0  0  0
 11 10  2  0  0  0  0
 12 11  1  0  0  0  0
 12 14  1  0  0  0  0
 13 12  2  0  0  0  0
 14 15  1  0  0  0  0
 15  9  1  0  0  0  0
 15 16  2  0  0  0  0
 18 11  1  0  0  0  0
 19 14  1  0  0  0  0
 20 21  1  0  0  0  0
 20 25  1  0  0  0  0
 20 27  1  1  0  0  0
 21  5  1  6  0  0  0
 21 22  1  0  0  0  0
 23 22  1  0  0  0  0
 24 22  1  0  0  0  0
 25 26  1  0  0  0  0
 25 24  1  0  0  0  0
 28 27  1  0  0  0  0
M  END
>  <minimizedAffinity>
-4.82350254

$$$$

 OpenBabel03272500033D

 28 30  0  0  1  0  0  0  0  0999 V2000
   37.7440   26.2690   34.9040 C   0  0  0  0  0  0  0  0  0  0  0  0
   37.6070   25.9660   33.5200 C   0  0  0  0  0  0  0  0  0  0  0  0
   37.7150   24.6390   33.1350 C   0  0  0  0  0  0  0  0  0  0  0  0
   37.9450   23.6950   34.0840 N   0  0  0  0  0  0  0  0  0  0  0  0
   38.0720   23.9950   35.3800 C   0  0  0  0  0  0  0  0  0  0  0  0
   37.9720   25.2710   35.7930 N   0  0  0  0  0  0  0  0  0  0  0  0
   37.6630   27.2990   35.2290 H   0  0  0  0  0  0  0  0  0  0  0  0
   37.6100   24.4130   32.0810 H   0  0  0  0  0  0  0  0  0  0  0  0
   37.3670   27.0510   32.6290 N   0  0  0  0  0  0  0  0  0  0  0  0
   36.1900   27.6980   32.5880 C   0  0  0  0  0  0  0  0  0  0  0  0
   35.9890   28.7540   31.7050 C   0  0  0  0  0  0  0  0  0  0  0  0
   37.1030   29.0290   30.9200 C   0  0  0  0  0  0  0  0  0  0  0  0
   36.9590   29.9930   30.0940 O   0  0  0  0  0  0  0  0  0  0  0  0
   38.2890   28.4130   30.9290 N   0  0  0  0  0  0  0  0  0  0  0  0
   38.4010   27.3970   31.8180 C   0  0  0  0  0  0  0  0  0  0  0  0
   39.5170   26.7930   31.8460 O   0  0  0  0  0  0  0  0  0  0  0  0
   35.3810   27.4100   33.2390 H   0  0  0  0  0  0  0  0  0  0  0  0
   35.0850   29.3020   31.6250 H   0  0  0  0  0  0  0  0  0  0  0  0
   39.0390   28.7110   30.2950 H   0  0  0  0  0  0  0  0  0  0  0  0
   39.0910   23.3740   37.5560 C   0  0  2  0  0  3  0  0  0  0  0  0
   38.3220   22.8970   36.3480 C   0  0  2  0  0  3  0  0  0  0  0  0
   39.2000   21.8080   35.8300 C   0  0  0  0  0  3  0  0  0  0  0  0
   39.2360   21.8630   34.7040 H   0  0  0  0  0  0  0  0  0  0  0  0
   40.4920   22.0110   36.2690 O   0  0  0  0  0  0  0  0  0  0  0  0
   40.5080   22.9610   37.2560 C   0  0  0  0  0  3  0  0  0  0  0  0
   41.0610   22.6390   38.1690 H   0  0  0  0  0  0  0  0  0  0  0  0
   38.6990   22.7370   38.7270 O   0  0  0  0  0  0  0  0  0  0  0  0
   38.0300   23.2540   39.2200 H   0  0  0  0  0  0  0  0  0  0  0  0
  1  7  1  0  0  0  0
  1  6  1  0  0  0  0
  2  1  2  0  0  0  0
  3  2  1  0  0  0  0
  3  4  2  0  0  0  0
  4  5  1  0  0  0  0
  5  6  2  0  0  0  0
  8  3  1  0  0  0  0
  9  2  1  0  0  0  0
 10  9  1  0  0  0  0
 10 17  1  0  0  0  0
 11 10  2  0  0  0  0
 12 14  1  0  0  0  0
 12 11  1  0  0  0  0
 13 12  2  0  0  0  0
 14 15  1  0  0  0  0
 15 16  2  0  0  0  0
 15  9  1  0  0  0  0
 18 11  1  0  0  0  0
 19 14  1  0  0  0  0
 20 27  1  1  0  0  0
 21  5  1  6  0  0  0
 21 20  1  0  0  0  0
 22 24  1  0  0  0  0
 22 21  1  0  0  0  0
 23 22  1  0  0  0  0
 24 25  1  0  0  0  0
 25 20  1  0  0  0  0
 25 26  1  0  0  0  0
 27 28  1  0  0  0  0
M  END
>  <minimizedAffinity>
-4.77504539

$$$$

 OpenBabel03272500033D

 28 30  0  0  1  0  0  0  0  0999 V2000
   37.7150   25.4130   33.1410 C   0  0  0  0  0  0  0  0  0  0  0  0
   38.2240   26.7390   33.2280 C   0  0  0  0  0  0  0  0  0  0  0  0
   38.9250   27.0890   34.3710 C   0  0  0  0  0  0  0  0  0  0  0  0
   39.0940   26.1620   35.3490 N   0  0  0  0  0  0  0  0  0  0  0  0
   38.6090   24.9200   35.2540 C   0  0  0  0  0  0  0  0  0  0  0  0
   37.9240   24.5420   34.1600 N   0  0  0  0  0  0  0  0  0  0  0  0
   37.1630   25.1160   32.2580 H   0  0  0  0  0  0  0  0  0  0  0  0
   39.3110   28.0990   34.4330 H   0  0  0  0  0  0  0  0  0  0  0  0
   37.9770   27.6120   32.1310 N   0  0  0  0  0  0  0  0  0  0  0  0
   38.7950   27.6750   31.0660 C   0  0  0  0  0  0  0  0  0  0  0  0
   38.5240   28.5400   30.0110 C   0  0  0  0  0  0  0  0  0  0  0  0
   37.3640   29.2840   30.1980 C   0  0  0  0  0  0  0  0  0  0  0  0
   37.0800   30.0910   29.2500 O   0  0  0  0  0  0  0  0  0  0  0  0
   36.5250   29.2520   31.2370 N   0  0  0  0  0  0  0  0  0  0  0  0
   36.8620   28.3830   32.2200 C   0  0  0  0  0  0  0  0  0  0  0  0
   36.0820   28.3330   33.2200 O   0  0  0  0  0  0  0  0  0  0  0  0
   39.6750   27.0560   31.0110 H   0  0  0  0  0  0  0  0  0  0  0  0
   39.1300   28.6350   29.1460 H   0  0  0  0  0  0  0  0  0  0  0  0
   35.6950   29.8550   31.2590 H   0  0  0  0  0  0  0  0  0  0  0  0
   38.9440   22.5450   35.8920 C   0  0  2  0  0  3  0  0  0  0  0  0
   38.8420   23.9720   36.3730 C   0  0  2  0  0  3  0  0  0  0  0  0
   37.7210   23.8910   37.3540 C   0  0  0  0  0  3  0  0  0  0  0  0
   37.0600   24.7970   37.2390 H   0  0  0  0  0  0  0  0  0  0  0  0
   36.9320   22.7970   37.0600 O   0  0  0  0  0  0  0  0  0  0  0  0
   37.5730   21.9840   36.1640 C   0  0  0  0  0  3  0  0  0  0  0  0
   37.6050   20.9160   36.4820 H   0  0  0  0  0  0  0  0  0  0  0  0
   39.8630   21.7980   36.6190 O   0  0  0  0  0  0  0  0  0  0  0  0
   40.7420   21.7770   36.1870 H   0  0  0  0  0  0  0  0  0  0  0  0
  1  2  2  0  0  0  0
  1  6  1  0  0  0  0
  2  3  1  0  0  0  0
  3  8  1  0  0  0  0
  3  4  2  0  0  0  0
  5  4  1  0  0  0  0
  6  5  2  0  0  0  0
  7  1  1  0  0  0  0
  9 15  1  0  0  0  0
  9  2  1  0  0  0  0
 10  9  1  0  0  0  0
 11 12  1  0  0  0  0
 11 10  2  0  0  0  0
 12 14  1  0  0  0  0
 13 12  2  0  0  0  0
 14 19  1  0  0  0  0
 14 15  1  0  0  0  0
 15 16  2  0  0  0  0
 17 10  1  0  0  0  0
 18 11  1  0  0  0  0
 20 25  1  0  0  0  0
 20 21  1  0  0  0  0
 20 27  1  1  0  0  0
 21  5  1  6  0  0  0
 21 22  1  0  0  0  0
 23 22  1  0  0  0  0
 24 22  1  0  0  0  0
 25 26  1  0  0  0  0
 25 24  1  0  0  0  0
 28 27  1  0  0  0  0
M  END
>  <minimizedAffinity>
-4.77034473

$$$$

 OpenBabel03272500033D

 28 30  0  0  1  0  0  0  0  0999 V2000
   37.0380   25.6720   32.3090 C   0  0  0  0  0  0  0  0  0  0  0  0
   36.0180   26.4290   31.6680 C   0  0  0  0  0  0  0  0  0  0  0  0
   35.0540   25.7390   30.9510 C   0  0  0  0  0  0  0  0  0  0  0  0
   35.1230   24.3830   30.8920 N   0  0  0  0  0  0  0  0  0  0  0  0
   36.0860   23.6850   31.4990 C   0  0  0  0  0  0  0  0  0  0  0  0
   37.0400   24.3200   32.2050 N   0  0  0  0  0  0  0  0  0  0  0  0
   37.8030   26.1890   32.8750 H   0  0  0  0  0  0  0  0  0  0  0  0
   34.2800   26.3180   30.4640 H   0  0  0  0  0  0  0  0  0  0  0  0
   36.0620   27.8460   31.8090 N   0  0  0  0  0  0  0  0  0  0  0  0
   35.5680   28.4730   32.8910 C   0  0  0  0  0  0  0  0  0  0  0  0
   35.6270   29.8590   32.9970 C   0  0  0  0  0  0  0  0  0  0  0  0
   36.2280   30.4660   31.9000 C   0  0  0  0  0  0  0  0  0  0  0  0
   36.3010   31.7400   31.9580 O   0  0  0  0  0  0  0  0  0  0  0  0
   36.7300   29.8820   30.8090 N   0  0  0  0  0  0  0  0  0  0  0  0
   36.6340   28.5300   30.7850 C   0  0  0  0  0  0  0  0  0  0  0  0
   37.1030   27.9500   29.7590 O   0  0  0  0  0  0  0  0  0  0  0  0
   35.1190   27.9140   33.6940 H   0  0  0  0  0  0  0  0  0  0  0  0
   35.2560   30.4110   33.8230 H   0  0  0  0  0  0  0  0  0  0  0  0
   37.1520   30.4430   30.0600 H   0  0  0  0  0  0  0  0  0  0  0  0
   35.1980   21.5580   32.4190 C   0  0  2  0  0  3  0  0  0  0  0  0
   36.0830   22.2050   31.3810 C   0  0  2  0  0  3  0  0  0  0  0  0
   37.4020   21.5630   31.6540 C   0  0  0  0  0  3  0  0  0  0  0  0
   38.2170   22.3390   31.5750 H   0  0  0  0  0  0  0  0  0  0  0  0
   37.4300   21.1050   32.9550 O   0  0  0  0  0  0  0  0  0  0  0  0
   36.1670   21.1210   33.4850 C   0  0  0  0  0  3  0  0  0  0  0  0
   35.8750   20.1550   33.9580 H   0  0  0  0  0  0  0  0  0  0  0  0
   34.5510   20.4250   31.9400 O   0  0  0  0  0  0  0  0  0  0  0  0
   33.6500   20.6280   31.6130 H   0  0  0  0  0  0  0  0  0  0  0  0
  1  7  1  0  0  0  0
  2  9  1  0  0  0  0
  2  1  2  0  0  0  0
  3  2  1  0  0  0  0
  4  3  2  0  0  0  0
  4  5  1  0  0  0  0
  5  6  2  0  0  0  0
  6  1  1  0  0  0  0
  8  3  1  0  0  0  0
  9 10  1  0  0  0  0
 10 11  2  0  0  0  0
 10 17  1  0  0  0  0
 11 18  1  0  0  0  0
 12 13  2  0  0  0  0
 12 11  1  0  0  0  0
 14 12  1  0  0  0  0
 15 14  1  0  0  0  0
 15  9  1  0  0  0  0
 16 15  2  0  0  0  0
 19 14  1  0  0  0  0
 20 27  1  6  0  0  0
 20 25  1  0  0  0  0
 21  5  1  1  0  0  0
 21 22  1  0  0  0  0
 21 20  1  0  0  0  0
 22 24  1  0  0  0  0
 23 22  1  0  0  0  0
 24 25  1  0  0  0  0
 25 26  1  0  0  0  0
 28 27  1  0  0  0  0
M  END
>  <minimizedAffinity>
-4.74706984

$$$$
