
     RDKit          3D

 35 37  0  0  0  0  0  0  0  0999 V2000
   37.4242   29.9243   50.5606 C   0  0  0  0  0  0  0  0  0  0  0  0
   37.8695   30.3920   49.3176 C   0  0  0  0  0  0  0  0  0  0  0  0
   36.9858   30.6698   48.2891 C   0  0  0  0  0  0  0  0  0  0  0  0
   35.6529   30.4762   48.5106 N   0  0  0  0  0  0  0  0  0  0  0  0
   35.2113   30.0189   49.7228 C   0  0  0  0  0  0  0  0  0  0  0  0
   36.0797   29.7456   50.7363 N   0  0  0  0  0  0  0  0  0  0  0  0
   37.4354   31.1403   47.0527 N   0  0  0  0  0  0  0  0  0  0  0  0
   36.8018   30.8137   45.8929 C   0  0  0  0  0  0  0  0  0  0  0  0
   37.2368   31.2690   44.6589 C   0  0  0  0  0  0  0  0  0  0  0  0
   38.3736   32.0932   44.6415 C   0  0  0  0  0  0  0  0  0  0  0  0
   38.7964   32.5217   43.5479 O   0  0  0  0  0  0  0  0  0  0  0  0
   39.0086   32.4215   45.8020 N   0  0  0  0  0  0  0  0  0  0  0  0
   38.4923   31.9198   46.9321 C   0  0  0  0  0  0  0  0  0  0  0  0
   39.1045   32.2477   47.9726 O   0  0  0  0  0  0  0  0  0  0  0  0
   40.1778   33.2706   45.7786 C   0  0  0  0  0  0  0  0  0  0  0  0
   40.0306   34.2238   44.7972 F   0  0  0  0  0  0  0  0  0  0  0  0
   41.3416   32.5948   45.5211 F   0  0  0  0  0  0  0  0  0  0  0  0
   40.2563   33.9502   46.9946 F   0  0  0  0  0  0  0  0  0  0  0  0
   38.0402   29.6892   51.3993 H   0  0  0  0  0  0  0  0  0  0  0  0
   38.9412   30.4730   49.3201 H   0  0  0  0  0  0  0  0  0  0  0  0
   34.1502   29.9102   49.7669 H   0  0  0  0  0  0  0  0  0  0  0  0
   35.9243   30.1730   45.9410 H   0  0  0  0  0  0  0  0  0  0  0  0
   37.4232   29.5281   41.7303 O   0  0  0  0  0  0  0  0  0  0  0  0
   37.4614   30.8174   42.2976 C   0  0  2  0  0  0  0  0  0  0  0  0
   36.5086   30.8781   43.4676 C   0  0  2  0  0  0  0  0  0  0  0  0
   35.4694   31.8362   42.9897 C   0  0  2  0  0  0  0  0  0  0  0  0
   34.9336   32.3845   43.7675 H   0  0  0  0  0  0  0  0  0  0  0  0
   36.0561   32.6521   42.0344 O   0  0  0  0  0  0  0  0  0  0  0  0
   36.9319   31.8508   41.3500 C   0  0  2  0  0  0  0  0  0  0  0  0
   36.4466   31.3535   40.4607 H   0  0  0  0  0  0  0  0  0  0  0  0
   37.7387   28.8890   42.4081 H   0  0  0  0  0  0  0  0  0  0  0  0
   38.5116   30.9809   42.6152 H   0  0  0  0  0  0  0  0  0  0  0  0
   36.0150   29.8940   43.6670 H   0  0  0  0  0  0  0  0  0  0  0  0
   34.6924   31.2519   42.4452 H   0  0  0  0  0  0  0  0  0  0  0  0
   37.8025   32.4342   40.9680 H   0  0  0  0  0  0  0  0  0  0  0  0
  1  6  2  0
  2  1  1  0
  3  4  1  0
  3  2  2  0
  4  5  2  0
  5  6  1  0
  7  3  1  0
  8  7  1  0
  9  8  2  0
 10  9  1  0
 10 12  1  0
 11 10  2  0
 12 13  1  0
 13  7  1  0
 13 14  2  0
 15 12  1  0
 15 18  1  0
 16 15  1  0
 17 15  1  0
  1 19  1  0
  2 20  1  0
  5 21  1  0
  8 22  1  0
 23 24  1  0
 24 25  1  0
 25 26  1  0
 26 27  1  1
 26 28  1  0
 28 29  1  0
 29 30  1  6
 29 24  1  0
 23 31  1  0
 24 32  1  1
 25 33  1  1
 26 34  1  0
 29 35  1  0
  9 25  1  0
M  ISO  6  19  14  20  14  21  14  22  14  27  15  30  16
M  END
>  <DihAtoms>  (1) 
7,8,24,23

>  <DihDeg>  (1) 
-89.99848134044892

$$$$
