
     RDKit          3D

 39 42  0  0  0  0  0  0  0  0999 V2000
   38.4158   31.3060   48.2614 Br  0  0  0  0  0  0  0  0  0  0  0  0
   37.2209   30.7970   46.8564 C   0  0  0  0  0  0  0  0  0  0  0  0
   36.0355   30.1634   47.1591 C   0  0  0  0  0  0  0  0  0  0  0  0
   35.1919   29.8180   46.0992 C   0  0  0  0  0  0  0  0  0  0  0  0
   35.5647   30.1161   44.8050 C   0  0  0  0  0  0  0  0  0  0  0  0
   36.7652   30.7570   44.5021 C   0  0  0  0  0  0  0  0  0  0  0  0
   37.5822   31.0900   45.5489 C   0  0  0  0  0  0  0  0  0  0  0  0
   36.3796   29.0881   50.7597 C   0  0  0  0  0  0  0  0  0  0  0  0
   36.6650   29.3347   49.4131 C   0  0  0  0  0  0  0  0  0  0  0  0
   35.7431   29.8976   48.5603 C   0  0  0  0  0  0  0  0  0  0  0  0
   34.5260   30.2018   49.1086 N   0  0  0  0  0  0  0  0  0  0  0  0
   34.2429   29.9660   50.4072 C   0  0  0  0  0  0  0  0  0  0  0  0
   35.1495   29.4174   51.2306 N   0  0  0  0  0  0  0  0  0  0  0  0
   38.8602   31.7666   45.2980 C   0  0  0  0  0  0  0  0  0  0  0  0
   39.0189   33.0573   44.8727 C   0  0  0  0  0  0  0  0  0  0  0  0
   40.3212   33.3516   44.7512 N   0  0  0  0  0  0  0  0  0  0  0  0
   41.0007   32.2324   45.1041 C   0  0  0  0  0  0  0  0  0  0  0  0
   40.1289   31.2611   45.4384 N   0  0  0  0  0  0  0  0  0  0  0  0
   34.2667   29.3217   46.3594 H   0  0  0  0  0  0  0  0  0  0  0  0
   34.8883   29.8354   43.9997 H   0  0  0  0  0  0  0  0  0  0  0  0
   37.0175   30.9711   43.4731 H   0  0  0  0  0  0  0  0  0  0  0  0
   37.1034   28.6456   51.4351 H   0  0  0  0  0  0  0  0  0  0  0  0
   37.6483   29.0327   49.1220 H   0  0  0  0  0  0  0  0  0  0  0  0
   33.2494   30.2362   50.7695 H   0  0  0  0  0  0  0  0  0  0  0  0
   38.2532   33.7907   44.6477 H   0  0  0  0  0  0  0  0  0  0  0  0
   40.7429   34.2655   44.4441 H   0  0  0  0  0  0  0  0  0  0  0  0
   42.5396   33.1461   47.2957 O   0  0  0  0  0  0  0  0  0  0  0  0
   43.0342   32.0863   46.5521 C   0  0  1  0  0  0  0  0  0  0  0  0
   42.4752   32.0346   45.1406 C   0  0  2  0  0  0  0  0  0  0  0  0
   43.2135   33.2095   44.5398 C   0  0  2  0  0  0  0  0  0  0  0  0
   42.6973   34.1208   44.9268 H   0  0  0  0  0  0  0  0  0  0  0  0
   44.4840   33.2074   45.0872 O   0  0  0  0  0  0  0  0  0  0  0  0
   44.4974   32.3800   46.1977 C   0  0  2  0  0  0  0  0  0  0  0  0
   44.9581   31.4106   45.8907 H   0  0  0  0  0  0  0  0  0  0  0  0
   43.0154   33.9601   46.9909 H   0  0  0  0  0  0  0  0  0  0  0  0
   42.9466   31.1146   47.0648 H   0  0  0  0  0  0  0  0  0  0  0  0
   42.8048   31.0875   44.6970 H   0  0  0  0  0  0  0  0  0  0  0  0
   43.2011   33.2208   43.4301 H   0  0  0  0  0  0  0  0  0  0  0  0
   45.0269   32.8652   47.0356 H   0  0  0  0  0  0  0  0  0  0  0  0
  2  3  2  0
  2  1  1  0
  3 10  1  0
  4  3  1  0
  5  4  2  0
  6  5  1  0
  6  7  2  0
  7  2  1  0
  8 13  2  0
  9  8  1  0
 10 11  1  0
 10  9  2  0
 11 12  2  0
 12 13  1  0
 14 18  1  0
 14  7  1  0
 15 14  2  0
 16 15  1  0
 16 17  1  0
 17 18  2  0
  4 19  1  0
  5 20  1  0
  6 21  1  0
  8 22  1  0
  9 23  1  0
 12 24  1  0
 15 25  1  0
 16 26  1  0
 27 28  1  0
 28 29  1  0
 29 30  1  0
 30 31  1  1
 30 32  1  0
 32 33  1  0
 33 34  1  6
 33 28  1  0
 27 35  1  0
 28 36  1  1
 29 37  1  6
 30 38  1  0
 33 39  1  0
 17 29  1  0
M  ISO  8  19  14  20  14  21  14  22  14  23  14  24  14  25  14  26   9
M  ISO  2  31  15  34  16
M  END
>  <DihAtoms>  (1) 
15,16,28,27

>  <DihDeg>  (1) 
57.9472610269708

$$$$
