REMARK  Name = 
REMARK  3 active torsions:
REMARK  status: ('A' for Active; 'I' for Inactive)
REMARK    1  A    between atoms: N_1  and  C_10
REMARK    2  A    between atoms: C_9  and  C_22
REMARK    3  A    between atoms: O_20  and  C_21
REMARK                            x       y       z     vdW  Elec       q    Type
REMARK                         _______ _______ _______ _____ _____    ______ ____
ROOT
ATOM      1  C   UNL     1      36.197  29.248  49.350  0.00  0.00    +0.000 A 
ATOM      2  C   UNL     1      36.027  30.370  48.521  0.00  0.00    +0.000 A 
ATOM      3  C   UNL     1      34.904  30.386  47.702  0.00  0.00    +0.000 A 
ATOM      4  N   UNL     1      34.042  29.349  47.734  0.00  0.00    +0.000 NA
ATOM      5  C   UNL     1      34.236  28.280  48.547  0.00  0.00    +0.000 A 
ATOM      6  N   UNL     1      35.325  28.221  49.368  0.00  0.00    +0.000 NA
ATOM      7  H   UNL     1      34.773  31.255  47.060  0.00  0.00    +0.000 HD
ATOM      8  H   UNL     1      33.465  27.513  48.475  0.00  0.00    +0.000 HD
ENDROOT
BRANCH   2   9
ATOM      9  N   UNL     1      36.999  31.396  48.574  0.00  0.00    +0.000 N 
ATOM     10  C   UNL     1      37.184  32.163  49.651  0.00  0.00    +0.000 A 
ATOM     11  C   UNL     1      38.156  33.164  49.664  0.00  0.00    +0.000 A 
ATOM     12  C   UNL     1      38.870  33.259  48.479  0.00  0.00    +0.000 A 
ATOM     13  O   UNL     1      39.758  34.170  48.485  0.00  0.00    +0.000 OA
ATOM     14  N   UNL     1      38.719  32.516  47.380  0.00  0.00    +0.000 N 
ATOM     15  C   UNL     1      37.756  31.573  47.459  0.00  0.00    +0.000 A 
ATOM     16  O   UNL     1      37.602  30.859  46.418  0.00  0.00    +0.000 OA
ATOM     17  H   UNL     1      36.591  32.046  50.546  0.00  0.00    +0.000 HD
ATOM     18  H   UNL     1      38.335  33.796  50.501  0.00  0.00    +0.000 HD
ATOM     19  H   UNL     1      39.312  32.671  46.538  0.00  0.00    +0.000 HD
ENDBRANCH   2   9
BRANCH   1  21
ATOM     20  C   UNL     1      38.669  29.125  49.672  0.00  0.00    +0.000 C 
ATOM     21  C   UNL     1      37.324  29.037  50.290  0.00  0.00    +0.000 C 
ATOM     22  C   UNL     1      37.356  30.041  51.394  0.00  0.00    +0.000 C 
ATOM     23  H   UNL     1      36.893  29.624  52.335  0.00  0.00    +0.000 HD
ATOM     24  O   UNL     1      38.669  30.332  51.687  0.00  0.00    +0.000 OA
ATOM     25  C   UNL     1      39.446  30.020  50.595  0.00  0.00    +0.000 C 
ATOM     26  H   UNL     1      39.777  30.934  50.040  0.00  0.00    +0.000 HD
BRANCH  20  27
ATOM     27  O   UNL     1      38.584  29.690  48.410  0.00  0.00    +0.000 OA
ATOM     28  H   UNL     1      39.355  30.307  48.289  0.00  0.00    +0.000 HD
ENDBRANCH  20  27
ENDBRANCH   1  21
TORSDOF 3
