REMARK  Name = 
REMARK  4 active torsions:
REMARK  status: ('A' for Active; 'I' for Inactive)
REMARK    1  A    between atoms: C_3  and  C_10
REMARK    2  A    between atoms: C_7  and  C_14
REMARK    3  A    between atoms: C_17  and  C_29
REMARK    4  A    between atoms: O_27  and  C_28
REMARK                            x       y       z     vdW  Elec       q    Type
REMARK                         _______ _______ _______ _____ _____    ______ ____
ROOT
ATOM      1 BR   UNL     1      38.416  31.306  48.261  0.00  0.00    +0.000 Br
ATOM      2  C   UNL     1      37.221  30.797  46.856  0.00  0.00    +0.000 A 
ATOM      3  C   UNL     1      36.035  30.163  47.159  0.00  0.00    +0.000 A 
ATOM      4  C   UNL     1      35.192  29.818  46.099  0.00  0.00    +0.000 A 
ATOM      5  C   UNL     1      35.565  30.116  44.805  0.00  0.00    +0.000 A 
ATOM      6  C   UNL     1      36.765  30.757  44.502  0.00  0.00    +0.000 A 
ATOM      7  C   UNL     1      37.582  31.090  45.549  0.00  0.00    +0.000 A 
ATOM      8  H   UNL     1      34.267  29.322  46.359  0.00  0.00    +0.000 HD
ATOM      9  H   UNL     1      34.888  29.835  44.000  0.00  0.00    +0.000 HD
ATOM     10  H   UNL     1      37.017  30.971  43.473  0.00  0.00    +0.000 HD
ENDROOT
BRANCH   3  13
ATOM     11  C   UNL     1      36.380  29.088  50.760  0.00  0.00    +0.000 A 
ATOM     12  C   UNL     1      36.665  29.335  49.413  0.00  0.00    +0.000 A 
ATOM     13  C   UNL     1      35.743  29.898  48.560  0.00  0.00    +0.000 A 
ATOM     14  N   UNL     1      34.526  30.202  49.109  0.00  0.00    +0.000 NA
ATOM     15  C   UNL     1      34.243  29.966  50.407  0.00  0.00    +0.000 A 
ATOM     16  N   UNL     1      35.150  29.417  51.231  0.00  0.00    +0.000 NA
ATOM     17  H   UNL     1      37.103  28.646  51.435  0.00  0.00    +0.000 HD
ATOM     18  H   UNL     1      37.648  29.033  49.122  0.00  0.00    +0.000 HD
ATOM     19  H   UNL     1      33.249  30.236  50.770  0.00  0.00    +0.000 HD
ENDBRANCH   3  13
BRANCH   7  20
ATOM     20  C   UNL     1      38.860  31.767  45.298  0.00  0.00    +0.000 A 
ATOM     21  C   UNL     1      39.019  33.057  44.873  0.00  0.00    +0.000 A 
ATOM     22  N   UNL     1      40.321  33.352  44.751  0.00  0.00    +0.000 N 
ATOM     23  C   UNL     1      41.001  32.232  45.104  0.00  0.00    +0.000 A 
ATOM     24  N   UNL     1      40.129  31.261  45.438  0.00  0.00    +0.000 NA
ATOM     25  H   UNL     1      38.253  33.791  44.648  0.00  0.00    +0.000 HD
ATOM     26  H   UNL     1      40.743  34.266  44.444  0.00  0.00    +0.000 HD
BRANCH  23  28
ATOM     27  C   UNL     1      43.034  32.086  46.552  0.00  0.00    +0.000 C 
ATOM     28  C   UNL     1      42.475  32.035  45.141  0.00  0.00    +0.000 C 
ATOM     29  C   UNL     1      43.214  33.209  44.540  0.00  0.00    +0.000 C 
ATOM     30  H   UNL     1      42.697  34.121  44.927  0.00  0.00    +0.000 HD
ATOM     31  O   UNL     1      44.484  33.207  45.087  0.00  0.00    +0.000 OA
ATOM     32  C   UNL     1      44.497  32.380  46.198  0.00  0.00    +0.000 C 
ATOM     33  H   UNL     1      44.958  31.411  45.891  0.00  0.00    +0.000 HD
BRANCH  27  34
ATOM     34  O   UNL     1      42.540  33.146  47.296  0.00  0.00    +0.000 OA
ATOM     35  H   UNL     1      43.015  33.960  46.991  0.00  0.00    +0.000 HD
ENDBRANCH  27  34
ENDBRANCH  23  28
ENDBRANCH   7  20
TORSDOF 4
