REMARK  Name = 
REMARK  5 active torsions:
REMARK  status: ('A' for Active; 'I' for Inactive)
REMARK    1  A    between atoms: C_3  and  C_9
REMARK    2  A    between atoms: C_7  and  O_14
REMARK    3  A    between atoms: O_14  and  C_15
REMARK    4  A    between atoms: C_20  and  C_39
REMARK    5  A    between atoms: O_37  and  C_38
REMARK                            x       y       z     vdW  Elec       q    Type
REMARK                         _______ _______ _______ _____ _____    ______ ____
ROOT
ATOM      1  C   UNL     1      39.351  32.895  44.732  0.00  0.00    +0.000 C 
ATOM      2  C   UNL     1      37.926  32.457  44.261  0.00  0.00    +0.000 C 
ATOM      3  C   UNL     1      38.026  31.033  43.800  0.00  0.00    +0.000 C 
ATOM      4  C   UNL     1      38.704  31.014  42.455  0.00  0.00    +0.000 C 
ATOM      5  C   UNL     1      39.571  32.223  42.345  0.00  0.00    +0.000 C 
ATOM      6  C   UNL     1      40.281  32.511  43.653  0.00  0.00    +0.000 C 
ATOM      7  H   UNL     1      39.183  33.980  44.910  0.00  0.00    +0.000 HD
ATOM      8  H   UNL     1      37.296  32.519  45.189  0.00  0.00    +0.000 HD
ATOM      9  H   UNL     1      37.524  33.137  43.518  0.00  0.00    +0.000 HD
ATOM     10  H   UNL     1      37.039  30.524  43.782  0.00  0.00    +0.000 HD
ATOM     11  H   UNL     1      38.766  30.437  44.366  0.00  0.00    +0.000 HD
ATOM     12  H   UNL     1      39.178  30.063  42.187  0.00  0.00    +0.000 HD
ATOM     13  H   UNL     1      37.890  31.152  41.683  0.00  0.00    +0.000 HD
ATOM     14  H   UNL     1      38.932  33.120  42.057  0.00  0.00    +0.000 HD
ATOM     15  H   UNL     1      40.318  32.178  41.538  0.00  0.00    +0.000 HD
ATOM     16  H   UNL     1      40.770  33.525  43.385  0.00  0.00    +0.000 HD
ENDROOT
BRANCH   6  18
ATOM     17  C   UNL     1      40.901  30.337  44.592  0.00  0.00    +0.000 C 
ATOM     18  C   UNL     1      41.366  31.572  43.834  0.00  0.00    +0.000 C 
ATOM     19  C   UNL     1      41.901  30.805  42.674  0.00  0.00    +0.000 C 
ATOM     20  H   UNL     1      41.226  30.460  41.919  0.00  0.00    +0.000 HD
ATOM     21  O   UNL     1      42.779  29.932  43.248  0.00  0.00    +0.000 OA
ATOM     22  C   UNL     1      42.129  29.436  44.351  0.00  0.00    +0.000 C 
ATOM     23  H   UNL     1      42.765  29.392  45.259  0.00  0.00    +0.000 HD
BRANCH  17  24
ATOM     24  O   UNL     1      39.776  29.798  44.013  0.00  0.00    +0.000 OA
ATOM     25  H   UNL     1      39.919  28.869  43.684  0.00  0.00    +0.000 HD
ENDBRANCH  17  24
ENDBRANCH   6  18
BRANCH   1  26
ATOM     26  O   UNL     1      39.550  32.227  45.876  0.00  0.00    +0.000 OA
BRANCH  26  33
ATOM     27 CL   UNL     1      37.803  30.228  47.056  0.00  0.00    +0.000 Cl
ATOM     28  C   UNL     1      38.334  31.681  47.859  0.00  0.00    +0.000 A 
ATOM     29  C   UNL     1      37.899  31.897  49.134  0.00  0.00    +0.000 A 
ATOM     30  C   UNL     1      38.350  33.069  49.738  0.00  0.00    +0.000 A 
ATOM     31  C   UNL     1      39.184  33.926  49.047  0.00  0.00    +0.000 A 
ATOM     32  C   UNL     1      39.596  33.666  47.761  0.00  0.00    +0.000 A 
ATOM     33  C   UNL     1      39.158  32.521  47.166  0.00  0.00    +0.000 A 
ATOM     34  H   UNL     1      38.036  33.295  50.756  0.00  0.00    +0.000 HD
ATOM     35  H   UNL     1      39.540  34.852  49.524  0.00  0.00    +0.000 HD
ATOM     36  H   UNL     1      40.248  34.328  47.209  0.00  0.00    +0.000 HD
BRANCH  29  38
ATOM     37  C   UNL     1      37.447  30.304  51.007  0.00  0.00    +0.000 A 
ATOM     38  C   UNL     1      37.011  30.999  49.878  0.00  0.00    +0.000 A 
ATOM     39  C   UNL     1      35.691  30.813  49.475  0.00  0.00    +0.000 A 
ATOM     40  N   UNL     1      34.906  29.974  50.194  0.00  0.00    +0.000 NA
ATOM     41  C   UNL     1      35.349  29.327  51.262  0.00  0.00    +0.000 A 
ATOM     42  N   UNL     1      36.617  29.483  51.679  0.00  0.00    +0.000 NA
ATOM     43  H   UNL     1      38.475  30.492  51.264  0.00  0.00    +0.000 HD
ATOM     44  H   UNL     1      35.285  31.322  48.606  0.00  0.00    +0.000 HD
ATOM     45  H   UNL     1      34.778  28.645  51.879  0.00  0.00    +0.000 HD
ENDBRANCH  29  38
ENDBRANCH  26  33
ENDBRANCH   1  26
TORSDOF 5
