
 OpenBabel03272504533D

 25 27  0  0  1  0  0  0  0  0999 V2000
   37.0920   31.3680   49.0100 C   0  0  0  0  0  0  0  0  0  0  0  0
   37.6490   32.4210   49.7580 C   0  0  0  0  0  0  0  0  0  0  0  0
   38.5580   33.2220   49.0880 C   0  0  0  0  0  0  0  0  0  0  0  0
   38.8710   32.9730   47.7780 N   0  0  0  0  0  0  0  0  0  0  0  0
   38.3070   31.9420   47.0920 C   0  0  0  0  0  0  0  0  0  0  0  0
   37.4130   31.1380   47.7200 N   0  0  0  0  0  0  0  0  0  0  0  0
   37.3910   32.5940   50.7730 H   0  0  0  0  0  0  0  0  0  0  0  0
   39.0090   34.0420   49.6310 H   0  0  0  0  0  0  0  0  0  0  0  0
   36.0790   30.4940   49.7040 C   0  0  0  0  0  0  0  0  0  0  0  0
   35.8830   29.1070   49.3000 C   0  0  0  0  0  0  0  0  0  0  0  0
   36.7250   29.3820   50.5160 C   0  0  0  0  0  0  0  0  0  0  0  0
   35.2960   31.0930   50.2340 H   0  0  0  0  0  0  0  0  0  0  0  0
   36.4470   28.7760   48.3780 H   0  0  0  0  0  0  0  0  0  0  0  0
   34.8980   28.6260   49.3770 H   0  0  0  0  0  0  0  0  0  0  0  0
   37.8110   29.2480   50.5060 H   0  0  0  0  0  0  0  0  0  0  0  0
   36.1980   29.1700   51.4670 H   0  0  0  0  0  0  0  0  0  0  0  0
   39.8080   30.7220   45.5240 C   0  0  2  0  0  3  0  0  0  0  0  0
   38.6890   31.7260   45.6710 C   0  0  2  0  0  3  0  0  0  0  0  0
   39.2360   32.9630   45.0150 C   0  0  0  0  0  3  0  0  0  0  0  0
   38.4180   33.4840   44.4880 H   0  0  0  0  0  0  0  0  0  0  0  0
   40.2440   32.5680   44.1640 O   0  0  0  0  0  0  0  0  0  0  0  0
   40.8630   31.4640   44.7650 C   0  0  0  0  0  3  0  0  0  0  0  0
   41.6800   31.7690   45.4460 H   0  0  0  0  0  0  0  0  0  0  0  0
   39.4430   29.6060   44.7710 O   0  0  0  0  0  0  0  0  0  0  0  0
   38.6490   29.8830   44.2200 H   0  0  0  0  0  0  0  0  0  0  0  0
  1  9  1  0  0  0  0
  1  2  1  0  0  0  0
  2  7  1  0  0  0  0
  3  8  1  0  0  0  0
  3  2  2  0  0  0  0
  4  3  1  0  0  0  0
  5  6  1  0  0  0  0
  5  4  2  0  0  0  0
  6  1  2  0  0  0  0
  9 12  1  0  0  0  0
  9 11  1  0  0  0  0
 10 14  1  0  0  0  0
 10  9  1  0  0  0  0
 10 11  1  0  0  0  0
 11 16  1  0  0  0  0
 13 10  1  0  0  0  0
 15 11  1  0  0  0  0
 17 24  1  6  0  0  0
 17 18  1  0  0  0  0
 18  5  1  1  0  0  0
 19 18  1  0  0  0  0
 20 19  1  0  0  0  0
 21 22  1  0  0  0  0
 21 19  1  0  0  0  0
 22 23  1  0  0  0  0
 22 17  1  0  0  0  0
 25 24  1  0  0  0  0
M  END
>  <minimizedAffinity>
-5.60513067

>  <minimizedRMSD>
1.12480986

$$$$
