
 OpenBabel03262521263D

 47 50  0  0  1  0  0  0  0  0999 V2000
   35.5340   28.8670   32.4950 S   0  0  0  0  0  0  0  0  0  0  0  0
   33.4760   29.3990   34.3790 C   0  0  0  0  0  0  0  0  0  0  0  0
   34.7540   29.6570   33.8560 C   0  0  0  0  0  0  0  0  0  0  0  0
   35.4690   30.6560   34.5030 C   0  0  0  0  0  0  0  0  0  0  0  0
   35.0010   31.3580   35.5710 C   0  0  0  0  0  0  0  0  0  0  0  0
   35.4430   32.3240   36.3540 N   0  0  0  0  0  0  0  0  0  0  0  0
   34.5440   32.6760   37.3100 C   0  0  0  0  0  0  0  0  0  0  0  0
   33.4460   31.8690   37.1150 C   0  0  0  0  0  0  0  0  0  0  0  0
   33.7330   31.0510   36.0330 C   0  0  0  0  0  0  0  0  0  0  0  0
   32.9590   30.0750   35.4500 C   0  0  0  0  0  0  0  0  0  0  0  0
   32.9380   28.6210   33.8580 H   0  0  0  0  0  0  0  0  0  0  0  0
   36.4660   30.9290   34.1750 H   0  0  0  0  0  0  0  0  0  0  0  0
   36.3850   32.7780   36.2590 H   0  0  0  0  0  0  0  0  0  0  0  0
   34.6520   33.4340   38.0740 H   0  0  0  0  0  0  0  0  0  0  0  0
   32.5200   31.8580   37.6870 H   0  0  0  0  0  0  0  0  0  0  0  0
   30.7830   29.2730   34.8320 C   0  0  1  0  0  3  0  0  0  0  0  0
   31.6090   29.8050   35.9950 C   0  0  1  0  0  3  0  0  0  0  0  0
   31.5410   28.7200   37.0100 C   0  0  0  0  0  3  0  0  0  0  0  0
   32.4910   28.1940   37.2090 H   0  0  0  0  0  0  0  0  0  0  0  0
   30.6400   27.7740   36.5380 O   0  0  0  0  0  0  0  0  0  0  0  0
   30.6960   27.7960   35.1650 C   0  0  0  0  0  3  0  0  0  0  0  0
   31.5450   27.2310   34.7570 H   0  0  0  0  0  0  0  0  0  0  0  0
   29.5570   29.9000   34.8320 O   0  0  0  0  0  0  0  0  0  0  0  0
   29.3510   30.1700   33.8970 H   0  0  0  0  0  0  0  0  0  0  0  0
   36.9740   27.9090   32.9370 C   0  0  0  0  0  0  0  0  0  0  0  0
   37.9010   28.5390   32.8340 H   0  0  0  0  0  0  0  0  0  0  0  0
   37.0940   27.1050   32.1810 H   0  0  0  0  0  0  0  0  0  0  0  0
   36.9000   27.2660   34.3060 C   0  0  0  0  0  0  0  0  0  0  0  0
   37.2640   28.0380   35.0190 H   0  0  0  0  0  0  0  0  0  0  0  0
   35.7970   27.2240   34.5280 H   0  0  0  0  0  0  0  0  0  0  0  0
   37.5010   26.0510   34.3760 C   0  0  0  0  0  0  0  0  0  0  0  0
   36.9000   25.1790   34.0400 H   0  0  0  0  0  0  0  0  0  0  0  0
   38.4840   25.9690   33.8550 H   0  0  0  0  0  0  0  0  0  0  0  0
   37.6870   25.9980   35.7300 O   0  0  0  0  0  0  0  0  0  0  0  0
   38.4040   24.9520   36.2520 C   0  0  0  0  0  0  0  0  0  0  0  0
   37.9300   24.5350   37.4720 C   0  0  0  0  0  0  0  0  0  0  0  0
   38.5720   23.4680   38.1240 C   0  0  0  0  0  0  0  0  0  0  0  0
   39.6490   22.9070   37.4840 N   0  0  0  0  0  0  0  0  0  0  0  0
   40.0910   23.3450   36.2760 C   0  0  0  0  0  0  0  0  0  0  0  0
   39.4530   24.3640   35.6850 N   0  0  0  0  0  0  0  0  0  0  0  0
   41.7730   21.6590   36.5100 C   0  0  0  0  0  0  0  0  0  0  0  0
   41.3600   21.2970   37.6460 O   0  0  0  0  0  0  0  0  0  0  0  0
   41.2180   22.6810   35.7150 N   0  0  0  0  0  0  0  0  0  0  0  0
   37.1040   24.8810   38.0880 H   0  0  0  0  0  0  0  0  0  0  0  0
   38.3020   23.0570   39.0640 H   0  0  0  0  0  0  0  0  0  0  0  0
   42.6430   21.1100   36.1330 H   0  0  0  0  0  0  0  0  0  0  0  0
   41.5700   22.9640   34.7860 H   0  0  0  0  0  0  0  0  0  0  0  0
  1 25  1  0  0  0  0
  1  3  1  0  0  0  0
  2 10  1  0  0  0  0
  3  2  2  0  0  0  0
  3  4  1  0  0  0  0
  4  5  2  0  0  0  0
  5  9  1  0  0  0  0
  5  6  1  0  0  0  0
  6  7  1  0  0  0  0
  7 14  1  0  0  0  0
  8  7  2  0  0  0  0
  8 15  1  0  0  0  0
  9  8  1  0  0  0  0
 10  9  2  0  0  0  0
 11  2  1  0  0  0  0
 12  4  1  0  0  0  0
 13  6  1  0  0  0  0
 16 23  1  1  0  0  0
 16 21  1  0  0  0  0
 16 17  1  0  0  0  0
 17 10  1  6  0  0  0
 17 18  1  0  0  0  0
 18 19  1  0  0  0  0
 20 18  1  0  0  0  0
 21 20  1  0  0  0  0
 22 21  1  0  0  0  0
 24 23  1  0  0  0  0
 25 28  1  0  0  0  0
 26 25  1  0  0  0  0
 27 25  1  0  0  0  0
 28 31  1  0  0  0  0
 28 30  1  0  0  0  0
 28 29  1  0  0  0  0
 31 34  1  0  0  0  0
 32 31  1  0  0  0  0
 33 31  1  0  0  0  0
 34 35  1  0  0  0  0
 35 36  1  0  0  0  0
 36 44  1  0  0  0  0
 36 37  2  0  0  0  0
 37 45  1  0  0  0  0
 38 37  1  0  0  0  0
 39 38  2  0  0  0  0
 40 35  2  0  0  0  0
 40 39  1  0  0  0  0
 41 42  2  0  0  0  0
 43 39  1  0  0  0  0
 43 41  1  0  0  0  0
 46 41  1  0  0  0  0
 47 43  1  0  0  0  0
M  END
>  <minimizedAffinity>
-6.15025759

$$$$

 OpenBabel03262521263D

 47 50  0  0  1  0  0  0  0  0999 V2000
   39.0650   21.4760   33.1010 S   0  0  0  0  0  0  0  0  0  0  0  0
   38.3400   23.8890   34.4130 C   0  0  0  0  0  0  0  0  0  0  0  0
   38.7790   22.5540   34.4570 C   0  0  0  0  0  0  0  0  0  0  0  0
   39.0080   22.0480   35.7290 C   0  0  0  0  0  0  0  0  0  0  0  0
   38.8320   22.7580   36.8760 C   0  0  0  0  0  0  0  0  0  0  0  0
   38.9670   22.5420   38.1710 N   0  0  0  0  0  0  0  0  0  0  0  0
   38.6470   23.6290   38.9200 C   0  0  0  0  0  0  0  0  0  0  0  0
   38.2810   24.6120   38.0270 C   0  0  0  0  0  0  0  0  0  0  0  0
   38.3980   24.0670   36.7580 C   0  0  0  0  0  0  0  0  0  0  0  0
   38.1460   24.6460   35.5350 C   0  0  0  0  0  0  0  0  0  0  0  0
   38.1710   24.2620   33.4140 H   0  0  0  0  0  0  0  0  0  0  0  0
   39.3490   21.0270   35.8680 H   0  0  0  0  0  0  0  0  0  0  0  0
   39.2850   21.6330   38.5890 H   0  0  0  0  0  0  0  0  0  0  0  0
   38.6710   23.7220   39.9970 H   0  0  0  0  0  0  0  0  0  0  0  0
   37.9600   25.6270   38.2520 H   0  0  0  0  0  0  0  0  0  0  0  0
   38.9510   26.9050   35.4470 C   0  0  1  0  0  3  0  0  0  0  0  0
   37.6890   26.0540   35.4860 C   0  0  1  0  0  3  0  0  0  0  0  0
   36.9570   26.4390   34.2500 C   0  0  0  0  0  3  0  0  0  0  0  0
   36.8800   25.6530   33.4790 H   0  0  0  0  0  0  0  0  0  0  0  0
   37.6440   27.5050   33.6830 O   0  0  0  0  0  0  0  0  0  0  0  0
   38.9730   27.3580   33.9990 C   0  0  0  0  0  3  0  0  0  0  0  0
   39.4960   26.6400   33.3520 H   0  0  0  0  0  0  0  0  0  0  0  0
   38.8140   27.9470   36.3360 O   0  0  0  0  0  0  0  0  0  0  0  0
   39.6610   28.0240   36.8510 H   0  0  0  0  0  0  0  0  0  0  0  0
   37.5800   20.7690   32.4070 C   0  0  0  0  0  0  0  0  0  0  0  0
   37.2020   19.9420   33.0710 H   0  0  0  0  0  0  0  0  0  0  0  0
   37.8530   20.2650   31.4560 H   0  0  0  0  0  0  0  0  0  0  0  0
   36.4870   21.7760   32.1140 C   0  0  0  0  0  0  0  0  0  0  0  0
   35.5380   21.1960   32.1130 H   0  0  0  0  0  0  0  0  0  0  0  0
   36.4100   22.3780   33.0620 H   0  0  0  0  0  0  0  0  0  0  0  0
   36.7250   22.5420   31.0180 C   0  0  0  0  0  0  0  0  0  0  0  0
   37.7890   22.6760   30.7270 H   0  0  0  0  0  0  0  0  0  0  0  0
   36.1860   22.2350   30.0910 H   0  0  0  0  0  0  0  0  0  0  0  0
   36.2150   23.7220   31.4840 O   0  0  0  0  0  0  0  0  0  0  0  0
   36.8070   24.8940   31.0890 C   0  0  0  0  0  0  0  0  0  0  0  0
   38.1620   24.7710   30.9000 C   0  0  0  0  0  0  0  0  0  0  0  0
   38.8980   25.8960   30.4930 C   0  0  0  0  0  0  0  0  0  0  0  0
   38.1980   27.0630   30.3090 N   0  0  0  0  0  0  0  0  0  0  0  0
   36.8570   27.1480   30.5050 C   0  0  0  0  0  0  0  0  0  0  0  0
   36.1890   26.0540   30.8930 N   0  0  0  0  0  0  0  0  0  0  0  0
   37.1250   29.4530   29.9180 C   0  0  0  0  0  0  0  0  0  0  0  0
   38.3740   29.3500   29.7770 O   0  0  0  0  0  0  0  0  0  0  0  0
   36.2450   28.4140   30.2830 N   0  0  0  0  0  0  0  0  0  0  0  0
   38.8380   23.9250   31.0080 H   0  0  0  0  0  0  0  0  0  0  0  0
   39.9440   25.9280   30.3140 H   0  0  0  0  0  0  0  0  0  0  0  0
   36.7150   30.4520   29.7330 H   0  0  0  0  0  0  0  0  0  0  0  0
   35.2230   28.5180   30.3940 H   0  0  0  0  0  0  0  0  0  0  0  0
  1  3  1  0  0  0  0
  2  3  2  0  0  0  0
  2 10  1  0  0  0  0
  3  4  1  0  0  0  0
  4 12  1  0  0  0  0
  4  5  2  0  0  0  0
  5  6  1  0  0  0  0
  6 13  1  0  0  0  0
  6  7  1  0  0  0  0
  7 14  1  0  0  0  0
  8 15  1  0  0  0  0
  8  7  2  0  0  0  0
  9  5  1  0  0  0  0
  9  8  1  0  0  0  0
 10  9  2  0  0  0  0
 11  2  1  0  0  0  0
 16 17  1  0  0  0  0
 16 23  1  1  0  0  0
 17 10  1  6  0  0  0
 18 17  1  0  0  0  0
 19 18  1  0  0  0  0
 20 21  1  0  0  0  0
 20 18  1  0  0  0  0
 21 16  1  0  0  0  0
 22 21  1  0  0  0  0
 23 24  1  0  0  0  0
 25 26  1  0  0  0  0
 25  1  1  0  0  0  0
 27 25  1  0  0  0  0
 28 25  1  0  0  0  0
 28 30  1  0  0  0  0
 29 28  1  0  0  0  0
 31 34  1  0  0  0  0
 31 28  1  0  0  0  0
 32 31  1  0  0  0  0
 33 31  1  0  0  0  0
 35 34  1  0  0  0  0
 36 44  1  0  0  0  0
 36 35  1  0  0  0  0
 37 36  2  0  0  0  0
 38 37  1  0  0  0  0
 38 39  2  0  0  0  0
 39 40  1  0  0  0  0
 40 35  2  0  0  0  0
 41 43  1  0  0  0  0
 42 41  2  0  0  0  0
 43 47  1  0  0  0  0
 43 39  1  0  0  0  0
 45 37  1  0  0  0  0
 46 41  1  0  0  0  0
M  END
>  <minimizedAffinity>
-5.92866611

$$$$

 OpenBabel03262521263D

 47 50  0  0  1  0  0  0  0  0999 V2000
   36.9170   27.8970   34.5540 S   0  0  0  0  0  0  0  0  0  0  0  0
   38.0230   25.4140   35.3800 C   0  0  0  0  0  0  0  0  0  0  0  0
   38.1760   26.7150   34.8690 C   0  0  0  0  0  0  0  0  0  0  0  0
   39.4830   27.0900   34.5880 C   0  0  0  0  0  0  0  0  0  0  0  0
   40.5640   26.2860   34.7780 C   0  0  0  0  0  0  0  0  0  0  0  0
   41.8700   26.3760   34.6050 N   0  0  0  0  0  0  0  0  0  0  0  0
   42.5250   25.2410   34.9660 C   0  0  0  0  0  0  0  0  0  0  0  0
   41.5560   24.3650   35.4020 C   0  0  0  0  0  0  0  0  0  0  0  0
   40.3390   25.0180   35.2840 C   0  0  0  0  0  0  0  0  0  0  0  0
   39.0760   24.5670   35.5890 C   0  0  0  0  0  0  0  0  0  0  0  0
   36.9990   25.1460   35.5940 H   0  0  0  0  0  0  0  0  0  0  0  0
   39.7060   28.0740   34.1900 H   0  0  0  0  0  0  0  0  0  0  0  0
   42.3610   27.2250   34.2300 H   0  0  0  0  0  0  0  0  0  0  0  0
   43.5890   25.0490   34.9270 H   0  0  0  0  0  0  0  0  0  0  0  0
   41.6960   23.3510   35.7730 H   0  0  0  0  0  0  0  0  0  0  0  0
   39.0100   23.3330   37.6460 C   0  0  1  0  0  3  0  0  0  0  0  0
   38.9110   23.2000   36.1330 C   0  0  1  0  0  3  0  0  0  0  0  0
   37.5740   22.5870   35.9130 C   0  0  0  0  0  3  0  0  0  0  0  0
   36.8300   23.2350   35.4180 H   0  0  0  0  0  0  0  0  0  0  0  0
   37.0650   22.2580   37.1620 O   0  0  0  0  0  0  0  0  0  0  0  0
   37.5630   23.1640   38.0670 C   0  0  0  0  0  3  0  0  0  0  0  0
   37.0200   24.1190   38.0670 H   0  0  0  0  0  0  0  0  0  0  0  0
   39.8330   22.3400   38.1290 O   0  0  0  0  0  0  0  0  0  0  0  0
   40.4540   22.7500   38.7880 H   0  0  0  0  0  0  0  0  0  0  0  0
   36.3120   27.8860   32.8740 C   0  0  0  0  0  0  0  0  0  0  0  0
   36.3400   28.9270   32.4480 H   0  0  0  0  0  0  0  0  0  0  0  0
   35.2340   27.6200   32.9010 H   0  0  0  0  0  0  0  0  0  0  0  0
   37.0200   26.9040   31.9630 C   0  0  0  0  0  0  0  0  0  0  0  0
   37.2060   27.4570   31.0150 H   0  0  0  0  0  0  0  0  0  0  0  0
   38.0510   26.8160   32.4060 H   0  0  0  0  0  0  0  0  0  0  0  0
   36.3880   25.7080   31.8470 C   0  0  0  0  0  0  0  0  0  0  0  0
   35.6890   25.4330   32.6660 H   0  0  0  0  0  0  0  0  0  0  0  0
   35.8280   25.5490   30.8950 H   0  0  0  0  0  0  0  0  0  0  0  0
   37.4890   24.8970   31.8800 O   0  0  0  0  0  0  0  0  0  0  0  0
   37.3050   23.5490   32.0510 C   0  0  0  0  0  0  0  0  0  0  0  0
   38.4770   22.8760   32.2990 C   0  0  0  0  0  0  0  0  0  0  0  0
   38.4360   21.4860   32.4960 C   0  0  0  0  0  0  0  0  0  0  0  0
   37.2040   20.8840   32.4240 N   0  0  0  0  0  0  0  0  0  0  0  0
   36.0640   21.5810   32.1780 C   0  0  0  0  0  0  0  0  0  0  0  0
   36.1430   22.9060   31.9960 N   0  0  0  0  0  0  0  0  0  0  0  0
   34.9790   19.4520   32.3040 C   0  0  0  0  0  0  0  0  0  0  0  0
   36.0570   18.8280   32.4970 O   0  0  0  0  0  0  0  0  0  0  0  0
   34.8480   20.8440   32.1270 N   0  0  0  0  0  0  0  0  0  0  0  0
   39.5070   23.2160   32.3800 H   0  0  0  0  0  0  0  0  0  0  0  0
   39.2680   20.8570   32.6930 H   0  0  0  0  0  0  0  0  0  0  0  0
   34.0780   18.8290   32.2760 H   0  0  0  0  0  0  0  0  0  0  0  0
   33.9540   21.3380   31.9690 H   0  0  0  0  0  0  0  0  0  0  0  0
  1  3  1  0  0  0  0
  2 10  1  0  0  0  0
  2 11  1  0  0  0  0
  3  2  2  0  0  0  0
  4  5  2  0  0  0  0
  4  3  1  0  0  0  0
  5  9  1  0  0  0  0
  6  5  1  0  0  0  0
  6  7  1  0  0  0  0
  7  8  2  0  0  0  0
  8 15  1  0  0  0  0
  9  8  1  0  0  0  0
  9 10  2  0  0  0  0
 12  4  1  0  0  0  0
 13  6  1  0  0  0  0
 14  7  1  0  0  0  0
 16 21  1  0  0  0  0
 16 23  1  1  0  0  0
 17 10  1  6  0  0  0
 17 16  1  0  0  0  0
 18 17  1  0  0  0  0
 18 20  1  0  0  0  0
 19 18  1  0  0  0  0
 20 21  1  0  0  0  0
 22 21  1  0  0  0  0
 23 24  1  0  0  0  0
 25 27  1  0  0  0  0
 25  1  1  0  0  0  0
 26 25  1  0  0  0  0
 28 30  1  0  0  0  0
 28 25  1  0  0  0  0
 29 28  1  0  0  0  0
 31 34  1  0  0  0  0
 31 28  1  0  0  0  0
 31 32  1  0  0  0  0
 33 31  1  0  0  0  0
 34 35  1  0  0  0  0
 35 36  1  0  0  0  0
 36 44  1  0  0  0  0
 36 37  2  0  0  0  0
 37 45  1  0  0  0  0
 38 37  1  0  0  0  0
 39 38  2  0  0  0  0
 40 35  2  0  0  0  0
 40 39  1  0  0  0  0
 41 42  2  0  0  0  0
 43 39  1  0  0  0  0
 43 41  1  0  0  0  0
 46 41  1  0  0  0  0
 47 43  1  0  0  0  0
M  END
>  <minimizedAffinity>
-5.82661438

$$$$

 OpenBabel03262521263D

 47 50  0  0  1  0  0  0  0  0999 V2000
   38.9810   22.7550   32.4420 S   0  0  0  0  0  0  0  0  0  0  0  0
   40.4020   22.5650   34.8940 C   0  0  0  0  0  0  0  0  0  0  0  0
   39.2300   22.8600   34.1770 C   0  0  0  0  0  0  0  0  0  0  0  0
   38.1550   23.2820   34.9480 C   0  0  0  0  0  0  0  0  0  0  0  0
   38.1930   23.4140   36.3010 C   0  0  0  0  0  0  0  0  0  0  0  0
   37.3570   23.7800   37.2550 N   0  0  0  0  0  0  0  0  0  0  0  0
   37.9190   23.7340   38.4910 C   0  0  0  0  0  0  0  0  0  0  0  0
   39.2130   23.3050   38.3040 C   0  0  0  0  0  0  0  0  0  0  0  0
   39.3800   23.1060   36.9420 C   0  0  0  0  0  0  0  0  0  0  0  0
   40.4930   22.6820   36.2540 C   0  0  0  0  0  0  0  0  0  0  0  0
   41.2240   22.2370   34.2750 H   0  0  0  0  0  0  0  0  0  0  0  0
   37.2060   23.5340   34.4870 H   0  0  0  0  0  0  0  0  0  0  0  0
   36.3630   24.0770   37.0890 H   0  0  0  0  0  0  0  0  0  0  0  0
   37.4580   23.9800   39.4380 H   0  0  0  0  0  0  0  0  0  0  0  0
   39.9760   23.1440   39.0640 H   0  0  0  0  0  0  0  0  0  0  0  0
   41.7940   20.8460   37.0880 C   0  0  1  0  0  3  0  0  0  0  0  0
   41.7280   22.3650   37.0070 C   0  0  1  0  0  3  0  0  0  0  0  0
   42.9970   22.7450   36.3310 C   0  0  0  0  0  3  0  0  0  0  0  0
   42.8880   23.1700   35.3190 H   0  0  0  0  0  0  0  0  0  0  0  0
   43.7570   21.5880   36.2100 O   0  0  0  0  0  0  0  0  0  0  0  0
   42.8890   20.5300   36.0860 C   0  0  0  0  0  3  0  0  0  0  0  0
   42.4940   20.4110   35.0690 H   0  0  0  0  0  0  0  0  0  0  0  0
   42.1180   20.4810   38.3750 O   0  0  0  0  0  0  0  0  0  0  0  0
   41.5160   19.7360   38.6430 H   0  0  0  0  0  0  0  0  0  0  0  0
   37.2650   22.6660   31.9570 C   0  0  0  0  0  0  0  0  0  0  0  0
   36.6250   22.4270   32.8520 H   0  0  0  0  0  0  0  0  0  0  0  0
   37.1460   21.7920   31.2820 H   0  0  0  0  0  0  0  0  0  0  0  0
   36.7570   23.8970   31.2360 C   0  0  0  0  0  0  0  0  0  0  0  0
   37.2940   23.9160   30.2620 H   0  0  0  0  0  0  0  0  0  0  0  0
   35.7070   23.6220   30.9350 H   0  0  0  0  0  0  0  0  0  0  0  0
   36.8150   25.0330   31.9770 C   0  0  0  0  0  0  0  0  0  0  0  0
   36.0670   25.1330   32.7930 H   0  0  0  0  0  0  0  0  0  0  0  0
   37.8060   25.2570   32.4370 H   0  0  0  0  0  0  0  0  0  0  0  0
   36.5490   25.9340   30.9840 O   0  0  0  0  0  0  0  0  0  0  0  0
   36.4010   27.2550   31.3200 C   0  0  0  0  0  0  0  0  0  0  0  0
   36.6730   28.1060   30.2770 C   0  0  0  0  0  0  0  0  0  0  0  0
   36.5610   29.4920   30.4810 C   0  0  0  0  0  0  0  0  0  0  0  0
   36.1810   29.9070   31.7330 N   0  0  0  0  0  0  0  0  0  0  0  0
   35.9200   29.0360   32.7430 C   0  0  0  0  0  0  0  0  0  0  0  0
   36.0370   27.7220   32.5110 N   0  0  0  0  0  0  0  0  0  0  0  0
   35.5090   30.9970   34.0520 C   0  0  0  0  0  0  0  0  0  0  0  0
   35.7910   31.7810   33.1050 O   0  0  0  0  0  0  0  0  0  0  0  0
   35.5350   29.5890   33.9970 N   0  0  0  0  0  0  0  0  0  0  0  0
   36.9800   27.9220   29.2500 H   0  0  0  0  0  0  0  0  0  0  0  0
   36.7430   30.2470   29.7580 H   0  0  0  0  0  0  0  0  0  0  0  0
   35.2210   31.4840   34.9900 H   0  0  0  0  0  0  0  0  0  0  0  0
   35.3010   28.9630   34.7840 H   0  0  0  0  0  0  0  0  0  0  0  0
  1  3  1  0  0  0  0
  2 10  1  0  0  0  0
  3  2  2  0  0  0  0
  3  4  1  0  0  0  0
  4  5  2  0  0  0  0
  5  9  1  0  0  0  0
  5  6  1  0  0  0  0
  6  7  1  0  0  0  0
  7 14  1  0  0  0  0
  8  7  2  0  0  0  0
  8 15  1  0  0  0  0
  9  8  1  0  0  0  0
 10  9  2  0  0  0  0
 11  2  1  0  0  0  0
 12  4  1  0  0  0  0
 13  6  1  0  0  0  0
 16 23  1  1  0  0  0
 17 10  1  6  0  0  0
 17 16  1  0  0  0  0
 18 17  1  0  0  0  0
 19 18  1  0  0  0  0
 20 18  1  0  0  0  0
 21 20  1  0  0  0  0
 21 16  1  0  0  0  0
 22 21  1  0  0  0  0
 23 24  1  0  0  0  0
 25  1  1  0  0  0  0
 25 26  1  0  0  0  0
 27 25  1  0  0  0  0
 28 25  1  0  0  0  0
 28 31  1  0  0  0  0
 29 28  1  0  0  0  0
 30 28  1  0  0  0  0
 31 33  1  0  0  0  0
 31 32  1  0  0  0  0
 34 35  1  0  0  0  0
 34 31  1  0  0  0  0
 35 40  1  0  0  0  0
 36 37  1  0  0  0  0
 36 35  2  0  0  0  0
 37 38  2  0  0  0  0
 38 39  1  0  0  0  0
 39 43  1  0  0  0  0
 40 39  2  0  0  0  0
 41 46  1  0  0  0  0
 42 41  2  0  0  0  0
 43 41  1  0  0  0  0
 43 47  1  0  0  0  0
 44 36  1  0  0  0  0
 45 37  1  0  0  0  0
M  END
>  <minimizedAffinity>
-5.76302338

$$$$

 OpenBabel03262521263D

 47 50  0  0  1  0  0  0  0  0999 V2000
   36.8290   27.8480   34.3620 S   0  0  0  0  0  0  0  0  0  0  0  0
   38.0350   25.4240   35.2210 C   0  0  0  0  0  0  0  0  0  0  0  0
   38.1360   26.7280   34.7060 C   0  0  0  0  0  0  0  0  0  0  0  0
   39.4300   27.1630   34.4470 C   0  0  0  0  0  0  0  0  0  0  0  0
   40.5430   26.4120   34.6610 C   0  0  0  0  0  0  0  0  0  0  0  0
   41.8470   26.5620   34.5110 N   0  0  0  0  0  0  0  0  0  0  0  0
   42.5470   25.4620   34.8900 C   0  0  0  0  0  0  0  0  0  0  0  0
   41.6130   24.5430   35.3130 C   0  0  0  0  0  0  0  0  0  0  0  0
   40.3690   25.1370   35.1700 C   0  0  0  0  0  0  0  0  0  0  0  0
   39.1230   24.6290   35.4540 C   0  0  0  0  0  0  0  0  0  0  0  0
   37.0220   25.1090   35.4180 H   0  0  0  0  0  0  0  0  0  0  0  0
   39.6130   28.1550   34.0480 H   0  0  0  0  0  0  0  0  0  0  0  0
   42.3040   27.4320   34.1410 H   0  0  0  0  0  0  0  0  0  0  0  0
   43.6190   25.3190   34.8710 H   0  0  0  0  0  0  0  0  0  0  0  0
   41.7930   23.5380   35.6910 H   0  0  0  0  0  0  0  0  0  0  0  0
   38.7640   23.4190   37.4950 C   0  0  1  0  0  3  0  0  0  0  0  0
   39.0130   23.2570   36.0020 C   0  0  1  0  0  3  0  0  0  0  0  0
   37.8400   22.4760   35.5240 C   0  0  0  0  0  3  0  0  0  0  0  0
   37.1480   23.0190   34.8570 H   0  0  0  0  0  0  0  0  0  0  0  0
   37.1170   22.0980   36.6480 O   0  0  0  0  0  0  0  0  0  0  0  0
   37.2910   23.0710   37.6020 C   0  0  0  0  0  3  0  0  0  0  0  0
   36.6490   23.9480   37.4490 H   0  0  0  0  0  0  0  0  0  0  0  0
   39.5770   22.5440   38.1800 O   0  0  0  0  0  0  0  0  0  0  0  0
   39.9850   23.0370   38.9410 H   0  0  0  0  0  0  0  0  0  0  0  0
   36.8160   28.4590   32.6850 C   0  0  0  0  0  0  0  0  0  0  0  0
   37.8280   28.3100   32.2130 H   0  0  0  0  0  0  0  0  0  0  0  0
   36.6810   29.5600   32.7220 H   0  0  0  0  0  0  0  0  0  0  0  0
   35.7200   27.8760   31.8170 C   0  0  0  0  0  0  0  0  0  0  0  0
   34.9630   27.4700   32.5250 H   0  0  0  0  0  0  0  0  0  0  0  0
   35.2010   28.7790   31.3900 H   0  0  0  0  0  0  0  0  0  0  0  0
   36.1690   27.0220   30.8620 C   0  0  0  0  0  0  0  0  0  0  0  0
   35.8920   27.2610   29.8130 H   0  0  0  0  0  0  0  0  0  0  0  0
   37.2700   26.8400   30.8580 H   0  0  0  0  0  0  0  0  0  0  0  0
   35.5130   25.8960   31.2750 O   0  0  0  0  0  0  0  0  0  0  0  0
   36.2430   24.7570   31.4980 C   0  0  0  0  0  0  0  0  0  0  0  0
   35.4760   23.6170   31.4760 C   0  0  0  0  0  0  0  0  0  0  0  0
   36.0960   22.3750   31.6900 C   0  0  0  0  0  0  0  0  0  0  0  0
   37.4510   22.3870   31.9120 N   0  0  0  0  0  0  0  0  0  0  0  0
   38.1790   23.5340   31.9260 C   0  0  0  0  0  0  0  0  0  0  0  0
   37.5530   24.6990   31.7180 N   0  0  0  0  0  0  0  0  0  0  0  0
   40.0380   22.1050   32.4040 C   0  0  0  0  0  0  0  0  0  0  0  0
   39.3310   21.0610   32.4180 O   0  0  0  0  0  0  0  0  0  0  0  0
   39.5770   23.4150   32.1680 N   0  0  0  0  0  0  0  0  0  0  0  0
   34.4120   23.4600   31.3170 H   0  0  0  0  0  0  0  0  0  0  0  0
   35.6150   21.4290   31.6970 H   0  0  0  0  0  0  0  0  0  0  0  0
   41.1060   21.9480   32.5960 H   0  0  0  0  0  0  0  0  0  0  0  0
   40.1720   24.2600   32.1610 H   0  0  0  0  0  0  0  0  0  0  0  0
  1  3  1  0  0  0  0
  2 11  1  0  0  0  0
  2 10  1  0  0  0  0
  3  2  2  0  0  0  0
  4  5  2  0  0  0  0
  4  3  1  0  0  0  0
  5  9  1  0  0  0  0
  6  5  1  0  0  0  0
  6  7  1  0  0  0  0
  7  8  2  0  0  0  0
  8 15  1  0  0  0  0
  9  8  1  0  0  0  0
  9 10  2  0  0  0  0
 12  4  1  0  0  0  0
 13  6  1  0  0  0  0
 14  7  1  0  0  0  0
 16 21  1  0  0  0  0
 16 23  1  1  0  0  0
 17 10  1  6  0  0  0
 17 16  1  0  0  0  0
 18 17  1  0  0  0  0
 18 20  1  0  0  0  0
 19 18  1  0  0  0  0
 20 21  1  0  0  0  0
 22 21  1  0  0  0  0
 23 24  1  0  0  0  0
 25 27  1  0  0  0  0
 25  1  1  0  0  0  0
 26 25  1  0  0  0  0
 28 29  1  0  0  0  0
 28 25  1  0  0  0  0
 30 28  1  0  0  0  0
 31 34  1  0  0  0  0
 31 28  1  0  0  0  0
 32 31  1  0  0  0  0
 33 31  1  0  0  0  0
 34 35  1  0  0  0  0
 35 40  1  0  0  0  0
 36 35  2  0  0  0  0
 36 37  1  0  0  0  0
 37 45  1  0  0  0  0
 37 38  2  0  0  0  0
 38 39  1  0  0  0  0
 39 43  1  0  0  0  0
 40 39  2  0  0  0  0
 41 42  2  0  0  0  0
 41 46  1  0  0  0  0
 43 41  1  0  0  0  0
 44 36  1  0  0  0  0
 47 43  1  0  0  0  0
M  END
>  <minimizedAffinity>
-5.71339655

$$$$

 OpenBabel03262521263D

 47 50  0  0  1  0  0  0  0  0999 V2000
   36.7220   24.5080   30.8740 S   0  0  0  0  0  0  0  0  0  0  0  0
   36.4970   26.9330   32.3370 C   0  0  0  0  0  0  0  0  0  0  0  0
   36.9580   25.6100   32.2200 C   0  0  0  0  0  0  0  0  0  0  0  0
   37.6830   25.1380   33.3070 C   0  0  0  0  0  0  0  0  0  0  0  0
   37.9480   25.8700   34.4220 C   0  0  0  0  0  0  0  0  0  0  0  0
   38.5860   25.6870   35.5630 N   0  0  0  0  0  0  0  0  0  0  0  0
   38.5530   26.7830   36.3640 C   0  0  0  0  0  0  0  0  0  0  0  0
   37.8370   27.7360   35.6750 C   0  0  0  0  0  0  0  0  0  0  0  0
   37.4630   27.1660   34.4680 C   0  0  0  0  0  0  0  0  0  0  0  0
   36.7360   27.7110   33.4350 C   0  0  0  0  0  0  0  0  0  0  0  0
   35.9390   27.2790   31.4790 H   0  0  0  0  0  0  0  0  0  0  0  0
   38.0810   24.1290   33.3130 H   0  0  0  0  0  0  0  0  0  0  0  0
   39.0700   24.7950   35.8330 H   0  0  0  0  0  0  0  0  0  0  0  0
   38.9940   26.9020   37.3450 H   0  0  0  0  0  0  0  0  0  0  0  0
   37.5990   28.7490   35.9950 H   0  0  0  0  0  0  0  0  0  0  0  0
   35.8160   29.5190   32.1540 C   0  0  1  0  0  3  0  0  0  0  0  0
   36.2540   29.1060   33.5520 C   0  0  1  0  0  3  0  0  0  0  0  0
   35.0320   29.2870   34.3810 C   0  0  0  0  0  3  0  0  0  0  0  0
   34.5820   28.3580   34.7740 H   0  0  0  0  0  0  0  0  0  0  0  0
   34.0790   29.8950   33.5740 O   0  0  0  0  0  0  0  0  0  0  0  0
   34.3040   29.4870   32.2820 C   0  0  0  0  0  3  0  0  0  0  0  0
   33.8940   28.4910   32.0640 H   0  0  0  0  0  0  0  0  0  0  0  0
   36.3080   30.7760   31.8850 O   0  0  0  0  0  0  0  0  0  0  0  0
   36.6880   30.7660   30.9660 H   0  0  0  0  0  0  0  0  0  0  0  0
   35.3370   23.3990   31.0750 C   0  0  0  0  0  0  0  0  0  0  0  0
   34.8540   23.2030   30.0770 H   0  0  0  0  0  0  0  0  0  0  0  0
   34.5600   23.9260   31.6670 H   0  0  0  0  0  0  0  0  0  0  0  0
   35.6740   22.1030   31.7820 C   0  0  0  0  0  0  0  0  0  0  0  0
   35.4480   22.2810   32.8570 H   0  0  0  0  0  0  0  0  0  0  0  0
   34.8540   21.3990   31.4680 H   0  0  0  0  0  0  0  0  0  0  0  0
   36.9150   21.6280   31.5000 C   0  0  0  0  0  0  0  0  0  0  0  0
   37.0090   20.9920   30.5940 H   0  0  0  0  0  0  0  0  0  0  0  0
   37.7190   22.3980   31.4230 H   0  0  0  0  0  0  0  0  0  0  0  0
   37.1010   20.8720   32.6240 O   0  0  0  0  0  0  0  0  0  0  0  0
   37.7010   21.4530   33.7120 C   0  0  0  0  0  0  0  0  0  0  0  0
   39.0300   21.7290   33.5050 C   0  0  0  0  0  0  0  0  0  0  0  0
   39.7700   22.3270   34.5400 C   0  0  0  0  0  0  0  0  0  0  0  0
   39.1000   22.5970   35.7070 N   0  0  0  0  0  0  0  0  0  0  0  0
   37.7830   22.3100   35.8770 C   0  0  0  0  0  0  0  0  0  0  0  0
   37.1110   21.7410   34.8680 N   0  0  0  0  0  0  0  0  0  0  0  0
   38.0850   23.1930   38.0800 C   0  0  0  0  0  0  0  0  0  0  0  0
   39.3140   23.4170   37.9040 O   0  0  0  0  0  0  0  0  0  0  0  0
   37.2020   22.6370   37.1340 N   0  0  0  0  0  0  0  0  0  0  0  0
   39.6810   21.5720   32.6490 H   0  0  0  0  0  0  0  0  0  0  0  0
   40.7980   22.5880   34.5030 H   0  0  0  0  0  0  0  0  0  0  0  0
   37.6980   23.4670   39.0680 H   0  0  0  0  0  0  0  0  0  0  0  0
   36.1970   22.4610   37.2960 H   0  0  0  0  0  0  0  0  0  0  0  0
  1 25  1  0  0  0  0
  1  3  1  0  0  0  0
  2 10  1  0  0  0  0
  3  2  2  0  0  0  0
  3  4  1  0  0  0  0
  4 12  1  0  0  0  0
  4  5  2  0  0  0  0
  5  9  1  0  0  0  0
  5  6  1  0  0  0  0
  6 13  1  0  0  0  0
  6  7  1  0  0  0  0
  7 14  1  0  0  0  0
  8 15  1  0  0  0  0
  8  7  2  0  0  0  0
  9  8  1  0  0  0  0
 10  9  2  0  0  0  0
 11  2  1  0  0  0  0
 16 23  1  1  0  0  0
 16 21  1  0  0  0  0
 16 17  1  0  0  0  0
 17 10  1  6  0  0  0
 17 18  1  0  0  0  0
 18 19  1  0  0  0  0
 20 18  1  0  0  0  0
 21 20  1  0  0  0  0
 22 21  1  0  0  0  0
 24 23  1  0  0  0  0
 25 27  1  0  0  0  0
 25 28  1  0  0  0  0
 26 25  1  0  0  0  0
 28 29  1  0  0  0  0
 30 28  1  0  0  0  0
 31 28  1  0  0  0  0
 31 34  1  0  0  0  0
 32 31  1  0  0  0  0
 33 31  1  0  0  0  0
 34 35  1  0  0  0  0
 35 40  1  0  0  0  0
 36 35  2  0  0  0  0
 36 37  1  0  0  0  0
 37 38  2  0  0  0  0
 38 39  1  0  0  0  0
 39 43  1  0  0  0  0
 40 39  2  0  0  0  0
 41 46  1  0  0  0  0
 42 41  2  0  0  0  0
 43 47  1  0  0  0  0
 43 41  1  0  0  0  0
 44 36  1  0  0  0  0
 45 37  1  0  0  0  0
M  END
>  <minimizedAffinity>
-5.62926149

$$$$

 OpenBabel03262521263D

 47 50  0  0  1  0  0  0  0  0999 V2000
   39.6730   26.7180   32.6990 S   0  0  0  0  0  0  0  0  0  0  0  0
   39.6500   24.5750   34.5640 C   0  0  0  0  0  0  0  0  0  0  0  0
   40.3340   25.5890   33.8700 C   0  0  0  0  0  0  0  0  0  0  0  0
   41.6880   25.6950   34.1600 C   0  0  0  0  0  0  0  0  0  0  0  0
   42.3430   24.8940   35.0420 C   0  0  0  0  0  0  0  0  0  0  0  0
   43.5770   24.7720   35.4960 N   0  0  0  0  0  0  0  0  0  0  0  0
   43.7040   23.7710   36.4060 C   0  0  0  0  0  0  0  0  0  0  0  0
   42.4510   23.2160   36.5380 C   0  0  0  0  0  0  0  0  0  0  0  0
   41.6080   23.9170   35.6900 C   0  0  0  0  0  0  0  0  0  0  0  0
   40.2620   23.7440   35.4610 C   0  0  0  0  0  0  0  0  0  0  0  0
   38.5990   24.5140   34.3260 H   0  0  0  0  0  0  0  0  0  0  0  0
   42.3030   26.4470   33.6760 H   0  0  0  0  0  0  0  0  0  0  0  0
   44.3810   25.3760   35.1940 H   0  0  0  0  0  0  0  0  0  0  0  0
   44.5980   23.4600   36.9290 H   0  0  0  0  0  0  0  0  0  0  0  0
   42.1560   22.3870   37.1790 H   0  0  0  0  0  0  0  0  0  0  0  0
   38.9840   23.3370   37.4510 C   0  0  1  0  0  3  0  0  0  0  0  0
   39.5380   22.6810   36.1950 C   0  0  1  0  0  3  0  0  0  0  0  0
   38.3320   22.1450   35.5070 C   0  0  0  0  0  3  0  0  0  0  0  0
   38.0740   22.6340   34.5520 H   0  0  0  0  0  0  0  0  0  0  0  0
   37.2570   22.3290   36.3670 O   0  0  0  0  0  0  0  0  0  0  0  0
   37.5090   23.4540   37.1150 C   0  0  0  0  0  3  0  0  0  0  0  0
   37.2810   24.3880   36.5840 H   0  0  0  0  0  0  0  0  0  0  0  0
   39.2300   22.5170   38.5290 O   0  0  0  0  0  0  0  0  0  0  0  0
   39.5740   23.0810   39.2720 H   0  0  0  0  0  0  0  0  0  0  0  0
   37.9080   26.9510   32.8280 C   0  0  0  0  0  0  0  0  0  0  0  0
   37.6560   28.0440   32.7320 H   0  0  0  0  0  0  0  0  0  0  0  0
   37.6020   26.6800   33.8610 H   0  0  0  0  0  0  0  0  0  0  0  0
   37.0970   26.1160   31.8590 C   0  0  0  0  0  0  0  0  0  0  0  0
   36.1960   25.7910   32.4250 H   0  0  0  0  0  0  0  0  0  0  0  0
   36.6760   26.8700   31.1350 H   0  0  0  0  0  0  0  0  0  0  0  0
   37.8090   25.1350   31.2470 C   0  0  0  0  0  0  0  0  0  0  0  0
   38.4750   25.4500   30.4150 H   0  0  0  0  0  0  0  0  0  0  0  0
   38.4330   24.5020   31.9210 H   0  0  0  0  0  0  0  0  0  0  0  0
   36.7630   24.4030   30.7580 O   0  0  0  0  0  0  0  0  0  0  0  0
   36.6880   23.0730   31.0800 C   0  0  0  0  0  0  0  0  0  0  0  0
   35.4990   22.7340   31.6780 C   0  0  0  0  0  0  0  0  0  0  0  0
   35.2840   21.3990   32.0610 C   0  0  0  0  0  0  0  0  0  0  0  0
   36.2990   20.5100   31.8070 N   0  0  0  0  0  0  0  0  0  0  0  0
   37.4620   20.8800   31.2110 C   0  0  0  0  0  0  0  0  0  0  0  0
   37.6300   22.1610   30.8590 N   0  0  0  0  0  0  0  0  0  0  0  0
   38.0890   18.5860   31.4780 C   0  0  0  0  0  0  0  0  0  0  0  0
   37.0120   18.2800   32.0590 O   0  0  0  0  0  0  0  0  0  0  0  0
   38.4380   19.8640   31.0010 N   0  0  0  0  0  0  0  0  0  0  0  0
   34.6230   23.3230   31.9400 H   0  0  0  0  0  0  0  0  0  0  0  0
   34.4130   21.0150   32.5300 H   0  0  0  0  0  0  0  0  0  0  0  0
   38.7990   17.7610   31.3460 H   0  0  0  0  0  0  0  0  0  0  0  0
   39.3260   20.0960   30.5270 H   0  0  0  0  0  0  0  0  0  0  0  0
  1 25  1  0  0  0  0
  1  3  1  0  0  0  0
  2 10  1  0  0  0  0
  3  4  1  0  0  0  0
  3  2  2  0  0  0  0
  4  5  2  0  0  0  0
  5  6  1  0  0  0  0
  5  9  1  0  0  0  0
  6  7  1  0  0  0  0
  7  8  2  0  0  0  0
  7 14  1  0  0  0  0
  8 15  1  0  0  0  0
  9  8  1  0  0  0  0
 10  9  2  0  0  0  0
 11  2  1  0  0  0  0
 12  4  1  0  0  0  0
 13  6  1  0  0  0  0
 16 23  1  1  0  0  0
 17 10  1  6  0  0  0
 17 16  1  0  0  0  0
 18 17  1  0  0  0  0
 18 20  1  0  0  0  0
 19 18  1  0  0  0  0
 20 21  1  0  0  0  0
 21 16  1  0  0  0  0
 22 21  1  0  0  0  0
 23 24  1  0  0  0  0
 25 27  1  0  0  0  0
 26 25  1  0  0  0  0
 28 29  1  0  0  0  0
 28 25  1  0  0  0  0
 30 28  1  0  0  0  0
 31 28  1  0  0  0  0
 31 33  1  0  0  0  0
 32 31  1  0  0  0  0
 34 35  1  0  0  0  0
 34 31  1  0  0  0  0
 35 36  1  0  0  0  0
 36 44  1  0  0  0  0
 36 37  2  0  0  0  0
 37 45  1  0  0  0  0
 38 37  1  0  0  0  0
 39 38  2  0  0  0  0
 40 35  2  0  0  0  0
 40 39  1  0  0  0  0
 41 42  2  0  0  0  0
 43 39  1  0  0  0  0
 43 41  1  0  0  0  0
 46 41  1  0  0  0  0
 47 43  1  0  0  0  0
M  END
>  <minimizedAffinity>
-5.59849119

$$$$

 OpenBabel03262521263D

 47 50  0  0  1  0  0  0  0  0999 V2000
   38.0170   26.4520   35.2800 S   0  0  0  0  0  0  0  0  0  0  0  0
   36.2720   28.4830   34.3320 C   0  0  0  0  0  0  0  0  0  0  0  0
   37.2870   27.5370   34.1090 C   0  0  0  0  0  0  0  0  0  0  0  0
   37.7540   27.4680   32.8030 C   0  0  0  0  0  0  0  0  0  0  0  0
   37.2890   28.2420   31.7850 C   0  0  0  0  0  0  0  0  0  0  0  0
   37.5370   28.3860   30.4970 N   0  0  0  0  0  0  0  0  0  0  0  0
   36.7610   29.3380   29.9170 C   0  0  0  0  0  0  0  0  0  0  0  0
   35.9580   29.8360   30.9180 C   0  0  0  0  0  0  0  0  0  0  0  0
   36.2880   29.1520   32.0780 C   0  0  0  0  0  0  0  0  0  0  0  0
   35.7700   29.2850   33.3450 C   0  0  0  0  0  0  0  0  0  0  0  0
   35.9220   28.5170   35.3530 H   0  0  0  0  0  0  0  0  0  0  0  0
   38.5370   26.7690   32.5290 H   0  0  0  0  0  0  0  0  0  0  0  0
   38.2540   27.8310   29.9660 H   0  0  0  0  0  0  0  0  0  0  0  0
   36.7600   29.6530   28.8820 H   0  0  0  0  0  0  0  0  0  0  0  0
   35.2020   30.6150   30.8380 H   0  0  0  0  0  0  0  0  0  0  0  0
   33.3850   29.5460   33.3310 C   0  0  1  0  0  3  0  0  0  0  0  0
   34.6960   30.2770   33.5830 C   0  0  1  0  0  3  0  0  0  0  0  0
   34.5770   30.7570   34.9860 C   0  0  0  0  0  3  0  0  0  0  0  0
   35.2620   30.2840   35.7100 H   0  0  0  0  0  0  0  0  0  0  0  0
   33.2820   30.4780   35.4040 O   0  0  0  0  0  0  0  0  0  0  0  0
   32.8650   29.3480   34.7420 C   0  0  0  0  0  3  0  0  0  0  0  0
   33.2400   28.4190   35.1930 H   0  0  0  0  0  0  0  0  0  0  0  0
   32.5690   30.3450   32.5620 O   0  0  0  0  0  0  0  0  0  0  0  0
   32.1720   29.7800   31.8470 H   0  0  0  0  0  0  0  0  0  0  0  0
   39.7920   26.5940   35.3970 C   0  0  0  0  0  0  0  0  0  0  0  0
   40.1180   26.4830   36.4690 H   0  0  0  0  0  0  0  0  0  0  0  0
   40.0710   27.6340   35.1240 H   0  0  0  0  0  0  0  0  0  0  0  0
   40.5550   25.6470   34.4940 C   0  0  0  0  0  0  0  0  0  0  0  0
   39.8590   25.4020   33.6620 H   0  0  0  0  0  0  0  0  0  0  0  0
   41.3200   26.3030   33.9930 H   0  0  0  0  0  0  0  0  0  0  0  0
   41.1080   24.5910   35.1460 C   0  0  0  0  0  0  0  0  0  0  0  0
   42.1910   24.6650   35.3800 H   0  0  0  0  0  0  0  0  0  0  0  0
   40.6040   24.2960   36.0960 H   0  0  0  0  0  0  0  0  0  0  0  0
   40.8990   23.6350   34.1910 O   0  0  0  0  0  0  0  0  0  0  0  0
   39.7100   22.9510   34.1980 C   0  0  0  0  0  0  0  0  0  0  0  0
   39.3070   22.5670   32.9420 C   0  0  0  0  0  0  0  0  0  0  0  0
   38.1040   21.8560   32.8000 C   0  0  0  0  0  0  0  0  0  0  0  0
   37.4010   21.5900   33.9490 N   0  0  0  0  0  0  0  0  0  0  0  0
   37.8300   21.9850   35.1760 C   0  0  0  0  0  0  0  0  0  0  0  0
   38.9830   22.6600   35.2720 N   0  0  0  0  0  0  0  0  0  0  0  0
   35.8170   20.9710   35.9800 C   0  0  0  0  0  0  0  0  0  0  0  0
   35.4280   20.6470   34.8250 O   0  0  0  0  0  0  0  0  0  0  0  0
   37.0120   21.6490   36.2920 N   0  0  0  0  0  0  0  0  0  0  0  0
   39.7540   22.7080   31.9600 H   0  0  0  0  0  0  0  0  0  0  0  0
   37.6880   21.5060   31.8890 H   0  0  0  0  0  0  0  0  0  0  0  0
   35.1440   20.6850   36.7960 H   0  0  0  0  0  0  0  0  0  0  0  0
   37.3140   21.9060   37.2460 H   0  0  0  0  0  0  0  0  0  0  0  0
  1 25  1  0  0  0  0
  2 11  1  0  0  0  0
  3  2  1  0  0  0  0
  3  1  1  0  0  0  0
  4  3  2  0  0  0  0
  5  9  2  0  0  0  0
  5  4  1  0  0  0  0
  6  5  1  0  0  0  0
  7  6  1  0  0  0  0
  7  8  2  0  0  0  0
  8  9  1  0  0  0  0
  9 10  1  0  0  0  0
 10  2  2  0  0  0  0
 12  4  1  0  0  0  0
 13  6  1  0  0  0  0
 14  7  1  0  0  0  0
 15  8  1  0  0  0  0
 16 23  1  6  0  0  0
 16 17  1  0  0  0  0
 16 21  1  0  0  0  0
 17 10  1  1  0  0  0
 17 18  1  0  0  0  0
 18 20  1  0  0  0  0
 18 19  1  0  0  0  0
 21 22  1  0  0  0  0
 21 20  1  0  0  0  0
 24 23  1  0  0  0  0
 25 26  1  0  0  0  0
 27 25  1  0  0  0  0
 28 31  1  0  0  0  0
 28 25  1  0  0  0  0
 29 28  1  0  0  0  0
 30 28  1  0  0  0  0
 31 32  1  0  0  0  0
 31 33  1  0  0  0  0
 34 35  1  0  0  0  0
 34 31  1  0  0  0  0
 35 40  1  0  0  0  0
 36 35  2  0  0  0  0
 37 36  1  0  0  0  0
 37 38  2  0  0  0  0
 38 39  1  0  0  0  0
 39 40  2  0  0  0  0
 39 43  1  0  0  0  0
 41 43  1  0  0  0  0
 41 46  1  0  0  0  0
 42 41  2  0  0  0  0
 43 47  1  0  0  0  0
 44 36  1  0  0  0  0
 45 37  1  0  0  0  0
M  END
>  <minimizedAffinity>
-5.56912804

$$$$

 OpenBabel03262521263D

 47 50  0  0  1  0  0  0  0  0999 V2000
   38.9870   23.2180   32.4790 S   0  0  0  0  0  0  0  0  0  0  0  0
   40.4140   22.8440   34.9070 C   0  0  0  0  0  0  0  0  0  0  0  0
   39.2350   23.1740   34.2170 C   0  0  0  0  0  0  0  0  0  0  0  0
   38.1500   23.5000   35.0210 C   0  0  0  0  0  0  0  0  0  0  0  0
   38.1860   23.5120   36.3800 C   0  0  0  0  0  0  0  0  0  0  0  0
   37.3420   23.7720   37.3620 N   0  0  0  0  0  0  0  0  0  0  0  0
   37.9050   23.6290   38.5890 C   0  0  0  0  0  0  0  0  0  0  0  0
   39.2100   23.2480   38.3670 C   0  0  0  0  0  0  0  0  0  0  0  0
   39.3810   23.1760   36.9940 C   0  0  0  0  0  0  0  0  0  0  0  0
   40.5030   22.8410   36.2720 C   0  0  0  0  0  0  0  0  0  0  0  0
   41.2420   22.5910   34.2620 H   0  0  0  0  0  0  0  0  0  0  0  0
   37.1950   23.7700   34.5830 H   0  0  0  0  0  0  0  0  0  0  0  0
   36.3410   24.0590   37.2210 H   0  0  0  0  0  0  0  0  0  0  0  0
   37.4400   23.7780   39.5540 H   0  0  0  0  0  0  0  0  0  0  0  0
   39.9770   23.0380   39.1110 H   0  0  0  0  0  0  0  0  0  0  0  0
   41.7860   20.9660   37.0440 C   0  0  1  0  0  3  0  0  0  0  0  0
   41.7450   22.4870   36.9960 C   0  0  1  0  0  3  0  0  0  0  0  0
   43.0090   22.8590   36.3040 C   0  0  0  0  0  3  0  0  0  0  0  0
   42.8890   23.3080   35.3030 H   0  0  0  0  0  0  0  0  0  0  0  0
   43.7460   21.6920   36.1460 O   0  0  0  0  0  0  0  0  0  0  0  0
   42.8570   20.6520   36.0160 C   0  0  0  0  0  3  0  0  0  0  0  0
   42.4420   20.5610   35.0030 H   0  0  0  0  0  0  0  0  0  0  0  0
   42.1260   20.5680   38.3170 O   0  0  0  0  0  0  0  0  0  0  0  0
   41.5170   19.8280   38.5800 H   0  0  0  0  0  0  0  0  0  0  0  0
   37.3520   23.7420   31.9900 C   0  0  0  0  0  0  0  0  0  0  0  0
   36.6130   23.5070   32.8050 H   0  0  0  0  0  0  0  0  0  0  0  0
   37.0350   23.1140   31.1310 H   0  0  0  0  0  0  0  0  0  0  0  0
   37.2630   25.1960   31.5740 C   0  0  0  0  0  0  0  0  0  0  0  0
   38.1620   25.3840   30.9470 H   0  0  0  0  0  0  0  0  0  0  0  0
   36.4270   25.2120   30.8200 H   0  0  0  0  0  0  0  0  0  0  0  0
   37.0600   26.0520   32.6080 C   0  0  0  0  0  0  0  0  0  0  0  0
   36.0390   26.4780   32.7070 H   0  0  0  0  0  0  0  0  0  0  0  0
   37.3330   25.6620   33.6170 H   0  0  0  0  0  0  0  0  0  0  0  0
   37.9410   27.0290   32.2340 O   0  0  0  0  0  0  0  0  0  0  0  0
   39.1980   27.0220   32.7800 C   0  0  0  0  0  0  0  0  0  0  0  0
   39.1880   26.8440   34.1420 C   0  0  0  0  0  0  0  0  0  0  0  0
   40.4110   26.8160   34.8350 C   0  0  0  0  0  0  0  0  0  0  0  0
   41.5520   26.9730   34.0870 N   0  0  0  0  0  0  0  0  0  0  0  0
   41.5240   27.1460   32.7400 C   0  0  0  0  0  0  0  0  0  0  0  0
   40.3400   27.1670   32.1150 N   0  0  0  0  0  0  0  0  0  0  0  0
   43.9060   27.2880   32.9170 C   0  0  0  0  0  0  0  0  0  0  0  0
   43.8980   27.1590   34.1710 O   0  0  0  0  0  0  0  0  0  0  0  0
   42.7750   27.2980   32.0780 N   0  0  0  0  0  0  0  0  0  0  0  0
   38.3750   26.7120   34.8520 H   0  0  0  0  0  0  0  0  0  0  0  0
   40.5340   26.6860   35.8810 H   0  0  0  0  0  0  0  0  0  0  0  0
   44.8990   27.4010   32.4660 H   0  0  0  0  0  0  0  0  0  0  0  0
   42.8020   27.4060   31.0500 H   0  0  0  0  0  0  0  0  0  0  0  0
  1  3  1  0  0  0  0
  2 10  1  0  0  0  0
  3  2  2  0  0  0  0
  3  4  1  0  0  0  0
  4  5  2  0  0  0  0
  5  9  1  0  0  0  0
  5  6  1  0  0  0  0
  6  7  1  0  0  0  0
  7 14  1  0  0  0  0
  8  7  2  0  0  0  0
  8 15  1  0  0  0  0
  9  8  1  0  0  0  0
 10  9  2  0  0  0  0
 11  2  1  0  0  0  0
 12  4  1  0  0  0  0
 13  6  1  0  0  0  0
 16 23  1  1  0  0  0
 17 10  1  6  0  0  0
 17 16  1  0  0  0  0
 18 17  1  0  0  0  0
 19 18  1  0  0  0  0
 20 18  1  0  0  0  0
 21 20  1  0  0  0  0
 21 16  1  0  0  0  0
 22 21  1  0  0  0  0
 23 24  1  0  0  0  0
 25  1  1  0  0  0  0
 25 26  1  0  0  0  0
 27 25  1  0  0  0  0
 28 25  1  0  0  0  0
 28 31  1  0  0  0  0
 29 28  1  0  0  0  0
 30 28  1  0  0  0  0
 31 32  1  0  0  0  0
 31 33  1  0  0  0  0
 34 31  1  0  0  0  0
 34 35  1  0  0  0  0
 35 36  1  0  0  0  0
 36 37  2  0  0  0  0
 36 44  1  0  0  0  0
 37 45  1  0  0  0  0
 38 37  1  0  0  0  0
 39 38  2  0  0  0  0
 40 39  1  0  0  0  0
 40 35  2  0  0  0  0
 41 42  2  0  0  0  0
 43 39  1  0  0  0  0
 43 41  1  0  0  0  0
 46 41  1  0  0  0  0
 47 43  1  0  0  0  0
M  END
>  <minimizedAffinity>
-5.51633167

$$$$
