
 OpenBabel03272500413D

 40 43  0  0  1  0  0  0  0  0999 V2000
   36.2350   31.0500   48.0550 C   0  0  1  0  0  0  0  0  0  0  0  0
   35.8410   30.1660   47.0010 C   0  0  0  0  0  0  0  0  0  0  0  0
   36.4940   29.6110   48.2360 C   0  0  2  0  0  0  0  0  0  0  0  0
   35.4910   31.6570   48.5400 H   0  0  0  0  0  0  0  0  0  0  0  0
   34.7780   29.9680   46.8230 H   0  0  0  0  0  0  0  0  0  0  0  0
   36.4380   30.1220   46.0580 H   0  0  0  0  0  0  0  0  0  0  0  0
   37.5130   29.2230   48.1110 H   0  0  0  0  0  0  0  0  0  0  0  0
   36.1550   28.6950   50.5180 C   0  0  2  0  0  0  0  0  0  0  0  0
   35.6600   28.7580   49.1370 C   0  0  1  0  0  0  0  0  0  0  0  0
   34.2960   29.3460   49.2550 C   0  0  0  0  0  0  0  0  0  0  0  0
   34.2450   30.0680   50.4520 O   0  0  0  0  0  0  0  0  0  0  0  0
   34.8460   29.1990   51.3080 C   0  0  0  0  0  0  0  0  0  0  0  0
   36.2660   27.8180   51.1410 H   0  0  0  0  0  0  0  0  0  0  0  0
   35.6590   27.7300   48.6990 H   0  0  0  0  0  0  0  0  0  0  0  0
   33.6820   28.4440   49.5300 H   0  0  0  0  0  0  0  0  0  0  0  0
   33.7760   29.7330   48.4220 H   0  0  0  0  0  0  0  0  0  0  0  0
   35.0620   29.4480   52.3070 H   0  0  0  0  0  0  0  0  0  0  0  0
   34.2010   28.2600   51.2750 H   0  0  0  0  0  0  0  0  0  0  0  0
   37.0260   29.7440   50.7930 O   0  0  0  0  0  0  0  0  0  0  0  0
   37.4450   29.9650   51.9730 C   0  0  0  0  0  0  0  0  0  0  0  0
   38.1920   30.8540   51.9530 H   0  0  0  0  0  0  0  0  0  0  0  0
   38.0950   29.1740   52.4600 H   0  0  0  0  0  0  0  0  0  0  0  0
   36.7400   30.3700   52.7770 H   0  0  0  0  0  0  0  0  0  0  0  0
   37.5000   31.8890   48.0010 C   0  0  0  0  0  0  0  0  0  0  0  0
   37.7610   32.7160   49.0830 C   0  0  0  0  0  0  0  0  0  0  0  0
   38.9180   33.4830   48.9810 C   0  0  0  0  0  0  0  0  0  0  0  0
   39.6980   33.3840   47.8710 N   0  0  0  0  0  0  0  0  0  0  0  0
   39.4180   32.5640   46.8260 C   0  0  0  0  0  0  0  0  0  0  0  0
   38.2980   31.8080   46.9020 N   0  0  0  0  0  0  0  0  0  0  0  0
   37.1270   32.7750   49.9490 H   0  0  0  0  0  0  0  0  0  0  0  0
   39.2170   34.1620   49.7670 H   0  0  0  0  0  0  0  0  0  0  0  0
   39.9000   31.3230   44.7620 C   0  0  1  0  0  0  0  0  0  0  0  0
   40.3040   32.4930   45.6370 C   0  0  1  0  0  0  0  0  0  0  0  0
   40.1270   33.6610   44.7290 C   0  0  0  0  0  0  0  0  0  0  0  0
   41.1270   34.0380   44.4310 H   0  0  0  0  0  0  0  0  0  0  0  0
   39.4890   33.2430   43.5720 O   0  0  0  0  0  0  0  0  0  0  0  0
   38.9890   31.9750   43.7690 C   0  0  0  0  0  0  0  0  0  0  0  0
   39.1070   31.3940   42.8120 H   0  0  0  0  0  0  0  0  0  0  0  0
   41.0070   30.7550   44.1190 O   0  0  0  0  0  0  0  0  0  0  0  0
   41.8390   30.9960   44.6000 H   0  0  0  0  0  0  0  0  0  0  0  0
  1  3  1  0  0  0  0
  1  4  1  1  0  0  0
  2  1  1  0  0  0  0
  2  3  1  0  0  0  0
  3  7  1  6  0  0  0
  3  9  1  0  0  0  0
  5  2  1  0  0  0  0
  6  2  1  0  0  0  0
  8 19  1  0  0  0  0
  8 13  1  1  0  0  0
  8 12  1  0  0  0  0
  9 14  1  6  0  0  0
  9 10  1  0  0  0  0
  9  8  1  0  0  0  0
 10 15  1  0  0  0  0
 10 11  1  0  0  0  0
 11 12  1  0  0  0  0
 12 17  1  0  0  0  0
 16 10  1  0  0  0  0
 18 12  1  0  0  0  0
 19 20  1  0  0  0  0
 20 22  1  0  0  0  0
 20 23  1  0  0  0  0
 21 20  1  0  0  0  0
 24  1  1  0  0  0  0
 24 25  1  0  0  0  0
 25 30  1  0  0  0  0
 26 25  2  0  0  0  0
 26 31  1  0  0  0  0
 27 26  1  0  0  0  0
 28 29  1  0  0  0  0
 28 27  2  0  0  0  0
 29 24  2  0  0  0  0
 32 39  1  6  0  0  0
 32 33  1  0  0  0  0
 33 28  1  1  0  0  0
 34 33  1  0  0  0  0
 35 34  1  0  0  0  0
 36 37  1  0  0  0  0
 36 34  1  0  0  0  0
 37 32  1  0  0  0  0
 38 37  1  0  0  0  0
 39 40  1  0  0  0  0
M  END
>  <minimizedAffinity>
-5.6350131

>  <minimizedRMSD>
1.78835833

$$$$
