
 OpenBabel03272500073D

 39 42  0  0  1  0  0  0  0  0999 V2000
   32.2200   27.1300   47.8750 O   0  0  0  0  0  0  0  0  0  0  0  0
   30.9140   27.5540   48.1840 C   0  0  0  0  0  0  0  0  0  0  0  0
   30.7160   27.6920   49.5600 C   0  0  0  0  0  0  0  0  0  0  0  0
   29.5010   28.0990   50.0580 C   0  0  0  0  0  0  0  0  0  0  0  0
   28.4750   28.3710   49.1660 C   0  0  0  0  0  0  0  0  0  0  0  0
   28.7000   28.2270   47.8210 C   0  0  0  0  0  0  0  0  0  0  0  0
   29.9050   27.8190   47.2840 C   0  0  0  0  0  0  0  0  0  0  0  0
   31.4760   27.4950   50.3110 H   0  0  0  0  0  0  0  0  0  0  0  0
   29.3300   28.2110   51.1190 H   0  0  0  0  0  0  0  0  0  0  0  0
   27.5140   28.6950   49.5520 H   0  0  0  0  0  0  0  0  0  0  0  0
   27.8660   28.4520   47.1740 H   0  0  0  0  0  0  0  0  0  0  0  0
   30.0500   26.2060   45.3870 C   0  0  2  0  0  3  0  0  0  0  0  0
   30.1750   27.6390   45.8690 C   0  0  1  0  0  3  0  0  0  0  0  0
   29.0850   28.2320   44.9580 C   0  0  0  0  0  3  0  0  0  0  0  0
   28.0890   27.8180   45.2370 H   0  0  0  0  0  0  0  0  0  0  0  0
   29.3560   27.6890   43.7020 O   0  0  0  0  0  0  0  0  0  0  0  0
   30.0540   26.5050   43.8820 C   0  0  0  0  0  3  0  0  0  0  0  0
   29.6300   25.6630   43.3110 H   0  0  0  0  0  0  0  0  0  0  0  0
   28.8250   25.6810   45.7040 O   0  0  0  0  0  0  0  0  0  0  0  0
   28.8660   25.0480   46.4690 H   0  0  0  0  0  0  0  0  0  0  0  0
   35.2250   28.7760   48.9330 C   0  0  0  0  0  0  0  0  0  0  0  0
   35.1970   29.9950   48.2410 C   0  0  0  0  0  0  0  0  0  0  0  0
   34.1100   30.2280   47.3990 C   0  0  0  0  0  0  0  0  0  0  0  0
   33.1500   29.2690   47.3010 N   0  0  0  0  0  0  0  0  0  0  0  0
   33.2040   28.1190   47.9740 C   0  0  0  0  0  0  0  0  0  0  0  0
   34.2510   27.8590   48.8030 N   0  0  0  0  0  0  0  0  0  0  0  0
   36.0830   28.5990   49.5940 H   0  0  0  0  0  0  0  0  0  0  0  0
   34.0730   31.1550   46.8610 H   0  0  0  0  0  0  0  0  0  0  0  0
   36.2640   30.9090   48.4290 N   0  0  0  0  0  0  0  0  0  0  0  0
   36.4710   31.5350   49.5820 C   0  0  0  0  0  0  0  0  0  0  0  0
   37.5440   32.4200   49.6890 C   0  0  0  0  0  0  0  0  0  0  0  0
   38.3050   32.5700   48.5720 C   0  0  0  0  0  0  0  0  0  0  0  0
   39.2780   33.3680   48.6540 O   0  0  0  0  0  0  0  0  0  0  0  0
   38.1300   31.9650   47.4090 N   0  0  0  0  0  0  0  0  0  0  0  0
   37.0740   31.1030   47.3320 C   0  0  0  0  0  0  0  0  0  0  0  0
   36.8920   30.5140   46.2230 O   0  0  0  0  0  0  0  0  0  0  0  0
   35.8360   31.3790   50.4370 H   0  0  0  0  0  0  0  0  0  0  0  0
   37.7100   32.9290   50.6270 H   0  0  0  0  0  0  0  0  0  0  0  0
   38.7610   32.1330   46.5950 H   0  0  0  0  0  0  0  0  0  0  0  0
  1 25  1  0  0  0  0
  1  2  1  0  0  0  0
  2  3  1  0  0  0  0
  3  4  2  0  0  0  0
  3  8  1  0  0  0  0
  4  9  1  0  0  0  0
  5 10  1  0  0  0  0
  5  4  1  0  0  0  0
  6  5  2  0  0  0  0
  7  6  1  0  0  0  0
  7  2  2  0  0  0  0
 11  6  1  0  0  0  0
 12 19  1  1  0  0  0
 12 13  1  0  0  0  0
 13  7  1  1  0  0  0
 14 15  1  0  0  0  0
 14 13  1  0  0  0  0
 16 17  1  0  0  0  0
 16 14  1  0  0  0  0
 17 12  1  0  0  0  0
 18 17  1  0  0  0  0
 19 20  1  0  0  0  0
 21 27  1  0  0  0  0
 22 29  1  0  0  0  0
 22 21  2  0  0  0  0
 23 22  1  0  0  0  0
 24 23  2  0  0  0  0
 24 25  1  0  0  0  0
 25 26  2  0  0  0  0
 26 21  1  0  0  0  0
 28 23  1  0  0  0  0
 29 30  1  0  0  0  0
 30 31  2  0  0  0  0
 30 37  1  0  0  0  0
 31 38  1  0  0  0  0
 32 33  2  0  0  0  0
 32 31  1  0  0  0  0
 34 32  1  0  0  0  0
 35 34  1  0  0  0  0
 35 29  1  0  0  0  0
 36 35  2  0  0  0  0
 39 34  1  0  0  0  0
M  END
>  <minimizedAffinity>
-5.76473093

>  <minimizedRMSD>
1.0546211

$$$$
