REMARK  Name = 
REMARK  6 active torsions:
REMARK  status: ('A' for Active; 'I' for Inactive)
REMARK    1  A    between atoms: C_1  and  O_7
REMARK    2  A    between atoms: C_3  and  C_18
REMARK    3  A    between atoms: O_7  and  P_9
REMARK    4  A    between atoms: P_9  and  O_10
REMARK    5  A    between atoms: P_9  and  O_11
REMARK    6  A    between atoms: O_16  and  C_17
REMARK                            x       y       z     vdW  Elec       q    Type
REMARK                         _______ _______ _______ _____ _____    ______ ____
ROOT
ATOM      1  C   UNL     1      35.647  30.471  49.740  0.00  0.00    +0.000 A 
ATOM      2  C   UNL     1      35.986  29.483  50.665  0.00  0.00    +0.000 A 
ATOM      3  C   UNL     1      37.239  29.507  51.262  0.00  0.00    +0.000 A 
ATOM      4  N   UNL     1      38.092  30.497  50.921  0.00  0.00    +0.000 NA
ATOM      5  C   UNL     1      37.747  31.457  50.014  0.00  0.00    +0.000 A 
ATOM      6  N   UNL     1      36.516  31.437  49.425  0.00  0.00    +0.000 NA
ATOM      7  H   UNL     1      35.239  28.755  50.856  0.00  0.00    +0.000 HD
ATOM      8  H   UNL     1      38.497  32.226  49.792  0.00  0.00    +0.000 HD
ENDROOT
BRANCH   3  10
ATOM      9  C   UNL     1      36.697  27.262  52.237  0.00  0.00    +0.000 C 
ATOM     10  C   UNL     1      37.599  28.481  52.226  0.00  0.00    +0.000 C 
ATOM     11  C   UNL     1      38.914  27.794  51.926  0.00  0.00    +0.000 C 
ATOM     12  H   UNL     1      39.745  28.468  52.218  0.00  0.00    +0.000 HD
ATOM     13  O   UNL     1      38.897  26.614  52.645  0.00  0.00    +0.000 OA
ATOM     14  C   UNL     1      37.612  26.338  53.045  0.00  0.00    +0.000 C 
ATOM     15  H   UNL     1      37.522  26.668  54.116  0.00  0.00    +0.000 HD
BRANCH   9  16
ATOM     16  O   UNL     1      35.484  27.489  52.854  0.00  0.00    +0.000 OA
ATOM     17  H   UNL     1      34.718  27.169  52.284  0.00  0.00    +0.000 HD
ENDBRANCH   9  16
ENDBRANCH   3  10
BRANCH   1  18
ATOM     18  O   UNL     1      34.450  30.590  49.061  0.00  0.00    +0.000 OA
BRANCH  18  20
ATOM     19  O   UNL     1      35.502  30.154  46.637  0.00  0.00    +0.000 OA
ATOM     20  P   UNL     1      34.239  30.012  47.451  0.00  0.00    +0.000 P 
BRANCH  20  21
ATOM     21  O   UNL     1      33.743  28.404  47.595  0.00  0.00    +0.000 OA
ATOM     22  H   UNL     1      33.088  28.370  48.339  0.00  0.00    +0.000 HD
ENDBRANCH  20  21
BRANCH  20  23
ATOM     23  O   UNL     1      33.042  30.939  46.686  0.00  0.00    +0.000 OA
ATOM     24  H   UNL     1      33.416  31.757  46.282  0.00  0.00    +0.000 HD
ENDBRANCH  20  23
ENDBRANCH  18  20
ENDBRANCH   1  18
TORSDOF 6
