
     RDKit          3D

 29 31  0  0  0  0  0  0  0  0999 V2000
   38.5851   32.6262   49.3943 C   0  0  0  0  0  0  0  0  0  0  0  0
   38.8451   32.6184   48.0236 C   0  0  0  0  0  0  0  0  0  0  0  0
   38.5165   31.4554   47.3163 C   0  0  0  0  0  0  0  0  0  0  0  0
   37.9668   30.4004   47.9850 N   0  0  0  0  0  0  0  0  0  0  0  0
   37.7315   30.4566   49.3322 C   0  0  0  0  0  0  0  0  0  0  0  0
   38.0440   31.5774   50.0342 N   0  0  0  0  0  0  0  0  0  0  0  0
   37.1417   29.2796   50.0191 C   0  0  0  0  0  0  0  0  0  0  0  0
   35.7279   28.9905   49.9830 C   0  0  0  0  0  0  0  0  0  0  0  0
   36.2974   29.5486   51.2403 C   0  0  0  0  0  0  0  0  0  0  0  0
   38.8592   33.5570   49.8995 H   0  0  0  0  0  0  0  0  0  0  0  0
   39.2772   33.4376   47.4771 H   0  0  0  0  0  0  0  0  0  0  0  0
   38.6707   31.3275   46.2478 H   0  0  0  0  0  0  0  0  0  0  0  0
   35.2748   27.9883   49.9746 H   0  0  0  0  0  0  0  0  0  0  0  0
   35.1026   29.7112   49.3833 H   0  0  0  0  0  0  0  0  0  0  0  0
   36.0844   30.5809   51.5516 H   0  0  0  0  0  0  0  0  0  0  0  0
   36.3514   28.8386   52.0842 H   0  0  0  0  0  0  0  0  0  0  0  0
   38.5626   25.9538   49.9815 O   0  0  0  0  0  0  0  0  0  0  0  0
   37.7567   26.9046   50.6363 C   0  0  2  0  0  0  0  0  0  0  0  0
   38.2376   28.2591   50.2793 C   0  0  2  0  0  0  0  0  0  0  0  0
   39.0799   28.6639   51.4727 C   0  0  1  0  0  0  0  0  0  0  0  0
   40.1144   28.3455   51.2590 H   0  0  0  0  0  0  0  0  0  0  0  0
   38.5272   27.9924   52.5422 O   0  0  0  0  0  0  0  0  0  0  0  0
   38.0369   26.7766   52.0968 C   0  0  2  0  0  0  0  0  0  0  0  0
   38.7871   25.9944   52.3558 H   0  0  0  0  0  0  0  0  0  0  0  0
   38.0346   25.3319   49.4224 H   0  0  0  0  0  0  0  0  0  0  0  0
   36.7186   26.6788   50.3506 H   0  0  0  0  0  0  0  0  0  0  0  0
   38.8616   28.2189   49.3628 H   0  0  0  0  0  0  0  0  0  0  0  0
   39.0134   29.7537   51.6898 H   0  0  0  0  0  0  0  0  0  0  0  0
   37.1337   26.4888   52.6941 H   0  0  0  0  0  0  0  0  0  0  0  0
  1  6  2  0
  2  1  1  0
  3  4  1  0
  3  2  2  0
  4  5  2  0
  5  7  1  0
  5  6  1  0
  7  9  1  0
  8  7  1  0
  8  9  1  0
  1 10  1  0
  2 11  1  0
  3 12  1  0
  8 13  1  0
  8 14  1  0
  9 15  1  0
  9 16  1  0
 17 18  1  0
 18 19  1  0
 19 20  1  0
 20 21  1  6
 20 22  1  0
 22 23  1  0
 23 24  1  6
 23 18  1  0
 17 25  1  0
 18 26  1  1
 19 27  1  6
 20 28  1  0
 23 29  1  0
  7 19  1  0
M  ISO  8  10  14  11  14  12  14  13  13  14  13  15  13  16  13  21  15
M  ISO  1  24  16
M  END
>  <DihAtoms>  (1) 
4,6,18,17

>  <DihDeg>  (1) 
179.99798753833872

$$$$
