
 OpenBabel03272506343D

 19 20  0  0  1  0  0  0  0  0999 V2000
   37.4220   30.3330   50.7930 C   0  0  0  0  0  0  0  0  0  0  0  0
   38.3670   31.2000   50.2490 C   0  0  0  0  0  0  0  0  0  0  0  0
   38.1460   31.7100   48.9620 C   0  0  0  0  0  0  0  0  0  0  0  0
   37.0200   31.3320   48.3090 N   0  0  0  0  0  0  0  0  0  0  0  0
   36.1050   30.4790   48.8650 C   0  0  0  0  0  0  0  0  0  0  0  0
   36.3240   29.9950   50.0990 N   0  0  0  0  0  0  0  0  0  0  0  0
   39.2810   31.5500   50.6930 H   0  0  0  0  0  0  0  0  0  0  0  0
   38.8430   32.3870   48.4850 H   0  0  0  0  0  0  0  0  0  0  0  0
   34.5580   28.6140   48.4070 C   0  0  2  0  0  3  0  0  0  0  0  0
   34.8760   30.0710   48.1430 C   0  0  2  0  0  3  0  0  0  0  0  0
   35.1270   29.9950   46.6310 C   0  0  0  0  0  3  0  0  0  0  0  0
   36.0010   29.3690   46.4550 H   0  0  0  0  0  0  0  0  0  0  0  0
   33.9930   29.2970   46.2340 O   0  0  0  0  0  0  0  0  0  0  0  0
   33.8120   28.2610   47.1290 C   0  0  0  0  0  3  0  0  0  0  0  0
   32.7280   28.1900   47.4320 H   0  0  0  0  0  0  0  0  0  0  0  0
   33.7870   28.4200   49.5460 O   0  0  0  0  0  0  0  0  0  0  0  0
   33.8530   27.4290   49.7280 H   0  0  0  0  0  0  0  0  0  0  0  0
   37.7650   29.9060   52.0690 O   0  0  0  0  0  0  0  0  0  0  0  0
   37.6310   30.4690   52.8950 H   0  0  0  0  0  0  0  0  0  0  0  0
  1 18  1  0  0  0  0
  2  7  1  0  0  0  0
  2  1  1  0  0  0  0
  3  2  2  0  0  0  0
  4  5  2  0  0  0  0
  4  3  1  0  0  0  0
  5  6  1  0  0  0  0
  6  1  2  0  0  0  0
  8  3  1  0  0  0  0
  9 16  1  1  0  0  0
 10  9  1  0  0  0  0
 10  5  1  1  0  0  0
 11 10  1  0  0  0  0
 12 11  1  0  0  0  0
 13 11  1  0  0  0  0
 13 14  1  0  0  0  0
 14 15  1  0  0  0  0
 14  9  1  0  0  0  0
 16 17  1  0  0  0  0
 18 19  1  0  0  0  0
M  END
>  <minimizedAffinity>
-4.62940216

>  <minimizedRMSD>
1.43087733

$$$$
