REMARK  Name = 
REMARK  3 active torsions:
REMARK  status: ('A' for Active; 'I' for Inactive)
REMARK    1  A    between atoms: C_2  and  C_12
REMARK    2  A    between atoms: C_20  and  C_38
REMARK    3  A    between atoms: O_36  and  C_37
REMARK                            x       y       z     vdW  Elec       q    Type
REMARK                         _______ _______ _______ _____ _____    ______ ____
ROOT
ATOM      1  C   UNL     1      36.872  31.082  48.555  0.00  0.00    +0.000 A 
ATOM      2  N   UNL     1      36.811  31.964  49.564  0.00  0.00    +0.000 NA
ATOM      3  C   UNL     1      37.673  33.008  49.600  0.00  0.00    +0.000 A 
ATOM      4  N   UNL     1      38.631  33.237  48.652  0.00  0.00    +0.000 NA
ATOM      5  C   UNL     1      38.697  32.364  47.648  0.00  0.00    +0.000 A 
ATOM      6  C   UNL     1      39.615  32.480  46.621  0.00  0.00    +0.000 A 
ATOM      7  C   UNL     1      39.692  31.577  45.588  0.00  0.00    +0.000 A 
ATOM      8  C   UNL     1      38.826  30.524  45.581  0.00  0.00    +0.000 A 
ATOM      9  C   UNL     1      37.885  30.381  46.596  0.00  0.00    +0.000 A 
ATOM     10  C   UNL     1      37.829  31.294  47.603  0.00  0.00    +0.000 A 
ATOM     11  H   UNL     1      37.662  33.746  50.398  0.00  0.00    +0.000 HD
ATOM     12  H   UNL     1      40.266  33.364  46.725  0.00  0.00    +0.000 HD
ATOM     13  H   UNL     1      40.458  31.831  44.890  0.00  0.00    +0.000 HD
ATOM     14  H   UNL     1      39.053  29.932  44.700  0.00  0.00    +0.000 HD
ENDROOT
BRANCH   1  16
ATOM     15  C   UNL     1      35.847  28.919  49.401  0.00  0.00    +0.000 A 
ATOM     16  C   UNL     1      35.859  30.107  48.577  0.00  0.00    +0.000 A 
ATOM     17  C   UNL     1      34.760  30.339  47.688  0.00  0.00    +0.000 A 
ATOM     18  N   UNL     1      33.767  29.427  47.643  0.00  0.00    +0.000 NA
ATOM     19  C   UNL     1      33.804  28.314  48.429  0.00  0.00    +0.000 A 
ATOM     20  N   UNL     1      34.815  28.063  49.292  0.00  0.00    +0.000 NA
ATOM     21  N   UNL     1      32.737  27.350  48.276  0.00  0.00    +0.000 N 
ATOM     22  C   UNL     1      31.364  27.645  48.515  0.00  0.00    +0.000 C 
ATOM     23  C   UNL     1      30.625  26.442  48.016  0.00  0.00    +0.000 C 
ATOM     24  C   UNL     1      31.621  25.621  47.223  0.00  0.00    +0.000 C 
ATOM     25  C   UNL     1      32.910  25.948  47.852  0.00  0.00    +0.000 C 
ATOM     26  H   UNL     1      36.692  28.807  50.058  0.00  0.00    +0.000 HD
ATOM     27  H   UNL     1      34.729  31.206  47.083  0.00  0.00    +0.000 HD
ATOM     28  H   UNL     1      31.229  27.794  49.623  0.00  0.00    +0.000 HD
ATOM     29  H   UNL     1      31.024  28.534  47.955  0.00  0.00    +0.000 HD
ATOM     30  H   UNL     1      30.334  25.804  48.892  0.00  0.00    +0.000 HD
ATOM     31  H   UNL     1      29.702  26.669  47.485  0.00  0.00    +0.000 HD
ATOM     32  H   UNL     1      31.365  24.551  47.179  0.00  0.00    +0.000 HD
ATOM     33  H   UNL     1      31.624  26.097  46.199  0.00  0.00    +0.000 HD
ATOM     34  H   UNL     1      33.816  25.828  47.226  0.00  0.00    +0.000 HD
ATOM     35  H   UNL     1      33.011  25.335  48.782  0.00  0.00    +0.000 HD
ENDBRANCH   1  16
BRANCH   9  37
ATOM     36  C   UNL     1      37.376  28.647  44.923  0.00  0.00    +0.000 C 
ATOM     37  C   UNL     1      37.138  29.147  46.364  0.00  0.00    +0.000 C 
ATOM     38  C   UNL     1      35.695  29.479  46.212  0.00  0.00    +0.000 C 
ATOM     39  H   UNL     1      35.026  28.688  46.648  0.00  0.00    +0.000 HD
ATOM     40  O   UNL     1      35.442  29.666  44.886  0.00  0.00    +0.000 OA
ATOM     41  C   UNL     1      35.987  28.485  44.383  0.00  0.00    +0.000 C 
ATOM     42  H   UNL     1      35.915  28.327  43.328  0.00  0.00    +0.000 HD
BRANCH  36  43
ATOM     43  O   UNL     1      37.994  27.415  44.797  0.00  0.00    +0.000 OA
ATOM     44  H   UNL     1      37.405  26.633  44.911  0.00  0.00    +0.000 HD
ENDBRANCH  36  43
ENDBRANCH   9  37
TORSDOF 3
