REMARK  Name = 
REMARK  6 active torsions:
REMARK  status: ('A' for Active; 'I' for Inactive)
REMARK    1  A    between atoms: C_1  and  O_7
REMARK    2  A    between atoms: C_2  and  C_18
REMARK    3  A    between atoms: O_7  and  P_9
REMARK    4  A    between atoms: P_9  and  O_10
REMARK    5  A    between atoms: P_9  and  O_11
REMARK    6  A    between atoms: O_16  and  C_17
REMARK                            x       y       z     vdW  Elec       q    Type
REMARK                         _______ _______ _______ _____ _____    ______ ____
ROOT
ATOM      1  C   UNL     1      35.647  30.476  49.734  0.00  0.00    +0.000 A 
ATOM      2  C   UNL     1      35.966  29.500  50.676  0.00  0.00    +0.000 A 
ATOM      3  C   UNL     1      37.229  29.515  51.285  0.00  0.00    +0.000 A 
ATOM      4  N   UNL     1      38.094  30.510  50.911  0.00  0.00    +0.000 NA
ATOM      5  C   UNL     1      37.751  31.453  49.985  0.00  0.00    +0.000 A 
ATOM      6  N   UNL     1      36.535  31.422  49.411  0.00  0.00    +0.000 NA
ATOM      7  H   UNL     1      37.527  28.780  52.023  0.00  0.00    +0.000 HD
ATOM      8  H   UNL     1      38.450  32.230  49.704  0.00  0.00    +0.000 HD
ENDROOT
BRANCH   2  10
ATOM      9  C   UNL     1      34.342  28.596  52.373  0.00  0.00    +0.000 C 
ATOM     10  C   UNL     1      35.040  28.461  51.063  0.00  0.00    +0.000 C 
ATOM     11  C   UNL     1      33.862  28.314  50.113  0.00  0.00    +0.000 C 
ATOM     12  H   UNL     1      33.461  27.277  50.127  0.00  0.00    +0.000 HD
ATOM     13  O   UNL     1      32.895  29.158  50.606  0.00  0.00    +0.000 OA
ATOM     14  C   UNL     1      32.956  29.058  51.979  0.00  0.00    +0.000 C 
ATOM     15  H   UNL     1      32.744  30.087  52.383  0.00  0.00    +0.000 HD
BRANCH   9  16
ATOM     16  O   UNL     1      34.225  27.345  53.030  0.00  0.00    +0.000 OA
ATOM     17  H   UNL     1      34.044  27.472  53.991  0.00  0.00    +0.000 HD
ENDBRANCH   9  16
ENDBRANCH   2  10
BRANCH   1  18
ATOM     18  O   UNL     1      34.431  30.532  49.090  0.00  0.00    +0.000 OA
BRANCH  18  20
ATOM     19  O   UNL     1      35.499  30.154  46.639  0.00  0.00    +0.000 OA
ATOM     20  P   UNL     1      34.234  30.025  47.465  0.00  0.00    +0.000 P 
BRANCH  20  21
ATOM     21  O   UNL     1      33.762  28.396  47.566  0.00  0.00    +0.000 OA
ATOM     22  H   UNL     1      33.696  28.064  46.640  0.00  0.00    +0.000 HD
ENDBRANCH  20  21
BRANCH  20  23
ATOM     23  O   UNL     1      33.053  30.968  46.694  0.00  0.00    +0.000 OA
ATOM     24  H   UNL     1      32.283  31.118  47.266  0.00  0.00    +0.000 HD
ENDBRANCH  20  23
ENDBRANCH  18  20
ENDBRANCH   1  18
TORSDOF 6
