
 OpenBabel03272504053D

 41 44  0  0  1  0  0  0  0  0999 V2000
   38.1270   26.1100   31.3680 C   0  0  0  0  0  0  0  0  0  0  0  0
   37.5900   27.0330   31.7340 H   0  0  0  0  0  0  0  0  0  0  0  0
   38.5040   26.3600   30.3820 H   0  0  0  0  0  0  0  0  0  0  0  0
   37.1080   25.0470   31.3490 C   0  0  0  0  0  0  0  0  0  0  0  0
   35.7410   25.3300   31.2250 C   0  0  0  0  0  0  0  0  0  0  0  0
   35.0760   24.1360   31.2420 C   0  0  0  0  0  0  0  0  0  0  0  0
   35.9950   23.1680   31.3720 N   0  0  0  0  0  0  0  0  0  0  0  0
   37.1750   23.7420   31.4320 N   0  0  0  0  0  0  0  0  0  0  0  0
   35.2730   26.3040   31.1310 H   0  0  0  0  0  0  0  0  0  0  0  0
   34.0170   23.9190   31.1720 H   0  0  0  0  0  0  0  0  0  0  0  0
   35.8840   21.7590   31.4460 C   0  0  0  0  0  0  0  0  0  0  0  0
   36.8580   21.0380   30.8050 C   0  0  0  0  0  0  0  0  0  0  0  0
   36.9100   19.6420   30.7720 C   0  0  0  0  0  0  0  0  0  0  0  0
   35.8840   18.9840   31.4470 C   0  0  0  0  0  0  0  0  0  0  0  0
   34.9000   19.6890   32.0930 C   0  0  0  0  0  0  0  0  0  0  0  0
   34.8750   21.0680   32.1090 C   0  0  0  0  0  0  0  0  0  0  0  0
   37.6720   21.5180   30.2700 H   0  0  0  0  0  0  0  0  0  0  0  0
   37.6930   19.1010   30.2570 H   0  0  0  0  0  0  0  0  0  0  0  0
   35.8420   17.9130   31.4740 H   0  0  0  0  0  0  0  0  0  0  0  0
   34.0670   19.2650   32.6400 H   0  0  0  0  0  0  0  0  0  0  0  0
   34.1450   21.6820   32.5890 H   0  0  0  0  0  0  0  0  0  0  0  0
   39.2400   25.8550   32.3160 C   0  0  0  0  0  0  0  0  0  0  0  0
   39.7000   24.8760   32.0190 H   0  0  0  0  0  0  0  0  0  0  0  0
   40.0460   26.6010   32.0930 H   0  0  0  0  0  0  0  0  0  0  0  0
   38.9560   25.9510   33.7210 C   0  0  0  0  0  0  0  0  0  0  0  0
   38.9880   27.1530   34.3650 C   0  0  0  0  0  0  0  0  0  0  0  0
   38.7070   27.2440   35.7470 C   0  0  0  0  0  0  0  0  0  0  0  0
   38.4070   26.0570   36.3820 N   0  0  0  0  0  0  0  0  0  0  0  0
   38.3860   24.8880   35.7060 C   0  0  0  0  0  0  0  0  0  0  0  0
   38.6620   24.8590   34.3870 N   0  0  0  0  0  0  0  0  0  0  0  0
   39.2280   28.0770   33.8390 H   0  0  0  0  0  0  0  0  0  0  0  0
   38.7320   28.1950   36.2600 H   0  0  0  0  0  0  0  0  0  0  0  0
   39.2370   22.6940   36.5540 C   0  0  2  0  0  3  0  0  0  0  0  0
   38.0560   23.6170   36.4240 C   0  0  1  0  0  3  0  0  0  0  0  0
   37.7270   23.9490   37.8530 C   0  0  0  0  0  3  0  0  0  0  0  0
   38.0120   25.0070   38.0940 H   0  0  0  0  0  0  0  0  0  0  0  0
   38.5030   23.0920   38.6420 O   0  0  0  0  0  0  0  0  0  0  0  0
   39.7180   23.0040   37.9450 C   0  0  0  0  0  3  0  0  0  0  0  0
   40.2750   23.9570   37.9780 H   0  0  0  0  0  0  0  0  0  0  0  0
   40.2040   22.8580   35.5910 O   0  0  0  0  0  0  0  0  0  0  0  0
   40.3320   22.0450   35.0140 H   0  0  0  0  0  0  0  0  0  0  0  0
  1  2  1  0  0  0  0
  1 22  1  0  0  0  0
  3  1  1  0  0  0  0
  4  1  1  0  0  0  0
  4  8  2  0  0  0  0
  5  6  2  0  0  0  0
  5  4  1  0  0  0  0
  6  7  1  0  0  0  0
  7  8  1  0  0  0  0
  7 11  1  0  0  0  0
  9  5  1  0  0  0  0
 10  6  1  0  0  0  0
 11 16  1  0  0  0  0
 12 11  2  0  0  0  0
 13 12  1  0  0  0  0
 13 14  2  0  0  0  0
 14 19  1  0  0  0  0
 14 15  1  0  0  0  0
 15 16  2  0  0  0  0
 15 20  1  0  0  0  0
 16 21  1  0  0  0  0
 17 12  1  0  0  0  0
 18 13  1  0  0  0  0
 22 25  1  0  0  0  0
 23 22  1  0  0  0  0
 24 22  1  0  0  0  0
 25 26  2  0  0  0  0
 25 30  1  0  0  0  0
 26 27  1  0  0  0  0
 27 32  1  0  0  0  0
 27 28  2  0  0  0  0
 29 28  1  0  0  0  0
 30 29  2  0  0  0  0
 31 26  1  0  0  0  0
 33 40  1  6  0  0  0
 33 38  1  0  0  0  0
 34 29  1  6  0  0  0
 34 33  1  0  0  0  0
 34 35  1  0  0  0  0
 35 36  1  0  0  0  0
 35 37  1  0  0  0  0
 38 39  1  0  0  0  0
 38 37  1  0  0  0  0
 41 40  1  0  0  0  0
M  END
>  <minimizedAffinity>
-6.0103097

$$$$

 OpenBabel03272504053D

 41 44  0  0  1  0  0  0  0  0999 V2000
   37.3230   27.9460   32.7770 C   0  0  0  0  0  0  0  0  0  0  0  0
   37.9450   27.9810   31.8350 H   0  0  0  0  0  0  0  0  0  0  0  0
   37.6830   28.7580   33.3990 H   0  0  0  0  0  0  0  0  0  0  0  0
   37.5690   26.6160   33.3570 C   0  0  0  0  0  0  0  0  0  0  0  0
   37.3890   25.4380   32.6190 C   0  0  0  0  0  0  0  0  0  0  0  0
   37.6990   24.3910   33.4420 C   0  0  0  0  0  0  0  0  0  0  0  0
   38.0510   24.9060   34.6290 N   0  0  0  0  0  0  0  0  0  0  0  0
   37.9630   26.2140   34.5400 N   0  0  0  0  0  0  0  0  0  0  0  0
   37.0660   25.3470   31.5870 H   0  0  0  0  0  0  0  0  0  0  0  0
   37.6890   23.3240   33.2570 H   0  0  0  0  0  0  0  0  0  0  0  0
   38.4650   24.3010   35.8400 C   0  0  0  0  0  0  0  0  0  0  0  0
   37.7390   24.6200   36.9580 C   0  0  0  0  0  0  0  0  0  0  0  0
   38.0030   24.1200   38.2360 C   0  0  0  0  0  0  0  0  0  0  0  0
   39.0810   23.2440   38.3300 C   0  0  0  0  0  0  0  0  0  0  0  0
   39.8190   22.9120   37.2220 C   0  0  0  0  0  0  0  0  0  0  0  0
   39.5360   23.4230   35.9720 C   0  0  0  0  0  0  0  0  0  0  0  0
   36.8930   25.2990   36.9210 H   0  0  0  0  0  0  0  0  0  0  0  0
   37.4100   24.3910   39.1000 H   0  0  0  0  0  0  0  0  0  0  0  0
   39.3570   22.8100   39.2710 H   0  0  0  0  0  0  0  0  0  0  0  0
   40.6710   22.2430   37.1990 H   0  0  0  0  0  0  0  0  0  0  0  0
   40.0630   23.2110   35.0680 H   0  0  0  0  0  0  0  0  0  0  0  0
   35.9130   28.1690   32.3710 C   0  0  0  0  0  0  0  0  0  0  0  0
   35.9250   28.4070   31.2740 H   0  0  0  0  0  0  0  0  0  0  0  0
   35.3920   27.1780   32.4170 H   0  0  0  0  0  0  0  0  0  0  0  0
   35.1320   29.0910   33.1480 C   0  0  0  0  0  0  0  0  0  0  0  0
   33.7910   29.2270   32.9390 C   0  0  0  0  0  0  0  0  0  0  0  0
   33.0250   30.1340   33.7050 C   0  0  0  0  0  0  0  0  0  0  0  0
   33.7170   30.8550   34.6570 N   0  0  0  0  0  0  0  0  0  0  0  0
   35.0450   30.6890   34.8300 C   0  0  0  0  0  0  0  0  0  0  0  0
   35.7270   29.8090   34.0710 N   0  0  0  0  0  0  0  0  0  0  0  0
   33.2680   28.6450   32.1800 H   0  0  0  0  0  0  0  0  0  0  0  0
   31.9630   30.2450   33.5430 H   0  0  0  0  0  0  0  0  0  0  0  0
   36.3100   32.7870   35.3420 C   0  0  2  0  0  3  0  0  0  0  0  0
   35.7670   31.4870   35.8720 C   0  0  1  0  0  3  0  0  0  0  0  0
   34.7700   31.9330   36.9050 C   0  0  0  0  0  3  0  0  0  0  0  0
   33.7200   31.7580   36.5510 H   0  0  0  0  0  0  0  0  0  0  0  0
   34.9600   33.3100   37.0630 O   0  0  0  0  0  0  0  0  0  0  0  0
   35.2430   33.7590   35.7640 C   0  0  0  0  0  3  0  0  0  0  0  0
   34.3560   33.6970   35.1100 H   0  0  0  0  0  0  0  0  0  0  0  0
   36.5580   32.7980   33.9910 O   0  0  0  0  0  0  0  0  0  0  0  0
   37.5280   32.9370   33.7660 H   0  0  0  0  0  0  0  0  0  0  0  0
  1  4  1  0  0  0  0
  1  3  1  0  0  0  0
  2  1  1  0  0  0  0
  4  8  2  0  0  0  0
  5  4  1  0  0  0  0
  5  6  2  0  0  0  0
  6  7  1  0  0  0  0
  7 11  1  0  0  0  0
  8  7  1  0  0  0  0
  9  5  1  0  0  0  0
 10  6  1  0  0  0  0
 11 16  2  0  0  0  0
 11 12  1  0  0  0  0
 12 13  2  0  0  0  0
 13 14  1  0  0  0  0
 13 18  1  0  0  0  0
 14 19  1  0  0  0  0
 15 14  2  0  0  0  0
 16 15  1  0  0  0  0
 17 12  1  0  0  0  0
 20 15  1  0  0  0  0
 21 16  1  0  0  0  0
 22 24  1  0  0  0  0
 22  1  1  0  0  0  0
 22 25  1  0  0  0  0
 23 22  1  0  0  0  0
 25 30  1  0  0  0  0
 26 25  2  0  0  0  0
 26 27  1  0  0  0  0
 27 28  2  0  0  0  0
 28 29  1  0  0  0  0
 30 29  2  0  0  0  0
 31 26  1  0  0  0  0
 32 27  1  0  0  0  0
 33 40  1  6  0  0  0
 33 38  1  0  0  0  0
 33 34  1  0  0  0  0
 34 29  1  6  0  0  0
 34 35  1  0  0  0  0
 35 37  1  0  0  0  0
 36 35  1  0  0  0  0
 38 37  1  0  0  0  0
 39 38  1  0  0  0  0
 41 40  1  0  0  0  0
M  END
>  <minimizedAffinity>
-5.88287973

$$$$

 OpenBabel03272504053D

 41 44  0  0  1  0  0  0  0  0999 V2000
   37.6000   26.3250   33.0220 C   0  0  0  0  0  0  0  0  0  0  0  0
   38.4250   26.6710   32.3340 H   0  0  0  0  0  0  0  0  0  0  0  0
   37.1600   25.4560   32.5420 H   0  0  0  0  0  0  0  0  0  0  0  0
   36.6730   27.4640   33.1250 C   0  0  0  0  0  0  0  0  0  0  0  0
   35.9580   27.9430   32.0180 C   0  0  0  0  0  0  0  0  0  0  0  0
   35.1980   28.9930   32.4490 C   0  0  0  0  0  0  0  0  0  0  0  0
   35.4380   29.1510   33.7590 N   0  0  0  0  0  0  0  0  0  0  0  0
   36.3080   28.2340   34.1190 N   0  0  0  0  0  0  0  0  0  0  0  0
   35.9850   27.5670   31.0000 H   0  0  0  0  0  0  0  0  0  0  0  0
   34.5100   29.6330   31.9090 H   0  0  0  0  0  0  0  0  0  0  0  0
   34.9360   30.0690   34.7120 C   0  0  0  0  0  0  0  0  0  0  0  0
   35.8600   30.8710   35.3290 C   0  0  0  0  0  0  0  0  0  0  0  0
   35.5480   31.8320   36.2940 C   0  0  0  0  0  0  0  0  0  0  0  0
   34.1980   31.9470   36.6160 C   0  0  0  0  0  0  0  0  0  0  0  0
   33.2580   31.1530   36.0090 C   0  0  0  0  0  0  0  0  0  0  0  0
   33.5970   30.2100   35.0590 C   0  0  0  0  0  0  0  0  0  0  0  0
   36.9200   30.8090   35.1020 H   0  0  0  0  0  0  0  0  0  0  0  0
   36.3010   32.4510   36.7630 H   0  0  0  0  0  0  0  0  0  0  0  0
   33.8650   32.6590   37.3460 H   0  0  0  0  0  0  0  0  0  0  0  0
   32.1910   31.1700   36.1950 H   0  0  0  0  0  0  0  0  0  0  0  0
   32.9240   29.5600   34.5460 H   0  0  0  0  0  0  0  0  0  0  0  0
   38.2390   25.9570   34.3100 C   0  0  0  0  0  0  0  0  0  0  0  0
   39.2860   26.3600   34.2790 H   0  0  0  0  0  0  0  0  0  0  0  0
   37.7480   26.5660   35.1120 H   0  0  0  0  0  0  0  0  0  0  0  0
   38.1680   24.5820   34.7220 C   0  0  0  0  0  0  0  0  0  0  0  0
   38.4090   24.2230   36.0160 C   0  0  0  0  0  0  0  0  0  0  0  0
   38.3370   22.8710   36.4190 C   0  0  0  0  0  0  0  0  0  0  0  0
   38.0160   21.9620   35.4310 N   0  0  0  0  0  0  0  0  0  0  0  0
   37.7860   22.3610   34.1630 C   0  0  0  0  0  0  0  0  0  0  0  0
   37.8670   23.6650   33.8330 N   0  0  0  0  0  0  0  0  0  0  0  0
   38.6610   24.9610   36.7780 H   0  0  0  0  0  0  0  0  0  0  0  0
   38.5270   22.5820   37.4430 H   0  0  0  0  0  0  0  0  0  0  0  0
   36.0710   20.7520   33.3080 C   0  0  2  0  0  3  0  0  0  0  0  0
   37.4380   21.3510   33.1140 C   0  0  1  0  0  3  0  0  0  0  0  0
   37.3110   22.0600   31.7940 C   0  0  0  0  0  3  0  0  0  0  0  0
   37.2890   23.1720   31.9370 H   0  0  0  0  0  0  0  0  0  0  0  0
   36.0850   21.6600   31.2510 O   0  0  0  0  0  0  0  0  0  0  0  0
   35.2370   21.5760   32.3660 C   0  0  0  0  0  3  0  0  0  0  0  0
   35.0180   22.5730   32.7860 H   0  0  0  0  0  0  0  0  0  0  0  0
   35.6140   20.7710   34.6040 O   0  0  0  0  0  0  0  0  0  0  0  0
   35.4670   19.8530   34.9870 H   0  0  0  0  0  0  0  0  0  0  0  0
  1  4  1  0  0  0  0
  1 22  1  0  0  0  0
  2  1  1  0  0  0  0
  3  1  1  0  0  0  0
  4  8  2  0  0  0  0
  5  6  2  0  0  0  0
  5  4  1  0  0  0  0
  6  7  1  0  0  0  0
  7  8  1  0  0  0  0
  7 11  1  0  0  0  0
  9  5  1  0  0  0  0
 10  6  1  0  0  0  0
 11 16  2  0  0  0  0
 11 12  1  0  0  0  0
 12 13  2  0  0  0  0
 13 14  1  0  0  0  0
 13 18  1  0  0  0  0
 14 19  1  0  0  0  0
 15 20  1  0  0  0  0
 15 14  2  0  0  0  0
 16 15  1  0  0  0  0
 17 12  1  0  0  0  0
 21 16  1  0  0  0  0
 22 25  1  0  0  0  0
 22 24  1  0  0  0  0
 23 22  1  0  0  0  0
 25 26  1  0  0  0  0
 26 27  2  0  0  0  0
 26 31  1  0  0  0  0
 27 32  1  0  0  0  0
 28 27  1  0  0  0  0
 29 28  2  0  0  0  0
 30 29  1  0  0  0  0
 30 25  2  0  0  0  0
 33 40  1  1  0  0  0
 34 33  1  0  0  0  0
 34 29  1  1  0  0  0
 35 36  1  0  0  0  0
 35 34  1  0  0  0  0
 37 35  1  0  0  0  0
 37 38  1  0  0  0  0
 38 39  1  0  0  0  0
 38 33  1  0  0  0  0
 40 41  1  0  0  0  0
M  END
>  <minimizedAffinity>
-5.86238194

$$$$

 OpenBabel03272504053D

 41 44  0  0  1  0  0  0  0  0999 V2000
   36.2290   22.1450   31.1320 C   0  0  0  0  0  0  0  0  0  0  0  0
   36.4320   21.8610   30.0580 H   0  0  0  0  0  0  0  0  0  0  0  0
   35.1620   22.0140   31.2760 H   0  0  0  0  0  0  0  0  0  0  0  0
   36.6650   23.5460   31.2540 C   0  0  0  0  0  0  0  0  0  0  0  0
   37.7850   24.0380   30.5710 C   0  0  0  0  0  0  0  0  0  0  0  0
   37.9130   25.3590   30.8980 C   0  0  0  0  0  0  0  0  0  0  0  0
   36.9170   25.6600   31.7440 N   0  0  0  0  0  0  0  0  0  0  0  0
   36.2060   24.5710   31.9280 N   0  0  0  0  0  0  0  0  0  0  0  0
   38.4430   23.4940   29.9010 H   0  0  0  0  0  0  0  0  0  0  0  0
   38.6450   26.0940   30.5860 H   0  0  0  0  0  0  0  0  0  0  0  0
   36.5590   26.8630   32.3990 C   0  0  0  0  0  0  0  0  0  0  0  0
   35.8530   27.7730   31.6570 C   0  0  0  0  0  0  0  0  0  0  0  0
   35.4160   29.0100   32.1370 C   0  0  0  0  0  0  0  0  0  0  0  0
   35.7440   29.2930   33.4610 C   0  0  0  0  0  0  0  0  0  0  0  0
   36.4510   28.3950   34.2200 C   0  0  0  0  0  0  0  0  0  0  0  0
   36.8700   27.1800   33.7180 C   0  0  0  0  0  0  0  0  0  0  0  0
   35.5800   27.5850   30.6230 H   0  0  0  0  0  0  0  0  0  0  0  0
   34.8590   29.7070   31.5260 H   0  0  0  0  0  0  0  0  0  0  0  0
   35.4500   30.2190   33.9140 H   0  0  0  0  0  0  0  0  0  0  0  0
   36.7500   28.5280   35.2520 H   0  0  0  0  0  0  0  0  0  0  0  0
   37.4200   26.4330   34.2460 H   0  0  0  0  0  0  0  0  0  0  0  0
   37.0030   21.2030   31.9790 C   0  0  0  0  0  0  0  0  0  0  0  0
   36.8250   20.1750   31.5660 H   0  0  0  0  0  0  0  0  0  0  0  0
   38.0890   21.3840   31.7720 H   0  0  0  0  0  0  0  0  0  0  0  0
   36.8270   21.2860   33.4030 C   0  0  0  0  0  0  0  0  0  0  0  0
   35.7670   20.6860   34.0170 C   0  0  0  0  0  0  0  0  0  0  0  0
   35.5970   20.7690   35.4170 C   0  0  0  0  0  0  0  0  0  0  0  0
   36.5570   21.4860   36.1000 N   0  0  0  0  0  0  0  0  0  0  0  0
   37.5900   22.0650   35.4530 C   0  0  0  0  0  0  0  0  0  0  0  0
   37.7040   21.9540   34.1150 N   0  0  0  0  0  0  0  0  0  0  0  0
   35.0220   20.1240   33.4530 H   0  0  0  0  0  0  0  0  0  0  0  0
   34.7590   20.2940   35.9070 H   0  0  0  0  0  0  0  0  0  0  0  0
   38.8680   24.2060   35.6550 C   0  0  2  0  0  3  0  0  0  0  0  0
   38.6160   22.8360   36.2230 C   0  0  1  0  0  3  0  0  0  0  0  0
   38.0620   23.1330   37.5890 C   0  0  0  0  0  3  0  0  0  0  0  0
   36.9630   22.9090   37.6330 H   0  0  0  0  0  0  0  0  0  0  0  0
   38.2400   24.5060   37.7940 O   0  0  0  0  0  0  0  0  0  0  0  0
   37.9990   25.0660   36.5300 C   0  0  0  0  0  3  0  0  0  0  0  0
   36.9350   24.9860   36.2470 H   0  0  0  0  0  0  0  0  0  0  0  0
   38.5920   24.3320   34.3150 O   0  0  0  0  0  0  0  0  0  0  0  0
   39.4010   24.5570   33.7620 H   0  0  0  0  0  0  0  0  0  0  0  0
  1  4  1  0  0  0  0
  1  3  1  0  0  0  0
  1 22  1  0  0  0  0
  2  1  1  0  0  0  0
  4  8  2  0  0  0  0
  5  6  2  0  0  0  0
  5  4  1  0  0  0  0
  6  7  1  0  0  0  0
  7  8  1  0  0  0  0
  7 11  1  0  0  0  0
  9  5  1  0  0  0  0
 10  6  1  0  0  0  0
 11 16  1  0  0  0  0
 12 13  1  0  0  0  0
 12 11  2  0  0  0  0
 13 14  2  0  0  0  0
 14 19  1  0  0  0  0
 14 15  1  0  0  0  0
 15 20  1  0  0  0  0
 16 15  2  0  0  0  0
 16 21  1  0  0  0  0
 17 12  1  0  0  0  0
 18 13  1  0  0  0  0
 22 25  1  0  0  0  0
 23 22  1  0  0  0  0
 24 22  1  0  0  0  0
 25 26  2  0  0  0  0
 25 30  1  0  0  0  0
 26 27  1  0  0  0  0
 27 32  1  0  0  0  0
 27 28  2  0  0  0  0
 29 28  1  0  0  0  0
 30 29  2  0  0  0  0
 31 26  1  0  0  0  0
 33 40  1  6  0  0  0
 33 34  1  0  0  0  0
 33 38  1  0  0  0  0
 34 29  1  6  0  0  0
 34 35  1  0  0  0  0
 35 36  1  0  0  0  0
 35 37  1  0  0  0  0
 38 37  1  0  0  0  0
 39 38  1  0  0  0  0
 41 40  1  0  0  0  0
M  END
>  <minimizedAffinity>
-5.82620716

$$$$

 OpenBabel03272504053D

 41 44  0  0  1  0  0  0  0  0999 V2000
   36.2480   26.8440   31.9950 C   0  0  0  0  0  0  0  0  0  0  0  0
   35.9070   26.8590   30.9190 H   0  0  0  0  0  0  0  0  0  0  0  0
   35.6490   26.0830   32.4840 H   0  0  0  0  0  0  0  0  0  0  0  0
   35.9910   28.2010   32.5050 C   0  0  0  0  0  0  0  0  0  0  0  0
   36.2420   29.3440   31.7350 C   0  0  0  0  0  0  0  0  0  0  0  0
   35.9010   30.4280   32.4930 C   0  0  0  0  0  0  0  0  0  0  0  0
   35.4630   29.9690   33.6740 N   0  0  0  0  0  0  0  0  0  0  0  0
   35.5310   28.6570   33.6430 N   0  0  0  0  0  0  0  0  0  0  0  0
   36.6330   29.3870   30.7230 H   0  0  0  0  0  0  0  0  0  0  0  0
   35.9450   31.4870   32.2680 H   0  0  0  0  0  0  0  0  0  0  0  0
   34.9850   30.6300   34.8320 C   0  0  0  0  0  0  0  0  0  0  0  0
   33.6600   30.4530   35.1300 C   0  0  0  0  0  0  0  0  0  0  0  0
   33.0170   31.0270   36.2300 C   0  0  0  0  0  0  0  0  0  0  0  0
   33.8170   31.8220   37.0480 C   0  0  0  0  0  0  0  0  0  0  0  0
   35.1460   32.0110   36.7650 C   0  0  0  0  0  0  0  0  0  0  0  0
   35.7530   31.4320   35.6700 C   0  0  0  0  0  0  0  0  0  0  0  0
   33.0080   29.8390   34.5150 H   0  0  0  0  0  0  0  0  0  0  0  0
   31.9680   30.8670   36.4390 H   0  0  0  0  0  0  0  0  0  0  0  0
   33.4090   32.3030   37.9150 H   0  0  0  0  0  0  0  0  0  0  0  0
   35.8410   32.6100   37.3410 H   0  0  0  0  0  0  0  0  0  0  0  0
   36.7780   31.5330   35.3880 H   0  0  0  0  0  0  0  0  0  0  0  0
   37.6840   26.4700   31.9880 C   0  0  0  0  0  0  0  0  0  0  0  0
   37.7880   25.5980   31.2890 H   0  0  0  0  0  0  0  0  0  0  0  0
   38.2390   27.2910   31.4650 H   0  0  0  0  0  0  0  0  0  0  0  0
   38.3280   26.2670   33.2560 C   0  0  0  0  0  0  0  0  0  0  0  0
   39.3990   27.0250   33.6300 C   0  0  0  0  0  0  0  0  0  0  0  0
   40.0300   26.8240   34.8780 C   0  0  0  0  0  0  0  0  0  0  0  0
   39.4970   25.8280   35.6700 N   0  0  0  0  0  0  0  0  0  0  0  0
   38.4370   25.1010   35.2610 C   0  0  0  0  0  0  0  0  0  0  0  0
   37.8730   25.3350   34.0600 N   0  0  0  0  0  0  0  0  0  0  0  0
   39.8000   27.8070   32.9850 H   0  0  0  0  0  0  0  0  0  0  0  0
   40.8780   27.4220   35.1780 H   0  0  0  0  0  0  0  0  0  0  0  0
   38.6460   22.7340   36.0460 C   0  0  2  0  0  3  0  0  0  0  0  0
   37.8820   24.0270   36.1440 C   0  0  1  0  0  3  0  0  0  0  0  0
   38.0900   24.4350   37.5770 C   0  0  0  0  0  3  0  0  0  0  0  0
   38.7860   25.3120   37.6460 H   0  0  0  0  0  0  0  0  0  0  0  0
   38.6920   23.3420   38.2110 O   0  0  0  0  0  0  0  0  0  0  0  0
   39.5600   22.8270   37.2360 C   0  0  0  0  0  3  0  0  0  0  0  0
   40.4070   23.5090   37.0450 H   0  0  0  0  0  0  0  0  0  0  0  0
   39.3100   22.5490   34.8580 O   0  0  0  0  0  0  0  0  0  0  0  0
   38.9800   21.7540   34.3380 H   0  0  0  0  0  0  0  0  0  0  0  0
  1  3  1  0  0  0  0
  1  4  1  0  0  0  0
  2  1  1  0  0  0  0
  4  8  2  0  0  0  0
  5  6  2  0  0  0  0
  5  4  1  0  0  0  0
  6  7  1  0  0  0  0
  7 11  1  0  0  0  0
  8  7  1  0  0  0  0
  9  5  1  0  0  0  0
 10  6  1  0  0  0  0
 11 12  2  0  0  0  0
 11 16  1  0  0  0  0
 12 13  1  0  0  0  0
 13 18  1  0  0  0  0
 13 14  2  0  0  0  0
 14 19  1  0  0  0  0
 15 14  1  0  0  0  0
 15 20  1  0  0  0  0
 16 15  2  0  0  0  0
 17 12  1  0  0  0  0
 21 16  1  0  0  0  0
 22  1  1  0  0  0  0
 22 25  1  0  0  0  0
 23 22  1  0  0  0  0
 24 22  1  0  0  0  0
 25 26  2  0  0  0  0
 25 30  1  0  0  0  0
 26 27  1  0  0  0  0
 27 32  1  0  0  0  0
 27 28  2  0  0  0  0
 29 28  1  0  0  0  0
 30 29  2  0  0  0  0
 31 26  1  0  0  0  0
 33 40  1  6  0  0  0
 33 34  1  0  0  0  0
 33 38  1  0  0  0  0
 34 29  1  6  0  0  0
 34 35  1  0  0  0  0
 35 36  1  0  0  0  0
 35 37  1  0  0  0  0
 38 37  1  0  0  0  0
 39 38  1  0  0  0  0
 41 40  1  0  0  0  0
M  END
>  <minimizedAffinity>
-5.805336

$$$$

 OpenBabel03272504053D

 41 44  0  0  1  0  0  0  0  0999 V2000
   36.9460   27.5500   32.9150 C   0  0  0  0  0  0  0  0  0  0  0  0
   36.1490   27.2290   32.1820 H   0  0  0  0  0  0  0  0  0  0  0  0
   37.6960   28.0680   32.3270 H   0  0  0  0  0  0  0  0  0  0  0  0
   37.4410   26.3050   33.5240 C   0  0  0  0  0  0  0  0  0  0  0  0
   37.7020   25.1580   32.7620 C   0  0  0  0  0  0  0  0  0  0  0  0
   38.1430   24.1910   33.6220 C   0  0  0  0  0  0  0  0  0  0  0  0
   38.1500   24.7220   34.8530 N   0  0  0  0  0  0  0  0  0  0  0  0
   37.7320   25.9640   34.7540 N   0  0  0  0  0  0  0  0  0  0  0  0
   37.5850   25.0350   31.6900 H   0  0  0  0  0  0  0  0  0  0  0  0
   38.4480   23.1680   33.4340 H   0  0  0  0  0  0  0  0  0  0  0  0
   38.5090   24.1900   36.1140 C   0  0  0  0  0  0  0  0  0  0  0  0
   37.7830   24.6310   37.1900 C   0  0  0  0  0  0  0  0  0  0  0  0
   37.9960   24.2150   38.5060 C   0  0  0  0  0  0  0  0  0  0  0  0
   39.0240   23.2930   38.6880 C   0  0  0  0  0  0  0  0  0  0  0  0
   39.7620   22.8400   37.6240 C   0  0  0  0  0  0  0  0  0  0  0  0
   39.5290   23.2690   36.3340 C   0  0  0  0  0  0  0  0  0  0  0  0
   36.9750   25.3490   37.0840 H   0  0  0  0  0  0  0  0  0  0  0  0
   37.4050   24.5820   39.3350 H   0  0  0  0  0  0  0  0  0  0  0  0
   39.2600   22.9180   39.6650 H   0  0  0  0  0  0  0  0  0  0  0  0
   40.5760   22.1270   37.6700 H   0  0  0  0  0  0  0  0  0  0  0  0
   40.0590   22.9620   35.4600 H   0  0  0  0  0  0  0  0  0  0  0  0
   36.2960   28.4710   33.8810 C   0  0  0  0  0  0  0  0  0  0  0  0
   35.9420   27.8420   34.7400 H   0  0  0  0  0  0  0  0  0  0  0  0
   37.1030   29.1020   34.3340 H   0  0  0  0  0  0  0  0  0  0  0  0
   35.2930   29.3680   33.3780 C   0  0  0  0  0  0  0  0  0  0  0  0
   35.4650   30.0230   32.1930 C   0  0  0  0  0  0  0  0  0  0  0  0
   34.4770   30.9040   31.7010 C   0  0  0  0  0  0  0  0  0  0  0  0
   33.3530   31.0520   32.4870 N   0  0  0  0  0  0  0  0  0  0  0  0
   33.2240   30.3850   33.6540 C   0  0  0  0  0  0  0  0  0  0  0  0
   34.1980   29.5560   34.0760 N   0  0  0  0  0  0  0  0  0  0  0  0
   36.3630   29.8880   31.5900 H   0  0  0  0  0  0  0  0  0  0  0  0
   34.6100   31.4240   30.7630 H   0  0  0  0  0  0  0  0  0  0  0  0
   30.7800   29.9000   33.8890 C   0  0  2  0  0  3  0  0  0  0  0  0
   31.9910   30.5670   34.4840 C   0  0  1  0  0  3  0  0  0  0  0  0
   32.1790   29.8300   35.7820 C   0  0  0  0  0  3  0  0  0  0  0  0
   33.0760   29.1570   35.7340 H   0  0  0  0  0  0  0  0  0  0  0  0
   31.0390   29.0350   35.9490 O   0  0  0  0  0  0  0  0  0  0  0  0
   30.7400   28.6030   34.6480 C   0  0  0  0  0  3  0  0  0  0  0  0
   31.4950   27.8900   34.2730 H   0  0  0  0  0  0  0  0  0  0  0  0
   30.8270   29.7370   32.5250 O   0  0  0  0  0  0  0  0  0  0  0  0
   30.1060   30.2410   32.0400 H   0  0  0  0  0  0  0  0  0  0  0  0
  1  4  1  0  0  0  0
  1 22  1  0  0  0  0
  2  1  1  0  0  0  0
  3  1  1  0  0  0  0
  4  8  2  0  0  0  0
  5  4  1  0  0  0  0
  5  6  2  0  0  0  0
  6  7  1  0  0  0  0
  7 11  1  0  0  0  0
  8  7  1  0  0  0  0
  9  5  1  0  0  0  0
 10  6  1  0  0  0  0
 11 16  2  0  0  0  0
 11 12  1  0  0  0  0
 12 13  2  0  0  0  0
 13 14  1  0  0  0  0
 13 18  1  0  0  0  0
 14 19  1  0  0  0  0
 15 20  1  0  0  0  0
 15 14  2  0  0  0  0
 16 15  1  0  0  0  0
 17 12  1  0  0  0  0
 21 16  1  0  0  0  0
 22 24  1  0  0  0  0
 22 23  1  0  0  0  0
 25 22  1  0  0  0  0
 25 30  1  0  0  0  0
 26 25  2  0  0  0  0
 27 26  1  0  0  0  0
 27 28  2  0  0  0  0
 28 29  1  0  0  0  0
 29 30  2  0  0  0  0
 31 26  1  0  0  0  0
 32 27  1  0  0  0  0
 33 40  1  6  0  0  0
 33 34  1  0  0  0  0
 33 38  1  0  0  0  0
 34 29  1  6  0  0  0
 34 35  1  0  0  0  0
 35 37  1  0  0  0  0
 36 35  1  0  0  0  0
 38 37  1  0  0  0  0
 39 38  1  0  0  0  0
 41 40  1  0  0  0  0
M  END
>  <minimizedAffinity>
-5.7761426

$$$$

 OpenBabel03272504053D

 41 44  0  0  1  0  0  0  0  0999 V2000
   37.0770   27.5220   32.0130 C   0  0  0  0  0  0  0  0  0  0  0  0
   37.6730   27.1700   32.9050 H   0  0  0  0  0  0  0  0  0  0  0  0
   37.8070   27.7990   31.2600 H   0  0  0  0  0  0  0  0  0  0  0  0
   36.2830   28.6630   32.4980 C   0  0  0  0  0  0  0  0  0  0  0  0
   35.6770   29.5740   31.6220 C   0  0  0  0  0  0  0  0  0  0  0  0
   35.0240   30.4990   32.3860 C   0  0  0  0  0  0  0  0  0  0  0  0
   35.2220   30.1710   33.6710 N   0  0  0  0  0  0  0  0  0  0  0  0
   35.9650   29.0870   33.6960 N   0  0  0  0  0  0  0  0  0  0  0  0
   35.7050   29.5660   30.5380 H   0  0  0  0  0  0  0  0  0  0  0  0
   34.4370   31.3640   32.0970 H   0  0  0  0  0  0  0  0  0  0  0  0
   34.7870   30.7640   34.8810 C   0  0  0  0  0  0  0  0  0  0  0  0
   33.4900   30.5170   35.2480 C   0  0  0  0  0  0  0  0  0  0  0  0
   32.8920   31.0180   36.4060 C   0  0  0  0  0  0  0  0  0  0  0  0
   33.7050   31.8150   37.2090 C   0  0  0  0  0  0  0  0  0  0  0  0
   35.0060   32.0730   36.8580 C   0  0  0  0  0  0  0  0  0  0  0  0
   35.5700   31.5650   35.7060 C   0  0  0  0  0  0  0  0  0  0  0  0
   32.8290   29.9000   34.6470 H   0  0  0  0  0  0  0  0  0  0  0  0
   31.8640   30.8050   36.6690 H   0  0  0  0  0  0  0  0  0  0  0  0
   33.3310   32.2430   38.1180 H   0  0  0  0  0  0  0  0  0  0  0  0
   35.7090   32.6790   37.4160 H   0  0  0  0  0  0  0  0  0  0  0  0
   36.5710   31.7210   35.3690 H   0  0  0  0  0  0  0  0  0  0  0  0
   36.2560   26.3710   31.5620 C   0  0  0  0  0  0  0  0  0  0  0  0
   35.1830   26.6470   31.7450 H   0  0  0  0  0  0  0  0  0  0  0  0
   36.3280   26.3270   30.4450 H   0  0  0  0  0  0  0  0  0  0  0  0
   36.6030   25.0680   32.0580 C   0  0  0  0  0  0  0  0  0  0  0  0
   35.9650   23.9500   31.6060 C   0  0  0  0  0  0  0  0  0  0  0  0
   36.3090   22.6700   32.0950 C   0  0  0  0  0  0  0  0  0  0  0  0
   37.3140   22.6350   33.0400 N   0  0  0  0  0  0  0  0  0  0  0  0
   37.9200   23.7660   33.4590 C   0  0  0  0  0  0  0  0  0  0  0  0
   37.5520   24.9610   32.9590 N   0  0  0  0  0  0  0  0  0  0  0  0
   35.1730   24.0060   30.8580 H   0  0  0  0  0  0  0  0  0  0  0  0
   35.8060   21.7820   31.7400 H   0  0  0  0  0  0  0  0  0  0  0  0
   38.5970   24.2650   35.8150 C   0  0  2  0  0  3  0  0  0  0  0  0
   39.0080   23.6940   34.4850 C   0  0  1  0  0  3  0  0  0  0  0  0
   39.2660   22.2470   34.8040 C   0  0  0  0  0  3  0  0  0  0  0  0
   38.4600   21.5930   34.3780 H   0  0  0  0  0  0  0  0  0  0  0  0
   39.2290   22.1410   36.1990 O   0  0  0  0  0  0  0  0  0  0  0  0
   38.2080   23.0260   36.5740 C   0  0  0  0  0  3  0  0  0  0  0  0
   37.2150   22.6560   36.2640 H   0  0  0  0  0  0  0  0  0  0  0  0
   37.5970   25.2060   35.7520 O   0  0  0  0  0  0  0  0  0  0  0  0
   37.8860   26.1140   36.0720 H   0  0  0  0  0  0  0  0  0  0  0  0
  1  4  1  0  0  0  0
  1  2  1  0  0  0  0
  3  1  1  0  0  0  0
  4  8  2  0  0  0  0
  5  6  2  0  0  0  0
  5  4  1  0  0  0  0
  6  7  1  0  0  0  0
  7  8  1  0  0  0  0
  7 11  1  0  0  0  0
  9  5  1  0  0  0  0
 10  6  1  0  0  0  0
 11 12  2  0  0  0  0
 11 16  1  0  0  0  0
 12 13  1  0  0  0  0
 13 18  1  0  0  0  0
 13 14  2  0  0  0  0
 14 19  1  0  0  0  0
 15 14  1  0  0  0  0
 15 20  1  0  0  0  0
 16 15  2  0  0  0  0
 17 12  1  0  0  0  0
 21 16  1  0  0  0  0
 22 23  1  0  0  0  0
 22  1  1  0  0  0  0
 22 25  1  0  0  0  0
 24 22  1  0  0  0  0
 25 30  1  0  0  0  0
 26 25  2  0  0  0  0
 26 27  1  0  0  0  0
 27 28  2  0  0  0  0
 28 29  1  0  0  0  0
 30 29  2  0  0  0  0
 31 26  1  0  0  0  0
 32 27  1  0  0  0  0
 33 40  1  6  0  0  0
 33 38  1  0  0  0  0
 34 29  1  6  0  0  0
 34 35  1  0  0  0  0
 34 33  1  0  0  0  0
 35 37  1  0  0  0  0
 36 35  1  0  0  0  0
 37 38  1  0  0  0  0
 39 38  1  0  0  0  0
 40 41  1  0  0  0  0
M  END
>  <minimizedAffinity>
-5.7398715

$$$$

 OpenBabel03272504053D

 41 44  0  0  1  0  0  0  0  0999 V2000
   37.5350   27.4100   33.4560 C   0  0  0  0  0  0  0  0  0  0  0  0
   38.1760   27.8470   32.6360 H   0  0  0  0  0  0  0  0  0  0  0  0
   37.2250   26.4330   33.0990 H   0  0  0  0  0  0  0  0  0  0  0  0
   36.4150   28.3510   33.6190 C   0  0  0  0  0  0  0  0  0  0  0  0
   35.5330   28.6460   32.5700 C   0  0  0  0  0  0  0  0  0  0  0  0
   34.6200   29.5440   33.0480 C   0  0  0  0  0  0  0  0  0  0  0  0
   34.9300   29.7880   34.3290 N   0  0  0  0  0  0  0  0  0  0  0  0
   35.9890   29.0690   34.6280 N   0  0  0  0  0  0  0  0  0  0  0  0
   35.5500   28.2490   31.5610 H   0  0  0  0  0  0  0  0  0  0  0  0
   33.7780   30.0200   32.5580 H   0  0  0  0  0  0  0  0  0  0  0  0
   34.3380   30.6230   35.3060 C   0  0  0  0  0  0  0  0  0  0  0  0
   35.1710   31.5140   35.9310 C   0  0  0  0  0  0  0  0  0  0  0  0
   34.7620   32.4130   36.9190 C   0  0  0  0  0  0  0  0  0  0  0  0
   33.4120   32.3650   37.2570 C   0  0  0  0  0  0  0  0  0  0  0  0
   32.5620   31.4800   36.6430 C   0  0  0  0  0  0  0  0  0  0  0  0
   32.9950   30.6020   35.6710 C   0  0  0  0  0  0  0  0  0  0  0  0
   36.2280   31.5790   35.6920 H   0  0  0  0  0  0  0  0  0  0  0  0
   35.4450   33.1060   37.3940 H   0  0  0  0  0  0  0  0  0  0  0  0
   33.0080   33.0190   38.0060 H   0  0  0  0  0  0  0  0  0  0  0  0
   31.5030   31.3710   36.8410 H   0  0  0  0  0  0  0  0  0  0  0  0
   32.3950   29.8890   35.1500 H   0  0  0  0  0  0  0  0  0  0  0  0
   38.3950   27.2900   34.6590 C   0  0  0  0  0  0  0  0  0  0  0  0
   38.7660   28.3230   34.8950 H   0  0  0  0  0  0  0  0  0  0  0  0
   37.7260   27.0490   35.5250 H   0  0  0  0  0  0  0  0  0  0  0  0
   39.4350   26.2990   34.6420 C   0  0  0  0  0  0  0  0  0  0  0  0
   40.7510   26.6590   34.6380 C   0  0  0  0  0  0  0  0  0  0  0  0
   41.7700   25.6810   34.6210 C   0  0  0  0  0  0  0  0  0  0  0  0
   41.3480   24.3680   34.6080 N   0  0  0  0  0  0  0  0  0  0  0  0
   40.0350   24.0560   34.6120 C   0  0  0  0  0  0  0  0  0  0  0  0
   39.1030   25.0290   34.6280 N   0  0  0  0  0  0  0  0  0  0  0  0
   41.0580   27.7050   34.6490 H   0  0  0  0  0  0  0  0  0  0  0  0
   42.8140   25.9620   34.6190 H   0  0  0  0  0  0  0  0  0  0  0  0
   39.1790   22.1240   35.9520 C   0  0  2  0  0  3  0  0  0  0  0  0
   39.6090   22.6210   34.5970 C   0  0  1  0  0  3  0  0  0  0  0  0
   38.3510   22.5060   33.7810 C   0  0  0  0  0  3  0  0  0  0  0  0
   37.9190   23.5190   33.5670 H   0  0  0  0  0  0  0  0  0  0  0  0
   37.4380   21.7940   34.5670 O   0  0  0  0  0  0  0  0  0  0  0  0
   37.6840   22.2580   35.8690 C   0  0  0  0  0  3  0  0  0  0  0  0
   37.3640   23.3080   35.9920 H   0  0  0  0  0  0  0  0  0  0  0  0
   39.7320   22.7980   37.0130 O   0  0  0  0  0  0  0  0  0  0  0  0
   40.3120   22.2190   37.5940 H   0  0  0  0  0  0  0  0  0  0  0  0
  1  4  1  0  0  0  0
  1 22  1  0  0  0  0
  2  1  1  0  0  0  0
  3  1  1  0  0  0  0
  4  8  2  0  0  0  0
  5  6  2  0  0  0  0
  5  4  1  0  0  0  0
  6  7  1  0  0  0  0
  7  8  1  0  0  0  0
  7 11  1  0  0  0  0
  9  5  1  0  0  0  0
 10  6  1  0  0  0  0
 11 16  2  0  0  0  0
 11 12  1  0  0  0  0
 12 13  2  0  0  0  0
 13 14  1  0  0  0  0
 13 18  1  0  0  0  0
 14 19  1  0  0  0  0
 15 20  1  0  0  0  0
 15 14  2  0  0  0  0
 16 15  1  0  0  0  0
 17 12  1  0  0  0  0
 21 16  1  0  0  0  0
 22 23  1  0  0  0  0
 22 24  1  0  0  0  0
 25 22  1  0  0  0  0
 26 25  1  0  0  0  0
 26 31  1  0  0  0  0
 27 26  2  0  0  0  0
 28 29  2  0  0  0  0
 28 27  1  0  0  0  0
 29 30  1  0  0  0  0
 30 25  2  0  0  0  0
 32 27  1  0  0  0  0
 33 40  1  1  0  0  0
 34 29  1  1  0  0  0
 34 33  1  0  0  0  0
 35 37  1  0  0  0  0
 35 34  1  0  0  0  0
 36 35  1  0  0  0  0
 37 38  1  0  0  0  0
 38 33  1  0  0  0  0
 38 39  1  0  0  0  0
 40 41  1  0  0  0  0
M  END
>  <minimizedAffinity>
-5.60160732

$$$$

 OpenBabel03272504053D

 41 44  0  0  1  0  0  0  0  0999 V2000
   37.4080   25.9370   35.6430 C   0  0  0  0  0  0  0  0  0  0  0  0
   37.3090   26.7490   36.4210 H   0  0  0  0  0  0  0  0  0  0  0  0
   36.3950   25.6340   35.4010 H   0  0  0  0  0  0  0  0  0  0  0  0
   38.1950   24.8720   36.2870 C   0  0  0  0  0  0  0  0  0  0  0  0
   37.7520   24.2160   37.4430 C   0  0  0  0  0  0  0  0  0  0  0  0
   38.7050   23.2950   37.7780 C   0  0  0  0  0  0  0  0  0  0  0  0
   39.6860   23.3850   36.8690 N   0  0  0  0  0  0  0  0  0  0  0  0
   39.3500   24.3210   36.0100 N   0  0  0  0  0  0  0  0  0  0  0  0
   36.8300   24.3870   37.9880 H   0  0  0  0  0  0  0  0  0  0  0  0
   38.7440   22.5900   38.6000 H   0  0  0  0  0  0  0  0  0  0  0  0
   40.9070   22.6850   36.7180 C   0  0  0  0  0  0  0  0  0  0  0  0
   41.8030   23.2100   35.8240 C   0  0  0  0  0  0  0  0  0  0  0  0
   43.0550   22.6550   35.5470 C   0  0  0  0  0  0  0  0  0  0  0  0
   43.3680   21.4930   36.2480 C   0  0  0  0  0  0  0  0  0  0  0  0
   42.4840   20.9520   37.1470 C   0  0  0  0  0  0  0  0  0  0  0  0
   41.2530   21.5230   37.4000 C   0  0  0  0  0  0  0  0  0  0  0  0
   41.5920   24.1150   35.2610 H   0  0  0  0  0  0  0  0  0  0  0  0
   43.7410   23.0940   34.8350 H   0  0  0  0  0  0  0  0  0  0  0  0
   44.3070   20.9970   36.0990 H   0  0  0  0  0  0  0  0  0  0  0  0
   42.6390   20.0550   37.7340 H   0  0  0  0  0  0  0  0  0  0  0  0
   40.5170   21.1610   38.0830 H   0  0  0  0  0  0  0  0  0  0  0  0
   38.0770   26.5470   34.4670 C   0  0  0  0  0  0  0  0  0  0  0  0
   38.8890   27.2110   34.8650 H   0  0  0  0  0  0  0  0  0  0  0  0
   38.6400   25.7310   33.9430 H   0  0  0  0  0  0  0  0  0  0  0  0
   37.2470   27.1850   33.4820 C   0  0  0  0  0  0  0  0  0  0  0  0
   37.1200   26.6650   32.2270 C   0  0  0  0  0  0  0  0  0  0  0  0
   36.3030   27.2940   31.2620 C   0  0  0  0  0  0  0  0  0  0  0  0
   35.6600   28.4450   31.6710 N   0  0  0  0  0  0  0  0  0  0  0  0
   35.8150   28.9240   32.9230 C   0  0  0  0  0  0  0  0  0  0  0  0
   36.6070   28.2840   33.8050 N   0  0  0  0  0  0  0  0  0  0  0  0
   37.6390   25.7540   31.9290 H   0  0  0  0  0  0  0  0  0  0  0  0
   36.1990   26.8860   30.2660 H   0  0  0  0  0  0  0  0  0  0  0  0
   33.6180   29.9840   33.4770 C   0  0  2  0  0  3  0  0  0  0  0  0
   35.1040   30.1750   33.3360 C   0  0  1  0  0  3  0  0  0  0  0  0
   35.5340   30.5270   34.7330 C   0  0  0  0  0  3  0  0  0  0  0  0
   36.0970   29.6790   35.2050 H   0  0  0  0  0  0  0  0  0  0  0  0
   34.3580   30.7360   35.4640 O   0  0  0  0  0  0  0  0  0  0  0  0
   33.4750   29.7690   34.9590 C   0  0  0  0  0  3  0  0  0  0  0  0
   33.7800   28.7490   35.2520 H   0  0  0  0  0  0  0  0  0  0  0  0
   33.0950   28.9610   32.7230 O   0  0  0  0  0  0  0  0  0  0  0  0
   32.4340   29.2740   32.0340 H   0  0  0  0  0  0  0  0  0  0  0  0
  1  4  1  0  0  0  0
  1  2  1  0  0  0  0
  3  1  1  0  0  0  0
  4  5  1  0  0  0  0
  5  6  2  0  0  0  0
  5  9  1  0  0  0  0
  6 10  1  0  0  0  0
  7  6  1  0  0  0  0
  8  4  2  0  0  0  0
  8  7  1  0  0  0  0
 11  7  1  0  0  0  0
 11 16  1  0  0  0  0
 12 11  2  0  0  0  0
 13 12  1  0  0  0  0
 13 14  2  0  0  0  0
 14 15  1  0  0  0  0
 15 16  2  0  0  0  0
 15 20  1  0  0  0  0
 16 21  1  0  0  0  0
 17 12  1  0  0  0  0
 18 13  1  0  0  0  0
 19 14  1  0  0  0  0
 22 23  1  0  0  0  0
 22  1  1  0  0  0  0
 24 22  1  0  0  0  0
 25 30  1  0  0  0  0
 25 22  1  0  0  0  0
 26 25  2  0  0  0  0
 27 28  2  0  0  0  0
 27 26  1  0  0  0  0
 28 29  1  0  0  0  0
 29 30  2  0  0  0  0
 31 26  1  0  0  0  0
 32 27  1  0  0  0  0
 33 40  1  6  0  0  0
 33 38  1  0  0  0  0
 34 29  1  1  0  0  0
 34 33  1  0  0  0  0
 34 35  1  0  0  0  0
 35 36  1  0  0  0  0
 35 37  1  0  0  0  0
 38 39  1  0  0  0  0
 38 37  1  0  0  0  0
 41 40  1  0  0  0  0
M  END
>  <minimizedAffinity>
-5.5757122

$$$$
