
 OpenBabel03262523323D

 40 44  0  0  1  0  0  0  0  0999 V2000
   35.6930   29.5030   50.6620 C   0  0  0  0  0  0  0  0  0  0  0  0
   36.4620   30.2390   49.7720 C   0  0  0  0  0  0  0  0  0  0  0  0
   36.2290   30.0730   48.4090 C   0  0  0  0  0  0  0  0  0  0  0  0
   35.2520   29.1950   47.9940 N   0  0  0  0  0  0  0  0  0  0  0  0
   34.5390   28.5110   48.9100 C   0  0  0  0  0  0  0  0  0  0  0  0
   34.7420   28.6500   50.2150 N   0  0  0  0  0  0  0  0  0  0  0  0
   35.8310   29.5910   51.7370 H   0  0  0  0  0  0  0  0  0  0  0  0
   37.2240   30.9240   50.1140 H   0  0  0  0  0  0  0  0  0  0  0  0
   36.5990   30.5440   46.0570 C   0  0  0  0  0  0  0  0  0  0  0  0
   36.9740   30.7930   47.3910 C   0  0  0  0  0  0  0  0  0  0  0  0
   37.9900   31.6740   47.6390 C   0  0  0  0  0  0  0  0  0  0  0  0
   38.6260   32.2990   46.5990 C   0  0  0  0  0  0  0  0  0  0  0  0
   39.6370   33.1900   46.6250 N   0  0  0  0  0  0  0  0  0  0  0  0
   39.9130   33.5110   45.3510 C   0  0  0  0  0  0  0  0  0  0  0  0
   39.1150   32.8590   44.5250 N   0  0  0  0  0  0  0  0  0  0  0  0
   38.2940   32.0880   45.2730 C   0  0  0  0  0  0  0  0  0  0  0  0
   37.2610   31.1910   45.0120 C   0  0  0  0  0  0  0  0  0  0  0  0
   35.8090   29.8670   45.7280 H   0  0  0  0  0  0  0  0  0  0  0  0
   38.2780   31.8660   48.6620 H   0  0  0  0  0  0  0  0  0  0  0  0
   40.1540   33.5950   47.4560 H   0  0  0  0  0  0  0  0  0  0  0  0
   40.6650   34.1980   44.9840 H   0  0  0  0  0  0  0  0  0  0  0  0
   36.9910   31.0170   43.9800 H   0  0  0  0  0  0  0  0  0  0  0  0
   33.5060   27.5990   48.4230 C   0  0  0  0  0  0  0  0  0  0  0  0
   33.7820   26.5160   47.8460 O   0  0  0  0  0  0  0  0  0  0  0  0
   32.0500   27.9800   48.6250 C   0  0  1  0  0  0  0  0  0  0  0  0
   31.2670   28.2160   47.3220 C   0  0  0  0  0  0  0  0  0  0  0  0
   31.0160   27.0400   48.1750 C   0  0  2  0  0  0  0  0  0  0  0  0
   31.9030   28.8400   49.2930 H   0  0  0  0  0  0  0  0  0  0  0  0
   31.8520   28.1150   46.3720 H   0  0  0  0  0  0  0  0  0  0  0  0
   30.5340   29.0230   47.2640 H   0  0  0  0  0  0  0  0  0  0  0  0
   31.4230   26.0830   47.7270 H   0  0  0  0  0  0  0  0  0  0  0  0
   29.4530   28.0390   49.7920 C   0  0  2  0  0  0  0  0  0  0  0  0
   29.7310   26.8300   48.9330 C   0  0  1  0  0  0  0  0  0  0  0  0
   28.5020   26.8540   48.0520 C   0  0  0  0  0  0  0  0  0  0  0  0
   28.5620   26.2120   47.1660 H   0  0  0  0  0  0  0  0  0  0  0  0
   28.3840   28.1820   47.7300 O   0  0  0  0  0  0  0  0  0  0  0  0
   28.6760   28.9210   48.8520 C   0  0  0  0  0  0  0  0  0  0  0  0
   27.7410   29.3050   49.3160 H   0  0  0  0  0  0  0  0  0  0  0  0
   30.6160   28.6400   50.2510 O   0  0  0  0  0  0  0  0  0  0  0  0
   31.0040   28.0310   50.9290 H   0  0  0  0  0  0  0  0  0  0  0  0
  1  7  1  0  0  0  0
  2  8  1  0  0  0  0
  2  1  2  0  0  0  0
  3  2  1  0  0  0  0
  4  3  2  0  0  0  0
  4  5  1  0  0  0  0
  5  6  2  0  0  0  0
  6  1  1  0  0  0  0
  9 10  1  0  0  0  0
 10 11  2  0  0  0  0
 10  3  1  0  0  0  0
 11 19  1  0  0  0  0
 12 13  1  0  0  0  0
 12 11  1  0  0  0  0
 13 20  1  0  0  0  0
 14 13  1  0  0  0  0
 15 16  1  0  0  0  0
 15 14  2  0  0  0  0
 16 12  2  0  0  0  0
 17 16  1  0  0  0  0
 17  9  2  0  0  0  0
 18  9  1  0  0  0  0
 21 14  1  0  0  0  0
 22 17  1  0  0  0  0
 23 25  1  0  0  0  0
 23  5  1  0  0  0  0
 24 23  2  0  0  0  0
 25 28  1  1  0  0  0
 26 27  1  0  0  0  0
 26 25  1  0  0  0  0
 27 31  1  6  0  0  0
 27 25  1  0  0  0  0
 27 33  1  0  0  0  0
 29 26  1  0  0  0  0
 30 26  1  0  0  0  0
 32 39  1  6  0  0  0
 33 34  1  6  0  0  0
 33 32  1  0  0  0  0
 35 34  1  0  0  0  0
 36 34  1  0  0  0  0
 36 37  1  0  0  0  0
 37 38  1  0  0  0  0
 37 32  1  0  0  0  0
 39 40  1  0  0  0  0
M  END
>  <minimizedAffinity>
-7.1297884

>  <minimizedRMSD>
0.527943254

$$$$
