
     RDKit          3D

 28 29  0  0  0  0  0  0  0  0999 V2000
   35.6473   30.4711   49.7403 C   0  0  0  0  0  0  0  0  0  0  0  0
   35.9857   29.4829   50.6647 C   0  0  0  0  0  0  0  0  0  0  0  0
   37.2385   29.5066   51.2616 C   0  0  0  0  0  0  0  0  0  0  0  0
   38.0924   30.4972   50.9207 N   0  0  0  0  0  0  0  0  0  0  0  0
   37.7466   31.4570   50.0144 C   0  0  0  0  0  0  0  0  0  0  0  0
   36.5155   31.4374   49.4251 N   0  0  0  0  0  0  0  0  0  0  0  0
   34.4497   30.5896   49.0614 O   0  0  0  0  0  0  0  0  0  0  0  0
   35.5025   30.1535   46.6369 O   0  0  0  0  0  0  0  0  0  0  0  0
   34.2391   30.0122   47.4513 P   0  0  0  0  0  0  0  0  0  0  0  0
   33.7426   28.4039   47.5951 O   0  0  0  0  0  0  0  0  0  0  0  0
   33.0420   30.9387   46.6856 O   0  0  0  0  0  0  0  0  0  0  0  0
   35.2387   28.7550   50.8565 H   0  0  0  0  0  0  0  0  0  0  0  0
   38.4966   32.2262   49.7924 H   0  0  0  0  0  0  0  0  0  0  0  0
   33.0877   28.3703   48.3392 H   0  0  0  0  0  0  0  0  0  0  0  0
   33.4164   31.7570   46.2818 H   0  0  0  0  0  0  0  0  0  0  0  0
   35.4844   27.4894   52.8541 O   0  0  0  0  0  0  0  0  0  0  0  0
   36.6975   27.2615   52.2366 C   0  0  1  0  0  0  0  0  0  0  0  0
   37.5995   28.4808   52.2259 C   0  0  1  0  0  0  0  0  0  0  0  0
   38.9138   27.7941   51.9259 C   0  0  2  0  0  0  0  0  0  0  0  0
   39.7453   28.4677   52.2182 H   0  0  0  0  0  0  0  0  0  0  0  0
   38.8974   26.6141   52.6445 O   0  0  0  0  0  0  0  0  0  0  0  0
   37.6123   26.3378   53.0455 C   0  0  1  0  0  0  0  0  0  0  0  0
   37.5223   26.6681   54.1157 H   0  0  0  0  0  0  0  0  0  0  0  0
   34.7178   27.1690   52.2836 H   0  0  0  0  0  0  0  0  0  0  0  0
   36.5493   26.8484   51.2093 H   0  0  0  0  0  0  0  0  0  0  0  0
   37.5733   28.8881   53.2519 H   0  0  0  0  0  0  0  0  0  0  0  0
   38.9209   27.5533   50.8458 H   0  0  0  0  0  0  0  0  0  0  0  0
   37.3065   25.2818   52.9161 H   0  0  0  0  0  0  0  0  0  0  0  0
  1  2  2  0
  2  3  1  0
  4  3  2  0
  5  4  1  0
  6  1  1  0
  6  5  2  0
  7  1  1  0
  8  9  2  0
  9 10  1  0
  9  7  1  0
 11  9  1  0
  2 12  1  0
  5 13  1  0
 10 14  1  0
 11 15  1  0
 16 17  1  0
 17 18  1  0
 18 19  1  0
 19 20  1  1
 19 21  1  0
 21 22  1  0
 22 23  1  1
 22 17  1  0
 16 24  1  0
 17 25  1  6
 18 26  1  1
 19 27  1  0
 22 28  1  0
  3 18  1  0
M  ISO  6  12  14  13  14  14   3  15   3  20  15  23  16
M  END
>  <DihAtoms>  (1) 
1,2,17,16

>  <DihDeg>  (1) 
120.03655771388625

$$$$
