
 OpenBabel03272504533D

 25 27  0  0  1  0  0  0  0  0999 V2000
   37.1560   31.4020   49.1140 C   0  0  0  0  0  0  0  0  0  0  0  0
   37.4340   32.5750   49.8380 C   0  0  0  0  0  0  0  0  0  0  0  0
   38.3940   33.4080   49.2920 C   0  0  0  0  0  0  0  0  0  0  0  0
   39.0140   33.0770   48.1170 N   0  0  0  0  0  0  0  0  0  0  0  0
   38.7140   31.9310   47.4480 C   0  0  0  0  0  0  0  0  0  0  0  0
   37.7780   31.0920   47.9570 N   0  0  0  0  0  0  0  0  0  0  0  0
   36.9390   32.8090   50.7480 H   0  0  0  0  0  0  0  0  0  0  0  0
   38.6350   34.3200   49.8220 H   0  0  0  0  0  0  0  0  0  0  0  0
   36.0960   30.4860   49.6700 C   0  0  0  0  0  0  0  0  0  0  0  0
   36.0280   29.0850   49.2690 C   0  0  0  0  0  0  0  0  0  0  0  0
   36.6690   29.4180   50.5900 C   0  0  0  0  0  0  0  0  0  0  0  0
   35.2150   31.0510   50.0670 H   0  0  0  0  0  0  0  0  0  0  0  0
   36.7370   28.7720   48.4470 H   0  0  0  0  0  0  0  0  0  0  0  0
   35.0680   28.5560   49.2110 H   0  0  0  0  0  0  0  0  0  0  0  0
   37.7500   29.3400   50.7410 H   0  0  0  0  0  0  0  0  0  0  0  0
   36.0190   29.1920   51.4570 H   0  0  0  0  0  0  0  0  0  0  0  0
   39.2090   32.7010   45.1320 C   0  0  2  0  0  3  0  0  0  0  0  0
   39.4250   31.6310   46.1760 C   0  0  2  0  0  3  0  0  0  0  0  0
   38.9270   30.3780   45.5080 C   0  0  0  0  0  3  0  0  0  0  0  0
   39.5660   29.5300   45.8100 H   0  0  0  0  0  0  0  0  0  0  0  0
   38.9520   30.5990   44.1490 O   0  0  0  0  0  0  0  0  0  0  0  0
   38.6530   31.9540   43.9600 C   0  0  0  0  0  3  0  0  0  0  0  0
   37.5640   32.1300   43.8780 H   0  0  0  0  0  0  0  0  0  0  0  0
   40.3950   33.3130   44.7280 O   0  0  0  0  0  0  0  0  0  0  0  0
   41.1380   32.6770   44.9620 H   0  0  0  0  0  0  0  0  0  0  0  0
  1  9  1  0  0  0  0
  1  2  1  0  0  0  0
  2  7  1  0  0  0  0
  3  8  1  0  0  0  0
  3  2  2  0  0  0  0
  4  3  1  0  0  0  0
  5  6  1  0  0  0  0
  5  4  2  0  0  0  0
  6  1  2  0  0  0  0
  9 12  1  0  0  0  0
  9 11  1  0  0  0  0
 10  9  1  0  0  0  0
 10 11  1  0  0  0  0
 11 15  1  0  0  0  0
 11 16  1  0  0  0  0
 13 10  1  0  0  0  0
 14 10  1  0  0  0  0
 17 24  1  6  0  0  0
 17 18  1  0  0  0  0
 18  5  1  1  0  0  0
 19 20  1  0  0  0  0
 19 18  1  0  0  0  0
 21 19  1  0  0  0  0
 22 21  1  0  0  0  0
 22 17  1  0  0  0  0
 23 22  1  0  0  0  0
 24 25  1  0  0  0  0
M  END
>  <minimizedAffinity>
-5.35766411

>  <minimizedRMSD>
0.998364151

$$$$
