
 OpenBabel03272508183D

 25 27  0  0  1  0  0  0  0  0999 V2000
   39.1370   23.9660   36.4370 C   0  0  0  0  0  0  0  0  0  0  0  0
   39.1440   24.8380   35.3450 C   0  0  0  0  0  0  0  0  0  0  0  0
   40.3410   24.8250   34.5990 C   0  0  0  0  0  0  0  0  0  0  0  0
   41.3770   24.0050   34.9600 N   0  0  0  0  0  0  0  0  0  0  0  0
   41.3060   23.1780   36.0380 C   0  0  0  0  0  0  0  0  0  0  0  0
   40.1820   23.1630   36.7740 N   0  0  0  0  0  0  0  0  0  0  0  0
   40.5880   25.3900   33.7310 H   0  0  0  0  0  0  0  0  0  0  0  0
   42.1350   22.5400   36.3030 H   0  0  0  0  0  0  0  0  0  0  0  0
   37.8290   23.8780   37.1840 C   0  0  0  0  0  0  0  0  0  0  0  0
   37.7090   23.1070   38.3930 C   0  0  0  0  0  0  0  0  0  0  0  0
   37.9240   24.5900   38.5440 C   0  0  0  0  0  0  0  0  0  0  0  0
   36.9610   24.2650   36.6090 H   0  0  0  0  0  0  0  0  0  0  0  0
   38.6140   22.5150   38.7230 H   0  0  0  0  0  0  0  0  0  0  0  0
   36.7350   22.7510   38.7640 H   0  0  0  0  0  0  0  0  0  0  0  0
   37.0580   25.2250   38.7940 H   0  0  0  0  0  0  0  0  0  0  0  0
   38.9010   24.9840   38.8390 H   0  0  0  0  0  0  0  0  0  0  0  0
   37.8690   26.9660   35.7540 C   0  0  2  0  0  3  0  0  0  0  0  0
   38.0620   25.7090   34.9290 C   0  0  1  0  0  3  0  0  0  0  0  0
   38.4330   26.4260   33.6150 C   0  0  0  0  0  3  0  0  0  0  0  0
   39.3510   27.0180   33.8300 H   0  0  0  0  0  0  0  0  0  0  0  0
   37.4290   27.3960   33.4790 O   0  0  0  0  0  0  0  0  0  0  0  0
   37.0450   27.7630   34.7570 C   0  0  0  0  0  3  0  0  0  0  0  0
   37.0770   28.8430   34.9620 H   0  0  0  0  0  0  0  0  0  0  0  0
   39.0620   27.6010   36.0010 O   0  0  0  0  0  0  0  0  0  0  0  0
   39.0330   27.9550   36.9440 H   0  0  0  0  0  0  0  0  0  0  0  0
  1  6  1  0  0  0  0
  1  9  1  0  0  0  0
  2  1  2  0  0  0  0
  3  4  2  0  0  0  0
  3  2  1  0  0  0  0
  4  5  1  0  0  0  0
  5  8  1  0  0  0  0
  5  6  2  0  0  0  0
  7  3  1  0  0  0  0
  9 10  1  0  0  0  0
  9 11  1  0  0  0  0
 10 11  1  0  0  0  0
 10 13  1  0  0  0  0
 10 14  1  0  0  0  0
 11 15  1  0  0  0  0
 11 16  1  0  0  0  0
 12  9  1  0  0  0  0
 17 24  1  6  0  0  0
 18  2  1  1  0  0  0
 18 17  1  0  0  0  0
 19 20  1  0  0  0  0
 19 18  1  0  0  0  0
 21 19  1  0  0  0  0
 21 22  1  0  0  0  0
 22 23  1  0  0  0  0
 22 17  1  0  0  0  0
 24 25  1  0  0  0  0
M  END
>  <minimizedAffinity>
-4.35496759

$$$$

 OpenBabel03272508183D

 25 27  0  0  1  0  0  0  0  0999 V2000
   38.0030   24.6040   34.0100 C   0  0  0  0  0  0  0  0  0  0  0  0
   38.3650   23.5580   34.8630 C   0  0  0  0  0  0  0  0  0  0  0  0
   38.1070   22.2710   34.3460 C   0  0  0  0  0  0  0  0  0  0  0  0
   37.5480   22.1190   33.1060 N   0  0  0  0  0  0  0  0  0  0  0  0
   37.2170   23.1820   32.3230 C   0  0  0  0  0  0  0  0  0  0  0  0
   37.4470   24.4240   32.7820 N   0  0  0  0  0  0  0  0  0  0  0  0
   38.2950   21.3260   34.7980 H   0  0  0  0  0  0  0  0  0  0  0  0
   36.7780   23.0370   31.3480 H   0  0  0  0  0  0  0  0  0  0  0  0
   38.3710   25.9860   34.4900 C   0  0  0  0  0  0  0  0  0  0  0  0
   37.9440   27.1630   33.7810 C   0  0  0  0  0  0  0  0  0  0  0  0
   37.1270   26.7480   34.9770 C   0  0  0  0  0  0  0  0  0  0  0  0
   39.1540   25.9890   35.2790 H   0  0  0  0  0  0  0  0  0  0  0  0
   37.3810   27.0090   32.8130 H   0  0  0  0  0  0  0  0  0  0  0  0
   38.4550   28.1320   33.8970 H   0  0  0  0  0  0  0  0  0  0  0  0
   37.2620   27.2980   35.9230 H   0  0  0  0  0  0  0  0  0  0  0  0
   36.1560   26.2620   34.8460 H   0  0  0  0  0  0  0  0  0  0  0  0
   38.0160   23.6210   37.3530 C   0  0  2  0  0  3  0  0  0  0  0  0
   38.9690   23.6840   36.1750 C   0  0  1  0  0  3  0  0  0  0  0  0
   39.7530   22.4030   36.5250 C   0  0  0  0  0  3  0  0  0  0  0  0
   39.0130   21.5710   36.5130 H   0  0  0  0  0  0  0  0  0  0  0  0
   40.0550   22.5680   37.8840 O   0  0  0  0  0  0  0  0  0  0  0  0
   39.0270   23.3070   38.4420 C   0  0  0  0  0  3  0  0  0  0  0  0
   38.5550   22.8570   39.3280 H   0  0  0  0  0  0  0  0  0  0  0  0
   37.1170   22.5900   37.2250 O   0  0  0  0  0  0  0  0  0  0  0  0
   36.2260   22.9140   37.5630 H   0  0  0  0  0  0  0  0  0  0  0  0
  1  9  1  0  0  0  0
  1  2  1  0  0  0  0
  3  7  1  0  0  0  0
  3  2  2  0  0  0  0
  4  3  1  0  0  0  0
  5  6  1  0  0  0  0
  5  4  2  0  0  0  0
  6  1  2  0  0  0  0
  8  5  1  0  0  0  0
  9 11  1  0  0  0  0
  9 12  1  0  0  0  0
 10 14  1  0  0  0  0
 10  9  1  0  0  0  0
 10 11  1  0  0  0  0
 11 15  1  0  0  0  0
 13 10  1  0  0  0  0
 16 11  1  0  0  0  0
 17 24  1  6  0  0  0
 17 22  1  0  0  0  0
 18  2  1  6  0  0  0
 18 19  1  0  0  0  0
 18 17  1  0  0  0  0
 19 21  1  0  0  0  0
 20 19  1  0  0  0  0
 21 22  1  0  0  0  0
 22 23  1  0  0  0  0
 24 25  1  0  0  0  0
M  END
>  <minimizedAffinity>
-4.25062323

$$$$

 OpenBabel03272508183D

 25 27  0  0  1  0  0  0  0  0999 V2000
   38.7090   26.6460   33.3400 C   0  0  0  0  0  0  0  0  0  0  0  0
   38.2230   26.0030   32.1980 C   0  0  0  0  0  0  0  0  0  0  0  0
   39.1310   25.9690   31.1190 C   0  0  0  0  0  0  0  0  0  0  0  0
   40.3730   26.5340   31.2380 N   0  0  0  0  0  0  0  0  0  0  0  0
   40.7860   27.1460   32.3810 C   0  0  0  0  0  0  0  0  0  0  0  0
   39.9480   27.2000   33.4300 N   0  0  0  0  0  0  0  0  0  0  0  0
   38.9990   25.5390   30.1550 H   0  0  0  0  0  0  0  0  0  0  0  0
   41.7700   27.5840   32.4510 H   0  0  0  0  0  0  0  0  0  0  0  0
   37.8000   26.5980   34.5430 C   0  0  0  0  0  0  0  0  0  0  0  0
   38.0560   27.4060   35.7060 C   0  0  0  0  0  0  0  0  0  0  0  0
   37.0470   27.9280   34.7160 C   0  0  0  0  0  0  0  0  0  0  0  0
   37.0810   25.7510   34.5250 H   0  0  0  0  0  0  0  0  0  0  0  0
   39.0010   28.0250   35.7090 H   0  0  0  0  0  0  0  0  0  0  0  0
   37.6350   27.1580   36.6930 H   0  0  0  0  0  0  0  0  0  0  0  0
   35.9750   27.8240   34.9540 H   0  0  0  0  0  0  0  0  0  0  0  0
   37.3050   28.7440   34.0370 H   0  0  0  0  0  0  0  0  0  0  0  0
   35.8460   26.2520   31.4140 C   0  0  2  0  0  3  0  0  0  0  0  0
   36.9200   25.3860   32.0430 C   0  0  1  0  0  3  0  0  0  0  0  0
   36.9620   24.3300   30.9210 C   0  0  0  0  0  3  0  0  0  0  0  0
   37.2510   24.8710   29.9920 H   0  0  0  0  0  0  0  0  0  0  0  0
   35.6110   24.0120   30.7220 O   0  0  0  0  0  0  0  0  0  0  0  0
   34.8800   25.1520   31.0090 C   0  0  0  0  0  3  0  0  0  0  0  0
   34.1900   25.4770   30.2170 H   0  0  0  0  0  0  0  0  0  0  0  0
   36.3110   26.9110   30.3020 O   0  0  0  0  0  0  0  0  0  0  0  0
   35.9130   27.8360   30.3020 H   0  0  0  0  0  0  0  0  0  0  0  0
  1  6  1  0  0  0  0
  1  9  1  0  0  0  0
  2  1  2  0  0  0  0
  3  4  2  0  0  0  0
  3  2  1  0  0  0  0
  4  5  1  0  0  0  0
  5  8  1  0  0  0  0
  5  6  2  0  0  0  0
  7  3  1  0  0  0  0
  9 11  1  0  0  0  0
  9 10  1  0  0  0  0
 10 13  1  0  0  0  0
 10 14  1  0  0  0  0
 11 15  1  0  0  0  0
 11 10  1  0  0  0  0
 12  9  1  0  0  0  0
 16 11  1  0  0  0  0
 17 24  1  6  0  0  0
 17 18  1  0  0  0  0
 18  2  1  6  0  0  0
 19 18  1  0  0  0  0
 20 19  1  0  0  0  0
 21 19  1  0  0  0  0
 21 22  1  0  0  0  0
 22 17  1  0  0  0  0
 23 22  1  0  0  0  0
 25 24  1  0  0  0  0
M  END
>  <minimizedAffinity>
-4.06712055

$$$$

 OpenBabel03272508183D

 25 27  0  0  1  0  0  0  0  0999 V2000
   38.5850   25.1340   34.4120 C   0  0  0  0  0  0  0  0  0  0  0  0
   39.1170   23.8520   34.5720 C   0  0  0  0  0  0  0  0  0  0  0  0
   38.6490   22.9070   33.6350 C   0  0  0  0  0  0  0  0  0  0  0  0
   37.7490   23.2720   32.6700 N   0  0  0  0  0  0  0  0  0  0  0  0
   37.2680   24.5410   32.5680 C   0  0  0  0  0  0  0  0  0  0  0  0
   37.6900   25.4690   33.4430 N   0  0  0  0  0  0  0  0  0  0  0  0
   38.9050   21.8780   33.5480 H   0  0  0  0  0  0  0  0  0  0  0  0
   36.5600   24.8050   31.7980 H   0  0  0  0  0  0  0  0  0  0  0  0
   39.1540   26.1880   35.3290 C   0  0  0  0  0  0  0  0  0  0  0  0
   38.5470   27.4880   35.4410 C   0  0  0  0  0  0  0  0  0  0  0  0
   38.1960   26.4740   36.4980 C   0  0  0  0  0  0  0  0  0  0  0  0
   40.1660   25.9430   35.7150 H   0  0  0  0  0  0  0  0  0  0  0  0
   37.6700   27.7110   34.7640 H   0  0  0  0  0  0  0  0  0  0  0  0
   39.1030   28.3610   35.8190 H   0  0  0  0  0  0  0  0  0  0  0  0
   38.6820   26.5530   37.4850 H   0  0  0  0  0  0  0  0  0  0  0  0
   37.2250   25.9720   36.4870 H   0  0  0  0  0  0  0  0  0  0  0  0
   39.5010   22.9880   36.9030 C   0  0  2  0  0  3  0  0  0  0  0  0
   40.0790   23.4360   35.5740 C   0  0  1  0  0  3  0  0  0  0  0  0
   40.6910   22.0730   35.1900 C   0  0  0  0  0  3  0  0  0  0  0  0
   39.8430   21.3530   35.1390 H   0  0  0  0  0  0  0  0  0  0  0  0
   41.3880   21.6930   36.3460 O   0  0  0  0  0  0  0  0  0  0  0  0
   40.7060   22.2250   37.4250 C   0  0  0  0  0  3  0  0  0  0  0  0
   40.4320   21.5030   38.2080 H   0  0  0  0  0  0  0  0  0  0  0  0
   38.4350   22.1380   36.7330 O   0  0  0  0  0  0  0  0  0  0  0  0
   37.7470   22.3620   37.4340 H   0  0  0  0  0  0  0  0  0  0  0  0
  1  2  1  0  0  0  0
  1  9  1  0  0  0  0
  3  2  2  0  0  0  0
  4  3  1  0  0  0  0
  5  4  2  0  0  0  0
  5  6  1  0  0  0  0
  6  1  2  0  0  0  0
  7  3  1  0  0  0  0
  8  5  1  0  0  0  0
  9 10  1  0  0  0  0
  9 12  1  0  0  0  0
  9 11  1  0  0  0  0
 10 14  1  0  0  0  0
 10 11  1  0  0  0  0
 11 15  1  0  0  0  0
 13 10  1  0  0  0  0
 16 11  1  0  0  0  0
 17 24  1  6  0  0  0
 17 22  1  0  0  0  0
 18  2  1  6  0  0  0
 18 17  1  0  0  0  0
 19 18  1  0  0  0  0
 19 21  1  0  0  0  0
 20 19  1  0  0  0  0
 21 22  1  0  0  0  0
 22 23  1  0  0  0  0
 24 25  1  0  0  0  0
M  END
>  <minimizedAffinity>
-4.05161428

$$$$

 OpenBabel03272508183D

 25 27  0  0  1  0  0  0  0  0999 V2000
   38.1620   26.1500   32.9990 C   0  0  0  0  0  0  0  0  0  0  0  0
   37.0850   26.6920   32.2930 C   0  0  0  0  0  0  0  0  0  0  0  0
   36.1910   25.7340   31.7700 C   0  0  0  0  0  0  0  0  0  0  0  0
   36.4110   24.3980   31.9700 N   0  0  0  0  0  0  0  0  0  0  0  0
   37.4820   23.9330   32.6690 C   0  0  0  0  0  0  0  0  0  0  0  0
   38.3560   24.8160   33.1810 N   0  0  0  0  0  0  0  0  0  0  0  0
   35.3040   25.8940   31.2050 H   0  0  0  0  0  0  0  0  0  0  0  0
   37.6330   22.8750   32.8130 H   0  0  0  0  0  0  0  0  0  0  0  0
   39.0700   27.1550   33.6640 C   0  0  0  0  0  0  0  0  0  0  0  0
   40.2110   26.7370   34.4340 C   0  0  0  0  0  0  0  0  0  0  0  0
   40.4620   27.1550   33.0090 C   0  0  0  0  0  0  0  0  0  0  0  0
   38.6560   28.1860   33.6810 H   0  0  0  0  0  0  0  0  0  0  0  0
   40.3600   25.6270   34.5800 H   0  0  0  0  0  0  0  0  0  0  0  0
   40.6790   27.3920   35.1870 H   0  0  0  0  0  0  0  0  0  0  0  0
   40.8840   28.1570   32.8200 H   0  0  0  0  0  0  0  0  0  0  0  0
   40.6540   26.4070   32.2350 H   0  0  0  0  0  0  0  0  0  0  0  0
   37.0660   28.6110   30.6670 C   0  0  2  0  0  3  0  0  0  0  0  0
   36.8180   28.1000   32.0730 C   0  0  1  0  0  3  0  0  0  0  0  0
   35.2980   28.3610   32.0800 C   0  0  0  0  0  3  0  0  0  0  0  0
   34.8720   27.7490   31.2540 H   0  0  0  0  0  0  0  0  0  0  0  0
   35.1920   29.6790   31.6150 O   0  0  0  0  0  0  0  0  0  0  0  0
   36.2490   29.8890   30.7460 C   0  0  0  0  0  3  0  0  0  0  0  0
   35.9690   30.2640   29.7510 H   0  0  0  0  0  0  0  0  0  0  0  0
   36.5410   27.7670   29.7190 O   0  0  0  0  0  0  0  0  0  0  0  0
   37.1860   27.7310   28.9470 H   0  0  0  0  0  0  0  0  0  0  0  0
  1  6  1  0  0  0  0
  1  9  1  0  0  0  0
  2  1  2  0  0  0  0
  3  4  2  0  0  0  0
  3  2  1  0  0  0  0
  4  5  1  0  0  0  0
  5  8  1  0  0  0  0
  5  6  2  0  0  0  0
  7  3  1  0  0  0  0
  9 12  1  0  0  0  0
  9 10  1  0  0  0  0
 10 13  1  0  0  0  0
 10 14  1  0  0  0  0
 11  9  1  0  0  0  0
 11 10  1  0  0  0  0
 15 11  1  0  0  0  0
 16 11  1  0  0  0  0
 17 24  1  6  0  0  0
 17 22  1  0  0  0  0
 17 18  1  0  0  0  0
 18 19  1  0  0  0  0
 18  2  1  6  0  0  0
 20 19  1  0  0  0  0
 21 19  1  0  0  0  0
 22 21  1  0  0  0  0
 23 22  1  0  0  0  0
 25 24  1  0  0  0  0
M  END
>  <minimizedAffinity>
-3.99359441

$$$$

 OpenBabel03272508183D

 25 27  0  0  1  0  0  0  0  0999 V2000
   38.1690   25.0660   36.2860 C   0  0  0  0  0  0  0  0  0  0  0  0
   38.1120   23.7690   35.7660 C   0  0  0  0  0  0  0  0  0  0  0  0
   37.9630   22.7580   36.7380 C   0  0  0  0  0  0  0  0  0  0  0  0
   37.8870   23.0790   38.0670 N   0  0  0  0  0  0  0  0  0  0  0  0
   37.9490   24.3640   38.5090 C   0  0  0  0  0  0  0  0  0  0  0  0
   38.0910   25.3540   37.6120 N   0  0  0  0  0  0  0  0  0  0  0  0
   37.8920   21.7070   36.5950 H   0  0  0  0  0  0  0  0  0  0  0  0
   37.8860   24.5920   39.5620 H   0  0  0  0  0  0  0  0  0  0  0  0
   38.2140   26.1710   35.2600 C   0  0  0  0  0  0  0  0  0  0  0  0
   38.3860   27.5460   35.6500 C   0  0  0  0  0  0  0  0  0  0  0  0
   39.6150   26.8020   35.1950 C   0  0  0  0  0  0  0  0  0  0  0  0
   37.8920   25.8520   34.2460 H   0  0  0  0  0  0  0  0  0  0  0  0
   38.4160   27.7710   36.7570 H   0  0  0  0  0  0  0  0  0  0  0  0
   38.0930   28.3800   34.9930 H   0  0  0  0  0  0  0  0  0  0  0  0
   39.9930   26.9850   34.1750 H   0  0  0  0  0  0  0  0  0  0  0  0
   40.3570   26.4580   35.9200 H   0  0  0  0  0  0  0  0  0  0  0  0
   39.5710   23.2530   33.7840 C   0  0  2  0  0  3  0  0  0  0  0  0
   38.1790   23.3980   34.3650 C   0  0  1  0  0  3  0  0  0  0  0  0
   37.7680   21.9220   34.1870 C   0  0  0  0  0  3  0  0  0  0  0  0
   38.4900   21.3220   34.7860 H   0  0  0  0  0  0  0  0  0  0  0  0
   38.1180   21.6450   32.8580 O   0  0  0  0  0  0  0  0  0  0  0  0
   39.2160   22.4320   32.5560 C   0  0  0  0  0  3  0  0  0  0  0  0
   40.0850   21.8880   32.1550 H   0  0  0  0  0  0  0  0  0  0  0  0
   40.3980   22.5350   34.6140 O   0  0  0  0  0  0  0  0  0  0  0  0
   41.3100   22.9590   34.5830 H   0  0  0  0  0  0  0  0  0  0  0  0
  1  6  1  0  0  0  0
  2  1  2  0  0  0  0
  2  3  1  0  0  0  0
  3  4  2  0  0  0  0
  4  5  1  0  0  0  0
  5  8  1  0  0  0  0
  6  5  2  0  0  0  0
  7  3  1  0  0  0  0
  9 10  1  0  0  0  0
  9  1  1  0  0  0  0
 10 13  1  0  0  0  0
 11  9  1  0  0  0  0
 11 10  1  0  0  0  0
 11 16  1  0  0  0  0
 12  9  1  0  0  0  0
 14 10  1  0  0  0  0
 15 11  1  0  0  0  0
 17 18  1  0  0  0  0
 17 24  1  1  0  0  0
 18  2  1  1  0  0  0
 19 18  1  0  0  0  0
 19 20  1  0  0  0  0
 21 19  1  0  0  0  0
 22 21  1  0  0  0  0
 22 17  1  0  0  0  0
 23 22  1  0  0  0  0
 25 24  1  0  0  0  0
M  END
>  <minimizedAffinity>
-3.93920469

$$$$

 OpenBabel03272508183D

 25 27  0  0  1  0  0  0  0  0999 V2000
   37.0120   27.8440   33.4880 C   0  0  0  0  0  0  0  0  0  0  0  0
   36.0180   28.7950   33.2410 C   0  0  0  0  0  0  0  0  0  0  0  0
   36.0270   29.3200   31.9320 C   0  0  0  0  0  0  0  0  0  0  0  0
   36.9550   28.8950   31.0200 N   0  0  0  0  0  0  0  0  0  0  0  0
   37.8990   27.9630   31.3230 C   0  0  0  0  0  0  0  0  0  0  0  0
   37.9230   27.4410   32.5610 N   0  0  0  0  0  0  0  0  0  0  0  0
   35.3770   30.0460   31.5040 H   0  0  0  0  0  0  0  0  0  0  0  0
   38.6200   27.6430   30.5870 H   0  0  0  0  0  0  0  0  0  0  0  0
   36.9540   27.1860   34.8440 C   0  0  0  0  0  0  0  0  0  0  0  0
   37.8680   26.1340   35.2040 C   0  0  0  0  0  0  0  0  0  0  0  0
   38.2040   27.5260   35.6730 C   0  0  0  0  0  0  0  0  0  0  0  0
   36.0360   27.4310   35.4190 H   0  0  0  0  0  0  0  0  0  0  0  0
   38.5840   25.7740   34.4080 H   0  0  0  0  0  0  0  0  0  0  0  0
   37.6490   25.4240   36.0170 H   0  0  0  0  0  0  0  0  0  0  0  0
   38.0030   27.7900   36.7250 H   0  0  0  0  0  0  0  0  0  0  0  0
   38.9920   28.1030   35.1820 H   0  0  0  0  0  0  0  0  0  0  0  0
   35.3510   30.5270   34.9380 C   0  0  2  0  0  3  0  0  0  0  0  0
   35.0150   29.2580   34.1810 C   0  0  1  0  0  3  0  0  0  0  0  0
   33.8010   29.8330   33.4220 C   0  0  0  0  0  3  0  0  0  0  0  0
   34.1870   30.6800   32.8120 H   0  0  0  0  0  0  0  0  0  0  0  0
   33.0520   30.4540   34.4310 O   0  0  0  0  0  0  0  0  0  0  0  0
   33.9480   30.8990   35.3870 C   0  0  0  0  0  3  0  0  0  0  0  0
   33.8650   31.9640   35.6470 H   0  0  0  0  0  0  0  0  0  0  0  0
   35.8590   31.4970   34.1080 O   0  0  0  0  0  0  0  0  0  0  0  0
   36.5950   31.9730   34.6030 H   0  0  0  0  0  0  0  0  0  0  0  0
  1  9  1  0  0  0  0
  2  1  1  0  0  0  0
  3  2  2  0  0  0  0
  4  5  2  0  0  0  0
  4  3  1  0  0  0  0
  5  6  1  0  0  0  0
  6  1  2  0  0  0  0
  7  3  1  0  0  0  0
  8  5  1  0  0  0  0
  9 10  1  0  0  0  0
  9 12  1  0  0  0  0
  9 11  1  0  0  0  0
 10 11  1  0  0  0  0
 10 14  1  0  0  0  0
 11 15  1  0  0  0  0
 13 10  1  0  0  0  0
 16 11  1  0  0  0  0
 17 24  1  6  0  0  0
 17 22  1  0  0  0  0
 18  2  1  6  0  0  0
 18 17  1  0  0  0  0
 19 18  1  0  0  0  0
 19 21  1  0  0  0  0
 20 19  1  0  0  0  0
 21 22  1  0  0  0  0
 22 23  1  0  0  0  0
 24 25  1  0  0  0  0
M  END
>  <minimizedAffinity>
-3.9097681

$$$$

 OpenBabel03272508183D

 25 27  0  0  1  0  0  0  0  0999 V2000
   37.1560   27.7860   33.6700 C   0  0  0  0  0  0  0  0  0  0  0  0
   37.3160   27.7880   32.2810 C   0  0  0  0  0  0  0  0  0  0  0  0
   36.3330   28.5210   31.5830 C   0  0  0  0  0  0  0  0  0  0  0  0
   35.3290   29.1570   32.2620 N   0  0  0  0  0  0  0  0  0  0  0  0
   35.2290   29.1160   33.6180 C   0  0  0  0  0  0  0  0  0  0  0  0
   36.1470   28.4270   34.3170 N   0  0  0  0  0  0  0  0  0  0  0  0
   36.2410   28.6730   30.5340 H   0  0  0  0  0  0  0  0  0  0  0  0
   34.4290   29.6270   34.1310 H   0  0  0  0  0  0  0  0  0  0  0  0
   38.2560   27.1050   34.4460 C   0  0  0  0  0  0  0  0  0  0  0  0
   38.3180   27.1850   35.8810 C   0  0  0  0  0  0  0  0  0  0  0  0
   37.6960   25.9470   35.2890 C   0  0  0  0  0  0  0  0  0  0  0  0
   39.0920   26.7450   33.8090 H   0  0  0  0  0  0  0  0  0  0  0  0
   37.5520   27.8350   36.3980 H   0  0  0  0  0  0  0  0  0  0  0  0
   39.2520   27.0010   36.4350 H   0  0  0  0  0  0  0  0  0  0  0  0
   38.2950   25.0210   35.2580 H   0  0  0  0  0  0  0  0  0  0  0  0
   36.6120   25.8100   35.3000 H   0  0  0  0  0  0  0  0  0  0  0  0
   38.1130   25.6930   31.1400 C   0  0  2  0  0  3  0  0  0  0  0  0
   38.3730   27.1340   31.5340 C   0  0  1  0  0  3  0  0  0  0  0  0
   38.4310   27.6920   30.0970 C   0  0  0  0  0  3  0  0  0  0  0  0
   37.4390   27.4800   29.6390 H   0  0  0  0  0  0  0  0  0  0  0  0
   39.3030   26.8110   29.4410 O   0  0  0  0  0  0  0  0  0  0  0  0
   39.1520   25.5710   30.0380 C   0  0  0  0  0  3  0  0  0  0  0  0
   38.9290   24.7440   29.3480 H   0  0  0  0  0  0  0  0  0  0  0  0
   36.8510   25.5250   30.6260 O   0  0  0  0  0  0  0  0  0  0  0  0
   36.4940   24.6460   30.9630 H   0  0  0  0  0  0  0  0  0  0  0  0
  1  6  1  0  0  0  0
  1  9  1  0  0  0  0
  2  1  2  0  0  0  0
  3  4  2  0  0  0  0
  3  2  1  0  0  0  0
  4  5  1  0  0  0  0
  5  8  1  0  0  0  0
  5  6  2  0  0  0  0
  7  3  1  0  0  0  0
  9 11  1  0  0  0  0
  9 10  1  0  0  0  0
 10 13  1  0  0  0  0
 10 14  1  0  0  0  0
 11 16  1  0  0  0  0
 11 10  1  0  0  0  0
 12  9  1  0  0  0  0
 15 11  1  0  0  0  0
 17 24  1  6  0  0  0
 17 18  1  0  0  0  0
 18  2  1  1  0  0  0
 19 18  1  0  0  0  0
 20 19  1  0  0  0  0
 21 22  1  0  0  0  0
 21 19  1  0  0  0  0
 22 17  1  0  0  0  0
 23 22  1  0  0  0  0
 24 25  1  0  0  0  0
M  END
>  <minimizedAffinity>
-3.8907516

$$$$

 OpenBabel03272508183D

 25 27  0  0  1  0  0  0  0  0999 V2000
   38.3390   24.7750   35.3310 C   0  0  0  0  0  0  0  0  0  0  0  0
   38.0570   23.9350   34.2500 C   0  0  0  0  0  0  0  0  0  0  0  0
   38.1490   22.5580   34.5440 C   0  0  0  0  0  0  0  0  0  0  0  0
   38.4900   22.1380   35.8020 N   0  0  0  0  0  0  0  0  0  0  0  0
   38.7530   23.0090   36.8130 C   0  0  0  0  0  0  0  0  0  0  0  0
   38.6760   24.3290   36.5700 N   0  0  0  0  0  0  0  0  0  0  0  0
   37.9810   21.7300   33.8980 H   0  0  0  0  0  0  0  0  0  0  0  0
   39.0190   22.6540   37.7960 H   0  0  0  0  0  0  0  0  0  0  0  0
   38.1380   26.2480   35.0730 C   0  0  0  0  0  0  0  0  0  0  0  0
   38.5240   27.2360   36.0450 C   0  0  0  0  0  0  0  0  0  0  0  0
   39.4890   26.9670   34.9200 C   0  0  0  0  0  0  0  0  0  0  0  0
   37.4900   26.4620   34.1970 H   0  0  0  0  0  0  0  0  0  0  0  0
   38.9180   26.8630   37.0360 H   0  0  0  0  0  0  0  0  0  0  0  0
   38.0990   28.2530   36.0440 H   0  0  0  0  0  0  0  0  0  0  0  0
   39.5370   27.6870   34.0850 H   0  0  0  0  0  0  0  0  0  0  0  0
   40.3950   26.3800   35.0930 H   0  0  0  0  0  0  0  0  0  0  0  0
   38.8290   24.6900   31.9780 C   0  0  2  0  0  3  0  0  0  0  0  0
   37.6830   24.3470   32.9110 C   0  0  1  0  0  3  0  0  0  0  0  0
   37.1690   23.1360   32.1060 C   0  0  0  0  0  3  0  0  0  0  0  0
   38.0080   22.4050   32.0710 H   0  0  0  0  0  0  0  0  0  0  0  0
   37.0900   23.6270   30.7950 O   0  0  0  0  0  0  0  0  0  0  0  0
   38.0830   24.5820   30.6590 C   0  0  0  0  0  3  0  0  0  0  0  0
   38.7640   24.4300   29.8090 H   0  0  0  0  0  0  0  0  0  0  0  0
   39.8310   23.7520   32.0370 O   0  0  0  0  0  0  0  0  0  0  0  0
   40.7120   24.2370   31.9800 H   0  0  0  0  0  0  0  0  0  0  0  0
  1  6  1  0  0  0  0
  2  3  1  0  0  0  0
  2  1  2  0  0  0  0
  3  4  2  0  0  0  0
  4  5  1  0  0  0  0
  5  8  1  0  0  0  0
  6  5  2  0  0  0  0
  7  3  1  0  0  0  0
  9  1  1  0  0  0  0
  9 10  1  0  0  0  0
 10 13  1  0  0  0  0
 11  9  1  0  0  0  0
 11 16  1  0  0  0  0
 11 10  1  0  0  0  0
 12  9  1  0  0  0  0
 14 10  1  0  0  0  0
 15 11  1  0  0  0  0
 17 24  1  6  0  0  0
 17 18  1  0  0  0  0
 18  2  1  1  0  0  0
 19 18  1  0  0  0  0
 20 19  1  0  0  0  0
 21 19  1  0  0  0  0
 22 21  1  0  0  0  0
 22 17  1  0  0  0  0
 23 22  1  0  0  0  0
 25 24  1  0  0  0  0
M  END
>  <minimizedAffinity>
-3.87651563

$$$$
