
 OpenBabel03272504533D

 25 27  0  0  1  0  0  0  0  0999 V2000
   36.9970   31.2940   49.2160 C   0  0  0  0  0  0  0  0  0  0  0  0
   37.3490   32.4950   49.8570 C   0  0  0  0  0  0  0  0  0  0  0  0
   38.2660   33.2890   49.1900 C   0  0  0  0  0  0  0  0  0  0  0  0
   38.7780   32.8950   47.9820 N   0  0  0  0  0  0  0  0  0  0  0  0
   38.4090   31.7230   47.3970 C   0  0  0  0  0  0  0  0  0  0  0  0
   37.5120   30.9230   48.0260 N   0  0  0  0  0  0  0  0  0  0  0  0
   36.9390   32.7790   50.7940 H   0  0  0  0  0  0  0  0  0  0  0  0
   38.5620   34.2210   49.6530 H   0  0  0  0  0  0  0  0  0  0  0  0
   35.9810   30.4200   49.9060 C   0  0  0  0  0  0  0  0  0  0  0  0
   35.9510   28.9800   49.6770 C   0  0  0  0  0  0  0  0  0  0  0  0
   36.6100   29.4890   50.9310 C   0  0  0  0  0  0  0  0  0  0  0  0
   35.0900   31.0020   50.2550 H   0  0  0  0  0  0  0  0  0  0  0  0
   36.6510   28.5920   48.8800 H   0  0  0  0  0  0  0  0  0  0  0  0
   35.0080   28.4190   49.7090 H   0  0  0  0  0  0  0  0  0  0  0  0
   37.6950   29.4630   51.0620 H   0  0  0  0  0  0  0  0  0  0  0  0
   35.9870   29.3500   51.8370 H   0  0  0  0  0  0  0  0  0  0  0  0
   40.4580   31.7430   45.9830 C   0  0  2  0  0  3  0  0  0  0  0  0
   39.0020   31.3540   46.0840 C   0  0  2  0  0  3  0  0  0  0  0  0
   38.3620   32.0720   44.9290 C   0  0  0  0  0  3  0  0  0  0  0  0
   37.5680   31.4330   44.5030 H   0  0  0  0  0  0  0  0  0  0  0  0
   39.3560   32.3540   44.0180 O   0  0  0  0  0  0  0  0  0  0  0  0
   40.5170   32.6040   44.7600 C   0  0  0  0  0  3  0  0  0  0  0  0
   40.6010   33.6690   45.0490 H   0  0  0  0  0  0  0  0  0  0  0  0
   41.3000   30.6490   45.7780 O   0  0  0  0  0  0  0  0  0  0  0  0
   40.7240   29.9130   45.4050 H   0  0  0  0  0  0  0  0  0  0  0  0
  1  2  1  0  0  0  0
  1  9  1  0  0  0  0
  2  7  1  0  0  0  0
  3  8  1  0  0  0  0
  3  2  2  0  0  0  0
  4  3  1  0  0  0  0
  5  4  2  0  0  0  0
  5  6  1  0  0  0  0
  6  1  2  0  0  0  0
  9 12  1  0  0  0  0
  9 11  1  0  0  0  0
 10 14  1  0  0  0  0
 10  9  1  0  0  0  0
 10 11  1  0  0  0  0
 11 15  1  0  0  0  0
 11 16  1  0  0  0  0
 13 10  1  0  0  0  0
 17 24  1  6  0  0  0
 17 18  1  0  0  0  0
 18  5  1  1  0  0  0
 19 18  1  0  0  0  0
 20 19  1  0  0  0  0
 21 22  1  0  0  0  0
 21 19  1  0  0  0  0
 22 23  1  0  0  0  0
 22 17  1  0  0  0  0
 25 24  1  0  0  0  0
M  END
>  <minimizedAffinity>
-5.82545662

>  <minimizedRMSD>
1.07180548

$$$$
