
     RDKit          3D

 28 29  0  0  0  0  0  0  0  0999 V2000
   35.6467   30.4755   49.7341 C   0  0  0  0  0  0  0  0  0  0  0  0
   35.9664   29.4995   50.6762 C   0  0  0  0  0  0  0  0  0  0  0  0
   37.2293   29.5154   51.2852 C   0  0  0  0  0  0  0  0  0  0  0  0
   38.0936   30.5102   50.9112 N   0  0  0  0  0  0  0  0  0  0  0  0
   37.7508   31.4527   49.9849 C   0  0  0  0  0  0  0  0  0  0  0  0
   36.5355   31.4215   49.4114 N   0  0  0  0  0  0  0  0  0  0  0  0
   34.4309   30.5320   49.0895 O   0  0  0  0  0  0  0  0  0  0  0  0
   35.4991   30.1538   46.6387 O   0  0  0  0  0  0  0  0  0  0  0  0
   34.2344   30.0248   47.4651 P   0  0  0  0  0  0  0  0  0  0  0  0
   33.7622   28.3960   47.5665 O   0  0  0  0  0  0  0  0  0  0  0  0
   33.0531   30.9684   46.6942 O   0  0  0  0  0  0  0  0  0  0  0  0
   37.5266   28.7799   52.0227 H   0  0  0  0  0  0  0  0  0  0  0  0
   38.4496   32.2302   49.7042 H   0  0  0  0  0  0  0  0  0  0  0  0
   33.6964   28.0635   46.6403 H   0  0  0  0  0  0  0  0  0  0  0  0
   32.2835   31.1179   47.2657 H   0  0  0  0  0  0  0  0  0  0  0  0
   34.2249   27.3449   53.0298 O   0  0  0  0  0  0  0  0  0  0  0  0
   34.3424   28.5965   52.3732 C   0  0  1  0  0  0  0  0  0  0  0  0
   35.0402   28.4609   51.0630 C   0  0  1  0  0  0  0  0  0  0  0  0
   33.8622   28.3135   50.1127 C   0  0  2  0  0  0  0  0  0  0  0  0
   33.4608   27.2775   50.1274 H   0  0  0  0  0  0  0  0  0  0  0  0
   32.8948   29.1582   50.6059 O   0  0  0  0  0  0  0  0  0  0  0  0
   32.9558   29.0575   51.9792 C   0  0  2  0  0  0  0  0  0  0  0  0
   32.7439   30.0872   52.3829 H   0  0  0  0  0  0  0  0  0  0  0  0
   34.0440   27.4722   53.9911 H   0  0  0  0  0  0  0  0  0  0  0  0
   34.7460   29.2924   53.0930 H   0  0  0  0  0  0  0  0  0  0  0  0
   35.5600   27.4819   51.0707 H   0  0  0  0  0  0  0  0  0  0  0  0
   34.1304   28.6516   49.0976 H   0  0  0  0  0  0  0  0  0  0  0  0
   32.1862   28.3576   52.3889 H   0  0  0  0  0  0  0  0  0  0  0  0
  1  2  2  0
  2  3  1  0
  4  3  2  0
  5  4  1  0
  6  1  1  0
  6  5  2  0
  7  1  1  0
  8  9  2  0
  9 10  1  0
  9  7  1  0
 11  9  1  0
  3 12  1  0
  5 13  1  0
 10 14  1  0
 11 15  1  0
 16 17  1  0
 17 18  1  0
 18 19  1  0
 19 20  1  6
 19 21  1  0
 21 22  1  0
 22 23  1  1
 22 17  1  0
 16 24  1  0
 17 25  1  1
 18 26  1  1
 19 27  1  0
 22 28  1  0
  2 18  1  0
M  ISO  6  12  14  13  14  14   3  15   3  20  15  23  16
M  END
>  <DihAtoms>  (1) 
0,1,17,16

>  <DihDeg>  (1) 
91.76696438135924

$$$$
