
 OpenBabel03262521003D

 35 37  0  0  1  0  0  0  0  0999 V2000
   39.9540   32.1020   46.0770 S   0  0  0  0  0  0  0  0  0  0  0  0
   39.9600   32.7230   43.4370 N   0  0  0  0  0  0  0  0  0  0  0  0
   39.1840   32.9100   44.6350 C   0  0  1  0  0  0  0  0  0  0  0  0
   37.8240   32.3160   44.4810 C   0  0  0  0  0  0  0  0  0  0  0  0
   38.0070   30.8830   44.2360 N   0  0  0  0  0  0  0  0  0  0  0  0
   38.5860   30.8140   42.8790 C   0  0  0  0  0  0  0  0  0  0  0  0
   39.9930   31.3600   43.0050 C   0  0  2  0  0  0  0  0  0  0  0  0
   39.5540   33.3130   42.7020 H   0  0  0  0  0  0  0  0  0  0  0  0
   39.0930   33.9950   44.8220 H   0  0  0  0  0  0  0  0  0  0  0  0
   37.1520   32.5370   45.3120 H   0  0  0  0  0  0  0  0  0  0  0  0
   37.4040   32.7220   43.5190 H   0  0  0  0  0  0  0  0  0  0  0  0
   37.0500   30.4340   44.2500 H   0  0  0  0  0  0  0  0  0  0  0  0
   38.6280   29.7120   42.6690 H   0  0  0  0  0  0  0  0  0  0  0  0
   37.9850   31.3650   42.1520 H   0  0  0  0  0  0  0  0  0  0  0  0
   40.4440   31.3140   41.9880 H   0  0  0  0  0  0  0  0  0  0  0  0
   40.7570   30.4960   43.8710 N   0  0  0  0  0  0  0  0  0  0  0  0
   40.1330   30.0440   44.5780 H   0  0  0  0  0  0  0  0  0  0  0  0
   41.3040   29.7660   43.3730 H   0  0  0  0  0  0  0  0  0  0  0  0
   38.0000   33.0780   49.4950 C   0  0  0  0  0  0  0  0  0  0  0  0
   38.9210   33.1400   48.4630 C   0  0  0  0  0  0  0  0  0  0  0  0
   38.8560   32.1850   47.4820 C   0  0  0  0  0  0  0  0  0  0  0  0
   37.8800   31.2010   47.5580 N   0  0  0  0  0  0  0  0  0  0  0  0
   37.0220   31.2000   48.5840 C   0  0  0  0  0  0  0  0  0  0  0  0
   37.0760   32.1380   49.5590 N   0  0  0  0  0  0  0  0  0  0  0  0
   38.1020   33.8590   50.2400 H   0  0  0  0  0  0  0  0  0  0  0  0
   39.6990   33.8880   48.3610 H   0  0  0  0  0  0  0  0  0  0  0  0
   36.3610   29.0250   49.5780 C   0  0  2  0  0  0  0  0  0  0  0  0
   35.9940   30.1170   48.6140 C   0  0  1  0  0  0  0  0  0  0  0  0
   34.6880   30.6090   49.1910 C   0  0  0  0  0  0  0  0  0  0  0  0
   33.9110   30.5990   48.3860 H   0  0  0  0  0  0  0  0  0  0  0  0
   34.3120   29.7470   50.2020 O   0  0  0  0  0  0  0  0  0  0  0  0
   35.0030   28.5560   50.0420 C   0  0  0  0  0  0  0  0  0  0  0  0
   34.5380   27.8610   49.3280 H   0  0  0  0  0  0  0  0  0  0  0  0
   37.0990   29.5080   50.6420 O   0  0  0  0  0  0  0  0  0  0  0  0
   36.4970   29.6070   51.4120 H   0  0  0  0  0  0  0  0  0  0  0  0
  1 21  1  0  0  0  0
  2  3  1  0  0  0  0
  3  9  1  1  0  0  0
  3  1  1  0  0  0  0
  4  3  1  0  0  0  0
  4 10  1  0  0  0  0
  5 12  1  0  0  0  0
  5  4  1  0  0  0  0
  6  7  1  0  0  0  0
  6  5  1  0  0  0  0
  7 15  1  6  0  0  0
  7  2  1  0  0  0  0
  7 16  1  0  0  0  0
  8  2  1  0  0  0  0
 11  4  1  0  0  0  0
 13  6  1  0  0  0  0
 14  6  1  0  0  0  0
 16 17  1  0  0  0  0
 18 16  1  0  0  0  0
 19 24  1  0  0  0  0
 19 25  1  0  0  0  0
 20 19  2  0  0  0  0
 21 22  2  0  0  0  0
 21 20  1  0  0  0  0
 22 23  1  0  0  0  0
 23 24  2  0  0  0  0
 26 20  1  0  0  0  0
 27 32  1  0  0  0  0
 27 34  1  1  0  0  0
 28 23  1  1  0  0  0
 28 29  1  0  0  0  0
 28 27  1  0  0  0  0
 29 31  1  0  0  0  0
 30 29  1  0  0  0  0
 32 31  1  0  0  0  0
 33 32  1  0  0  0  0
 34 35  1  0  0  0  0
M  END
>  <minimizedAffinity>
-6.08617353

>  <minimizedRMSD>
2.32651067

$$$$
