
 OpenBabel03272507363D

 19 20  0  0  1  0  0  0  0  0999 V2000
   37.4010   30.2570   50.2420 C   0  0  0  0  0  0  0  0  0  0  0  0
   36.6610   30.7880   49.1820 C   0  0  0  0  0  0  0  0  0  0  0  0
   35.2990   30.5180   49.1530 C   0  0  0  0  0  0  0  0  0  0  0  0
   34.7540   29.7610   50.1400 N   0  0  0  0  0  0  0  0  0  0  0  0
   35.4850   29.2530   51.1580 C   0  0  0  0  0  0  0  0  0  0  0  0
   36.8100   29.5040   51.2070 N   0  0  0  0  0  0  0  0  0  0  0  0
   34.6520   30.8830   48.3800 H   0  0  0  0  0  0  0  0  0  0  0  0
   34.9890   28.6570   51.9150 H   0  0  0  0  0  0  0  0  0  0  0  0
   38.4070   32.4770   48.5480 C   0  0  1  0  0  3  0  0  0  0  0  0
   37.2650   31.6070   48.1180 C   0  0  1  0  0  3  0  0  0  0  0  0
   37.8490   30.8270   46.9950 C   0  0  0  0  0  3  0  0  0  0  0  0
   38.6740   30.1480   47.2760 H   0  0  0  0  0  0  0  0  0  0  0  0
   38.4920   31.8700   46.2860 O   0  0  0  0  0  0  0  0  0  0  0  0
   39.2660   32.4620   47.3050 C   0  0  0  0  0  3  0  0  0  0  0  0
   39.6280   33.4610   47.0520 H   0  0  0  0  0  0  0  0  0  0  0  0
   37.9460   33.7280   48.9090 O   0  0  0  0  0  0  0  0  0  0  0  0
   38.6390   34.3560   49.1650 H   0  0  0  0  0  0  0  0  0  0  0  0
   38.7440   30.5690   50.1990 O   0  0  0  0  0  0  0  0  0  0  0  0
   39.1310   31.4190   50.5640 H   0  0  0  0  0  0  0  0  0  0  0  0
  1  6  1  0  0  0  0
  2  1  2  0  0  0  0
  3  2  1  0  0  0  0
  3  4  2  0  0  0  0
  4  5  1  0  0  0  0
  5  6  2  0  0  0  0
  5  8  1  0  0  0  0
  7  3  1  0  0  0  0
  9 16  1  6  0  0  0
 10  9  1  0  0  0  0
 10  2  1  1  0  0  0
 11 12  1  0  0  0  0
 11 10  1  0  0  0  0
 13 11  1  0  0  0  0
 13 14  1  0  0  0  0
 14  9  1  0  0  0  0
 15 14  1  0  0  0  0
 16 17  1  0  0  0  0
 18  1  1  0  0  0  0
 18 19  1  0  0  0  0
M  END
>  <minimizedAffinity>
-5.14635229

>  <minimizedRMSD>
3.08089209

$$$$
