
 OpenBabel03262521243D

 47 50  0  0  1  0  0  0  0  0999 V2000
   38.6430   27.4010   52.7040 S   0  0  0  0  0  0  0  0  0  0  0  0
   40.3220   25.2140   53.3900 C   0  0  0  0  0  0  0  0  0  0  0  0
   39.7550   26.0700   52.4300 C   0  0  0  0  0  0  0  0  0  0  0  0
   40.1310   25.8180   51.1170 C   0  0  0  0  0  0  0  0  0  0  0  0
   40.9830   24.8240   50.7460 C   0  0  0  0  0  0  0  0  0  0  0  0
   41.4960   24.3700   49.6180 N   0  0  0  0  0  0  0  0  0  0  0  0
   42.3270   23.3120   49.8080 C   0  0  0  0  0  0  0  0  0  0  0  0
   42.3390   23.0780   51.1650 C   0  0  0  0  0  0  0  0  0  0  0  0
   41.5030   24.0190   51.7450 C   0  0  0  0  0  0  0  0  0  0  0  0
   41.1820   24.2010   53.0700 C   0  0  0  0  0  0  0  0  0  0  0  0
   40.0180   25.4310   54.4030 H   0  0  0  0  0  0  0  0  0  0  0  0
   39.7470   26.4230   50.3030 H   0  0  0  0  0  0  0  0  0  0  0  0
   41.2930   24.7740   48.6700 H   0  0  0  0  0  0  0  0  0  0  0  0
   42.8750   22.7560   49.0600 H   0  0  0  0  0  0  0  0  0  0  0  0
   42.8920   22.3080   51.7010 H   0  0  0  0  0  0  0  0  0  0  0  0
   42.9940   24.0440   54.6360 C   0  0  1  0  0  0  0  0  0  0  0  0
   41.7820   23.3050   54.0850 C   0  0  1  0  0  0  0  0  0  0  0  0
   40.9390   23.0520   55.2840 C   0  0  0  0  0  0  0  0  0  0  0  0
   39.9820   23.6010   55.3170 H   0  0  0  0  0  0  0  0  0  0  0  0
   41.6780   23.4470   56.3920 O   0  0  0  0  0  0  0  0  0  0  0  0
   42.4960   24.4790   56.0010 C   0  0  0  0  0  0  0  0  0  0  0  0
   41.9830   25.4490   55.9620 H   0  0  0  0  0  0  0  0  0  0  0  0
   44.0570   23.1720   54.7010 O   0  0  0  0  0  0  0  0  0  0  0  0
   44.8580   23.6360   54.3380 H   0  0  0  0  0  0  0  0  0  0  0  0
   38.1330   28.2420   51.2140 C   0  0  0  0  0  0  0  0  0  0  0  0
   37.7690   27.4940   50.4560 H   0  0  0  0  0  0  0  0  0  0  0  0
   39.0350   28.6970   50.7520 H   0  0  0  0  0  0  0  0  0  0  0  0
   37.1110   29.3370   51.4360 C   0  0  0  0  0  0  0  0  0  0  0  0
   36.1420   28.9160   51.0870 H   0  0  0  0  0  0  0  0  0  0  0  0
   36.9800   29.3670   52.5530 H   0  0  0  0  0  0  0  0  0  0  0  0
   37.4680   30.5380   50.9120 C   0  0  0  0  0  0  0  0  0  0  0  0
   36.7650   31.3820   51.0780 H   0  0  0  0  0  0  0  0  0  0  0  0
   38.4760   30.9120   51.2100 H   0  0  0  0  0  0  0  0  0  0  0  0
   37.4750   30.1860   49.5910 O   0  0  0  0  0  0  0  0  0  0  0  0
   38.0890   31.0210   48.6930 C   0  0  0  0  0  0  0  0  0  0  0  0
   38.3780   32.2560   49.2230 C   0  0  0  0  0  0  0  0  0  0  0  0
   39.0110   33.2130   48.4120 C   0  0  0  0  0  0  0  0  0  0  0  0
   39.3000   32.8420   47.1220 N   0  0  0  0  0  0  0  0  0  0  0  0
   39.0000   31.6110   46.6320 C   0  0  0  0  0  0  0  0  0  0  0  0
   38.3970   30.7240   47.4350 N   0  0  0  0  0  0  0  0  0  0  0  0
   39.9400   32.4220   44.5870 C   0  0  0  0  0  0  0  0  0  0  0  0
   40.1760   33.5670   45.0600 O   0  0  0  0  0  0  0  0  0  0  0  0
   39.3500   31.3460   45.2780 N   0  0  0  0  0  0  0  0  0  0  0  0
   38.2080   32.6820   50.2080 H   0  0  0  0  0  0  0  0  0  0  0  0
   39.2840   34.1960   48.7030 H   0  0  0  0  0  0  0  0  0  0  0  0
   40.2330   32.2810   43.5400 H   0  0  0  0  0  0  0  0  0  0  0  0
   39.1640   30.4140   44.8720 H   0  0  0  0  0  0  0  0  0  0  0  0
  2 11  1  0  0  0  0
  3  1  1  0  0  0  0
  3  2  2  0  0  0  0
  4  3  1  0  0  0  0
  5  4  2  0  0  0  0
  5  9  1  0  0  0  0
  6  7  1  0  0  0  0
  6  5  1  0  0  0  0
  7  8  2  0  0  0  0
  8 15  1  0  0  0  0
  8  9  1  0  0  0  0
  9 10  2  0  0  0  0
 10  2  1  0  0  0  0
 12  4  1  0  0  0  0
 13  6  1  0  0  0  0
 14  7  1  0  0  0  0
 16 23  1  1  0  0  0
 16 21  1  0  0  0  0
 17 10  1  6  0  0  0
 17 16  1  0  0  0  0
 17 18  1  0  0  0  0
 18 19  1  0  0  0  0
 18 20  1  0  0  0  0
 21 20  1  0  0  0  0
 22 21  1  0  0  0  0
 24 23  1  0  0  0  0
 25 28  1  0  0  0  0
 25  1  1  0  0  0  0
 26 25  1  0  0  0  0
 27 25  1  0  0  0  0
 28 30  1  0  0  0  0
 29 28  1  0  0  0  0
 31 32  1  0  0  0  0
 31 33  1  0  0  0  0
 31 28  1  0  0  0  0
 34 31  1  0  0  0  0
 35 36  1  0  0  0  0
 35 34  1  0  0  0  0
 36 44  1  0  0  0  0
 37 45  1  0  0  0  0
 37 36  2  0  0  0  0
 38 37  1  0  0  0  0
 39 38  2  0  0  0  0
 39 40  1  0  0  0  0
 40 35  2  0  0  0  0
 41 42  2  0  0  0  0
 41 43  1  0  0  0  0
 43 39  1  0  0  0  0
 46 41  1  0  0  0  0
 47 43  1  0  0  0  0
M  END
>  <minimizedAffinity>
-4.61791897

>  <minimizedRMSD>
0.616827071

$$$$
