
 OpenBabel03272506343D

 19 20  0  0  1  0  0  0  0  0999 V2000
   37.4850   30.1970   51.0180 C   0  0  0  0  0  0  0  0  0  0  0  0
   38.3060   31.0790   50.3200 C   0  0  0  0  0  0  0  0  0  0  0  0
   37.8480   31.6010   49.1020 C   0  0  0  0  0  0  0  0  0  0  0  0
   36.6240   31.2180   48.6630 N   0  0  0  0  0  0  0  0  0  0  0  0
   35.8350   30.3480   49.3670 C   0  0  0  0  0  0  0  0  0  0  0  0
   36.2810   29.8540   50.5340 N   0  0  0  0  0  0  0  0  0  0  0  0
   39.2840   31.4360   50.5920 H   0  0  0  0  0  0  0  0  0  0  0  0
   38.4390   32.2910   48.5130 H   0  0  0  0  0  0  0  0  0  0  0  0
   33.8350   28.9930   49.8650 C   0  0  2  0  0  3  0  0  0  0  0  0
   34.4970   29.9350   48.8790 C   0  0  2  0  0  3  0  0  0  0  0  0
   34.6210   28.9830   47.6810 C   0  0  0  0  0  3  0  0  0  0  0  0
   35.2910   28.1690   47.9520 H   0  0  0  0  0  0  0  0  0  0  0  0
   33.3220   28.4920   47.6310 O   0  0  0  0  0  0  0  0  0  0  0  0
   32.9410   28.1980   48.9260 C   0  0  0  0  0  3  0  0  0  0  0  0
   31.8970   28.5780   49.1220 H   0  0  0  0  0  0  0  0  0  0  0  0
   33.1170   29.6550   50.8530 O   0  0  0  0  0  0  0  0  0  0  0  0
   32.9380   28.9460   51.5500 H   0  0  0  0  0  0  0  0  0  0  0  0
   38.0610   29.7600   52.2040 O   0  0  0  0  0  0  0  0  0  0  0  0
   38.0770   30.3130   53.0470 H   0  0  0  0  0  0  0  0  0  0  0  0
  1 18  1  0  0  0  0
  2  7  1  0  0  0  0
  2  1  2  0  0  0  0
  3  2  1  0  0  0  0
  4  3  2  0  0  0  0
  4  5  1  0  0  0  0
  5  6  2  0  0  0  0
  6  1  1  0  0  0  0
  8  3  1  0  0  0  0
  9 16  1  1  0  0  0
 10  5  1  1  0  0  0
 10  9  1  0  0  0  0
 11 12  1  0  0  0  0
 11 10  1  0  0  0  0
 13 11  1  0  0  0  0
 13 14  1  0  0  0  0
 14 15  1  0  0  0  0
 14  9  1  0  0  0  0
 16 17  1  0  0  0  0
 18 19  1  0  0  0  0
M  END
>  <minimizedAffinity>
-4.87498713

>  <minimizedRMSD>
0.928795457

$$$$
