
 OpenBabel03272508183D

 25 27  0  0  1  0  0  0  0  0999 V2000
   36.3050   30.4480   46.1980 C   0  0  0  0  0  0  0  0  0  0  0  0
   37.4010   31.2750   46.4550 C   0  0  0  0  0  0  0  0  0  0  0  0
   38.3850   31.2690   45.4440 C   0  0  0  0  0  0  0  0  0  0  0  0
   38.2250   30.4970   44.3240 N   0  0  0  0  0  0  0  0  0  0  0  0
   37.1310   29.7110   44.1330 C   0  0  0  0  0  0  0  0  0  0  0  0
   36.1730   29.6910   45.0750 N   0  0  0  0  0  0  0  0  0  0  0  0
   39.3000   31.8110   45.4060 H   0  0  0  0  0  0  0  0  0  0  0  0
   37.0270   29.1120   43.2420 H   0  0  0  0  0  0  0  0  0  0  0  0
   35.1880   30.5220   47.2090 C   0  0  0  0  0  0  0  0  0  0  0  0
   33.9720   29.7720   47.0370 C   0  0  0  0  0  0  0  0  0  0  0  0
   35.0220   29.1810   47.9420 C   0  0  0  0  0  0  0  0  0  0  0  0
   35.3070   31.3470   47.9440 H   0  0  0  0  0  0  0  0  0  0  0  0
   33.8590   29.1800   46.0810 H   0  0  0  0  0  0  0  0  0  0  0  0
   33.0380   30.0500   47.5500 H   0  0  0  0  0  0  0  0  0  0  0  0
   34.8830   29.2640   49.0340 H   0  0  0  0  0  0  0  0  0  0  0  0
   35.6380   28.3430   47.6060 H   0  0  0  0  0  0  0  0  0  0  0  0
   37.7220   31.3840   48.9480 C   0  0  2  0  0  3  0  0  0  0  0  0
   37.5950   32.1120   47.6240 C   0  0  1  0  0  3  0  0  0  0  0  0
   39.0200   32.7040   47.6220 C   0  0  0  0  0  3  0  0  0  0  0  0
   39.7190   31.8370   47.6410 H   0  0  0  0  0  0  0  0  0  0  0  0
   39.1400   33.2630   48.9010 O   0  0  0  0  0  0  0  0  0  0  0  0
   38.3660   32.4970   49.7560 C   0  0  0  0  0  3  0  0  0  0  0  0
   38.8890   32.1160   50.6440 H   0  0  0  0  0  0  0  0  0  0  0  0
   38.5710   30.3070   48.8580 O   0  0  0  0  0  0  0  0  0  0  0  0
   38.1830   29.5610   49.4120 H   0  0  0  0  0  0  0  0  0  0  0  0
  1  2  1  0  0  0  0
  1  9  1  0  0  0  0
  3  2  2  0  0  0  0
  4  3  1  0  0  0  0
  5  4  2  0  0  0  0
  5  6  1  0  0  0  0
  6  1  2  0  0  0  0
  7  3  1  0  0  0  0
  8  5  1  0  0  0  0
  9 11  1  0  0  0  0
  9 12  1  0  0  0  0
 10  9  1  0  0  0  0
 10 14  1  0  0  0  0
 10 11  1  0  0  0  0
 11 15  1  0  0  0  0
 13 10  1  0  0  0  0
 16 11  1  0  0  0  0
 17 24  1  6  0  0  0
 17 22  1  0  0  0  0
 18  2  1  6  0  0  0
 18 17  1  0  0  0  0
 19 18  1  0  0  0  0
 19 20  1  0  0  0  0
 19 21  1  0  0  0  0
 21 22  1  0  0  0  0
 22 23  1  0  0  0  0
 24 25  1  0  0  0  0
M  END
>  <minimizedAffinity>
-3.56387901

>  <minimizedRMSD>
3.76732779

$$$$
