
 OpenBabel03272504023D

 41 44  0  0  1  0  0  0  0  0999 V2000
   34.3760   29.4400   48.3080 C   0  0  0  0  0  0  0  0  0  0  0  0
   33.6930   30.3390   48.2900 H   0  0  0  0  0  0  0  0  0  0  0  0
   33.9770   28.7810   49.0720 H   0  0  0  0  0  0  0  0  0  0  0  0
   35.7100   29.9710   48.6370 C   0  0  0  0  0  0  0  0  0  0  0  0
   36.5320   29.3700   49.6000 C   0  0  0  0  0  0  0  0  0  0  0  0
   37.6850   30.1010   49.6620 C   0  0  0  0  0  0  0  0  0  0  0  0
   37.5730   31.1030   48.7790 N   0  0  0  0  0  0  0  0  0  0  0  0
   36.4000   30.9930   48.1970 N   0  0  0  0  0  0  0  0  0  0  0  0
   36.3170   28.4890   50.1970 H   0  0  0  0  0  0  0  0  0  0  0  0
   38.5690   29.9700   50.2760 H   0  0  0  0  0  0  0  0  0  0  0  0
   38.4500   32.1550   48.4200 C   0  0  0  0  0  0  0  0  0  0  0  0
   38.6560   33.1250   49.3650 C   0  0  0  0  0  0  0  0  0  0  0  0
   39.4860   34.2340   49.1860 C   0  0  0  0  0  0  0  0  0  0  0  0
   40.1250   34.3160   47.9510 C   0  0  0  0  0  0  0  0  0  0  0  0
   39.9310   33.3550   46.9920 C   0  0  0  0  0  0  0  0  0  0  0  0
   39.1030   32.2700   47.1970 C   0  0  0  0  0  0  0  0  0  0  0  0
   38.1750   33.0920   50.3390 H   0  0  0  0  0  0  0  0  0  0  0  0
   39.6290   34.9840   49.9530 H   0  0  0  0  0  0  0  0  0  0  0  0
   40.7810   35.1330   47.7240 H   0  0  0  0  0  0  0  0  0  0  0  0
   40.3820   33.3360   46.0070 H   0  0  0  0  0  0  0  0  0  0  0  0
   38.9050   31.4850   46.5010 H   0  0  0  0  0  0  0  0  0  0  0  0
   34.2980   28.8120   46.9660 C   0  0  0  0  0  0  0  0  0  0  0  0
   35.2300   28.2000   46.8400 H   0  0  0  0  0  0  0  0  0  0  0  0
   33.4840   28.0420   47.0060 H   0  0  0  0  0  0  0  0  0  0  0  0
   34.0160   29.6640   45.8450 C   0  0  0  0  0  0  0  0  0  0  0  0
   32.7730   30.1960   45.6600 C   0  0  0  0  0  0  0  0  0  0  0  0
   32.5000   31.0350   44.5570 C   0  0  0  0  0  0  0  0  0  0  0  0
   33.5550   31.2690   43.7000 N   0  0  0  0  0  0  0  0  0  0  0  0
   34.7690   30.7220   43.9200 C   0  0  0  0  0  0  0  0  0  0  0  0
   34.9750   29.9290   44.9890 N   0  0  0  0  0  0  0  0  0  0  0  0
   31.9560   29.9950   46.3530 H   0  0  0  0  0  0  0  0  0  0  0  0
   31.5160   31.4580   44.4080 H   0  0  0  0  0  0  0  0  0  0  0  0
   36.3550   32.4280   43.0080 C   0  0  2  0  0  0  0  0  0  0  0  0
   35.8940   30.9960   42.9710 C   0  0  1  0  0  0  0  0  0  0  0  0
   37.1060   30.2380   43.4380 C   0  0  0  0  0  0  0  0  0  0  0  0
   36.9520   29.8360   44.4740 H   0  0  0  0  0  0  0  0  0  0  0  0
   38.1560   31.1630   43.4750 O   0  0  0  0  0  0  0  0  0  0  0  0
   37.5450   32.3440   43.9250 C   0  0  0  0  0  0  0  0  0  0  0  0
   37.2360   32.2650   44.9820 H   0  0  0  0  0  0  0  0  0  0  0  0
   35.4040   33.3280   43.4250 O   0  0  0  0  0  0  0  0  0  0  0  0
   35.1590   34.0020   42.7210 H   0  0  0  0  0  0  0  0  0  0  0  0
  1  4  1  0  0  0  0
  1  3  1  0  0  0  0
  2  1  1  0  0  0  0
  4  5  1  0  0  0  0
  5  6  2  0  0  0  0
  5  9  1  0  0  0  0
  6 10  1  0  0  0  0
  7  6  1  0  0  0  0
  8  4  2  0  0  0  0
  8  7  1  0  0  0  0
 11  7  1  0  0  0  0
 11 12  1  0  0  0  0
 12 17  1  0  0  0  0
 13 12  2  0  0  0  0
 13 18  1  0  0  0  0
 14 13  1  0  0  0  0
 15 16  1  0  0  0  0
 15 14  2  0  0  0  0
 16 11  2  0  0  0  0
 19 14  1  0  0  0  0
 20 15  1  0  0  0  0
 21 16  1  0  0  0  0
 22 24  1  0  0  0  0
 22  1  1  0  0  0  0
 23 22  1  0  0  0  0
 25 22  1  0  0  0  0
 26 25  1  0  0  0  0
 26 31  1  0  0  0  0
 27 26  2  0  0  0  0
 28 29  2  0  0  0  0
 28 27  1  0  0  0  0
 29 30  1  0  0  0  0
 30 25  2  0  0  0  0
 32 27  1  0  0  0  0
 33 40  1  1  0  0  0
 33 38  1  0  0  0  0
 34 33  1  0  0  0  0
 34 35  1  0  0  0  0
 34 29  1  1  0  0  0
 35 37  1  0  0  0  0
 35 36  1  0  0  0  0
 37 38  1  0  0  0  0
 38 39  1  0  0  0  0
 41 40  1  0  0  0  0
M  END
>  <minimizedAffinity>
-6.15495539

>  <minimizedRMSD>
0.573141694

$$$$
