
 OpenBabel03272502323D

 27 28  0  0  1  0  0  0  0  0999 V2000
   37.9850   30.1720   46.8500 C   0  0  2  0  0  0  0  0  0  0  0  0
   38.0500   29.0920   47.1160 H   0  0  0  0  0  0  0  0  0  0  0  0
   38.2250   32.8760   49.4370 C   0  0  2  0  0  3  0  0  0  0  0  0
   37.8960   32.4440   47.9910 C   0  0  0  0  0  3  0  0  0  0  0  0
   36.8140   32.4490   47.8240 H   0  0  0  0  0  0  0  0  0  0  0  0
   38.4280   31.0600   47.9680 C   0  0  1  0  0  3  0  0  0  0  0  0
   38.0160   30.5740   49.2340 O   0  0  0  0  0  0  0  0  0  0  0  0
   38.5720   31.5400   50.0910 C   0  0  0  0  0  3  0  0  0  0  0  0
   39.6850   31.3540   50.1010 H   0  0  0  0  0  0  0  0  0  0  0  0
   37.0700   33.4030   50.0320 O   0  0  0  0  0  0  0  0  0  0  0  0
   36.8690   32.8750   50.8780 H   0  0  0  0  0  0  0  0  0  0  0  0
   38.3360   30.2800   44.4900 C   0  0  0  0  0  3  0  0  0  0  0  0
   38.8350   30.4890   45.6680 C   0  0  0  0  0  3  0  0  0  0  0  0
   40.8550   29.9210   41.7570 C   0  0  0  0  0  0  0  0  0  0  0  0
   40.1010   29.7210   42.9080 C   0  0  0  0  0  0  0  0  0  0  0  0
   39.0620   30.5490   43.2710 C   0  0  0  0  0  0  0  0  0  0  0  0
   38.7940   31.5820   42.4580 N   0  0  0  0  0  0  0  0  0  0  0  0
   39.5340   31.7660   41.3440 C   0  0  0  0  0  0  0  0  0  0  0  0
   40.5390   30.9750   40.9870 N   0  0  0  0  0  0  0  0  0  0  0  0
   41.6800   29.2740   41.4610 H   0  0  0  0  0  0  0  0  0  0  0  0
   40.4460   28.8320   43.4650 H   0  0  0  0  0  0  0  0  0  0  0  0
   39.3400   32.5920   40.6680 H   0  0  0  0  0  0  0  0  0  0  0  0
   36.2660   30.6230   46.4420 S   0  0  0  0  0  0  0  0  0  0  0  0
   35.1350   30.0250   47.7060 C   0  0  0  0  0  0  0  0  0  0  0  0
   35.0040   30.9130   48.7690 F   0  0  0  0  0  0  0  0  0  0  0  0
   33.9110   29.6750   47.1740 F   0  0  0  0  0  0  0  0  0  0  0  0
   35.6850   28.8270   48.2160 F   0  0  0  0  0  0  0  0  0  0  0  0
  1  2  1  1  0  0  0
  3 10  1  1  0  0  0
  3  8  1  0  0  0  0
  4  3  1  0  0  0  0
  5  4  1  0  0  0  0
  6  1  1  6  0  0  0
  6  4  1  0  0  0  0
  6  7  1  0  0  0  0
  7  8  1  0  0  0  0
  8  9  1  0  0  0  0
 10 11  1  0  0  0  0
 12 13  2  0  0  0  0
 13  1  1  0  0  0  0
 14 15  1  0  0  0  0
 15 16  2  0  0  0  0
 15 21  1  0  0  0  0
 16 12  1  0  0  0  0
 17 16  1  0  0  0  0
 18 17  2  0  0  0  0
 19 18  1  0  0  0  0
 19 14  2  0  0  0  0
 20 14  1  0  0  0  0
 22 18  1  0  0  0  0
 23  1  1  0  0  0  0
 23 24  1  0  0  0  0
 24 27  1  0  0  0  0
 24 25  1  0  0  0  0
 26 24  1  0  0  0  0
M  END
>  <minimizedAffinity>
-4.00769567

>  <minimizedRMSD>
3.90237689

$$$$
