
 OpenBabel03272500483D

 39 43  0  0  1  0  0  0  0  0999 V2000
   33.0120   30.1370   46.3590 C   0  0  1  0  0  0  0  0  0  0  0  0
   33.5190   28.6720   46.4950 C   0  0  0  0  0  0  0  0  0  0  0  0
   34.1330   29.6310   45.5420 C   0  0  2  0  0  0  0  0  0  0  0  0
   33.2870   30.8070   47.2000 H   0  0  0  0  0  0  0  0  0  0  0  0
   32.8230   27.8830   46.1450 H   0  0  0  0  0  0  0  0  0  0  0  0
   34.0220   28.4260   47.4580 H   0  0  0  0  0  0  0  0  0  0  0  0
   33.9270   29.4730   44.4860 H   0  0  0  0  0  0  0  0  0  0  0  0
   29.6190   29.8660   45.1710 C   0  0  0  0  0  0  0  0  0  0  0  0
   29.9890   31.0720   44.5980 C   0  0  0  0  0  0  0  0  0  0  0  0
   31.3190   31.3460   44.9630 C   0  0  0  0  0  0  0  0  0  0  0  0
   31.7110   30.3140   45.7350 N   0  0  0  0  0  0  0  0  0  0  0  0
   30.6990   29.4740   45.8350 N   0  0  0  0  0  0  0  0  0  0  0  0
   29.4340   31.7650   43.9630 H   0  0  0  0  0  0  0  0  0  0  0  0
   31.9210   32.2010   44.6920 H   0  0  0  0  0  0  0  0  0  0  0  0
   27.6020   29.3240   43.7830 C   0  0  0  0  0  0  0  0  0  0  0  0
   28.3200   29.2720   45.0090 C   0  0  0  0  0  0  0  0  0  0  0  0
   27.7220   28.6160   46.0810 C   0  0  0  0  0  0  0  0  0  0  0  0
   26.4870   28.0630   45.8960 N   0  0  0  0  0  0  0  0  0  0  0  0
   25.8420   28.1370   44.7090 C   0  0  0  0  0  0  0  0  0  0  0  0
   26.4030   28.7720   43.6440 N   0  0  0  0  0  0  0  0  0  0  0  0
   28.0910   29.8370   42.9760 H   0  0  0  0  0  0  0  0  0  0  0  0
   28.2480   28.5630   47.0250 H   0  0  0  0  0  0  0  0  0  0  0  0
   24.8650   27.6970   44.5670 H   0  0  0  0  0  0  0  0  0  0  0  0
   35.5100   30.1410   45.8240 C   0  0  0  0  0  0  0  0  0  0  0  0
   36.4310   30.5230   44.8340 C   0  0  0  0  0  0  0  0  0  0  0  0
   37.5670   30.9300   45.4230 N   0  0  0  0  0  0  0  0  0  0  0  0
   37.3810   30.8110   46.7620 C   0  0  0  0  0  0  0  0  0  0  0  0
   36.1480   30.3390   47.0040 N   0  0  0  0  0  0  0  0  0  0  0  0
   36.3130   30.5180   43.7580 H   0  0  0  0  0  0  0  0  0  0  0  0
   38.4480   31.2770   44.9840 H   0  0  0  0  0  0  0  0  0  0  0  0
   38.3210   32.6150   48.1850 C   0  0  1  0  0  0  0  0  0  0  0  0
   38.2900   31.1130   47.8810 C   0  0  1  0  0  0  0  0  0  0  0  0
   37.8320   30.5620   49.1900 C   0  0  0  0  0  0  0  0  0  0  0  0
   36.7290   30.3600   49.0990 H   0  0  0  0  0  0  0  0  0  0  0  0
   37.9550   31.5490   50.1560 O   0  0  0  0  0  0  0  0  0  0  0  0
   38.7830   32.5340   49.6380 C   0  0  0  0  0  0  0  0  0  0  0  0
   38.6330   33.5030   50.1090 H   0  0  0  0  0  0  0  0  0  0  0  0
   39.2320   33.2850   47.3860 O   0  0  0  0  0  0  0  0  0  0  0  0
   39.5960   32.6060   46.7420 H   0  0  0  0  0  0  0  0  0  0  0  0
  1  2  1  0  0  0  0
  1  4  1  1  0  0  0
  2  6  1  0  0  0  0
  3  7  1  6  0  0  0
  3 24  1  0  0  0  0
  3  1  1  0  0  0  0
  3  2  1  0  0  0  0
  5  2  1  0  0  0  0
  8 12  2  0  0  0  0
  9 10  2  0  0  0  0
  9  8  1  0  0  0  0
 10 11  1  0  0  0  0
 11 12  1  0  0  0  0
 11  1  1  0  0  0  0
 13  9  1  0  0  0  0
 14 10  1  0  0  0  0
 15 16  1  0  0  0  0
 16  8  1  0  0  0  0
 16 17  2  0  0  0  0
 17 22  1  0  0  0  0
 18 17  1  0  0  0  0
 19 18  2  0  0  0  0
 20 15  2  0  0  0  0
 20 19  1  0  0  0  0
 21 15  1  0  0  0  0
 23 19  1  0  0  0  0
 24 28  1  0  0  0  0
 25 26  1  0  0  0  0
 25 24  2  0  0  0  0
 26 27  1  0  0  0  0
 27 28  2  0  0  0  0
 29 25  1  0  0  0  0
 30 26  1  0  0  0  0
 31 38  1  6  0  0  0
 31 36  1  0  0  0  0
 32 27  1  6  0  0  0
 32 31  1  0  0  0  0
 32 33  1  0  0  0  0
 33 35  1  0  0  0  0
 34 33  1  0  0  0  0
 36 37  1  0  0  0  0
 36 35  1  0  0  0  0
 39 38  1  0  0  0  0
M  END
>  <minimizedAffinity>
-5.152215

>  <minimizedRMSD>
4.7223568

$$$$
