
 OpenBabel03272504333D

 40 43  0  0  1  0  0  0  0  0999 V2000
   34.9030   29.5430   47.5310 C   0  0  0  0  0  0  0  0  0  0  0  0
   35.0510   29.9070   46.1930 C   0  0  0  0  0  0  0  0  0  0  0  0
   33.9950   29.7300   45.3160 C   0  0  0  0  0  0  0  0  0  0  0  0
   32.8340   29.1960   45.8120 N   0  0  0  0  0  0  0  0  0  0  0  0
   32.7250   28.8540   47.1150 C   0  0  0  0  0  0  0  0  0  0  0  0
   33.7550   29.0270   47.9720 N   0  0  0  0  0  0  0  0  0  0  0  0
   35.9890   30.3210   45.8680 H   0  0  0  0  0  0  0  0  0  0  0  0
   34.0910   30.0020   44.2900 H   0  0  0  0  0  0  0  0  0  0  0  0
   35.9620   29.7040   48.4820 N   0  0  0  0  0  0  0  0  0  0  0  0
   36.0790   28.8450   49.6490 C   0  0  0  0  0  0  0  0  0  0  0  0
   36.4060   29.5590   50.9180 C   0  0  0  0  0  0  0  0  0  0  0  0
   37.1170   30.7740   50.8390 N   0  0  0  0  0  0  0  0  0  0  0  0
   36.7930   31.5640   49.6600 C   0  0  0  0  0  0  0  0  0  0  0  0
   37.0050   30.6540   48.4650 C   0  0  0  0  0  0  0  0  0  0  0  0
   35.1150   28.2860   49.7700 H   0  0  0  0  0  0  0  0  0  0  0  0
   36.8230   28.0590   49.4090 H   0  0  0  0  0  0  0  0  0  0  0  0
   35.4480   29.6990   51.4940 H   0  0  0  0  0  0  0  0  0  0  0  0
   37.0040   28.8370   51.5500 H   0  0  0  0  0  0  0  0  0  0  0  0
   36.8360   31.3740   51.6720 H   0  0  0  0  0  0  0  0  0  0  0  0
   37.5930   32.3500   49.5780 H   0  0  0  0  0  0  0  0  0  0  0  0
   35.8120   32.0340   49.6840 H   0  0  0  0  0  0  0  0  0  0  0  0
   37.0290   31.2400   47.5100 H   0  0  0  0  0  0  0  0  0  0  0  0
   37.9870   30.1760   48.5870 H   0  0  0  0  0  0  0  0  0  0  0  0
   31.4740   28.2910   47.6020 C   0  0  0  0  0  0  0  0  0  0  0  0
   31.4360   27.5760   48.7810 C   0  0  0  0  0  0  0  0  0  0  0  0
   30.2760   27.0160   49.2960 C   0  0  0  0  0  0  0  0  0  0  0  0
   29.1540   27.2180   48.5500 N   0  0  0  0  0  0  0  0  0  0  0  0
   29.2040   27.9100   47.4110 C   0  0  0  0  0  0  0  0  0  0  0  0
   30.3420   28.4610   46.9040 N   0  0  0  0  0  0  0  0  0  0  0  0
   32.3710   27.4700   49.3000 H   0  0  0  0  0  0  0  0  0  0  0  0
   30.3630   26.4760   50.2280 H   0  0  0  0  0  0  0  0  0  0  0  0
   27.6390   29.5190   46.4510 C   0  0  1  0  0  3  0  0  0  0  0  0
   27.8870   28.0300   46.7300 C   0  0  2  0  0  3  0  0  0  0  0  0
   26.7420   27.7520   47.6720 C   0  0  0  0  0  3  0  0  0  0  0  0
   27.0010   26.8720   48.2980 H   0  0  0  0  0  0  0  0  0  0  0  0
   26.5740   28.8990   48.4280 O   0  0  0  0  0  0  0  0  0  0  0  0
   27.0720   29.9810   47.7490 C   0  0  0  0  0  3  0  0  0  0  0  0
   27.8520   30.4950   48.3650 H   0  0  0  0  0  0  0  0  0  0  0  0
   28.8220   30.1500   46.0980 O   0  0  0  0  0  0  0  0  0  0  0  0
   29.0510   29.8850   45.1750 H   0  0  0  0  0  0  0  0  0  0  0  0
  1  6  1  0  0  0  0
  1  9  1  0  0  0  0
  2  1  2  0  0  0  0
  3  4  2  0  0  0  0
  3  2  1  0  0  0  0
  4  5  1  0  0  0  0
  5 24  1  0  0  0  0
  5  6  2  0  0  0  0
  7  2  1  0  0  0  0
  8  3  1  0  0  0  0
  9 10  1  0  0  0  0
 10 15  1  0  0  0  0
 10 11  1  0  0  0  0
 11 17  1  0  0  0  0
 11 18  1  0  0  0  0
 12 11  1  0  0  0  0
 12 19  1  0  0  0  0
 13 21  1  0  0  0  0
 13 12  1  0  0  0  0
 14  9  1  0  0  0  0
 14 23  1  0  0  0  0
 14 13  1  0  0  0  0
 16 10  1  0  0  0  0
 20 13  1  0  0  0  0
 22 14  1  0  0  0  0
 24 25  1  0  0  0  0
 25 26  2  0  0  0  0
 25 30  1  0  0  0  0
 26 31  1  0  0  0  0
 27 26  1  0  0  0  0
 28 27  2  0  0  0  0
 29 28  1  0  0  0  0
 29 24  2  0  0  0  0
 32 39  1  1  0  0  0
 32 33  1  0  0  0  0
 32 37  1  0  0  0  0
 33 28  1  1  0  0  0
 33 34  1  0  0  0  0
 34 35  1  0  0  0  0
 34 36  1  0  0  0  0
 37 38  1  0  0  0  0
 37 36  1  0  0  0  0
 40 39  1  0  0  0  0
M  END
>  <minimizedAffinity>
-5.5515995

>  <minimizedRMSD>
0.350110888

$$$$
