
 OpenBabel03272505053D

 45 48  0  0  1  0  0  0  0  0999 V2000
   38.4490   26.1860   34.2550 C   0  0  2  0  0  0  0  0  0  0  0  0
   38.1380   27.5190   35.0090 C   0  0  0  0  0  0  0  0  0  0  0  0
   36.6580   27.7470   34.9200 C   0  0  0  0  0  0  0  0  0  0  0  0
   36.3310   28.2170   33.5260 C   0  0  0  0  0  0  0  0  0  0  0  0
   37.3790   27.7030   32.5970 C   0  0  0  0  0  0  0  0  0  0  0  0
   37.7750   26.2820   32.9460 C   0  0  2  0  0  0  0  0  0  0  0  0
   39.5610   26.1990   34.2670 H   0  0  0  0  0  0  0  0  0  0  0  0
   38.4330   27.3110   36.0730 H   0  0  0  0  0  0  0  0  0  0  0  0
   38.7370   28.3410   34.6330 H   0  0  0  0  0  0  0  0  0  0  0  0
   36.2910   28.4490   35.6980 H   0  0  0  0  0  0  0  0  0  0  0  0
   36.0660   26.8130   34.9220 H   0  0  0  0  0  0  0  0  0  0  0  0
   35.2940   28.0530   33.2120 H   0  0  0  0  0  0  0  0  0  0  0  0
   36.4520   29.3400   33.5290 H   0  0  0  0  0  0  0  0  0  0  0  0
   38.2950   28.3750   32.6530 H   0  0  0  0  0  0  0  0  0  0  0  0
   37.1040   27.7430   31.5320 H   0  0  0  0  0  0  0  0  0  0  0  0
   38.6570   26.1440   32.2100 H   0  0  0  0  0  0  0  0  0  0  0  0
   36.4280   25.5520   31.0370 C   0  0  2  0  0  3  0  0  0  0  0  0
   36.7390   25.3690   32.5150 C   0  0  1  0  0  3  0  0  0  0  0  0
   37.0210   23.9100   32.3980 C   0  0  0  0  0  3  0  0  0  0  0  0
   37.9780   23.5890   32.0430 H   0  0  0  0  0  0  0  0  0  0  0  0
   35.8860   23.4120   31.8270 O   0  0  0  0  0  0  0  0  0  0  0  0
   35.5710   24.2890   30.8180 C   0  0  0  0  0  3  0  0  0  0  0  0
   34.4950   24.5500   30.7740 H   0  0  0  0  0  0  0  0  0  0  0  0
   37.5760   25.5040   30.2820 O   0  0  0  0  0  0  0  0  0  0  0  0
   37.5750   24.7540   29.6270 H   0  0  0  0  0  0  0  0  0  0  0  0
   37.9530   25.2250   35.0460 O   0  0  0  0  0  0  0  0  0  0  0  0
   40.5120   24.1040   34.2480 Cl  0  0  0  0  0  0  0  0  0  0  0  0
   39.7690   23.8710   35.8070 C   0  0  0  0  0  0  0  0  0  0  0  0
   40.4360   23.1080   36.7210 C   0  0  0  0  0  0  0  0  0  0  0  0
   39.8070   22.9510   37.9540 C   0  0  0  0  0  0  0  0  0  0  0  0
   38.5850   23.5510   38.1880 C   0  0  0  0  0  0  0  0  0  0  0  0
   37.9500   24.3120   37.2350 C   0  0  0  0  0  0  0  0  0  0  0  0
   38.5610   24.4690   36.0270 C   0  0  0  0  0  0  0  0  0  0  0  0
   40.2920   22.3520   38.7240 H   0  0  0  0  0  0  0  0  0  0  0  0
   38.0880   23.4260   39.1620 H   0  0  0  0  0  0  0  0  0  0  0  0
   36.9940   24.7860   37.4040 H   0  0  0  0  0  0  0  0  0  0  0  0
   41.8440   21.0810   36.3240 C   0  0  0  0  0  0  0  0  0  0  0  0
   41.7310   22.4630   36.4850 C   0  0  0  0  0  0  0  0  0  0  0  0
   42.8980   23.2190   36.4140 C   0  0  0  0  0  0  0  0  0  0  0  0
   44.0720   22.5800   36.1940 N   0  0  0  0  0  0  0  0  0  0  0  0
   44.1490   21.2650   36.0450 C   0  0  0  0  0  0  0  0  0  0  0  0
   43.0420   20.5050   36.1080 N   0  0  0  0  0  0  0  0  0  0  0  0
   40.9070   20.5570   36.3900 H   0  0  0  0  0  0  0  0  0  0  0  0
   42.8830   24.2990   36.5300 H   0  0  0  0  0  0  0  0  0  0  0  0
   45.0500   20.6930   35.8670 H   0  0  0  0  0  0  0  0  0  0  0  0
  1  7  1  6  0  0  0
  1  2  1  0  0  0  0
  1 26  1  0  0  0  0
  2  8  1  0  0  0  0
  3 11  1  0  0  0  0
  3  2  1  0  0  0  0
  3 10  1  0  0  0  0
  4 13  1  0  0  0  0
  4  3  1  0  0  0  0
  5 14  1  0  0  0  0
  5  6  1  0  0  0  0
  5  4  1  0  0  0  0
  6 16  1  6  0  0  0
  6  1  1  0  0  0  0
  9  2  1  0  0  0  0
 12  4  1  0  0  0  0
 15  5  1  0  0  0  0
 17 24  1  6  0  0  0
 17 18  1  0  0  0  0
 18 19  1  6  0  0  0
 18  6  1  0  0  0  0
 20 19  1  0  0  0  0
 21 19  1  0  0  0  0
 22 17  1  0  0  0  0
 22 21  1  0  0  0  0
 23 22  1  0  0  0  0
 25 24  1  0  0  0  0
 26 33  1  0  0  0  0
 27 28  1  0  0  0  0
 28 33  2  0  0  0  0
 28 29  1  0  0  0  0
 29 30  2  0  0  0  0
 30 31  1  0  0  0  0
 30 34  1  0  0  0  0
 31 35  1  0  0  0  0
 32 36  1  0  0  0  0
 32 31  2  0  0  0  0
 33 32  1  0  0  0  0
 37 43  1  0  0  0  0
 37 38  1  0  0  0  0
 38 29  1  0  0  0  0
 39 38  2  0  0  0  0
 39 44  1  0  0  0  0
 40 39  1  0  0  0  0
 41 42  1  0  0  0  0
 41 40  2  0  0  0  0
 42 37  2  0  0  0  0
 45 41  1  0  0  0  0
M  END
>  <minimizedAffinity>
-6.11608982

$$$$

 OpenBabel03272505053D

 45 48  0  0  1  0  0  0  0  0999 V2000
   34.4060   31.1450   33.9680 C   0  0  2  0  0  0  0  0  0  0  0  0
   35.6950   31.8930   34.4390 C   0  0  0  0  0  0  0  0  0  0  0  0
   36.0300   31.3860   35.8110 C   0  0  0  0  0  0  0  0  0  0  0  0
   35.0650   31.9960   36.7930 C   0  0  0  0  0  0  0  0  0  0  0  0
   33.8040   32.3350   36.0700 C   0  0  0  0  0  0  0  0  0  0  0  0
   33.4350   31.2540   35.0740 C   0  0  2  0  0  0  0  0  0  0  0  0
   34.1830   31.6950   33.0270 H   0  0  0  0  0  0  0  0  0  0  0  0
   36.4840   31.5740   33.7060 H   0  0  0  0  0  0  0  0  0  0  0  0
   35.5770   32.9700   34.3810 H   0  0  0  0  0  0  0  0  0  0  0  0
   37.0890   31.5760   36.0850 H   0  0  0  0  0  0  0  0  0  0  0  0
   35.7690   30.3220   35.9630 H   0  0  0  0  0  0  0  0  0  0  0  0
   34.9420   31.4410   37.7300 H   0  0  0  0  0  0  0  0  0  0  0  0
   35.5100   32.9860   37.1080 H   0  0  0  0  0  0  0  0  0  0  0  0
   33.9380   33.3240   35.5230 H   0  0  0  0  0  0  0  0  0  0  0  0
   32.9400   32.5250   36.7240 H   0  0  0  0  0  0  0  0  0  0  0  0
   32.5380   31.7700   34.5560 H   0  0  0  0  0  0  0  0  0  0  0  0
   31.7420   30.5150   36.6790 C   0  0  2  0  0  3  0  0  0  0  0  0
   32.8960   30.1090   35.7750 C   0  0  1  0  0  3  0  0  0  0  0  0
   32.1160   29.0740   35.0410 C   0  0  0  0  0  3  0  0  0  0  0  0
   31.4580   29.3760   34.2520 H   0  0  0  0  0  0  0  0  0  0  0  0
   31.6510   28.2630   36.0350 O   0  0  0  0  0  0  0  0  0  0  0  0
   31.2020   29.1110   37.0170 C   0  0  0  0  0  3  0  0  0  0  0  0
   31.5080   28.8110   38.0390 H   0  0  0  0  0  0  0  0  0  0  0  0
   30.8060   31.2470   35.9850 O   0  0  0  0  0  0  0  0  0  0  0  0
   29.9130   30.8060   35.9610 H   0  0  0  0  0  0  0  0  0  0  0  0
   34.8100   29.8910   33.7280 O   0  0  0  0  0  0  0  0  0  0  0  0
   36.6310   27.8280   34.6620 Cl  0  0  0  0  0  0  0  0  0  0  0  0
   36.5470   28.4110   33.0210 C   0  0  0  0  0  0  0  0  0  0  0  0
   37.3980   27.8600   32.1080 C   0  0  0  0  0  0  0  0  0  0  0  0
   37.2950   28.3540   30.8090 C   0  0  0  0  0  0  0  0  0  0  0  0
   36.3740   29.3400   30.5150 C   0  0  0  0  0  0  0  0  0  0  0  0
   35.5370   29.8660   31.4710 C   0  0  0  0  0  0  0  0  0  0  0  0
   35.6330   29.3860   32.7430 C   0  0  0  0  0  0  0  0  0  0  0  0
   37.9480   27.9520   30.0360 H   0  0  0  0  0  0  0  0  0  0  0  0
   36.2930   29.7300   29.4890 H   0  0  0  0  0  0  0  0  0  0  0  0
   34.8120   30.6380   31.2550 H   0  0  0  0  0  0  0  0  0  0  0  0
   39.6830   27.1270   32.8090 C   0  0  0  0  0  0  0  0  0  0  0  0
   38.3830   26.8170   32.4050 C   0  0  0  0  0  0  0  0  0  0  0  0
   38.0450   25.4700   32.2940 C   0  0  0  0  0  0  0  0  0  0  0  0
   38.9880   24.5400   32.5810 N   0  0  0  0  0  0  0  0  0  0  0  0
   40.2150   24.8650   32.9610 C   0  0  0  0  0  0  0  0  0  0  0  0
   40.5750   26.1550   33.0790 N   0  0  0  0  0  0  0  0  0  0  0  0
   39.8780   28.1830   32.8740 H   0  0  0  0  0  0  0  0  0  0  0  0
   37.0520   25.1570   31.9860 H   0  0  0  0  0  0  0  0  0  0  0  0
   41.0140   24.1760   33.2040 H   0  0  0  0  0  0  0  0  0  0  0  0
  1  7  1  6  0  0  0
  1  2  1  0  0  0  0
  1  6  1  0  0  0  0
  2  3  1  0  0  0  0
  3 11  1  0  0  0  0
  3 10  1  0  0  0  0
  3  4  1  0  0  0  0
  4 13  1  0  0  0  0
  4 12  1  0  0  0  0
  5 15  1  0  0  0  0
  5  4  1  0  0  0  0
  6 16  1  6  0  0  0
  6 18  1  0  0  0  0
  6  5  1  0  0  0  0
  8  2  1  0  0  0  0
  9  2  1  0  0  0  0
 14  5  1  0  0  0  0
 17 24  1  6  0  0  0
 17 22  1  0  0  0  0
 18 19  1  6  0  0  0
 18 17  1  0  0  0  0
 19 21  1  0  0  0  0
 20 19  1  0  0  0  0
 21 22  1  0  0  0  0
 22 23  1  0  0  0  0
 25 24  1  0  0  0  0
 26  1  1  0  0  0  0
 28 27  1  0  0  0  0
 29 38  1  0  0  0  0
 29 28  2  0  0  0  0
 30 29  1  0  0  0  0
 31 30  2  0  0  0  0
 31 32  1  0  0  0  0
 32 33  2  0  0  0  0
 33 28  1  0  0  0  0
 33 26  1  0  0  0  0
 34 30  1  0  0  0  0
 35 31  1  0  0  0  0
 36 32  1  0  0  0  0
 37 43  1  0  0  0  0
 37 42  1  0  0  0  0
 38 37  2  0  0  0  0
 39 38  1  0  0  0  0
 39 40  2  0  0  0  0
 40 41  1  0  0  0  0
 41 42  2  0  0  0  0
 41 45  1  0  0  0  0
 44 39  1  0  0  0  0
M  END
>  <minimizedAffinity>
-5.67460394

$$$$

 OpenBabel03272505053D

 45 48  0  0  1  0  0  0  0  0999 V2000
   38.8300   22.8820   34.8840 C   0  0  2  0  0  0  0  0  0  0  0  0
   37.8690   22.5280   36.0660 C   0  0  0  0  0  0  0  0  0  0  0  0
   38.1820   23.4670   37.1930 C   0  0  0  0  0  0  0  0  0  0  0  0
   39.4710   23.0280   37.8350 C   0  0  0  0  0  0  0  0  0  0  0  0
   40.2790   22.2910   36.8200 C   0  0  0  0  0  0  0  0  0  0  0  0
   40.1860   22.9520   35.4590 C   0  0  2  0  0  0  0  0  0  0  0  0
   38.6060   22.0490   34.1820 H   0  0  0  0  0  0  0  0  0  0  0  0
   36.8420   22.7380   35.6610 H   0  0  0  0  0  0  0  0  0  0  0  0
   37.9330   21.4780   36.3310 H   0  0  0  0  0  0  0  0  0  0  0  0
   37.3500   23.5410   37.9250 H   0  0  0  0  0  0  0  0  0  0  0  0
   38.4990   24.4710   36.8550 H   0  0  0  0  0  0  0  0  0  0  0  0
   40.0040   23.8090   38.3900 H   0  0  0  0  0  0  0  0  0  0  0  0
   39.1950   22.2620   38.6190 H   0  0  0  0  0  0  0  0  0  0  0  0
   39.9020   21.2190   36.7450 H   0  0  0  0  0  0  0  0  0  0  0  0
   41.3400   22.1660   37.0830 H   0  0  0  0  0  0  0  0  0  0  0  0
   40.7560   22.1670   34.8270 H   0  0  0  0  0  0  0  0  0  0  0  0
   42.4610   23.8230   35.6960 C   0  0  2  0  0  3  0  0  0  0  0  0
   40.9970   24.1500   35.4440 C   0  0  1  0  0  3  0  0  0  0  0  0
   41.2530   24.8710   34.1660 C   0  0  0  0  0  3  0  0  0  0  0  0
   41.3970   24.3080   33.2670 H   0  0  0  0  0  0  0  0  0  0  0  0
   42.1610   25.8270   34.5180 O   0  0  0  0  0  0  0  0  0  0  0  0
   43.0760   25.1850   35.3160 C   0  0  0  0  0  3  0  0  0  0  0  0
   43.3530   25.7560   36.2240 H   0  0  0  0  0  0  0  0  0  0  0  0
   42.8990   22.8330   34.8470 O   0  0  0  0  0  0  0  0  0  0  0  0
   43.6360   23.1350   34.2500 H   0  0  0  0  0  0  0  0  0  0  0  0
   38.3800   24.0570   34.4230 O   0  0  0  0  0  0  0  0  0  0  0  0
   38.0810   26.9040   33.9250 Cl  0  0  0  0  0  0  0  0  0  0  0  0
   37.3750   25.6450   32.9480 C   0  0  0  0  0  0  0  0  0  0  0  0
   36.6270   26.0220   31.8700 C   0  0  0  0  0  0  0  0  0  0  0  0
   36.0840   24.9830   31.1160 C   0  0  0  0  0  0  0  0  0  0  0  0
   36.3180   23.6710   31.4780 C   0  0  0  0  0  0  0  0  0  0  0  0
   37.0790   23.3400   32.5750 C   0  0  0  0  0  0  0  0  0  0  0  0
   37.6120   24.3510   33.3150 C   0  0  0  0  0  0  0  0  0  0  0  0
   35.4780   25.2230   30.2440 H   0  0  0  0  0  0  0  0  0  0  0  0
   35.8880   22.8510   30.8830 H   0  0  0  0  0  0  0  0  0  0  0  0
   37.2690   22.3170   32.8690 H   0  0  0  0  0  0  0  0  0  0  0  0
   35.4710   28.2170   32.1780 C   0  0  0  0  0  0  0  0  0  0  0  0
   36.3680   27.4100   31.4770 C   0  0  0  0  0  0  0  0  0  0  0  0
   37.0190   27.9690   30.3800 C   0  0  0  0  0  0  0  0  0  0  0  0
   36.7490   29.2560   30.0530 N   0  0  0  0  0  0  0  0  0  0  0  0
   35.8900   29.9980   30.7380 C   0  0  0  0  0  0  0  0  0  0  0  0
   35.2450   29.4910   31.8020 N   0  0  0  0  0  0  0  0  0  0  0  0
   35.0030   27.7250   33.0120 H   0  0  0  0  0  0  0  0  0  0  0  0
   37.7300   27.3990   29.7890 H   0  0  0  0  0  0  0  0  0  0  0  0
   35.6290   31.0280   30.5320 H   0  0  0  0  0  0  0  0  0  0  0  0
  1  7  1  6  0  0  0
  1  6  1  0  0  0  0
  1  2  1  0  0  0  0
  2  9  1  0  0  0  0
  2  3  1  0  0  0  0
  3  4  1  0  0  0  0
  3 10  1  0  0  0  0
  4 12  1  0  0  0  0
  4 13  1  0  0  0  0
  5 15  1  0  0  0  0
  5  4  1  0  0  0  0
  6 16  1  6  0  0  0
  6  5  1  0  0  0  0
  8  2  1  0  0  0  0
 11  3  1  0  0  0  0
 14  5  1  0  0  0  0
 17 24  1  6  0  0  0
 18 19  1  6  0  0  0
 18  6  1  0  0  0  0
 18 17  1  0  0  0  0
 19 21  1  0  0  0  0
 20 19  1  0  0  0  0
 21 22  1  0  0  0  0
 22 17  1  0  0  0  0
 22 23  1  0  0  0  0
 25 24  1  0  0  0  0
 26  1  1  0  0  0  0
 28 33  1  0  0  0  0
 28 27  1  0  0  0  0
 29 28  2  0  0  0  0
 30 31  2  0  0  0  0
 30 29  1  0  0  0  0
 31 32  1  0  0  0  0
 32 36  1  0  0  0  0
 32 33  2  0  0  0  0
 33 26  1  0  0  0  0
 34 30  1  0  0  0  0
 35 31  1  0  0  0  0
 37 43  1  0  0  0  0
 38 29  1  0  0  0  0
 38 37  2  0  0  0  0
 39 38  1  0  0  0  0
 40 39  2  0  0  0  0
 40 41  1  0  0  0  0
 41 42  2  0  0  0  0
 42 37  1  0  0  0  0
 44 39  1  0  0  0  0
 45 41  1  0  0  0  0
M  END
>  <minimizedAffinity>
-5.63464308

$$$$

 OpenBabel03272505053D

 45 48  0  0  1  0  0  0  0  0999 V2000
   35.9150   27.7900   31.6240 C   0  0  2  0  0  0  0  0  0  0  0  0
   36.7040   27.8860   30.2780 C   0  0  0  0  0  0  0  0  0  0  0  0
   37.7570   28.9390   30.4520 C   0  0  0  0  0  0  0  0  0  0  0  0
   37.0940   30.2900   30.4010 C   0  0  0  0  0  0  0  0  0  0  0  0
   35.6730   30.1360   30.8290 C   0  0  0  0  0  0  0  0  0  0  0  0
   35.5510   29.1710   31.9920 C   0  0  2  0  0  0  0  0  0  0  0  0
   35.0940   27.0980   31.3310 H   0  0  0  0  0  0  0  0  0  0  0  0
   37.1830   26.8760   30.1650 H   0  0  0  0  0  0  0  0  0  0  0  0
   36.0410   28.0560   29.4370 H   0  0  0  0  0  0  0  0  0  0  0  0
   38.5780   28.8440   29.7100 H   0  0  0  0  0  0  0  0  0  0  0  0
   38.1610   28.9930   31.4810 H   0  0  0  0  0  0  0  0  0  0  0  0
   37.6510   31.1010   30.8840 H   0  0  0  0  0  0  0  0  0  0  0  0
   37.0520   30.5860   29.3100 H   0  0  0  0  0  0  0  0  0  0  0  0
   35.0550   29.7520   29.9540 H   0  0  0  0  0  0  0  0  0  0  0  0
   35.1710   31.0790   31.0960 H   0  0  0  0  0  0  0  0  0  0  0  0
   34.3980   29.1060   32.0650 H   0  0  0  0  0  0  0  0  0  0  0  0
   35.2740   31.1350   33.4260 C   0  0  2  0  0  3  0  0  0  0  0  0
   35.9990   29.8160   33.2070 C   0  0  1  0  0  3  0  0  0  0  0  0
   35.6320   29.2540   34.5380 C   0  0  0  0  0  3  0  0  0  0  0  0
   34.6610   28.8250   34.6750 H   0  0  0  0  0  0  0  0  0  0  0  0
   36.0850   30.1960   35.4150 O   0  0  0  0  0  0  0  0  0  0  0  0
   35.7070   31.4030   34.8820 C   0  0  0  0  0  3  0  0  0  0  0  0
   36.5020   32.1740   34.9170 H   0  0  0  0  0  0  0  0  0  0  0  0
   33.9110   30.9680   33.3430 O   0  0  0  0  0  0  0  0  0  0  0  0
   33.4420   31.1990   34.1900 H   0  0  0  0  0  0  0  0  0  0  0  0
   36.7700   27.2130   32.4790 O   0  0  0  0  0  0  0  0  0  0  0  0
   38.0780   26.7100   35.0240 Cl  0  0  0  0  0  0  0  0  0  0  0  0
   37.6620   25.4800   33.8610 C   0  0  0  0  0  0  0  0  0  0  0  0
   37.9720   24.1870   34.1660 C   0  0  0  0  0  0  0  0  0  0  0  0
   37.6190   23.2370   33.2090 C   0  0  0  0  0  0  0  0  0  0  0  0
   36.9970   23.6310   32.0410 C   0  0  0  0  0  0  0  0  0  0  0  0
   36.7050   24.9490   31.7770 C   0  0  0  0  0  0  0  0  0  0  0  0
   37.0470   25.8810   32.7090 C   0  0  0  0  0  0  0  0  0  0  0  0
   37.8410   22.1880   33.3980 H   0  0  0  0  0  0  0  0  0  0  0  0
   36.7180   22.8810   31.2850 H   0  0  0  0  0  0  0  0  0  0  0  0
   36.2180   25.2700   30.8670 H   0  0  0  0  0  0  0  0  0  0  0  0
   37.9580   23.6990   36.6180 C   0  0  0  0  0  0  0  0  0  0  0  0
   38.6360   23.7550   35.3990 C   0  0  0  0  0  0  0  0  0  0  0  0
   39.9780   23.3820   35.3890 C   0  0  0  0  0  0  0  0  0  0  0  0
   40.5500   22.9890   36.5530 N   0  0  0  0  0  0  0  0  0  0  0  0
   39.8800   22.9460   37.6950 C   0  0  0  0  0  0  0  0  0  0  0  0
   38.5840   23.2990   37.7420 N   0  0  0  0  0  0  0  0  0  0  0  0
   36.9260   23.9990   36.5560 H   0  0  0  0  0  0  0  0  0  0  0  0
   40.5660   23.4020   34.4760 H   0  0  0  0  0  0  0  0  0  0  0  0
   40.2740   22.6430   38.6570 H   0  0  0  0  0  0  0  0  0  0  0  0
  1  7  1  6  0  0  0
  1  6  1  0  0  0  0
  1 26  1  0  0  0  0
  2  3  1  0  0  0  0
  2  1  1  0  0  0  0
  3 11  1  0  0  0  0
  4  3  1  0  0  0  0
  4  5  1  0  0  0  0
  4 12  1  0  0  0  0
  5 15  1  0  0  0  0
  5  6  1  0  0  0  0
  6 16  1  1  0  0  0
  6 18  1  0  0  0  0
  8  2  1  0  0  0  0
  9  2  1  0  0  0  0
 10  3  1  0  0  0  0
 13  4  1  0  0  0  0
 14  5  1  0  0  0  0
 17 24  1  1  0  0  0
 17 22  1  0  0  0  0
 18 17  1  0  0  0  0
 18 19  1  1  0  0  0
 19 20  1  0  0  0  0
 19 21  1  0  0  0  0
 22 23  1  0  0  0  0
 22 21  1  0  0  0  0
 24 25  1  0  0  0  0
 26 33  1  0  0  0  0
 28 29  1  0  0  0  0
 28 27  1  0  0  0  0
 29 38  1  0  0  0  0
 30 34  1  0  0  0  0
 30 29  2  0  0  0  0
 31 30  1  0  0  0  0
 32 31  2  0  0  0  0
 32 33  1  0  0  0  0
 33 28  2  0  0  0  0
 35 31  1  0  0  0  0
 36 32  1  0  0  0  0
 37 42  1  0  0  0  0
 38 37  2  0  0  0  0
 39 38  1  0  0  0  0
 39 40  2  0  0  0  0
 40 41  1  0  0  0  0
 41 42  2  0  0  0  0
 41 45  1  0  0  0  0
 43 37  1  0  0  0  0
 44 39  1  0  0  0  0
M  END
>  <minimizedAffinity>
-5.49721384

$$$$

 OpenBabel03272505053D

 45 48  0  0  1  0  0  0  0  0999 V2000
   33.9970   29.4140   34.0140 C   0  0  2  0  0  0  0  0  0  0  0  0
   32.8630   29.3440   32.9410 C   0  0  0  0  0  0  0  0  0  0  0  0
   32.5530   30.7520   32.5260 C   0  0  0  0  0  0  0  0  0  0  0  0
   31.7590   31.4080   33.6240 C   0  0  0  0  0  0  0  0  0  0  0  0
   32.0890   30.7360   34.9140 C   0  0  0  0  0  0  0  0  0  0  0  0
   33.5690   30.4190   35.0050 C   0  0  2  0  0  0  0  0  0  0  0  0
   34.0380   28.3510   34.3390 H   0  0  0  0  0  0  0  0  0  0  0  0
   33.3260   28.7820   32.0850 H   0  0  0  0  0  0  0  0  0  0  0  0
   32.0050   28.7880   33.3020 H   0  0  0  0  0  0  0  0  0  0  0  0
   32.0350   30.7990   31.5440 H   0  0  0  0  0  0  0  0  0  0  0  0
   33.4350   31.4200   32.5380 H   0  0  0  0  0  0  0  0  0  0  0  0
   31.7980   32.5030   33.6350 H   0  0  0  0  0  0  0  0  0  0  0  0
   30.6730   31.1660   33.4240 H   0  0  0  0  0  0  0  0  0  0  0  0
   31.4910   29.7710   35.0010 H   0  0  0  0  0  0  0  0  0  0  0  0
   31.7900   31.2980   35.8120 H   0  0  0  0  0  0  0  0  0  0  0  0
   33.5720   29.8060   35.9870 H   0  0  0  0  0  0  0  0  0  0  0  0
   33.7280   32.3670   36.4790 C   0  0  2  0  0  3  0  0  0  0  0  0
   34.3090   31.6310   35.2810 C   0  0  1  0  0  3  0  0  0  0  0  0
   35.6880   31.5620   35.8410 C   0  0  0  0  0  3  0  0  0  0  0  0
   35.9240   30.8050   36.5600 H   0  0  0  0  0  0  0  0  0  0  0  0
   35.9890   32.8650   36.1080 O   0  0  0  0  0  0  0  0  0  0  0  0
   34.8660   33.3820   36.7070 C   0  0  0  0  0  3  0  0  0  0  0  0
   34.5790   34.3830   36.3280 H   0  0  0  0  0  0  0  0  0  0  0  0
   33.5970   31.5250   37.5590 O   0  0  0  0  0  0  0  0  0  0  0  0
   34.1440   31.8130   38.3400 H   0  0  0  0  0  0  0  0  0  0  0  0
   35.0920   29.7680   33.3280 O   0  0  0  0  0  0  0  0  0  0  0  0
   36.8410   28.2000   35.0390 Cl  0  0  0  0  0  0  0  0  0  0  0  0
   36.8990   28.2050   33.2970 C   0  0  0  0  0  0  0  0  0  0  0  0
   37.8330   27.4170   32.6910 C   0  0  0  0  0  0  0  0  0  0  0  0
   37.8430   27.4500   31.2980 C   0  0  0  0  0  0  0  0  0  0  0  0
   36.9430   28.2480   30.6190 C   0  0  0  0  0  0  0  0  0  0  0  0
   36.0190   29.0280   31.2740 C   0  0  0  0  0  0  0  0  0  0  0  0
   36.0050   28.9980   32.6370 C   0  0  0  0  0  0  0  0  0  0  0  0
   38.5660   26.8410   30.7580 H   0  0  0  0  0  0  0  0  0  0  0  0
   36.9500   28.2740   29.5190 H   0  0  0  0  0  0  0  0  0  0  0  0
   35.3090   29.6570   30.7560 H   0  0  0  0  0  0  0  0  0  0  0  0
   40.0330   27.0570   33.8220 C   0  0  0  0  0  0  0  0  0  0  0  0
   38.7970   26.5680   33.3970 C   0  0  0  0  0  0  0  0  0  0  0  0
   38.5020   25.2350   33.6690 C   0  0  0  0  0  0  0  0  0  0  0  0
   39.4230   24.4880   34.3260 N   0  0  0  0  0  0  0  0  0  0  0  0
   40.5900   24.9810   34.7170 C   0  0  0  0  0  0  0  0  0  0  0  0
   40.9070   26.2640   34.4710 N   0  0  0  0  0  0  0  0  0  0  0  0
   40.1980   28.0930   33.5810 H   0  0  0  0  0  0  0  0  0  0  0  0
   37.5590   24.7880   33.3680 H   0  0  0  0  0  0  0  0  0  0  0  0
   41.3680   24.4430   35.2430 H   0  0  0  0  0  0  0  0  0  0  0  0
  1  7  1  1  0  0  0
  1  6  1  0  0  0  0
  2  9  1  0  0  0  0
  2  1  1  0  0  0  0
  3 11  1  0  0  0  0
  3  2  1  0  0  0  0
  3  4  1  0  0  0  0
  4 12  1  0  0  0  0
  4  5  1  0  0  0  0
  5 14  1  0  0  0  0
  5  6  1  0  0  0  0
  5 15  1  0  0  0  0
  6 18  1  0  0  0  0
  6 16  1  1  0  0  0
  8  2  1  0  0  0  0
 10  3  1  0  0  0  0
 13  4  1  0  0  0  0
 17 22  1  0  0  0  0
 17 24  1  1  0  0  0
 18 19  1  1  0  0  0
 18 17  1  0  0  0  0
 19 21  1  0  0  0  0
 19 20  1  0  0  0  0
 21 22  1  0  0  0  0
 23 22  1  0  0  0  0
 24 25  1  0  0  0  0
 26  1  1  0  0  0  0
 28 27  1  0  0  0  0
 29 28  1  0  0  0  0
 29 38  1  0  0  0  0
 30 29  2  0  0  0  0
 31 32  2  0  0  0  0
 31 30  1  0  0  0  0
 32 33  1  0  0  0  0
 33 28  2  0  0  0  0
 33 26  1  0  0  0  0
 34 30  1  0  0  0  0
 35 31  1  0  0  0  0
 36 32  1  0  0  0  0
 37 42  1  0  0  0  0
 38 39  1  0  0  0  0
 38 37  2  0  0  0  0
 39 40  2  0  0  0  0
 40 41  1  0  0  0  0
 41 45  1  0  0  0  0
 42 41  2  0  0  0  0
 43 37  1  0  0  0  0
 44 39  1  0  0  0  0
M  END
>  <minimizedAffinity>
-5.42173958

$$$$

 OpenBabel03272505053D

 45 48  0  0  1  0  0  0  0  0999 V2000
   39.0590   25.6900   30.6060 C   0  0  2  0  0  0  0  0  0  0  0  0
   40.5690   25.5290   30.9810 C   0  0  0  0  0  0  0  0  0  0  0  0
   40.9710   26.7550   31.7460 C   0  0  0  0  0  0  0  0  0  0  0  0
   41.1190   27.8970   30.7740 C   0  0  0  0  0  0  0  0  0  0  0  0
   40.2490   27.6280   29.5930 C   0  0  0  0  0  0  0  0  0  0  0  0
   38.9190   27.0330   30.0140 C   0  0  2  0  0  0  0  0  0  0  0  0
   38.9200   24.8110   29.9380 H   0  0  0  0  0  0  0  0  0  0  0  0
   40.5930   24.6290   31.6530 H   0  0  0  0  0  0  0  0  0  0  0  0
   41.1790   25.3310   30.1070 H   0  0  0  0  0  0  0  0  0  0  0  0
   41.8890   26.5940   32.3500 H   0  0  0  0  0  0  0  0  0  0  0  0
   40.1590   27.1730   32.3690 H   0  0  0  0  0  0  0  0  0  0  0  0
   41.0280   28.8960   31.2140 H   0  0  0  0  0  0  0  0  0  0  0  0
   42.1800   27.8530   30.3870 H   0  0  0  0  0  0  0  0  0  0  0  0
   40.7790   26.9060   28.8900 H   0  0  0  0  0  0  0  0  0  0  0  0
   40.0600   28.5040   28.9550 H   0  0  0  0  0  0  0  0  0  0  0  0
   38.4800   26.7910   28.9700 H   0  0  0  0  0  0  0  0  0  0  0  0
   37.6700   29.0780   29.5150 C   0  0  2  0  0  3  0  0  0  0  0  0
   38.0810   28.0680   30.5770 C   0  0  1  0  0  3  0  0  0  0  0  0
   36.6840   27.7620   30.9980 C   0  0  0  0  0  3  0  0  0  0  0  0
   36.1000   27.0790   30.4160 H   0  0  0  0  0  0  0  0  0  0  0  0
   36.1730   28.9860   31.3180 O   0  0  0  0  0  0  0  0  0  0  0  0
   36.5800   29.8250   30.3100 C   0  0  0  0  0  3  0  0  0  0  0  0
   36.9600   30.8020   30.6700 H   0  0  0  0  0  0  0  0  0  0  0  0
   37.1310   28.4480   28.4180 O   0  0  0  0  0  0  0  0  0  0  0  0
   36.1850   28.7080   28.2500 H   0  0  0  0  0  0  0  0  0  0  0  0
   38.4050   25.5430   31.7660 O   0  0  0  0  0  0  0  0  0  0  0  0
   39.0160   25.8810   34.5860 Cl  0  0  0  0  0  0  0  0  0  0  0  0
   38.4090   24.4120   33.8710 C   0  0  0  0  0  0  0  0  0  0  0  0
   38.2050   23.3420   34.6930 C   0  0  0  0  0  0  0  0  0  0  0  0
   37.7160   22.1910   34.0790 C   0  0  0  0  0  0  0  0  0  0  0  0
   37.4690   22.1830   32.7200 C   0  0  0  0  0  0  0  0  0  0  0  0
   37.6910   23.2870   31.9310 C   0  0  0  0  0  0  0  0  0  0  0  0
   38.1690   24.4160   32.5260 C   0  0  0  0  0  0  0  0  0  0  0  0
   37.5330   21.3050   34.6860 H   0  0  0  0  0  0  0  0  0  0  0  0
   37.0840   21.2730   32.2360 H   0  0  0  0  0  0  0  0  0  0  0  0
   37.5030   23.2940   30.8670 H   0  0  0  0  0  0  0  0  0  0  0  0
   37.5370   23.8300   37.0520 C   0  0  0  0  0  0  0  0  0  0  0  0
   38.4650   23.3350   36.1350 C   0  0  0  0  0  0  0  0  0  0  0  0
   39.6600   22.8260   36.6370 C   0  0  0  0  0  0  0  0  0  0  0  0
   39.8580   22.8380   37.9780 N   0  0  0  0  0  0  0  0  0  0  0  0
   38.9570   23.3160   38.8240 C   0  0  0  0  0  0  0  0  0  0  0  0
   37.7930   23.8150   38.3750 N   0  0  0  0  0  0  0  0  0  0  0  0
   36.6370   24.2080   36.6000 H   0  0  0  0  0  0  0  0  0  0  0  0
   40.4270   22.4240   35.9810 H   0  0  0  0  0  0  0  0  0  0  0  0
   39.0510   23.3560   39.9020 H   0  0  0  0  0  0  0  0  0  0  0  0
  1  7  1  6  0  0  0
  1  2  1  0  0  0  0
  1 26  1  0  0  0  0
  2  8  1  0  0  0  0
  2  3  1  0  0  0  0
  3 10  1  0  0  0  0
  3 11  1  0  0  0  0
  4 12  1  0  0  0  0
  4  3  1  0  0  0  0
  5  6  1  0  0  0  0
  5  4  1  0  0  0  0
  6 16  1  6  0  0  0
  6 18  1  0  0  0  0
  6  1  1  0  0  0  0
  9  2  1  0  0  0  0
 13  4  1  0  0  0  0
 14  5  1  0  0  0  0
 15  5  1  0  0  0  0
 17 24  1  6  0  0  0
 17 22  1  0  0  0  0
 17 18  1  0  0  0  0
 18 19  1  6  0  0  0
 19 21  1  0  0  0  0
 20 19  1  0  0  0  0
 22 23  1  0  0  0  0
 22 21  1  0  0  0  0
 25 24  1  0  0  0  0
 26 33  1  0  0  0  0
 28 27  1  0  0  0  0
 28 29  1  0  0  0  0
 29 38  1  0  0  0  0
 30 34  1  0  0  0  0
 30 29  2  0  0  0  0
 31 30  1  0  0  0  0
 32 33  1  0  0  0  0
 32 31  2  0  0  0  0
 33 28  2  0  0  0  0
 35 31  1  0  0  0  0
 36 32  1  0  0  0  0
 37 42  1  0  0  0  0
 38 39  1  0  0  0  0
 38 37  2  0  0  0  0
 39 40  2  0  0  0  0
 40 41  1  0  0  0  0
 41 45  1  0  0  0  0
 42 41  2  0  0  0  0
 43 37  1  0  0  0  0
 44 39  1  0  0  0  0
M  END
>  <minimizedAffinity>
-5.41661978

$$$$

 OpenBabel03272505053D

 45 48  0  0  1  0  0  0  0  0999 V2000
   34.0350   29.2740   34.2810 C   0  0  2  0  0  0  0  0  0  0  0  0
   32.9640   29.1630   33.1470 C   0  0  0  0  0  0  0  0  0  0  0  0
   32.8770   30.5040   32.4810 C   0  0  0  0  0  0  0  0  0  0  0  0
   32.1210   31.4390   33.3890 C   0  0  0  0  0  0  0  0  0  0  0  0
   32.2830   30.9660   34.7950 C   0  0  0  0  0  0  0  0  0  0  0  0
   33.6960   30.4840   35.0540 C   0  0  2  0  0  0  0  0  0  0  0  0
   33.9090   28.2880   34.7790 H   0  0  0  0  0  0  0  0  0  0  0  0
   33.3910   28.4060   32.4360 H   0  0  0  0  0  0  0  0  0  0  0  0
   32.0180   28.7930   33.5260 H   0  0  0  0  0  0  0  0  0  0  0  0
   32.4260   30.4450   31.4680 H   0  0  0  0  0  0  0  0  0  0  0  0
   33.8410   31.0460   32.4520 H   0  0  0  0  0  0  0  0  0  0  0  0
   32.3120   32.5050   33.2210 H   0  0  0  0  0  0  0  0  0  0  0  0
   31.0250   31.3060   33.1470 H   0  0  0  0  0  0  0  0  0  0  0  0
   31.5520   30.1160   34.9930 H   0  0  0  0  0  0  0  0  0  0  0  0
   32.0150   31.7100   35.5610 H   0  0  0  0  0  0  0  0  0  0  0  0
   33.5590   30.0570   36.1210 H   0  0  0  0  0  0  0  0  0  0  0  0
   34.0990   32.5710   36.2690 C   0  0  2  0  0  3  0  0  0  0  0  0
   34.5810   31.6210   35.1820 C   0  0  1  0  0  3  0  0  0  0  0  0
   35.9430   31.4540   35.7650 C   0  0  0  0  0  3  0  0  0  0  0  0
   36.0840   30.7730   36.5790 H   0  0  0  0  0  0  0  0  0  0  0  0
   36.4030   32.7350   35.8680 O   0  0  0  0  0  0  0  0  0  0  0  0
   35.3540   33.4590   36.3800 C   0  0  0  0  0  3  0  0  0  0  0  0
   35.1930   34.4300   35.8720 H   0  0  0  0  0  0  0  0  0  0  0  0
   33.8670   31.8970   37.4450 O   0  0  0  0  0  0  0  0  0  0  0  0
   34.4470   32.2140   38.1910 H   0  0  0  0  0  0  0  0  0  0  0  0
   35.2050   29.3600   33.6340 O   0  0  0  0  0  0  0  0  0  0  0  0
   36.2910   28.7510   31.0090 Cl  0  0  0  0  0  0  0  0  0  0  0  0
   36.9360   28.1530   32.5130 C   0  0  0  0  0  0  0  0  0  0  0  0
   38.0300   27.3390   32.4560 C   0  0  0  0  0  0  0  0  0  0  0  0
   38.5130   26.8860   33.6820 C   0  0  0  0  0  0  0  0  0  0  0  0
   37.8880   27.2650   34.8540 C   0  0  0  0  0  0  0  0  0  0  0  0
   36.7860   28.0880   34.8620 C   0  0  0  0  0  0  0  0  0  0  0  0
   36.3100   28.5340   33.6660 C   0  0  0  0  0  0  0  0  0  0  0  0
   39.3850   26.2340   33.6990 H   0  0  0  0  0  0  0  0  0  0  0  0
   38.2700   26.9070   35.8220 H   0  0  0  0  0  0  0  0  0  0  0  0
   36.2880   28.3920   35.7710 H   0  0  0  0  0  0  0  0  0  0  0  0
   38.5310   25.6480   30.6850 C   0  0  0  0  0  0  0  0  0  0  0  0
   38.7000   26.9250   31.2200 C   0  0  0  0  0  0  0  0  0  0  0  0
   39.5340   27.8070   30.5370 C   0  0  0  0  0  0  0  0  0  0  0  0
   40.1330   27.3810   29.3970 N   0  0  0  0  0  0  0  0  0  0  0  0
   39.9530   26.1600   28.9140 C   0  0  0  0  0  0  0  0  0  0  0  0
   39.1540   25.2840   29.5470 N   0  0  0  0  0  0  0  0  0  0  0  0
   37.8750   25.0180   31.2600 H   0  0  0  0  0  0  0  0  0  0  0  0
   39.7110   28.8160   30.8960 H   0  0  0  0  0  0  0  0  0  0  0  0
   40.3980   25.7570   28.0130 H   0  0  0  0  0  0  0  0  0  0  0  0
  1  7  1  1  0  0  0
  1  6  1  0  0  0  0
  2  9  1  0  0  0  0
  2  1  1  0  0  0  0
  3  2  1  0  0  0  0
  3  4  1  0  0  0  0
  4  5  1  0  0  0  0
  5 14  1  0  0  0  0
  5  6  1  0  0  0  0
  5 15  1  0  0  0  0
  6 18  1  0  0  0  0
  6 16  1  1  0  0  0
  8  2  1  0  0  0  0
 10  3  1  0  0  0  0
 11  3  1  0  0  0  0
 12  4  1  0  0  0  0
 13  4  1  0  0  0  0
 17 22  1  0  0  0  0
 17 24  1  1  0  0  0
 18 19  1  1  0  0  0
 18 17  1  0  0  0  0
 19 21  1  0  0  0  0
 19 20  1  0  0  0  0
 21 22  1  0  0  0  0
 23 22  1  0  0  0  0
 24 25  1  0  0  0  0
 26 33  1  0  0  0  0
 26  1  1  0  0  0  0
 27 28  1  0  0  0  0
 28 33  1  0  0  0  0
 29 28  2  0  0  0  0
 29 30  1  0  0  0  0
 30 34  1  0  0  0  0
 30 31  2  0  0  0  0
 31 32  1  0  0  0  0
 31 35  1  0  0  0  0
 32 36  1  0  0  0  0
 33 32  2  0  0  0  0
 37 38  1  0  0  0  0
 37 43  1  0  0  0  0
 38 29  1  0  0  0  0
 39 44  1  0  0  0  0
 39 38  2  0  0  0  0
 40 39  1  0  0  0  0
 41 40  2  0  0  0  0
 41 42  1  0  0  0  0
 42 37  2  0  0  0  0
 45 41  1  0  0  0  0
M  END
>  <minimizedAffinity>
-5.35711527

$$$$

 OpenBabel03272505053D

 45 48  0  0  1  0  0  0  0  0999 V2000
   38.3510   27.2020   31.7860 C   0  0  2  0  0  0  0  0  0  0  0  0
   39.4430   27.7840   30.8300 C   0  0  0  0  0  0  0  0  0  0  0  0
   39.2550   27.1370   29.4900 C   0  0  0  0  0  0  0  0  0  0  0  0
   39.7760   25.7260   29.5650 C   0  0  0  0  0  0  0  0  0  0  0  0
   39.6920   25.2650   30.9810 C   0  0  0  0  0  0  0  0  0  0  0  0
   38.4090   25.7350   31.6370 C   0  0  2  0  0  0  0  0  0  0  0  0
   38.6750   27.6370   32.7560 H   0  0  0  0  0  0  0  0  0  0  0  0
   39.2010   28.8790   30.7680 H   0  0  0  0  0  0  0  0  0  0  0  0
   40.4390   27.6680   31.2440 H   0  0  0  0  0  0  0  0  0  0  0  0
   39.7270   27.7180   28.6700 H   0  0  0  0  0  0  0  0  0  0  0  0
   38.1980   26.9110   29.2540 H   0  0  0  0  0  0  0  0  0  0  0  0
   39.3650   25.0390   28.8160 H   0  0  0  0  0  0  0  0  0  0  0  0
   40.8790   25.7780   29.3260 H   0  0  0  0  0  0  0  0  0  0  0  0
   40.5830   25.6690   31.5620 H   0  0  0  0  0  0  0  0  0  0  0  0
   39.7790   24.1760   31.1130 H   0  0  0  0  0  0  0  0  0  0  0  0
   38.6130   25.3910   32.7230 H   0  0  0  0  0  0  0  0  0  0  0  0
   37.4440   23.4860   31.5880 C   0  0  2  0  0  3  0  0  0  0  0  0
   37.2990   24.9390   31.1610 C   0  0  1  0  0  3  0  0  0  0  0  0
   35.9430   25.1040   31.7550 C   0  0  0  0  0  3  0  0  0  0  0  0
   35.8500   25.2880   32.8050 H   0  0  0  0  0  0  0  0  0  0  0  0
   35.2190   24.1010   31.1790 O   0  0  0  0  0  0  0  0  0  0  0  0
   36.0280   22.9920   31.2310 C   0  0  0  0  0  3  0  0  0  0  0  0
   36.0440   22.4080   30.2890 H   0  0  0  0  0  0  0  0  0  0  0  0
   37.6700   23.3910   32.9420 O   0  0  0  0  0  0  0  0  0  0  0  0
   36.9540   22.8880   33.4170 H   0  0  0  0  0  0  0  0  0  0  0  0
   37.2020   27.7410   31.3560 O   0  0  0  0  0  0  0  0  0  0  0  0
   36.2520   28.1760   34.0660 Cl  0  0  0  0  0  0  0  0  0  0  0  0
   36.1750   29.3560   32.7860 C   0  0  0  0  0  0  0  0  0  0  0  0
   35.6290   30.5720   33.0750 C   0  0  0  0  0  0  0  0  0  0  0  0
   35.5900   31.4850   32.0220 C   0  0  0  0  0  0  0  0  0  0  0  0
   36.0860   31.1320   30.7820 C   0  0  0  0  0  0  0  0  0  0  0  0
   36.6270   29.8910   30.5380 C   0  0  0  0  0  0  0  0  0  0  0  0
   36.6670   28.9950   31.5640 C   0  0  0  0  0  0  0  0  0  0  0  0
   35.1660   32.4730   32.1930 H   0  0  0  0  0  0  0  0  0  0  0  0
   36.0550   31.8530   29.9510 H   0  0  0  0  0  0  0  0  0  0  0  0
   37.0180   29.6020   29.5730 H   0  0  0  0  0  0  0  0  0  0  0  0
   33.7620   30.7370   34.7290 C   0  0  0  0  0  0  0  0  0  0  0  0
   35.0960   30.9600   34.3840 C   0  0  0  0  0  0  0  0  0  0  0  0
   35.9150   31.5670   35.3320 C   0  0  0  0  0  0  0  0  0  0  0  0
   35.3790   31.9070   36.5300 N   0  0  0  0  0  0  0  0  0  0  0  0
   34.1080   31.6830   36.8280 C   0  0  0  0  0  0  0  0  0  0  0  0
   33.2880   31.1000   35.9370 N   0  0  0  0  0  0  0  0  0  0  0  0
   33.1840   30.2660   33.9530 H   0  0  0  0  0  0  0  0  0  0  0  0
   36.9630   31.7700   35.1310 H   0  0  0  0  0  0  0  0  0  0  0  0
   33.6170   31.9290   37.7610 H   0  0  0  0  0  0  0  0  0  0  0  0
  1  7  1  1  0  0  0
  2  9  1  0  0  0  0
  2  1  1  0  0  0  0
  3  4  1  0  0  0  0
  3  2  1  0  0  0  0
  4  5  1  0  0  0  0
  5 15  1  0  0  0  0
  5 14  1  0  0  0  0
  5  6  1  0  0  0  0
  6  1  1  0  0  0  0
  6 16  1  1  0  0  0
  8  2  1  0  0  0  0
 10  3  1  0  0  0  0
 11  3  1  0  0  0  0
 12  4  1  0  0  0  0
 13  4  1  0  0  0  0
 17 24  1  1  0  0  0
 18 17  1  0  0  0  0
 18  6  1  0  0  0  0
 18 19  1  1  0  0  0
 19 20  1  0  0  0  0
 21 22  1  0  0  0  0
 21 19  1  0  0  0  0
 22 17  1  0  0  0  0
 23 22  1  0  0  0  0
 24 25  1  0  0  0  0
 26 33  1  0  0  0  0
 26  1  1  0  0  0  0
 28 29  1  0  0  0  0
 28 27  1  0  0  0  0
 29 38  1  0  0  0  0
 30 34  1  0  0  0  0
 30 29  2  0  0  0  0
 31 30  1  0  0  0  0
 32 31  2  0  0  0  0
 32 33  1  0  0  0  0
 33 28  2  0  0  0  0
 35 31  1  0  0  0  0
 36 32  1  0  0  0  0
 37 42  1  0  0  0  0
 38 37  2  0  0  0  0
 38 39  1  0  0  0  0
 39 40  2  0  0  0  0
 40 41  1  0  0  0  0
 41 45  1  0  0  0  0
 42 41  2  0  0  0  0
 43 37  1  0  0  0  0
 44 39  1  0  0  0  0
M  END
>  <minimizedAffinity>
-5.2350316

$$$$

 OpenBabel03272505053D

 45 48  0  0  1  0  0  0  0  0999 V2000
   34.9590   32.1200   34.0530 C   0  0  2  0  0  0  0  0  0  0  0  0
   35.8120   32.7190   35.2180 C   0  0  0  0  0  0  0  0  0  0  0  0
   35.5330   31.9000   36.4430 C   0  0  0  0  0  0  0  0  0  0  0  0
   34.1730   32.2760   36.9680 C   0  0  0  0  0  0  0  0  0  0  0  0
   33.3530   32.7910   35.8330 C   0  0  0  0  0  0  0  0  0  0  0  0
   33.5860   31.9790   34.5750 C   0  0  2  0  0  0  0  0  0  0  0  0
   35.1360   32.8780   33.2580 H   0  0  0  0  0  0  0  0  0  0  0  0
   36.8750   32.5710   34.8870 H   0  0  0  0  0  0  0  0  0  0  0  0
   35.6290   33.7810   35.3420 H   0  0  0  0  0  0  0  0  0  0  0  0
   36.3270   32.0070   37.2130 H   0  0  0  0  0  0  0  0  0  0  0  0
   35.3370   30.8340   36.2260 H   0  0  0  0  0  0  0  0  0  0  0  0
   33.6920   31.5180   37.5970 H   0  0  0  0  0  0  0  0  0  0  0  0
   34.3270   33.1590   37.6570 H   0  0  0  0  0  0  0  0  0  0  0  0
   33.6230   33.8790   35.6360 H   0  0  0  0  0  0  0  0  0  0  0  0
   32.2710   32.8340   36.0330 H   0  0  0  0  0  0  0  0  0  0  0  0
   32.9770   32.6130   33.8230 H   0  0  0  0  0  0  0  0  0  0  0  0
   31.4450   30.9040   35.0750 C   0  0  2  0  0  3  0  0  0  0  0  0
   32.9020   30.7090   34.6820 C   0  0  1  0  0  3  0  0  0  0  0  0
   32.5910   29.9140   33.4600 C   0  0  0  0  0  3  0  0  0  0  0  0
   32.3020   30.4230   32.5640 H   0  0  0  0  0  0  0  0  0  0  0  0
   31.8230   28.8900   33.9340 O   0  0  0  0  0  0  0  0  0  0  0  0
   30.9340   29.4740   34.8030 C   0  0  0  0  0  3  0  0  0  0  0  0
   30.8080   28.9170   35.7530 H   0  0  0  0  0  0  0  0  0  0  0  0
   30.8270   31.8110   34.2460 O   0  0  0  0  0  0  0  0  0  0  0  0
   30.0680   31.4150   33.7380 H   0  0  0  0  0  0  0  0  0  0  0  0
   35.5480   30.9510   33.7680 O   0  0  0  0  0  0  0  0  0  0  0  0
   36.0600   28.0930   33.8690 Cl  0  0  0  0  0  0  0  0  0  0  0  0
   36.2050   29.0780   32.4380 C   0  0  0  0  0  0  0  0  0  0  0  0
   36.5860   28.4640   31.2810 C   0  0  0  0  0  0  0  0  0  0  0  0
   36.6860   29.2890   30.1620 C   0  0  0  0  0  0  0  0  0  0  0  0
   36.4070   30.6370   30.2690 C   0  0  0  0  0  0  0  0  0  0  0  0
   36.0270   31.2120   31.4590 C   0  0  0  0  0  0  0  0  0  0  0  0
   35.9260   30.4100   32.5560 C   0  0  0  0  0  0  0  0  0  0  0  0
   36.9860   28.8550   29.2090 H   0  0  0  0  0  0  0  0  0  0  0  0
   36.4870   31.2890   29.3860 H   0  0  0  0  0  0  0  0  0  0  0  0
   35.8050   32.2650   31.5580 H   0  0  0  0  0  0  0  0  0  0  0  0
   38.2010   26.5590   31.1740 C   0  0  0  0  0  0  0  0  0  0  0  0
   36.8890   27.0360   31.1520 C   0  0  0  0  0  0  0  0  0  0  0  0
   35.8650   26.1040   31.0040 C   0  0  0  0  0  0  0  0  0  0  0  0
   36.1930   24.7940   30.8900 N   0  0  0  0  0  0  0  0  0  0  0  0
   37.4480   24.3710   30.9140 C   0  0  0  0  0  0  0  0  0  0  0  0
   38.4610   25.2420   31.0550 N   0  0  0  0  0  0  0  0  0  0  0  0
   38.9430   27.3290   31.2910 H   0  0  0  0  0  0  0  0  0  0  0  0
   34.8220   26.4050   30.9790 H   0  0  0  0  0  0  0  0  0  0  0  0
   37.7790   23.3430   30.8280 H   0  0  0  0  0  0  0  0  0  0  0  0
  1  7  1  6  0  0  0
  1  6  1  0  0  0  0
  1  2  1  0  0  0  0
  2  9  1  0  0  0  0
  2  3  1  0  0  0  0
  3  4  1  0  0  0  0
  3 10  1  0  0  0  0
  4 12  1  0  0  0  0
  4 13  1  0  0  0  0
  5 15  1  0  0  0  0
  5  4  1  0  0  0  0
  6 16  1  6  0  0  0
  6 18  1  0  0  0  0
  6  5  1  0  0  0  0
  8  2  1  0  0  0  0
 11  3  1  0  0  0  0
 14  5  1  0  0  0  0
 17 24  1  6  0  0  0
 18 19  1  6  0  0  0
 18 17  1  0  0  0  0
 19 21  1  0  0  0  0
 20 19  1  0  0  0  0
 21 22  1  0  0  0  0
 22 17  1  0  0  0  0
 22 23  1  0  0  0  0
 25 24  1  0  0  0  0
 26  1  1  0  0  0  0
 28 33  1  0  0  0  0
 28 27  1  0  0  0  0
 29 28  2  0  0  0  0
 30 31  2  0  0  0  0
 30 29  1  0  0  0  0
 31 32  1  0  0  0  0
 32 36  1  0  0  0  0
 32 33  2  0  0  0  0
 33 26  1  0  0  0  0
 34 30  1  0  0  0  0
 35 31  1  0  0  0  0
 37 43  1  0  0  0  0
 38 37  1  0  0  0  0
 38 29  1  0  0  0  0
 39 38  2  0  0  0  0
 40 41  2  0  0  0  0
 40 39  1  0  0  0  0
 41 42  1  0  0  0  0
 42 37  2  0  0  0  0
 44 39  1  0  0  0  0
 45 41  1  0  0  0  0
M  END
>  <minimizedAffinity>
-5.23091078

$$$$
