
     RDKit          3D

 37 39  0  0  0  0  0  0  0  0999 V2000
   35.2070   29.2927   48.3803 C   0  0  0  0  0  0  0  0  0  0  0  0
   34.6300   29.8587   47.2402 C   0  0  0  0  0  0  0  0  0  0  0  0
   33.3522   29.4452   46.8812 C   0  0  0  0  0  0  0  0  0  0  0  0
   32.7219   28.5151   47.6476 N   0  0  0  0  0  0  0  0  0  0  0  0
   33.3089   27.9913   48.7398 C   0  0  0  0  0  0  0  0  0  0  0  0
   34.5458   28.3757   49.1079 N   0  0  0  0  0  0  0  0  0  0  0  0
   36.4995   29.5912   48.8989 N   0  0  0  0  0  0  0  0  0  0  0  0
   36.9912   29.3008   50.2029 C   0  0  0  0  0  0  0  0  0  0  0  0
   37.6471   30.3833   50.9563 C   0  0  0  0  0  0  0  0  0  0  0  0
   38.2993   31.4640   50.1941 C   0  0  0  0  0  0  0  0  0  0  0  0
   37.8019   31.6328   48.7945 C   0  0  0  0  0  0  0  0  0  0  0  0
   37.5532   30.2583   48.1603 C   0  0  0  0  0  0  0  0  0  0  0  0
   35.2238   30.5735   46.7279 H   0  0  0  0  0  0  0  0  0  0  0  0
   32.9117   29.8840   46.0020 H   0  0  0  0  0  0  0  0  0  0  0  0
   32.7663   27.2404   49.3349 H   0  0  0  0  0  0  0  0  0  0  0  0
   37.7246   28.4507   50.0848 H   0  0  0  0  0  0  0  0  0  0  0  0
   36.1487   28.8597   50.7844 H   0  0  0  0  0  0  0  0  0  0  0  0
   38.3864   29.9397   51.6600 H   0  0  0  0  0  0  0  0  0  0  0  0
   36.8661   30.8237   51.6443 H   0  0  0  0  0  0  0  0  0  0  0  0
   39.4163   31.3517   50.1651 H   0  0  0  0  0  0  0  0  0  0  0  0
   36.8838   32.2260   48.7243 H   0  0  0  0  0  0  0  0  0  0  0  0
   38.5571   32.1151   48.1296 H   0  0  0  0  0  0  0  0  0  0  0  0
   37.2789   30.4322   47.1209 H   0  0  0  0  0  0  0  0  0  0  0  0
   38.5137   29.7081   48.1785 H   0  0  0  0  0  0  0  0  0  0  0  0
   36.5368   33.1297   52.7219 O   0  0  0  0  0  0  0  0  0  0  0  0
   36.6444   32.9534   51.3519 C   0  0  2  0  0  0  0  0  0  0  0  0
   38.0636   32.7941   50.9092 C   0  0  2  0  0  0  0  0  0  0  0  0
   38.3079   33.9560   49.9973 C   0  0  2  0  0  0  0  0  0  0  0  0
   38.2090   33.6123   48.9521 H   0  0  0  0  0  0  0  0  0  0  0  0
   37.3632   34.9216   50.3559 O   0  0  0  0  0  0  0  0  0  0  0  0
   36.2057   34.2647   50.6982 C   0  0  1  0  0  0  0  0  0  0  0  0
   35.5884   34.0413   49.7817 H   0  0  0  0  0  0  0  0  0  0  0  0
   35.6069   33.3208   52.9647 H   0  0  0  0  0  0  0  0  0  0  0  0
   36.0364   32.1205   50.9614 H   0  0  0  0  0  0  0  0  0  0  0  0
   38.7400   32.8636   51.8120 H   0  0  0  0  0  0  0  0  0  0  0  0
   39.3312   34.3827   50.2012 H   0  0  0  0  0  0  0  0  0  0  0  0
   35.5852   34.8706   51.3745 H   0  0  0  0  0  0  0  0  0  0  0  0
  1  7  1  0
  1  6  1  0
  2  1  2  0
  3  2  1  0
  3  4  2  0
  4  5  1  0
  5  6  2  0
  7  8  1  0
  8  9  1  0
 10  9  1  0
 11 10  1  0
 12 11  1  0
 12  7  1  0
  2 13  1  0
  3 14  1  0
  5 15  1  0
  8 16  1  0
  8 17  1  0
  9 18  1  0
  9 19  1  0
 10 20  1  0
 11 21  1  0
 11 22  1  0
 12 23  1  0
 12 24  1  0
 25 26  1  0
 26 27  1  0
 27 28  1  0
 28 29  1  6
 28 30  1  0
 30 31  1  0
 31 32  1  6
 31 26  1  0
 25 33  1  0
 26 34  1  6
 27 35  1  1
 28 36  1  0
 31 37  1  0
 10 27  1  0
M  ISO  8  13  14  14  14  15  14  16  13  17  13  18  13  19  13  20  13
M  ISO  6  21  13  22  13  23  13  24  13  29  15  32  16
M  END
>  <DihAtoms>  (1) 
8,9,26,25

>  <DihDeg>  (1) 
179.9989573631799

$$$$
