REMARK  Name = 
REMARK  3 active torsions:
REMARK  status: ('A' for Active; 'I' for Inactive)
REMARK    1  A    between atoms: C_1  and  N_7
REMARK    2  A    between atoms: C_10  and  C_27
REMARK    3  A    between atoms: O_25  and  C_26
REMARK                            x       y       z     vdW  Elec       q    Type
REMARK                         _______ _______ _______ _____ _____    ______ ____
ROOT
ATOM      1  N   UNL     1      36.499  29.591  48.899  0.00  0.00    +0.000 N 
ATOM      2  C   UNL     1      36.991  29.301  50.203  0.00  0.00    +0.000 C 
ATOM      3  C   UNL     1      37.647  30.383  50.956  0.00  0.00    +0.000 C 
ATOM      4  C   UNL     1      38.299  31.464  50.194  0.00  0.00    +0.000 C 
ATOM      5  C   UNL     1      37.802  31.633  48.794  0.00  0.00    +0.000 C 
ATOM      6  C   UNL     1      37.553  30.258  48.160  0.00  0.00    +0.000 C 
ATOM      7  H   UNL     1      37.725  28.451  50.085  0.00  0.00    +0.000 HD
ATOM      8  H   UNL     1      36.149  28.860  50.784  0.00  0.00    +0.000 HD
ATOM      9  H   UNL     1      38.386  29.940  51.660  0.00  0.00    +0.000 HD
ATOM     10  H   UNL     1      36.866  30.824  51.644  0.00  0.00    +0.000 HD
ATOM     11  H   UNL     1      39.416  31.352  50.165  0.00  0.00    +0.000 HD
ATOM     12  H   UNL     1      36.884  32.226  48.724  0.00  0.00    +0.000 HD
ATOM     13  H   UNL     1      38.557  32.115  48.130  0.00  0.00    +0.000 HD
ATOM     14  H   UNL     1      37.279  30.432  47.121  0.00  0.00    +0.000 HD
ATOM     15  H   UNL     1      38.514  29.708  48.178  0.00  0.00    +0.000 HD
ENDROOT
BRANCH   1  16
ATOM     16  C   UNL     1      35.207  29.293  48.380  0.00  0.00    +0.000 A 
ATOM     17  C   UNL     1      34.630  29.859  47.240  0.00  0.00    +0.000 A 
ATOM     18  C   UNL     1      33.352  29.445  46.881  0.00  0.00    +0.000 A 
ATOM     19  N   UNL     1      32.722  28.515  47.648  0.00  0.00    +0.000 NA
ATOM     20  C   UNL     1      33.309  27.991  48.740  0.00  0.00    +0.000 A 
ATOM     21  N   UNL     1      34.546  28.376  49.108  0.00  0.00    +0.000 NA
ATOM     22  H   UNL     1      35.224  30.573  46.728  0.00  0.00    +0.000 HD
ATOM     23  H   UNL     1      32.912  29.884  46.002  0.00  0.00    +0.000 HD
ATOM     24  H   UNL     1      32.766  27.240  49.335  0.00  0.00    +0.000 HD
ENDBRANCH   1  16
BRANCH   4  26
ATOM     25  C   UNL     1      36.644  32.953  51.352  0.00  0.00    +0.000 C 
ATOM     26  C   UNL     1      38.064  32.794  50.909  0.00  0.00    +0.000 C 
ATOM     27  C   UNL     1      38.308  33.956  49.997  0.00  0.00    +0.000 C 
ATOM     28  H   UNL     1      38.209  33.612  48.952  0.00  0.00    +0.000 HD
ATOM     29  O   UNL     1      37.363  34.922  50.356  0.00  0.00    +0.000 OA
ATOM     30  C   UNL     1      36.206  34.265  50.698  0.00  0.00    +0.000 C 
ATOM     31  H   UNL     1      35.588  34.041  49.782  0.00  0.00    +0.000 HD
BRANCH  25  32
ATOM     32  O   UNL     1      36.537  33.130  52.722  0.00  0.00    +0.000 OA
ATOM     33  H   UNL     1      35.607  33.321  52.965  0.00  0.00    +0.000 HD
ENDBRANCH  25  32
ENDBRANCH   4  26
TORSDOF 3
