
     RDKit          3D

 31 33  0  0  0  0  0  0  0  0999 V2000
   37.5207   30.4372   50.9258 C   0  0  0  0  0  0  0  0  0  0  0  0
   37.1958   31.0605   49.7145 C   0  0  0  0  0  0  0  0  0  0  0  0
   35.9649   30.7787   49.1424 C   0  0  0  0  0  0  0  0  0  0  0  0
   35.1364   29.9128   49.7852 N   0  0  0  0  0  0  0  0  0  0  0  0
   35.4764   29.3295   50.9481 C   0  0  0  0  0  0  0  0  0  0  0  0
   36.6550   29.5848   51.5179 N   0  0  0  0  0  0  0  0  0  0  0  0
   38.0769   31.9845   49.0260 C   0  0  0  0  0  0  0  0  0  0  0  0
   38.5477   33.1483   49.5751 C   0  0  0  0  0  0  0  0  0  0  0  0
   39.3853   34.0373   48.9351 C   0  0  0  0  0  0  0  0  0  0  0  0
   39.7965   33.7629   47.6479 C   0  0  0  0  0  0  0  0  0  0  0  0
   39.3155   32.5836   47.1001 C   0  0  0  0  0  0  0  0  0  0  0  0
   38.5038   31.7479   47.7558 N   0  0  0  0  0  0  0  0  0  0  0  0
   38.4998   30.6989   51.3239 H   0  0  0  0  0  0  0  0  0  0  0  0
   35.6106   31.1929   48.2248 H   0  0  0  0  0  0  0  0  0  0  0  0
   34.8435   28.6375   51.4855 H   0  0  0  0  0  0  0  0  0  0  0  0
   38.2363   33.3845   50.5889 H   0  0  0  0  0  0  0  0  0  0  0  0
   39.7214   34.9493   49.4381 H   0  0  0  0  0  0  0  0  0  0  0  0
   40.4433   34.4050   47.0928 H   0  0  0  0  0  0  0  0  0  0  0  0
   37.8940   33.5755   44.9756 O   0  0  0  0  0  0  0  0  0  0  0  0
   39.2181   33.2828   44.7133 C   0  0  1  0  0  0  0  0  0  0  0  0
   39.7287   32.2457   45.7218 C   0  0  2  0  0  0  0  0  0  0  0  0
   39.0534   31.0285   45.1573 C   0  0  2  0  0  0  0  0  0  0  0  0
   37.9538   31.0424   45.3073 H   0  0  0  0  0  0  0  0  0  0  0  0
   39.2728   31.1381   43.7929 O   0  0  0  0  0  0  0  0  0  0  0  0
   39.3527   32.4689   43.4488 C   0  0  2  0  0  0  0  0  0  0  0  0
   40.4076   32.6395   43.0899 H   0  0  0  0  0  0  0  0  0  0  0  0
   37.4098   33.7821   44.1135 H   0  0  0  0  0  0  0  0  0  0  0  0
   39.8985   34.1603   44.7569 H   0  0  0  0  0  0  0  0  0  0  0  0
   40.8108   32.1420   45.6042 H   0  0  0  0  0  0  0  0  0  0  0  0
   39.4260   30.0718   45.5272 H   0  0  0  0  0  0  0  0  0  0  0  0
   38.6707   32.7874   42.6490 H   0  0  0  0  0  0  0  0  0  0  0  0
  1  6  2  0
  2  1  1  0
  3  2  2  0
  3  4  1  0
  4  5  2  0
  5  6  1  0
  7  8  2  0
  7  2  1  0
  9  8  1  0
 10  9  2  0
 11 10  1  0
 11 12  2  0
 12  7  1  0
  1 13  1  0
  3 14  1  0
  5 15  1  0
  8 16  1  0
  9 17  1  0
 10 18  1  0
 19 20  1  0
 20 21  1  0
 21 22  1  0
 22 23  1  6
 22 24  1  0
 24 25  1  0
 25 26  1  6
 25 20  1  0
 19 27  1  0
 20 28  1  6
 21 29  1  1
 22 30  1  0
 25 31  1  0
 11 21  1  0
M  ISO  8  13  14  14  14  15  14  16  14  17  14  18  14  23  15  26  16
M  END
>  <DihAtoms>  (1) 
9,10,20,19

>  <DihDeg>  (1) 
-123.29855487715587

$$$$
