
     RDKit          3D

 44 47  0  0  0  0  0  0  0  0999 V2000
   35.1052   29.6282   47.5613 C   0  0  0  0  0  0  0  0  0  0  0  0
   35.2948   30.0464   46.2436 C   0  0  0  0  0  0  0  0  0  0  0  0
   34.2716   29.8929   45.3245 C   0  0  0  0  0  0  0  0  0  0  0  0
   33.1013   29.3284   45.7584 N   0  0  0  0  0  0  0  0  0  0  0  0
   32.9508   28.9341   47.0424 C   0  0  0  0  0  0  0  0  0  0  0  0
   33.9489   29.0832   47.9413 N   0  0  0  0  0  0  0  0  0  0  0  0
   36.1285   29.7623   48.5545 N   0  0  0  0  0  0  0  0  0  0  0  0
   36.1822   28.8941   49.7189 C   0  0  0  0  0  0  0  0  0  0  0  0
   36.4728   29.5939   51.0054 C   0  0  0  0  0  0  0  0  0  0  0  0
   37.2107   30.7951   50.9617 N   0  0  0  0  0  0  0  0  0  0  0  0
   36.9496   31.5981   49.7765 C   0  0  0  0  0  0  0  0  0  0  0  0
   37.1915   30.6905   48.5837 C   0  0  0  0  0  0  0  0  0  0  0  0
   31.6908   28.3386   47.4628 C   0  0  0  0  0  0  0  0  0  0  0  0
   31.6526   27.4274   48.4973 C   0  0  0  0  0  0  0  0  0  0  0  0
   30.4838   26.8271   48.9421 C   0  0  0  0  0  0  0  0  0  0  0  0
   29.3534   27.1999   48.2815 N   0  0  0  0  0  0  0  0  0  0  0  0
   29.4020   28.0824   47.2818 C   0  0  0  0  0  0  0  0  0  0  0  0
   30.5495   28.6727   46.8441 N   0  0  0  0  0  0  0  0  0  0  0  0
   36.2390   30.4822   45.9686 H   0  0  0  0  0  0  0  0  0  0  0  0
   34.3999   30.2070   44.3139 H   0  0  0  0  0  0  0  0  0  0  0  0
   35.2029   28.3541   49.7976 H   0  0  0  0  0  0  0  0  0  0  0  0
   36.9194   28.0946   49.5040 H   0  0  0  0  0  0  0  0  0  0  0  0
   35.4964   29.7505   51.5433 H   0  0  0  0  0  0  0  0  0  0  0  0
   37.0305   28.8568   51.6550 H   0  0  0  0  0  0  0  0  0  0  0  0
   36.9092   31.3957   51.7872 H   0  0  0  0  0  0  0  0  0  0  0  0
   37.7682   32.3684   49.7315 H   0  0  0  0  0  0  0  0  0  0  0  0
   35.9779   32.0884   49.7643 H   0  0  0  0  0  0  0  0  0  0  0  0
   37.2644   31.2825   47.6353 H   0  0  0  0  0  0  0  0  0  0  0  0
   38.1565   30.1925   48.7419 H   0  0  0  0  0  0  0  0  0  0  0  0
   32.5960   27.1957   48.9578 H   0  0  0  0  0  0  0  0  0  0  0  0
   30.5726   26.1269   49.7615 H   0  0  0  0  0  0  0  0  0  0  0  0
   27.3727   27.9865   48.9432 O   0  0  0  0  0  0  0  0  0  0  0  0
   27.0012   27.8066   47.6192 C   0  0  1  0  0  0  0  0  0  0  0  0
   28.0740   28.3701   46.6777 C   0  0  2  0  0  0  0  0  0  0  0  0
   27.8168   27.5200   45.4588 C   0  0  2  0  0  0  0  0  0  0  0  0
   28.7433   27.4839   44.8472 H   0  0  0  0  0  0  0  0  0  0  0  0
   27.4495   26.2703   45.9264 O   0  0  0  0  0  0  0  0  0  0  0  0
   26.9449   26.3795   47.1968 C   0  0  1  0  0  0  0  0  0  0  0  0
   27.5280   25.7318   47.8982 H   0  0  0  0  0  0  0  0  0  0  0  0
   27.2532   28.9391   49.1711 H   0  0  0  0  0  0  0  0  0  0  0  0
   26.0466   28.3226   47.3908 H   0  0  0  0  0  0  0  0  0  0  0  0
   27.9139   29.4519   46.5162 H   0  0  0  0  0  0  0  0  0  0  0  0
   27.0358   28.0237   44.8584 H   0  0  0  0  0  0  0  0  0  0  0  0
   25.8819   26.0406   47.2887 H   0  0  0  0  0  0  0  0  0  0  0  0
  1  6  1  0
  1  7  1  0
  2  1  2  0
  3  4  2  0
  3  2  1  0
  4  5  1  0
  5 13  1  0
  5  6  2  0
  7 12  1  0
  7  8  1  0
  8  9  1  0
 10  9  1  0
 11 10  1  0
 12 11  1  0
 13 14  2  0
 14 15  1  0
 16 15  2  0
 17 16  1  0
 18 17  2  0
 18 13  1  0
  2 19  1  0
  3 20  1  0
  8 21  1  0
  8 22  1  0
  9 23  1  0
  9 24  1  0
 10 25  1  0
 11 26  1  0
 11 27  1  0
 12 28  1  0
 12 29  1  0
 14 30  1  0
 15 31  1  0
 32 33  1  0
 33 34  1  0
 34 35  1  0
 35 36  1  6
 35 37  1  0
 37 38  1  0
 38 39  1  1
 38 33  1  0
 32 40  1  0
 33 41  1  1
 34 42  1  6
 35 43  1  0
 38 44  1  0
 17 34  1  0
M  ISO  8  19  14  20  14  21  13  22  13  23  13  24  13  25   5  26  13
M  ISO  7  27  13  28  13  29  13  30  14  31  14  36  15  39  16
M  END
>  <DihAtoms>  (1) 
15,16,33,32

>  <DihDeg>  (1) 
58.38011847686642

$$$$
