
 OpenBabel03272505263D

 31 33  0  0  1  0  0  0  0  0999 V2000
   37.4610   31.0020   46.9450 N   0  0  0  0  0  0  0  0  0  0  0  0
   36.9740   30.5530   45.7560 C   0  0  0  0  0  0  0  0  0  0  0  0
   37.5140   30.9420   44.5410 C   0  0  0  0  0  0  0  0  0  0  0  0
   38.6010   31.8300   44.5750 C   0  0  0  0  0  0  0  0  0  0  0  0
   39.1150   32.2020   43.5000 O   0  0  0  0  0  0  0  0  0  0  0  0
   39.0900   32.2810   45.7650 N   0  0  0  0  0  0  0  0  0  0  0  0
   38.4820   31.8330   46.8720 C   0  0  0  0  0  0  0  0  0  0  0  0
   38.9620   32.2730   47.9410 O   0  0  0  0  0  0  0  0  0  0  0  0
   36.1300   29.8650   45.7640 H   0  0  0  0  0  0  0  0  0  0  0  0
   37.1360   29.6170   50.3750 C   0  0  0  0  0  0  0  0  0  0  0  0
   37.6860   30.0200   49.1510 C   0  0  0  0  0  0  0  0  0  0  0  0
   36.9070   30.5970   48.1620 C   0  0  0  0  0  0  0  0  0  0  0  0
   35.5740   30.7680   48.4040 N   0  0  0  0  0  0  0  0  0  0  0  0
   35.0310   30.3750   49.5980 C   0  0  0  0  0  0  0  0  0  0  0  0
   35.7960   29.8080   50.5720 N   0  0  0  0  0  0  0  0  0  0  0  0
   37.6670   29.1680   51.1820 H   0  0  0  0  0  0  0  0  0  0  0  0
   38.7370   29.8010   49.1320 H   0  0  0  0  0  0  0  0  0  0  0  0
   33.9820   30.5630   49.6610 H   0  0  0  0  0  0  0  0  0  0  0  0
   35.6180   29.7600   43.6260 C   0  0  2  0  0  3  0  0  0  0  0  0
   36.9390   30.4210   43.3160 C   0  0  2  0  0  3  0  0  0  0  0  0
   37.7010   29.3250   42.6480 C   0  0  0  0  0  3  0  0  0  0  0  0
   38.7880   29.3860   42.7250 H   0  0  0  0  0  0  0  0  0  0  0  0
   37.1760   28.1190   43.0870 O   0  0  0  0  0  0  0  0  0  0  0  0
   35.8300   28.3300   43.2290 C   0  0  0  0  0  3  0  0  0  0  0  0
   35.2620   28.1000   42.2800 H   0  0  0  0  0  0  0  0  0  0  0  0
   34.6010   30.3640   42.8600 O   0  0  0  0  0  0  0  0  0  0  0  0
   34.5370   31.3070   43.1320 H   0  0  0  0  0  0  0  0  0  0  0  0
   40.2090   33.1950   45.7950 C   0  0  0  0  0  0  0  0  0  0  0  0
   40.0240   34.1740   44.8450 F   0  0  0  0  0  0  0  0  0  0  0  0
   41.4140   32.5970   45.5340 F   0  0  0  0  0  0  0  0  0  0  0  0
   40.2270   33.8320   47.0360 F   0  0  0  0  0  0  0  0  0  0  0  0
  1 12  1  0  0  0  0
  2  9  1  0  0  0  0
  2  1  1  0  0  0  0
  3  4  1  0  0  0  0
  3  2  2  0  0  0  0
  4  6  1  0  0  0  0
  5  4  2  0  0  0  0
  6 28  1  0  0  0  0
  6  7  1  0  0  0  0
  7  1  1  0  0  0  0
  7  8  2  0  0  0  0
 10 15  1  0  0  0  0
 10 16  1  0  0  0  0
 11 10  2  0  0  0  0
 12 13  2  0  0  0  0
 12 11  1  0  0  0  0
 13 14  1  0  0  0  0
 14 18  1  0  0  0  0
 14 15  2  0  0  0  0
 17 11  1  0  0  0  0
 19 26  1  6  0  0  0
 20 19  1  0  0  0  0
 20  3  1  1  0  0  0
 21 22  1  0  0  0  0
 21 23  1  0  0  0  0
 21 20  1  0  0  0  0
 23 24  1  0  0  0  0
 24 19  1  0  0  0  0
 25 24  1  0  0  0  0
 26 27  1  0  0  0  0
 28 31  1  0  0  0  0
 29 28  1  0  0  0  0
 30 28  1  0  0  0  0
M  END
>  <minimizedAffinity>
-6.06212473

>  <minimizedRMSD>
0.769484758

$$$$
