
 OpenBabel03262520433D

 28 30  0  0  1  0  0  0  0  0999 V2000
   37.9770   31.7490   47.9550 C   0  0  1  0  0  0  0  0  0  0  0  0
   38.5770   32.9930   48.6110 C   0  0  0  0  0  0  0  0  0  0  0  0
   39.3050   32.2440   47.5660 C   0  0  2  0  0  0  0  0  0  0  0  0
   37.1110   31.9590   47.2750 H   0  0  0  0  0  0  0  0  0  0  0  0
   38.0840   33.9740   48.3730 H   0  0  0  0  0  0  0  0  0  0  0  0
   38.9490   32.9050   49.6590 H   0  0  0  0  0  0  0  0  0  0  0  0
   40.1570   31.5970   47.9120 H   0  0  0  0  0  0  0  0  0  0  0  0
   40.6840   32.0210   45.5010 C   0  0  2  0  0  0  0  0  0  0  0  0
   39.5120   32.7460   46.1760 C   0  0  1  0  0  0  0  0  0  0  0  0
   38.3850   32.1490   45.3250 C   0  0  0  0  0  0  0  0  0  0  0  0
   38.3000   31.0870   45.6920 H   0  0  0  0  0  0  0  0  0  0  0  0
   38.8620   32.0600   44.0360 O   0  0  0  0  0  0  0  0  0  0  0  0
   40.2450   32.0880   44.0740 C   0  0  0  0  0  0  0  0  0  0  0  0
   40.5940   33.0520   43.6520 H   0  0  0  0  0  0  0  0  0  0  0  0
   40.6820   30.7050   45.9160 O   0  0  0  0  0  0  0  0  0  0  0  0
   41.1690   30.5420   46.7610 H   0  0  0  0  0  0  0  0  0  0  0  0
   37.7760   30.5920   48.8720 C   0  0  0  0  0  0  0  0  0  0  0  0
   38.5310   29.8160   48.6170 H   0  0  0  0  0  0  0  0  0  0  0  0
   37.9400   30.8870   49.9260 H   0  0  0  0  0  0  0  0  0  0  0  0
   34.7950   28.4150   49.4850 C   0  0  0  0  0  0  0  0  0  0  0  0
   36.0980   28.9700   49.6030 C   0  0  0  0  0  0  0  0  0  0  0  0
   36.4100   30.0090   48.7490 C   0  0  0  0  0  0  0  0  0  0  0  0
   35.4900   30.4490   47.8570 N   0  0  0  0  0  0  0  0  0  0  0  0
   34.2660   29.8920   47.7830 C   0  0  0  0  0  0  0  0  0  0  0  0
   33.9260   28.8830   48.5930 N   0  0  0  0  0  0  0  0  0  0  0  0
   34.5240   27.5970   50.1460 H   0  0  0  0  0  0  0  0  0  0  0  0
   36.8040   28.5820   50.3370 H   0  0  0  0  0  0  0  0  0  0  0  0
   33.5780   30.3030   47.0360 H   0  0  0  0  0  0  0  0  0  0  0  0
  1  4  1  6  0  0  0
  1  2  1  0  0  0  0
  1 17  1  0  0  0  0
  2  6  1  0  0  0  0
  3  7  1  1  0  0  0
  3  1  1  0  0  0  0
  3  2  1  0  0  0  0
  5  2  1  0  0  0  0
  8 15  1  1  0  0  0
  8  9  1  0  0  0  0
  9 10  1  6  0  0  0
  9  3  1  0  0  0  0
 10 11  1  0  0  0  0
 12 13  1  0  0  0  0
 12 10  1  0  0  0  0
 13  8  1  0  0  0  0
 14 13  1  0  0  0  0
 15 16  1  0  0  0  0
 17 19  1  0  0  0  0
 18 17  1  0  0  0  0
 20 21  1  0  0  0  0
 20 26  1  0  0  0  0
 21 27  1  0  0  0  0
 22 17  1  0  0  0  0
 22 21  2  0  0  0  0
 23 22  1  0  0  0  0
 24 23  2  0  0  0  0
 24 25  1  0  0  0  0
 25 20  2  0  0  0  0
 28 24  1  0  0  0  0
M  END
>  <minimizedAffinity>
-5.65951157

>  <minimizedRMSD>
2.72609401

$$$$
