
     RDKit          3D

 45 48  0  0  0  0  0  0  0  0999 V2000
   35.7832   29.8054   49.0633 C   0  0  0  0  0  0  0  0  0  0  0  0
   36.6779   29.2982   50.0147 C   0  0  0  0  0  0  0  0  0  0  0  0
   37.8122   30.0584   49.9524 C   0  0  0  0  0  0  0  0  0  0  0  0
   37.6190   30.9879   49.0056 N   0  0  0  0  0  0  0  0  0  0  0  0
   36.4170   30.8074   48.5066 N   0  0  0  0  0  0  0  0  0  0  0  0
   38.4429   32.0304   48.5171 C   0  0  0  0  0  0  0  0  0  0  0  0
   38.6854   33.0689   49.3769 C   0  0  0  0  0  0  0  0  0  0  0  0
   39.4732   34.1796   49.0660 C   0  0  0  0  0  0  0  0  0  0  0  0
   40.0268   34.1880   47.7885 C   0  0  0  0  0  0  0  0  0  0  0  0
   39.7958   33.1572   46.9126 C   0  0  0  0  0  0  0  0  0  0  0  0
   39.0123   32.0719   47.2483 C   0  0  0  0  0  0  0  0  0  0  0  0
   34.4476   29.2198   48.8568 C   0  0  0  0  0  0  0  0  0  0  0  0
   34.2860   28.5488   47.5433 C   0  0  0  0  0  0  0  0  0  0  0  0
   33.9469   29.3680   46.4123 C   0  0  0  0  0  0  0  0  0  0  0  0
   32.7533   30.0252   46.3524 C   0  0  0  0  0  0  0  0  0  0  0  0
   32.4230   30.8300   45.2386 C   0  0  0  0  0  0  0  0  0  0  0  0
   33.3728   30.9004   44.2411 N   0  0  0  0  0  0  0  0  0  0  0  0
   34.5422   30.2332   44.3407 C   0  0  0  0  0  0  0  0  0  0  0  0
   34.8064   29.4792   45.4258 N   0  0  0  0  0  0  0  0  0  0  0  0
   36.5240   28.4604   50.6874 H   0  0  0  0  0  0  0  0  0  0  0  0
   38.7344   29.9948   50.5180 H   0  0  0  0  0  0  0  0  0  0  0  0
   38.2701   33.0953   50.3799 H   0  0  0  0  0  0  0  0  0  0  0  0
   39.6463   34.9853   49.7677 H   0  0  0  0  0  0  0  0  0  0  0  0
   40.6461   35.0012   47.4619 H   0  0  0  0  0  0  0  0  0  0  0  0
   40.1824   33.0784   45.9044 H   0  0  0  0  0  0  0  0  0  0  0  0
   38.7886   31.2364   46.6232 H   0  0  0  0  0  0  0  0  0  0  0  0
   33.7327   30.0941   48.8694 H   0  0  0  0  0  0  0  0  0  0  0  0
   34.1347   28.5707   49.6678 H   0  0  0  0  0  0  0  0  0  0  0  0
   35.2044   27.9235   47.3833 H   0  0  0  0  0  0  0  0  0  0  0  0
   33.4693   27.7898   47.6552 H   0  0  0  0  0  0  0  0  0  0  0  0
   32.0189   29.9531   47.1548 H   0  0  0  0  0  0  0  0  0  0  0  0
   31.4776   31.3525   45.1877 H   0  0  0  0  0  0  0  0  0  0  0  0
   35.9190   27.9732   43.6840 O   0  0  0  0  0  0  0  0  0  0  0  0
   36.0232   28.9840   42.7590 C   0  0  2  0  0  0  0  0  0  0  0  0
   35.5529   30.3296   43.2413 C   0  0  1  0  0  0  0  0  0  0  0  0
   34.8820   30.9085   42.0269 C   0  0  1  0  0  0  0  0  0  0  0  0
   33.7676   30.9256   42.1553 H   0  0  0  0  0  0  0  0  0  0  0  0
   35.1909   30.0521   40.9633 O   0  0  0  0  0  0  0  0  0  0  0  0
   35.1616   28.7747   41.5439 C   0  0  2  0  0  0  0  0  0  0  0  0
   34.1359   28.4779   41.8206 H   0  0  0  0  0  0  0  0  0  0  0  0
   36.8064   27.5768   43.9407 H   0  0  0  0  0  0  0  0  0  0  0  0
   37.0833   29.0878   42.4523 H   0  0  0  0  0  0  0  0  0  0  0  0
   36.3845   30.9862   43.5572 H   0  0  0  0  0  0  0  0  0  0  0  0
   35.2048   31.9374   41.7772 H   0  0  0  0  0  0  0  0  0  0  0  0
   35.5858   28.0175   40.8866 H   0  0  0  0  0  0  0  0  0  0  0  0
  1  2  1  0
  3  2  2  0
  4  3  1  0
  5  4  1  0
  5  1  2  0
  6  4  1  0
  6  7  2  0
  8  7  1  0
  9  8  2  0
 10 11  2  0
 10  9  1  0
 11  6  1  0
 12  1  1  0
 13 12  1  0
 14 13  1  0
 15 14  2  0
 16 15  1  0
 17 18  1  0
 17 16  2  0
 18 19  2  0
 19 14  1  0
  2 20  1  0
  3 21  1  0
  7 22  1  0
  8 23  1  0
  9 24  1  0
 10 25  1  0
 11 26  1  0
 12 27  1  0
 12 28  1  0
 13 29  1  0
 13 30  1  0
 15 31  1  0
 16 32  1  0
 33 34  1  0
 34 35  1  0
 35 36  1  0
 36 37  1  1
 36 38  1  0
 38 39  1  0
 39 40  1  1
 39 34  1  0
 33 41  1  0
 34 42  1  6
 35 43  1  1
 36 44  1  0
 39 45  1  0
 18 35  1  0
M  ISO  8  20  14  21  14  22  14  23  14  24  14  25  14  26  14  27   8
M  ISO  7  28   8  29   8  30   8  31  14  32  14  37  15  40  16
M  END
>  <DihAtoms>  (1) 
16,17,34,33

>  <DihDeg>  (1) 
-53.30960067829603

$$$$
