
 OpenBabel03272504333D

 40 43  0  0  1  0  0  0  0  0999 V2000
   34.9680   29.5750   47.5360 C   0  0  0  0  0  0  0  0  0  0  0  0
   35.1360   29.9640   46.2080 C   0  0  0  0  0  0  0  0  0  0  0  0
   34.0940   29.8020   45.3120 C   0  0  0  0  0  0  0  0  0  0  0  0
   32.9270   29.2560   45.7800 N   0  0  0  0  0  0  0  0  0  0  0  0
   32.7990   28.8900   47.0740 C   0  0  0  0  0  0  0  0  0  0  0  0
   33.8160   29.0480   47.9500 N   0  0  0  0  0  0  0  0  0  0  0  0
   36.0780   30.3860   45.9050 H   0  0  0  0  0  0  0  0  0  0  0  0
   34.2040   30.0940   44.2930 H   0  0  0  0  0  0  0  0  0  0  0  0
   36.0130   29.7200   48.5060 N   0  0  0  0  0  0  0  0  0  0  0  0
   36.0900   28.8660   49.6800 C   0  0  0  0  0  0  0  0  0  0  0  0
   36.4080   29.5800   50.9510 C   0  0  0  0  0  0  0  0  0  0  0  0
   37.1450   30.7810   50.8790 N   0  0  0  0  0  0  0  0  0  0  0  0
   36.8590   31.5700   49.6890 C   0  0  0  0  0  0  0  0  0  0  0  0
   37.0750   30.6490   48.5030 C   0  0  0  0  0  0  0  0  0  0  0  0
   35.1130   28.3270   49.7850 H   0  0  0  0  0  0  0  0  0  0  0  0
   36.8230   28.0640   49.4590 H   0  0  0  0  0  0  0  0  0  0  0  0
   35.4430   29.7430   51.5080 H   0  0  0  0  0  0  0  0  0  0  0  0
   36.9800   28.8510   51.5980 H   0  0  0  0  0  0  0  0  0  0  0  0
   36.8610   31.3910   51.7030 H   0  0  0  0  0  0  0  0  0  0  0  0
   37.6760   32.3390   49.6180 H   0  0  0  0  0  0  0  0  0  0  0  0
   35.8870   32.0600   49.6920 H   0  0  0  0  0  0  0  0  0  0  0  0
   37.1290   31.2290   47.5460 H   0  0  0  0  0  0  0  0  0  0  0  0
   38.0440   30.1520   48.6470 H   0  0  0  0  0  0  0  0  0  0  0  0
   31.5420   28.3150   47.5320 C   0  0  0  0  0  0  0  0  0  0  0  0
   31.5280   27.3330   48.5000 C   0  0  0  0  0  0  0  0  0  0  0  0
   30.3640   26.7470   48.9760 C   0  0  0  0  0  0  0  0  0  0  0  0
   29.2120   27.2100   48.4160 N   0  0  0  0  0  0  0  0  0  0  0  0
   29.2380   28.1590   47.4790 C   0  0  0  0  0  0  0  0  0  0  0  0
   30.3800   28.7360   47.0110 N   0  0  0  0  0  0  0  0  0  0  0  0
   32.4870   27.0330   48.8830 H   0  0  0  0  0  0  0  0  0  0  0  0
   30.4720   25.9870   49.7370 H   0  0  0  0  0  0  0  0  0  0  0  0
   27.5760   27.6630   45.7630 C   0  0  1  0  0  3  0  0  0  0  0  0
   27.8890   28.5410   46.9820 C   0  0  2  0  0  3  0  0  0  0  0  0
   27.8980   29.8980   46.3240 C   0  0  0  0  0  3  0  0  0  0  0  0
   28.5120   30.5890   46.9390 H   0  0  0  0  0  0  0  0  0  0  0  0
   28.4260   29.7130   45.0580 O   0  0  0  0  0  0  0  0  0  0  0  0
   28.2510   28.4110   44.6670 C   0  0  0  0  0  3  0  0  0  0  0  0
   29.2390   27.9490   44.4190 H   0  0  0  0  0  0  0  0  0  0  0  0
   28.0640   26.3780   45.9510 O   0  0  0  0  0  0  0  0  0  0  0  0
   27.4760   25.9150   46.5960 H   0  0  0  0  0  0  0  0  0  0  0  0
  1  6  1  0  0  0  0
  1  9  1  0  0  0  0
  2  1  2  0  0  0  0
  3  4  2  0  0  0  0
  3  2  1  0  0  0  0
  4  5  1  0  0  0  0
  5 24  1  0  0  0  0
  5  6  2  0  0  0  0
  7  2  1  0  0  0  0
  8  3  1  0  0  0  0
  9 10  1  0  0  0  0
 10 15  1  0  0  0  0
 10 11  1  0  0  0  0
 11 17  1  0  0  0  0
 11 18  1  0  0  0  0
 12 11  1  0  0  0  0
 12 19  1  0  0  0  0
 13 21  1  0  0  0  0
 13 12  1  0  0  0  0
 14  9  1  0  0  0  0
 14 23  1  0  0  0  0
 14 13  1  0  0  0  0
 16 10  1  0  0  0  0
 20 13  1  0  0  0  0
 22 14  1  0  0  0  0
 24 25  1  0  0  0  0
 25 30  1  0  0  0  0
 25 26  2  0  0  0  0
 26 31  1  0  0  0  0
 27 26  1  0  0  0  0
 28 27  2  0  0  0  0
 29 28  1  0  0  0  0
 29 24  2  0  0  0  0
 32 39  1  1  0  0  0
 32 33  1  0  0  0  0
 33 28  1  6  0  0  0
 34 35  1  0  0  0  0
 34 33  1  0  0  0  0
 36 34  1  0  0  0  0
 37 36  1  0  0  0  0
 37 32  1  0  0  0  0
 38 37  1  0  0  0  0
 39 40  1  0  0  0  0
M  END
>  <minimizedAffinity>
-5.07964182

>  <minimizedRMSD>
0.956264555

$$$$
