
 OpenBabel03272505043D

 45 48  0  0  1  0  0  0  0  0999 V2000
   38.3340   32.8310   43.5390 C   0  0  2  0  0  0  0  0  0  0  0  0
   36.8410   32.4350   43.2990 C   0  0  0  0  0  0  0  0  0  0  0  0
   36.8350   31.0720   42.6720 C   0  0  0  0  0  0  0  0  0  0  0  0
   37.2480   31.2090   41.2300 C   0  0  0  0  0  0  0  0  0  0  0  0
   38.0940   32.4310   41.0940 C   0  0  0  0  0  0  0  0  0  0  0  0
   39.0400   32.5780   42.2690 C   0  0  2  0  0  0  0  0  0  0  0  0
   38.2150   33.8880   43.8640 H   0  0  0  0  0  0  0  0  0  0  0  0
   36.3970   32.3880   44.3290 H   0  0  0  0  0  0  0  0  0  0  0  0
   36.3140   33.1900   42.7240 H   0  0  0  0  0  0  0  0  0  0  0  0
   35.8560   30.5590   42.7840 H   0  0  0  0  0  0  0  0  0  0  0  0
   37.6610   30.4240   43.0190 H   0  0  0  0  0  0  0  0  0  0  0  0
   37.6520   30.2980   40.7740 H   0  0  0  0  0  0  0  0  0  0  0  0
   36.3060   31.4240   40.6450 H   0  0  0  0  0  0  0  0  0  0  0  0
   37.4230   33.3480   41.0320 H   0  0  0  0  0  0  0  0  0  0  0  0
   38.6750   32.4820   40.1610 H   0  0  0  0  0  0  0  0  0  0  0  0
   39.4820   33.6200   42.0270 H   0  0  0  0  0  0  0  0  0  0  0  0
   39.9690   30.4760   43.1100 C   0  0  2  0  0  3  0  0  0  0  0  0
   40.1280   31.6350   42.1370 C   0  0  1  0  0  3  0  0  0  0  0  0
   40.2310   30.7650   40.9310 C   0  0  0  0  0  3  0  0  0  0  0  0
   39.3380   30.3730   40.4910 H   0  0  0  0  0  0  0  0  0  0  0  0
   41.2620   29.9230   41.2340 O   0  0  0  0  0  0  0  0  0  0  0  0
   41.0440   29.5330   42.5320 C   0  0  0  0  0  3  0  0  0  0  0  0
   41.9560   29.5490   43.1610 H   0  0  0  0  0  0  0  0  0  0  0  0
   38.7170   29.9150   43.0080 O   0  0  0  0  0  0  0  0  0  0  0  0
   38.7450   28.9590   42.7280 H   0  0  0  0  0  0  0  0  0  0  0  0
   38.7360   32.0420   44.5440 O   0  0  0  0  0  0  0  0  0  0  0  0
   37.0500   30.2650   46.1060 Cl  0  0  0  0  0  0  0  0  0  0  0  0
   38.0500   31.5270   46.7740 C   0  0  0  0  0  0  0  0  0  0  0  0
   38.0420   31.6930   48.1280 C   0  0  0  0  0  0  0  0  0  0  0  0
   38.8580   32.7110   48.6180 C   0  0  0  0  0  0  0  0  0  0  0  0
   39.6090   33.4750   47.7470 C   0  0  0  0  0  0  0  0  0  0  0  0
   39.5840   33.2700   46.3870 C   0  0  0  0  0  0  0  0  0  0  0  0
   38.7880   32.2760   45.9030 C   0  0  0  0  0  0  0  0  0  0  0  0
   38.8930   32.8900   49.6920 H   0  0  0  0  0  0  0  0  0  0  0  0
   40.2530   34.2790   48.1350 H   0  0  0  0  0  0  0  0  0  0  0  0
   40.1660   33.8610   45.6950 H   0  0  0  0  0  0  0  0  0  0  0  0
   37.8460   30.0430   49.9960 C   0  0  0  0  0  0  0  0  0  0  0  0
   37.2480   30.8920   49.0640 C   0  0  0  0  0  0  0  0  0  0  0  0
   35.8570   30.9590   49.0510 C   0  0  0  0  0  0  0  0  0  0  0  0
   35.1630   30.2020   49.9360 N   0  0  0  0  0  0  0  0  0  0  0  0
   35.7600   29.4030   50.8090 C   0  0  0  0  0  0  0  0  0  0  0  0
   37.1000   29.3140   50.8490 N   0  0  0  0  0  0  0  0  0  0  0  0
   38.9210   30.0380   49.9530 H   0  0  0  0  0  0  0  0  0  0  0  0
   35.3250   31.5990   48.3530 H   0  0  0  0  0  0  0  0  0  0  0  0
   35.2690   28.7740   51.5400 H   0  0  0  0  0  0  0  0  0  0  0  0
  1  7  1  1  0  0  0
  1 26  1  0  0  0  0
  2  1  1  0  0  0  0
  2  8  1  0  0  0  0
  3 10  1  0  0  0  0
  3 11  1  0  0  0  0
  3  2  1  0  0  0  0
  4  3  1  0  0  0  0
  5  4  1  0  0  0  0
  5  6  1  0  0  0  0
  6 16  1  6  0  0  0
  6  1  1  0  0  0  0
  9  2  1  0  0  0  0
 12  4  1  0  0  0  0
 13  4  1  0  0  0  0
 14  5  1  0  0  0  0
 15  5  1  0  0  0  0
 17 24  1  6  0  0  0
 18 19  1  6  0  0  0
 18  6  1  0  0  0  0
 18 17  1  0  0  0  0
 19 21  1  0  0  0  0
 20 19  1  0  0  0  0
 21 22  1  0  0  0  0
 22 17  1  0  0  0  0
 22 23  1  0  0  0  0
 25 24  1  0  0  0  0
 26 33  1  0  0  0  0
 27 28  1  0  0  0  0
 28 29  1  0  0  0  0
 29 30  2  0  0  0  0
 29 38  1  0  0  0  0
 30 34  1  0  0  0  0
 31 35  1  0  0  0  0
 31 30  1  0  0  0  0
 32 31  2  0  0  0  0
 33 32  1  0  0  0  0
 33 28  2  0  0  0  0
 36 32  1  0  0  0  0
 37 42  1  0  0  0  0
 38 37  2  0  0  0  0
 39 38  1  0  0  0  0
 39 40  2  0  0  0  0
 40 41  1  0  0  0  0
 41 42  2  0  0  0  0
 41 45  1  0  0  0  0
 43 37  1  0  0  0  0
 44 39  1  0  0  0  0
M  END
>  <minimizedAffinity>
-5.79093647

>  <minimizedRMSD>
1.8356539

$$$$
