
 OpenBabel03262520383D

 18 19  0  0  1  0  0  0  0  0999 V2000
   38.9330   24.5710   36.1800 C   0  0  0  0  0  0  0  0  0  0  0  0
   39.8410   23.5080   36.3930 C   0  0  0  0  0  0  0  0  0  0  0  0
   39.7560   22.8110   37.6120 C   0  0  0  0  0  0  0  0  0  0  0  0
   38.8090   23.2020   38.5050 N   0  0  0  0  0  0  0  0  0  0  0  0
   37.9510   24.2320   38.2670 C   0  0  0  0  0  0  0  0  0  0  0  0
   38.0250   24.9070   37.0980 N   0  0  0  0  0  0  0  0  0  0  0  0
   40.5710   23.2480   35.6380 H   0  0  0  0  0  0  0  0  0  0  0  0
   40.4340   22.0020   37.7950 H   0  0  0  0  0  0  0  0  0  0  0  0
   37.2130   24.5220   38.9860 H   0  0  0  0  0  0  0  0  0  0  0  0
   39.6270   26.6900   35.0600 C   0  0  1  0  0  3  0  0  0  0  0  0
   38.9880   25.3210   34.9260 C   0  0  2  0  0  3  0  0  0  0  0  0
   37.6080   25.8110   34.4700 C   0  0  0  0  0  3  0  0  0  0  0  0
   36.9750   24.9950   34.1200 H   0  0  0  0  0  0  0  0  0  0  0  0
   37.8830   26.7740   33.5080 O   0  0  0  0  0  0  0  0  0  0  0  0
   39.1420   27.2820   33.7290 C   0  0  0  0  0  3  0  0  0  0  0  0
   39.8750   26.8720   32.9790 H   0  0  0  0  0  0  0  0  0  0  0  0
   39.0280   27.4470   36.0430 O   0  0  0  0  0  0  0  0  0  0  0  0
   39.5910   27.6540   36.8240 H   0  0  0  0  0  0  0  0  0  0  0  0
  1  2  2  0  0  0  0
  1  6  1  0  0  0  0
  2  3  1  0  0  0  0
  3  8  1  0  0  0  0
  3  4  2  0  0  0  0
  5  4  1  0  0  0  0
  5  9  1  0  0  0  0
  6  5  2  0  0  0  0
  7  2  1  0  0  0  0
 10 17  1  1  0  0  0
 11 10  1  0  0  0  0
 11  1  1  1  0  0  0
 12 11  1  0  0  0  0
 13 12  1  0  0  0  0
 14 15  1  0  0  0  0
 14 12  1  0  0  0  0
 15 10  1  0  0  0  0
 16 15  1  0  0  0  0
 17 18  1  0  0  0  0
M  END
>  <minimizedAffinity>
-3.89118695

$$$$

 OpenBabel03262520383D

 18 19  0  0  1  0  0  0  0  0999 V2000
   38.2930   24.7850   35.1220 C   0  0  0  0  0  0  0  0  0  0  0  0
   37.6630   26.0480   35.0670 C   0  0  0  0  0  0  0  0  0  0  0  0
   37.0300   26.4110   33.8640 C   0  0  0  0  0  0  0  0  0  0  0  0
   37.0670   25.5250   32.8330 N   0  0  0  0  0  0  0  0  0  0  0  0
   37.6850   24.3150   32.9210 C   0  0  0  0  0  0  0  0  0  0  0  0
   38.2940   23.9580   34.0740 N   0  0  0  0  0  0  0  0  0  0  0  0
   37.6710   26.7060   35.9260 H   0  0  0  0  0  0  0  0  0  0  0  0
   36.5460   27.3640   33.7990 H   0  0  0  0  0  0  0  0  0  0  0  0
   37.7000   23.6340   32.0960 H   0  0  0  0  0  0  0  0  0  0  0  0
   39.2950   22.8910   36.4010 C   0  0  1  0  0  3  0  0  0  0  0  0
   38.9620   24.3700   36.3550 C   0  0  2  0  0  3  0  0  0  0  0  0
   38.0220   24.3790   37.5680 C   0  0  0  0  0  3  0  0  0  0  0  0
   37.7620   25.3910   37.8800 H   0  0  0  0  0  0  0  0  0  0  0  0
   38.6930   23.6380   38.5310 O   0  0  0  0  0  0  0  0  0  0  0  0
   39.5710   22.7820   37.9080 C   0  0  0  0  0  3  0  0  0  0  0  0
   40.6290   23.1560   38.0070 H   0  0  0  0  0  0  0  0  0  0  0  0
   38.1890   22.1030   36.1700 O   0  0  0  0  0  0  0  0  0  0  0  0
   38.2090   21.5750   35.3380 H   0  0  0  0  0  0  0  0  0  0  0  0
  2  1  1  0  0  0  0
  2  7  1  0  0  0  0
  3  2  2  0  0  0  0
  4  5  2  0  0  0  0
  4  3  1  0  0  0  0
  5  6  1  0  0  0  0
  6  1  2  0  0  0  0
  8  3  1  0  0  0  0
  9  5  1  0  0  0  0
 10 17  1  1  0  0  0
 10 15  1  0  0  0  0
 11  1  1  6  0  0  0
 11 10  1  0  0  0  0
 11 12  1  0  0  0  0
 12 13  1  0  0  0  0
 12 14  1  0  0  0  0
 15 16  1  0  0  0  0
 15 14  1  0  0  0  0
 18 17  1  0  0  0  0
M  END
>  <minimizedAffinity>
-3.62584472

$$$$

 OpenBabel03262520383D

 18 19  0  0  1  0  0  0  0  0999 V2000
   36.0590   23.0290   31.7080 C   0  0  0  0  0  0  0  0  0  0  0  0
   35.4220   24.1740   31.1790 C   0  0  0  0  0  0  0  0  0  0  0  0
   35.9410   25.4330   31.5340 C   0  0  0  0  0  0  0  0  0  0  0  0
   37.0190   25.4670   32.3610 N   0  0  0  0  0  0  0  0  0  0  0  0
   37.6080   24.3430   32.8540 C   0  0  0  0  0  0  0  0  0  0  0  0
   37.1160   23.1290   32.5170 N   0  0  0  0  0  0  0  0  0  0  0  0
   34.5660   24.0760   30.5250 H   0  0  0  0  0  0  0  0  0  0  0  0
   35.4750   26.3150   31.1450 H   0  0  0  0  0  0  0  0  0  0  0  0
   38.4560   24.3950   33.5040 H   0  0  0  0  0  0  0  0  0  0  0  0
   34.8900   20.9800   32.5220 C   0  0  1  0  0  3  0  0  0  0  0  0
   35.5500   21.7020   31.3630 C   0  0  2  0  0  3  0  0  0  0  0  0
   36.6720   20.6810   31.1320 C   0  0  0  0  0  3  0  0  0  0  0  0
   37.2180   20.8700   30.2070 H   0  0  0  0  0  0  0  0  0  0  0  0
   36.0340   19.4490   31.1790 O   0  0  0  0  0  0  0  0  0  0  0  0
   34.8790   19.5700   31.9160 C   0  0  0  0  0  3  0  0  0  0  0  0
   33.9760   19.5830   31.2420 H   0  0  0  0  0  0  0  0  0  0  0  0
   35.7160   20.9040   33.6230 O   0  0  0  0  0  0  0  0  0  0  0  0
   35.4190   21.4090   34.4140 H   0  0  0  0  0  0  0  0  0  0  0  0
  1  6  1  0  0  0  0
  2  3  1  0  0  0  0
  2  1  2  0  0  0  0
  3  4  2  0  0  0  0
  4  5  1  0  0  0  0
  5  9  1  0  0  0  0
  6  5  2  0  0  0  0
  7  2  1  0  0  0  0
  8  3  1  0  0  0  0
 10 17  1  1  0  0  0
 11  1  1  1  0  0  0
 11 10  1  0  0  0  0
 12 14  1  0  0  0  0
 12 11  1  0  0  0  0
 13 12  1  0  0  0  0
 14 15  1  0  0  0  0
 15 10  1  0  0  0  0
 16 15  1  0  0  0  0
 17 18  1  0  0  0  0
M  END
>  <minimizedAffinity>
-3.5451355

$$$$

 OpenBabel03262520383D

 18 19  0  0  1  0  0  0  0  0999 V2000
   38.1470   25.4780   34.9760 C   0  0  0  0  0  0  0  0  0  0  0  0
   37.6790   26.7480   35.3830 C   0  0  0  0  0  0  0  0  0  0  0  0
   36.9590   27.5100   34.4450 C   0  0  0  0  0  0  0  0  0  0  0  0
   36.7590   26.9770   33.2100 N   0  0  0  0  0  0  0  0  0  0  0  0
   37.2250   25.7500   32.8520 C   0  0  0  0  0  0  0  0  0  0  0  0
   37.9180   25.0100   33.7470 N   0  0  0  0  0  0  0  0  0  0  0  0
   37.8730   27.1120   36.3830 H   0  0  0  0  0  0  0  0  0  0  0  0
   36.5940   28.4750   34.7310 H   0  0  0  0  0  0  0  0  0  0  0  0
   37.0560   25.3510   31.8730 H   0  0  0  0  0  0  0  0  0  0  0  0
   39.0290   23.2030   35.5000 C   0  0  1  0  0  3  0  0  0  0  0  0
   38.9000   24.6540   35.9220 C   0  0  2  0  0  3  0  0  0  0  0  0
   38.1290   24.3950   37.2230 C   0  0  0  0  0  3  0  0  0  0  0  0
   38.0520   25.2890   37.8420 H   0  0  0  0  0  0  0  0  0  0  0  0
   38.8060   23.3410   37.8210 O   0  0  0  0  0  0  0  0  0  0  0  0
   39.4720   22.6270   36.8520 C   0  0  0  0  0  3  0  0  0  0  0  0
   40.5760   22.8510   36.8810 H   0  0  0  0  0  0  0  0  0  0  0  0
   37.8040   22.6290   35.2370 O   0  0  0  0  0  0  0  0  0  0  0  0
   37.6470   22.3720   34.2990 H   0  0  0  0  0  0  0  0  0  0  0  0
  1  2  1  0  0  0  0
  2  7  1  0  0  0  0
  3  8  1  0  0  0  0
  3  2  2  0  0  0  0
  4  3  1  0  0  0  0
  5  4  2  0  0  0  0
  5  6  1  0  0  0  0
  6  1  2  0  0  0  0
  9  5  1  0  0  0  0
 10 17  1  1  0  0  0
 10 11  1  0  0  0  0
 10 15  1  0  0  0  0
 11  1  1  6  0  0  0
 11 12  1  0  0  0  0
 12 14  1  0  0  0  0
 12 13  1  0  0  0  0
 15 16  1  0  0  0  0
 15 14  1  0  0  0  0
 18 17  1  0  0  0  0
M  END
>  <minimizedAffinity>
-3.45114183

$$$$

 OpenBabel03262520383D

 18 19  0  0  1  0  0  0  0  0999 V2000
   37.0550   25.5540   32.7600 C   0  0  0  0  0  0  0  0  0  0  0  0
   36.7840   24.2310   32.3450 C   0  0  0  0  0  0  0  0  0  0  0  0
   35.8570   24.0500   31.3020 C   0  0  0  0  0  0  0  0  0  0  0  0
   35.2830   25.1580   30.7610 N   0  0  0  0  0  0  0  0  0  0  0  0
   35.5680   26.4200   31.1870 C   0  0  0  0  0  0  0  0  0  0  0  0
   36.4580   26.6020   32.1880 N   0  0  0  0  0  0  0  0  0  0  0  0
   37.2770   23.3930   32.8180 H   0  0  0  0  0  0  0  0  0  0  0  0
   35.6350   23.0570   30.9700 H   0  0  0  0  0  0  0  0  0  0  0  0
   35.1020   27.2770   30.7460 H   0  0  0  0  0  0  0  0  0  0  0  0
   37.3920   26.3790   35.0910 C   0  0  1  0  0  3  0  0  0  0  0  0
   38.0130   25.7840   33.8410 C   0  0  2  0  0  3  0  0  0  0  0  0
   38.9690   26.9480   33.5450 C   0  0  0  0  0  3  0  0  0  0  0  0
   39.6900   26.7000   32.7650 H   0  0  0  0  0  0  0  0  0  0  0  0
   39.5370   27.2490   34.7750 O   0  0  0  0  0  0  0  0  0  0  0  0
   38.6890   26.8350   35.7750 C   0  0  0  0  0  3  0  0  0  0  0  0
   39.0740   25.8920   36.2590 H   0  0  0  0  0  0  0  0  0  0  0  0
   36.6900   27.5330   34.8220 O   0  0  0  0  0  0  0  0  0  0  0  0
   35.7170   27.4810   34.9620 H   0  0  0  0  0  0  0  0  0  0  0  0
  2  1  1  0  0  0  0
  2  7  1  0  0  0  0
  3  2  2  0  0  0  0
  4  5  2  0  0  0  0
  4  3  1  0  0  0  0
  5  6  1  0  0  0  0
  6  1  2  0  0  0  0
  8  3  1  0  0  0  0
  9  5  1  0  0  0  0
 10 17  1  6  0  0  0
 10 15  1  0  0  0  0
 11  1  1  6  0  0  0
 11 10  1  0  0  0  0
 12 11  1  0  0  0  0
 12 14  1  0  0  0  0
 13 12  1  0  0  0  0
 14 15  1  0  0  0  0
 15 16  1  0  0  0  0
 17 18  1  0  0  0  0
M  END
>  <minimizedAffinity>
-3.40086985

$$$$

 OpenBabel03262520383D

 18 19  0  0  1  0  0  0  0  0999 V2000
   38.0640   22.7360   34.8560 C   0  0  0  0  0  0  0  0  0  0  0  0
   37.2850   21.7840   34.1590 C   0  0  0  0  0  0  0  0  0  0  0  0
   37.1020   21.9750   32.7770 C   0  0  0  0  0  0  0  0  0  0  0  0
   37.6830   23.0610   32.2020 N   0  0  0  0  0  0  0  0  0  0  0  0
   38.4270   23.9600   32.9050 C   0  0  0  0  0  0  0  0  0  0  0  0
   38.6090   23.7830   34.2330 N   0  0  0  0  0  0  0  0  0  0  0  0
   36.8510   20.9410   34.6800 H   0  0  0  0  0  0  0  0  0  0  0  0
   36.5160   21.2670   32.2290 H   0  0  0  0  0  0  0  0  0  0  0  0
   38.8750   24.8080   32.4300 H   0  0  0  0  0  0  0  0  0  0  0  0
   37.6180   23.6480   37.1360 C   0  0  1  0  0  3  0  0  0  0  0  0
   38.2790   22.5730   36.2930 C   0  0  2  0  0  3  0  0  0  0  0  0
   39.7230   22.8790   36.7130 C   0  0  0  0  0  3  0  0  0  0  0  0
   40.4220   22.1120   36.3760 H   0  0  0  0  0  0  0  0  0  0  0  0
   39.6580   23.0280   38.0910 O   0  0  0  0  0  0  0  0  0  0  0  0
   38.3780   23.3890   38.4440 C   0  0  0  0  0  3  0  0  0  0  0  0
   37.8290   22.5150   38.8960 H   0  0  0  0  0  0  0  0  0  0  0  0
   37.9850   24.9150   36.7390 O   0  0  0  0  0  0  0  0  0  0  0  0
   37.2640   25.4670   36.3580 H   0  0  0  0  0  0  0  0  0  0  0  0
  2  7  1  0  0  0  0
  2  1  2  0  0  0  0
  3  2  1  0  0  0  0
  4  3  2  0  0  0  0
  4  5  1  0  0  0  0
  5  6  2  0  0  0  0
  6  1  1  0  0  0  0
  8  3  1  0  0  0  0
  9  5  1  0  0  0  0
 10 17  1  6  0  0  0
 10 15  1  0  0  0  0
 11  1  1  6  0  0  0
 11 12  1  0  0  0  0
 11 10  1  0  0  0  0
 12 14  1  0  0  0  0
 13 12  1  0  0  0  0
 14 15  1  0  0  0  0
 15 16  1  0  0  0  0
 18 17  1  0  0  0  0
M  END
>  <minimizedAffinity>
-3.39715028

$$$$

 OpenBabel03262520383D

 18 19  0  0  1  0  0  0  0  0999 V2000
   37.2780   25.4570   32.9290 C   0  0  0  0  0  0  0  0  0  0  0  0
   36.3000   25.8820   32.0010 C   0  0  0  0  0  0  0  0  0  0  0  0
   35.6800   24.8970   31.2100 C   0  0  0  0  0  0  0  0  0  0  0  0
   36.0600   23.6040   31.3890 N   0  0  0  0  0  0  0  0  0  0  0  0
   37.0070   23.2310   32.2930 C   0  0  0  0  0  0  0  0  0  0  0  0
   37.6070   24.1710   33.0580 N   0  0  0  0  0  0  0  0  0  0  0  0
   36.0440   26.9290   31.9100 H   0  0  0  0  0  0  0  0  0  0  0  0
   34.9360   25.1950   30.5000 H   0  0  0  0  0  0  0  0  0  0  0  0
   37.2900   22.2060   32.4150 H   0  0  0  0  0  0  0  0  0  0  0  0
   38.6120   25.8600   35.0000 C   0  0  1  0  0  3  0  0  0  0  0  0
   37.9460   26.4500   33.7710 C   0  0  2  0  0  3  0  0  0  0  0  0
   36.9560   27.3520   34.5200 C   0  0  0  0  0  3  0  0  0  0  0  0
   36.4470   28.0490   33.8520 H   0  0  0  0  0  0  0  0  0  0  0  0
   37.7190   27.9590   35.5070 O   0  0  0  0  0  0  0  0  0  0  0  0
   38.8100   27.1670   35.7810 C   0  0  0  0  0  3  0  0  0  0  0  0
   39.7440   27.6030   35.3270 H   0  0  0  0  0  0  0  0  0  0  0  0
   37.7360   25.1080   35.7520 O   0  0  0  0  0  0  0  0  0  0  0  0
   37.9310   24.1430   35.7930 H   0  0  0  0  0  0  0  0  0  0  0  0
  1  6  1  0  0  0  0
  2  1  2  0  0  0  0
  3  4  2  0  0  0  0
  3  2  1  0  0  0  0
  4  5  1  0  0  0  0
  5  9  1  0  0  0  0
  5  6  2  0  0  0  0
  7  2  1  0  0  0  0
  8  3  1  0  0  0  0
 10 17  1  1  0  0  0
 10 15  1  0  0  0  0
 11  1  1  1  0  0  0
 11 12  1  0  0  0  0
 11 10  1  0  0  0  0
 12 14  1  0  0  0  0
 13 12  1  0  0  0  0
 14 15  1  0  0  0  0
 16 15  1  0  0  0  0
 17 18  1  0  0  0  0
M  END
>  <minimizedAffinity>
-3.39243841

$$$$

 OpenBabel03262520383D

 18 19  0  0  1  0  0  0  0  0999 V2000
   36.8880   27.8620   33.6580 C   0  0  0  0  0  0  0  0  0  0  0  0
   36.9830   28.2260   32.2950 C   0  0  0  0  0  0  0  0  0  0  0  0
   36.2910   29.3770   31.8760 C   0  0  0  0  0  0  0  0  0  0  0  0
   35.5760   30.0640   32.8070 N   0  0  0  0  0  0  0  0  0  0  0  0
   35.5060   29.6840   34.1120 C   0  0  0  0  0  0  0  0  0  0  0  0
   36.1690   28.5800   34.5240 N   0  0  0  0  0  0  0  0  0  0  0  0
   37.5700   27.6330   31.6070 H   0  0  0  0  0  0  0  0  0  0  0  0
   36.3480   29.6720   30.8490 H   0  0  0  0  0  0  0  0  0  0  0  0
   34.9360   30.2420   34.8270 H   0  0  0  0  0  0  0  0  0  0  0  0
   37.8920   26.6930   35.6200 C   0  0  1  0  0  3  0  0  0  0  0  0
   37.5930   26.6720   34.1340 C   0  0  2  0  0  3  0  0  0  0  0  0
   39.0510   26.6210   33.6580 C   0  0  0  0  0  3  0  0  0  0  0  0
   39.1300   26.4160   32.5900 H   0  0  0  0  0  0  0  0  0  0  0  0
   39.6450   25.6640   34.4690 O   0  0  0  0  0  0  0  0  0  0  0  0
   38.9340   25.5660   35.6430 C   0  0  0  0  0  3  0  0  0  0  0  0
   38.3060   24.6300   35.6510 H   0  0  0  0  0  0  0  0  0  0  0  0
   38.5700   27.8320   35.9970 O   0  0  0  0  0  0  0  0  0  0  0  0
   38.0770   28.4430   36.5910 H   0  0  0  0  0  0  0  0  0  0  0  0
  1  6  1  0  0  0  0
  2  1  2  0  0  0  0
  3  2  1  0  0  0  0
  3  4  2  0  0  0  0
  4  5  1  0  0  0  0
  5  6  2  0  0  0  0
  5  9  1  0  0  0  0
  7  2  1  0  0  0  0
  8  3  1  0  0  0  0
 10 15  1  0  0  0  0
 10 17  1  6  0  0  0
 11  1  1  6  0  0  0
 11 10  1  0  0  0  0
 12 11  1  0  0  0  0
 12 14  1  0  0  0  0
 13 12  1  0  0  0  0
 14 15  1  0  0  0  0
 15 16  1  0  0  0  0
 17 18  1  0  0  0  0
M  END
>  <minimizedAffinity>
-3.37225795

$$$$

 OpenBabel03262520383D

 18 19  0  0  1  0  0  0  0  0999 V2000
   38.5360   23.9420   36.0610 C   0  0  0  0  0  0  0  0  0  0  0  0
   37.6650   24.4390   37.0570 C   0  0  0  0  0  0  0  0  0  0  0  0
   37.9280   24.0810   38.3930 C   0  0  0  0  0  0  0  0  0  0  0  0
   39.0000   23.2820   38.6380 N   0  0  0  0  0  0  0  0  0  0  0  0
   39.8190   22.8210   37.6530 C   0  0  0  0  0  0  0  0  0  0  0  0
   39.5740   23.1610   36.3670 N   0  0  0  0  0  0  0  0  0  0  0  0
   36.8290   25.0710   36.7920 H   0  0  0  0  0  0  0  0  0  0  0  0
   37.2820   24.4450   39.1640 H   0  0  0  0  0  0  0  0  0  0  0  0
   40.6580   22.1930   37.8710 H   0  0  0  0  0  0  0  0  0  0  0  0
   39.5670   24.4830   33.8540 C   0  0  1  0  0  3  0  0  0  0  0  0
   38.2980   24.2920   34.6610 C   0  0  2  0  0  3  0  0  0  0  0  0
   37.7620   25.7190   34.4920 C   0  0  0  0  0  3  0  0  0  0  0  0
   36.7330   25.8180   34.8410 H   0  0  0  0  0  0  0  0  0  0  0  0
   37.9370   25.9970   33.1430 O   0  0  0  0  0  0  0  0  0  0  0  0
   38.9470   25.2050   32.6490 C   0  0  0  0  0  3  0  0  0  0  0  0
   38.5260   24.3630   32.0300 H   0  0  0  0  0  0  0  0  0  0  0  0
   40.4180   25.3970   34.4360 O   0  0  0  0  0  0  0  0  0  0  0  0
   41.2720   25.0340   34.7660 H   0  0  0  0  0  0  0  0  0  0  0  0
  1  6  2  0  0  0  0
  1  2  1  0  0  0  0
  2  3  2  0  0  0  0
  3  4  1  0  0  0  0
  3  8  1  0  0  0  0
  5  9  1  0  0  0  0
  5  4  2  0  0  0  0
  6  5  1  0  0  0  0
  7  2  1  0  0  0  0
 10 17  1  1  0  0  0
 10 11  1  0  0  0  0
 11  1  1  1  0  0  0
 12 11  1  0  0  0  0
 12 13  1  0  0  0  0
 14 12  1  0  0  0  0
 15 14  1  0  0  0  0
 15 10  1  0  0  0  0
 16 15  1  0  0  0  0
 17 18  1  0  0  0  0
M  END
>  <minimizedAffinity>
-3.36436701

$$$$
