REMARK  Name = 
REMARK  7 active torsions:
REMARK  status: ('A' for Active; 'I' for Inactive)
REMARK    1  A    between atoms: C_1  and  O_8
REMARK    2  A    between atoms: C_5  and  C_7
REMARK    3  A    between atoms: O_8  and  C_10
REMARK    4  A    between atoms: C_13  and  S_15
REMARK    5  A    between atoms: S_15  and  C_16
REMARK    6  A    between atoms: C_16  and  C_31
REMARK    7  A    between atoms: O_27  and  C_28
REMARK                            x       y       z     vdW  Elec       q    Type
REMARK                         _______ _______ _______ _____ _____    ______ ____
ROOT
ATOM      1  C   UNL     1      38.098  30.367  49.417  0.00  0.00    +0.000 A 
ATOM      2  C   UNL     1      37.976  31.056  48.197  0.00  0.00    +0.000 A 
ATOM      3  C   UNL     1      36.800  30.878  47.459  0.00  0.00    +0.000 A 
ATOM      4  N   UNL     1      35.863  30.050  47.978  0.00  0.00    +0.000 NA
ATOM      5  C   UNL     1      36.032  29.422  49.139  0.00  0.00    +0.000 A 
ATOM      6  N   UNL     1      37.160  29.555  49.909  0.00  0.00    +0.000 NA
ATOM      7  H   UNL     1      38.976  30.435  50.074  0.00  0.00    +0.000 HD
ATOM      8  H   UNL     1      36.762  31.421  46.548  0.00  0.00    +0.000 HD
ENDROOT
BRANCH   2   9
ATOM      9  O   UNL     1      39.025  31.836  47.854  0.00  0.00    +0.000 OA
BRANCH   9  10
ATOM     10  C   UNL     1      39.485  31.787  46.522  0.00  0.00    +0.000 A 
ATOM     11  C   UNL     1      39.788  30.677  45.778  0.00  0.00    +0.000 A 
ATOM     12  C   UNL     1      40.216  30.822  44.512  0.00  0.00    +0.000 A 
ATOM     13  C   UNL     1      40.337  32.089  44.002  0.00  0.00    +0.000 A 
ATOM     14  C   UNL     1      40.031  33.203  44.755  0.00  0.00    +0.000 A 
ATOM     15  N   UNL     1      39.603  33.014  46.026  0.00  0.00    +0.000 NA
ATOM     16  H   UNL     1      39.632  29.747  46.349  0.00  0.00    +0.000 HD
ATOM     17  H   UNL     1      40.442  29.916  43.967  0.00  0.00    +0.000 HD
ATOM     18  H   UNL     1      40.687  32.175  42.971  0.00  0.00    +0.000 HD
BRANCH  14  19
ATOM     19  C   UNL     1      40.179  34.583  44.152  0.00  0.00    +0.000 C 
ATOM     20  H   UNL     1      39.663  35.313  44.786  0.00  0.00    +0.000 HD
ATOM     21  H   UNL     1      41.261  34.824  44.239  0.00  0.00    +0.000 HD
ATOM     22  H   UNL     1      39.855  34.602  43.090  0.00  0.00    +0.000 HD
ENDBRANCH  14  19
ENDBRANCH   9  10
ENDBRANCH   2   9
BRANCH   5  23
ATOM     23  S   UNL     1      34.546  28.413  49.473  0.00  0.00    +0.000 S 
BRANCH  23  24
ATOM     24  C   UNL     1      33.551  29.448  50.597  0.00  0.00    +0.000 C 
ATOM     25  H   UNL     1      33.355  30.452  50.179  0.00  0.00    +0.000 HD
ATOM     26  H   UNL     1      32.608  28.904  50.859  0.00  0.00    +0.000 HD
BRANCH  24  30
ATOM     27  C   UNL     1      36.409  29.217  52.917  0.00  0.00    +0.000 C 
ATOM     28  C   UNL     1      35.418  28.541  51.996  0.00  0.00    +0.000 C 
ATOM     29  H   UNL     1      35.899  28.431  51.000  0.00  0.00    +0.000 HD
ATOM     30  C   UNL     1      34.315  29.567  51.900  0.00  0.00    +0.000 C 
ATOM     31  O   UNL     1      35.026  30.766  51.880  0.00  0.00    +0.000 OA
ATOM     32  C   UNL     1      36.031  30.679  52.826  0.00  0.00    +0.000 C 
ATOM     33  H   UNL     1      35.645  31.067  53.781  0.00  0.00    +0.000 HD
BRANCH  27  34
ATOM     34  O   UNL     1      37.721  29.076  52.447  0.00  0.00    +0.000 OA
ATOM     35  H   UNL     1      37.727  28.293  51.838  0.00  0.00    +0.000 HD
ENDBRANCH  27  34
ENDBRANCH  24  30
ENDBRANCH  23  24
ENDBRANCH   5  23
TORSDOF 7
