
 OpenBabel03262521203D

 29 30  0  0  1  0  0  0  0  0999 V2000
   35.4770   29.2880   33.9290 C   0  0  0  0  0  0  0  0  0  0  0  0
   35.1740   29.2250   32.5830 C   0  0  0  0  0  0  0  0  0  0  0  0
   35.8300   28.2980   31.7510 C   0  0  0  0  0  0  0  0  0  0  0  0
   36.7570   27.4940   32.3570 N   0  0  0  0  0  0  0  0  0  0  0  0
   37.0300   27.5850   33.6890 C   0  0  0  0  0  0  0  0  0  0  0  0
   36.4070   28.4560   34.4490 N   0  0  0  0  0  0  0  0  0  0  0  0
   34.4500   29.8330   32.0440 H   0  0  0  0  0  0  0  0  0  0  0  0
   35.6200   28.2190   30.6940 H   0  0  0  0  0  0  0  0  0  0  0  0
   38.0600   26.5720   35.7330 C   0  0  1  0  0  3  0  0  0  0  0  0
   38.0530   26.6570   34.2170 C   0  0  1  0  0  3  0  0  0  0  0  0
   37.8330   25.2230   33.8590 C   0  0  0  0  0  3  0  0  0  0  0  0
   36.7630   25.0500   33.7140 H   0  0  0  0  0  0  0  0  0  0  0  0
   38.3650   24.4350   34.8640 O   0  0  0  0  0  0  0  0  0  0  0  0
   38.7750   25.2500   35.9070 C   0  0  0  0  0  3  0  0  0  0  0  0
   38.5920   24.7770   36.8710 H   0  0  0  0  0  0  0  0  0  0  0  0
   38.8160   27.5920   36.2910 O   0  0  0  0  0  0  0  0  0  0  0  0
   39.5100   27.8620   35.6240 H   0  0  0  0  0  0  0  0  0  0  0  0
   34.7430   30.2490   34.5910 O   0  0  0  0  0  0  0  0  0  0  0  0
   35.3050   31.5080   34.6860 C   0  0  0  0  0  0  0  0  0  0  0  0
   36.1760   31.5360   33.9800 H   0  0  0  0  0  0  0  0  0  0  0  0
   34.6560   32.3420   34.3440 H   0  0  0  0  0  0  0  0  0  0  0  0
   35.6270   31.4930   35.9990 C   0  0  0  0  0  0  0  0  0  0  0  0
   35.4370   30.4630   36.4300 H   0  0  0  0  0  0  0  0  0  0  0  0
   36.7190   31.6050   36.2290 H   0  0  0  0  0  0  0  0  0  0  0  0
   34.9100   32.4600   36.8820 C   0  0  0  0  0  0  0  0  0  0  0  0
   34.8610   33.4910   36.4200 H   0  0  0  0  0  0  0  0  0  0  0  0
   35.4120   32.6460   37.8620 H   0  0  0  0  0  0  0  0  0  0  0  0
   33.2260   31.9580   37.2410 S   0  0  0  0  0  0  0  0  0  0  0  0
   33.0130   30.6530   36.7650 H   0  0  0  0  0  0  0  0  0  0  0  0
  1  6  1  0  0  0  0
  1 18  1  0  0  0  0
  2  1  2  0  0  0  0
  3  4  2  0  0  0  0
  3  2  1  0  0  0  0
  4  5  1  0  0  0  0
  5  6  2  0  0  0  0
  7  2  1  0  0  0  0
  8  3  1  0  0  0  0
  9 14  1  0  0  0  0
  9 16  1  1  0  0  0
 10  5  1  1  0  0  0
 10  9  1  0  0  0  0
 11 10  1  0  0  0  0
 11 13  1  0  0  0  0
 12 11  1  0  0  0  0
 13 14  1  0  0  0  0
 14 15  1  0  0  0  0
 17 16  1  0  0  0  0
 18 19  1  0  0  0  0
 19 22  1  0  0  0  0
 20 19  1  0  0  0  0
 21 19  1  0  0  0  0
 22 24  1  0  0  0  0
 22 23  1  0  0  0  0
 22 25  1  0  0  0  0
 25 28  1  0  0  0  0
 25 27  1  0  0  0  0
 26 25  1  0  0  0  0
 29 28  1  0  0  0  0
M  END
>  <minimizedAffinity>
-4.31104708

$$$$

 OpenBabel03262521203D

 29 30  0  0  1  0  0  0  0  0999 V2000
   39.5610   22.8210   36.8830 C   0  0  0  0  0  0  0  0  0  0  0  0
   39.1690   22.9630   38.2000 C   0  0  0  0  0  0  0  0  0  0  0  0
   38.3350   24.0310   38.5800 C   0  0  0  0  0  0  0  0  0  0  0  0
   37.9560   24.8860   37.5820 N   0  0  0  0  0  0  0  0  0  0  0  0
   38.3630   24.7150   36.2930 C   0  0  0  0  0  0  0  0  0  0  0  0
   39.1420   23.7120   35.9570 N   0  0  0  0  0  0  0  0  0  0  0  0
   39.4340   22.3190   39.0360 H   0  0  0  0  0  0  0  0  0  0  0  0
   38.0060   24.1740   39.6000 H   0  0  0  0  0  0  0  0  0  0  0  0
   38.8040   26.9080   35.1700 C   0  0  1  0  0  3  0  0  0  0  0  0
   37.8820   25.7110   35.3100 C   0  0  1  0  0  3  0  0  0  0  0  0
   37.8460   25.2200   33.8990 C   0  0  0  0  0  3  0  0  0  0  0  0
   38.6050   24.4440   33.7700 H   0  0  0  0  0  0  0  0  0  0  0  0
   38.0440   26.3000   33.0570 O   0  0  0  0  0  0  0  0  0  0  0  0
   38.3530   27.4160   33.8190 C   0  0  0  0  0  3  0  0  0  0  0  0
   39.0900   28.0420   33.3170 H   0  0  0  0  0  0  0  0  0  0  0  0
   38.5420   27.8620   36.1420 O   0  0  0  0  0  0  0  0  0  0  0  0
   37.5830   27.7730   36.4110 H   0  0  0  0  0  0  0  0  0  0  0  0
   40.3750   21.7250   36.6890 O   0  0  0  0  0  0  0  0  0  0  0  0
   41.4490   21.5850   37.5470 C   0  0  0  0  0  0  0  0  0  0  0  0
   41.3350   22.3610   38.3500 H   0  0  0  0  0  0  0  0  0  0  0  0
   41.4860   20.6260   38.1060 H   0  0  0  0  0  0  0  0  0  0  0  0
   42.4490   21.8090   36.6660 C   0  0  0  0  0  0  0  0  0  0  0  0
   42.1490   22.6280   35.9430 H   0  0  0  0  0  0  0  0  0  0  0  0
   43.3810   22.2600   37.0970 H   0  0  0  0  0  0  0  0  0  0  0  0
   42.8890   20.6500   35.8330 C   0  0  0  0  0  0  0  0  0  0  0  0
   43.7990   20.9030   35.2130 H   0  0  0  0  0  0  0  0  0  0  0  0
   42.1420   20.3260   35.0680 H   0  0  0  0  0  0  0  0  0  0  0  0
   43.2970   19.2040   36.8120 S   0  0  0  0  0  0  0  0  0  0  0  0
   42.9230   19.4220   38.1510 H   0  0  0  0  0  0  0  0  0  0  0  0
  1  2  1  0  0  0  0
  2  3  2  0  0  0  0
  2  7  1  0  0  0  0
  3  8  1  0  0  0  0
  4  3  1  0  0  0  0
  5  4  2  0  0  0  0
  6  5  1  0  0  0  0
  6  1  2  0  0  0  0
  9 10  1  0  0  0  0
  9 16  1  1  0  0  0
 10  5  1  1  0  0  0
 11 10  1  0  0  0  0
 12 11  1  0  0  0  0
 13 14  1  0  0  0  0
 13 11  1  0  0  0  0
 14  9  1  0  0  0  0
 15 14  1  0  0  0  0
 16 17  1  0  0  0  0
 18  1  1  0  0  0  0
 18 19  1  0  0  0  0
 19 21  1  0  0  0  0
 19 20  1  0  0  0  0
 22 24  1  0  0  0  0
 22 19  1  0  0  0  0
 23 22  1  0  0  0  0
 25 22  1  0  0  0  0
 25 28  1  0  0  0  0
 26 25  1  0  0  0  0
 27 25  1  0  0  0  0
 28 29  1  0  0  0  0
M  END
>  <minimizedAffinity>
-4.23279381

$$$$

 OpenBabel03262521203D

 29 30  0  0  1  0  0  0  0  0999 V2000
   38.8020   24.1660   36.0060 C   0  0  0  0  0  0  0  0  0  0  0  0
   38.0930   23.9970   37.1790 C   0  0  0  0  0  0  0  0  0  0  0  0
   38.6610   23.2900   38.2550 C   0  0  0  0  0  0  0  0  0  0  0  0
   39.9240   22.8020   38.0580 N   0  0  0  0  0  0  0  0  0  0  0  0
   40.5940   22.9890   36.8860 C   0  0  0  0  0  0  0  0  0  0  0  0
   40.0470   23.6520   35.8930 N   0  0  0  0  0  0  0  0  0  0  0  0
   37.0900   24.3600   37.3970 H   0  0  0  0  0  0  0  0  0  0  0  0
   38.1370   23.1380   39.1880 H   0  0  0  0  0  0  0  0  0  0  0  0
   41.9710   20.9000   36.9570 C   0  0  1  0  0  3  0  0  0  0  0  0
   41.9520   22.4100   36.8030 C   0  0  1  0  0  3  0  0  0  0  0  0
   42.6090   22.5610   35.4690 C   0  0  0  0  0  3  0  0  0  0  0  0
   41.8390   22.6130   34.6940 H   0  0  0  0  0  0  0  0  0  0  0  0
   43.4750   21.4980   35.2860 O   0  0  0  0  0  0  0  0  0  0  0  0
   43.3140   20.6000   36.3290 C   0  0  0  0  0  3  0  0  0  0  0  0
   43.4150   19.5720   35.9820 H   0  0  0  0  0  0  0  0  0  0  0  0
   41.9850   20.5310   38.2950 O   0  0  0  0  0  0  0  0  0  0  0  0
   42.4120   21.2710   38.8140 H   0  0  0  0  0  0  0  0  0  0  0  0
   38.0980   24.8810   35.0600 O   0  0  0  0  0  0  0  0  0  0  0  0
   37.6870   26.1520   35.4160 C   0  0  0  0  0  0  0  0  0  0  0  0
   36.6700   26.3090   34.9700 H   0  0  0  0  0  0  0  0  0  0  0  0
   37.5290   26.3100   36.5040 H   0  0  0  0  0  0  0  0  0  0  0  0
   38.6840   26.8600   34.8420 C   0  0  0  0  0  0  0  0  0  0  0  0
   38.7390   27.8930   35.3060 H   0  0  0  0  0  0  0  0  0  0  0  0
   39.7220   26.4930   35.0550 H   0  0  0  0  0  0  0  0  0  0  0  0
   38.6050   27.0640   33.3650 C   0  0  0  0  0  0  0  0  0  0  0  0
   38.8710   26.1220   32.7990 H   0  0  0  0  0  0  0  0  0  0  0  0
   39.3310   27.8130   32.9650 H   0  0  0  0  0  0  0  0  0  0  0  0
   36.9740   27.5700   32.8180 S   0  0  0  0  0  0  0  0  0  0  0  0
   36.1710   27.8550   33.9360 H   0  0  0  0  0  0  0  0  0  0  0  0
  1  2  1  0  0  0  0
  2  7  1  0  0  0  0
  2  3  2  0  0  0  0
  3  8  1  0  0  0  0
  4  3  1  0  0  0  0
  5  4  2  0  0  0  0
  6  1  2  0  0  0  0
  6  5  1  0  0  0  0
  9 16  1  1  0  0  0
 10  5  1  6  0  0  0
 10  9  1  0  0  0  0
 11 10  1  0  0  0  0
 12 11  1  0  0  0  0
 13 11  1  0  0  0  0
 13 14  1  0  0  0  0
 14  9  1  0  0  0  0
 15 14  1  0  0  0  0
 16 17  1  0  0  0  0
 18 19  1  0  0  0  0
 18  1  1  0  0  0  0
 19 21  1  0  0  0  0
 20 19  1  0  0  0  0
 22 24  1  0  0  0  0
 22 23  1  0  0  0  0
 22 19  1  0  0  0  0
 25 22  1  0  0  0  0
 26 25  1  0  0  0  0
 27 25  1  0  0  0  0
 28 25  1  0  0  0  0
 28 29  1  0  0  0  0
M  END
>  <minimizedAffinity>
-4.14685917

$$$$

 OpenBabel03262521203D

 29 30  0  0  1  0  0  0  0  0999 V2000
   36.4190   23.5590   31.8090 C   0  0  0  0  0  0  0  0  0  0  0  0
   35.4860   24.1990   31.0170 C   0  0  0  0  0  0  0  0  0  0  0  0
   35.3430   25.5970   31.0780 C   0  0  0  0  0  0  0  0  0  0  0  0
   36.1700   26.2500   31.9510 N   0  0  0  0  0  0  0  0  0  0  0  0
   37.0790   25.5850   32.7170 C   0  0  0  0  0  0  0  0  0  0  0  0
   37.1980   24.2790   32.6460 N   0  0  0  0  0  0  0  0  0  0  0  0
   34.8030   23.7370   30.3060 H   0  0  0  0  0  0  0  0  0  0  0  0
   34.6250   26.1330   30.4740 H   0  0  0  0  0  0  0  0  0  0  0  0
   37.1360   26.9910   34.7880 C   0  0  1  0  0  3  0  0  0  0  0  0
   37.9120   26.4110   33.6190 C   0  0  1  0  0  3  0  0  0  0  0  0
   38.9790   25.6540   34.3420 C   0  0  0  0  0  3  0  0  0  0  0  0
   38.6600   24.6150   34.4650 H   0  0  0  0  0  0  0  0  0  0  0  0
   39.2160   26.2820   35.5520 O   0  0  0  0  0  0  0  0  0  0  0  0
   38.2830   27.2920   35.7270 C   0  0  0  0  0  3  0  0  0  0  0  0
   37.9840   27.3740   36.7710 H   0  0  0  0  0  0  0  0  0  0  0  0
   36.4980   28.1700   34.4330 O   0  0  0  0  0  0  0  0  0  0  0  0
   37.0170   28.5900   33.6890 H   0  0  0  0  0  0  0  0  0  0  0  0
   36.4230   22.1920   31.6220 O   0  0  0  0  0  0  0  0  0  0  0  0
   36.6180   21.4100   32.7450 C   0  0  0  0  0  0  0  0  0  0  0  0
   37.3300   20.5910   32.4590 H   0  0  0  0  0  0  0  0  0  0  0  0
   37.1220   21.9190   33.5940 H   0  0  0  0  0  0  0  0  0  0  0  0
   35.3400   21.0180   32.9480 C   0  0  0  0  0  0  0  0  0  0  0  0
   35.2170   20.6420   34.0100 H   0  0  0  0  0  0  0  0  0  0  0  0
   34.5770   21.8390   32.9400 H   0  0  0  0  0  0  0  0  0  0  0  0
   34.8120   19.9440   32.0550 C   0  0  0  0  0  0  0  0  0  0  0  0
   35.1030   20.1170   30.9770 H   0  0  0  0  0  0  0  0  0  0  0  0
   33.6970   19.8910   32.0120 H   0  0  0  0  0  0  0  0  0  0  0  0
   35.3990   18.3110   32.5090 S   0  0  0  0  0  0  0  0  0  0  0  0
   36.0790   18.3800   33.7370 H   0  0  0  0  0  0  0  0  0  0  0  0
  1  6  1  0  0  0  0
  2  3  1  0  0  0  0
  2  1  2  0  0  0  0
  3  4  2  0  0  0  0
  4  5  1  0  0  0  0
  6  5  2  0  0  0  0
  7  2  1  0  0  0  0
  8  3  1  0  0  0  0
  9 16  1  6  0  0  0
  9 14  1  0  0  0  0
 10  5  1  1  0  0  0
 10 11  1  0  0  0  0
 10  9  1  0  0  0  0
 11 12  1  0  0  0  0
 11 13  1  0  0  0  0
 13 14  1  0  0  0  0
 14 15  1  0  0  0  0
 17 16  1  0  0  0  0
 18  1  1  0  0  0  0
 18 19  1  0  0  0  0
 19 22  1  0  0  0  0
 19 21  1  0  0  0  0
 20 19  1  0  0  0  0
 22 23  1  0  0  0  0
 24 22  1  0  0  0  0
 25 28  1  0  0  0  0
 25 22  1  0  0  0  0
 26 25  1  0  0  0  0
 27 25  1  0  0  0  0
 28 29  1  0  0  0  0
M  END
>  <minimizedAffinity>
-4.14195299

$$$$

 OpenBabel03262521203D

 29 30  0  0  1  0  0  0  0  0999 V2000
   37.4870   23.2000   33.0310 C   0  0  0  0  0  0  0  0  0  0  0  0
   36.5710   22.5880   32.1990 C   0  0  0  0  0  0  0  0  0  0  0  0
   35.7880   23.3570   31.3180 C   0  0  0  0  0  0  0  0  0  0  0  0
   35.9970   24.7090   31.3480 N   0  0  0  0  0  0  0  0  0  0  0  0
   36.9110   25.2780   32.1830 C   0  0  0  0  0  0  0  0  0  0  0  0
   37.6320   24.5440   32.9990 N   0  0  0  0  0  0  0  0  0  0  0  0
   36.3590   21.5220   32.1280 H   0  0  0  0  0  0  0  0  0  0  0  0
   35.0610   22.9140   30.6520 H   0  0  0  0  0  0  0  0  0  0  0  0
   35.9560   27.4090   31.2820 C   0  0  1  0  0  3  0  0  0  0  0  0
   37.0390   26.7500   32.1160 C   0  0  1  0  0  3  0  0  0  0  0  0
   36.8460   27.4490   33.4240 C   0  0  0  0  0  3  0  0  0  0  0  0
   36.1870   26.8480   34.0570 H   0  0  0  0  0  0  0  0  0  0  0  0
   36.3330   28.7090   33.1730 O   0  0  0  0  0  0  0  0  0  0  0  0
   36.0430   28.8190   31.8220 C   0  0  0  0  0  3  0  0  0  0  0  0
   35.1400   29.4070   31.6610 H   0  0  0  0  0  0  0  0  0  0  0  0
   36.2840   27.4020   29.9340 O   0  0  0  0  0  0  0  0  0  0  0  0
   37.2810   27.3850   29.8600 H   0  0  0  0  0  0  0  0  0  0  0  0
   38.1650   22.3000   33.8260 O   0  0  0  0  0  0  0  0  0  0  0  0
   37.5530   21.9260   35.0070 C   0  0  0  0  0  0  0  0  0  0  0  0
   36.5020   22.3150   34.9730 H   0  0  0  0  0  0  0  0  0  0  0  0
   37.4280   20.8310   35.1500 H   0  0  0  0  0  0  0  0  0  0  0  0
   38.3740   22.5580   35.8750 C   0  0  0  0  0  0  0  0  0  0  0  0
   38.8850   21.7990   36.5440 H   0  0  0  0  0  0  0  0  0  0  0  0
   39.2700   23.0530   35.4180 H   0  0  0  0  0  0  0  0  0  0  0  0
   37.7510   23.5680   36.7810 C   0  0  0  0  0  0  0  0  0  0  0  0
   36.6340   23.4230   36.8640 H   0  0  0  0  0  0  0  0  0  0  0  0
   37.8440   24.6230   36.4250 H   0  0  0  0  0  0  0  0  0  0  0  0
   38.4180   23.5160   38.4450 S   0  0  0  0  0  0  0  0  0  0  0  0
   39.5290   22.6550   38.4800 H   0  0  0  0  0  0  0  0  0  0  0  0
  1 18  1  0  0  0  0
  2  1  2  0  0  0  0
  3  4  2  0  0  0  0
  3  2  1  0  0  0  0
  4  5  1  0  0  0  0
  5  6  2  0  0  0  0
  6  1  1  0  0  0  0
  7  2  1  0  0  0  0
  8  3  1  0  0  0  0
  9 16  1  6  0  0  0
  9 14  1  0  0  0  0
  9 10  1  0  0  0  0
 10  5  1  1  0  0  0
 10 11  1  0  0  0  0
 11 12  1  0  0  0  0
 13 11  1  0  0  0  0
 14 13  1  0  0  0  0
 15 14  1  0  0  0  0
 17 16  1  0  0  0  0
 18 19  1  0  0  0  0
 19 21  1  0  0  0  0
 19 22  1  0  0  0  0
 20 19  1  0  0  0  0
 22 23  1  0  0  0  0
 22 25  1  0  0  0  0
 24 22  1  0  0  0  0
 25 26  1  0  0  0  0
 25 28  1  0  0  0  0
 27 25  1  0  0  0  0
 28 29  1  0  0  0  0
M  END
>  <minimizedAffinity>
-4.09208822

$$$$

 OpenBabel03262521203D

 29 30  0  0  1  0  0  0  0  0999 V2000
   37.3110   26.9630   34.5650 C   0  0  0  0  0  0  0  0  0  0  0  0
   37.7650   26.7730   33.2740 C   0  0  0  0  0  0  0  0  0  0  0  0
   38.4320   25.5840   32.9250 C   0  0  0  0  0  0  0  0  0  0  0  0
   38.5890   24.6640   33.9250 N   0  0  0  0  0  0  0  0  0  0  0  0
   38.1270   24.8850   35.1880 C   0  0  0  0  0  0  0  0  0  0  0  0
   37.5070   26.0010   35.4950 N   0  0  0  0  0  0  0  0  0  0  0  0
   37.6710   27.4630   32.4380 H   0  0  0  0  0  0  0  0  0  0  0  0
   38.8010   25.3990   31.9260 H   0  0  0  0  0  0  0  0  0  0  0  0
   39.8260   23.4340   36.3160 C   0  0  1  0  0  3  0  0  0  0  0  0
   38.3620   23.8090   36.1750 C   0  0  1  0  0  3  0  0  0  0  0  0
   38.0330   24.1800   37.5850 C   0  0  0  0  0  3  0  0  0  0  0  0
   38.1530   25.2590   37.7090 H   0  0  0  0  0  0  0  0  0  0  0  0
   38.8540   23.4550   38.4300 O   0  0  0  0  0  0  0  0  0  0  0  0
   39.7840   22.7620   37.6710 C   0  0  0  0  0  3  0  0  0  0  0  0
   40.7510   22.7260   38.1710 H   0  0  0  0  0  0  0  0  0  0  0  0
   40.2060   22.5160   35.3480 O   0  0  0  0  0  0  0  0  0  0  0  0
   39.3950   21.9950   35.0820 H   0  0  0  0  0  0  0  0  0  0  0  0
   36.6830   28.1790   34.7310 O   0  0  0  0  0  0  0  0  0  0  0  0
   35.9590   28.6600   33.6560 C   0  0  0  0  0  0  0  0  0  0  0  0
   36.6870   29.1580   32.9630 H   0  0  0  0  0  0  0  0  0  0  0  0
   35.4780   27.8830   33.0250 H   0  0  0  0  0  0  0  0  0  0  0  0
   35.1310   29.4960   34.3210 C   0  0  0  0  0  0  0  0  0  0  0  0
   34.0750   29.3880   33.9240 H   0  0  0  0  0  0  0  0  0  0  0  0
   34.9620   29.2500   35.4010 H   0  0  0  0  0  0  0  0  0  0  0  0
   35.4560   30.9530   34.2670 C   0  0  0  0  0  0  0  0  0  0  0  0
   34.6000   31.5570   33.8450 H   0  0  0  0  0  0  0  0  0  0  0  0
   36.3060   31.2080   33.5890 H   0  0  0  0  0  0  0  0  0  0  0  0
   35.8470   31.6380   35.8780 S   0  0  0  0  0  0  0  0  0  0  0  0
   35.9500   30.5990   36.8190 H   0  0  0  0  0  0  0  0  0  0  0  0
  1 18  1  0  0  0  0
  1  6  1  0  0  0  0
  2  1  2  0  0  0  0
  3  2  1  0  0  0  0
  3  4  2  0  0  0  0
  4  5  1  0  0  0  0
  5  6  2  0  0  0  0
  7  2  1  0  0  0  0
  8  3  1  0  0  0  0
  9 16  1  6  0  0  0
  9 14  1  0  0  0  0
 10  5  1  6  0  0  0
 10  9  1  0  0  0  0
 10 11  1  0  0  0  0
 11 12  1  0  0  0  0
 11 13  1  0  0  0  0
 14 15  1  0  0  0  0
 14 13  1  0  0  0  0
 17 16  1  0  0  0  0
 19 22  1  0  0  0  0
 19 18  1  0  0  0  0
 20 19  1  0  0  0  0
 21 19  1  0  0  0  0
 22 24  1  0  0  0  0
 23 22  1  0  0  0  0
 25 22  1  0  0  0  0
 25 28  1  0  0  0  0
 26 25  1  0  0  0  0
 27 25  1  0  0  0  0
 28 29  1  0  0  0  0
M  END
>  <minimizedAffinity>
-4.03155899

$$$$

 OpenBabel03262521203D

 29 30  0  0  1  0  0  0  0  0999 V2000
   37.5560   26.1970   33.6800 C   0  0  0  0  0  0  0  0  0  0  0  0
   37.6490   27.4370   34.2810 C   0  0  0  0  0  0  0  0  0  0  0  0
   37.9880   27.5420   35.6420 C   0  0  0  0  0  0  0  0  0  0  0  0
   38.2090   26.3630   36.3020 N   0  0  0  0  0  0  0  0  0  0  0  0
   38.1080   25.1570   35.6760 C   0  0  0  0  0  0  0  0  0  0  0  0
   37.7910   25.0800   34.4040 N   0  0  0  0  0  0  0  0  0  0  0  0
   37.4870   28.4060   33.8120 H   0  0  0  0  0  0  0  0  0  0  0  0
   38.0710   28.4940   36.1470 H   0  0  0  0  0  0  0  0  0  0  0  0
   39.7950   23.4450   36.3760 C   0  0  1  0  0  3  0  0  0  0  0  0
   38.3730   23.9600   36.5040 C   0  0  1  0  0  3  0  0  0  0  0  0
   38.2940   24.1970   37.9780 C   0  0  0  0  0  3  0  0  0  0  0  0
   38.5420   25.2410   38.1860 H   0  0  0  0  0  0  0  0  0  0  0  0
   39.1520   23.3130   38.6080 O   0  0  0  0  0  0  0  0  0  0  0  0
   39.8830   22.6310   37.6480 C   0  0  0  0  0  3  0  0  0  0  0  0
   40.9040   22.4540   37.9840 H   0  0  0  0  0  0  0  0  0  0  0  0
   39.9320   22.6130   35.2750 O   0  0  0  0  0  0  0  0  0  0  0  0
   39.0410   22.1970   35.0900 H   0  0  0  0  0  0  0  0  0  0  0  0
   37.2160   26.2790   32.3460 O   0  0  0  0  0  0  0  0  0  0  0  0
   37.3550   25.1270   31.5950 C   0  0  0  0  0  0  0  0  0  0  0  0
   38.0280   25.3730   30.7320 H   0  0  0  0  0  0  0  0  0  0  0  0
   37.8720   24.2880   32.1070 H   0  0  0  0  0  0  0  0  0  0  0  0
   36.0560   24.9300   31.2750 C   0  0  0  0  0  0  0  0  0  0  0  0
   35.3900   25.4450   32.0340 H   0  0  0  0  0  0  0  0  0  0  0  0
   35.7090   25.4330   30.3350 H   0  0  0  0  0  0  0  0  0  0  0  0
   35.5880   23.5140   31.1930 C   0  0  0  0  0  0  0  0  0  0  0  0
   35.5590   23.1460   30.1250 H   0  0  0  0  0  0  0  0  0  0  0  0
   34.5390   23.3570   31.5440 H   0  0  0  0  0  0  0  0  0  0  0  0
   36.6260   22.3820   32.1180 S   0  0  0  0  0  0  0  0  0  0  0  0
   37.5520   23.1130   32.8840 H   0  0  0  0  0  0  0  0  0  0  0  0
  1  2  2  0  0  0  0
  1  6  1  0  0  0  0
  2  3  1  0  0  0  0
  3  8  1  0  0  0  0
  3  4  2  0  0  0  0
  5  4  1  0  0  0  0
  6  5  2  0  0  0  0
  7  2  1  0  0  0  0
  9 16  1  6  0  0  0
  9 10  1  0  0  0  0
  9 14  1  0  0  0  0
 10  5  1  6  0  0  0
 10 11  1  0  0  0  0
 11 12  1  0  0  0  0
 11 13  1  0  0  0  0
 14 15  1  0  0  0  0
 14 13  1  0  0  0  0
 17 16  1  0  0  0  0
 18  1  1  0  0  0  0
 19 21  1  0  0  0  0
 19 18  1  0  0  0  0
 20 19  1  0  0  0  0
 22 19  1  0  0  0  0
 22 23  1  0  0  0  0
 24 22  1  0  0  0  0
 25 22  1  0  0  0  0
 25 27  1  0  0  0  0
 25 28  1  0  0  0  0
 26 25  1  0  0  0  0
 28 29  1  0  0  0  0
M  END
>  <minimizedAffinity>
-4.02950668

$$$$

 OpenBabel03262521203D

 29 30  0  0  1  0  0  0  0  0999 V2000
   38.1320   23.1280   32.5780 C   0  0  0  0  0  0  0  0  0  0  0  0
   39.4300   23.4640   32.2460 C   0  0  0  0  0  0  0  0  0  0  0  0
   40.3910   23.6620   33.2560 C   0  0  0  0  0  0  0  0  0  0  0  0
   39.9570   23.5010   34.5430 N   0  0  0  0  0  0  0  0  0  0  0  0
   38.6670   23.1680   34.8320 C   0  0  0  0  0  0  0  0  0  0  0  0
   37.7850   22.9880   33.8770 N   0  0  0  0  0  0  0  0  0  0  0  0
   39.8360   23.6060   31.2460 H   0  0  0  0  0  0  0  0  0  0  0  0
   41.4160   23.9260   33.0350 H   0  0  0  0  0  0  0  0  0  0  0  0
   39.5480   22.9340   37.1630 C   0  0  1  0  0  3  0  0  0  0  0  0
   38.3280   23.0240   36.2650 C   0  0  1  0  0  3  0  0  0  0  0  0
   37.6330   24.2070   36.8580 C   0  0  0  0  0  3  0  0  0  0  0  0
   37.9290   25.1070   36.3120 H   0  0  0  0  0  0  0  0  0  0  0  0
   37.9550   24.2740   38.2020 O   0  0  0  0  0  0  0  0  0  0  0  0
   38.9170   23.3170   38.4840 C   0  0  0  0  0  3  0  0  0  0  0  0
   39.6310   23.6830   39.2210 H   0  0  0  0  0  0  0  0  0  0  0  0
   40.0280   21.6340   37.2320 O   0  0  0  0  0  0  0  0  0  0  0  0
   39.2620   21.0130   37.0630 H   0  0  0  0  0  0  0  0  0  0  0  0
   37.3270   22.9730   31.4700 O   0  0  0  0  0  0  0  0  0  0  0  0
   36.9850   21.6790   31.1230 C   0  0  0  0  0  0  0  0  0  0  0  0
   37.3490   21.5100   30.0750 H   0  0  0  0  0  0  0  0  0  0  0  0
   37.4890   20.8830   31.7120 H   0  0  0  0  0  0  0  0  0  0  0  0
   35.6440   21.7750   31.2600 C   0  0  0  0  0  0  0  0  0  0  0  0
   35.3480   22.8590   31.4020 H   0  0  0  0  0  0  0  0  0  0  0  0
   35.0460   21.5260   30.3440 H   0  0  0  0  0  0  0  0  0  0  0  0
   35.0240   21.0160   32.3860 C   0  0  0  0  0  0  0  0  0  0  0  0
   33.9390   21.2960   32.5310 H   0  0  0  0  0  0  0  0  0  0  0  0
   35.4760   21.2280   33.3860 H   0  0  0  0  0  0  0  0  0  0  0  0
   35.0870   19.2400   32.1470 S   0  0  0  0  0  0  0  0  0  0  0  0
   35.8890   18.9440   31.0310 H   0  0  0  0  0  0  0  0  0  0  0  0
  1  6  1  0  0  0  0
  2  1  2  0  0  0  0
  2  3  1  0  0  0  0
  3  4  2  0  0  0  0
  4  5  1  0  0  0  0
  6  5  2  0  0  0  0
  7  2  1  0  0  0  0
  8  3  1  0  0  0  0
  9 16  1  1  0  0  0
  9 14  1  0  0  0  0
 10  5  1  6  0  0  0
 10 11  1  0  0  0  0
 10  9  1  0  0  0  0
 11 13  1  0  0  0  0
 12 11  1  0  0  0  0
 13 14  1  0  0  0  0
 14 15  1  0  0  0  0
 17 16  1  0  0  0  0
 18  1  1  0  0  0  0
 19 22  1  0  0  0  0
 19 18  1  0  0  0  0
 19 21  1  0  0  0  0
 20 19  1  0  0  0  0
 22 23  1  0  0  0  0
 22 25  1  0  0  0  0
 24 22  1  0  0  0  0
 25 26  1  0  0  0  0
 25 27  1  0  0  0  0
 28 25  1  0  0  0  0
 29 28  1  0  0  0  0
M  END
>  <minimizedAffinity>
-3.98936892

$$$$

 OpenBabel03262521203D

 29 30  0  0  1  0  0  0  0  0999 V2000
   39.0730   23.7560   32.9530 C   0  0  0  0  0  0  0  0  0  0  0  0
   40.1430   22.9500   32.6200 C   0  0  0  0  0  0  0  0  0  0  0  0
   40.7080   22.0900   33.5810 C   0  0  0  0  0  0  0  0  0  0  0  0
   40.1360   22.1140   34.8230 N   0  0  0  0  0  0  0  0  0  0  0  0
   39.0790   22.9230   35.1150 C   0  0  0  0  0  0  0  0  0  0  0  0
   38.5650   23.7190   34.2050 N   0  0  0  0  0  0  0  0  0  0  0  0
   40.6400   22.8860   31.6540 H   0  0  0  0  0  0  0  0  0  0  0  0
   41.5460   21.4440   33.3580 H   0  0  0  0  0  0  0  0  0  0  0  0
   39.6320   22.9980   37.5550 C   0  0  1  0  0  3  0  0  0  0  0  0
   38.5540   22.8510   36.4960 C   0  0  1  0  0  3  0  0  0  0  0  0
   37.6420   23.9740   36.8700 C   0  0  0  0  0  3  0  0  0  0  0  0
   37.9030   24.8590   36.2830 H   0  0  0  0  0  0  0  0  0  0  0  0
   37.7530   24.1910   38.2320 O   0  0  0  0  0  0  0  0  0  0  0  0
   38.7730   23.3980   38.7340 C   0  0  0  0  0  3  0  0  0  0  0  0
   39.3210   23.9150   39.5200 H   0  0  0  0  0  0  0  0  0  0  0  0
   40.2500   21.7840   37.8150 O   0  0  0  0  0  0  0  0  0  0  0  0
   39.5980   21.0550   37.6080 H   0  0  0  0  0  0  0  0  0  0  0  0
   38.6470   24.5320   31.8950 O   0  0  0  0  0  0  0  0  0  0  0  0
   37.9370   23.8910   30.8970 C   0  0  0  0  0  0  0  0  0  0  0  0
   38.5290   23.9960   29.9500 H   0  0  0  0  0  0  0  0  0  0  0  0
   37.8280   22.7930   31.0250 H   0  0  0  0  0  0  0  0  0  0  0  0
   36.8000   24.6200   30.9500 C   0  0  0  0  0  0  0  0  0  0  0  0
   36.9460   25.5120   31.6340 H   0  0  0  0  0  0  0  0  0  0  0  0
   36.5190   25.1450   30.0000 H   0  0  0  0  0  0  0  0  0  0  0  0
   35.5690   23.9200   31.4240 C   0  0  0  0  0  0  0  0  0  0  0  0
   34.6930   24.1010   30.7340 H   0  0  0  0  0  0  0  0  0  0  0  0
   35.1910   24.2770   32.4130 H   0  0  0  0  0  0  0  0  0  0  0  0
   35.7850   22.1440   31.5540 S   0  0  0  0  0  0  0  0  0  0  0  0
   37.1400   21.8200   31.3630 H   0  0  0  0  0  0  0  0  0  0  0  0
  1  6  1  0  0  0  0
  2  1  2  0  0  0  0
  2  3  1  0  0  0  0
  3  4  2  0  0  0  0
  4  5  1  0  0  0  0
  6  5  2  0  0  0  0
  7  2  1  0  0  0  0
  8  3  1  0  0  0  0
  9 16  1  1  0  0  0
  9 14  1  0  0  0  0
 10  5  1  6  0  0  0
 10 11  1  0  0  0  0
 10  9  1  0  0  0  0
 11 13  1  0  0  0  0
 12 11  1  0  0  0  0
 13 14  1  0  0  0  0
 14 15  1  0  0  0  0
 17 16  1  0  0  0  0
 18  1  1  0  0  0  0
 19 22  1  0  0  0  0
 19 21  1  0  0  0  0
 19 18  1  0  0  0  0
 20 19  1  0  0  0  0
 22 25  1  0  0  0  0
 22 23  1  0  0  0  0
 24 22  1  0  0  0  0
 25 28  1  0  0  0  0
 25 27  1  0  0  0  0
 26 25  1  0  0  0  0
 29 28  1  0  0  0  0
M  END
>  <minimizedAffinity>
-3.96349788

$$$$
