
 OpenBabel03272504333D

 40 43  0  0  1  0  0  0  0  0999 V2000
   35.0630   29.6090   47.5730 C   0  0  0  0  0  0  0  0  0  0  0  0
   35.2200   30.0370   46.2540 C   0  0  0  0  0  0  0  0  0  0  0  0
   34.1810   29.8730   45.3560 C   0  0  0  0  0  0  0  0  0  0  0  0
   33.0270   29.2880   45.8090 N   0  0  0  0  0  0  0  0  0  0  0  0
   32.9090   28.8850   47.0940 C   0  0  0  0  0  0  0  0  0  0  0  0
   33.9230   29.0450   47.9730 N   0  0  0  0  0  0  0  0  0  0  0  0
   36.1510   30.4880   45.9630 H   0  0  0  0  0  0  0  0  0  0  0  0
   34.2830   30.1930   44.3440 H   0  0  0  0  0  0  0  0  0  0  0  0
   36.1050   29.7540   48.5460 N   0  0  0  0  0  0  0  0  0  0  0  0
   36.1860   28.8910   49.7130 C   0  0  0  0  0  0  0  0  0  0  0  0
   36.4960   29.5980   50.9900 C   0  0  0  0  0  0  0  0  0  0  0  0
   37.2250   30.8040   50.9290 N   0  0  0  0  0  0  0  0  0  0  0  0
   36.9360   31.6000   49.7450 C   0  0  0  0  0  0  0  0  0  0  0  0
   37.1610   30.6900   48.5520 C   0  0  0  0  0  0  0  0  0  0  0  0
   35.2120   28.3450   49.8120 H   0  0  0  0  0  0  0  0  0  0  0  0
   36.9240   28.0960   49.4870 H   0  0  0  0  0  0  0  0  0  0  0  0
   35.5290   29.7500   51.5460 H   0  0  0  0  0  0  0  0  0  0  0  0
   37.0710   28.8670   51.6320 H   0  0  0  0  0  0  0  0  0  0  0  0
   36.9350   31.4060   51.7570 H   0  0  0  0  0  0  0  0  0  0  0  0
   37.7480   32.3750   49.6810 H   0  0  0  0  0  0  0  0  0  0  0  0
   35.9610   32.0840   49.7490 H   0  0  0  0  0  0  0  0  0  0  0  0
   37.2120   31.2780   47.5990 H   0  0  0  0  0  0  0  0  0  0  0  0
   38.1330   30.1980   48.6930 H   0  0  0  0  0  0  0  0  0  0  0  0
   31.6670   28.2690   47.5370 C   0  0  0  0  0  0  0  0  0  0  0  0
   31.6790   27.0640   48.2080 C   0  0  0  0  0  0  0  0  0  0  0  0
   30.5290   26.4290   48.6540 C   0  0  0  0  0  0  0  0  0  0  0  0
   29.3640   27.0800   48.3830 N   0  0  0  0  0  0  0  0  0  0  0  0
   29.3650   28.2440   47.7320 C   0  0  0  0  0  0  0  0  0  0  0  0
   30.4940   28.8700   47.2940 N   0  0  0  0  0  0  0  0  0  0  0  0
   32.6460   26.6260   48.3770 H   0  0  0  0  0  0  0  0  0  0  0  0
   30.6570   25.4870   49.1700 H   0  0  0  0  0  0  0  0  0  0  0  0
   27.4750   29.2660   48.8890 C   0  0  1  0  0  0  0  0  0  0  0  0
   28.0060   28.8100   47.5240 C   0  0  2  0  0  0  0  0  0  0  0  0
   26.9960   27.7380   47.2020 C   0  0  0  0  0  0  0  0  0  0  0  0
   27.4500   27.0240   46.4820 H   0  0  0  0  0  0  0  0  0  0  0  0
   26.6740   27.1330   48.4050 O   0  0  0  0  0  0  0  0  0  0  0  0
   26.9230   27.9980   49.4400 C   0  0  0  0  0  0  0  0  0  0  0  0
   27.6370   27.5320   50.1650 H   0  0  0  0  0  0  0  0  0  0  0  0
   28.4990   29.8100   49.6510 O   0  0  0  0  0  0  0  0  0  0  0  0
   28.7090   30.7050   49.2930 H   0  0  0  0  0  0  0  0  0  0  0  0
  1  6  1  0  0  0  0
  1  9  1  0  0  0  0
  2  1  2  0  0  0  0
  3  4  2  0  0  0  0
  3  2  1  0  0  0  0
  4  5  1  0  0  0  0
  5 24  1  0  0  0  0
  5  6  2  0  0  0  0
  7  2  1  0  0  0  0
  8  3  1  0  0  0  0
  9 14  1  0  0  0  0
  9 10  1  0  0  0  0
 10 15  1  0  0  0  0
 10 11  1  0  0  0  0
 11 17  1  0  0  0  0
 11 18  1  0  0  0  0
 12 11  1  0  0  0  0
 12 19  1  0  0  0  0
 13 21  1  0  0  0  0
 13 12  1  0  0  0  0
 14 23  1  0  0  0  0
 14 13  1  0  0  0  0
 16 10  1  0  0  0  0
 20 13  1  0  0  0  0
 22 14  1  0  0  0  0
 24 25  1  0  0  0  0
 25 30  1  0  0  0  0
 25 26  2  0  0  0  0
 26 31  1  0  0  0  0
 27 26  1  0  0  0  0
 28 27  2  0  0  0  0
 29 24  2  0  0  0  0
 29 28  1  0  0  0  0
 32 37  1  0  0  0  0
 32 39  1  1  0  0  0
 33 28  1  1  0  0  0
 33 32  1  0  0  0  0
 34 33  1  0  0  0  0
 34 36  1  0  0  0  0
 35 34  1  0  0  0  0
 36 37  1  0  0  0  0
 37 38  1  0  0  0  0
 40 39  1  0  0  0  0
M  END
>  <minimizedAffinity>
-5.92534637

>  <minimizedRMSD>
0.628363252

$$$$
