
 OpenBabel03272502323D

 27 28  0  0  1  0  0  0  0  0999 V2000
   37.5450   30.3330   47.5160 C   0  0  2  0  0  0  0  0  0  0  0  0
   37.9920   29.3190   47.6340 H   0  0  0  0  0  0  0  0  0  0  0  0
   38.9600   33.3200   49.2870 C   0  0  2  0  0  0  0  0  0  0  0  0
   39.0190   32.3180   48.1130 C   0  0  0  0  0  0  0  0  0  0  0  0
   38.6980   32.7950   47.1820 H   0  0  0  0  0  0  0  0  0  0  0  0
   38.0390   31.2950   48.5480 C   0  0  1  0  0  0  0  0  0  0  0  0
   36.9970   32.1010   49.0730 O   0  0  0  0  0  0  0  0  0  0  0  0
   37.6960   32.8690   50.0190 C   0  0  0  0  0  0  0  0  0  0  0  0
   37.9330   32.1780   50.8780 H   0  0  0  0  0  0  0  0  0  0  0  0
   38.7690   34.6130   48.7760 O   0  0  0  0  0  0  0  0  0  0  0  0
   37.9270   35.0060   49.1890 H   0  0  0  0  0  0  0  0  0  0  0  0
   38.7750   30.3260   45.4680 C   0  0  0  0  0  0  0  0  0  0  0  0
   37.8650   30.9130   46.1810 C   0  0  0  0  0  0  0  0  0  0  0  0
   40.0900   30.2700   41.9730 C   0  0  0  0  0  0  0  0  0  0  0  0
   39.6760   29.8950   43.2470 C   0  0  0  0  0  0  0  0  0  0  0  0
   39.1690   30.7930   44.1600 C   0  0  0  0  0  0  0  0  0  0  0  0
   39.0840   32.0740   43.7710 N   0  0  0  0  0  0  0  0  0  0  0  0
   39.4890   32.4260   42.5320 C   0  0  0  0  0  0  0  0  0  0  0  0
   39.9810   31.5670   41.6460 N   0  0  0  0  0  0  0  0  0  0  0  0
   40.4930   29.5680   41.2440 H   0  0  0  0  0  0  0  0  0  0  0  0
   39.8100   28.8110   43.4110 H   0  0  0  0  0  0  0  0  0  0  0  0
   39.4320   33.4530   42.1900 H   0  0  0  0  0  0  0  0  0  0  0  0
   35.7300   30.2500   47.6710 S   0  0  0  0  0  0  0  0  0  0  0  0
   35.2550   29.0740   48.9460 C   0  0  0  0  0  0  0  0  0  0  0  0
   34.4140   29.6330   49.9020 F   0  0  0  0  0  0  0  0  0  0  0  0
   34.7260   27.9200   48.4070 F   0  0  0  0  0  0  0  0  0  0  0  0
   36.4430   28.6780   49.6030 F   0  0  0  0  0  0  0  0  0  0  0  0
  1  2  1  1  0  0  0
  1 23  1  0  0  0  0
  3 10  1  6  0  0  0
  3  8  1  0  0  0  0
  4  6  1  0  0  0  0
  4  3  1  0  0  0  0
  5  4  1  0  0  0  0
  6  1  1  6  0  0  0
  6  7  1  0  0  0  0
  7  8  1  0  0  0  0
  8  9  1  0  0  0  0
 10 11  1  0  0  0  0
 12 13  2  0  0  0  0
 13  1  1  0  0  0  0
 14 15  1  0  0  0  0
 15 21  1  0  0  0  0
 15 16  2  0  0  0  0
 16 12  1  0  0  0  0
 17 16  1  0  0  0  0
 18 17  2  0  0  0  0
 19 14  2  0  0  0  0
 19 18  1  0  0  0  0
 20 14  1  0  0  0  0
 22 18  1  0  0  0  0
 23 24  1  0  0  0  0
 24 27  1  0  0  0  0
 24 25  1  0  0  0  0
 26 24  1  0  0  0  0
M  END
>  <minimizedAffinity>
-4.94848394

>  <minimizedRMSD>
3.43748689

$$$$
