
 OpenBabel03272502373D

 30 32  0  0  1  0  0  0  0  0999 V2000
   36.3410   30.0300   48.9620 N   0  0  0  0  0  0  0  0  0  0  0  0
   35.9360   29.4700   50.2370 C   0  0  0  0  0  0  0  0  0  0  0  0
   34.5030   28.9970   49.9560 C   0  0  0  0  0  0  0  0  0  0  0  0
   34.2270   29.3740   48.5320 C   0  0  1  0  0  0  0  0  0  0  0  0
   35.6130   29.2820   47.9360 C   0  0  0  0  0  0  0  0  0  0  0  0
   35.8650   30.2690   51.0050 H   0  0  0  0  0  0  0  0  0  0  0  0
   36.6010   28.6340   50.5270 H   0  0  0  0  0  0  0  0  0  0  0  0
   34.5030   27.9050   50.1350 H   0  0  0  0  0  0  0  0  0  0  0  0
   33.7920   29.4330   50.6810 H   0  0  0  0  0  0  0  0  0  0  0  0
   33.8800   30.4070   48.5160 H   0  0  0  0  0  0  0  0  0  0  0  0
   35.9590   28.2510   47.8570 H   0  0  0  0  0  0  0  0  0  0  0  0
   35.6500   29.8480   46.9950 H   0  0  0  0  0  0  0  0  0  0  0  0
   37.2540   31.0870   48.7370 C   0  0  0  0  0  0  0  0  0  0  0  0
   37.2150   32.1670   49.6160 C   0  0  0  0  0  0  0  0  0  0  0  0
   38.1050   33.2280   49.4220 C   0  0  0  0  0  0  0  0  0  0  0  0
   38.9750   33.1270   48.3540 N   0  0  0  0  0  0  0  0  0  0  0  0
   38.9880   32.0670   47.5200 C   0  0  0  0  0  0  0  0  0  0  0  0
   38.1220   31.0460   47.7180 N   0  0  0  0  0  0  0  0  0  0  0  0
   36.5480   32.2750   50.4600 H   0  0  0  0  0  0  0  0  0  0  0  0
   38.1350   34.1010   50.0620 H   0  0  0  0  0  0  0  0  0  0  0  0
   39.6960   32.0500   46.7010 H   0  0  0  0  0  0  0  0  0  0  0  0
   33.7600   27.3700   47.0630 C   0  0  2  0  0  0  0  0  0  0  0  0
   33.2200   28.5260   47.8440 C   0  0  2  0  0  0  0  0  0  0  0  0
   32.4910   29.2740   46.7500 C   0  0  0  0  0  0  0  0  0  0  0  0
   31.7510   29.9800   47.1480 H   0  0  0  0  0  0  0  0  0  0  0  0
   31.9410   28.3180   45.9160 O   0  0  0  0  0  0  0  0  0  0  0  0
   32.6030   27.1280   46.1040 C   0  0  0  0  0  0  0  0  0  0  0  0
   32.9760   26.8180   45.0990 H   0  0  0  0  0  0  0  0  0  0  0  0
   33.8520   26.2850   47.9170 O   0  0  0  0  0  0  0  0  0  0  0  0
   34.7040   25.8070   47.8000 H   0  0  0  0  0  0  0  0  0  0  0  0
  1  2  1  0  0  0  0
  2  7  1  0  0  0  0
  2  6  1  0  0  0  0
  3  8  1  0  0  0  0
  3  2  1  0  0  0  0
  3  9  1  0  0  0  0
  4 10  1  6  0  0  0
  4  3  1  0  0  0  0
  5  4  1  0  0  0  0
  5  1  1  0  0  0  0
 11  5  1  0  0  0  0
 12  5  1  0  0  0  0
 13  1  1  0  0  0  0
 13 14  1  0  0  0  0
 14 19  1  0  0  0  0
 15 14  2  0  0  0  0
 15 20  1  0  0  0  0
 16 15  1  0  0  0  0
 17 18  1  0  0  0  0
 17 16  2  0  0  0  0
 18 13  2  0  0  0  0
 21 17  1  0  0  0  0
 22 23  1  0  0  0  0
 22 29  1  1  0  0  0
 23 24  1  6  0  0  0
 23  4  1  0  0  0  0
 24 25  1  0  0  0  0
 26 27  1  0  0  0  0
 26 24  1  0  0  0  0
 27 22  1  0  0  0  0
 28 27  1  0  0  0  0
 30 29  1  0  0  0  0
M  END
>  <minimizedAffinity>
-4.58774805

>  <minimizedRMSD>
6.49770451

$$$$
