
 OpenBabel03272506333D

 19 20  0  0  1  0  0  0  0  0999 V2000
   37.4050   29.9040   50.9220 C   0  0  0  0  0  0  0  0  0  0  0  0
   37.9700   31.0280   50.3250 C   0  0  0  0  0  0  0  0  0  0  0  0
   37.5390   31.3950   49.0430 C   0  0  0  0  0  0  0  0  0  0  0  0
   36.5890   30.6340   48.4450 N   0  0  0  0  0  0  0  0  0  0  0  0
   36.0470   29.5330   49.0540 C   0  0  0  0  0  0  0  0  0  0  0  0
   36.4660   29.1890   50.2820 N   0  0  0  0  0  0  0  0  0  0  0  0
   38.7230   31.6850   50.7220 H   0  0  0  0  0  0  0  0  0  0  0  0
   37.9400   32.2570   48.5260 H   0  0  0  0  0  0  0  0  0  0  0  0
   34.2630   29.5120   47.3510 C   0  0  2  0  0  3  0  0  0  0  0  0
   35.0080   28.7060   48.3930 C   0  0  2  0  0  3  0  0  0  0  0  0
   33.8460   28.4170   49.3550 C   0  0  0  0  0  3  0  0  0  0  0  0
   33.4960   29.3620   49.7700 H   0  0  0  0  0  0  0  0  0  0  0  0
   32.8990   27.9520   48.4500 O   0  0  0  0  0  0  0  0  0  0  0  0
   32.9210   28.7950   47.3570 C   0  0  0  0  0  3  0  0  0  0  0  0
   32.9050   28.1960   46.4010 H   0  0  0  0  0  0  0  0  0  0  0  0
   34.8740   29.4900   46.1050 O   0  0  0  0  0  0  0  0  0  0  0  0
   34.4240   30.2340   45.5900 H   0  0  0  0  0  0  0  0  0  0  0  0
   37.9220   29.6580   52.1870 O   0  0  0  0  0  0  0  0  0  0  0  0
   37.6320   30.1630   53.0100 H   0  0  0  0  0  0  0  0  0  0  0  0
  1 18  1  0  0  0  0
  2  7  1  0  0  0  0
  2  1  1  0  0  0  0
  3  2  2  0  0  0  0
  4  3  1  0  0  0  0
  4  5  2  0  0  0  0
  5  6  1  0  0  0  0
  6  1  2  0  0  0  0
  8  3  1  0  0  0  0
  9 16  1  6  0  0  0
  9 14  1  0  0  0  0
  9 10  1  0  0  0  0
 10  5  1  1  0  0  0
 10 11  1  0  0  0  0
 11 12  1  0  0  0  0
 13 11  1  0  0  0  0
 14 13  1  0  0  0  0
 15 14  1  0  0  0  0
 17 16  1  0  0  0  0
 18 19  1  0  0  0  0
M  END
>  <minimizedAffinity>
-4.51157379

>  <minimizedRMSD>
1.38696098

$$$$
