
     RDKit          3D

 23 24  0  0  0  0  0  0  0  0999 V2000
   37.3162   30.0047   51.1756 C   0  0  0  0  0  0  0  0  0  0  0  0
   37.9629   30.9269   50.3476 C   0  0  0  0  0  0  0  0  0  0  0  0
   37.2708   31.3847   49.2348 C   0  0  0  0  0  0  0  0  0  0  0  0
   36.0152   30.9243   49.0019 N   0  0  0  0  0  0  0  0  0  0  0  0
   35.4028   30.0311   49.8135 C   0  0  0  0  0  0  0  0  0  0  0  0
   36.0571   29.5727   50.9010 N   0  0  0  0  0  0  0  0  0  0  0  0
   38.0690   29.5996   52.2577 O   0  0  0  0  0  0  0  0  0  0  0  0
   37.6862   32.0916   48.5443 H   0  0  0  0  0  0  0  0  0  0  0  0
   34.3989   29.7036   49.5711 H   0  0  0  0  0  0  0  0  0  0  0  0
   38.1180   30.1026   53.1244 H   0  0  0  0  0  0  0  0  0  0  0  0
   40.7249   31.2161   48.7180 O   0  0  0  0  0  0  0  0  0  0  0  0
   39.9899   32.1164   49.4649 C   0  0  1  0  0  0  0  0  0  0  0  0
   39.3260   31.4183   50.6121 C   0  0  1  0  0  0  0  0  0  0  0  0
   39.4201   32.4195   51.7069 C   0  0  1  0  0  0  0  0  0  0  0  0
   38.8546   33.3542   51.5370 H   0  0  0  0  0  0  0  0  0  0  0  0
   40.7723   32.8097   51.5615 O   0  0  0  0  0  0  0  0  0  0  0  0
   40.8186   33.1476   50.1937 C   0  0  1  0  0  0  0  0  0  0  0  0
   41.8347   33.2061   49.7946 H   0  0  0  0  0  0  0  0  0  0  0  0
   41.2112   31.6078   47.9760 H   0  0  0  0  0  0  0  0  0  0  0  0
   39.2574   32.6211   48.7927 H   0  0  0  0  0  0  0  0  0  0  0  0
   40.0304   30.5887   50.8897 H   0  0  0  0  0  0  0  0  0  0  0  0
   39.3053   32.0180   52.7242 H   0  0  0  0  0  0  0  0  0  0  0  0
   40.2818   34.1276   50.1375 H   0  0  0  0  0  0  0  0  0  0  0  0
  1  7  1  0
  2  1  2  0
  3  2  1  0
  4  3  2  0
  4  5  1  0
  5  6  2  0
  6  1  1  0
  3  8  1  0
  5  9  1  0
  7 10  1  0
 11 12  1  0
 12 13  1  0
 13 14  1  0
 14 15  1  6
 14 16  1  0
 16 17  1  0
 17 18  1  6
 17 12  1  0
 11 19  1  0
 12 20  1  6
 13 21  1  1
 14 22  1  0
 17 23  1  0
  2 13  1  0
M  ISO  5   8  14   9  14  10   3  15  15  18  16
M  END
>  <DihAtoms>  (1) 
0,1,12,11

>  <DihDeg>  (1) 
90.10317848474459

$$$$
