
 OpenBabel03272502313D

 27 28  0  0  1  0  0  0  0  0999 V2000
   37.8260   30.1820   46.9400 C   0  0  2  0  0  0  0  0  0  0  0  0
   37.9950   29.1120   47.2020 H   0  0  0  0  0  0  0  0  0  0  0  0
   38.1740   32.9430   49.4530 C   0  0  2  0  0  3  0  0  0  0  0  0
   37.7270   32.4670   48.0530 C   0  0  0  0  0  3  0  0  0  0  0  0
   36.6370   32.4120   47.9930 H   0  0  0  0  0  0  0  0  0  0  0  0
   38.3280   31.1120   47.9960 C   0  0  1  0  0  3  0  0  0  0  0  0
   38.0690   30.6290   49.3040 O   0  0  0  0  0  0  0  0  0  0  0  0
   38.6550   31.6380   50.0880 C   0  0  0  0  0  3  0  0  0  0  0  0
   39.7710   31.5100   49.9900 H   0  0  0  0  0  0  0  0  0  0  0  0
   37.0560   33.4200   50.1530 O   0  0  0  0  0  0  0  0  0  0  0  0
   36.9680   32.8990   51.0220 H   0  0  0  0  0  0  0  0  0  0  0  0
   37.8010   31.0630   44.7190 C   0  0  0  0  0  3  0  0  0  0  0  0
   38.5140   30.5410   45.6680 C   0  0  0  0  0  3  0  0  0  0  0  0
   40.0580   31.1100   41.7440 C   0  0  0  0  0  0  0  0  0  0  0  0
   39.4590   30.7860   42.9570 C   0  0  0  0  0  0  0  0  0  0  0  0
   38.3560   31.4520   43.4440 C   0  0  0  0  0  0  0  0  0  0  0  0
   37.8640   32.4470   42.6920 N   0  0  0  0  0  0  0  0  0  0  0  0
   38.4540   32.7530   41.5170 C   0  0  0  0  0  0  0  0  0  0  0  0
   39.5190   32.1190   41.0400 N   0  0  0  0  0  0  0  0  0  0  0  0
   40.9320   30.5920   41.3500 H   0  0  0  0  0  0  0  0  0  0  0  0
   39.9800   29.9480   43.4520 H   0  0  0  0  0  0  0  0  0  0  0  0
   38.0790   33.5520   40.8880 H   0  0  0  0  0  0  0  0  0  0  0  0
   36.0450   30.5100   46.7240 S   0  0  0  0  0  0  0  0  0  0  0  0
   35.1100   29.8820   48.1270 C   0  0  0  0  0  0  0  0  0  0  0  0
   35.0160   30.8040   49.1630 F   0  0  0  0  0  0  0  0  0  0  0  0
   33.8710   29.4080   47.7450 F   0  0  0  0  0  0  0  0  0  0  0  0
   35.8120   28.7570   48.6180 F   0  0  0  0  0  0  0  0  0  0  0  0
  1  2  1  1  0  0  0
  3  8  1  0  0  0  0
  3 10  1  1  0  0  0
  4  3  1  0  0  0  0
  5  4  1  0  0  0  0
  6  1  1  6  0  0  0
  6  4  1  0  0  0  0
  6  7  1  0  0  0  0
  7  8  1  0  0  0  0
  9  8  1  0  0  0  0
 10 11  1  0  0  0  0
 12 13  2  0  0  0  0
 13  1  1  0  0  0  0
 14 15  1  0  0  0  0
 15 16  2  0  0  0  0
 15 21  1  0  0  0  0
 16 12  1  0  0  0  0
 17 16  1  0  0  0  0
 18 17  2  0  0  0  0
 19 18  1  0  0  0  0
 19 14  2  0  0  0  0
 20 14  1  0  0  0  0
 22 18  1  0  0  0  0
 23  1  1  0  0  0  0
 23 24  1  0  0  0  0
 24 27  1  0  0  0  0
 24 25  1  0  0  0  0
 26 24  1  0  0  0  0
M  END
>  <minimizedAffinity>
-3.91328526

>  <minimizedRMSD>
3.73465872

$$$$
