
     RDKit          3D

 49 52  0  0  0  0  0  0  0  0999 V2000
   37.8035   30.2284   47.0562 Cl  0  0  0  0  0  0  0  0  0  0  0  0
   38.3340   31.6807   47.8595 C   0  0  0  0  0  0  0  0  0  0  0  0
   37.8994   31.8968   49.1339 C   0  0  0  0  0  0  0  0  0  0  0  0
   38.3505   33.0694   49.7381 C   0  0  0  0  0  0  0  0  0  0  0  0
   39.1838   33.9259   49.0470 C   0  0  0  0  0  0  0  0  0  0  0  0
   39.5960   33.6656   47.7614 C   0  0  0  0  0  0  0  0  0  0  0  0
   39.1584   32.5214   47.1661 C   0  0  0  0  0  0  0  0  0  0  0  0
   37.4475   30.3040   51.0071 C   0  0  0  0  0  0  0  0  0  0  0  0
   37.0108   30.9989   49.8784 C   0  0  0  0  0  0  0  0  0  0  0  0
   35.6910   30.8127   49.4754 C   0  0  0  0  0  0  0  0  0  0  0  0
   34.9061   29.9738   50.1940 N   0  0  0  0  0  0  0  0  0  0  0  0
   35.3486   29.3272   51.2621 C   0  0  0  0  0  0  0  0  0  0  0  0
   36.6166   29.4830   51.6795 N   0  0  0  0  0  0  0  0  0  0  0  0
   39.5498   32.2269   45.8755 O   0  0  0  0  0  0  0  0  0  0  0  0
   39.3510   32.8947   44.7320 C   0  0  2  0  0  0  0  0  0  0  0  0
   37.9262   32.4574   44.2606 C   0  0  0  0  0  0  0  0  0  0  0  0
   38.0259   31.0330   43.8004 C   0  0  0  0  0  0  0  0  0  0  0  0
   38.7041   31.0135   42.4545 C   0  0  0  0  0  0  0  0  0  0  0  0
   39.5712   32.2232   42.3449 C   0  0  0  0  0  0  0  0  0  0  0  0
   40.2807   32.5106   43.6532 C   0  0  2  0  0  0  0  0  0  0  0  0
   38.0358   33.2948   50.7561 H   0  0  0  0  0  0  0  0  0  0  0  0
   39.5400   34.8519   49.5244 H   0  0  0  0  0  0  0  0  0  0  0  0
   40.2482   34.3279   47.2093 H   0  0  0  0  0  0  0  0  0  0  0  0
   38.4746   30.4920   51.2641 H   0  0  0  0  0  0  0  0  0  0  0  0
   35.2846   31.3221   48.6057 H   0  0  0  0  0  0  0  0  0  0  0  0
   34.7776   28.6453   51.8790 H   0  0  0  0  0  0  0  0  0  0  0  0
   39.1832   33.9801   44.9098 H   0  0  0  0  0  0  0  0  0  0  0  0
   37.2962   32.5194   45.1893 H   0  0  0  0  0  0  0  0  0  0  0  0
   37.5237   33.1369   43.5180 H   0  0  0  0  0  0  0  0  0  0  0  0
   37.0387   30.5239   43.7823 H   0  0  0  0  0  0  0  0  0  0  0  0
   38.7657   30.4370   44.3662 H   0  0  0  0  0  0  0  0  0  0  0  0
   39.1782   30.0633   42.1872 H   0  0  0  0  0  0  0  0  0  0  0  0
   37.8897   31.1517   41.6827 H   0  0  0  0  0  0  0  0  0  0  0  0
   38.9323   33.1203   42.0568 H   0  0  0  0  0  0  0  0  0  0  0  0
   40.3184   32.1776   41.5376 H   0  0  0  0  0  0  0  0  0  0  0  0
   40.7696   33.5248   43.3854 H   0  0  0  0  0  0  0  0  0  0  0  0
   40.4718   30.9800   45.9689 O   0  0  0  0  0  0  0  0  0  0  0  0
   41.6311   31.3201   45.3111 C   0  0  2  0  0  0  0  0  0  0  0  0
   41.3661   31.5718   43.8343 C   0  0  1  0  0  0  0  0  0  0  0  0
   41.1809   30.1317   43.4984 C   0  0  1  0  0  0  0  0  0  0  0  0
   40.2403   29.6641   43.7010 H   0  0  0  0  0  0  0  0  0  0  0  0
   42.3342   29.5523   43.9410 O   0  0  0  0  0  0  0  0  0  0  0  0
   42.5656   30.1007   45.1781 C   0  0  1  0  0  0  0  0  0  0  0  0
   43.6211   30.3980   45.3427 H   0  0  0  0  0  0  0  0  0  0  0  0
   40.5090   30.0693   46.3693 H   0  0  0  0  0  0  0  0  0  0  0  0
   42.2164   32.1344   45.7901 H   0  0  0  0  0  0  0  0  0  0  0  0
   42.3431   31.8769   43.4163 H   0  0  0  0  0  0  0  0  0  0  0  0
   41.2663   30.1080   42.3688 H   0  0  0  0  0  0  0  0  0  0  0  0
   42.2330   29.3739   45.9487 H   0  0  0  0  0  0  0  0  0  0  0  0
  1  2  1  0
  2  3  2  0
  3  4  1  0
  3  9  1  0
  5  4  2  0
  6  5  1  0
  7  6  2  0
  7  2  1  0
  8 13  2  0
  9  8  1  0
 10  9  2  0
 10 11  1  0
 11 12  2  0
 12 13  1  0
 14  7  1  0
 15 14  1  0
 16 15  1  0
 17 16  1  0
 18 17  1  0
 19 18  1  0
 19 20  1  0
 20 15  1  0
  4 21  1  0
  5 22  1  0
  6 23  1  0
  8 24  1  0
 10 25  1  0
 12 26  1  0
 15 27  1  1
 16 28  1  0
 16 29  1  0
 17 30  1  0
 17 31  1  0
 18 32  1  0
 18 33  1  0
 19 34  1  0
 19 35  1  0
 20 36  1  6
 37 38  1  0
 38 39  1  0
 39 40  1  0
 40 41  1  6
 40 42  1  0
 42 43  1  0
 43 44  1  1
 43 38  1  0
 37 45  1  0
 38 46  1  1
 39 47  1  6
 40 48  1  0
 43 49  1  0
 20 39  1  0
M  ISO  8  21  14  22  14  23  14  24  14  25  14  26  14  27  13  28  13
M  ISO  8  29  13  30  13  31  13  32  13  33  13  34  13  35  13  36  13
M  ISO  2  41  15  44  16
M  END
>  <DihAtoms>  (1) 
18,19,38,37

>  <DihDeg>  (1) 
44.203835294040545

$$$$
