
 OpenBabel03272506393D

 37 39  0  0  1  0  0  0  0  0999 V2000
   34.6440   28.8950   50.0680 O   0  0  0  0  0  0  0  0  0  0  0  0
   34.4500   29.1810   48.8700 C   0  0  0  0  0  0  0  0  0  0  0  0
   35.2230   30.2110   48.2120 C   0  0  2  0  0  0  0  0  0  0  0  0
   34.7460   30.0340   46.7360 C   0  0  0  0  0  0  0  0  0  0  0  0
   33.3670   29.4690   46.8930 C   0  0  0  0  0  0  0  0  0  0  0  0
   33.4670   28.5530   48.0140 N   0  0  0  0  0  0  0  0  0  0  0  0
   35.0380   31.2500   48.4930 H   0  0  0  0  0  0  0  0  0  0  0  0
   34.7960   30.9970   46.2110 H   0  0  0  0  0  0  0  0  0  0  0  0
   35.4290   29.3220   46.2780 H   0  0  0  0  0  0  0  0  0  0  0  0
   32.5990   30.2530   47.0520 H   0  0  0  0  0  0  0  0  0  0  0  0
   33.1500   28.8720   45.9860 H   0  0  0  0  0  0  0  0  0  0  0  0
   32.7700   27.2960   48.2590 C   0  0  0  0  0  0  0  0  0  0  0  0
   33.3210   26.6220   48.9450 H   0  0  0  0  0  0  0  0  0  0  0  0
   31.8410   27.5760   48.8360 H   0  0  0  0  0  0  0  0  0  0  0  0
   32.5050   24.3140   46.6570 C   0  0  2  0  0  3  0  0  0  0  0  0
   33.3690   25.5510   46.6720 C   0  0  0  0  0  3  0  0  0  0  0  0
   34.1450   25.4660   47.4640 H   0  0  0  0  0  0  0  0  0  0  0  0
   32.3710   26.6430   46.9800 C   0  0  1  0  0  3  0  0  0  0  0  0
   31.1480   26.0060   47.1850 O   0  0  0  0  0  0  0  0  0  0  0  0
   31.1470   24.8970   46.3460 C   0  0  0  0  0  3  0  0  0  0  0  0
   30.3190   24.2470   46.7140 H   0  0  0  0  0  0  0  0  0  0  0  0
   32.4670   23.8030   47.9510 O   0  0  0  0  0  0  0  0  0  0  0  0
   31.8590   24.3740   48.5040 H   0  0  0  0  0  0  0  0  0  0  0  0
   36.6320   29.9710   48.1920 O   0  0  0  0  0  0  0  0  0  0  0  0
   37.4720   31.0770   48.2570 C   0  0  0  0  0  0  0  0  0  0  0  0
   37.6420   31.6550   49.5020 C   0  0  0  0  0  0  0  0  0  0  0  0
   38.4740   32.7610   49.6060 C   0  0  0  0  0  0  0  0  0  0  0  0
   39.0840   33.2290   48.4810 N   0  0  0  0  0  0  0  0  0  0  0  0
   38.9090   32.6580   47.2800 C   0  0  0  0  0  0  0  0  0  0  0  0
   38.1130   31.6020   47.1960 N   0  0  0  0  0  0  0  0  0  0  0  0
   40.4160   32.2190   45.5040 C   0  0  0  0  0  0  0  0  0  0  0  0
   40.6430   31.0260   45.8550 O   0  0  0  0  0  0  0  0  0  0  0  0
   39.5610   33.1750   46.1250 N   0  0  0  0  0  0  0  0  0  0  0  0
   37.1830   31.3240   50.4190 H   0  0  0  0  0  0  0  0  0  0  0  0
   38.6310   33.2390   50.5550 H   0  0  0  0  0  0  0  0  0  0  0  0
   40.9810   32.4690   44.6100 H   0  0  0  0  0  0  0  0  0  0  0  0
   39.4530   34.1390   45.7400 H   0  0  0  0  0  0  0  0  0  0  0  0
  2  1  2  0  0  0  0
  3  7  1  1  0  0  0
  3  2  1  0  0  0  0
  4  5  1  0  0  0  0
  4  3  1  0  0  0  0
  5 10  1  0  0  0  0
  5  6  1  0  0  0  0
  6 12  1  0  0  0  0
  6  2  1  0  0  0  0
  8  4  1  0  0  0  0
  9  4  1  0  0  0  0
 11  5  1  0  0  0  0
 12 14  1  0  0  0  0
 12 13  1  0  0  0  0
 15 16  1  0  0  0  0
 15 22  1  1  0  0  0
 16 18  1  0  0  0  0
 16 17  1  0  0  0  0
 18 19  1  0  0  0  0
 18 12  1  1  0  0  0
 20 15  1  0  0  0  0
 20 21  1  0  0  0  0
 20 19  1  0  0  0  0
 22 23  1  0  0  0  0
 24  3  1  0  0  0  0
 24 25  1  0  0  0  0
 25 26  1  0  0  0  0
 26 27  2  0  0  0  0
 26 34  1  0  0  0  0
 27 35  1  0  0  0  0
 28 27  1  0  0  0  0
 29 28  2  0  0  0  0
 30 29  1  0  0  0  0
 30 25  2  0  0  0  0
 31 32  2  0  0  0  0
 31 33  1  0  0  0  0
 33 29  1  0  0  0  0
 36 31  1  0  0  0  0
 37 33  1  0  0  0  0
M  END
>  <minimizedAffinity>
-5.53378439

>  <minimizedRMSD>
1.52923632

$$$$
