
 OpenBabel03272506393D

 37 39  0  0  1  0  0  0  0  0999 V2000
   35.0900   28.5220   49.7530 O   0  0  0  0  0  0  0  0  0  0  0  0
   35.0180   28.9560   48.5870 C   0  0  0  0  0  0  0  0  0  0  0  0
   35.7530   30.1330   48.1810 C   0  0  2  0  0  0  0  0  0  0  0  0
   35.4870   30.1250   46.6420 C   0  0  0  0  0  0  0  0  0  0  0  0
   34.1670   29.4230   46.5330 C   0  0  0  0  0  0  0  0  0  0  0  0
   34.2240   28.3700   47.5290 N   0  0  0  0  0  0  0  0  0  0  0  0
   35.4240   31.1020   48.5640 H   0  0  0  0  0  0  0  0  0  0  0  0
   35.4990   31.1540   46.2570 H   0  0  0  0  0  0  0  0  0  0  0  0
   36.2940   29.5490   46.1950 H   0  0  0  0  0  0  0  0  0  0  0  0
   33.3050   30.1050   46.6820 H   0  0  0  0  0  0  0  0  0  0  0  0
   34.1310   28.9430   45.5350 H   0  0  0  0  0  0  0  0  0  0  0  0
   33.6400   27.0340   47.5120 C   0  0  0  0  0  0  0  0  0  0  0  0
   33.6840   26.5560   46.5120 H   0  0  0  0  0  0  0  0  0  0  0  0
   34.3230   26.4010   48.1490 H   0  0  0  0  0  0  0  0  0  0  0  0
   30.3480   27.5500   46.8560 C   0  0  2  0  0  3  0  0  0  0  0  0
   31.5120   28.2140   47.5520 C   0  0  0  0  0  3  0  0  0  0  0  0
   32.1190   28.7880   46.8180 H   0  0  0  0  0  0  0  0  0  0  0  0
   32.2750   27.0350   48.1100 C   0  0  1  0  0  3  0  0  0  0  0  0
   31.6100   25.8940   47.6640 O   0  0  0  0  0  0  0  0  0  0  0  0
   30.2630   26.2360   47.5970 C   0  0  0  0  0  3  0  0  0  0  0  0
   29.7840   25.4400   46.9800 H   0  0  0  0  0  0  0  0  0  0  0  0
   30.7320   27.2810   45.5440 O   0  0  0  0  0  0  0  0  0  0  0  0
   31.3450   26.4900   45.5470 H   0  0  0  0  0  0  0  0  0  0  0  0
   37.1710   30.0250   48.3260 O   0  0  0  0  0  0  0  0  0  0  0  0
   37.9120   31.2010   48.2830 C   0  0  0  0  0  0  0  0  0  0  0  0
   38.0720   31.8780   49.4780 C   0  0  0  0  0  0  0  0  0  0  0  0
   38.8060   33.0560   49.4750 C   0  0  0  0  0  0  0  0  0  0  0  0
   39.3340   33.4940   48.2980 N   0  0  0  0  0  0  0  0  0  0  0  0
   39.1700   32.8260   47.1450 C   0  0  0  0  0  0  0  0  0  0  0  0
   38.4680   31.7030   47.1640 N   0  0  0  0  0  0  0  0  0  0  0  0
   40.6500   32.3940   45.3440 C   0  0  0  0  0  0  0  0  0  0  0  0
   40.9930   31.2520   45.7660 O   0  0  0  0  0  0  0  0  0  0  0  0
   39.7340   33.3150   45.9340 N   0  0  0  0  0  0  0  0  0  0  0  0
   37.6740   31.5740   50.4330 H   0  0  0  0  0  0  0  0  0  0  0  0
   38.9520   33.6110   50.3820 H   0  0  0  0  0  0  0  0  0  0  0  0
   41.1600   32.6280   44.4140 H   0  0  0  0  0  0  0  0  0  0  0  0
   39.5290   34.2360   45.4880 H   0  0  0  0  0  0  0  0  0  0  0  0
  2  1  2  0  0  0  0
  3 24  1  0  0  0  0
  3  7  1  1  0  0  0
  3  2  1  0  0  0  0
  4  3  1  0  0  0  0
  5  4  1  0  0  0  0
  5 10  1  0  0  0  0
  5  6  1  0  0  0  0
  6  2  1  0  0  0  0
  8  4  1  0  0  0  0
  9  4  1  0  0  0  0
 11  5  1  0  0  0  0
 12  6  1  0  0  0  0
 12 14  1  0  0  0  0
 13 12  1  0  0  0  0
 15 22  1  6  0  0  0
 15 16  1  0  0  0  0
 15 20  1  0  0  0  0
 16 18  1  0  0  0  0
 17 16  1  0  0  0  0
 18 12  1  6  0  0  0
 19 18  1  0  0  0  0
 20 19  1  0  0  0  0
 21 20  1  0  0  0  0
 22 23  1  0  0  0  0
 25 24  1  0  0  0  0
 25 26  1  0  0  0  0
 26 34  1  0  0  0  0
 27 26  2  0  0  0  0
 27 35  1  0  0  0  0
 28 27  1  0  0  0  0
 29 30  1  0  0  0  0
 29 28  2  0  0  0  0
 30 25  2  0  0  0  0
 31 32  2  0  0  0  0
 31 33  1  0  0  0  0
 33 29  1  0  0  0  0
 36 31  1  0  0  0  0
 37 33  1  0  0  0  0
M  END
>  <minimizedAffinity>
-5.5632844

>  <minimizedRMSD>
0.84732908

$$$$
