
 OpenBabel03272506393D

 37 39  0  0  1  0  0  0  0  0999 V2000
   34.1590   29.3110   49.7960 O   0  0  0  0  0  0  0  0  0  0  0  0
   34.1460   29.4000   48.5530 C   0  0  0  0  0  0  0  0  0  0  0  0
   35.0680   30.2690   47.8560 C   0  0  2  0  0  0  0  0  0  0  0  0
   34.7830   29.8660   46.3740 C   0  0  0  0  0  0  0  0  0  0  0  0
   33.3590   29.3970   46.4210 C   0  0  0  0  0  0  0  0  0  0  0  0
   33.2480   28.6800   47.6770 N   0  0  0  0  0  0  0  0  0  0  0  0
   34.9170   31.3480   47.9360 H   0  0  0  0  0  0  0  0  0  0  0  0
   34.9670   30.7240   45.7130 H   0  0  0  0  0  0  0  0  0  0  0  0
   35.4710   29.0570   46.1390 H   0  0  0  0  0  0  0  0  0  0  0  0
   32.6310   30.2300   46.3400 H   0  0  0  0  0  0  0  0  0  0  0  0
   33.2270   28.6650   45.6000 H   0  0  0  0  0  0  0  0  0  0  0  0
   32.4410   27.5140   48.0190 C   0  0  0  0  0  0  0  0  0  0  0  0
   32.3540   26.7890   47.1850 H   0  0  0  0  0  0  0  0  0  0  0  0
   33.0330   26.9600   48.8040 H   0  0  0  0  0  0  0  0  0  0  0  0
   29.0760   27.2380   47.6550 C   0  0  2  0  0  3  0  0  0  0  0  0
   30.1890   28.2400   47.4550 C   0  0  0  0  0  3  0  0  0  0  0  0
   30.6710   28.0820   46.4650 H   0  0  0  0  0  0  0  0  0  0  0  0
   31.1270   27.9180   48.5930 C   0  0  1  0  0  3  0  0  0  0  0  0
   30.5830   26.8110   49.2440 O   0  0  0  0  0  0  0  0  0  0  0  0
   29.2040   26.9370   49.1270 C   0  0  0  0  0  3  0  0  0  0  0  0
   28.7900   25.9330   49.3850 H   0  0  0  0  0  0  0  0  0  0  0  0
   29.4080   26.0850   46.9480 O   0  0  0  0  0  0  0  0  0  0  0  0
   30.1140   25.5920   47.4550 H   0  0  0  0  0  0  0  0  0  0  0  0
   36.4480   29.9670   48.0760 O   0  0  0  0  0  0  0  0  0  0  0  0
   37.3260   31.0370   48.2060 C   0  0  0  0  0  0  0  0  0  0  0  0
   37.4940   31.5520   49.4780 C   0  0  0  0  0  0  0  0  0  0  0  0
   38.3630   32.6210   49.6470 C   0  0  0  0  0  0  0  0  0  0  0  0
   39.0090   33.1160   48.5550 N   0  0  0  0  0  0  0  0  0  0  0  0
   38.8350   32.6070   47.3260 C   0  0  0  0  0  0  0  0  0  0  0  0
   38.0040   31.5870   47.1800 N   0  0  0  0  0  0  0  0  0  0  0  0
   40.3580   32.1950   45.5560 C   0  0  0  0  0  0  0  0  0  0  0  0
   40.5360   30.9790   45.8560 O   0  0  0  0  0  0  0  0  0  0  0  0
   39.5260   33.1530   46.2070 N   0  0  0  0  0  0  0  0  0  0  0  0
   37.0060   31.1960   50.3720 H   0  0  0  0  0  0  0  0  0  0  0  0
   38.5200   33.0490   50.6190 H   0  0  0  0  0  0  0  0  0  0  0  0
   40.9470   32.4650   44.6840 H   0  0  0  0  0  0  0  0  0  0  0  0
   39.4600   34.1360   45.8650 H   0  0  0  0  0  0  0  0  0  0  0  0
  2  1  2  0  0  0  0
  3  7  1  1  0  0  0
  3 24  1  0  0  0  0
  3  2  1  0  0  0  0
  4  5  1  0  0  0  0
  4  3  1  0  0  0  0
  5  6  1  0  0  0  0
  6 12  1  0  0  0  0
  6  2  1  0  0  0  0
  8  4  1  0  0  0  0
  9  4  1  0  0  0  0
 10  5  1  0  0  0  0
 11  5  1  0  0  0  0
 12 14  1  0  0  0  0
 13 12  1  0  0  0  0
 15 22  1  6  0  0  0
 15 20  1  0  0  0  0
 16 15  1  0  0  0  0
 16 18  1  0  0  0  0
 17 16  1  0  0  0  0
 18 12  1  6  0  0  0
 18 19  1  0  0  0  0
 20 19  1  0  0  0  0
 20 21  1  0  0  0  0
 22 23  1  0  0  0  0
 24 25  1  0  0  0  0
 25 26  1  0  0  0  0
 26 27  2  0  0  0  0
 26 34  1  0  0  0  0
 27 35  1  0  0  0  0
 28 27  1  0  0  0  0
 29 28  2  0  0  0  0
 30 29  1  0  0  0  0
 30 25  2  0  0  0  0
 31 32  2  0  0  0  0
 31 33  1  0  0  0  0
 33 29  1  0  0  0  0
 36 31  1  0  0  0  0
 37 33  1  0  0  0  0
M  END
>  <minimizedAffinity>
-5.72390079

>  <minimizedRMSD>
1.20051801

$$$$
