
 OpenBabel03262521523D

 22 23  0  0  1  0  0  0  0  0999 V2000
   37.7110   25.7160   35.4620 C   0  0  0  0  0  0  0  0  0  0  0  0
   36.6710   25.2820   35.3730 H   0  0  0  0  0  0  0  0  0  0  0  0
   37.5750   26.6140   36.0950 H   0  0  0  0  0  0  0  0  0  0  0  0
   38.9720   23.3520   38.0150 C   0  0  2  0  0  3  0  0  0  0  0  0
   38.0120   24.4880   37.6270 C   0  0  0  0  0  3  0  0  0  0  0  0
   36.9770   24.1080   37.5350 H   0  0  0  0  0  0  0  0  0  0  0  0
   38.5170   24.7060   36.1920 C   0  0  1  0  0  3  0  0  0  0  0  0
   38.4900   23.4250   35.7190 O   0  0  0  0  0  0  0  0  0  0  0  0
   39.1920   22.7030   36.6800 C   0  0  0  0  0  3  0  0  0  0  0  0
   40.2780   22.7090   36.3780 H   0  0  0  0  0  0  0  0  0  0  0  0
   38.4210   22.5140   38.9740 O   0  0  0  0  0  0  0  0  0  0  0  0
   39.0930   21.7850   39.1080 H   0  0  0  0  0  0  0  0  0  0  0  0
   38.2690   26.0970   33.8000 S   0  0  0  0  0  0  0  0  0  0  0  0
   37.1040   25.3790   32.6610 C   0  0  0  0  0  0  0  0  0  0  0  0
   36.3530   26.3570   31.9950 C   0  0  0  0  0  0  0  0  0  0  0  0
   35.3980   25.9010   31.0600 C   0  0  0  0  0  0  0  0  0  0  0  0
   35.2580   24.5700   30.8560 N   0  0  0  0  0  0  0  0  0  0  0  0
   36.0090   23.6790   31.5250 C   0  0  0  0  0  0  0  0  0  0  0  0
   36.9050   24.0980   32.4010 N   0  0  0  0  0  0  0  0  0  0  0  0
   36.4340   27.4380   32.1300 H   0  0  0  0  0  0  0  0  0  0  0  0
   34.7840   26.6250   30.5130 H   0  0  0  0  0  0  0  0  0  0  0  0
   35.8780   22.6130   31.3450 H   0  0  0  0  0  0  0  0  0  0  0  0
  1  3  1  0  0  0  0
  2  1  1  0  0  0  0
  4 11  1  1  0  0  0
  5  4  1  0  0  0  0
  6  5  1  0  0  0  0
  7  1  1  6  0  0  0
  7  5  1  0  0  0  0
  8  7  1  0  0  0  0
  8  9  1  0  0  0  0
  9  4  1  0  0  0  0
 10  9  1  0  0  0  0
 11 12  1  0  0  0  0
 13  1  1  0  0  0  0
 14 13  1  0  0  0  0
 15 20  1  0  0  0  0
 15 14  2  0  0  0  0
 16 15  1  0  0  0  0
 17 16  2  0  0  0  0
 17 18  1  0  0  0  0
 18 19  2  0  0  0  0
 19 14  1  0  0  0  0
 21 16  1  0  0  0  0
 22 18  1  0  0  0  0
M  END
>  <minimizedAffinity>
-4.23790741

$$$$

 OpenBabel03262521523D

 22 23  0  0  1  0  0  0  0  0999 V2000
   38.0700   25.7600   33.9880 C   0  0  0  0  0  0  0  0  0  0  0  0
   38.9910   26.2810   33.5920 H   0  0  0  0  0  0  0  0  0  0  0  0
   37.8680   26.2650   34.9510 H   0  0  0  0  0  0  0  0  0  0  0  0
   36.1080   27.1270   31.1640 C   0  0  2  0  0  3  0  0  0  0  0  0
   37.3780   27.1630   32.0290 C   0  0  0  0  0  3  0  0  0  0  0  0
   38.2450   26.7690   31.4640 H   0  0  0  0  0  0  0  0  0  0  0  0
   36.9820   26.0610   33.0250 C   0  0  1  0  0  3  0  0  0  0  0  0
   36.6140   25.0660   32.1660 O   0  0  0  0  0  0  0  0  0  0  0  0
   35.7120   25.6870   31.3070 C   0  0  0  0  0  3  0  0  0  0  0  0
   34.6850   25.5710   31.7580 H   0  0  0  0  0  0  0  0  0  0  0  0
   36.3600   27.5230   29.8580 O   0  0  0  0  0  0  0  0  0  0  0  0
   35.4930   27.4070   29.3730 H   0  0  0  0  0  0  0  0  0  0  0  0
   38.4830   24.0230   34.1710 S   0  0  0  0  0  0  0  0  0  0  0  0
   38.7550   23.7110   35.9030 C   0  0  0  0  0  0  0  0  0  0  0  0
   37.8200   24.3770   36.7070 C   0  0  0  0  0  0  0  0  0  0  0  0
   37.9370   24.1980   38.1030 C   0  0  0  0  0  0  0  0  0  0  0  0
   38.9240   23.4080   38.5860 N   0  0  0  0  0  0  0  0  0  0  0  0
   39.7910   22.7940   37.7630 C   0  0  0  0  0  0  0  0  0  0  0  0
   39.6880   22.9570   36.4560 N   0  0  0  0  0  0  0  0  0  0  0  0
   37.0100   25.0230   36.3580 H   0  0  0  0  0  0  0  0  0  0  0  0
   37.2300   24.6970   38.7750 H   0  0  0  0  0  0  0  0  0  0  0  0
   40.5780   22.1640   38.1750 H   0  0  0  0  0  0  0  0  0  0  0  0
  1 13  1  0  0  0  0
  1  3  1  0  0  0  0
  2  1  1  0  0  0  0
  4 11  1  6  0  0  0
  4  9  1  0  0  0  0
  4  5  1  0  0  0  0
  5  7  1  0  0  0  0
  6  5  1  0  0  0  0
  7  1  1  6  0  0  0
  8  7  1  0  0  0  0
  9 10  1  0  0  0  0
  9  8  1  0  0  0  0
 12 11  1  0  0  0  0
 13 14  1  0  0  0  0
 14 19  2  0  0  0  0
 14 15  1  0  0  0  0
 15 16  2  0  0  0  0
 16 17  1  0  0  0  0
 16 21  1  0  0  0  0
 18 22  1  0  0  0  0
 18 17  2  0  0  0  0
 19 18  1  0  0  0  0
 20 15  1  0  0  0  0
M  END
>  <minimizedAffinity>
-4.22177982

$$$$

 OpenBabel03262521523D

 22 23  0  0  1  0  0  0  0  0999 V2000
   37.7310   25.6890   35.3870 C   0  0  0  0  0  0  0  0  0  0  0  0
   36.6990   25.2420   35.2750 H   0  0  0  0  0  0  0  0  0  0  0  0
   37.5680   26.5900   36.0080 H   0  0  0  0  0  0  0  0  0  0  0  0
   38.9550   23.3610   37.9890 C   0  0  2  0  0  3  0  0  0  0  0  0
   37.9920   24.4820   37.5680 C   0  0  0  0  0  3  0  0  0  0  0  0
   36.9630   24.0880   37.4520 H   0  0  0  0  0  0  0  0  0  0  0  0
   38.5300   24.6950   36.1440 C   0  0  1  0  0  3  0  0  0  0  0  0
   38.5310   23.4100   35.6810 O   0  0  0  0  0  0  0  0  0  0  0  0
   39.2160   22.7040   36.6650 C   0  0  0  0  0  3  0  0  0  0  0  0
   40.3100   22.7220   36.3910 H   0  0  0  0  0  0  0  0  0  0  0  0
   38.3900   22.5230   38.9400 O   0  0  0  0  0  0  0  0  0  0  0  0
   39.0670   21.8040   39.0980 H   0  0  0  0  0  0  0  0  0  0  0  0
   38.3260   26.0640   33.7350 S   0  0  0  0  0  0  0  0  0  0  0  0
   37.0740   25.5460   32.5790 C   0  0  0  0  0  0  0  0  0  0  0  0
   37.0410   24.1520   32.4340 C   0  0  0  0  0  0  0  0  0  0  0  0
   36.0800   23.6270   31.5430 C   0  0  0  0  0  0  0  0  0  0  0  0
   35.2540   24.4760   30.8870 N   0  0  0  0  0  0  0  0  0  0  0  0
   35.3340   25.8050   31.0690 C   0  0  0  0  0  0  0  0  0  0  0  0
   36.2300   26.3040   31.9010 N   0  0  0  0  0  0  0  0  0  0  0  0
   37.6880   23.4330   32.9430 H   0  0  0  0  0  0  0  0  0  0  0  0
   36.0130   22.5430   31.3930 H   0  0  0  0  0  0  0  0  0  0  0  0
   34.6600   26.4680   30.5290 H   0  0  0  0  0  0  0  0  0  0  0  0
  1  3  1  0  0  0  0
  2  1  1  0  0  0  0
  4 11  1  1  0  0  0
  5  4  1  0  0  0  0
  6  5  1  0  0  0  0
  7  1  1  6  0  0  0
  7  5  1  0  0  0  0
  8  7  1  0  0  0  0
  8  9  1  0  0  0  0
  9  4  1  0  0  0  0
 10  9  1  0  0  0  0
 11 12  1  0  0  0  0
 13  1  1  0  0  0  0
 14 13  1  0  0  0  0
 15 14  1  0  0  0  0
 15 20  1  0  0  0  0
 16 15  2  0  0  0  0
 17 18  2  0  0  0  0
 17 16  1  0  0  0  0
 18 19  1  0  0  0  0
 19 14  2  0  0  0  0
 21 16  1  0  0  0  0
 22 18  1  0  0  0  0
M  END
>  <minimizedAffinity>
-4.2094698

$$$$

 OpenBabel03262521523D

 22 23  0  0  1  0  0  0  0  0999 V2000
   37.2960   22.0410   33.3260 C   0  0  0  0  0  0  0  0  0  0  0  0
   37.1600   22.9090   32.6150 H   0  0  0  0  0  0  0  0  0  0  0  0
   36.5230   22.2050   34.1010 H   0  0  0  0  0  0  0  0  0  0  0  0
   35.6450   19.0010   32.0130 C   0  0  2  0  0  3  0  0  0  0  0  0
   35.7250   20.1030   33.0810 C   0  0  0  0  0  3  0  0  0  0  0  0
   34.8880   20.8190   32.9660 H   0  0  0  0  0  0  0  0  0  0  0  0
   36.9760   20.8190   32.5480 C   0  0  1  0  0  3  0  0  0  0  0  0
   36.6310   20.9850   31.2370 O   0  0  0  0  0  0  0  0  0  0  0  0
   36.2430   19.7110   30.8340 C   0  0  0  0  0  3  0  0  0  0  0  0
   37.1630   19.1870   30.4450 H   0  0  0  0  0  0  0  0  0  0  0  0
   34.3420   18.5660   31.8160 O   0  0  0  0  0  0  0  0  0  0  0  0
   34.3930   17.9020   31.0690 H   0  0  0  0  0  0  0  0  0  0  0  0
   38.9710   22.1370   33.9630 S   0  0  0  0  0  0  0  0  0  0  0  0
   38.8710   22.5950   35.6810 C   0  0  0  0  0  0  0  0  0  0  0  0
   40.0750   22.3550   36.3570 C   0  0  0  0  0  0  0  0  0  0  0  0
   40.1120   22.6870   37.7290 C   0  0  0  0  0  0  0  0  0  0  0  0
   39.0080   23.2100   38.3120 N   0  0  0  0  0  0  0  0  0  0  0  0
   37.8820   23.4180   37.6100 C   0  0  0  0  0  0  0  0  0  0  0  0
   37.8390   23.1110   36.3260 N   0  0  0  0  0  0  0  0  0  0  0  0
   40.9870   21.9350   35.9260 H   0  0  0  0  0  0  0  0  0  0  0  0
   41.0300   22.5180   38.3030 H   0  0  0  0  0  0  0  0  0  0  0  0
   37.0060   23.8400   38.1000 H   0  0  0  0  0  0  0  0  0  0  0  0
  1 13  1  0  0  0  0
  1  3  1  0  0  0  0
  2  1  1  0  0  0  0
  4 11  1  6  0  0  0
  4  5  1  0  0  0  0
  6  5  1  0  0  0  0
  7  5  1  0  0  0  0
  7  1  1  1  0  0  0
  8  7  1  0  0  0  0
  9  8  1  0  0  0  0
  9  4  1  0  0  0  0
 10  9  1  0  0  0  0
 12 11  1  0  0  0  0
 13 14  1  0  0  0  0
 14 19  2  0  0  0  0
 14 15  1  0  0  0  0
 15 16  2  0  0  0  0
 16 21  1  0  0  0  0
 16 17  1  0  0  0  0
 18 22  1  0  0  0  0
 18 17  2  0  0  0  0
 19 18  1  0  0  0  0
 20 15  1  0  0  0  0
M  END
>  <minimizedAffinity>
-4.20383596

$$$$

 OpenBabel03262521523D

 22 23  0  0  1  0  0  0  0  0999 V2000
   38.0810   25.1570   35.0280 C   0  0  0  0  0  0  0  0  0  0  0  0
   38.7150   25.0410   34.1000 H   0  0  0  0  0  0  0  0  0  0  0  0
   37.1450   24.6210   34.7830 H   0  0  0  0  0  0  0  0  0  0  0  0
   38.9160   23.3870   38.1690 C   0  0  2  0  0  3  0  0  0  0  0  0
   37.9160   24.2130   37.3450 C   0  0  0  0  0  3  0  0  0  0  0  0
   37.0730   23.5790   37.0070 H   0  0  0  0  0  0  0  0  0  0  0  0
   38.8010   24.4390   36.1090 C   0  0  1  0  0  3  0  0  0  0  0  0
   39.2040   23.1610   35.8510 O   0  0  0  0  0  0  0  0  0  0  0  0
   39.6910   22.7130   37.0750 C   0  0  0  0  0  3  0  0  0  0  0  0
   40.7890   22.9680   37.1120 H   0  0  0  0  0  0  0  0  0  0  0  0
   38.2760   22.5130   39.0360 O   0  0  0  0  0  0  0  0  0  0  0  0
   39.0070   21.9880   39.4740 H   0  0  0  0  0  0  0  0  0  0  0  0
   37.8440   26.9160   35.2910 S   0  0  0  0  0  0  0  0  0  0  0  0
   36.8190   27.5270   33.9700 C   0  0  0  0  0  0  0  0  0  0  0  0
   36.1300   28.6910   34.3380 C   0  0  0  0  0  0  0  0  0  0  0  0
   35.2880   29.2680   33.3620 C   0  0  0  0  0  0  0  0  0  0  0  0
   35.1900   28.6840   32.1450 N   0  0  0  0  0  0  0  0  0  0  0  0
   35.8780   27.5670   31.8510 C   0  0  0  0  0  0  0  0  0  0  0  0
   36.6680   27.0210   32.7580 N   0  0  0  0  0  0  0  0  0  0  0  0
   36.1800   29.1930   35.3070 H   0  0  0  0  0  0  0  0  0  0  0  0
   34.7260   30.1790   33.6000 H   0  0  0  0  0  0  0  0  0  0  0  0
   35.7820   27.1140   30.8650 H   0  0  0  0  0  0  0  0  0  0  0  0
  1 13  1  0  0  0  0
  2  1  1  0  0  0  0
  3  1  1  0  0  0  0
  4 11  1  1  0  0  0
  5  4  1  0  0  0  0
  6  5  1  0  0  0  0
  7  1  1  6  0  0  0
  7  5  1  0  0  0  0
  8  7  1  0  0  0  0
  8  9  1  0  0  0  0
  9 10  1  0  0  0  0
  9  4  1  0  0  0  0
 11 12  1  0  0  0  0
 14 15  1  0  0  0  0
 14 13  1  0  0  0  0
 15 20  1  0  0  0  0
 16 21  1  0  0  0  0
 16 15  2  0  0  0  0
 17 16  1  0  0  0  0
 18 17  2  0  0  0  0
 18 19  1  0  0  0  0
 19 14  2  0  0  0  0
 22 18  1  0  0  0  0
M  END
>  <minimizedAffinity>
-4.20376539

$$$$

 OpenBabel03262521523D

 22 23  0  0  1  0  0  0  0  0999 V2000
   38.4290   24.4170   34.8500 C   0  0  0  0  0  0  0  0  0  0  0  0
   37.3070   24.3840   34.9850 H   0  0  0  0  0  0  0  0  0  0  0  0
   38.6440   25.4800   34.6360 H   0  0  0  0  0  0  0  0  0  0  0  0
   38.8590   23.3340   38.3620 C   0  0  2  0  0  3  0  0  0  0  0  0
   37.9300   23.7850   37.2240 C   0  0  0  0  0  3  0  0  0  0  0  0
   37.3290   22.9320   36.8520 H   0  0  0  0  0  0  0  0  0  0  0  0
   39.0110   24.0410   36.1620 C   0  0  1  0  0  3  0  0  0  0  0  0
   39.7070   22.8680   36.2240 O   0  0  0  0  0  0  0  0  0  0  0  0
   39.9810   22.7170   37.5800 C   0  0  0  0  0  3  0  0  0  0  0  0
   40.9690   23.2230   37.7820 H   0  0  0  0  0  0  0  0  0  0  0  0
   38.2240   22.4620   39.2350 O   0  0  0  0  0  0  0  0  0  0  0  0
   38.9250   22.1860   39.8940 H   0  0  0  0  0  0  0  0  0  0  0  0
   38.8290   23.3230   33.4840 S   0  0  0  0  0  0  0  0  0  0  0  0
   37.3480   22.4320   33.0540 C   0  0  0  0  0  0  0  0  0  0  0  0
   36.9630   21.5390   34.0630 C   0  0  0  0  0  0  0  0  0  0  0  0
   35.7960   20.7800   33.8320 C   0  0  0  0  0  0  0  0  0  0  0  0
   35.1190   20.9480   32.6720 N   0  0  0  0  0  0  0  0  0  0  0  0
   35.5370   21.8210   31.7400 C   0  0  0  0  0  0  0  0  0  0  0  0
   36.6290   22.5360   31.9500 N   0  0  0  0  0  0  0  0  0  0  0  0
   37.4800   21.3730   35.0120 H   0  0  0  0  0  0  0  0  0  0  0  0
   35.4520   20.0670   34.5900 H   0  0  0  0  0  0  0  0  0  0  0  0
   34.9770   21.9390   30.8140 H   0  0  0  0  0  0  0  0  0  0  0  0
  1  2  1  0  0  0  0
  3  1  1  0  0  0  0
  4 11  1  1  0  0  0
  5  4  1  0  0  0  0
  6  5  1  0  0  0  0
  7  1  1  6  0  0  0
  7  8  1  0  0  0  0
  7  5  1  0  0  0  0
  8  9  1  0  0  0  0
  9 10  1  0  0  0  0
  9  4  1  0  0  0  0
 11 12  1  0  0  0  0
 13  1  1  0  0  0  0
 14 13  1  0  0  0  0
 14 15  1  0  0  0  0
 15 20  1  0  0  0  0
 16 15  2  0  0  0  0
 16 21  1  0  0  0  0
 17 16  1  0  0  0  0
 18 19  1  0  0  0  0
 18 17  2  0  0  0  0
 19 14  2  0  0  0  0
 22 18  1  0  0  0  0
M  END
>  <minimizedAffinity>
-4.12946033

$$$$

 OpenBabel03262521523D

 22 23  0  0  1  0  0  0  0  0999 V2000
   38.5370   25.9420   35.2660 C   0  0  0  0  0  0  0  0  0  0  0  0
   38.0710   26.8670   35.7200 H   0  0  0  0  0  0  0  0  0  0  0  0
   39.6200   26.1660   35.2500 H   0  0  0  0  0  0  0  0  0  0  0  0
   38.8690   22.9490   37.4150 C   0  0  2  0  0  3  0  0  0  0  0  0
   39.4400   23.8490   36.3080 C   0  0  0  0  0  3  0  0  0  0  0  0
   40.3030   24.4320   36.6870 H   0  0  0  0  0  0  0  0  0  0  0  0
   38.2660   24.8360   36.2170 C   0  0  1  0  0  3  0  0  0  0  0  0
   38.1120   25.1670   37.5330 O   0  0  0  0  0  0  0  0  0  0  0  0
   38.0340   23.9360   38.1770 C   0  0  0  0  0  3  0  0  0  0  0  0
   36.9460   23.6400   38.2040 H   0  0  0  0  0  0  0  0  0  0  0  0
   39.8720   22.3510   38.1650 O   0  0  0  0  0  0  0  0  0  0  0  0
   39.4000   21.8420   38.8860 H   0  0  0  0  0  0  0  0  0  0  0  0
   37.8300   25.7450   33.6280 S   0  0  0  0  0  0  0  0  0  0  0  0
   36.8210   27.1750   33.2990 C   0  0  0  0  0  0  0  0  0  0  0  0
   36.6220   27.9510   34.4490 C   0  0  0  0  0  0  0  0  0  0  0  0
   35.8380   29.1160   34.3050 C   0  0  0  0  0  0  0  0  0  0  0  0
   35.3290   29.4230   33.0880 N   0  0  0  0  0  0  0  0  0  0  0  0
   35.5560   28.6390   32.0200 C   0  0  0  0  0  0  0  0  0  0  0  0
   36.2880   27.5460   32.1480 N   0  0  0  0  0  0  0  0  0  0  0  0
   37.0140   27.7400   35.4480 H   0  0  0  0  0  0  0  0  0  0  0  0
   35.6530   29.7570   35.1740 H   0  0  0  0  0  0  0  0  0  0  0  0
   35.1350   28.9050   31.0520 H   0  0  0  0  0  0  0  0  0  0  0  0
  1  2  1  0  0  0  0
  3  1  1  0  0  0  0
  4 11  1  1  0  0  0
  4  9  1  0  0  0  0
  5  6  1  0  0  0  0
  5  4  1  0  0  0  0
  7  1  1  6  0  0  0
  7  5  1  0  0  0  0
  7  8  1  0  0  0  0
  8  9  1  0  0  0  0
  9 10  1  0  0  0  0
 11 12  1  0  0  0  0
 13  1  1  0  0  0  0
 14 13  1  0  0  0  0
 14 15  1  0  0  0  0
 15 20  1  0  0  0  0
 16 15  2  0  0  0  0
 16 21  1  0  0  0  0
 17 16  1  0  0  0  0
 18 19  1  0  0  0  0
 18 17  2  0  0  0  0
 19 14  2  0  0  0  0
 22 18  1  0  0  0  0
M  END
>  <minimizedAffinity>
-4.01725006

$$$$

 OpenBabel03262521523D

 22 23  0  0  1  0  0  0  0  0999 V2000
   38.2350   24.2930   35.5370 C   0  0  0  0  0  0  0  0  0  0  0  0
   38.0980   24.1880   34.4200 H   0  0  0  0  0  0  0  0  0  0  0  0
   37.3990   23.7110   35.9670 H   0  0  0  0  0  0  0  0  0  0  0  0
   40.9140   22.3580   37.2010 C   0  0  2  0  0  3  0  0  0  0  0  0
   39.5260   23.0160   37.2640 C   0  0  0  0  0  3  0  0  0  0  0  0
   38.7300   22.2460   37.2640 H   0  0  0  0  0  0  0  0  0  0  0  0
   39.5240   23.6320   35.8560 C   0  0  1  0  0  3  0  0  0  0  0  0
   39.8730   22.5460   35.1060 O   0  0  0  0  0  0  0  0  0  0  0  0
   41.0180   22.0640   35.7330 C   0  0  0  0  0  3  0  0  0  0  0  0
   41.9020   22.5790   35.2590 H   0  0  0  0  0  0  0  0  0  0  0  0
   40.9920   21.2360   38.0140 O   0  0  0  0  0  0  0  0  0  0  0  0
   41.9030   20.8540   37.8550 H   0  0  0  0  0  0  0  0  0  0  0  0
   38.1480   26.0450   35.9170 S   0  0  0  0  0  0  0  0  0  0  0  0
   37.2860   26.8460   34.5810 C   0  0  0  0  0  0  0  0  0  0  0  0
   37.2630   26.0550   33.4240 C   0  0  0  0  0  0  0  0  0  0  0  0
   36.5980   26.5900   32.2990 C   0  0  0  0  0  0  0  0  0  0  0  0
   36.0270   27.8140   32.3900 N   0  0  0  0  0  0  0  0  0  0  0  0
   36.0820   28.5260   33.5280 C   0  0  0  0  0  0  0  0  0  0  0  0
   36.7020   28.0320   34.5850 N   0  0  0  0  0  0  0  0  0  0  0  0
   37.7100   25.0640   33.3090 H   0  0  0  0  0  0  0  0  0  0  0  0
   36.5520   26.0100   31.3700 H   0  0  0  0  0  0  0  0  0  0  0  0
   35.6170   29.5090   33.5770 H   0  0  0  0  0  0  0  0  0  0  0  0
  1 13  1  0  0  0  0
  1  3  1  0  0  0  0
  2  1  1  0  0  0  0
  4  5  1  0  0  0  0
  4 11  1  1  0  0  0
  6  5  1  0  0  0  0
  7  1  1  6  0  0  0
  7  5  1  0  0  0  0
  8  9  1  0  0  0  0
  8  7  1  0  0  0  0
  9  4  1  0  0  0  0
 10  9  1  0  0  0  0
 12 11  1  0  0  0  0
 14 19  1  0  0  0  0
 14 13  1  0  0  0  0
 15 14  2  0  0  0  0
 16 17  2  0  0  0  0
 16 15  1  0  0  0  0
 17 18  1  0  0  0  0
 18 22  1  0  0  0  0
 18 19  2  0  0  0  0
 20 15  1  0  0  0  0
 21 16  1  0  0  0  0
M  END
>  <minimizedAffinity>
-3.93669033

$$$$

 OpenBabel03262521523D

 22 23  0  0  1  0  0  0  0  0999 V2000
   38.5140   25.6980   34.9410 C   0  0  0  0  0  0  0  0  0  0  0  0
   39.5540   26.0910   35.1420 H   0  0  0  0  0  0  0  0  0  0  0  0
   38.5920   25.2250   33.9440 H   0  0  0  0  0  0  0  0  0  0  0  0
   38.9040   22.8940   37.3230 C   0  0  2  0  0  3  0  0  0  0  0  0
   39.4670   23.7260   36.1610 C   0  0  0  0  0  3  0  0  0  0  0  0
   40.3000   24.3670   36.5090 H   0  0  0  0  0  0  0  0  0  0  0  0
   38.2610   24.6600   35.9700 C   0  0  1  0  0  3  0  0  0  0  0  0
   38.0670   25.0850   37.2530 O   0  0  0  0  0  0  0  0  0  0  0  0
   38.0180   23.9060   37.9900 C   0  0  0  0  0  3  0  0  0  0  0  0
   36.9410   23.5730   38.0200 H   0  0  0  0  0  0  0  0  0  0  0  0
   39.9110   22.3930   38.1370 O   0  0  0  0  0  0  0  0  0  0  0  0
   39.4400   21.9240   38.8860 H   0  0  0  0  0  0  0  0  0  0  0  0
   37.4010   27.1060   34.9720 S   0  0  0  0  0  0  0  0  0  0  0  0
   37.0220   27.5330   33.2860 C   0  0  0  0  0  0  0  0  0  0  0  0
   37.7900   26.7950   32.3740 C   0  0  0  0  0  0  0  0  0  0  0  0
   37.5700   27.0490   31.0030 C   0  0  0  0  0  0  0  0  0  0  0  0
   36.6470   27.9710   30.6420 N   0  0  0  0  0  0  0  0  0  0  0  0
   35.9400   28.6470   31.5640 C   0  0  0  0  0  0  0  0  0  0  0  0
   36.1410   28.4160   32.8490 N   0  0  0  0  0  0  0  0  0  0  0  0
   38.5440   26.0440   32.6220 H   0  0  0  0  0  0  0  0  0  0  0  0
   38.1450   26.4980   30.2500 H   0  0  0  0  0  0  0  0  0  0  0  0
   35.2040   29.3850   31.2500 H   0  0  0  0  0  0  0  0  0  0  0  0
  1 13  1  0  0  0  0
  1  2  1  0  0  0  0
  3  1  1  0  0  0  0
  4  9  1  0  0  0  0
  4 11  1  1  0  0  0
  5  6  1  0  0  0  0
  5  4  1  0  0  0  0
  7  1  1  6  0  0  0
  7  5  1  0  0  0  0
  7  8  1  0  0  0  0
  8  9  1  0  0  0  0
  9 10  1  0  0  0  0
 11 12  1  0  0  0  0
 14 13  1  0  0  0  0
 15 20  1  0  0  0  0
 15 14  2  0  0  0  0
 16 15  1  0  0  0  0
 17 16  2  0  0  0  0
 17 18  1  0  0  0  0
 18 19  2  0  0  0  0
 19 14  1  0  0  0  0
 21 16  1  0  0  0  0
 22 18  1  0  0  0  0
M  END
>  <minimizedAffinity>
-3.93432927

$$$$
