
 OpenBabel03262522133D

 33 35  0  0  1  0  0  0  0  0999 V2000
   37.5370   31.5190   47.2700 C   0  0  0  0  0  0  0  0  0  0  0  0
   37.9840   32.1790   48.4270 C   0  0  0  0  0  0  0  0  0  0  0  0
   39.0360   33.0670   48.3790 C   0  0  0  0  0  0  0  0  0  0  0  0
   39.6110   33.2620   47.1450 C   0  0  0  0  0  0  0  0  0  0  0  0
   39.1660   32.6150   46.0340 C   0  0  0  0  0  0  0  0  0  0  0  0
   38.1300   31.7380   46.0730 N   0  0  0  0  0  0  0  0  0  0  0  0
   37.4770   31.9730   49.3720 H   0  0  0  0  0  0  0  0  0  0  0  0
   39.4050   33.5920   49.2530 H   0  0  0  0  0  0  0  0  0  0  0  0
   40.4430   33.9340   46.9820 H   0  0  0  0  0  0  0  0  0  0  0  0
   36.4330   30.6080   47.4080 C   0  0  0  0  0  0  0  0  0  0  0  0
   35.8240   30.1960   46.4210 O   0  0  0  0  0  0  0  0  0  0  0  0
   36.9170   29.5220   49.5740 C   0  0  0  0  0  0  0  0  0  0  0  0
   35.9740   30.1220   48.7200 C   0  0  0  0  0  0  0  0  0  0  0  0
   34.6400   30.2420   49.1370 C   0  0  0  0  0  0  0  0  0  0  0  0
   34.3050   29.7620   50.3770 N   0  0  0  0  0  0  0  0  0  0  0  0
   35.2320   29.1880   51.1770 C   0  0  0  0  0  0  0  0  0  0  0  0
   36.5020   29.0740   50.7820 N   0  0  0  0  0  0  0  0  0  0  0  0
   37.9340   29.4460   49.2220 H   0  0  0  0  0  0  0  0  0  0  0  0
   33.9240   30.7090   48.4670 H   0  0  0  0  0  0  0  0  0  0  0  0
   34.8840   28.8350   52.1400 H   0  0  0  0  0  0  0  0  0  0  0  0
   39.9340   32.8800   44.4090 S   0  0  0  0  0  0  0  0  0  0  0  0
   38.6830   32.3710   43.1940 C   0  0  0  0  0  0  0  0  0  0  0  0
   38.5470   31.2550   43.2050 H   0  0  0  0  0  0  0  0  0  0  0  0
   37.6940   32.7910   43.3640 H   0  0  0  0  0  0  0  0  0  0  0  0
   38.2800   33.5930   39.8940 C   0  0  1  0  0  3  0  0  0  0  0  0
   38.7000   33.9830   41.2960 C   0  0  0  0  0  3  0  0  0  0  0  0
   39.4640   34.7850   41.2750 H   0  0  0  0  0  0  0  0  0  0  0  0
   39.2350   32.6780   41.8180 C   0  0  2  0  0  3  0  0  0  0  0  0
   38.9470   31.7010   40.9070 O   0  0  0  0  0  0  0  0  0  0  0  0
   37.8990   32.1440   40.1090 C   0  0  0  0  0  3  0  0  0  0  0  0
   36.9160   32.0210   40.5880 H   0  0  0  0  0  0  0  0  0  0  0  0
   37.2020   34.3500   39.4470 O   0  0  0  0  0  0  0  0  0  0  0  0
   36.3760   33.8610   39.6950 H   0  0  0  0  0  0  0  0  0  0  0  0
  1 10  1  0  0  0  0
  1  2  1  0  0  0  0
  2  7  1  0  0  0  0
  3  2  2  0  0  0  0
  3  8  1  0  0  0  0
  4  3  1  0  0  0  0
  5  6  1  0  0  0  0
  5  4  2  0  0  0  0
  6  1  2  0  0  0  0
  9  4  1  0  0  0  0
 10 13  1  0  0  0  0
 11 10  2  0  0  0  0
 12 17  1  0  0  0  0
 13 14  1  0  0  0  0
 13 12  2  0  0  0  0
 14 15  2  0  0  0  0
 15 16  1  0  0  0  0
 16 20  1  0  0  0  0
 17 16  2  0  0  0  0
 18 12  1  0  0  0  0
 19 14  1  0  0  0  0
 21  5  1  0  0  0  0
 22 23  1  0  0  0  0
 22 24  1  0  0  0  0
 22 21  1  0  0  0  0
 25 32  1  1  0  0  0
 25 30  1  0  0  0  0
 25 26  1  0  0  0  0
 26 28  1  0  0  0  0
 27 26  1  0  0  0  0
 28 22  1  1  0  0  0
 29 28  1  0  0  0  0
 30 31  1  0  0  0  0
 30 29  1  0  0  0  0
 32 33  1  0  0  0  0
M  END
>  <minimizedAffinity>
-4.92716742

>  <minimizedRMSD>
1.03322923

$$$$
