REMARK  Name = 
REMARK  8 active torsions:
REMARK  status: ('A' for Active; 'I' for Inactive)
REMARK    1  A    between atoms: C_3  and  C_9
REMARK    2  A    between atoms: C_5  and  O_14
REMARK    3  A    between atoms: O_14  and  C_15
REMARK    4  A    between atoms: C_15  and  C_16
REMARK    5  A    between atoms: C_16  and  C_17
REMARK    6  A    between atoms: C_21  and  C_23
REMARK    7  A    between atoms: C_23  and  C_42
REMARK    8  A    between atoms: O_38  and  C_39
REMARK                            x       y       z     vdW  Elec       q    Type
REMARK                         _______ _______ _______ _____ _____    ______ ____
ROOT
ATOM      1  C   UNL     1      34.445  28.641  48.176  0.00  0.00    +0.000 C 
ATOM      2  H   UNL     1      33.902  29.601  48.310  0.00  0.00    +0.000 HD
ATOM      3  H   UNL     1      35.275  28.871  47.480  0.00  0.00    +0.000 HD
ENDROOT
BRANCH   1   4
ATOM      4  C   UNL     1      33.560  27.529  47.710  0.00  0.00    +0.000 C 
ATOM      5  H   UNL     1      33.712  26.587  48.263  0.00  0.00    +0.000 HD
ATOM      6  H   UNL     1      33.856  27.317  46.644  0.00  0.00    +0.000 HD
BRANCH   4   7
ATOM      7  C   UNL     1      32.121  27.895  47.739  0.00  0.00    +0.000 A 
ATOM      8  C   UNL     1      31.382  27.469  48.843  0.00  0.00    +0.000 A 
ATOM      9  C   UNL     1      30.037  27.758  48.964  0.00  0.00    +0.000 A 
ATOM     10  N   UNL     1      29.427  28.464  47.999  0.00  0.00    +0.000 NA
ATOM     11  C   UNL     1      30.182  28.865  46.932  0.00  0.00    +0.000 A 
ATOM     12  N   UNL     1      31.483  28.607  46.776  0.00  0.00    +0.000 NA
ATOM     13  H   UNL     1      31.864  26.901  49.622  0.00  0.00    +0.000 HD
ATOM     14  H   UNL     1      29.481  27.419  49.827  0.00  0.00    +0.000 HD
BRANCH  11  15
ATOM     15  C   UNL     1      29.442  29.637  45.889  0.00  0.00    +0.000 C 
ATOM     16  H   UNL     1      28.395  29.287  45.840  0.00  0.00    +0.000 HD
ATOM     17  H   UNL     1      29.879  29.465  44.892  0.00  0.00    +0.000 HD
BRANCH  15  21
ATOM     18  C   UNL     1      29.611  33.221  45.169  0.00  0.00    +0.000 C 
ATOM     19  C   UNL     1      30.375  31.895  45.269  0.00  0.00    +0.000 C 
ATOM     20  H   UNL     1      30.559  31.485  44.279  0.00  0.00    +0.000 HD
ATOM     21  C   UNL     1      29.461  31.114  46.147  0.00  0.00    +0.000 C 
ATOM     22  O   UNL     1      28.215  31.699  46.098  0.00  0.00    +0.000 OA
ATOM     23  C   UNL     1      28.489  33.062  46.180  0.00  0.00    +0.000 C 
ATOM     24  H   UNL     1      27.581  33.621  45.874  0.00  0.00    +0.000 HD
BRANCH  18  25
ATOM     25  O   UNL     1      30.422  34.310  45.475  0.00  0.00    +0.000 OA
ATOM     26  H   UNL     1      31.136  34.335  44.805  0.00  0.00    +0.000 HD
ENDBRANCH  18  25
ENDBRANCH  15  21
ENDBRANCH  11  15
ENDBRANCH   4   7
ENDBRANCH   1   4
BRANCH   1  27
ATOM     27  O   UNL     1      35.002  28.341  49.447  0.00  0.00    +0.000 OA
BRANCH  27  32
ATOM     28  C   UNL     1      37.327  30.178  51.524  0.00  0.00    +0.000 A 
ATOM     29  C   UNL     1      38.058  30.871  50.523  0.00  0.00    +0.000 A 
ATOM     30  C   UNL     1      37.699  30.659  49.191  0.00  0.00    +0.000 A 
ATOM     31  N   UNL     1      36.662  29.789  48.991  0.00  0.00    +0.000 NA
ATOM     32  C   UNL     1      35.985  29.145  49.936  0.00  0.00    +0.000 A 
ATOM     33  N   UNL     1      36.332  29.351  51.228  0.00  0.00    +0.000 NA
ATOM     34  H   UNL     1      37.617  30.354  52.551  0.00  0.00    +0.000 HD
ATOM     35  H   UNL     1      38.863  31.544  50.718  0.00  0.00    +0.000 HD
BRANCH  30  38
ATOM     36  F   UNL     1      38.934  33.269  48.999  0.00  0.00    +0.000 F 
ATOM     37  C   UNL     1      38.906  32.479  47.945  0.00  0.00    +0.000 A 
ATOM     38  C   UNL     1      38.330  31.275  48.057  0.00  0.00    +0.000 A 
ATOM     39  C   UNL     1      38.358  30.519  46.875  0.00  0.00    +0.000 A 
ATOM     40  C   UNL     1      38.924  30.976  45.715  0.00  0.00    +0.000 A 
ATOM     41  C   UNL     1      39.506  32.227  45.654  0.00  0.00    +0.000 A 
ATOM     42  C   UNL     1      39.485  32.971  46.798  0.00  0.00    +0.000 A 
ATOM     43  H   UNL     1      37.922  29.517  46.823  0.00  0.00    +0.000 HD
ATOM     44  H   UNL     1      38.940  30.383  44.808  0.00  0.00    +0.000 HD
ATOM     45  H   UNL     1      39.951  32.578  44.733  0.00  0.00    +0.000 HD
ATOM     46  H   UNL     1      39.938  33.950  46.758  0.00  0.00    +0.000 HD
ENDBRANCH  30  38
ENDBRANCH  27  32
ENDBRANCH   1  27
TORSDOF 8
