
 OpenBabel03262522133D

 33 35  0  0  1  0  0  0  0  0999 V2000
   37.7680   31.7460   47.6560 C   0  0  0  0  0  0  0  0  0  0  0  0
   37.9300   32.5370   48.8070 C   0  0  0  0  0  0  0  0  0  0  0  0
   38.9320   33.4790   48.8880 C   0  0  0  0  0  0  0  0  0  0  0  0
   39.7500   33.5940   47.7880 C   0  0  0  0  0  0  0  0  0  0  0  0
   39.5790   32.8210   46.6820 C   0  0  0  0  0  0  0  0  0  0  0  0
   38.5940   31.8900   46.5940 N   0  0  0  0  0  0  0  0  0  0  0  0
   37.2410   32.3880   49.6410 H   0  0  0  0  0  0  0  0  0  0  0  0
   39.0830   34.1040   49.7610 H   0  0  0  0  0  0  0  0  0  0  0  0
   40.5690   34.2980   47.7350 H   0  0  0  0  0  0  0  0  0  0  0  0
   36.6980   30.7860   47.6540 C   0  0  0  0  0  0  0  0  0  0  0  0
   36.2030   30.3920   46.5980 O   0  0  0  0  0  0  0  0  0  0  0  0
   37.0240   29.6320   49.8130 C   0  0  0  0  0  0  0  0  0  0  0  0
   36.1400   30.2280   48.8970 C   0  0  0  0  0  0  0  0  0  0  0  0
   34.7690   30.2740   49.1880 C   0  0  0  0  0  0  0  0  0  0  0  0
   34.3410   29.7290   50.3710 N   0  0  0  0  0  0  0  0  0  0  0  0
   35.2130   29.1620   51.2340 C   0  0  0  0  0  0  0  0  0  0  0  0
   36.5190   29.1170   50.9580 N   0  0  0  0  0  0  0  0  0  0  0  0
   38.0720   29.6130   49.5580 H   0  0  0  0  0  0  0  0  0  0  0  0
   34.0980   30.7380   48.4700 H   0  0  0  0  0  0  0  0  0  0  0  0
   34.7920   28.7550   52.1450 H   0  0  0  0  0  0  0  0  0  0  0  0
   40.6660   32.9810   45.2350 S   0  0  0  0  0  0  0  0  0  0  0  0
   39.5620   32.9320   43.7930 C   0  0  0  0  0  0  0  0  0  0  0  0
   38.5000   32.7410   44.1100 H   0  0  0  0  0  0  0  0  0  0  0  0
   39.5370   33.8530   43.2140 H   0  0  0  0  0  0  0  0  0  0  0  0
   38.7750   29.7950   42.3470 C   0  0  1  0  0  0  0  0  0  0  0  0
   38.8110   31.2870   42.0800 C   0  0  0  0  0  0  0  0  0  0  0  0
   39.0010   31.4950   41.0100 H   0  0  0  0  0  0  0  0  0  0  0  0
   39.9430   31.7180   42.9720 C   0  0  2  0  0  0  0  0  0  0  0  0
   40.3090   30.6530   43.7480 O   0  0  0  0  0  0  0  0  0  0  0  0
   39.2500   29.7550   43.7840 C   0  0  0  0  0  0  0  0  0  0  0  0
   38.4690   30.0440   44.5050 H   0  0  0  0  0  0  0  0  0  0  0  0
   37.4920   29.2770   42.2100 O   0  0  0  0  0  0  0  0  0  0  0  0
   37.0630   29.3190   43.1030 H   0  0  0  0  0  0  0  0  0  0  0  0
  1  2  1  0  0  0  0
  2  3  2  0  0  0  0
  2  7  1  0  0  0  0
  3  8  1  0  0  0  0
  4  3  1  0  0  0  0
  5  4  2  0  0  0  0
  6  5  1  0  0  0  0
  6  1  2  0  0  0  0
  9  4  1  0  0  0  0
 10  1  1  0  0  0  0
 10 13  1  0  0  0  0
 11 10  2  0  0  0  0
 12 17  1  0  0  0  0
 13 14  1  0  0  0  0
 13 12  2  0  0  0  0
 14 15  2  0  0  0  0
 15 16  1  0  0  0  0
 16 20  1  0  0  0  0
 17 16  2  0  0  0  0
 18 12  1  0  0  0  0
 19 14  1  0  0  0  0
 21  5  1  0  0  0  0
 22 23  1  0  0  0  0
 22 21  1  0  0  0  0
 24 22  1  0  0  0  0
 25 32  1  1  0  0  0
 25 30  1  0  0  0  0
 26 25  1  0  0  0  0
 26 28  1  0  0  0  0
 27 26  1  0  0  0  0
 28 29  1  0  0  0  0
 28 22  1  1  0  0  0
 29 30  1  0  0  0  0
 30 31  1  0  0  0  0
 32 33  1  0  0  0  0
M  END
>  <minimizedAffinity>
-5.26597071

>  <minimizedRMSD>
1.55120242

$$$$
