
 OpenBabel03272509423D

 38 40  0  0  1  0  0  0  0  0999 V2000
   37.0560   30.9400   49.0480 C   0  0  0  0  0  0  0  0  0  0  0  0
   36.7770   31.8550   50.0640 C   0  0  0  0  0  0  0  0  0  0  0  0
   37.3740   33.1130   50.1040 C   0  0  0  0  0  0  0  0  0  0  0  0
   38.2800   33.4710   49.0960 C   0  0  0  0  0  0  0  0  0  0  0  0
   38.5420   32.5640   48.1110 C   0  0  0  0  0  0  0  0  0  0  0  0
   37.9270   31.3220   48.1080 C   0  0  0  0  0  0  0  0  0  0  0  0
   36.0670   31.5550   50.8330 H   0  0  0  0  0  0  0  0  0  0  0  0
   37.1140   33.7760   50.9350 H   0  0  0  0  0  0  0  0  0  0  0  0
   38.7240   34.4630   49.1680 H   0  0  0  0  0  0  0  0  0  0  0  0
   39.2580   32.9710   47.3970 H   0  0  0  0  0  0  0  0  0  0  0  0
   36.4620   29.6220   49.0260 C   0  0  2  0  0  0  0  0  0  0  0  0
   36.9670   29.0750   48.1370 H   0  0  0  0  0  0  0  0  0  0  0  0
   33.6100   30.0110   46.8080 C   0  0  0  0  0  0  0  0  0  0  0  0
   32.8680   28.8630   47.0090 C   0  0  0  0  0  0  0  0  0  0  0  0
   33.3070   27.9630   47.9650 C   0  0  0  0  0  0  0  0  0  0  0  0
   34.4560   28.2370   48.6730 N   0  0  0  0  0  0  0  0  0  0  0  0
   35.1240   29.3490   48.4350 C   0  0  0  0  0  0  0  0  0  0  0  0
   34.7080   30.2390   47.5070 N   0  0  0  0  0  0  0  0  0  0  0  0
   33.2290   30.6910   46.0470 H   0  0  0  0  0  0  0  0  0  0  0  0
   31.9810   28.6330   46.4660 H   0  0  0  0  0  0  0  0  0  0  0  0
   32.7590   27.0430   48.1640 H   0  0  0  0  0  0  0  0  0  0  0  0
   36.9220   28.8590   49.9570 O   0  0  0  0  0  0  0  0  0  0  0  0
   36.9640   27.8660   49.8380 H   0  0  0  0  0  0  0  0  0  0  0  0
   38.3320   30.4430   47.0300 C   0  0  0  0  0  3  0  0  0  0  0  0
   38.9740   30.8570   45.9360 C   0  0  0  0  0  3  0  0  0  0  0  0
   39.4770   30.0540   44.8060 C   0  0  0  0  0  0  0  0  0  0  0  0
   38.6650   29.4090   44.4050 H   0  0  0  0  0  0  0  0  0  0  0  0
   40.2810   29.3520   45.1480 H   0  0  0  0  0  0  0  0  0  0  0  0
   40.1690   31.1320   43.5440 S   0  0  0  0  0  0  0  0  0  0  0  0
   38.1650   31.2210   41.6280 C   0  0  1  0  0  3  0  0  0  0  0  0
   39.4980   30.5840   41.9670 C   0  0  1  0  0  3  0  0  0  0  0  0
   40.3090   31.0700   40.7770 C   0  0  0  0  0  3  0  0  0  0  0  0
   40.5780   32.1270   40.9800 H   0  0  0  0  0  0  0  0  0  0  0  0
   39.4690   31.0520   39.6800 O   0  0  0  0  0  0  0  0  0  0  0  0
   38.1650   31.0030   40.1270 C   0  0  0  0  0  3  0  0  0  0  0  0
   37.7780   29.9750   39.9360 H   0  0  0  0  0  0  0  0  0  0  0  0
   37.1010   30.6260   42.2610 O   0  0  0  0  0  0  0  0  0  0  0  0
   36.9660   31.1000   43.1390 H   0  0  0  0  0  0  0  0  0  0  0  0
  1  2  1  0  0  0  0
  2  3  2  0  0  0  0
  2  7  1  0  0  0  0
  3  8  1  0  0  0  0
  4  9  1  0  0  0  0
  4  3  1  0  0  0  0
  5  4  2  0  0  0  0
  6  5  1  0  0  0  0
  6  1  2  0  0  0  0
 10  5  1  0  0  0  0
 11 12  1  6  0  0  0
 11  1  1  0  0  0  0
 11 22  1  0  0  0  0
 13 14  2  0  0  0  0
 13 18  1  0  0  0  0
 14 15  1  0  0  0  0
 15 21  1  0  0  0  0
 15 16  2  0  0  0  0
 17 16  1  0  0  0  0
 17 11  1  0  0  0  0
 18 17  2  0  0  0  0
 19 13  1  0  0  0  0
 20 14  1  0  0  0  0
 23 22  1  0  0  0  0
 24  6  1  0  0  0  0
 25 24  2  0  0  0  0
 26 28  1  0  0  0  0
 26 25  1  0  0  0  0
 27 26  1  0  0  0  0
 29 26  1  0  0  0  0
 30 31  1  0  0  0  0
 30 37  1  1  0  0  0
 31 29  1  1  0  0  0
 32 33  1  0  0  0  0
 32 31  1  0  0  0  0
 34 35  1  0  0  0  0
 34 32  1  0  0  0  0
 35 30  1  0  0  0  0
 36 35  1  0  0  0  0
 37 38  1  0  0  0  0
M  END
>  <minimizedAffinity>
-5.53271341

>  <minimizedRMSD>
0.941278279

$$$$
