
 OpenBabel03262522293D

 46 49  0  0  1  0  0  0  0  0999 V2000
   38.1950   27.5310   30.2040 S   0  0  0  0  0  0  0  0  0  0  0  0
   35.2210   28.9030   32.5610 C   0  0  0  0  0  0  0  0  0  0  0  0
   35.2670   30.2810   32.2920 C   0  0  0  0  0  0  0  0  0  0  0  0
   36.2140   30.7070   31.3960 C   0  0  0  0  0  0  0  0  0  0  0  0
   37.0390   29.7720   30.8330 N   0  0  0  0  0  0  0  0  0  0  0  0
   36.9650   28.5110   31.1080 C   0  0  0  0  0  0  0  0  0  0  0  0
   36.0470   28.0020   31.9930 N   0  0  0  0  0  0  0  0  0  0  0  0
   34.5080   28.4820   33.2530 H   0  0  0  0  0  0  0  0  0  0  0  0
   36.2670   31.7590   31.1750 H   0  0  0  0  0  0  0  0  0  0  0  0
   34.3830   31.0760   32.9290 O   0  0  0  0  0  0  0  0  0  0  0  0
   34.6360   31.4440   34.2500 C   0  0  0  0  0  0  0  0  0  0  0  0
   35.7740   32.0660   34.7480 C   0  0  0  0  0  0  0  0  0  0  0  0
   35.8410   32.3450   36.0620 C   0  0  0  0  0  0  0  0  0  0  0  0
   34.7920   32.0120   36.8740 C   0  0  0  0  0  0  0  0  0  0  0  0
   33.6600   31.3880   36.3540 C   0  0  0  0  0  0  0  0  0  0  0  0
   33.6080   31.1150   35.0300 N   0  0  0  0  0  0  0  0  0  0  0  0
   36.4980   32.2510   33.9450 H   0  0  0  0  0  0  0  0  0  0  0  0
   36.7620   32.8330   36.3840 H   0  0  0  0  0  0  0  0  0  0  0  0
   34.8680   32.2470   37.9300 H   0  0  0  0  0  0  0  0  0  0  0  0
   32.5130   31.0350   37.2750 C   0  0  0  0  0  0  0  0  0  0  0  0
   31.7150   30.6140   36.6640 H   0  0  0  0  0  0  0  0  0  0  0  0
   32.9190   30.2840   38.0100 H   0  0  0  0  0  0  0  0  0  0  0  0
   32.2010   31.9370   37.8340 H   0  0  0  0  0  0  0  0  0  0  0  0
   38.2840   25.9510   31.1250 C   0  0  0  0  0  0  0  0  0  0  0  0
   37.2840   25.5790   31.3430 H   0  0  0  0  0  0  0  0  0  0  0  0
   38.9030   25.2160   30.5340 H   0  0  0  0  0  0  0  0  0  0  0  0
   37.5360   24.7250   33.4720 F   0  0  0  0  0  0  0  0  0  0  0  0
   38.6240   25.5530   33.4780 C   0  0  0  0  0  0  0  0  0  0  0  0
   39.0990   26.2230   32.3600 C   0  0  0  0  0  0  0  0  0  0  0  0
   40.1840   27.0330   32.4140 C   0  0  0  0  0  0  0  0  0  0  0  0
   40.8640   27.2140   33.6300 C   0  0  0  0  0  0  0  0  0  0  0  0
   40.4110   26.5600   34.7510 C   0  0  0  0  0  0  0  0  0  0  0  0
   39.2920   25.7310   34.6730 C   0  0  0  0  0  0  0  0  0  0  0  0
   40.4910   27.5170   31.5060 H   0  0  0  0  0  0  0  0  0  0  0  0
   41.7020   27.8640   33.5880 H   0  0  0  0  0  0  0  0  0  0  0  0
   41.0060   26.7740   35.6080 H   0  0  0  0  0  0  0  0  0  0  0  0
   38.8940   25.1100   35.8240 O   0  0  0  0  0  0  0  0  0  0  0  0
   38.4850   23.5280   37.6410 C   0  0  2  0  0  3  0  0  0  0  0  0
   39.2230   23.9440   36.4120 C   0  0  1  0  0  3  0  0  0  0  0  0
   39.0060   22.6990   35.5390 C   0  0  0  0  0  3  0  0  0  0  0  0
   38.9820   22.9870   34.4610 H   0  0  0  0  0  0  0  0  0  0  0  0
   37.8570   22.1050   35.9980 O   0  0  0  0  0  0  0  0  0  0  0  0
   37.2710   22.8670   36.9710 C   0  0  0  0  0  3  0  0  0  0  0  0
   36.6690   22.2800   37.6710 H   0  0  0  0  0  0  0  0  0  0  0  0
   37.9820   24.5250   38.4290 O   0  0  0  0  0  0  0  0  0  0  0  0
   37.0550   24.8140   38.1510 H   0  0  0  0  0  0  0  0  0  0  0  0
  1  6  1  0  0  0  0
  1 24  1  0  0  0  0
  2  8  1  0  0  0  0
  3  2  1  0  0  0  0
  3 10  1  0  0  0  0
  4  3  2  0  0  0  0
  5  6  2  0  0  0  0
  5  4  1  0  0  0  0
  6  7  1  0  0  0  0
  7  2  2  0  0  0  0
  9  4  1  0  0  0  0
 10 11  1  0  0  0  0
 11 12  2  0  0  0  0
 11 16  1  0  0  0  0
 12 13  1  0  0  0  0
 13 18  1  0  0  0  0
 13 14  2  0  0  0  0
 14 19  1  0  0  0  0
 15 14  1  0  0  0  0
 15 20  1  0  0  0  0
 16 15  2  0  0  0  0
 17 12  1  0  0  0  0
 20 23  1  0  0  0  0
 20 22  1  0  0  0  0
 21 20  1  0  0  0  0
 24 25  1  0  0  0  0
 24 29  1  0  0  0  0
 26 24  1  0  0  0  0
 27 28  1  0  0  0  0
 28 33  1  0  0  0  0
 29 30  1  0  0  0  0
 29 28  2  0  0  0  0
 30 31  2  0  0  0  0
 31 32  1  0  0  0  0
 32 36  1  0  0  0  0
 33 32  2  0  0  0  0
 33 37  1  0  0  0  0
 34 30  1  0  0  0  0
 35 31  1  0  0  0  0
 38 45  1  1  0  0  0
 39 37  1  6  0  0  0
 39 38  1  0  0  0  0
 40 42  1  0  0  0  0
 40 39  1  0  0  0  0
 41 40  1  0  0  0  0
 42 43  1  0  0  0  0
 43 38  1  0  0  0  0
 43 44  1  0  0  0  0
 46 45  1  0  0  0  0
M  END
>  <minimizedAffinity>
-5.99498081

$$$$

 OpenBabel03262522293D

 46 49  0  0  1  0  0  0  0  0999 V2000
   38.6680   27.6890   30.8130 S   0  0  0  0  0  0  0  0  0  0  0  0
   37.2430   24.2990   32.4720 C   0  0  0  0  0  0  0  0  0  0  0  0
   38.0110   24.2200   33.6460 C   0  0  0  0  0  0  0  0  0  0  0  0
   38.9250   25.2200   33.8570 C   0  0  0  0  0  0  0  0  0  0  0  0
   39.0250   26.2140   32.9220 N   0  0  0  0  0  0  0  0  0  0  0  0
   38.2990   26.2510   31.8530 C   0  0  0  0  0  0  0  0  0  0  0  0
   37.3610   25.2900   31.5660 N   0  0  0  0  0  0  0  0  0  0  0  0
   36.5010   23.5540   32.2270 H   0  0  0  0  0  0  0  0  0  0  0  0
   39.5250   25.1790   34.7500 H   0  0  0  0  0  0  0  0  0  0  0  0
   37.7940   23.1750   34.4700 O   0  0  0  0  0  0  0  0  0  0  0  0
   38.2190   23.2610   35.7960 C   0  0  0  0  0  0  0  0  0  0  0  0
   37.6040   23.9480   36.8350 C   0  0  0  0  0  0  0  0  0  0  0  0
   38.1660   23.9190   38.0570 C   0  0  0  0  0  0  0  0  0  0  0  0
   39.3240   23.2160   38.2470 C   0  0  0  0  0  0  0  0  0  0  0  0
   39.9240   22.5340   37.1920 C   0  0  0  0  0  0  0  0  0  0  0  0
   39.3460   22.5740   35.9680 N   0  0  0  0  0  0  0  0  0  0  0  0
   36.6920   24.4460   36.4850 H   0  0  0  0  0  0  0  0  0  0  0  0
   37.6300   24.4790   38.8250 H   0  0  0  0  0  0  0  0  0  0  0  0
   39.7580   23.2060   39.2410 H   0  0  0  0  0  0  0  0  0  0  0  0
   41.2030   21.7610   37.4320 C   0  0  0  0  0  0  0  0  0  0  0  0
   41.4680   21.2620   36.5010 H   0  0  0  0  0  0  0  0  0  0  0  0
   41.9770   22.5220   37.7350 H   0  0  0  0  0  0  0  0  0  0  0  0
   41.0530   21.0600   38.2740 H   0  0  0  0  0  0  0  0  0  0  0  0
   37.0560   28.1420   30.0710 C   0  0  0  0  0  0  0  0  0  0  0  0
   37.1720   28.3640   29.0110 H   0  0  0  0  0  0  0  0  0  0  0  0
   36.3180   27.3110   30.2640 H   0  0  0  0  0  0  0  0  0  0  0  0
   35.1890   27.6410   32.0290 F   0  0  0  0  0  0  0  0  0  0  0  0
   35.5960   28.9280   31.8200 C   0  0  0  0  0  0  0  0  0  0  0  0
   36.5320   29.3050   30.8680 C   0  0  0  0  0  0  0  0  0  0  0  0
   36.9070   30.5970   30.6990 C   0  0  0  0  0  0  0  0  0  0  0  0
   36.3430   31.6010   31.5030 C   0  0  0  0  0  0  0  0  0  0  0  0
   35.4140   31.2510   32.4530 C   0  0  0  0  0  0  0  0  0  0  0  0
   35.0420   29.9170   32.6100 C   0  0  0  0  0  0  0  0  0  0  0  0
   37.6370   30.8090   29.9420 H   0  0  0  0  0  0  0  0  0  0  0  0
   36.6890   32.5860   31.3070 H   0  0  0  0  0  0  0  0  0  0  0  0
   35.0600   32.0960   32.9990 H   0  0  0  0  0  0  0  0  0  0  0  0
   34.1130   29.6370   33.5740 O   0  0  0  0  0  0  0  0  0  0  0  0
   31.6830   29.5350   33.8010 C   0  0  2  0  0  3  0  0  0  0  0  0
   32.9830   30.2460   33.9800 C   0  0  1  0  0  3  0  0  0  0  0  0
   32.9170   30.5440   35.4840 C   0  0  0  0  0  3  0  0  0  0  0  0
   33.9460   30.5610   35.9170 H   0  0  0  0  0  0  0  0  0  0  0  0
   32.0840   29.5970   36.0270 O   0  0  0  0  0  0  0  0  0  0  0  0
   31.7030   28.6860   35.0800 C   0  0  0  0  0  3  0  0  0  0  0  0
   30.7370   28.2230   35.2970 H   0  0  0  0  0  0  0  0  0  0  0  0
   31.5970   28.6490   32.7640 O   0  0  0  0  0  0  0  0  0  0  0  0
   31.9000   27.7200   33.0170 H   0  0  0  0  0  0  0  0  0  0  0  0
  1  6  1  0  0  0  0
  2  3  1  0  0  0  0
  3  4  2  0  0  0  0
  3 10  1  0  0  0  0
  4  9  1  0  0  0  0
  5  4  1  0  0  0  0
  6  5  2  0  0  0  0
  7  6  1  0  0  0  0
  7  2  2  0  0  0  0
  8  2  1  0  0  0  0
 10 11  1  0  0  0  0
 11 16  2  0  0  0  0
 11 12  1  0  0  0  0
 12 13  2  0  0  0  0
 13 14  1  0  0  0  0
 13 18  1  0  0  0  0
 14 19  1  0  0  0  0
 15 20  1  0  0  0  0
 15 14  2  0  0  0  0
 16 15  1  0  0  0  0
 17 12  1  0  0  0  0
 20 22  1  0  0  0  0
 20 23  1  0  0  0  0
 21 20  1  0  0  0  0
 24 26  1  0  0  0  0
 24  1  1  0  0  0  0
 24 29  1  0  0  0  0
 25 24  1  0  0  0  0
 28 27  1  0  0  0  0
 28 33  1  0  0  0  0
 29 28  2  0  0  0  0
 30 29  1  0  0  0  0
 30 31  2  0  0  0  0
 31 32  1  0  0  0  0
 32 33  2  0  0  0  0
 32 36  1  0  0  0  0
 33 37  1  0  0  0  0
 34 30  1  0  0  0  0
 35 31  1  0  0  0  0
 38 45  1  6  0  0  0
 38 39  1  0  0  0  0
 38 43  1  0  0  0  0
 39 37  1  1  0  0  0
 39 40  1  0  0  0  0
 40 41  1  0  0  0  0
 40 42  1  0  0  0  0
 43 44  1  0  0  0  0
 43 42  1  0  0  0  0
 45 46  1  0  0  0  0
M  END
>  <minimizedAffinity>
-5.93835688

$$$$

 OpenBabel03262522293D

 46 49  0  0  1  0  0  0  0  0999 V2000
   37.1080   27.7390   33.1950 S   0  0  0  0  0  0  0  0  0  0  0  0
   36.2170   24.3280   31.2340 C   0  0  0  0  0  0  0  0  0  0  0  0
   37.3280   23.5270   31.5510 C   0  0  0  0  0  0  0  0  0  0  0  0
   38.2870   24.0890   32.3530 C   0  0  0  0  0  0  0  0  0  0  0  0
   38.1000   25.3730   32.7850 N   0  0  0  0  0  0  0  0  0  0  0  0
   37.0630   26.0770   32.4710 C   0  0  0  0  0  0  0  0  0  0  0  0
   36.0570   25.5920   31.6730 N   0  0  0  0  0  0  0  0  0  0  0  0
   35.4160   23.9660   30.6080 H   0  0  0  0  0  0  0  0  0  0  0  0
   39.1480   23.4930   32.6080 H   0  0  0  0  0  0  0  0  0  0  0  0
   37.3660   22.2770   31.0460 O   0  0  0  0  0  0  0  0  0  0  0  0
   36.5900   21.2840   31.6440 C   0  0  0  0  0  0  0  0  0  0  0  0
   35.9310   20.2360   31.0130 C   0  0  0  0  0  0  0  0  0  0  0  0
   35.2240   19.3690   31.7590 C   0  0  0  0  0  0  0  0  0  0  0  0
   35.1700   19.5380   33.1160 C   0  0  0  0  0  0  0  0  0  0  0  0
   35.8380   20.5960   33.7280 C   0  0  0  0  0  0  0  0  0  0  0  0
   36.5450   21.4590   32.9630 N   0  0  0  0  0  0  0  0  0  0  0  0
   36.0950   20.2700   29.9300 H   0  0  0  0  0  0  0  0  0  0  0  0
   34.7330   18.5710   31.1990 H   0  0  0  0  0  0  0  0  0  0  0  0
   34.5940   18.8260   33.6970 H   0  0  0  0  0  0  0  0  0  0  0  0
   35.7640   20.7560   35.2310 C   0  0  0  0  0  0  0  0  0  0  0  0
   36.3950   21.6000   35.5050 H   0  0  0  0  0  0  0  0  0  0  0  0
   34.6800   20.9460   35.4740 H   0  0  0  0  0  0  0  0  0  0  0  0
   36.0700   19.8100   35.7150 H   0  0  0  0  0  0  0  0  0  0  0  0
   35.5570   28.5280   32.6230 C   0  0  0  0  0  0  0  0  0  0  0  0
   35.2550   28.1210   31.6580 H   0  0  0  0  0  0  0  0  0  0  0  0
   34.7660   28.4000   33.4160 H   0  0  0  0  0  0  0  0  0  0  0  0
   34.8500   30.0280   34.8180 F   0  0  0  0  0  0  0  0  0  0  0  0
   35.4200   30.6560   33.7460 C   0  0  0  0  0  0  0  0  0  0  0  0
   35.8200   30.0080   32.5860 C   0  0  0  0  0  0  0  0  0  0  0  0
   36.3830   30.6740   31.5480 C   0  0  0  0  0  0  0  0  0  0  0  0
   36.5750   32.0630   31.6280 C   0  0  0  0  0  0  0  0  0  0  0  0
   36.1860   32.7260   32.7680 C   0  0  0  0  0  0  0  0  0  0  0  0
   35.6090   32.0220   33.8240 C   0  0  0  0  0  0  0  0  0  0  0  0
   36.6680   30.1030   30.6850 H   0  0  0  0  0  0  0  0  0  0  0  0
   37.0220   32.5090   30.7740 H   0  0  0  0  0  0  0  0  0  0  0  0
   36.3830   33.7710   32.7110 H   0  0  0  0  0  0  0  0  0  0  0  0
   35.2440   32.7410   34.9280 O   0  0  0  0  0  0  0  0  0  0  0  0
   33.9930   32.9840   37.0120 C   0  0  2  0  0  3  0  0  0  0  0  0
   34.0630   32.9970   35.5220 C   0  0  1  0  0  3  0  0  0  0  0  0
   33.4900   34.3930   35.2410 C   0  0  0  0  0  3  0  0  0  0  0  0
   33.9390   34.8110   34.3090 H   0  0  0  0  0  0  0  0  0  0  0  0
   33.7240   35.1370   36.3720 O   0  0  0  0  0  0  0  0  0  0  0  0
   34.4570   34.4230   37.2800 C   0  0  0  0  0  3  0  0  0  0  0  0
   34.2830   34.7390   38.3120 H   0  0  0  0  0  0  0  0  0  0  0  0
   34.8790   32.1760   37.6680 O   0  0  0  0  0  0  0  0  0  0  0  0
   35.7570   32.6340   37.8620 H   0  0  0  0  0  0  0  0  0  0  0  0
  2  3  2  0  0  0  0
  2  7  1  0  0  0  0
  3  4  1  0  0  0  0
  4  9  1  0  0  0  0
  4  5  2  0  0  0  0
  6  5  1  0  0  0  0
  6  1  1  0  0  0  0
  7  6  2  0  0  0  0
  8  2  1  0  0  0  0
 10  3  1  0  0  0  0
 10 11  1  0  0  0  0
 11 16  1  0  0  0  0
 12 11  2  0  0  0  0
 12 13  1  0  0  0  0
 13 14  2  0  0  0  0
 14 19  1  0  0  0  0
 14 15  1  0  0  0  0
 15 20  1  0  0  0  0
 16 15  2  0  0  0  0
 17 12  1  0  0  0  0
 18 13  1  0  0  0  0
 20 22  1  0  0  0  0
 20 21  1  0  0  0  0
 20 23  1  0  0  0  0
 24  1  1  0  0  0  0
 24 26  1  0  0  0  0
 25 24  1  0  0  0  0
 28 33  1  0  0  0  0
 28 27  1  0  0  0  0
 29 24  1  0  0  0  0
 29 28  2  0  0  0  0
 30 31  2  0  0  0  0
 30 29  1  0  0  0  0
 31 32  1  0  0  0  0
 32 33  2  0  0  0  0
 33 37  1  0  0  0  0
 34 30  1  0  0  0  0
 35 31  1  0  0  0  0
 36 32  1  0  0  0  0
 38 43  1  0  0  0  0
 38 45  1  1  0  0  0
 39 37  1  1  0  0  0
 39 38  1  0  0  0  0
 40 39  1  0  0  0  0
 40 42  1  0  0  0  0
 41 40  1  0  0  0  0
 42 43  1  0  0  0  0
 43 44  1  0  0  0  0
 45 46  1  0  0  0  0
M  END
>  <minimizedAffinity>
-5.84299469

$$$$

 OpenBabel03262522293D

 46 49  0  0  1  0  0  0  0  0999 V2000
   41.5830   26.1090   34.5770 S   0  0  0  0  0  0  0  0  0  0  0  0
   37.9920   27.3090   33.1830 C   0  0  0  0  0  0  0  0  0  0  0  0
   37.3350   27.6600   34.3740 C   0  0  0  0  0  0  0  0  0  0  0  0
   38.0410   27.5060   35.5400 C   0  0  0  0  0  0  0  0  0  0  0  0
   39.3200   27.0270   35.4640 N   0  0  0  0  0  0  0  0  0  0  0  0
   39.8890   26.7150   34.3460 C   0  0  0  0  0  0  0  0  0  0  0  0
   39.2540   26.8400   33.1350 N   0  0  0  0  0  0  0  0  0  0  0  0
   37.5110   27.3980   32.2210 H   0  0  0  0  0  0  0  0  0  0  0  0
   37.5560   27.7680   36.4650 H   0  0  0  0  0  0  0  0  0  0  0  0
   36.0700   28.1190   34.2830 O   0  0  0  0  0  0  0  0  0  0  0  0
   35.8600   29.4670   33.9950 C   0  0  0  0  0  0  0  0  0  0  0  0
   35.7320   30.0500   32.7410 C   0  0  0  0  0  0  0  0  0  0  0  0
   35.5330   31.3780   32.6570 C   0  0  0  0  0  0  0  0  0  0  0  0
   35.4620   32.1200   33.8040 C   0  0  0  0  0  0  0  0  0  0  0  0
   35.5930   31.5150   35.0520 C   0  0  0  0  0  0  0  0  0  0  0  0
   35.7930   30.1780   35.1190 N   0  0  0  0  0  0  0  0  0  0  0  0
   35.8150   29.2940   31.9510 H   0  0  0  0  0  0  0  0  0  0  0  0
   35.4400   31.7680   31.6420 H   0  0  0  0  0  0  0  0  0  0  0  0
   35.3000   33.1890   33.7120 H   0  0  0  0  0  0  0  0  0  0  0  0
   35.5060   32.3600   36.3040 C   0  0  0  0  0  0  0  0  0  0  0  0
   35.5760   31.6910   37.1610 H   0  0  0  0  0  0  0  0  0  0  0  0
   36.3750   33.0770   36.2600 H   0  0  0  0  0  0  0  0  0  0  0  0
   34.5680   32.9450   36.2860 H   0  0  0  0  0  0  0  0  0  0  0  0
   41.5640   24.4220   33.8640 C   0  0  0  0  0  0  0  0  0  0  0  0
   41.3730   24.4620   32.7920 H   0  0  0  0  0  0  0  0  0  0  0  0
   42.5350   23.9070   34.1150 H   0  0  0  0  0  0  0  0  0  0  0  0
   39.3680   23.5010   32.4860 F   0  0  0  0  0  0  0  0  0  0  0  0
   39.4620   23.2420   33.8240 C   0  0  0  0  0  0  0  0  0  0  0  0
   40.5200   23.6500   34.6240 C   0  0  0  0  0  0  0  0  0  0  0  0
   40.5700   23.3680   35.9490 C   0  0  0  0  0  0  0  0  0  0  0  0
   39.5300   22.6410   36.5510 C   0  0  0  0  0  0  0  0  0  0  0  0
   38.4720   22.2270   35.7780 C   0  0  0  0  0  0  0  0  0  0  0  0
   38.4400   22.5280   34.4170 C   0  0  0  0  0  0  0  0  0  0  0  0
   41.4220   23.7180   36.5010 H   0  0  0  0  0  0  0  0  0  0  0  0
   39.6460   22.4630   37.5920 H   0  0  0  0  0  0  0  0  0  0  0  0
   37.7490   21.6860   36.3440 H   0  0  0  0  0  0  0  0  0  0  0  0
   37.3590   22.0860   33.7060 O   0  0  0  0  0  0  0  0  0  0  0  0
   35.8920   20.2020   33.1870 C   0  0  2  0  0  3  0  0  0  0  0  0
   37.1300   21.0000   32.9430 C   0  0  1  0  0  3  0  0  0  0  0  0
   36.9680   21.2890   31.4440 C   0  0  0  0  0  3  0  0  0  0  0  0
   37.4390   22.2670   31.1890 H   0  0  0  0  0  0  0  0  0  0  0  0
   35.6220   21.2170   31.1830 O   0  0  0  0  0  0  0  0  0  0  0  0
   34.9130   21.0250   32.3370 C   0  0  0  0  0  3  0  0  0  0  0  0
   33.9600   20.5130   32.1740 H   0  0  0  0  0  0  0  0  0  0  0  0
   35.3880   20.2120   34.4570 O   0  0  0  0  0  0  0  0  0  0  0  0
   34.7470   20.9760   34.6170 H   0  0  0  0  0  0  0  0  0  0  0  0
  2  3  1  0  0  0  0
  3  4  2  0  0  0  0
  4  9  1  0  0  0  0
  5  4  1  0  0  0  0
  6  1  1  0  0  0  0
  6  5  2  0  0  0  0
  7  2  2  0  0  0  0
  7  6  1  0  0  0  0
  8  2  1  0  0  0  0
 10  3  1  0  0  0  0
 11 10  1  0  0  0  0
 11 16  1  0  0  0  0
 12 11  2  0  0  0  0
 13 12  1  0  0  0  0
 13 14  2  0  0  0  0
 14 15  1  0  0  0  0
 15 16  2  0  0  0  0
 15 20  1  0  0  0  0
 17 12  1  0  0  0  0
 18 13  1  0  0  0  0
 19 14  1  0  0  0  0
 20 21  1  0  0  0  0
 22 20  1  0  0  0  0
 23 20  1  0  0  0  0
 24 26  1  0  0  0  0
 24  1  1  0  0  0  0
 24 29  1  0  0  0  0
 25 24  1  0  0  0  0
 27 28  1  0  0  0  0
 28 33  2  0  0  0  0
 28 29  1  0  0  0  0
 29 30  2  0  0  0  0
 30 34  1  0  0  0  0
 30 31  1  0  0  0  0
 31 35  1  0  0  0  0
 32 36  1  0  0  0  0
 32 31  2  0  0  0  0
 33 32  1  0  0  0  0
 37 33  1  0  0  0  0
 38 45  1  1  0  0  0
 39 38  1  0  0  0  0
 39 37  1  1  0  0  0
 40 39  1  0  0  0  0
 41 40  1  0  0  0  0
 42 40  1  0  0  0  0
 42 43  1  0  0  0  0
 43 38  1  0  0  0  0
 44 43  1  0  0  0  0
 45 46  1  0  0  0  0
M  END
>  <minimizedAffinity>
-5.80161428

$$$$

 OpenBabel03262522293D

 46 49  0  0  1  0  0  0  0  0999 V2000
   39.3340   26.9760   31.1410 S   0  0  0  0  0  0  0  0  0  0  0  0
   36.2000   29.4650   31.6530 C   0  0  0  0  0  0  0  0  0  0  0  0
   35.7020   29.0330   32.8940 C   0  0  0  0  0  0  0  0  0  0  0  0
   36.3650   27.9970   33.5010 C   0  0  0  0  0  0  0  0  0  0  0  0
   37.4520   27.4620   32.8650 N   0  0  0  0  0  0  0  0  0  0  0  0
   37.8790   27.8890   31.7220 C   0  0  0  0  0  0  0  0  0  0  0  0
   37.2740   28.9210   31.0480 N   0  0  0  0  0  0  0  0  0  0  0  0
   35.7400   30.2730   31.1060 H   0  0  0  0  0  0  0  0  0  0  0  0
   36.0000   27.6490   34.4520 H   0  0  0  0  0  0  0  0  0  0  0  0
   34.6190   29.6640   33.3910 O   0  0  0  0  0  0  0  0  0  0  0  0
   34.7670   30.4730   34.5180 C   0  0  0  0  0  0  0  0  0  0  0  0
   35.8980   31.1820   34.9030 C   0  0  0  0  0  0  0  0  0  0  0  0
   35.8550   31.9140   36.0310 C   0  0  0  0  0  0  0  0  0  0  0  0
   34.7030   31.9420   36.7700 C   0  0  0  0  0  0  0  0  0  0  0  0
   33.5810   31.2230   36.3660 C   0  0  0  0  0  0  0  0  0  0  0  0
   33.6410   30.4920   35.2280 N   0  0  0  0  0  0  0  0  0  0  0  0
   36.7120   31.0340   34.1850 H   0  0  0  0  0  0  0  0  0  0  0  0
   36.7760   32.4450   36.2730 H   0  0  0  0  0  0  0  0  0  0  0  0
   34.6920   32.5390   37.6760 H   0  0  0  0  0  0  0  0  0  0  0  0
   32.3200   31.2760   37.2010 C   0  0  0  0  0  0  0  0  0  0  0  0
   31.5550   30.6970   36.6820 H   0  0  0  0  0  0  0  0  0  0  0  0
   32.5840   30.8230   38.1980 H   0  0  0  0  0  0  0  0  0  0  0  0
   32.0320   32.3310   37.3600 H   0  0  0  0  0  0  0  0  0  0  0  0
   40.5900   27.2420   32.4460 C   0  0  0  0  0  0  0  0  0  0  0  0
   41.4510   27.7760   32.0450 H   0  0  0  0  0  0  0  0  0  0  0  0
   40.1100   27.7790   33.3130 H   0  0  0  0  0  0  0  0  0  0  0  0
   39.5800   26.5280   34.9030 F   0  0  0  0  0  0  0  0  0  0  0  0
   40.3720   25.6390   34.2320 C   0  0  0  0  0  0  0  0  0  0  0  0
   40.9350   25.8830   32.9880 C   0  0  0  0  0  0  0  0  0  0  0  0
   41.7140   24.9670   32.3600 C   0  0  0  0  0  0  0  0  0  0  0  0
   41.9710   23.7280   32.9700 C   0  0  0  0  0  0  0  0  0  0  0  0
   41.4230   23.4660   34.2020 C   0  0  0  0  0  0  0  0  0  0  0  0
   40.6250   24.4200   34.8310 C   0  0  0  0  0  0  0  0  0  0  0  0
   42.1130   25.2290   31.3990 H   0  0  0  0  0  0  0  0  0  0  0  0
   42.5890   23.0690   32.4120 H   0  0  0  0  0  0  0  0  0  0  0  0
   41.6870   22.4970   34.5600 H   0  0  0  0  0  0  0  0  0  0  0  0
   40.1110   24.0950   36.0560 O   0  0  0  0  0  0  0  0  0  0  0  0
   39.0290   22.5840   37.6410 C   0  0  2  0  0  3  0  0  0  0  0  0
   38.9770   23.4890   36.4560 C   0  0  1  0  0  3  0  0  0  0  0  0
   37.8590   24.4430   36.9000 C   0  0  0  0  0  3  0  0  0  0  0  0
   38.0250   25.4570   36.4640 H   0  0  0  0  0  0  0  0  0  0  0  0
   37.8470   24.4060   38.2730 O   0  0  0  0  0  0  0  0  0  0  0  0
   38.8750   23.6370   38.7470 C   0  0  0  0  0  3  0  0  0  0  0  0
   38.6640   23.1970   39.7250 H   0  0  0  0  0  0  0  0  0  0  0  0
   40.2160   21.9520   37.8870 O   0  0  0  0  0  0  0  0  0  0  0  0
   40.8380   22.4990   38.4650 H   0  0  0  0  0  0  0  0  0  0  0  0
  1  6  1  0  0  0  0
  1 24  1  0  0  0  0
  2  3  1  0  0  0  0
  3 10  1  0  0  0  0
  3  4  2  0  0  0  0
  4  9  1  0  0  0  0
  5  4  1  0  0  0  0
  6  5  2  0  0  0  0
  7  2  2  0  0  0  0
  7  6  1  0  0  0  0
  8  2  1  0  0  0  0
 10 11  1  0  0  0  0
 11 12  2  0  0  0  0
 11 16  1  0  0  0  0
 12 13  1  0  0  0  0
 13 18  1  0  0  0  0
 13 14  2  0  0  0  0
 14 19  1  0  0  0  0
 15 14  1  0  0  0  0
 15 20  1  0  0  0  0
 16 15  2  0  0  0  0
 17 12  1  0  0  0  0
 20 23  1  0  0  0  0
 20 22  1  0  0  0  0
 21 20  1  0  0  0  0
 24 29  1  0  0  0  0
 24 26  1  0  0  0  0
 25 24  1  0  0  0  0
 28 33  1  0  0  0  0
 28 27  1  0  0  0  0
 29 28  2  0  0  0  0
 30 31  2  0  0  0  0
 30 29  1  0  0  0  0
 31 32  1  0  0  0  0
 32 36  1  0  0  0  0
 32 33  2  0  0  0  0
 33 37  1  0  0  0  0
 34 30  1  0  0  0  0
 35 31  1  0  0  0  0
 38 45  1  1  0  0  0
 38 43  1  0  0  0  0
 39 37  1  1  0  0  0
 39 40  1  0  0  0  0
 39 38  1  0  0  0  0
 40 42  1  0  0  0  0
 41 40  1  0  0  0  0
 42 43  1  0  0  0  0
 43 44  1  0  0  0  0
 45 46  1  0  0  0  0
M  END
>  <minimizedAffinity>
-5.79922676

$$$$

 OpenBabel03262522293D

 46 49  0  0  1  0  0  0  0  0999 V2000
   37.6810   28.4550   30.9090 S   0  0  0  0  0  0  0  0  0  0  0  0
   34.3910   30.6430   31.7200 C   0  0  0  0  0  0  0  0  0  0  0  0
   34.2990   30.4990   33.1150 C   0  0  0  0  0  0  0  0  0  0  0  0
   35.2600   29.7350   33.7240 C   0  0  0  0  0  0  0  0  0  0  0  0
   36.2310   29.1710   32.9420 N   0  0  0  0  0  0  0  0  0  0  0  0
   36.2800   29.3280   31.6600 C   0  0  0  0  0  0  0  0  0  0  0  0
   35.3580   30.0770   30.9730 N   0  0  0  0  0  0  0  0  0  0  0  0
   33.6760   31.2270   31.1610 H   0  0  0  0  0  0  0  0  0  0  0  0
   35.2080   29.6110   34.7930 H   0  0  0  0  0  0  0  0  0  0  0  0
   33.2800   31.1200   33.7450 O   0  0  0  0  0  0  0  0  0  0  0  0
   32.7120   30.5150   34.8660 C   0  0  0  0  0  0  0  0  0  0  0  0
   32.8410   30.9090   36.1920 C   0  0  0  0  0  0  0  0  0  0  0  0
   32.2160   30.1970   37.1470 C   0  0  0  0  0  0  0  0  0  0  0  0
   31.4710   29.1060   36.7910 C   0  0  0  0  0  0  0  0  0  0  0  0
   31.3540   28.7280   35.4560 C   0  0  0  0  0  0  0  0  0  0  0  0
   31.9890   29.4550   34.5080 N   0  0  0  0  0  0  0  0  0  0  0  0
   33.4730   31.8010   36.2730 H   0  0  0  0  0  0  0  0  0  0  0  0
   32.3600   30.5620   38.1650 H   0  0  0  0  0  0  0  0  0  0  0  0
   30.9750   28.5470   37.5780 H   0  0  0  0  0  0  0  0  0  0  0  0
   30.5200   27.5190   35.0920 C   0  0  0  0  0  0  0  0  0  0  0  0
   30.5150   27.4350   34.0050 H   0  0  0  0  0  0  0  0  0  0  0  0
   31.0190   26.6350   35.5790 H   0  0  0  0  0  0  0  0  0  0  0  0
   29.5070   27.6310   35.5230 H   0  0  0  0  0  0  0  0  0  0  0  0
   37.5970   26.7660   31.6130 C   0  0  0  0  0  0  0  0  0  0  0  0
   36.6020   26.5670   32.0110 H   0  0  0  0  0  0  0  0  0  0  0  0
   37.9070   26.0240   30.8230 H   0  0  0  0  0  0  0  0  0  0  0  0
   37.0910   25.3280   33.9030 F   0  0  0  0  0  0  0  0  0  0  0  0
   38.3070   25.9370   33.7620 C   0  0  0  0  0  0  0  0  0  0  0  0
   38.6790   26.6840   32.6540 C   0  0  0  0  0  0  0  0  0  0  0  0
   39.8990   27.2680   32.5580 C   0  0  0  0  0  0  0  0  0  0  0  0
   40.8290   27.1250   33.6000 C   0  0  0  0  0  0  0  0  0  0  0  0
   40.4810   26.3890   34.7080 C   0  0  0  0  0  0  0  0  0  0  0  0
   39.2220   25.7960   34.7860 C   0  0  0  0  0  0  0  0  0  0  0  0
   40.1130   27.8300   31.6690 H   0  0  0  0  0  0  0  0  0  0  0  0
   41.7600   27.6130   33.4470 H   0  0  0  0  0  0  0  0  0  0  0  0
   41.2670   26.3510   35.4270 H   0  0  0  0  0  0  0  0  0  0  0  0
   38.9400   25.0770   35.9150 O   0  0  0  0  0  0  0  0  0  0  0  0
   39.5980   22.8700   36.7280 C   0  0  2  0  0  3  0  0  0  0  0  0
   38.5890   23.7960   36.1370 C   0  0  1  0  0  3  0  0  0  0  0  0
   37.4380   23.6080   37.1360 C   0  0  0  0  0  3  0  0  0  0  0  0
   36.8420   24.5470   37.2150 H   0  0  0  0  0  0  0  0  0  0  0  0
   38.0160   23.1960   38.3120 O   0  0  0  0  0  0  0  0  0  0  0  0
   39.3800   23.2020   38.2100 C   0  0  0  0  0  3  0  0  0  0  0  0
   39.8620   22.4850   38.8810 H   0  0  0  0  0  0  0  0  0  0  0  0
   40.9130   23.1390   36.4710 O   0  0  0  0  0  0  0  0  0  0  0  0
   41.3210   23.7730   37.1440 H   0  0  0  0  0  0  0  0  0  0  0  0
  1 24  1  0  0  0  0
  1  6  1  0  0  0  0
  2  3  1  0  0  0  0
  3  4  2  0  0  0  0
  3 10  1  0  0  0  0
  4  9  1  0  0  0  0
  5  4  1  0  0  0  0
  6  5  2  0  0  0  0
  7  6  1  0  0  0  0
  7  2  2  0  0  0  0
  8  2  1  0  0  0  0
 10 11  1  0  0  0  0
 11 12  1  0  0  0  0
 12 17  1  0  0  0  0
 12 13  2  0  0  0  0
 13 18  1  0  0  0  0
 14 13  1  0  0  0  0
 14 19  1  0  0  0  0
 15 14  2  0  0  0  0
 16 11  2  0  0  0  0
 16 15  1  0  0  0  0
 20 15  1  0  0  0  0
 20 23  1  0  0  0  0
 20 22  1  0  0  0  0
 21 20  1  0  0  0  0
 24 25  1  0  0  0  0
 24 29  1  0  0  0  0
 26 24  1  0  0  0  0
 28 27  1  0  0  0  0
 28 33  1  0  0  0  0
 29 28  2  0  0  0  0
 30 29  1  0  0  0  0
 30 31  2  0  0  0  0
 31 32  1  0  0  0  0
 32 33  2  0  0  0  0
 32 36  1  0  0  0  0
 33 37  1  0  0  0  0
 34 30  1  0  0  0  0
 35 31  1  0  0  0  0
 38 45  1  6  0  0  0
 38 43  1  0  0  0  0
 39 37  1  1  0  0  0
 39 38  1  0  0  0  0
 39 40  1  0  0  0  0
 40 41  1  0  0  0  0
 40 42  1  0  0  0  0
 43 42  1  0  0  0  0
 43 44  1  0  0  0  0
 45 46  1  0  0  0  0
M  END
>  <minimizedAffinity>
-5.79137802

$$$$

 OpenBabel03262522293D

 46 49  0  0  1  0  0  0  0  0999 V2000
   35.4780   21.9270   31.1320 S   0  0  0  0  0  0  0  0  0  0  0  0
   37.5460   25.3910   31.1560 C   0  0  0  0  0  0  0  0  0  0  0  0
   36.5070   26.3350   31.0910 C   0  0  0  0  0  0  0  0  0  0  0  0
   35.2270   25.8450   31.0440 C   0  0  0  0  0  0  0  0  0  0  0  0
   35.0510   24.4890   31.0630 N   0  0  0  0  0  0  0  0  0  0  0  0
   36.0350   23.6530   31.1240 C   0  0  0  0  0  0  0  0  0  0  0  0
   37.3450   24.0580   31.1750 N   0  0  0  0  0  0  0  0  0  0  0  0
   38.5830   25.6880   31.1960 H   0  0  0  0  0  0  0  0  0  0  0  0
   34.4150   26.5510   30.9920 H   0  0  0  0  0  0  0  0  0  0  0  0
   36.8440   27.6410   31.0790 O   0  0  0  0  0  0  0  0  0  0  0  0
   36.4330   28.4530   32.1360 C   0  0  0  0  0  0  0  0  0  0  0  0
   36.4310   28.1380   33.4890 C   0  0  0  0  0  0  0  0  0  0  0  0
   35.9950   29.0550   34.3710 C   0  0  0  0  0  0  0  0  0  0  0  0
   35.5650   30.2720   33.9160 C   0  0  0  0  0  0  0  0  0  0  0  0
   35.5750   30.5680   32.5550 C   0  0  0  0  0  0  0  0  0  0  0  0
   36.0170   29.6330   31.6820 N   0  0  0  0  0  0  0  0  0  0  0  0
   36.8120   27.1230   33.6520 H   0  0  0  0  0  0  0  0  0  0  0  0
   36.0220   28.7410   35.4150 H   0  0  0  0  0  0  0  0  0  0  0  0
   35.2170   30.9960   34.6450 H   0  0  0  0  0  0  0  0  0  0  0  0
   35.0970   31.9230   32.0820 C   0  0  0  0  0  0  0  0  0  0  0  0
   35.2410   31.9660   31.0020 H   0  0  0  0  0  0  0  0  0  0  0  0
   34.0080   31.9880   32.3630 H   0  0  0  0  0  0  0  0  0  0  0  0
   35.6470   32.7140   32.6250 H   0  0  0  0  0  0  0  0  0  0  0  0
   36.8740   21.0000   31.8710 C   0  0  0  0  0  0  0  0  0  0  0  0
   36.8720   19.9670   31.5260 H   0  0  0  0  0  0  0  0  0  0  0  0
   37.8370   21.5370   31.6330 H   0  0  0  0  0  0  0  0  0  0  0  0
   38.9020   22.2210   33.2730 F   0  0  0  0  0  0  0  0  0  0  0  0
   37.8140   21.7570   33.9570 C   0  0  0  0  0  0  0  0  0  0  0  0
   36.7300   21.1290   33.3620 C   0  0  0  0  0  0  0  0  0  0  0  0
   35.6700   20.6870   34.0830 C   0  0  0  0  0  0  0  0  0  0  0  0
   35.6490   20.8600   35.4770 C   0  0  0  0  0  0  0  0  0  0  0  0
   36.7130   21.4800   36.0880 C   0  0  0  0  0  0  0  0  0  0  0  0
   37.7920   21.9270   35.3280 C   0  0  0  0  0  0  0  0  0  0  0  0
   34.8690   20.2110   33.5500 H   0  0  0  0  0  0  0  0  0  0  0  0
   34.7840   20.4850   35.9670 H   0  0  0  0  0  0  0  0  0  0  0  0
   36.5820   21.5540   37.1430 H   0  0  0  0  0  0  0  0  0  0  0  0
   38.8180   22.5350   35.9970 O   0  0  0  0  0  0  0  0  0  0  0  0
   39.9780   24.6500   35.6110 C   0  0  2  0  0  3  0  0  0  0  0  0
   39.0420   23.8000   36.4030 C   0  0  1  0  0  3  0  0  0  0  0  0
   37.8010   24.7040   36.4060 C   0  0  0  0  0  3  0  0  0  0  0  0
   36.8750   24.0830   36.4450 H   0  0  0  0  0  0  0  0  0  0  0  0
   37.9070   25.5040   35.2950 O   0  0  0  0  0  0  0  0  0  0  0  0
   38.9940   25.1500   34.5440 C   0  0  0  0  0  3  0  0  0  0  0  0
   39.3940   25.9780   33.9530 H   0  0  0  0  0  0  0  0  0  0  0  0
   40.9750   24.0080   34.9310 O   0  0  0  0  0  0  0  0  0  0  0  0
   40.6940   23.7180   34.0060 H   0  0  0  0  0  0  0  0  0  0  0  0
  1 24  1  0  0  0  0
  2  7  1  0  0  0  0
  2  8  1  0  0  0  0
  3  2  2  0  0  0  0
  4  5  2  0  0  0  0
  4  3  1  0  0  0  0
  5  6  1  0  0  0  0
  6  1  1  0  0  0  0
  6  7  2  0  0  0  0
  9  4  1  0  0  0  0
 10  3  1  0  0  0  0
 10 11  1  0  0  0  0
 11 12  1  0  0  0  0
 12 17  1  0  0  0  0
 12 13  2  0  0  0  0
 13 18  1  0  0  0  0
 14 13  1  0  0  0  0
 14 19  1  0  0  0  0
 15 14  2  0  0  0  0
 16 11  2  0  0  0  0
 16 15  1  0  0  0  0
 20 22  1  0  0  0  0
 20 15  1  0  0  0  0
 20 23  1  0  0  0  0
 21 20  1  0  0  0  0
 24 29  1  0  0  0  0
 25 24  1  0  0  0  0
 26 24  1  0  0  0  0
 27 28  1  0  0  0  0
 28 33  1  0  0  0  0
 29 28  2  0  0  0  0
 29 30  1  0  0  0  0
 30 31  2  0  0  0  0
 31 35  1  0  0  0  0
 31 32  1  0  0  0  0
 32 36  1  0  0  0  0
 33 37  1  0  0  0  0
 33 32  2  0  0  0  0
 34 30  1  0  0  0  0
 38 45  1  6  0  0  0
 38 39  1  0  0  0  0
 39 37  1  6  0  0  0
 39 40  1  0  0  0  0
 40 41  1  0  0  0  0
 42 40  1  0  0  0  0
 43 42  1  0  0  0  0
 43 38  1  0  0  0  0
 44 43  1  0  0  0  0
 46 45  1  0  0  0  0
M  END
>  <minimizedAffinity>
-5.7407093

$$$$

 OpenBabel03262522293D

 46 49  0  0  1  0  0  0  0  0999 V2000
   37.5100   24.7040   31.0250 S   0  0  0  0  0  0  0  0  0  0  0  0
   37.0890   28.6670   30.3950 C   0  0  0  0  0  0  0  0  0  0  0  0
   36.0420   28.9780   31.2780 C   0  0  0  0  0  0  0  0  0  0  0  0
   35.5270   27.9450   32.0180 C   0  0  0  0  0  0  0  0  0  0  0  0
   36.0610   26.6970   31.8480 N   0  0  0  0  0  0  0  0  0  0  0  0
   37.0260   26.4520   31.0240 C   0  0  0  0  0  0  0  0  0  0  0  0
   37.5980   27.4280   30.2460 N   0  0  0  0  0  0  0  0  0  0  0  0
   37.5520   29.4180   29.7740 H   0  0  0  0  0  0  0  0  0  0  0  0
   34.7230   28.1610   32.7020 H   0  0  0  0  0  0  0  0  0  0  0  0
   35.6250   30.2600   31.3320 O   0  0  0  0  0  0  0  0  0  0  0  0
   34.8810   30.6820   32.4330 C   0  0  0  0  0  0  0  0  0  0  0  0
   33.5070   30.8810   32.4960 C   0  0  0  0  0  0  0  0  0  0  0  0
   32.9610   31.2950   33.6530 C   0  0  0  0  0  0  0  0  0  0  0  0
   33.7670   31.5090   34.7370 C   0  0  0  0  0  0  0  0  0  0  0  0
   35.1420   31.3040   34.6540 C   0  0  0  0  0  0  0  0  0  0  0  0
   35.6760   30.8870   33.4820 N   0  0  0  0  0  0  0  0  0  0  0  0
   33.0380   30.6560   31.5310 H   0  0  0  0  0  0  0  0  0  0  0  0
   31.8780   31.4290   33.6310 H   0  0  0  0  0  0  0  0  0  0  0  0
   33.3050   31.8420   35.6610 H   0  0  0  0  0  0  0  0  0  0  0  0
   36.0090   31.5460   35.8700 C   0  0  0  0  0  0  0  0  0  0  0  0
   37.0310   31.2740   35.6080 H   0  0  0  0  0  0  0  0  0  0  0  0
   35.9150   32.6420   36.1100 H   0  0  0  0  0  0  0  0  0  0  0  0
   35.6110   30.9650   36.7230 H   0  0  0  0  0  0  0  0  0  0  0  0
   39.3390   24.7380   31.1180 C   0  0  0  0  0  0  0  0  0  0  0  0
   39.7420   23.7260   31.0810 H   0  0  0  0  0  0  0  0  0  0  0  0
   39.7360   25.3950   30.2920 H   0  0  0  0  0  0  0  0  0  0  0  0
   38.7030   23.5560   33.5200 F   0  0  0  0  0  0  0  0  0  0  0  0
   39.3150   24.7770   33.5270 C   0  0  0  0  0  0  0  0  0  0  0  0
   39.6870   25.4700   32.3840 C   0  0  0  0  0  0  0  0  0  0  0  0
   40.2950   26.6800   32.4430 C   0  0  0  0  0  0  0  0  0  0  0  0
   40.5660   27.2690   33.6890 C   0  0  0  0  0  0  0  0  0  0  0  0
   40.2070   26.6010   34.8350 C   0  0  0  0  0  0  0  0  0  0  0  0
   39.5820   25.3570   34.7520 C   0  0  0  0  0  0  0  0  0  0  0  0
   40.5530   27.1530   31.5150 H   0  0  0  0  0  0  0  0  0  0  0  0
   41.0440   28.2170   33.6470 H   0  0  0  0  0  0  0  0  0  0  0  0
   40.4640   27.1450   35.7140 H   0  0  0  0  0  0  0  0  0  0  0  0
   39.2510   24.7460   35.9300 O   0  0  0  0  0  0  0  0  0  0  0  0
   39.6300   22.7000   37.2100 C   0  0  2  0  0  3  0  0  0  0  0  0
   38.8260   23.5080   36.2460 C   0  0  1  0  0  3  0  0  0  0  0  0
   37.4550   23.4540   36.9340 C   0  0  0  0  0  3  0  0  0  0  0  0
   36.8790   24.3840   36.7150 H   0  0  0  0  0  0  0  0  0  0  0  0
   37.7030   23.2370   38.2680 O   0  0  0  0  0  0  0  0  0  0  0  0
   39.0480   23.2510   38.5190 C   0  0  0  0  0  3  0  0  0  0  0  0
   39.3260   22.6540   39.3920 H   0  0  0  0  0  0  0  0  0  0  0  0
   40.9720   22.9500   37.2610 O   0  0  0  0  0  0  0  0  0  0  0  0
   41.2090   23.6860   37.9110 H   0  0  0  0  0  0  0  0  0  0  0  0
  1 24  1  0  0  0  0
  2  3  1  0  0  0  0
  3 10  1  0  0  0  0
  3  4  2  0  0  0  0
  4  9  1  0  0  0  0
  5  4  1  0  0  0  0
  6  1  1  0  0  0  0
  6  5  2  0  0  0  0
  7  2  2  0  0  0  0
  7  6  1  0  0  0  0
  8  2  1  0  0  0  0
 10 11  1  0  0  0  0
 11 12  2  0  0  0  0
 11 16  1  0  0  0  0
 12 13  1  0  0  0  0
 13 14  2  0  0  0  0
 14 19  1  0  0  0  0
 15 14  1  0  0  0  0
 15 20  1  0  0  0  0
 16 15  2  0  0  0  0
 17 12  1  0  0  0  0
 18 13  1  0  0  0  0
 20 22  1  0  0  0  0
 20 23  1  0  0  0  0
 21 20  1  0  0  0  0
 24 29  1  0  0  0  0
 25 24  1  0  0  0  0
 26 24  1  0  0  0  0
 27 28  1  0  0  0  0
 28 33  1  0  0  0  0
 29 30  1  0  0  0  0
 29 28  2  0  0  0  0
 30 31  2  0  0  0  0
 31 32  1  0  0  0  0
 32 36  1  0  0  0  0
 33 32  2  0  0  0  0
 33 37  1  0  0  0  0
 34 30  1  0  0  0  0
 35 31  1  0  0  0  0
 38 45  1  1  0  0  0
 38 43  1  0  0  0  0
 39 37  1  1  0  0  0
 39 40  1  0  0  0  0
 39 38  1  0  0  0  0
 40 42  1  0  0  0  0
 41 40  1  0  0  0  0
 42 43  1  0  0  0  0
 43 44  1  0  0  0  0
 45 46  1  0  0  0  0
M  END
>  <minimizedAffinity>
-5.55621147

$$$$

 OpenBabel03262522293D

 46 49  0  0  1  0  0  0  0  0999 V2000
   38.3230   27.6270   30.5700 S   0  0  0  0  0  0  0  0  0  0  0  0
   37.5630   23.9190   31.9690 C   0  0  0  0  0  0  0  0  0  0  0  0
   37.8970   24.0610   33.3270 C   0  0  0  0  0  0  0  0  0  0  0  0
   38.3370   25.2950   33.7310 C   0  0  0  0  0  0  0  0  0  0  0  0
   38.4200   26.2920   32.7970 N   0  0  0  0  0  0  0  0  0  0  0  0
   38.1030   26.1200   31.5560 C   0  0  0  0  0  0  0  0  0  0  0  0
   37.6540   24.9180   31.0690 N   0  0  0  0  0  0  0  0  0  0  0  0
   37.2100   22.9830   31.5650 H   0  0  0  0  0  0  0  0  0  0  0  0
   38.5980   25.4260   34.7670 H   0  0  0  0  0  0  0  0  0  0  0  0
   37.7600   22.9820   34.1240 O   0  0  0  0  0  0  0  0  0  0  0  0
   38.5540   22.8810   35.2660 C   0  0  0  0  0  0  0  0  0  0  0  0
   39.7860   22.2500   35.3830 C   0  0  0  0  0  0  0  0  0  0  0  0
   40.4100   22.2540   36.5750 C   0  0  0  0  0  0  0  0  0  0  0  0
   39.8190   22.8790   37.6390 C   0  0  0  0  0  0  0  0  0  0  0  0
   38.5830   23.5060   37.5010 C   0  0  0  0  0  0  0  0  0  0  0  0
   37.9690   23.4920   36.2950 N   0  0  0  0  0  0  0  0  0  0  0  0
   40.0910   21.8120   34.4250 H   0  0  0  0  0  0  0  0  0  0  0  0
   41.3720   21.7410   36.5940 H   0  0  0  0  0  0  0  0  0  0  0  0
   40.3400   22.8700   38.5910 H   0  0  0  0  0  0  0  0  0  0  0  0
   37.9550   24.1920   38.6950 C   0  0  0  0  0  0  0  0  0  0  0  0
   37.0320   24.6610   38.3580 H   0  0  0  0  0  0  0  0  0  0  0  0
   37.7620   23.3830   39.4550 H   0  0  0  0  0  0  0  0  0  0  0  0
   38.6770   24.9110   39.1230 H   0  0  0  0  0  0  0  0  0  0  0  0
   36.6180   28.1980   30.2240 C   0  0  0  0  0  0  0  0  0  0  0  0
   36.4550   28.2850   29.1500 H   0  0  0  0  0  0  0  0  0  0  0  0
   35.8880   27.4970   30.7200 H   0  0  0  0  0  0  0  0  0  0  0  0
   35.7430   28.1170   32.8310 F   0  0  0  0  0  0  0  0  0  0  0  0
   36.0010   29.3320   32.2590 C   0  0  0  0  0  0  0  0  0  0  0  0
   36.4480   29.5000   30.9570 C   0  0  0  0  0  0  0  0  0  0  0  0
   36.6910   30.7270   30.4340 C   0  0  0  0  0  0  0  0  0  0  0  0
   36.4910   31.8760   31.2170 C   0  0  0  0  0  0  0  0  0  0  0  0
   36.0490   31.7320   32.5100 C   0  0  0  0  0  0  0  0  0  0  0  0
   35.8040   30.4620   33.0290 C   0  0  0  0  0  0  0  0  0  0  0  0
   37.0370   30.7750   29.4180 H   0  0  0  0  0  0  0  0  0  0  0  0
   36.7050   32.7970   30.7320 H   0  0  0  0  0  0  0  0  0  0  0  0
   35.9360   32.6710   33.0010 H   0  0  0  0  0  0  0  0  0  0  0  0
   35.3650   30.3890   34.3220 O   0  0  0  0  0  0  0  0  0  0  0  0
   33.8310   31.2990   35.9910 C   0  0  2  0  0  3  0  0  0  0  0  0
   34.1440   30.3440   34.8870 C   0  0  1  0  0  3  0  0  0  0  0  0
   32.9810   30.6510   33.9330 C   0  0  0  0  0  3  0  0  0  0  0  0
   33.2980   30.4830   32.8770 H   0  0  0  0  0  0  0  0  0  0  0  0
   32.5840   31.9350   34.2140 O   0  0  0  0  0  0  0  0  0  0  0  0
   33.4100   32.5070   35.1420 C   0  0  0  0  0  3  0  0  0  0  0  0
   32.9180   33.2870   35.7300 H   0  0  0  0  0  0  0  0  0  0  0  0
   34.8780   31.7250   36.7590 O   0  0  0  0  0  0  0  0  0  0  0  0
   35.3320   32.5440   36.3810 H   0  0  0  0  0  0  0  0  0  0  0  0
  1  6  1  0  0  0  0
  2  3  1  0  0  0  0
  3  4  2  0  0  0  0
  3 10  1  0  0  0  0
  4  9  1  0  0  0  0
  5  4  1  0  0  0  0
  6  5  2  0  0  0  0
  7  6  1  0  0  0  0
  7  2  2  0  0  0  0
  8  2  1  0  0  0  0
 10 11  1  0  0  0  0
 11 12  2  0  0  0  0
 11 16  1  0  0  0  0
 12 13  1  0  0  0  0
 13 18  1  0  0  0  0
 13 14  2  0  0  0  0
 14 19  1  0  0  0  0
 15 14  1  0  0  0  0
 15 20  1  0  0  0  0
 16 15  2  0  0  0  0
 17 12  1  0  0  0  0
 20 23  1  0  0  0  0
 20 22  1  0  0  0  0
 21 20  1  0  0  0  0
 24  1  1  0  0  0  0
 24 26  1  0  0  0  0
 24 29  1  0  0  0  0
 25 24  1  0  0  0  0
 28 27  1  0  0  0  0
 28 33  1  0  0  0  0
 29 28  2  0  0  0  0
 30 29  1  0  0  0  0
 30 31  2  0  0  0  0
 31 32  1  0  0  0  0
 32 36  1  0  0  0  0
 32 33  2  0  0  0  0
 33 37  1  0  0  0  0
 34 30  1  0  0  0  0
 35 31  1  0  0  0  0
 38 45  1  6  0  0  0
 39 37  1  6  0  0  0
 39 38  1  0  0  0  0
 40 42  1  0  0  0  0
 40 39  1  0  0  0  0
 41 40  1  0  0  0  0
 42 43  1  0  0  0  0
 43 44  1  0  0  0  0
 43 38  1  0  0  0  0
 46 45  1  0  0  0  0
M  END
>  <minimizedAffinity>
-5.54937315

$$$$
