
 OpenBabel03272509423D

 38 40  0  0  1  0  0  0  0  0999 V2000
   37.0160   30.9120   49.0830 C   0  0  0  0  0  0  0  0  0  0  0  0
   36.7100   31.8030   50.1110 C   0  0  0  0  0  0  0  0  0  0  0  0
   37.2860   33.0700   50.1820 C   0  0  0  0  0  0  0  0  0  0  0  0
   38.1990   33.4610   49.1910 C   0  0  0  0  0  0  0  0  0  0  0  0
   38.4870   32.5770   48.1940 C   0  0  0  0  0  0  0  0  0  0  0  0
   37.8930   31.3250   48.1610 C   0  0  0  0  0  0  0  0  0  0  0  0
   35.9960   31.4780   50.8660 H   0  0  0  0  0  0  0  0  0  0  0  0
   37.0050   33.7130   51.0210 H   0  0  0  0  0  0  0  0  0  0  0  0
   38.6250   34.4580   49.2880 H   0  0  0  0  0  0  0  0  0  0  0  0
   39.2050   33.0070   47.4970 H   0  0  0  0  0  0  0  0  0  0  0  0
   36.4440   29.5850   49.0290 C   0  0  2  0  0  0  0  0  0  0  0  0
   36.9460   29.0730   48.1180 H   0  0  0  0  0  0  0  0  0  0  0  0
   33.5890   29.9430   46.8110 C   0  0  0  0  0  0  0  0  0  0  0  0
   32.8410   28.8030   47.0370 C   0  0  0  0  0  0  0  0  0  0  0  0
   33.2790   27.9200   48.0100 C   0  0  0  0  0  0  0  0  0  0  0  0
   34.4310   28.2030   48.7100 N   0  0  0  0  0  0  0  0  0  0  0  0
   35.1030   29.3060   48.4470 C   0  0  0  0  0  0  0  0  0  0  0  0
   34.6890   30.1800   47.5020 N   0  0  0  0  0  0  0  0  0  0  0  0
   33.2090   30.6090   46.0370 H   0  0  0  0  0  0  0  0  0  0  0  0
   31.9520   28.5660   46.5010 H   0  0  0  0  0  0  0  0  0  0  0  0
   32.7260   27.0070   48.2290 H   0  0  0  0  0  0  0  0  0  0  0  0
   36.9290   28.8030   49.9310 O   0  0  0  0  0  0  0  0  0  0  0  0
   36.9860   27.8140   49.7830 H   0  0  0  0  0  0  0  0  0  0  0  0
   38.3250   30.4720   47.0720 C   0  0  0  0  0  3  0  0  0  0  0  0
   38.8090   30.9310   45.9170 C   0  0  0  0  0  3  0  0  0  0  0  0
   39.3220   30.1660   44.7650 C   0  0  0  0  0  0  0  0  0  0  0  0
   38.4790   29.7070   44.2050 H   0  0  0  0  0  0  0  0  0  0  0  0
   39.9570   29.3090   45.1130 H   0  0  0  0  0  0  0  0  0  0  0  0
   40.3310   31.2260   43.7210 S   0  0  0  0  0  0  0  0  0  0  0  0
   40.7950   28.9710   42.1730 C   0  0  1  0  0  3  0  0  0  0  0  0
   40.4140   30.4370   42.1050 C   0  0  1  0  0  3  0  0  0  0  0  0
   39.0550   30.3040   41.4400 C   0  0  0  0  0  3  0  0  0  0  0  0
   38.3400   29.9860   42.2280 H   0  0  0  0  0  0  0  0  0  0  0  0
   39.1510   29.2760   40.5220 O   0  0  0  0  0  0  0  0  0  0  0  0
   40.2620   28.5180   40.8270 C   0  0  0  0  0  3  0  0  0  0  0  0
   41.0450   28.7370   40.0640 H   0  0  0  0  0  0  0  0  0  0  0  0
   42.1460   28.7670   42.3170 O   0  0  0  0  0  0  0  0  0  0  0  0
   42.3450   28.7370   43.3040 H   0  0  0  0  0  0  0  0  0  0  0  0
  1  2  1  0  0  0  0
  2  3  2  0  0  0  0
  2  7  1  0  0  0  0
  3  8  1  0  0  0  0
  4  9  1  0  0  0  0
  4  3  1  0  0  0  0
  5  4  2  0  0  0  0
  6  5  1  0  0  0  0
  6  1  2  0  0  0  0
 10  5  1  0  0  0  0
 11 12  1  6  0  0  0
 11  1  1  0  0  0  0
 11 22  1  0  0  0  0
 13 14  2  0  0  0  0
 13 18  1  0  0  0  0
 14 15  1  0  0  0  0
 15 21  1  0  0  0  0
 15 16  2  0  0  0  0
 17 16  1  0  0  0  0
 17 11  1  0  0  0  0
 18 17  2  0  0  0  0
 19 13  1  0  0  0  0
 20 14  1  0  0  0  0
 23 22  1  0  0  0  0
 24  6  1  0  0  0  0
 25 24  2  0  0  0  0
 26 28  1  0  0  0  0
 26 25  1  0  0  0  0
 27 26  1  0  0  0  0
 29 26  1  0  0  0  0
 30 37  1  6  0  0  0
 31 30  1  0  0  0  0
 31 29  1  1  0  0  0
 32 31  1  0  0  0  0
 32 33  1  0  0  0  0
 34 35  1  0  0  0  0
 34 32  1  0  0  0  0
 35 30  1  0  0  0  0
 36 35  1  0  0  0  0
 37 38  1  0  0  0  0
M  END
>  <minimizedAffinity>
-6.29599094

>  <minimizedRMSD>
0.554296553

$$$$
