
 OpenBabel03272509413D

 38 40  0  0  1  0  0  0  0  0999 V2000
   36.9980   30.9090   49.0600 C   0  0  0  0  0  0  0  0  0  0  0  0
   36.6910   31.7960   50.0920 C   0  0  0  0  0  0  0  0  0  0  0  0
   37.2780   33.0570   50.1770 C   0  0  0  0  0  0  0  0  0  0  0  0
   38.2040   33.4460   49.1990 C   0  0  0  0  0  0  0  0  0  0  0  0
   38.4930   32.5660   48.1980 C   0  0  0  0  0  0  0  0  0  0  0  0
   37.8870   31.3200   48.1490 C   0  0  0  0  0  0  0  0  0  0  0  0
   35.9660   31.4720   50.8370 H   0  0  0  0  0  0  0  0  0  0  0  0
   36.9950   33.6970   51.0190 H   0  0  0  0  0  0  0  0  0  0  0  0
   38.6400   34.4380   49.3070 H   0  0  0  0  0  0  0  0  0  0  0  0
   39.2230   32.9950   47.5110 H   0  0  0  0  0  0  0  0  0  0  0  0
   36.4130   29.5890   48.9910 C   0  0  2  0  0  0  0  0  0  0  0  0
   36.9410   29.0680   48.0990 H   0  0  0  0  0  0  0  0  0  0  0  0
   33.5750   30.0630   46.7730 C   0  0  0  0  0  0  0  0  0  0  0  0
   32.8650   28.8820   46.8770 C   0  0  0  0  0  0  0  0  0  0  0  0
   33.3210   27.9250   47.7670 C   0  0  0  0  0  0  0  0  0  0  0  0
   34.4540   28.1770   48.5090 N   0  0  0  0  0  0  0  0  0  0  0  0
   35.0900   29.3220   48.3640 C   0  0  0  0  0  0  0  0  0  0  0  0
   34.6580   30.2690   47.5010 N   0  0  0  0  0  0  0  0  0  0  0  0
   33.1810   30.7870   46.0610 H   0  0  0  0  0  0  0  0  0  0  0  0
   31.9910   28.6680   46.3060 H   0  0  0  0  0  0  0  0  0  0  0  0
   32.7980   26.9770   47.8880 H   0  0  0  0  0  0  0  0  0  0  0  0
   36.8580   28.8050   49.9110 O   0  0  0  0  0  0  0  0  0  0  0  0
   36.9090   27.8150   49.7680 H   0  0  0  0  0  0  0  0  0  0  0  0
   38.3220   30.4710   47.0580 C   0  0  0  0  0  3  0  0  0  0  0  0
   38.8120   30.9340   45.9070 C   0  0  0  0  0  3  0  0  0  0  0  0
   39.3280   30.1730   44.7550 C   0  0  0  0  0  0  0  0  0  0  0  0
   38.4870   29.7090   44.1960 H   0  0  0  0  0  0  0  0  0  0  0  0
   39.9690   29.3210   45.1010 H   0  0  0  0  0  0  0  0  0  0  0  0
   40.3270   31.2400   43.7080 S   0  0  0  0  0  0  0  0  0  0  0  0
   40.7910   28.9810   42.1670 C   0  0  1  0  0  3  0  0  0  0  0  0
   40.4170   30.4490   42.0940 C   0  0  1  0  0  3  0  0  0  0  0  0
   39.0620   30.3220   41.4200 C   0  0  0  0  0  3  0  0  0  0  0  0
   38.3410   30.0080   42.2030 H   0  0  0  0  0  0  0  0  0  0  0  0
   39.1600   29.2930   40.5020 O   0  0  0  0  0  0  0  0  0  0  0  0
   40.2660   28.5300   40.8170 C   0  0  0  0  0  3  0  0  0  0  0  0
   41.0540   28.7450   40.0580 H   0  0  0  0  0  0  0  0  0  0  0  0
   42.1400   28.7720   42.3180 O   0  0  0  0  0  0  0  0  0  0  0  0
   42.3330   28.7420   43.3080 H   0  0  0  0  0  0  0  0  0  0  0  0
  1  2  1  0  0  0  0
  2  3  2  0  0  0  0
  2  7  1  0  0  0  0
  3  8  1  0  0  0  0
  4  9  1  0  0  0  0
  4  3  1  0  0  0  0
  5  4  2  0  0  0  0
  6  5  1  0  0  0  0
  6  1  2  0  0  0  0
 10  5  1  0  0  0  0
 11 12  1  6  0  0  0
 11  1  1  0  0  0  0
 11 22  1  0  0  0  0
 13 14  2  0  0  0  0
 13 18  1  0  0  0  0
 14 15  1  0  0  0  0
 15 21  1  0  0  0  0
 15 16  2  0  0  0  0
 17 16  1  0  0  0  0
 17 11  1  0  0  0  0
 18 17  2  0  0  0  0
 19 13  1  0  0  0  0
 20 14  1  0  0  0  0
 23 22  1  0  0  0  0
 24  6  1  0  0  0  0
 25 24  2  0  0  0  0
 26 28  1  0  0  0  0
 26 25  1  0  0  0  0
 27 26  1  0  0  0  0
 29 26  1  0  0  0  0
 30 37  1  6  0  0  0
 31 30  1  0  0  0  0
 31 29  1  1  0  0  0
 32 31  1  0  0  0  0
 32 33  1  0  0  0  0
 34 35  1  0  0  0  0
 34 32  1  0  0  0  0
 35 30  1  0  0  0  0
 36 35  1  0  0  0  0
 37 38  1  0  0  0  0
M  END
>  <minimizedAffinity>
-6.29969454

>  <minimizedRMSD>
0.611390471

$$$$
