
 OpenBabel03272509423D

 38 40  0  0  1  0  0  0  0  0999 V2000
   37.1070   30.9410   49.0290 C   0  0  0  0  0  0  0  0  0  0  0  0
   36.8430   31.8600   50.0450 C   0  0  0  0  0  0  0  0  0  0  0  0
   37.4370   33.1210   50.0690 C   0  0  0  0  0  0  0  0  0  0  0  0
   38.3250   33.4760   49.0440 C   0  0  0  0  0  0  0  0  0  0  0  0
   38.5720   32.5650   48.0590 C   0  0  0  0  0  0  0  0  0  0  0  0
   37.9610   31.3210   48.0730 C   0  0  0  0  0  0  0  0  0  0  0  0
   36.1460   31.5630   50.8270 H   0  0  0  0  0  0  0  0  0  0  0  0
   37.1880   33.7870   50.9010 H   0  0  0  0  0  0  0  0  0  0  0  0
   38.7670   34.4690   49.1040 H   0  0  0  0  0  0  0  0  0  0  0  0
   39.2760   32.9690   47.3320 H   0  0  0  0  0  0  0  0  0  0  0  0
   36.5160   29.6220   49.0230 C   0  0  2  0  0  0  0  0  0  0  0  0
   37.0100   29.0710   48.1300 H   0  0  0  0  0  0  0  0  0  0  0  0
   33.6320   29.9900   46.8440 C   0  0  0  0  0  0  0  0  0  0  0  0
   32.8950   28.8420   47.0630 C   0  0  0  0  0  0  0  0  0  0  0  0
   33.3510   27.9480   48.0180 C   0  0  0  0  0  0  0  0  0  0  0  0
   34.5090   28.2300   48.7080 N   0  0  0  0  0  0  0  0  0  0  0  0
   35.1700   29.3410   48.4530 C   0  0  0  0  0  0  0  0  0  0  0  0
   34.7390   30.2250   47.5260 N   0  0  0  0  0  0  0  0  0  0  0  0
   33.2380   30.6640   46.0840 H   0  0  0  0  0  0  0  0  0  0  0  0
   32.0020   28.6060   46.5340 H   0  0  0  0  0  0  0  0  0  0  0  0
   32.8070   27.0290   48.2300 H   0  0  0  0  0  0  0  0  0  0  0  0
   36.9920   28.8650   49.9520 O   0  0  0  0  0  0  0  0  0  0  0  0
   37.0340   27.8720   49.8380 H   0  0  0  0  0  0  0  0  0  0  0  0
   38.3510   30.4370   46.9920 C   0  0  0  0  0  3  0  0  0  0  0  0
   38.8560   30.8610   45.8330 C   0  0  0  0  0  3  0  0  0  0  0  0
   39.3310   30.0600   44.6890 C   0  0  0  0  0  0  0  0  0  0  0  0
   38.9550   29.0170   44.7710 H   0  0  0  0  0  0  0  0  0  0  0  0
   40.4490   29.9810   44.7000 H   0  0  0  0  0  0  0  0  0  0  0  0
   38.8360   30.8370   43.1450 S   0  0  0  0  0  0  0  0  0  0  0  0
   40.4940   30.9570   40.9230 C   0  0  1  0  0  3  0  0  0  0  0  0
   39.7410   30.0040   41.8310 C   0  0  1  0  0  3  0  0  0  0  0  0
   40.9130   29.1850   42.3460 C   0  0  0  0  0  3  0  0  0  0  0  0
   41.4140   29.7930   43.1280 H   0  0  0  0  0  0  0  0  0  0  0  0
   41.7980   29.0370   41.2960 O   0  0  0  0  0  0  0  0  0  0  0  0
   41.5080   29.9910   40.3420 C   0  0  0  0  0  3  0  0  0  0  0  0
   41.0240   29.4730   39.4800 H   0  0  0  0  0  0  0  0  0  0  0  0
   39.6970   31.5430   39.9700 O   0  0  0  0  0  0  0  0  0  0  0  0
   39.3340   32.3970   40.3620 H   0  0  0  0  0  0  0  0  0  0  0  0
  1  2  1  0  0  0  0
  2  3  2  0  0  0  0
  2  7  1  0  0  0  0
  3  8  1  0  0  0  0
  4  9  1  0  0  0  0
  4  3  1  0  0  0  0
  5  6  1  0  0  0  0
  5  4  2  0  0  0  0
  6  1  2  0  0  0  0
 10  5  1  0  0  0  0
 11 12  1  6  0  0  0
 11  1  1  0  0  0  0
 11 22  1  0  0  0  0
 13 14  2  0  0  0  0
 13 18  1  0  0  0  0
 14 15  1  0  0  0  0
 15 21  1  0  0  0  0
 15 16  2  0  0  0  0
 17 16  1  0  0  0  0
 17 11  1  0  0  0  0
 18 17  2  0  0  0  0
 19 13  1  0  0  0  0
 20 14  1  0  0  0  0
 23 22  1  0  0  0  0
 24  6  1  0  0  0  0
 25 24  2  0  0  0  0
 26 28  1  0  0  0  0
 26 27  1  0  0  0  0
 26 25  1  0  0  0  0
 29 26  1  0  0  0  0
 30 37  1  6  0  0  0
 30 31  1  0  0  0  0
 31 32  1  0  0  0  0
 31 29  1  1  0  0  0
 32 33  1  0  0  0  0
 34 32  1  0  0  0  0
 35 30  1  0  0  0  0
 35 34  1  0  0  0  0
 36 35  1  0  0  0  0
 37 38  1  0  0  0  0
M  END
>  <minimizedAffinity>
-5.79594421

>  <minimizedRMSD>
0.340131789

$$$$
