
 OpenBabel03262520353D

 42 44  0  0  1  0  0  0  0  0999 V2000
   27.9050   28.2860   48.7040 C   0  0  0  0  0  0  0  0  0  0  0  0
   29.2050   27.9820   49.1340 C   0  0  0  0  0  0  0  0  0  0  0  0
   29.4430   27.4590   50.3750 C   0  0  0  0  0  0  0  0  0  0  0  0
   28.3870   27.2240   51.2240 C   0  0  0  0  0  0  0  0  0  0  0  0
   27.1270   27.5160   50.8180 C   0  0  0  0  0  0  0  0  0  0  0  0
   26.8400   28.0410   49.5850 C   0  0  0  0  0  0  0  0  0  0  0  0
   30.4750   27.2480   50.6360 H   0  0  0  0  0  0  0  0  0  0  0  0
   28.6650   26.8100   52.1840 H   0  0  0  0  0  0  0  0  0  0  0  0
   26.3500   27.3050   51.5420 H   0  0  0  0  0  0  0  0  0  0  0  0
   25.8040   28.2330   49.3580 H   0  0  0  0  0  0  0  0  0  0  0  0
   27.5320   28.9420   47.1380 S   0  0  0  0  0  0  0  0  0  0  0  0
   28.7650   29.4030   46.4390 O   0  0  0  0  0  0  0  0  0  0  0  0
   26.8070   27.8740   46.3210 O   0  0  0  0  0  0  0  0  0  0  0  0
   26.8790   31.3990   46.2650 C   0  0  2  0  0  0  0  0  0  0  0  0
   26.4100   30.2950   47.2400 C   0  0  2  0  0  0  0  0  0  0  0  0
   26.5210   31.0800   48.5230 C   0  0  0  0  0  0  0  0  0  0  0  0
   25.9230   30.6800   49.3500 H   0  0  0  0  0  0  0  0  0  0  0  0
   26.2100   32.4030   48.2530 O   0  0  0  0  0  0  0  0  0  0  0  0
   26.1650   32.5700   46.8860 C   0  0  0  0  0  0  0  0  0  0  0  0
   26.5110   33.5530   46.5440 H   0  0  0  0  0  0  0  0  0  0  0  0
   26.4380   31.1200   44.9770 O   0  0  0  0  0  0  0  0  0  0  0  0
   27.1690   30.6570   44.4830 H   0  0  0  0  0  0  0  0  0  0  0  0
   30.1460   28.2710   48.1770 O   0  0  0  0  0  0  0  0  0  0  0  0
   31.6060   26.0590   48.3000 O   0  0  0  0  0  0  0  0  0  0  0  0
   31.6740   27.5590   47.9900 P   0  0  1  0  0  0  0  0  0  0  0  0
   32.2870   27.8580   46.4430 O   0  0  0  0  0  0  0  0  0  0  0  0
   31.7340   28.4860   45.9480 H   0  0  0  0  0  0  0  0  0  0  0  0
   32.7810   28.1710   49.1410 O   0  0  0  0  0  0  0  0  0  0  0  0
   34.0500   27.6530   48.8360 C   0  0  0  0  0  0  0  0  0  0  0  0
   33.9750   26.9790   47.9870 H   0  0  0  0  0  0  0  0  0  0  0  0
   34.3740   27.1240   49.7800 H   0  0  0  0  0  0  0  0  0  0  0  0
   35.1980   29.7540   49.4230 C   0  0  0  0  0  0  0  0  0  0  0  0
   35.0520   28.7250   48.6330 C   0  0  0  0  0  0  0  0  0  0  0  0
   37.5470   32.5580   49.6070 C   0  0  0  0  0  0  0  0  0  0  0  0
   38.1790   32.4940   48.3560 C   0  0  0  0  0  0  0  0  0  0  0  0
   37.7830   31.4840   47.4660 C   0  0  0  0  0  0  0  0  0  0  0  0
   36.7970   30.6460   47.9240 N   0  0  0  0  0  0  0  0  0  0  0  0
   36.2240   30.7320   49.1080 C   0  0  0  0  0  0  0  0  0  0  0  0
   36.6090   31.6950   49.9390 N   0  0  0  0  0  0  0  0  0  0  0  0
   37.7810   33.2990   50.3600 H   0  0  0  0  0  0  0  0  0  0  0  0
   38.9320   33.2150   48.1320 H   0  0  0  0  0  0  0  0  0  0  0  0
   38.2450   31.4130   46.5130 H   0  0  0  0  0  0  0  0  0  0  0  0
  1  2  2  0  0  0  0
  1  6  1  0  0  0  0
  2  3  1  0  0  0  0
  3  7  1  0  0  0  0
  3  4  2  0  0  0  0
  4  8  1  0  0  0  0
  5  4  1  0  0  0  0
  5  9  1  0  0  0  0
  6  5  2  0  0  0  0
 10  6  1  0  0  0  0
 11  1  1  0  0  0  0
 12 11  2  0  0  0  0
 13 11  2  0  0  0  0
 14 21  1  6  0  0  0
 14 19  1  0  0  0  0
 14 15  1  0  0  0  0
 15 11  1  1  0  0  0
 15 16  1  0  0  0  0
 16 17  1  0  0  0  0
 18 16  1  0  0  0  0
 19 18  1  0  0  0  0
 20 19  1  0  0  0  0
 22 21  1  0  0  0  0
 23  2  1  0  0  0  0
 25 23  1  0  0  0  0
 25 24  2  1  0  0  0
 25 28  1  0  0  0  0
 26 25  1  0  0  0  0
 27 26  1  0  0  0  0
 29 28  1  0  0  0  0
 29 31  1  0  0  0  0
 30 29  1  0  0  0  0
 33 29  1  0  0  0  0
 33 32  2  0  0  0  0
 34 39  1  0  0  0  0
 34 40  1  0  0  0  0
 35 34  2  0  0  0  0
 36 37  2  0  0  0  0
 36 35  1  0  0  0  0
 37 38  1  0  0  0  0
 38 32  1  0  0  0  0
 38 39  2  0  0  0  0
 41 35  1  0  0  0  0
 42 36  1  0  0  0  0
M  END
>  <minimizedAffinity>
-6.64890909

>  <minimizedRMSD>
1.97722423

$$$$
