
 OpenBabel03272500423D

 48 51  0  0  1  0  0  0  0  0999 V2000
   35.8170   30.0950   34.7040 C   0  0  0  0  0  0  0  0  0  0  0  0
   35.2440   30.3700   33.4750 C   0  0  0  0  0  0  0  0  0  0  0  0
   35.3890   29.4080   32.5020 C   0  0  0  0  0  0  0  0  0  0  0  0
   36.0690   28.2600   32.7850 N   0  0  0  0  0  0  0  0  0  0  0  0
   36.6270   28.0000   34.0000 C   0  0  0  0  0  0  0  0  0  0  0  0
   36.4900   28.9450   34.9660 N   0  0  0  0  0  0  0  0  0  0  0  0
   37.3240   26.7880   34.2490 N   0  0  0  0  0  0  0  0  0  0  0  0
   34.7120   31.2690   33.2520 H   0  0  0  0  0  0  0  0  0  0  0  0
   34.9920   29.4970   31.5040 H   0  0  0  0  0  0  0  0  0  0  0  0
   36.8750   25.9270   33.8870 H   0  0  0  0  0  0  0  0  0  0  0  0
   35.6560   31.1340   35.8020 C   0  0  1  0  0  0  0  0  0  0  0  0
   36.1430   32.4580   35.6510 C   0  0  0  0  0  0  0  0  0  0  0  0
   34.6840   32.2070   35.4390 C   0  0  2  0  0  0  0  0  0  0  0  0
   35.4910   30.6500   36.8070 H   0  0  0  0  0  0  0  0  0  0  0  0
   36.5770   33.1290   36.3680 H   0  0  0  0  0  0  0  0  0  0  0  0
   36.6760   32.6260   34.6610 H   0  0  0  0  0  0  0  0  0  0  0  0
   34.2410   32.2210   34.4220 H   0  0  0  0  0  0  0  0  0  0  0  0
   32.5340   33.3350   35.8770 C   0  0  2  0  0  0  0  0  0  0  0  0
   33.7270   32.7450   36.4670 C   0  0  1  0  0  0  0  0  0  0  0  0
   33.2370   31.6790   37.3310 C   0  0  0  0  0  0  0  0  0  0  0  0
   31.9730   31.2730   36.8640 O   0  0  0  0  0  0  0  0  0  0  0  0
   31.3960   32.4730   36.6570 C   0  0  0  0  0  0  0  0  0  0  0  0
   32.2820   34.3770   36.0630 H   0  0  0  0  0  0  0  0  0  0  0  0
   34.2530   33.5090   37.1010 H   0  0  0  0  0  0  0  0  0  0  0  0
   33.0170   32.0960   38.3570 H   0  0  0  0  0  0  0  0  0  0  0  0
   33.7670   30.7630   37.4840 H   0  0  0  0  0  0  0  0  0  0  0  0
   30.4890   32.5220   36.0560 H   0  0  0  0  0  0  0  0  0  0  0  0
   31.2920   33.0840   37.6020 H   0  0  0  0  0  0  0  0  0  0  0  0
   32.2960   32.8750   34.5860 O   0  0  0  0  0  0  0  0  0  0  0  0
   31.4830   33.5060   33.8210 C   0  0  0  0  0  0  0  0  0  0  0  0
   31.3620   33.0600   32.8110 H   0  0  0  0  0  0  0  0  0  0  0  0
   30.4370   33.5180   34.2410 H   0  0  0  0  0  0  0  0  0  0  0  0
   31.7200   34.5820   33.6630 H   0  0  0  0  0  0  0  0  0  0  0  0
   38.8110   26.7670   35.0970 S   0  0  0  0  0  0  0  0  0  0  0  0
   38.7950   27.6500   36.3060 O   0  0  0  0  0  0  0  0  0  0  0  0
   37.9470   27.9320   36.7570 H   0  0  0  0  0  0  0  0  0  0  0  0
   39.8820   27.2880   34.1820 O   0  0  0  0  0  0  0  0  0  0  0  0
   40.3120   26.8170   33.4400 H   0  0  0  0  0  0  0  0  0  0  0  0
   39.2560   25.2120   35.5270 O   0  0  0  0  0  0  0  0  0  0  0  0
   37.4920   24.2660   36.7570 C   0  0  1  0  0  3  0  0  0  0  0  0
   38.2310   24.3020   35.4320 C   0  0  2  0  0  3  0  0  0  0  0  0
   38.7430   22.8670   35.3580 C   0  0  0  0  0  3  0  0  0  0  0  0
   39.7180   22.8240   35.8440 H   0  0  0  0  0  0  0  0  0  0  0  0
   37.7600   22.0870   35.9370 O   0  0  0  0  0  0  0  0  0  0  0  0
   37.2950   22.7820   37.0490 C   0  0  0  0  0  3  0  0  0  0  0  0
   36.2080   22.5440   37.2310 H   0  0  0  0  0  0  0  0  0  0  0  0
   38.2740   24.7880   37.7870 O   0  0  0  0  0  0  0  0  0  0  0  0
   39.1140   24.2310   37.7680 H   0  0  0  0  0  0  0  0  0  0  0  0
  1  6  1  0  0  0  0
  1 11  1  0  0  0  0
  2  1  2  0  0  0  0
  3  4  2  0  0  0  0
  3  2  1  0  0  0  0
  4  5  1  0  0  0  0
  5  7  1  0  0  0  0
  5  6  2  0  0  0  0
  7 34  1  0  0  0  0
  8  2  1  0  0  0  0
  9  3  1  0  0  0  0
 10  7  1  0  0  0  0
 11 14  1  1  0  0  0
 12 11  1  0  0  0  0
 12 15  1  0  0  0  0
 13 17  1  6  0  0  0
 13 12  1  0  0  0  0
 13 11  1  0  0  0  0
 13 19  1  0  0  0  0
 16 12  1  0  0  0  0
 18 23  1  1  0  0  0
 18 19  1  0  0  0  0
 18 22  1  0  0  0  0
 19 24  1  1  0  0  0
 19 20  1  0  0  0  0
 20 26  1  0  0  0  0
 20 25  1  0  0  0  0
 21 20  1  0  0  0  0
 22 21  1  0  0  0  0
 22 28  1  0  0  0  0
 27 22  1  0  0  0  0
 29 18  1  0  0  0  0
 30 32  1  0  0  0  0
 30 29  1  0  0  0  0
 31 30  1  0  0  0  0
 33 30  1  0  0  0  0
 34 39  1  0  0  0  0
 34 35  1  0  0  0  0
 35 36  1  0  0  0  0
 37 34  1  0  0  0  0
 38 37  1  0  0  0  0
 40 45  1  0  0  0  0
 40 47  1  1  0  0  0
 41 39  1  1  0  0  0
 41 40  1  0  0  0  0
 42 41  1  0  0  0  0
 42 43  1  0  0  0  0
 42 44  1  0  0  0  0
 44 45  1  0  0  0  0
 45 46  1  0  0  0  0
 48 47  1  0  0  0  0
M  END
>  <minimizedAffinity>
-5.65691805

$$$$

 OpenBabel03272500423D

 48 51  0  0  1  0  0  0  0  0999 V2000
   36.1760   29.2810   32.1220 C   0  0  0  0  0  0  0  0  0  0  0  0
   36.2720   28.8180   30.8210 C   0  0  0  0  0  0  0  0  0  0  0  0
   36.7350   27.5330   30.6600 C   0  0  0  0  0  0  0  0  0  0  0  0
   37.0680   26.7940   31.7580 N   0  0  0  0  0  0  0  0  0  0  0  0
   36.9690   27.2600   33.0330 C   0  0  0  0  0  0  0  0  0  0  0  0
   36.5130   28.5290   33.2010 N   0  0  0  0  0  0  0  0  0  0  0  0
   37.3240   26.4520   34.1450 N   0  0  0  0  0  0  0  0  0  0  0  0
   36.0120   29.3960   29.9610 H   0  0  0  0  0  0  0  0  0  0  0  0
   36.8570   27.0520   29.7030 H   0  0  0  0  0  0  0  0  0  0  0  0
   36.9950   25.4700   34.1130 H   0  0  0  0  0  0  0  0  0  0  0  0
   35.6510   30.6920   32.3280 C   0  0  1  0  0  0  0  0  0  0  0  0
   34.3170   31.0450   31.9960 C   0  0  0  0  0  0  0  0  0  0  0  0
   34.6460   30.7750   33.4290 C   0  0  2  0  0  0  0  0  0  0  0  0
   36.4910   31.4420   32.3810 H   0  0  0  0  0  0  0  0  0  0  0  0
   33.9150   31.9570   31.5950 H   0  0  0  0  0  0  0  0  0  0  0  0
   33.7280   30.1860   31.5430 H   0  0  0  0  0  0  0  0  0  0  0  0
   34.3080   29.8440   33.9310 H   0  0  0  0  0  0  0  0  0  0  0  0
   33.7190   31.7810   35.4830 C   0  0  2  0  0  0  0  0  0  0  0  0
   34.6520   31.9430   34.3770 C   0  0  1  0  0  0  0  0  0  0  0  0
   35.9580   32.1010   35.0020 C   0  0  0  0  0  0  0  0  0  0  0  0
   35.9180   31.5050   36.2760 O   0  0  0  0  0  0  0  0  0  0  0  0
   34.7430   31.9860   36.7290 C   0  0  0  0  0  0  0  0  0  0  0  0
   32.9220   32.5030   35.6440 H   0  0  0  0  0  0  0  0  0  0  0  0
   34.4080   32.8820   33.8100 H   0  0  0  0  0  0  0  0  0  0  0  0
   36.1390   33.1920   35.2270 H   0  0  0  0  0  0  0  0  0  0  0  0
   36.8610   31.7280   34.5660 H   0  0  0  0  0  0  0  0  0  0  0  0
   34.2850   31.5190   37.6000 H   0  0  0  0  0  0  0  0  0  0  0  0
   34.7300   33.1130   36.8180 H   0  0  0  0  0  0  0  0  0  0  0  0
   33.3840   30.4490   35.7050 O   0  0  0  0  0  0  0  0  0  0  0  0
   32.3020   30.1560   36.3290 C   0  0  0  0  0  0  0  0  0  0  0  0
   32.1250   29.0670   36.4540 H   0  0  0  0  0  0  0  0  0  0  0  0
   32.3050   30.5560   37.3820 H   0  0  0  0  0  0  0  0  0  0  0  0
   31.3720   30.5770   35.8850 H   0  0  0  0  0  0  0  0  0  0  0  0
   38.2390   27.0770   35.4510 S   0  0  0  0  0  0  0  0  0  0  0  0
   37.7480   28.4170   35.9060 O   0  0  0  0  0  0  0  0  0  0  0  0
   36.8190   28.7420   35.7230 H   0  0  0  0  0  0  0  0  0  0  0  0
   39.6560   27.2570   34.9890 O   0  0  0  0  0  0  0  0  0  0  0  0
   40.3340   26.5630   34.8620 H   0  0  0  0  0  0  0  0  0  0  0  0
   38.2820   26.0120   36.7410 O   0  0  0  0  0  0  0  0  0  0  0  0
   37.6890   23.9120   37.6130 C   0  0  1  0  0  3  0  0  0  0  0  0
   38.0810   24.7020   36.3780 C   0  0  2  0  0  3  0  0  0  0  0  0
   39.3850   24.0050   36.0030 C   0  0  0  0  0  3  0  0  0  0  0  0
   40.2040   24.5040   36.5220 H   0  0  0  0  0  0  0  0  0  0  0  0
   39.2060   22.6730   36.3270 O   0  0  0  0  0  0  0  0  0  0  0  0
   38.5270   22.6400   37.5400 C   0  0  0  0  0  3  0  0  0  0  0  0
   37.8770   21.7210   37.5990 H   0  0  0  0  0  0  0  0  0  0  0  0
   38.0560   24.5820   38.7790 O   0  0  0  0  0  0  0  0  0  0  0  0
   39.0490   24.7260   38.6810 H   0  0  0  0  0  0  0  0  0  0  0  0
  1 11  1  0  0  0  0
  1  6  1  0  0  0  0
  2  1  2  0  0  0  0
  3  2  1  0  0  0  0
  3  4  2  0  0  0  0
  4  5  1  0  0  0  0
  5  6  2  0  0  0  0
  5  7  1  0  0  0  0
  7 34  1  0  0  0  0
  8  2  1  0  0  0  0
  9  3  1  0  0  0  0
 10  7  1  0  0  0  0
 11 14  1  6  0  0  0
 11 13  1  0  0  0  0
 12 11  1  0  0  0  0
 12 13  1  0  0  0  0
 13 17  1  1  0  0  0
 13 19  1  0  0  0  0
 15 12  1  0  0  0  0
 16 12  1  0  0  0  0
 18 23  1  6  0  0  0
 18 29  1  0  0  0  0
 18 22  1  0  0  0  0
 19 24  1  6  0  0  0
 19 20  1  0  0  0  0
 19 18  1  0  0  0  0
 20 25  1  0  0  0  0
 20 21  1  0  0  0  0
 21 22  1  0  0  0  0
 22 28  1  0  0  0  0
 22 27  1  0  0  0  0
 26 20  1  0  0  0  0
 29 30  1  0  0  0  0
 30 31  1  0  0  0  0
 30 32  1  0  0  0  0
 33 30  1  0  0  0  0
 34 35  1  0  0  0  0
 34 39  1  0  0  0  0
 36 35  1  0  0  0  0
 37 34  1  0  0  0  0
 38 37  1  0  0  0  0
 40 47  1  1  0  0  0
 41 39  1  1  0  0  0
 41 40  1  0  0  0  0
 42 44  1  0  0  0  0
 42 41  1  0  0  0  0
 42 43  1  0  0  0  0
 44 45  1  0  0  0  0
 45 46  1  0  0  0  0
 45 40  1  0  0  0  0
 48 47  1  0  0  0  0
M  END
>  <minimizedAffinity>
-5.62764311

$$$$

 OpenBabel03272500423D

 48 51  0  0  1  0  0  0  0  0999 V2000
   35.9580   28.9330   33.6640 C   0  0  0  0  0  0  0  0  0  0  0  0
   35.9520   29.4120   32.3660 C   0  0  0  0  0  0  0  0  0  0  0  0
   36.8720   28.8600   31.5050 C   0  0  0  0  0  0  0  0  0  0  0  0
   37.7230   27.8940   31.9570 N   0  0  0  0  0  0  0  0  0  0  0  0
   37.7190   27.4310   33.2370 C   0  0  0  0  0  0  0  0  0  0  0  0
   36.8140   27.9710   34.0940 N   0  0  0  0  0  0  0  0  0  0  0  0
   38.6220   26.4210   33.6610 N   0  0  0  0  0  0  0  0  0  0  0  0
   35.2860   30.1680   32.0110 H   0  0  0  0  0  0  0  0  0  0  0  0
   36.9730   29.1420   30.4700 H   0  0  0  0  0  0  0  0  0  0  0  0
   38.7470   25.6250   33.0090 H   0  0  0  0  0  0  0  0  0  0  0  0
   34.9390   29.5140   34.6320 C   0  0  1  0  0  0  0  0  0  0  0  0
   35.0430   30.8450   35.1120 C   0  0  0  0  0  0  0  0  0  0  0  0
   34.0820   30.5620   34.0010 C   0  0  2  0  0  0  0  0  0  0  0  0
   34.3850   28.7030   35.1840 H   0  0  0  0  0  0  0  0  0  0  0  0
   34.8040   31.2630   36.0720 H   0  0  0  0  0  0  0  0  0  0  0  0
   35.9640   31.3880   34.7260 H   0  0  0  0  0  0  0  0  0  0  0  0
   34.2930   30.8870   32.9620 H   0  0  0  0  0  0  0  0  0  0  0  0
   31.8340   31.2500   33.2520 C   0  0  2  0  0  0  0  0  0  0  0  0
   32.6130   30.6310   34.3160 C   0  0  1  0  0  0  0  0  0  0  0  0
   32.0500   29.2970   34.4720 C   0  0  0  0  0  0  0  0  0  0  0  0
   31.4260   28.9310   33.2650 O   0  0  0  0  0  0  0  0  0  0  0  0
   30.7510   30.0650   32.9900 C   0  0  0  0  0  0  0  0  0  0  0  0
   31.2430   32.1420   33.4460 H   0  0  0  0  0  0  0  0  0  0  0  0
   32.4640   31.2000   35.2730 H   0  0  0  0  0  0  0  0  0  0  0  0
   31.1950   29.3330   35.2100 H   0  0  0  0  0  0  0  0  0  0  0  0
   32.6380   28.4430   34.7330 H   0  0  0  0  0  0  0  0  0  0  0  0
   30.3550   30.2100   31.9860 H   0  0  0  0  0  0  0  0  0  0  0  0
   29.9780   30.3210   33.7730 H   0  0  0  0  0  0  0  0  0  0  0  0
   32.4870   31.2110   32.0240 O   0  0  0  0  0  0  0  0  0  0  0  0
   31.9140   31.6840   30.9790 C   0  0  0  0  0  0  0  0  0  0  0  0
   32.5170   31.6060   30.0490 H   0  0  0  0  0  0  0  0  0  0  0  0
   30.9640   31.1290   30.7350 H   0  0  0  0  0  0  0  0  0  0  0  0
   31.5910   32.7460   31.0560 H   0  0  0  0  0  0  0  0  0  0  0  0
   39.4460   26.5260   35.1590 S   0  0  0  0  0  0  0  0  0  0  0  0
   38.8900   27.5970   36.0450 O   0  0  0  0  0  0  0  0  0  0  0  0
   37.9620   27.9580   35.9390 H   0  0  0  0  0  0  0  0  0  0  0  0
   40.8800   26.8780   34.8840 O   0  0  0  0  0  0  0  0  0  0  0  0
   41.5850   26.2870   34.5520 H   0  0  0  0  0  0  0  0  0  0  0  0
   39.4530   25.0590   35.9650 O   0  0  0  0  0  0  0  0  0  0  0  0
   37.4990   24.1390   36.8910 C   0  0  1  0  0  3  0  0  0  0  0  0
   38.3780   24.2610   35.6600 C   0  0  2  0  0  3  0  0  0  0  0  0
   38.7830   22.8040   35.4610 C   0  0  0  0  0  3  0  0  0  0  0  0
   39.6940   22.6190   36.0320 H   0  0  0  0  0  0  0  0  0  0  0  0
   37.6870   22.0530   35.8420 O   0  0  0  0  0  0  0  0  0  0  0  0
   37.1600   22.6550   36.9790 C   0  0  0  0  0  3  0  0  0  0  0  0
   36.0440   22.4950   37.0230 H   0  0  0  0  0  0  0  0  0  0  0  0
   38.2030   24.4690   38.0490 O   0  0  0  0  0  0  0  0  0  0  0  0
   38.9960   23.8460   38.0450 H   0  0  0  0  0  0  0  0  0  0  0  0
  1  6  1  0  0  0  0
  1 11  1  0  0  0  0
  2  1  2  0  0  0  0
  3  4  2  0  0  0  0
  3  2  1  0  0  0  0
  4  5  1  0  0  0  0
  5  7  1  0  0  0  0
  5  6  2  0  0  0  0
  7 34  1  0  0  0  0
  8  2  1  0  0  0  0
  9  3  1  0  0  0  0
 10  7  1  0  0  0  0
 11 12  1  0  0  0  0
 11 14  1  1  0  0  0
 12 15  1  0  0  0  0
 13 17  1  6  0  0  0
 13 19  1  0  0  0  0
 13 11  1  0  0  0  0
 13 12  1  0  0  0  0
 16 12  1  0  0  0  0
 18 23  1  1  0  0  0
 18 19  1  0  0  0  0
 19 20  1  0  0  0  0
 19 24  1  1  0  0  0
 20 26  1  0  0  0  0
 20 25  1  0  0  0  0
 21 20  1  0  0  0  0
 22 18  1  0  0  0  0
 22 21  1  0  0  0  0
 22 28  1  0  0  0  0
 27 22  1  0  0  0  0
 29 18  1  0  0  0  0
 30 33  1  0  0  0  0
 30 29  1  0  0  0  0
 31 30  1  0  0  0  0
 32 30  1  0  0  0  0
 34 39  1  0  0  0  0
 34 35  1  0  0  0  0
 36 35  1  0  0  0  0
 37 34  1  0  0  0  0
 38 37  1  0  0  0  0
 40 45  1  0  0  0  0
 40 47  1  1  0  0  0
 41 39  1  1  0  0  0
 41 40  1  0  0  0  0
 42 41  1  0  0  0  0
 42 44  1  0  0  0  0
 42 43  1  0  0  0  0
 44 45  1  0  0  0  0
 45 46  1  0  0  0  0
 48 47  1  0  0  0  0
M  END
>  <minimizedAffinity>
-5.60162354

$$$$

 OpenBabel03272500423D

 48 51  0  0  1  0  0  0  0  0999 V2000
   36.9210   27.6260   33.5220 C   0  0  0  0  0  0  0  0  0  0  0  0
   37.0160   27.4540   34.8920 C   0  0  0  0  0  0  0  0  0  0  0  0
   37.6520   26.3140   35.3240 C   0  0  0  0  0  0  0  0  0  0  0  0
   38.1460   25.4300   34.4090 N   0  0  0  0  0  0  0  0  0  0  0  0
   38.0470   25.6110   33.0640 C   0  0  0  0  0  0  0  0  0  0  0  0
   37.4200   26.7340   32.6290 N   0  0  0  0  0  0  0  0  0  0  0  0
   38.5810   24.6650   32.1500 N   0  0  0  0  0  0  0  0  0  0  0  0
   36.6290   28.1460   35.6090 H   0  0  0  0  0  0  0  0  0  0  0  0
   37.7930   26.0590   36.3620 H   0  0  0  0  0  0  0  0  0  0  0  0
   39.5230   24.2980   32.3780 H   0  0  0  0  0  0  0  0  0  0  0  0
   36.2390   28.8880   33.0180 C   0  0  1  0  0  0  0  0  0  0  0  0
   34.9220   28.8620   32.4910 C   0  0  0  0  0  0  0  0  0  0  0  0
   35.1160   29.3240   33.9000 C   0  0  2  0  0  0  0  0  0  0  0  0
   36.9900   29.6880   32.7590 H   0  0  0  0  0  0  0  0  0  0  0  0
   34.4780   29.4240   31.6900 H   0  0  0  0  0  0  0  0  0  0  0  0
   34.4740   27.8170   32.4610 H   0  0  0  0  0  0  0  0  0  0  0  0
   34.8180   28.6880   34.7590 H   0  0  0  0  0  0  0  0  0  0  0  0
   33.6490   31.0460   34.8860 C   0  0  2  0  0  0  0  0  0  0  0  0
   34.9020   30.7840   34.1910 C   0  0  1  0  0  0  0  0  0  0  0  0
   35.9410   31.2980   35.0730 C   0  0  0  0  0  0  0  0  0  0  0  0
   35.4420   31.3120   36.3880 O   0  0  0  0  0  0  0  0  0  0  0  0
   34.2240   31.8500   36.1780 C   0  0  0  0  0  0  0  0  0  0  0  0
   32.9000   31.7020   34.4490 H   0  0  0  0  0  0  0  0  0  0  0  0
   34.9270   31.3630   33.2280 H   0  0  0  0  0  0  0  0  0  0  0  0
   36.1210   32.3890   34.8470 H   0  0  0  0  0  0  0  0  0  0  0  0
   36.9050   30.8450   35.1620 H   0  0  0  0  0  0  0  0  0  0  0  0
   33.4740   31.7720   36.9630 H   0  0  0  0  0  0  0  0  0  0  0  0
   34.2680   32.8990   35.7600 H   0  0  0  0  0  0  0  0  0  0  0  0
   33.1600   29.9200   35.5410 O   0  0  0  0  0  0  0  0  0  0  0  0
   32.1510   30.0240   36.3270 C   0  0  0  0  0  0  0  0  0  0  0  0
   31.8380   29.0690   36.8000 H   0  0  0  0  0  0  0  0  0  0  0  0
   32.3670   30.7030   37.1990 H   0  0  0  0  0  0  0  0  0  0  0  0
   31.2370   30.4610   35.8660 H   0  0  0  0  0  0  0  0  0  0  0  0
   37.7090   24.1690   30.7610 S   0  0  0  0  0  0  0  0  0  0  0  0
   38.4520   24.4420   29.4900 O   0  0  0  0  0  0  0  0  0  0  0  0
   39.4460   24.5630   29.4610 H   0  0  0  0  0  0  0  0  0  0  0  0
   36.4300   24.9530   30.7030 O   0  0  0  0  0  0  0  0  0  0  0  0
   35.6240   24.8180   31.2420 H   0  0  0  0  0  0  0  0  0  0  0  0
   37.2830   22.5530   30.8420 O   0  0  0  0  0  0  0  0  0  0  0  0
   36.6000   21.9550   33.0090 C   0  0  1  0  0  3  0  0  0  0  0  0
   36.1630   22.3180   31.6020 C   0  0  2  0  0  3  0  0  0  0  0  0
   35.4490   21.0350   31.1910 C   0  0  0  0  0  3  0  0  0  0  0  0
   36.1810   20.3640   30.7380 H   0  0  0  0  0  0  0  0  0  0  0  0
   34.8430   20.5570   32.3380 O   0  0  0  0  0  0  0  0  0  0  0  0
   35.7440   20.7490   33.3800 C   0  0  0  0  0  3  0  0  0  0  0  0
   35.1900   20.9250   34.3470 H   0  0  0  0  0  0  0  0  0  0  0  0
   37.9300   21.5390   33.0340 O   0  0  0  0  0  0  0  0  0  0  0  0
   37.9630   20.7710   32.3810 H   0  0  0  0  0  0  0  0  0  0  0  0
  1  2  1  0  0  0  0
  2  3  2  0  0  0  0
  2  8  1  0  0  0  0
  3  9  1  0  0  0  0
  4  3  1  0  0  0  0
  5  4  2  0  0  0  0
  6  5  1  0  0  0  0
  6  1  2  0  0  0  0
  7 10  1  0  0  0  0
  7  5  1  0  0  0  0
 11 14  1  6  0  0  0
 11  1  1  0  0  0  0
 11 13  1  0  0  0  0
 12 11  1  0  0  0  0
 12 13  1  0  0  0  0
 13 19  1  0  0  0  0
 13 17  1  1  0  0  0
 15 12  1  0  0  0  0
 16 12  1  0  0  0  0
 18 23  1  6  0  0  0
 18 29  1  0  0  0  0
 18 22  1  0  0  0  0
 19 24  1  6  0  0  0
 19 18  1  0  0  0  0
 19 20  1  0  0  0  0
 20 26  1  0  0  0  0
 20 21  1  0  0  0  0
 22 21  1  0  0  0  0
 22 27  1  0  0  0  0
 25 20  1  0  0  0  0
 28 22  1  0  0  0  0
 29 30  1  0  0  0  0
 30 31  1  0  0  0  0
 30 32  1  0  0  0  0
 33 30  1  0  0  0  0
 34 39  1  0  0  0  0
 34  7  1  0  0  0  0
 35 34  1  0  0  0  0
 36 35  1  0  0  0  0
 37 34  1  0  0  0  0
 37 38  1  0  0  0  0
 40 47  1  6  0  0  0
 40 45  1  0  0  0  0
 41 39  1  6  0  0  0
 41 40  1  0  0  0  0
 42 41  1  0  0  0  0
 42 44  1  0  0  0  0
 43 42  1  0  0  0  0
 44 45  1  0  0  0  0
 45 46  1  0  0  0  0
 48 47  1  0  0  0  0
M  END
>  <minimizedAffinity>
-5.50428343

$$$$

 OpenBabel03272500423D

 48 51  0  0  1  0  0  0  0  0999 V2000
   37.0080   25.1990   32.5320 C   0  0  0  0  0  0  0  0  0  0  0  0
   36.5870   26.5120   32.4170 C   0  0  0  0  0  0  0  0  0  0  0  0
   36.9810   27.3710   33.4160 C   0  0  0  0  0  0  0  0  0  0  0  0
   37.7470   26.9040   34.4440 N   0  0  0  0  0  0  0  0  0  0  0  0
   38.1550   25.6090   34.5450 C   0  0  0  0  0  0  0  0  0  0  0  0
   37.7700   24.7540   33.5630 N   0  0  0  0  0  0  0  0  0  0  0  0
   38.9550   25.1690   35.6330 N   0  0  0  0  0  0  0  0  0  0  0  0
   35.9870   26.8790   31.6120 H   0  0  0  0  0  0  0  0  0  0  0  0
   36.7220   28.4170   33.4470 H   0  0  0  0  0  0  0  0  0  0  0  0
   39.7350   25.7970   35.9020 H   0  0  0  0  0  0  0  0  0  0  0  0
   36.6000   24.2320   31.4310 C   0  0  1  0  0  0  0  0  0  0  0  0
   37.5540   23.6750   30.5400 C   0  0  0  0  0  0  0  0  0  0  0  0
   37.0770   22.8400   31.6850 C   0  0  2  0  0  0  0  0  0  0  0  0
   35.5070   24.3310   31.1790 H   0  0  0  0  0  0  0  0  0  0  0  0
   37.4760   23.4310   29.4970 H   0  0  0  0  0  0  0  0  0  0  0  0
   38.6100   24.0540   30.7230 H   0  0  0  0  0  0  0  0  0  0  0  0
   37.7290   22.6370   32.5590 H   0  0  0  0  0  0  0  0  0  0  0  0
   36.8990   20.3930   31.4190 C   0  0  2  0  0  0  0  0  0  0  0  0
   36.1910   21.6650   31.3710 C   0  0  1  0  0  0  0  0  0  0  0  0
   35.1210   21.5420   32.3520 C   0  0  0  0  0  0  0  0  0  0  0  0
   35.4950   20.5720   33.3000 O   0  0  0  0  0  0  0  0  0  0  0  0
   35.9570   19.6040   32.4840 C   0  0  0  0  0  0  0  0  0  0  0  0
   36.9420   19.7510   30.5430 H   0  0  0  0  0  0  0  0  0  0  0  0
   35.7340   21.8060   30.3540 H   0  0  0  0  0  0  0  0  0  0  0  0
   34.2090   21.0930   31.8600 H   0  0  0  0  0  0  0  0  0  0  0  0
   34.7730   22.3640   32.9400 H   0  0  0  0  0  0  0  0  0  0  0  0
   36.5580   18.8020   32.9100 H   0  0  0  0  0  0  0  0  0  0  0  0
   35.1650   19.1940   31.7900 H   0  0  0  0  0  0  0  0  0  0  0  0
   38.0620   20.4610   32.1780 O   0  0  0  0  0  0  0  0  0  0  0  0
   39.0510   19.6920   31.9040 C   0  0  0  0  0  0  0  0  0  0  0  0
   39.9330   19.8230   32.5680 H   0  0  0  0  0  0  0  0  0  0  0  0
   38.7810   18.6040   32.0210 H   0  0  0  0  0  0  0  0  0  0  0  0
   39.4310   19.7630   30.8600 H   0  0  0  0  0  0  0  0  0  0  0  0
   38.6390   23.6920   36.4390 S   0  0  0  0  0  0  0  0  0  0  0  0
   37.9860   22.6810   35.5470 O   0  0  0  0  0  0  0  0  0  0  0  0
   38.0470   22.7230   34.5490 H   0  0  0  0  0  0  0  0  0  0  0  0
   37.6880   23.9660   37.5680 O   0  0  0  0  0  0  0  0  0  0  0  0
   37.8930   24.3790   38.4310 H   0  0  0  0  0  0  0  0  0  0  0  0
   40.0260   23.0480   37.1180 O   0  0  0  0  0  0  0  0  0  0  0  0
   41.5410   21.3110   36.6630 C   0  0  1  0  0  3  0  0  0  0  0  0
   40.9450   22.6230   36.1900 C   0  0  2  0  0  3  0  0  0  0  0  0
   42.1900   23.5050   36.1700 C   0  0  0  0  0  3  0  0  0  0  0  0
   42.3000   23.9660   37.1520 H   0  0  0  0  0  0  0  0  0  0  0  0
   43.2290   22.6780   35.7860 O   0  0  0  0  0  0  0  0  0  0  0  0
   43.0410   21.4640   36.4370 C   0  0  0  0  0  3  0  0  0  0  0  0
   43.4470   20.6190   35.8100 H   0  0  0  0  0  0  0  0  0  0  0  0
   41.3470   21.1330   38.0320 O   0  0  0  0  0  0  0  0  0  0  0  0
   41.7640   21.9490   38.4510 H   0  0  0  0  0  0  0  0  0  0  0  0
  1  6  1  0  0  0  0
  2  1  2  0  0  0  0
  2  3  1  0  0  0  0
  3  9  1  0  0  0  0
  3  4  2  0  0  0  0
  4  5  1  0  0  0  0
  5  7  1  0  0  0  0
  6  5  2  0  0  0  0
  7 10  1  0  0  0  0
  7 34  1  0  0  0  0
  8  2  1  0  0  0  0
 11 14  1  6  0  0  0
 11 13  1  0  0  0  0
 11  1  1  0  0  0  0
 12 16  1  0  0  0  0
 12 11  1  0  0  0  0
 12 13  1  0  0  0  0
 13 17  1  1  0  0  0
 15 12  1  0  0  0  0
 18 23  1  6  0  0  0
 18 29  1  0  0  0  0
 18 22  1  0  0  0  0
 19 24  1  6  0  0  0
 19 18  1  0  0  0  0
 19 13  1  0  0  0  0
 19 20  1  0  0  0  0
 20 26  1  0  0  0  0
 20 21  1  0  0  0  0
 22 27  1  0  0  0  0
 22 21  1  0  0  0  0
 25 20  1  0  0  0  0
 28 22  1  0  0  0  0
 30 32  1  0  0  0  0
 30 29  1  0  0  0  0
 30 31  1  0  0  0  0
 33 30  1  0  0  0  0
 34 39  1  0  0  0  0
 34 37  1  0  0  0  0
 35 34  1  0  0  0  0
 36 35  1  0  0  0  0
 37 38  1  0  0  0  0
 40 47  1  1  0  0  0
 41 40  1  0  0  0  0
 41 39  1  1  0  0  0
 42 41  1  0  0  0  0
 42 43  1  0  0  0  0
 44 42  1  0  0  0  0
 44 45  1  0  0  0  0
 45 40  1  0  0  0  0
 46 45  1  0  0  0  0
 47 48  1  0  0  0  0
M  END
>  <minimizedAffinity>
-5.47033262

$$$$

 OpenBabel03272500423D

 48 51  0  0  1  0  0  0  0  0999 V2000
   38.0780   27.2420   33.2530 C   0  0  0  0  0  0  0  0  0  0  0  0
   37.2270   27.6790   34.2530 C   0  0  0  0  0  0  0  0  0  0  0  0
   36.1170   28.3840   33.8480 C   0  0  0  0  0  0  0  0  0  0  0  0
   35.9120   28.6140   32.5190 N   0  0  0  0  0  0  0  0  0  0  0  0
   36.7560   28.1780   31.5450 C   0  0  0  0  0  0  0  0  0  0  0  0
   37.8550   27.4810   31.9350 N   0  0  0  0  0  0  0  0  0  0  0  0
   36.4990   28.4380   30.1730 N   0  0  0  0  0  0  0  0  0  0  0  0
   37.3870   27.5000   35.2940 H   0  0  0  0  0  0  0  0  0  0  0  0
   35.3760   28.7810   34.5240 H   0  0  0  0  0  0  0  0  0  0  0  0
   35.5190   28.3010   29.8640 H   0  0  0  0  0  0  0  0  0  0  0  0
   39.3020   26.4450   33.6720 C   0  0  1  0  0  0  0  0  0  0  0  0
   40.0810   26.8140   34.7980 C   0  0  0  0  0  0  0  0  0  0  0  0
   39.0940   25.7020   34.9500 C   0  0  2  0  0  0  0  0  0  0  0  0
   39.7090   25.8330   32.8170 H   0  0  0  0  0  0  0  0  0  0  0  0
   41.1410   26.7540   34.9660 H   0  0  0  0  0  0  0  0  0  0  0  0
   39.7110   27.7620   35.3060 H   0  0  0  0  0  0  0  0  0  0  0  0
   38.1500   25.8440   35.5170 H   0  0  0  0  0  0  0  0  0  0  0  0
   39.2760   23.7090   36.3930 C   0  0  2  0  0  0  0  0  0  0  0  0
   39.6330   24.3080   35.1140 C   0  0  1  0  0  0  0  0  0  0  0  0
   39.0790   23.4120   34.1080 C   0  0  0  0  0  0  0  0  0  0  0  0
   38.0100   22.7000   34.6830 O   0  0  0  0  0  0  0  0  0  0  0  0
   38.5630   22.3470   35.8610 C   0  0  0  0  0  0  0  0  0  0  0  0
   40.0480   23.3780   37.0840 H   0  0  0  0  0  0  0  0  0  0  0  0
   40.7510   24.3260   35.0050 H   0  0  0  0  0  0  0  0  0  0  0  0
   39.8320   22.6060   33.8650 H   0  0  0  0  0  0  0  0  0  0  0  0
   38.6920   23.7560   33.1720 H   0  0  0  0  0  0  0  0  0  0  0  0
   37.9140   21.9920   36.6600 H   0  0  0  0  0  0  0  0  0  0  0  0
   39.4670   21.6790   35.7440 H   0  0  0  0  0  0  0  0  0  0  0  0
   38.1650   24.3140   36.9710 O   0  0  0  0  0  0  0  0  0  0  0  0
   37.8190   24.0080   38.1680 C   0  0  0  0  0  0  0  0  0  0  0  0
   36.9200   24.5450   38.5380 H   0  0  0  0  0  0  0  0  0  0  0  0
   37.5420   22.9190   38.2580 H   0  0  0  0  0  0  0  0  0  0  0  0
   38.6090   24.1480   38.9390 H   0  0  0  0  0  0  0  0  0  0  0  0
   37.7400   28.9450   29.1080 S   0  0  0  0  0  0  0  0  0  0  0  0
   37.8350   28.0840   27.8860 O   0  0  0  0  0  0  0  0  0  0  0  0
   37.0720   27.5230   27.5610 H   0  0  0  0  0  0  0  0  0  0  0  0
   39.0530   28.8370   29.8290 O   0  0  0  0  0  0  0  0  0  0  0  0
   39.4090   29.4400   30.5120 H   0  0  0  0  0  0  0  0  0  0  0  0
   37.5600   30.5500   28.6680 O   0  0  0  0  0  0  0  0  0  0  0  0
   37.0100   31.8600   30.5390 C   0  0  1  0  0  3  0  0  0  0  0  0
   38.0990   31.4310   29.5740 C   0  0  2  0  0  3  0  0  0  0  0  0
   38.4500   32.7700   28.9340 C   0  0  0  0  0  3  0  0  0  0  0  0
   37.8060   32.9150   28.0650 H   0  0  0  0  0  0  0  0  0  0  0  0
   38.3110   33.7130   29.9350 O   0  0  0  0  0  0  0  0  0  0  0  0
   37.1710   33.3720   30.6560 C   0  0  0  0  0  3  0  0  0  0  0  0
   37.2820   33.6880   31.7330 H   0  0  0  0  0  0  0  0  0  0  0  0
   35.7430   31.6210   30.0100 O   0  0  0  0  0  0  0  0  0  0  0  0
   35.7390   32.1220   29.1350 H   0  0  0  0  0  0  0  0  0  0  0  0
  1 11  1  0  0  0  0
  1  2  1  0  0  0  0
  2  8  1  0  0  0  0
  3  2  2  0  0  0  0
  3  9  1  0  0  0  0
  4  3  1  0  0  0  0
  5  6  1  0  0  0  0
  5  4  2  0  0  0  0
  6  1  2  0  0  0  0
  7  5  1  0  0  0  0
 10  7  1  0  0  0  0
 11 14  1  6  0  0  0
 11 12  1  0  0  0  0
 11 13  1  0  0  0  0
 12 13  1  0  0  0  0
 12 15  1  0  0  0  0
 12 16  1  0  0  0  0
 13 19  1  0  0  0  0
 13 17  1  1  0  0  0
 18 29  1  0  0  0  0
 18 23  1  1  0  0  0
 19 24  1  6  0  0  0
 19 18  1  0  0  0  0
 20 21  1  0  0  0  0
 20 19  1  0  0  0  0
 21 22  1  0  0  0  0
 22 18  1  0  0  0  0
 22 27  1  0  0  0  0
 25 20  1  0  0  0  0
 26 20  1  0  0  0  0
 28 22  1  0  0  0  0
 29 30  1  0  0  0  0
 30 32  1  0  0  0  0
 30 31  1  0  0  0  0
 30 33  1  0  0  0  0
 34 37  1  0  0  0  0
 34  7  1  0  0  0  0
 35 34  1  0  0  0  0
 36 35  1  0  0  0  0
 37 38  1  0  0  0  0
 39 34  1  0  0  0  0
 40 47  1  6  0  0  0
 40 45  1  0  0  0  0
 41 39  1  6  0  0  0
 41 40  1  0  0  0  0
 42 41  1  0  0  0  0
 42 44  1  0  0  0  0
 43 42  1  0  0  0  0
 44 45  1  0  0  0  0
 45 46  1  0  0  0  0
 48 47  1  0  0  0  0
M  END
>  <minimizedAffinity>
-5.43326759

$$$$

 OpenBabel03272500423D

 48 51  0  0  1  0  0  0  0  0999 V2000
   37.6970   26.5480   32.9930 C   0  0  0  0  0  0  0  0  0  0  0  0
   37.1750   25.4160   32.3930 C   0  0  0  0  0  0  0  0  0  0  0  0
   36.0590   25.5970   31.6090 C   0  0  0  0  0  0  0  0  0  0  0  0
   35.5330   26.8470   31.4650 N   0  0  0  0  0  0  0  0  0  0  0  0
   36.0560   27.9540   32.0600 C   0  0  0  0  0  0  0  0  0  0  0  0
   37.1580   27.7840   32.8360 N   0  0  0  0  0  0  0  0  0  0  0  0
   35.4760   29.2370   31.8770 N   0  0  0  0  0  0  0  0  0  0  0  0
   37.5860   24.4360   32.5060 H   0  0  0  0  0  0  0  0  0  0  0  0
   35.5540   24.8010   31.0870 H   0  0  0  0  0  0  0  0  0  0  0  0
   35.1950   29.4700   30.9070 H   0  0  0  0  0  0  0  0  0  0  0  0
   38.9420   26.3780   33.8500 C   0  0  1  0  0  0  0  0  0  0  0  0
   39.0160   26.9000   35.1670 C   0  0  0  0  0  0  0  0  0  0  0  0
   38.7280   25.4430   34.9940 C   0  0  2  0  0  0  0  0  0  0  0  0
   39.8520   26.1700   33.2180 H   0  0  0  0  0  0  0  0  0  0  0  0
   39.8420   27.3280   35.7040 H   0  0  0  0  0  0  0  0  0  0  0  0
   38.0800   27.4680   35.4750 H   0  0  0  0  0  0  0  0  0  0  0  0
   37.7140   25.0320   35.1810 H   0  0  0  0  0  0  0  0  0  0  0  0
   39.4620   23.7000   36.5790 C   0  0  2  0  0  0  0  0  0  0  0  0
   39.8020   24.4680   35.3890 C   0  0  1  0  0  0  0  0  0  0  0  0
   40.0150   23.4750   34.3440 C   0  0  0  0  0  0  0  0  0  0  0  0
   39.3060   22.3080   34.6870 O   0  0  0  0  0  0  0  0  0  0  0  0
   39.6420   22.1960   35.9870 C   0  0  0  0  0  0  0  0  0  0  0  0
   40.0960   23.7390   37.4620 H   0  0  0  0  0  0  0  0  0  0  0  0
   40.7640   25.0230   35.5590 H   0  0  0  0  0  0  0  0  0  0  0  0
   41.0930   23.1400   34.3560 H   0  0  0  0  0  0  0  0  0  0  0  0
   39.7620   23.6440   33.3190 H   0  0  0  0  0  0  0  0  0  0  0  0
   39.0610   21.5300   36.6240 H   0  0  0  0  0  0  0  0  0  0  0  0
   40.7510   22.0470   36.1480 H   0  0  0  0  0  0  0  0  0  0  0  0
   38.0930   23.6690   36.8170 O   0  0  0  0  0  0  0  0  0  0  0  0
   37.6520   23.3840   37.9880 C   0  0  0  0  0  0  0  0  0  0  0  0
   36.5450   23.3860   38.0750 H   0  0  0  0  0  0  0  0  0  0  0  0
   37.9500   22.3460   38.3060 H   0  0  0  0  0  0  0  0  0  0  0  0
   38.0330   24.0350   38.8070 H   0  0  0  0  0  0  0  0  0  0  0  0
   35.2610   30.3190   33.1870 S   0  0  0  0  0  0  0  0  0  0  0  0
   35.9580   31.6260   32.9710 O   0  0  0  0  0  0  0  0  0  0  0  0
   36.2120   31.9590   32.0610 H   0  0  0  0  0  0  0  0  0  0  0  0
   35.8580   29.6960   34.4160 O   0  0  0  0  0  0  0  0  0  0  0  0
   35.4800   28.9790   34.9630 H   0  0  0  0  0  0  0  0  0  0  0  0
   33.6400   30.5790   33.5140 O   0  0  0  0  0  0  0  0  0  0  0  0
   31.9100   28.9950   33.3850 C   0  0  1  0  0  3  0  0  0  0  0  0
   33.0510   29.5550   34.2140 C   0  0  2  0  0  3  0  0  0  0  0  0
   32.2880   30.0580   35.4350 C   0  0  0  0  0  3  0  0  0  0  0  0
   31.9830   31.0890   35.2490 H   0  0  0  0  0  0  0  0  0  0  0  0
   31.2530   29.1630   35.6270 O   0  0  0  0  0  0  0  0  0  0  0  0
   30.7550   28.8450   34.3680 C   0  0  0  0  0  3  0  0  0  0  0  0
   30.3510   27.7920   34.3640 H   0  0  0  0  0  0  0  0  0  0  0  0
   31.5030   29.9030   32.4070 O   0  0  0  0  0  0  0  0  0  0  0  0
   31.2670   30.7360   32.9240 H   0  0  0  0  0  0  0  0  0  0  0  0
  1 11  1  0  0  0  0
  2  8  1  0  0  0  0
  2  1  2  0  0  0  0
  3  2  1  0  0  0  0
  4  3  2  0  0  0  0
  4  5  1  0  0  0  0
  5  6  2  0  0  0  0
  6  1  1  0  0  0  0
  7  5  1  0  0  0  0
  7 34  1  0  0  0  0
  9  3  1  0  0  0  0
 10  7  1  0  0  0  0
 11 14  1  6  0  0  0
 11 13  1  0  0  0  0
 11 12  1  0  0  0  0
 12 16  1  0  0  0  0
 12 15  1  0  0  0  0
 13 12  1  0  0  0  0
 13 17  1  1  0  0  0
 13 19  1  0  0  0  0
 18 29  1  0  0  0  0
 18 23  1  1  0  0  0
 19 24  1  1  0  0  0
 19 18  1  0  0  0  0
 20 25  1  0  0  0  0
 20 21  1  0  0  0  0
 20 19  1  0  0  0  0
 21 22  1  0  0  0  0
 22 28  1  0  0  0  0
 22 18  1  0  0  0  0
 22 27  1  0  0  0  0
 26 20  1  0  0  0  0
 29 30  1  0  0  0  0
 30 31  1  0  0  0  0
 30 32  1  0  0  0  0
 30 33  1  0  0  0  0
 34 39  1  0  0  0  0
 34 37  1  0  0  0  0
 35 34  1  0  0  0  0
 36 35  1  0  0  0  0
 37 38  1  0  0  0  0
 40 47  1  6  0  0  0
 40 41  1  0  0  0  0
 40 45  1  0  0  0  0
 41 39  1  6  0  0  0
 41 42  1  0  0  0  0
 42 44  1  0  0  0  0
 43 42  1  0  0  0  0
 45 44  1  0  0  0  0
 46 45  1  0  0  0  0
 47 48  1  0  0  0  0
M  END
>  <minimizedAffinity>
-5.31054544

$$$$

 OpenBabel03272500423D

 48 51  0  0  1  0  0  0  0  0999 V2000
   35.7570   31.1350   33.3840 C   0  0  0  0  0  0  0  0  0  0  0  0
   35.9810   32.4840   33.1720 C   0  0  0  0  0  0  0  0  0  0  0  0
   36.2720   32.8620   31.8820 C   0  0  0  0  0  0  0  0  0  0  0  0
   36.3250   31.9170   30.8990 N   0  0  0  0  0  0  0  0  0  0  0  0
   36.1020   30.5930   31.1200 C   0  0  0  0  0  0  0  0  0  0  0  0
   35.8150   30.2110   32.3910 N   0  0  0  0  0  0  0  0  0  0  0  0
   36.1640   29.6460   30.0630 N   0  0  0  0  0  0  0  0  0  0  0  0
   35.9400   33.2240   33.9420 H   0  0  0  0  0  0  0  0  0  0  0  0
   36.4670   33.8790   31.5820 H   0  0  0  0  0  0  0  0  0  0  0  0
   35.7060   29.9270   29.1780 H   0  0  0  0  0  0  0  0  0  0  0  0
   35.4160   30.6930   34.7980 C   0  0  1  0  0  0  0  0  0  0  0  0
   35.8810   31.4060   35.9330 C   0  0  0  0  0  0  0  0  0  0  0  0
   34.4730   31.6290   35.4790 C   0  0  2  0  0  0  0  0  0  0  0  0
   35.1270   29.6040   34.8320 H   0  0  0  0  0  0  0  0  0  0  0  0
   36.1920   31.0560   36.9000 H   0  0  0  0  0  0  0  0  0  0  0  0
   36.5410   32.2910   35.6640 H   0  0  0  0  0  0  0  0  0  0  0  0
   34.1750   32.5690   34.9720 H   0  0  0  0  0  0  0  0  0  0  0  0
   32.6490   32.1410   37.0600 C   0  0  2  0  0  0  0  0  0  0  0  0
   33.3680   31.0940   36.3480 C   0  0  1  0  0  0  0  0  0  0  0  0
   32.3570   30.4170   35.5470 C   0  0  0  0  0  0  0  0  0  0  0  0
   31.2910   31.3080   35.3270 O   0  0  0  0  0  0  0  0  0  0  0  0
   31.1350   31.8070   36.5690 C   0  0  0  0  0  0  0  0  0  0  0  0
   32.6050   32.1420   38.1470 H   0  0  0  0  0  0  0  0  0  0  0  0
   33.7950   30.3610   37.0840 H   0  0  0  0  0  0  0  0  0  0  0  0
   31.8870   29.5890   36.1540 H   0  0  0  0  0  0  0  0  0  0  0  0
   32.5590   30.0050   34.5810 H   0  0  0  0  0  0  0  0  0  0  0  0
   30.5480   32.7150   36.7000 H   0  0  0  0  0  0  0  0  0  0  0  0
   30.8440   31.0230   37.3290 H   0  0  0  0  0  0  0  0  0  0  0  0
   32.7930   33.3870   36.4590 O   0  0  0  0  0  0  0  0  0  0  0  0
   32.3790   34.4410   37.0620 C   0  0  0  0  0  0  0  0  0  0  0  0
   32.5400   35.3850   36.5000 H   0  0  0  0  0  0  0  0  0  0  0  0
   31.2660   34.4140   37.2360 H   0  0  0  0  0  0  0  0  0  0  0  0
   32.8050   34.6030   38.0780 H   0  0  0  0  0  0  0  0  0  0  0  0
   36.9520   28.1380   30.2560 S   0  0  0  0  0  0  0  0  0  0  0  0
   37.9140   27.8470   29.1450 O   0  0  0  0  0  0  0  0  0  0  0  0
   38.3060   28.5660   28.5690 H   0  0  0  0  0  0  0  0  0  0  0  0
   35.9110   27.0560   30.2360 O   0  0  0  0  0  0  0  0  0  0  0  0
   35.2940   26.8110   30.9540 H   0  0  0  0  0  0  0  0  0  0  0  0
   37.7320   28.0320   31.7330 O   0  0  0  0  0  0  0  0  0  0  0  0
   37.1480   26.4840   33.4020 C   0  0  1  0  0  3  0  0  0  0  0  0
   37.9560   26.7400   32.1430 C   0  0  2  0  0  3  0  0  0  0  0  0
   39.3720   26.5440   32.6750 C   0  0  0  0  0  3  0  0  0  0  0  0
   39.7370   27.5030   33.0450 H   0  0  0  0  0  0  0  0  0  0  0  0
   39.2820   25.5430   33.6240 O   0  0  0  0  0  0  0  0  0  0  0  0
   38.1130   25.7710   34.3420 C   0  0  0  0  0  3  0  0  0  0  0  0
   37.6810   24.7940   34.7040 H   0  0  0  0  0  0  0  0  0  0  0  0
   36.7820   27.6800   34.0190 O   0  0  0  0  0  0  0  0  0  0  0  0
   37.6560   28.1560   34.1790 H   0  0  0  0  0  0  0  0  0  0  0  0
  1 11  1  0  0  0  0
  2  1  1  0  0  0  0
  2  8  1  0  0  0  0
  3  2  2  0  0  0  0
  4  5  2  0  0  0  0
  4  3  1  0  0  0  0
  5  6  1  0  0  0  0
  6  1  2  0  0  0  0
  7 34  1  0  0  0  0
  7  5  1  0  0  0  0
  9  3  1  0  0  0  0
 10  7  1  0  0  0  0
 11 14  1  1  0  0  0
 11 13  1  0  0  0  0
 11 12  1  0  0  0  0
 12 15  1  0  0  0  0
 13 17  1  6  0  0  0
 13 12  1  0  0  0  0
 13 19  1  0  0  0  0
 16 12  1  0  0  0  0
 18 23  1  1  0  0  0
 19 18  1  0  0  0  0
 19 24  1  1  0  0  0
 20 25  1  0  0  0  0
 20 19  1  0  0  0  0
 21 20  1  0  0  0  0
 21 22  1  0  0  0  0
 22 27  1  0  0  0  0
 22 18  1  0  0  0  0
 22 28  1  0  0  0  0
 26 20  1  0  0  0  0
 29 18  1  0  0  0  0
 29 30  1  0  0  0  0
 30 32  1  0  0  0  0
 30 33  1  0  0  0  0
 31 30  1  0  0  0  0
 34 39  1  0  0  0  0
 35 34  1  0  0  0  0
 36 35  1  0  0  0  0
 37 34  1  0  0  0  0
 37 38  1  0  0  0  0
 40 47  1  1  0  0  0
 40 45  1  0  0  0  0
 41 39  1  1  0  0  0
 41 42  1  0  0  0  0
 41 40  1  0  0  0  0
 42 43  1  0  0  0  0
 42 44  1  0  0  0  0
 44 45  1  0  0  0  0
 45 46  1  0  0  0  0
 47 48  1  0  0  0  0
M  END
>  <minimizedAffinity>
-5.27367496

$$$$

 OpenBabel03272500423D

 48 51  0  0  1  0  0  0  0  0999 V2000
   35.6100   29.7860   33.9580 C   0  0  0  0  0  0  0  0  0  0  0  0
   35.1850   29.9140   32.6470 C   0  0  0  0  0  0  0  0  0  0  0  0
   35.5450   28.9050   31.7840 C   0  0  0  0  0  0  0  0  0  0  0  0
   36.2810   27.8540   32.2460 N   0  0  0  0  0  0  0  0  0  0  0  0
   36.6930   27.7380   33.5390 C   0  0  0  0  0  0  0  0  0  0  0  0
   36.3430   28.7310   34.3970 N   0  0  0  0  0  0  0  0  0  0  0  0
   37.4550   26.6230   33.9750 N   0  0  0  0  0  0  0  0  0  0  0  0
   34.6080   30.7380   32.2840 H   0  0  0  0  0  0  0  0  0  0  0  0
   35.2790   28.8830   30.7400 H   0  0  0  0  0  0  0  0  0  0  0  0
   37.1390   25.6980   33.6320 H   0  0  0  0  0  0  0  0  0  0  0  0
   35.2110   30.8790   34.9360 C   0  0  1  0  0  0  0  0  0  0  0  0
   36.1010   31.3410   35.9390 C   0  0  0  0  0  0  0  0  0  0  0  0
   35.9420   32.1580   34.6960 C   0  0  2  0  0  0  0  0  0  0  0  0
   34.0900   30.9700   35.0190 H   0  0  0  0  0  0  0  0  0  0  0  0
   35.9130   31.6670   36.9450 H   0  0  0  0  0  0  0  0  0  0  0  0
   37.0960   30.7910   35.9410 H   0  0  0  0  0  0  0  0  0  0  0  0
   36.7400   32.1950   33.9270 H   0  0  0  0  0  0  0  0  0  0  0  0
   35.9750   34.5820   34.2350 C   0  0  2  0  0  0  0  0  0  0  0  0
   35.2260   33.4760   34.8150 C   0  0  1  0  0  0  0  0  0  0  0  0
   33.9630   33.4500   34.0890 C   0  0  0  0  0  0  0  0  0  0  0  0
   34.1570   34.0560   32.8340 O   0  0  0  0  0  0  0  0  0  0  0  0
   34.8550   35.1490   33.2000 C   0  0  0  0  0  0  0  0  0  0  0  0
   36.2610   35.4360   34.8440 H   0  0  0  0  0  0  0  0  0  0  0  0
   35.0150   33.6880   35.8980 H   0  0  0  0  0  0  0  0  0  0  0  0
   33.2210   34.1320   34.5990 H   0  0  0  0  0  0  0  0  0  0  0  0
   33.4380   32.5450   33.8650 H   0  0  0  0  0  0  0  0  0  0  0  0
   35.3840   35.7150   32.4350 H   0  0  0  0  0  0  0  0  0  0  0  0
   34.2760   35.8360   33.8860 H   0  0  0  0  0  0  0  0  0  0  0  0
   36.9190   34.1560   33.3070 O   0  0  0  0  0  0  0  0  0  0  0  0
   37.8640   34.9450   32.9460 C   0  0  0  0  0  0  0  0  0  0  0  0
   38.5660   34.5110   32.2020 H   0  0  0  0  0  0  0  0  0  0  0  0
   37.4670   35.8690   32.4390 H   0  0  0  0  0  0  0  0  0  0  0  0
   38.4910   35.3430   33.7750 H   0  0  0  0  0  0  0  0  0  0  0  0
   38.8120   26.8110   35.0030 S   0  0  0  0  0  0  0  0  0  0  0  0
   38.5530   27.7700   36.1240 O   0  0  0  0  0  0  0  0  0  0  0  0
   37.6300   27.9960   36.4390 H   0  0  0  0  0  0  0  0  0  0  0  0
   39.9440   27.3730   34.1920 O   0  0  0  0  0  0  0  0  0  0  0  0
   40.5110   26.8970   33.5520 H   0  0  0  0  0  0  0  0  0  0  0  0
   39.3350   25.3430   35.6130 O   0  0  0  0  0  0  0  0  0  0  0  0
   37.5360   24.2760   36.6840 C   0  0  1  0  0  3  0  0  0  0  0  0
   38.4230   24.3270   35.4540 C   0  0  2  0  0  3  0  0  0  0  0  0
   39.0780   22.9520   35.5250 C   0  0  0  0  0  3  0  0  0  0  0  0
   39.9870   23.0340   36.1230 H   0  0  0  0  0  0  0  0  0  0  0  0
   38.1130   22.1010   36.0320 O   0  0  0  0  0  0  0  0  0  0  0  0
   37.4510   22.7960   37.0390 C   0  0  0  0  0  3  0  0  0  0  0  0
   36.3790   22.4540   37.1080 H   0  0  0  0  0  0  0  0  0  0  0  0
   38.1320   24.9260   37.7650 O   0  0  0  0  0  0  0  0  0  0  0  0
   39.0190   24.4590   37.8770 H   0  0  0  0  0  0  0  0  0  0  0  0
  1  6  1  0  0  0  0
  1 11  1  0  0  0  0
  2  1  2  0  0  0  0
  3  4  2  0  0  0  0
  3  2  1  0  0  0  0
  4  5  1  0  0  0  0
  5  7  1  0  0  0  0
  5  6  2  0  0  0  0
  7 34  1  0  0  0  0
  8  2  1  0  0  0  0
  9  3  1  0  0  0  0
 10  7  1  0  0  0  0
 11 14  1  1  0  0  0
 11 12  1  0  0  0  0
 12 16  1  0  0  0  0
 12 15  1  0  0  0  0
 13 17  1  6  0  0  0
 13 19  1  0  0  0  0
 13 11  1  0  0  0  0
 13 12  1  0  0  0  0
 18 19  1  0  0  0  0
 18 23  1  1  0  0  0
 19 24  1  1  0  0  0
 20 25  1  0  0  0  0
 20 19  1  0  0  0  0
 21 22  1  0  0  0  0
 21 20  1  0  0  0  0
 22 28  1  0  0  0  0
 22 18  1  0  0  0  0
 26 20  1  0  0  0  0
 27 22  1  0  0  0  0
 29 18  1  0  0  0  0
 30 29  1  0  0  0  0
 30 33  1  0  0  0  0
 31 30  1  0  0  0  0
 32 30  1  0  0  0  0
 34 39  1  0  0  0  0
 34 35  1  0  0  0  0
 35 36  1  0  0  0  0
 37 34  1  0  0  0  0
 38 37  1  0  0  0  0
 40 45  1  0  0  0  0
 40 47  1  1  0  0  0
 41 42  1  0  0  0  0
 41 39  1  1  0  0  0
 41 40  1  0  0  0  0
 42 44  1  0  0  0  0
 42 43  1  0  0  0  0
 44 45  1  0  0  0  0
 45 46  1  0  0  0  0
 47 48  1  0  0  0  0
M  END
>  <minimizedAffinity>
-5.25891018

$$$$
