
 OpenBabel03272502303D

 24 25  0  0  1  0  0  0  0  0999 V2000
   37.4830   27.7030   34.5250 C   0  0  0  0  0  0  0  0  0  0  0  0
   36.4300   27.6230   34.8760 H   0  0  0  0  0  0  0  0  0  0  0  0
   37.8570   28.7120   34.7750 H   0  0  0  0  0  0  0  0  0  0  0  0
   37.6520   25.6070   35.8290 C   0  0  0  0  0  3  0  0  0  0  0  0
   38.2370   26.6580   35.2740 C   0  0  0  0  0  3  0  0  0  0  0  0
   38.8050   23.3190   38.5160 C   0  0  0  0  0  0  0  0  0  0  0  0
   38.0520   24.2930   37.8270 C   0  0  0  0  0  0  0  0  0  0  0  0
   38.4050   24.6210   36.5430 C   0  0  0  0  0  0  0  0  0  0  0  0
   39.4700   24.0060   35.9520 N   0  0  0  0  0  0  0  0  0  0  0  0
   40.1710   23.0750   36.6430 C   0  0  0  0  0  0  0  0  0  0  0  0
   39.8550   22.7300   37.9000 N   0  0  0  0  0  0  0  0  0  0  0  0
   38.6010   22.9990   39.5280 H   0  0  0  0  0  0  0  0  0  0  0  0
   37.2310   24.7330   38.3520 H   0  0  0  0  0  0  0  0  0  0  0  0
   41.0090   22.6430   36.0740 H   0  0  0  0  0  0  0  0  0  0  0  0
   37.6120   27.3370   32.7480 S   0  0  0  0  0  0  0  0  0  0  0  0
   35.4870   26.3560   31.2640 C   0  0  2  0  0  3  0  0  0  0  0  0
   36.4850   26.0060   32.3530 C   0  0  1  0  0  3  0  0  0  0  0  0
   37.1590   24.8040   31.7640 C   0  0  0  0  0  3  0  0  0  0  0  0
   38.0740   25.1730   31.2550 H   0  0  0  0  0  0  0  0  0  0  0  0
   36.3540   24.2710   30.7780 O   0  0  0  0  0  0  0  0  0  0  0  0
   35.1490   24.9410   30.7940 C   0  0  0  0  0  3  0  0  0  0  0  0
   34.5330   24.5030   31.6140 H   0  0  0  0  0  0  0  0  0  0  0  0
   36.1050   26.9870   30.1830 O   0  0  0  0  0  0  0  0  0  0  0  0
   36.9820   26.5570   30.0180 H   0  0  0  0  0  0  0  0  0  0  0  0
  1  3  1  0  0  0  0
  1  2  1  0  0  0  0
  1  5  1  0  0  0  0
  4  8  1  0  0  0  0
  5  4  2  0  0  0  0
  6 12  1  0  0  0  0
  7 13  1  0  0  0  0
  7  6  2  0  0  0  0
  8  7  1  0  0  0  0
  9  8  2  0  0  0  0
  9 10  1  0  0  0  0
 10 11  2  0  0  0  0
 11  6  1  0  0  0  0
 14 10  1  0  0  0  0
 15  1  1  0  0  0  0
 16 23  1  6  0  0  0
 16 17  1  0  0  0  0
 17 15  1  6  0  0  0
 18 17  1  0  0  0  0
 19 18  1  0  0  0  0
 20 21  1  0  0  0  0
 20 18  1  0  0  0  0
 21 16  1  0  0  0  0
 21 22  1  0  0  0  0
 24 23  1  0  0  0  0
M  END
>  <minimizedAffinity>
-4.57438326

$$$$

 OpenBabel03272502303D

 24 25  0  0  1  0  0  0  0  0999 V2000
   37.2190   27.6840   34.7680 C   0  0  0  0  0  0  0  0  0  0  0  0
   36.2380   27.8500   35.2650 H   0  0  0  0  0  0  0  0  0  0  0  0
   37.7590   28.6480   34.7340 H   0  0  0  0  0  0  0  0  0  0  0  0
   37.8990   25.3940   35.4100 C   0  0  0  0  0  3  0  0  0  0  0  0
   37.9430   26.7010   35.6230 C   0  0  0  0  0  3  0  0  0  0  0  0
   40.3980   22.9250   36.6100 C   0  0  0  0  0  0  0  0  0  0  0  0
   39.7140   23.8280   35.7690 C   0  0  0  0  0  0  0  0  0  0  0  0
   38.6050   24.4750   36.2510 C   0  0  0  0  0  0  0  0  0  0  0  0
   38.1800   24.2410   37.5260 N   0  0  0  0  0  0  0  0  0  0  0  0
   38.8610   23.3670   38.3060 C   0  0  0  0  0  0  0  0  0  0  0  0
   39.9490   22.7160   37.8690 N   0  0  0  0  0  0  0  0  0  0  0  0
   41.2790   22.3710   36.3170 H   0  0  0  0  0  0  0  0  0  0  0  0
   40.1030   23.9620   34.7820 H   0  0  0  0  0  0  0  0  0  0  0  0
   38.4340   23.2520   39.3150 H   0  0  0  0  0  0  0  0  0  0  0  0
   37.0030   26.9540   33.1160 S   0  0  0  0  0  0  0  0  0  0  0  0
   37.2220   27.7080   30.4580 C   0  0  2  0  0  3  0  0  0  0  0  0
   37.3290   28.2110   31.8860 C   0  0  1  0  0  3  0  0  0  0  0  0
   36.3270   29.3250   31.8870 C   0  0  0  0  0  3  0  0  0  0  0  0
   35.3780   28.8950   32.2700 H   0  0  0  0  0  0  0  0  0  0  0  0
   36.0790   29.7120   30.5850 O   0  0  0  0  0  0  0  0  0  0  0  0
   36.9590   29.0430   29.7600 C   0  0  0  0  0  3  0  0  0  0  0  0
   37.9330   29.5860   29.7980 H   0  0  0  0  0  0  0  0  0  0  0  0
   36.0720   26.9390   30.2680 O   0  0  0  0  0  0  0  0  0  0  0  0
   35.3250   27.3470   30.7730 H   0  0  0  0  0  0  0  0  0  0  0  0
  1  2  1  0  0  0  0
  1  5  1  0  0  0  0
  3  1  1  0  0  0  0
  4  5  2  0  0  0  0
  4  8  1  0  0  0  0
  6 11  1  0  0  0  0
  7  8  1  0  0  0  0
  7  6  2  0  0  0  0
  8  9  2  0  0  0  0
  9 10  1  0  0  0  0
 10 14  1  0  0  0  0
 11 10  2  0  0  0  0
 12  6  1  0  0  0  0
 13  7  1  0  0  0  0
 15  1  1  0  0  0  0
 16 23  1  1  0  0  0
 16 17  1  0  0  0  0
 17 18  1  0  0  0  0
 17 15  1  1  0  0  0
 18 19  1  0  0  0  0
 20 18  1  0  0  0  0
 21 22  1  0  0  0  0
 21 16  1  0  0  0  0
 21 20  1  0  0  0  0
 23 24  1  0  0  0  0
M  END
>  <minimizedAffinity>
-4.40131855

$$$$

 OpenBabel03272502303D

 24 25  0  0  1  0  0  0  0  0999 V2000
   38.6110   23.4700   33.2000 C   0  0  0  0  0  0  0  0  0  0  0  0
   38.4280   22.8950   32.2660 H   0  0  0  0  0  0  0  0  0  0  0  0
   39.6550   23.8310   33.1880 H   0  0  0  0  0  0  0  0  0  0  0  0
   38.0360   25.8740   33.2990 C   0  0  0  0  0  3  0  0  0  0  0  0
   37.6550   24.6120   33.1650 C   0  0  0  0  0  3  0  0  0  0  0  0
   35.9530   28.7700   34.3270 C   0  0  0  0  0  0  0  0  0  0  0  0
   36.8880   27.7140   34.3820 C   0  0  0  0  0  0  0  0  0  0  0  0
   37.0920   26.9490   33.2610 C   0  0  0  0  0  0  0  0  0  0  0  0
   36.3980   27.2170   32.1180 N   0  0  0  0  0  0  0  0  0  0  0  0
   35.5080   28.2390   32.1010 C   0  0  0  0  0  0  0  0  0  0  0  0
   35.2820   29.0070   33.1770 N   0  0  0  0  0  0  0  0  0  0  0  0
   35.7260   29.4230   35.1580 H   0  0  0  0  0  0  0  0  0  0  0  0
   37.3950   27.5620   35.3110 H   0  0  0  0  0  0  0  0  0  0  0  0
   35.0030   28.3670   31.1310 H   0  0  0  0  0  0  0  0  0  0  0  0
   38.2450   22.4650   34.6720 S   0  0  0  0  0  0  0  0  0  0  0  0
   37.4560   23.4820   37.1270 C   0  0  2  0  0  3  0  0  0  0  0  0
   38.6020   23.4350   36.1320 C   0  0  1  0  0  3  0  0  0  0  0  0
   39.7050   22.8680   36.9730 C   0  0  0  0  0  3  0  0  0  0  0  0
   39.7050   21.7710   36.7960 H   0  0  0  0  0  0  0  0  0  0  0  0
   39.3940   23.0440   38.3070 O   0  0  0  0  0  0  0  0  0  0  0  0
   38.2560   23.8190   38.3860 C   0  0  0  0  0  3  0  0  0  0  0  0
   38.5640   24.8830   38.2570 H   0  0  0  0  0  0  0  0  0  0  0  0
   36.9080   22.2170   37.3420 O   0  0  0  0  0  0  0  0  0  0  0  0
   37.6400   21.5490   37.3660 H   0  0  0  0  0  0  0  0  0  0  0  0
  1 15  1  0  0  0  0
  2  1  1  0  0  0  0
  3  1  1  0  0  0  0
  5  1  1  0  0  0  0
  5  4  2  0  0  0  0
  6  7  1  0  0  0  0
  6 12  1  0  0  0  0
  7 13  1  0  0  0  0
  8  4  1  0  0  0  0
  8  7  2  0  0  0  0
  9  8  1  0  0  0  0
 10  9  2  0  0  0  0
 10 11  1  0  0  0  0
 11  6  2  0  0  0  0
 14 10  1  0  0  0  0
 16 23  1  1  0  0  0
 16 21  1  0  0  0  0
 17 15  1  6  0  0  0
 17 18  1  0  0  0  0
 17 16  1  0  0  0  0
 18 20  1  0  0  0  0
 19 18  1  0  0  0  0
 20 21  1  0  0  0  0
 22 21  1  0  0  0  0
 23 24  1  0  0  0  0
M  END
>  <minimizedAffinity>
-4.14290619

$$$$

 OpenBabel03272502303D

 24 25  0  0  1  0  0  0  0  0999 V2000
   35.8820   28.8550   34.1360 C   0  0  0  0  0  0  0  0  0  0  0  0
   36.9800   28.7650   34.2830 H   0  0  0  0  0  0  0  0  0  0  0  0
   35.3830   28.1070   34.7790 H   0  0  0  0  0  0  0  0  0  0  0  0
   36.0100   30.7960   35.6640 C   0  0  0  0  0  3  0  0  0  0  0  0
   35.5300   30.2390   34.5620 C   0  0  0  0  0  3  0  0  0  0  0  0
   35.8680   34.5040   35.8030 C   0  0  0  0  0  0  0  0  0  0  0  0
   36.2320   33.1970   35.4130 C   0  0  0  0  0  0  0  0  0  0  0  0
   35.6520   32.1280   36.0470 C   0  0  0  0  0  0  0  0  0  0  0  0
   34.7370   32.3380   37.0370 N   0  0  0  0  0  0  0  0  0  0  0  0
   34.4100   33.6060   37.3860 C   0  0  0  0  0  0  0  0  0  0  0  0
   34.9570   34.6750   36.7880 N   0  0  0  0  0  0  0  0  0  0  0  0
   36.2720   35.4030   35.3610 H   0  0  0  0  0  0  0  0  0  0  0  0
   36.9550   33.1080   34.6300 H   0  0  0  0  0  0  0  0  0  0  0  0
   33.6640   33.6620   38.1940 H   0  0  0  0  0  0  0  0  0  0  0  0
   35.4350   28.6670   32.3830 S   0  0  0  0  0  0  0  0  0  0  0  0
   37.3560   28.3360   30.4120 C   0  0  2  0  0  3  0  0  0  0  0  0
   36.7550   29.3400   31.3800 C   0  0  1  0  0  3  0  0  0  0  0  0
   36.3060   30.4220   30.4460 C   0  0  0  0  0  3  0  0  0  0  0  0
   35.2360   30.2230   30.2230 H   0  0  0  0  0  0  0  0  0  0  0  0
   36.9800   30.2960   29.2480 O   0  0  0  0  0  0  0  0  0  0  0  0
   37.9400   29.3160   29.3940 C   0  0  0  0  0  3  0  0  0  0  0  0
   38.8160   29.7780   29.9060 H   0  0  0  0  0  0  0  0  0  0  0  0
   36.3690   27.6160   29.7370 O   0  0  0  0  0  0  0  0  0  0  0  0
   35.6220   28.2270   29.5140 H   0  0  0  0  0  0  0  0  0  0  0  0
  1  2  1  0  0  0  0
  1  5  1  0  0  0  0
  1  3  1  0  0  0  0
  4  8  1  0  0  0  0
  5  4  2  0  0  0  0
  6 11  1  0  0  0  0
  7  6  2  0  0  0  0
  7  8  1  0  0  0  0
  8  9  2  0  0  0  0
  9 10  1  0  0  0  0
 10 14  1  0  0  0  0
 11 10  2  0  0  0  0
 12  6  1  0  0  0  0
 13  7  1  0  0  0  0
 15  1  1  0  0  0  0
 16 23  1  6  0  0  0
 16 17  1  0  0  0  0
 17 15  1  6  0  0  0
 18 17  1  0  0  0  0
 19 18  1  0  0  0  0
 20 21  1  0  0  0  0
 20 18  1  0  0  0  0
 21 22  1  0  0  0  0
 21 16  1  0  0  0  0
 24 23  1  0  0  0  0
M  END
>  <minimizedAffinity>
-4.09162474

$$$$

 OpenBabel03272502303D

 24 25  0  0  1  0  0  0  0  0999 V2000
   36.0000   25.7330   31.4900 C   0  0  0  0  0  0  0  0  0  0  0  0
   35.9560   26.0210   30.4170 H   0  0  0  0  0  0  0  0  0  0  0  0
   35.2450   26.3240   32.0400 H   0  0  0  0  0  0  0  0  0  0  0  0
   36.5700   23.3320   31.3250 C   0  0  0  0  0  3  0  0  0  0  0  0
   35.6690   24.2810   31.5320 C   0  0  0  0  0  3  0  0  0  0  0  0
   34.8040   20.1690   32.1420 C   0  0  0  0  0  0  0  0  0  0  0  0
   35.1350   21.5410   32.1080 C   0  0  0  0  0  0  0  0  0  0  0  0
   36.2190   21.9440   31.3710 C   0  0  0  0  0  0  0  0  0  0  0  0
   36.9580   21.0240   30.6860 N   0  0  0  0  0  0  0  0  0  0  0  0
   36.6110   19.7150   30.7410 C   0  0  0  0  0  0  0  0  0  0  0  0
   35.5580   19.2840   31.4510 N   0  0  0  0  0  0  0  0  0  0  0  0
   33.9700   19.7600   32.6950 H   0  0  0  0  0  0  0  0  0  0  0  0
   34.5130   22.2050   32.6690 H   0  0  0  0  0  0  0  0  0  0  0  0
   37.2730   19.0600   30.1540 H   0  0  0  0  0  0  0  0  0  0  0  0
   37.6760   25.9560   32.1620 S   0  0  0  0  0  0  0  0  0  0  0  0
   38.9040   26.2940   34.6240 C   0  0  2  0  0  3  0  0  0  0  0  0
   37.5570   26.1960   33.9310 C   0  0  1  0  0  3  0  0  0  0  0  0
   36.9260   27.4990   34.3180 C   0  0  0  0  0  3  0  0  0  0  0  0
   37.1320   28.2080   33.4880 H   0  0  0  0  0  0  0  0  0  0  0  0
   37.5740   28.0040   35.4280 O   0  0  0  0  0  0  0  0  0  0  0  0
   38.4660   27.0530   35.8780 C   0  0  0  0  0  3  0  0  0  0  0  0
   37.8900   26.3110   36.4790 H   0  0  0  0  0  0  0  0  0  0  0  0
   39.7740   27.1440   33.9400 O   0  0  0  0  0  0  0  0  0  0  0  0
   39.2640   27.9220   33.6020 H   0  0  0  0  0  0  0  0  0  0  0  0
  1  5  1  0  0  0  0
  1  3  1  0  0  0  0
  1 15  1  0  0  0  0
  2  1  1  0  0  0  0
  4  8  1  0  0  0  0
  4  5  2  0  0  0  0
  6 12  1  0  0  0  0
  7  6  1  0  0  0  0
  7 13  1  0  0  0  0
  8  7  2  0  0  0  0
  9 10  2  0  0  0  0
  9  8  1  0  0  0  0
 10 11  1  0  0  0  0
 11  6  2  0  0  0  0
 14 10  1  0  0  0  0
 16 23  1  6  0  0  0
 16 21  1  0  0  0  0
 17 15  1  6  0  0  0
 17 18  1  0  0  0  0
 17 16  1  0  0  0  0
 18 20  1  0  0  0  0
 19 18  1  0  0  0  0
 20 21  1  0  0  0  0
 21 22  1  0  0  0  0
 24 23  1  0  0  0  0
M  END
>  <minimizedAffinity>
-3.99647784

$$$$

 OpenBabel03272502303D

 24 25  0  0  1  0  0  0  0  0999 V2000
   40.6290   27.2200   33.6220 C   0  0  0  0  0  0  0  0  0  0  0  0
   40.3450   28.2740   33.8360 H   0  0  0  0  0  0  0  0  0  0  0  0
   41.7220   27.1800   33.4640 H   0  0  0  0  0  0  0  0  0  0  0  0
   39.6670   25.2510   34.7680 C   0  0  0  0  0  3  0  0  0  0  0  0
   40.2400   26.4440   34.8330 C   0  0  0  0  0  3  0  0  0  0  0  0
   37.8460   24.1810   37.8220 C   0  0  0  0  0  0  0  0  0  0  0  0
   38.1890   24.9030   36.6590 C   0  0  0  0  0  0  0  0  0  0  0  0
   39.3030   24.5300   35.9510 C   0  0  0  0  0  0  0  0  0  0  0  0
   40.0590   23.4760   36.3750 N   0  0  0  0  0  0  0  0  0  0  0  0
   39.7000   22.8060   37.4970 C   0  0  0  0  0  0  0  0  0  0  0  0
   38.6180   23.1420   38.2140 N   0  0  0  0  0  0  0  0  0  0  0  0
   36.9880   24.4030   38.4420 H   0  0  0  0  0  0  0  0  0  0  0  0
   37.5520   25.7170   36.3860 H   0  0  0  0  0  0  0  0  0  0  0  0
   40.3770   21.9750   37.7490 H   0  0  0  0  0  0  0  0  0  0  0  0
   39.7000   26.5650   32.2010 S   0  0  0  0  0  0  0  0  0  0  0  0
   37.6460   27.3890   30.5330 C   0  0  2  0  0  3  0  0  0  0  0  0
   38.3220   27.6550   31.8650 C   0  0  1  0  0  3  0  0  0  0  0  0
   37.1790   27.4870   32.8200 C   0  0  0  0  0  3  0  0  0  0  0  0
   37.2210   26.4380   33.1800 H   0  0  0  0  0  0  0  0  0  0  0  0
   35.9910   27.6130   32.1290 O   0  0  0  0  0  0  0  0  0  0  0  0
   36.2790   28.0040   30.8380 C   0  0  0  0  0  3  0  0  0  0  0  0
   36.4550   29.1050   30.8530 H   0  0  0  0  0  0  0  0  0  0  0  0
   37.4210   26.0250   30.3330 O   0  0  0  0  0  0  0  0  0  0  0  0
   37.1430   25.6160   31.1910 H   0  0  0  0  0  0  0  0  0  0  0  0
  1  2  1  0  0  0  0
  1  5  1  0  0  0  0
  3  1  1  0  0  0  0
  4  5  2  0  0  0  0
  4  8  1  0  0  0  0
  6 11  1  0  0  0  0
  6 12  1  0  0  0  0
  7  6  2  0  0  0  0
  8  9  2  0  0  0  0
  8  7  1  0  0  0  0
  9 10  1  0  0  0  0
 10 14  1  0  0  0  0
 10 11  2  0  0  0  0
 13  7  1  0  0  0  0
 15  1  1  0  0  0  0
 16 23  1  1  0  0  0
 16 21  1  0  0  0  0
 16 17  1  0  0  0  0
 17 15  1  1  0  0  0
 17 18  1  0  0  0  0
 18 19  1  0  0  0  0
 20 18  1  0  0  0  0
 21 22  1  0  0  0  0
 21 20  1  0  0  0  0
 23 24  1  0  0  0  0
M  END
>  <minimizedAffinity>
-3.99324298

$$$$

 OpenBabel03272502303D

 24 25  0  0  1  0  0  0  0  0999 V2000
   37.9210   25.6740   35.6780 C   0  0  0  0  0  0  0  0  0  0  0  0
   38.6330   26.3960   36.1350 H   0  0  0  0  0  0  0  0  0  0  0  0
   37.2530   25.2940   36.4730 H   0  0  0  0  0  0  0  0  0  0  0  0
   37.0520   27.7730   34.6990 C   0  0  0  0  0  3  0  0  0  0  0  0
   37.1510   26.4520   34.6660 C   0  0  0  0  0  3  0  0  0  0  0  0
   34.4640   29.9020   33.1000 C   0  0  0  0  0  0  0  0  0  0  0  0
   35.1900   29.1990   34.0850 C   0  0  0  0  0  0  0  0  0  0  0  0
   36.3040   28.4920   33.7120 C   0  0  0  0  0  0  0  0  0  0  0  0
   36.6950   28.4760   32.4050 N   0  0  0  0  0  0  0  0  0  0  0  0
   35.9740   29.1620   31.4850 C   0  0  0  0  0  0  0  0  0  0  0  0
   34.8790   29.8640   31.8130 N   0  0  0  0  0  0  0  0  0  0  0  0
   33.5760   30.4840   33.3010 H   0  0  0  0  0  0  0  0  0  0  0  0
   34.8260   29.2550   35.0890 H   0  0  0  0  0  0  0  0  0  0  0  0
   36.3750   29.0820   30.4630 H   0  0  0  0  0  0  0  0  0  0  0  0
   38.8030   24.3350   34.8180 S   0  0  0  0  0  0  0  0  0  0  0  0
   39.5270   22.9900   37.1310 C   0  0  2  0  0  3  0  0  0  0  0  0
   40.0730   23.6960   35.9030 C   0  0  1  0  0  3  0  0  0  0  0  0
   40.9040   22.6140   35.2820 C   0  0  0  0  0  3  0  0  0  0  0  0
   40.2610   22.1190   34.5240 H   0  0  0  0  0  0  0  0  0  0  0  0
   41.1870   21.6570   36.2350 O   0  0  0  0  0  0  0  0  0  0  0  0
   40.7390   22.1160   37.4560 C   0  0  0  0  0  3  0  0  0  0  0  0
   41.5060   22.8220   37.8520 H   0  0  0  0  0  0  0  0  0  0  0  0
   38.4920   22.1120   36.8030 O   0  0  0  0  0  0  0  0  0  0  0  0
   38.7140   21.6580   35.9510 H   0  0  0  0  0  0  0  0  0  0  0  0
  1  2  1  0  0  0  0
  1  3  1  0  0  0  0
  5  4  2  0  0  0  0
  5  1  1  0  0  0  0
  6 12  1  0  0  0  0
  6  7  1  0  0  0  0
  7 13  1  0  0  0  0
  8  7  2  0  0  0  0
  8  4  1  0  0  0  0
  9  8  1  0  0  0  0
 10 11  1  0  0  0  0
 10  9  2  0  0  0  0
 11  6  2  0  0  0  0
 14 10  1  0  0  0  0
 15  1  1  0  0  0  0
 16 23  1  6  0  0  0
 16 21  1  0  0  0  0
 17 15  1  6  0  0  0
 17 16  1  0  0  0  0
 18 17  1  0  0  0  0
 18 20  1  0  0  0  0
 19 18  1  0  0  0  0
 20 21  1  0  0  0  0
 21 22  1  0  0  0  0
 24 23  1  0  0  0  0
M  END
>  <minimizedAffinity>
-3.95535398

$$$$

 OpenBabel03272502303D

 24 25  0  0  1  0  0  0  0  0999 V2000
   38.5280   22.8010   36.4290 C   0  0  0  0  0  0  0  0  0  0  0  0
   37.9200   22.2610   37.1870 H   0  0  0  0  0  0  0  0  0  0  0  0
   39.5940   22.5760   36.6130 H   0  0  0  0  0  0  0  0  0  0  0  0
   36.9280   21.6620   34.9250 C   0  0  0  0  0  3  0  0  0  0  0  0
   38.0940   22.2640   35.1080 C   0  0  0  0  0  3  0  0  0  0  0  0
   35.1370   19.7700   32.2790 C   0  0  0  0  0  0  0  0  0  0  0  0
   35.5060   20.2590   33.5500 C   0  0  0  0  0  0  0  0  0  0  0  0
   36.5400   21.1560   33.6430 C   0  0  0  0  0  0  0  0  0  0  0  0
   37.1920   21.5620   32.5150 N   0  0  0  0  0  0  0  0  0  0  0  0
   36.8110   21.0720   31.3110 C   0  0  0  0  0  0  0  0  0  0  0  0
   35.8060   20.1940   31.1820 N   0  0  0  0  0  0  0  0  0  0  0  0
   34.3380   19.0620   32.1100 H   0  0  0  0  0  0  0  0  0  0  0  0
   34.9520   19.8970   34.3900 H   0  0  0  0  0  0  0  0  0  0  0  0
   37.4030   21.4650   30.4690 H   0  0  0  0  0  0  0  0  0  0  0  0
   38.1830   24.5870   36.4600 S   0  0  0  0  0  0  0  0  0  0  0  0
   38.7250   26.8430   34.9440 C   0  0  2  0  0  3  0  0  0  0  0  0
   38.9400   25.3420   35.0270 C   0  0  1  0  0  3  0  0  0  0  0  0
   40.4360   25.2540   35.0230 C   0  0  0  0  0  3  0  0  0  0  0  0
   40.7520   25.2050   36.0860 H   0  0  0  0  0  0  0  0  0  0  0  0
   40.9580   26.4280   34.5170 O   0  0  0  0  0  0  0  0  0  0  0  0
   39.9140   27.2000   34.0510 C   0  0  0  0  0  3  0  0  0  0  0  0
   39.6400   26.8170   33.0390 H   0  0  0  0  0  0  0  0  0  0  0  0
   38.9630   27.4650   36.1710 O   0  0  0  0  0  0  0  0  0  0  0  0
   39.7440   27.0370   36.6040 H   0  0  0  0  0  0  0  0  0  0  0  0
  1 15  1  0  0  0  0
  1  3  1  0  0  0  0
  1  2  1  0  0  0  0
  4  5  2  0  0  0  0
  5  1  1  0  0  0  0
  6  7  1  0  0  0  0
  7  8  2  0  0  0  0
  7 13  1  0  0  0  0
  8  4  1  0  0  0  0
  9  8  1  0  0  0  0
 10  9  2  0  0  0  0
 11 10  1  0  0  0  0
 11  6  2  0  0  0  0
 12  6  1  0  0  0  0
 14 10  1  0  0  0  0
 16 17  1  0  0  0  0
 16 23  1  1  0  0  0
 17 15  1  1  0  0  0
 18 17  1  0  0  0  0
 18 19  1  0  0  0  0
 20 18  1  0  0  0  0
 21 20  1  0  0  0  0
 21 16  1  0  0  0  0
 22 21  1  0  0  0  0
 23 24  1  0  0  0  0
M  END
>  <minimizedAffinity>
-3.94771194

$$$$

 OpenBabel03272502303D

 24 25  0  0  1  0  0  0  0  0999 V2000
   36.2770   25.8140   31.6440 C   0  0  0  0  0  0  0  0  0  0  0  0
   36.0660   26.3320   30.6820 H   0  0  0  0  0  0  0  0  0  0  0  0
   35.6350   26.2570   32.4260 H   0  0  0  0  0  0  0  0  0  0  0  0
   36.5340   23.3860   32.0410 C   0  0  0  0  0  3  0  0  0  0  0  0
   35.9250   24.3840   31.4170 C   0  0  0  0  0  3  0  0  0  0  0  0
   36.5850   19.9020   30.7570 C   0  0  0  0  0  0  0  0  0  0  0  0
   36.9560   21.2450   30.9840 C   0  0  0  0  0  0  0  0  0  0  0  0
   36.1740   22.0220   31.8000 C   0  0  0  0  0  0  0  0  0  0  0  0
   35.0580   21.4910   32.3800 N   0  0  0  0  0  0  0  0  0  0  0  0
   34.7320   20.1980   32.1400 C   0  0  0  0  0  0  0  0  0  0  0  0
   35.4730   19.4090   31.3470 N   0  0  0  0  0  0  0  0  0  0  0  0
   37.1390   19.2180   30.1300 H   0  0  0  0  0  0  0  0  0  0  0  0
   37.8420   21.5930   30.4970 H   0  0  0  0  0  0  0  0  0  0  0  0
   33.8150   19.8720   32.6550 H   0  0  0  0  0  0  0  0  0  0  0  0
   38.0440   25.9070   32.0660 S   0  0  0  0  0  0  0  0  0  0  0  0
   37.5490   26.3980   34.7480 C   0  0  2  0  0  3  0  0  0  0  0  0
   38.2350   26.9460   33.5090 C   0  0  1  0  0  3  0  0  0  0  0  0
   39.6530   27.0630   33.9800 C   0  0  0  0  0  3  0  0  0  0  0  0
   40.1670   26.1300   33.6680 H   0  0  0  0  0  0  0  0  0  0  0  0
   39.6720   27.0730   35.3610 O   0  0  0  0  0  0  0  0  0  0  0  0
   38.3700   27.1300   35.8110 C   0  0  0  0  0  3  0  0  0  0  0  0
   38.0400   28.1930   35.7500 H   0  0  0  0  0  0  0  0  0  0  0  0
   37.8110   25.0380   34.9240 O   0  0  0  0  0  0  0  0  0  0  0  0
   38.7550   24.8590   34.6840 H   0  0  0  0  0  0  0  0  0  0  0  0
  1 15  1  0  0  0  0
  1  3  1  0  0  0  0
  2  1  1  0  0  0  0
  5  1  1  0  0  0  0
  5  4  2  0  0  0  0
  6  7  2  0  0  0  0
  6 11  1  0  0  0  0
  7  8  1  0  0  0  0
  8  4  1  0  0  0  0
  8  9  2  0  0  0  0
 10  9  1  0  0  0  0
 10 14  1  0  0  0  0
 11 10  2  0  0  0  0
 12  6  1  0  0  0  0
 13  7  1  0  0  0  0
 16 23  1  1  0  0  0
 16 21  1  0  0  0  0
 17 15  1  6  0  0  0
 17 18  1  0  0  0  0
 17 16  1  0  0  0  0
 18 20  1  0  0  0  0
 19 18  1  0  0  0  0
 20 21  1  0  0  0  0
 22 21  1  0  0  0  0
 24 23  1  0  0  0  0
M  END
>  <minimizedAffinity>
-3.91346788

$$$$
