
 OpenBabel03272507523D

 32 34  0  0  1  0  0  0  0  0999 V2000
   36.6920   31.3590   48.7600 N   0  0  0  0  0  0  0  0  0  0  0  0
   36.7740   32.3070   49.6920 C   0  0  0  0  0  0  0  0  0  0  0  0
   37.8400   33.2140   49.6420 C   0  0  0  0  0  0  0  0  0  0  0  0
   38.7130   33.0280   48.6130 C   0  0  0  0  0  0  0  0  0  0  0  0
   39.6580   33.8780   48.6210 O   0  0  0  0  0  0  0  0  0  0  0  0
   38.6690   32.0920   47.6570 N   0  0  0  0  0  0  0  0  0  0  0  0
   37.6160   31.2410   47.7550 C   0  0  0  0  0  0  0  0  0  0  0  0
   37.5480   30.3430   46.8620 O   0  0  0  0  0  0  0  0  0  0  0  0
   36.0290   32.3610   50.4590 H   0  0  0  0  0  0  0  0  0  0  0  0
   37.9050   33.9720   50.3880 H   0  0  0  0  0  0  0  0  0  0  0  0
   35.4280   29.6320   49.9170 C   0  0  0  0  0  0  0  0  0  0  0  0
   35.6420   30.3830   48.7410 C   0  0  0  0  0  0  0  0  0  0  0  0
   34.8260   30.1340   47.6300 C   0  0  0  0  0  0  0  0  0  0  0  0
   33.8690   29.1820   47.7420 N   0  0  0  0  0  0  0  0  0  0  0  0
   33.6730   28.4800   48.8470 C   0  0  0  0  0  0  0  0  0  0  0  0
   34.4450   28.7040   49.9240 N   0  0  0  0  0  0  0  0  0  0  0  0
   35.0060   30.7200   46.7400 H   0  0  0  0  0  0  0  0  0  0  0  0
   32.9150   27.7140   48.9610 H   0  0  0  0  0  0  0  0  0  0  0  0
   37.4430   29.2700   51.5350 C   0  0  0  0  0  0  0  0  0  0  0  0
   38.1180   28.5060   50.8090 O   0  0  0  0  0  0  0  0  0  0  0  0
   36.1820   29.8070   51.0980 N   0  0  0  0  0  0  0  0  0  0  0  0
   37.8670   29.4950   52.5000 H   0  0  0  0  0  0  0  0  0  0  0  0
   35.7860   30.4540   51.8430 H   0  0  0  0  0  0  0  0  0  0  0  0
   39.1390   31.2500   45.3800 C   0  0  1  0  0  3  0  0  0  0  0  0
   39.6420   31.9810   46.6100 C   0  0  1  0  0  3  0  0  0  0  0  0
   40.0590   33.2880   46.0210 C   0  0  0  0  0  3  0  0  0  0  0  0
   40.9000   33.7750   46.5840 H   0  0  0  0  0  0  0  0  0  0  0  0
   40.6780   32.8840   44.8150 O   0  0  0  0  0  0  0  0  0  0  0  0
   39.7170   32.0640   44.2180 C   0  0  0  0  0  3  0  0  0  0  0  0
   38.9240   32.6680   43.7040 H   0  0  0  0  0  0  0  0  0  0  0  0
   39.7220   29.9850   45.3180 O   0  0  0  0  0  0  0  0  0  0  0  0
   40.5620   29.9650   45.8410 H   0  0  0  0  0  0  0  0  0  0  0  0
  1  2  1  0  0  0  0
  2  9  1  0  0  0  0
  3  2  2  0  0  0  0
  3 10  1  0  0  0  0
  4  5  2  0  0  0  0
  4  3  1  0  0  0  0
  6  7  1  0  0  0  0
  6  4  1  0  0  0  0
  7  1  1  0  0  0  0
  8  7  2  0  0  0  0
 11 16  1  0  0  0  0
 11 21  1  0  0  0  0
 12  1  1  0  0  0  0
 12 11  2  0  0  0  0
 13 14  2  0  0  0  0
 13 12  1  0  0  0  0
 14 15  1  0  0  0  0
 15 18  1  0  0  0  0
 15 16  2  0  0  0  0
 17 13  1  0  0  0  0
 19 22  1  0  0  0  0
 20 19  2  0  0  0  0
 21 19  1  0  0  0  0
 21 23  1  0  0  0  0
 24 31  1  1  0  0  0
 24 25  1  0  0  0  0
 25  6  1  1  0  0  0
 26 27  1  0  0  0  0
 26 25  1  0  0  0  0
 28 26  1  0  0  0  0
 29 28  1  0  0  0  0
 29 24  1  0  0  0  0
 30 29  1  0  0  0  0
 31 32  1  0  0  0  0
M  END
>  <minimizedAffinity>
-6.20450735

>  <minimizedRMSD>
0.849116206

$$$$
