
 OpenBabel03272504403D

 45 47  0  0  1  0  0  0  0  0999 V2000
   34.7810   29.3890   48.8220 C   0  0  0  0  0  0  0  0  0  0  0  0
   35.6890   29.4190   49.4930 H   0  0  0  0  0  0  0  0  0  0  0  0
   34.1470   30.2210   49.2500 H   0  0  0  0  0  0  0  0  0  0  0  0
   37.5380   30.4550   48.5330 Cl  0  0  0  0  0  0  0  0  0  0  0  0
   36.3980   30.2930   47.2050 C   0  0  0  0  0  0  0  0  0  0  0  0
   36.7790   30.6780   45.9560 C   0  0  0  0  0  0  0  0  0  0  0  0
   35.8980   30.5580   44.9030 C   0  0  0  0  0  0  0  0  0  0  0  0
   34.6330   30.0450   45.1470 C   0  0  0  0  0  0  0  0  0  0  0  0
   34.3090   29.6680   46.4600 C   0  0  0  0  0  0  0  0  0  0  0  0
   35.1580   29.7790   47.4970 C   0  0  0  0  0  0  0  0  0  0  0  0
   36.2220   30.8740   43.9030 H   0  0  0  0  0  0  0  0  0  0  0  0
   34.0090   29.9860   44.2700 H   0  0  0  0  0  0  0  0  0  0  0  0
   33.3470   29.3140   46.4620 H   0  0  0  0  0  0  0  0  0  0  0  0
   39.7710   32.8370   46.0150 C   0  0  0  0  0  0  0  0  0  0  0  0
   40.6380   32.1020   45.1290 C   0  0  0  0  0  0  0  0  0  0  0  0
   40.1550   30.9100   44.5590 C   0  0  0  0  0  0  0  0  0  0  0  0
   38.8980   30.5050   44.8680 N   0  0  0  0  0  0  0  0  0  0  0  0
   38.1040   31.2160   45.7040 C   0  0  0  0  0  0  0  0  0  0  0  0
   38.5440   32.3580   46.2600 N   0  0  0  0  0  0  0  0  0  0  0  0
   40.1460   33.7450   46.4450 H   0  0  0  0  0  0  0  0  0  0  0  0
   41.6080   32.5350   44.9700 H   0  0  0  0  0  0  0  0  0  0  0  0
   41.0310   30.2310   43.7060 N   0  0  0  0  0  0  0  0  0  0  0  0
   41.9760   29.8470   43.8260 H   0  0  0  0  0  0  0  0  0  0  0  0
   40.8070   29.9960   42.6980 H   0  0  0  0  0  0  0  0  0  0  0  0
   34.1180   28.1100   49.0520 C   0  0  0  0  0  0  0  0  0  0  0  0
   34.2370   27.4740   48.1280 H   0  0  0  0  0  0  0  0  0  0  0  0
   34.5600   27.5040   49.8710 H   0  0  0  0  0  0  0  0  0  0  0  0
   32.7830   28.2850   49.3380 O   0  0  0  0  0  0  0  0  0  0  0  0
   32.6880   26.5200   47.4040 O   0  0  0  0  0  0  0  0  0  0  0  0
   31.8270   27.4290   48.2680 P   0  0  2  0  0  0  0  0  0  0  0  0
   31.0180   28.5850   47.3010 O   0  0  0  0  0  0  0  0  0  0  0  0
   29.5720   27.6020   45.5700 C   0  0  2  0  0  3  0  0  0  0  0  0
   30.8290   28.2770   46.0120 C   0  0  1  0  0  3  0  0  0  0  0  0
   30.7880   29.5120   45.1000 C   0  0  0  0  0  3  0  0  0  0  0  0
   31.7970   29.7690   44.7160 H   0  0  0  0  0  0  0  0  0  0  0  0
   29.9780   29.2100   44.0360 O   0  0  0  0  0  0  0  0  0  0  0  0
   29.6300   27.8870   44.0580 C   0  0  0  0  0  3  0  0  0  0  0  0
   28.6130   27.7580   43.6190 H   0  0  0  0  0  0  0  0  0  0  0  0
   28.4020   28.1400   46.0240 O   0  0  0  0  0  0  0  0  0  0  0  0
   27.7180   27.4310   46.1190 H   0  0  0  0  0  0  0  0  0  0  0  0
   30.6780   26.5230   49.0420 O   0  0  0  0  0  0  0  0  0  0  0  0
   29.8350   27.3290   49.7840 C   0  0  0  0  0  0  0  0  0  0  0  0
   29.3070   26.6500   50.8850 F   0  0  0  0  0  0  0  0  0  0  0  0
   30.5050   28.4270   50.2890 F   0  0  0  0  0  0  0  0  0  0  0  0
   28.7880   27.7630   49.0170 F   0  0  0  0  0  0  0  0  0  0  0  0
  1 25  1  0  0  0  0
  1  3  1  0  0  0  0
  1  2  1  0  0  0  0
  5 10  1  0  0  0  0
  5  4  1  0  0  0  0
  6  5  2  0  0  0  0
  7  8  2  0  0  0  0
  7  6  1  0  0  0  0
  8  9  1  0  0  0  0
  9 13  1  0  0  0  0
  9 10  2  0  0  0  0
 10  1  1  0  0  0  0
 11  7  1  0  0  0  0
 12  8  1  0  0  0  0
 14 19  1  0  0  0  0
 14 20  1  0  0  0  0
 15 14  2  0  0  0  0
 16 17  2  0  0  0  0
 16 15  1  0  0  0  0
 17 18  1  0  0  0  0
 18  6  1  0  0  0  0
 18 19  2  0  0  0  0
 21 15  1  0  0  0  0
 22 23  1  0  0  0  0
 22 16  1  0  0  0  0
 24 22  1  0  0  0  0
 25 28  1  0  0  0  0
 25 27  1  0  0  0  0
 26 25  1  0  0  0  0
 30 29  2  6  0  0  0
 30 41  1  0  0  0  0
 30 28  1  0  0  0  0
 31 30  1  0  0  0  0
 32 33  1  0  0  0  0
 32 39  1  1  0  0  0
 33 31  1  1  0  0  0
 34 33  1  0  0  0  0
 35 34  1  0  0  0  0
 36 37  1  0  0  0  0
 36 34  1  0  0  0  0
 37 32  1  0  0  0  0
 38 37  1  0  0  0  0
 39 40  1  0  0  0  0
 41 42  1  0  0  0  0
 42 44  1  0  0  0  0
 42 43  1  0  0  0  0
 45 42  1  0  0  0  0
M  END
>  <minimizedAffinity>
-5.72472429

>  <minimizedRMSD>
1.00303805

$$$$
