REMARK  Name = 
REMARK  11 active torsions:
REMARK  status: ('A' for Active; 'I' for Inactive)
REMARK    1  A    between atoms: C_3  and  C_12
REMARK    2  A    between atoms: C_7  and  C_15
REMARK    3  A    between atoms: C_10  and  N_14
REMARK    4  A    between atoms: C_15  and  C_16
REMARK    5  A    between atoms: C_16  and  O_17
REMARK    6  A    between atoms: O_17  and  P_19
REMARK    7  A    between atoms: P_19  and  O_20
REMARK    8  A    between atoms: P_19  and  O_21
REMARK    9  A    between atoms: O_20  and  C_39
REMARK   10  A    between atoms: O_21  and  C_22
REMARK   11  A    between atoms: O_37  and  C_38
REMARK                            x       y       z     vdW  Elec       q    Type
REMARK                         _______ _______ _______ _____ _____    ______ ____
ROOT
ATOM      1  C   UNL     1      34.838  29.400  48.826  0.00  0.00    +0.000 C 
ATOM      2  H   UNL     1      35.752  29.417  49.489  0.00  0.00    +0.000 HD
ATOM      3  H   UNL     1      34.214  30.232  49.268  0.00  0.00    +0.000 HD
ENDROOT
BRANCH   1  10
ATOM      4 CL   UNL     1      37.602  30.445  48.522  0.00  0.00    +0.000 Cl
ATOM      5  C   UNL     1      36.448  30.307  47.203  0.00  0.00    +0.000 A 
ATOM      6  C   UNL     1      36.821  30.702  45.955  0.00  0.00    +0.000 A 
ATOM      7  C   UNL     1      35.930  30.602  44.909  0.00  0.00    +0.000 A 
ATOM      8  C   UNL     1      34.662  30.097  45.159  0.00  0.00    +0.000 A 
ATOM      9  C   UNL     1      34.347  29.709  46.471  0.00  0.00    +0.000 A 
ATOM     10  C   UNL     1      35.207  29.801  47.501  0.00  0.00    +0.000 A 
ATOM     11  H   UNL     1      36.247  30.926  43.910  0.00  0.00    +0.000 HD
ATOM     12  H   UNL     1      34.030  30.053  44.288  0.00  0.00    +0.000 HD
ATOM     13  H   UNL     1      33.382  29.363  46.478  0.00  0.00    +0.000 HD
BRANCH   6  18
ATOM     14  C   UNL     1      39.830  32.838  46.004  0.00  0.00    +0.000 A 
ATOM     15  C   UNL     1      40.685  32.101  45.109  0.00  0.00    +0.000 A 
ATOM     16  C   UNL     1      40.189  30.915  44.536  0.00  0.00    +0.000 A 
ATOM     17  N   UNL     1      38.931  30.518  44.852  0.00  0.00    +0.000 NA
ATOM     18  C   UNL     1      38.149  31.231  45.697  0.00  0.00    +0.000 A 
ATOM     19  N   UNL     1      38.601  32.367  46.255  0.00  0.00    +0.000 NA
ATOM     20  H   UNL     1      40.215  33.741  46.436  0.00  0.00    +0.000 HD
ATOM     21  H   UNL     1      41.658  32.527  44.945  0.00  0.00    +0.000 HD
BRANCH  16  22
ATOM     22  N   UNL     1      41.054  30.234  43.674  0.00  0.00    +0.000 N 
ATOM     23  H   UNL     1      41.997  29.842  43.786  0.00  0.00    +0.000 HD
ATOM     24  H   UNL     1      40.822  30.005  42.666  0.00  0.00    +0.000 HD
ENDBRANCH  16  22
ENDBRANCH   6  18
ENDBRANCH   1  10
BRANCH   1  25
ATOM     25  C   UNL     1      34.168  28.123  49.048  0.00  0.00    +0.000 C 
ATOM     26  H   UNL     1      34.256  27.504  48.109  0.00  0.00    +0.000 HD
ATOM     27  H   UNL     1      34.625  27.497  49.843  0.00  0.00    +0.000 HD
BRANCH  25  28
ATOM     28  O   UNL     1      32.843  28.306  49.373  0.00  0.00    +0.000 OA
BRANCH  28  30
ATOM     29  O   UNL     1      32.675  26.671  47.332  0.00  0.00    +0.000 OA
ATOM     30  P   UNL     1      31.849  27.533  48.275  0.00  0.00    +0.000 P 
BRANCH  30  31
ATOM     31  O   UNL     1      31.032  28.759  47.405  0.00  0.00    +0.000 OA
BRANCH  31  33
ATOM     32  C   UNL     1      30.467  26.982  45.802  0.00  0.00    +0.000 C 
ATOM     33  C   UNL     1      30.455  28.406  46.250  0.00  0.00    +0.000 C 
ATOM     34  C   UNL     1      28.941  28.664  46.233  0.00  0.00    +0.000 C 
ATOM     35  H   UNL     1      28.704  29.677  45.846  0.00  0.00    +0.000 HD
ATOM     36  O   UNL     1      28.375  27.733  45.401  0.00  0.00    +0.000 OA
ATOM     37  C   UNL     1      29.345  27.020  44.749  0.00  0.00    +0.000 C 
ATOM     38  H   UNL     1      28.983  25.983  44.556  0.00  0.00    +0.000 HD
BRANCH  32  39
ATOM     39  O   UNL     1      30.101  26.049  46.729  0.00  0.00    +0.000 OA
ATOM     40  H   UNL     1      30.575  25.197  46.558  0.00  0.00    +0.000 HD
ENDBRANCH  32  39
ENDBRANCH  31  33
ENDBRANCH  30  31
BRANCH  30  41
ATOM     41  O   UNL     1      30.707  26.593  49.018  0.00  0.00    +0.000 OA
BRANCH  41  42
ATOM     42  C   UNL     1      29.845  27.370  49.770  0.00  0.00    +0.000 C 
ATOM     43  F   UNL     1      29.322  26.661  50.854  0.00  0.00    +0.000 F 
ATOM     44  F   UNL     1      30.493  28.470  50.300  0.00  0.00    +0.000 F 
ATOM     45  F   UNL     1      28.796  27.801  49.004  0.00  0.00    +0.000 F 
ENDBRANCH  41  42
ENDBRANCH  30  41
ENDBRANCH  28  30
ENDBRANCH  25  28
ENDBRANCH   1  25
TORSDOF 11
