REMARK  Name = 
REMARK  4 active torsions:
REMARK  status: ('A' for Active; 'I' for Inactive)
REMARK    1  A    between atoms: C_1  and  N_9
REMARK    2  A    between atoms: C_2  and  N_10
REMARK    3  A    between atoms: N_15  and  C_26
REMARK    4  A    between atoms: O_24  and  C_25
REMARK                            x       y       z     vdW  Elec       q    Type
REMARK                         _______ _______ _______ _____ _____    ______ ____
ROOT
ATOM      1  N   UNL     1      36.709  31.337  48.964  0.00  0.00    +0.000 N 
ATOM      2  C   UNL     1      36.545  32.338  49.828  0.00  0.00    +0.000 A 
ATOM      3  C   UNL     1      37.542  33.316  49.926  0.00  0.00    +0.000 A 
ATOM      4  C   UNL     1      38.613  33.139  49.103  0.00  0.00    +0.000 A 
ATOM      5  O   UNL     1      39.484  34.055  49.239  0.00  0.00    +0.000 OA
ATOM      6  N   UNL     1      38.818  32.152  48.223  0.00  0.00    +0.000 N 
ATOM      7  C   UNL     1      37.821  31.233  48.170  0.00  0.00    +0.000 A 
ATOM      8  O   UNL     1      37.988  30.285  47.344  0.00  0.00    +0.000 OA
ATOM      9  H   UNL     1      35.660  32.379  50.428  0.00  0.00    +0.000 HD
ATOM     10  H   UNL     1      37.410  34.116  50.618  0.00  0.00    +0.000 HD
ENDROOT
BRANCH   1  12
ATOM     11  C   UNL     1      35.645  29.333  49.841  0.00  0.00    +0.000 A 
ATOM     12  C   UNL     1      35.745  30.287  48.805  0.00  0.00    +0.000 A 
ATOM     13  C   UNL     1      34.908  30.156  47.690  0.00  0.00    +0.000 A 
ATOM     14  N   UNL     1      34.041  29.117  47.662  0.00  0.00    +0.000 NA
ATOM     15  C   UNL     1      33.951  28.224  48.635  0.00  0.00    +0.000 A 
ATOM     16  N   UNL     1      34.745  28.332  49.714  0.00  0.00    +0.000 NA
ATOM     17  H   UNL     1      35.001  30.898  46.909  0.00  0.00    +0.000 HD
ATOM     18  H   UNL     1      33.266  27.384  48.636  0.00  0.00    +0.000 HD
BRANCH  11  21
ATOM     19  C   UNL     1      37.647  30.064  51.345  0.00  0.00    +0.000 C 
ATOM     20  O   UNL     1      38.210  30.830  50.531  0.00  0.00    +0.000 OA
ATOM     21  N   UNL     1      36.429  29.374  51.014  0.00  0.00    +0.000 N 
ATOM     22  H   UNL     1      38.133  29.958  52.301  0.00  0.00    +0.000 HD
ATOM     23  H   UNL     1      36.099  28.802  51.847  0.00  0.00    +0.000 HD
ENDBRANCH  11  21
ENDBRANCH   1  12
BRANCH   6  25
ATOM     24  C   UNL     1      40.710  33.373  47.201  0.00  0.00    +0.000 C 
ATOM     25  C   UNL     1      39.986  32.055  47.397  0.00  0.00    +0.000 C 
ATOM     26  C   UNL     1      41.074  31.209  47.973  0.00  0.00    +0.000 C 
ATOM     27  H   UNL     1      40.960  30.119  47.728  0.00  0.00    +0.000 HD
ATOM     28  O   UNL     1      42.191  31.594  47.194  0.00  0.00    +0.000 OA
ATOM     29  C   UNL     1      42.190  32.987  47.295  0.00  0.00    +0.000 C 
ATOM     30  H   UNL     1      42.643  33.330  48.262  0.00  0.00    +0.000 HD
BRANCH  24  31
ATOM     31  O   UNL     1      40.493  33.835  45.904  0.00  0.00    +0.000 OA
ATOM     32  H   UNL     1      40.242  33.088  45.307  0.00  0.00    +0.000 HD
ENDBRANCH  24  31
ENDBRANCH   6  25
TORSDOF 4
