
 OpenBabel03272504403D

 45 47  0  0  1  0  0  0  0  0999 V2000
   34.7700   29.3790   48.8100 C   0  0  0  0  0  0  0  0  0  0  0  0
   35.6770   29.4070   49.4840 H   0  0  0  0  0  0  0  0  0  0  0  0
   34.1320   30.2040   49.2440 H   0  0  0  0  0  0  0  0  0  0  0  0
   37.5350   30.4300   48.5320 Cl  0  0  0  0  0  0  0  0  0  0  0  0
   36.3930   30.2910   47.2030 C   0  0  0  0  0  0  0  0  0  0  0  0
   36.7760   30.6890   45.9590 C   0  0  0  0  0  0  0  0  0  0  0  0
   35.8940   30.5890   44.9050 C   0  0  0  0  0  0  0  0  0  0  0  0
   34.6250   30.0810   45.1430 C   0  0  0  0  0  0  0  0  0  0  0  0
   34.2990   29.6900   46.4520 C   0  0  0  0  0  0  0  0  0  0  0  0
   35.1500   29.7820   47.4890 C   0  0  0  0  0  0  0  0  0  0  0  0
   36.2190   30.9150   43.9090 H   0  0  0  0  0  0  0  0  0  0  0  0
   34.0010   30.0370   44.2660 H   0  0  0  0  0  0  0  0  0  0  0  0
   33.3350   29.3420   46.4500 H   0  0  0  0  0  0  0  0  0  0  0  0
   39.7800   32.8310   46.0370 C   0  0  0  0  0  0  0  0  0  0  0  0
   40.6440   32.0970   45.1480 C   0  0  0  0  0  0  0  0  0  0  0  0
   40.1550   30.9110   44.5690 C   0  0  0  0  0  0  0  0  0  0  0  0
   38.8960   30.5110   44.8740 N   0  0  0  0  0  0  0  0  0  0  0  0
   38.1050   31.2210   45.7130 C   0  0  0  0  0  0  0  0  0  0  0  0
   38.5500   32.3570   46.2760 N   0  0  0  0  0  0  0  0  0  0  0  0
   40.1590   33.7340   46.4730 H   0  0  0  0  0  0  0  0  0  0  0  0
   41.6180   32.5250   44.9930 H   0  0  0  0  0  0  0  0  0  0  0  0
   41.0290   30.2330   43.7140 N   0  0  0  0  0  0  0  0  0  0  0  0
   41.9720   29.8420   43.8330 H   0  0  0  0  0  0  0  0  0  0  0  0
   40.8060   30.0050   42.7030 H   0  0  0  0  0  0  0  0  0  0  0  0
   34.1120   28.0950   49.0260 C   0  0  0  0  0  0  0  0  0  0  0  0
   34.2610   27.4570   48.1080 H   0  0  0  0  0  0  0  0  0  0  0  0
   34.5370   27.4950   49.8590 H   0  0  0  0  0  0  0  0  0  0  0  0
   32.7690   28.2600   49.2760 O   0  0  0  0  0  0  0  0  0  0  0  0
   32.7380   26.3270   47.5070 O   0  0  0  0  0  0  0  0  0  0  0  0
   31.8510   27.3210   48.2430 P   0  0  2  0  0  0  0  0  0  0  0  0
   31.1070   28.3930   47.1360 O   0  0  0  0  0  0  0  0  0  0  0  0
   31.1870   27.7740   44.7570 C   0  0  2  0  0  3  0  0  0  0  0  0
   30.4940   27.8490   46.0780 C   0  0  1  0  0  3  0  0  0  0  0  0
   30.1640   26.3620   46.2750 C   0  0  0  0  0  3  0  0  0  0  0  0
   29.1540   26.2240   46.7170 H   0  0  0  0  0  0  0  0  0  0  0  0
   30.1860   25.7700   45.0400 O   0  0  0  0  0  0  0  0  0  0  0  0
   30.3210   26.7130   44.0570 C   0  0  0  0  0  3  0  0  0  0  0  0
   30.8860   26.2820   43.1980 H   0  0  0  0  0  0  0  0  0  0  0  0
   32.4640   27.2910   44.7670 O   0  0  0  0  0  0  0  0  0  0  0  0
   32.9890   27.7050   44.0380 H   0  0  0  0  0  0  0  0  0  0  0  0
   30.6530   26.5020   49.0380 O   0  0  0  0  0  0  0  0  0  0  0  0
   29.8720   27.3710   49.7780 C   0  0  0  0  0  0  0  0  0  0  0  0
   29.2920   26.7360   50.8780 F   0  0  0  0  0  0  0  0  0  0  0  0
   30.6220   28.4170   50.2820 F   0  0  0  0  0  0  0  0  0  0  0  0
   28.8630   27.8820   49.0070 F   0  0  0  0  0  0  0  0  0  0  0  0
  1 25  1  0  0  0  0
  1  3  1  0  0  0  0
  1  2  1  0  0  0  0
  5 10  1  0  0  0  0
  5  4  1  0  0  0  0
  6  5  2  0  0  0  0
  7  8  2  0  0  0  0
  7  6  1  0  0  0  0
  8  9  1  0  0  0  0
  9 10  2  0  0  0  0
 10  1  1  0  0  0  0
 11  7  1  0  0  0  0
 12  8  1  0  0  0  0
 13  9  1  0  0  0  0
 14 19  1  0  0  0  0
 14 20  1  0  0  0  0
 15 14  2  0  0  0  0
 16 17  2  0  0  0  0
 16 15  1  0  0  0  0
 17 18  1  0  0  0  0
 18  6  1  0  0  0  0
 18 19  2  0  0  0  0
 21 15  1  0  0  0  0
 22 23  1  0  0  0  0
 22 16  1  0  0  0  0
 24 22  1  0  0  0  0
 25 28  1  0  0  0  0
 25 27  1  0  0  0  0
 26 25  1  0  0  0  0
 30 29  2  6  0  0  0
 30 41  1  0  0  0  0
 30 28  1  0  0  0  0
 31 30  1  0  0  0  0
 32 39  1  1  0  0  0
 32 33  1  0  0  0  0
 33 34  1  0  0  0  0
 33 31  1  1  0  0  0
 34 35  1  0  0  0  0
 36 34  1  0  0  0  0
 37 32  1  0  0  0  0
 37 36  1  0  0  0  0
 38 37  1  0  0  0  0
 40 39  1  0  0  0  0
 41 42  1  0  0  0  0
 42 44  1  0  0  0  0
 42 43  1  0  0  0  0
 45 42  1  0  0  0  0
M  END
>  <minimizedAffinity>
-5.67646742

>  <minimizedRMSD>
0.412172079

$$$$
