
     RDKit          3D

 49 51  0  0  0  0  0  0  0  0999 V2000
   37.6021   30.4449   48.5219 Cl  0  0  0  0  0  0  0  0  0  0  0  0
   36.4479   30.3066   47.2031 C   0  0  0  0  0  0  0  0  0  0  0  0
   36.8208   30.7016   45.9554 C   0  0  0  0  0  0  0  0  0  0  0  0
   35.9297   30.6025   44.9087 C   0  0  0  0  0  0  0  0  0  0  0  0
   34.6624   30.0967   45.1593 C   0  0  0  0  0  0  0  0  0  0  0  0
   34.3467   29.7087   46.4710 C   0  0  0  0  0  0  0  0  0  0  0  0
   35.2072   29.8006   47.5009 C   0  0  0  0  0  0  0  0  0  0  0  0
   39.8295   32.8383   46.0042 C   0  0  0  0  0  0  0  0  0  0  0  0
   40.6849   32.1012   45.1087 C   0  0  0  0  0  0  0  0  0  0  0  0
   40.1891   30.9149   44.5364 C   0  0  0  0  0  0  0  0  0  0  0  0
   38.9306   30.5179   44.8520 N   0  0  0  0  0  0  0  0  0  0  0  0
   38.1488   31.2311   45.6972 C   0  0  0  0  0  0  0  0  0  0  0  0
   38.6011   32.3670   46.2555 N   0  0  0  0  0  0  0  0  0  0  0  0
   41.0539   30.2344   43.6741 N   0  0  0  0  0  0  0  0  0  0  0  0
   34.8381   29.3996   48.8259 C   0  0  0  0  0  0  0  0  0  0  0  0
   34.1682   28.1228   49.0481 C   0  0  0  0  0  0  0  0  0  0  0  0
   32.8429   28.3059   49.3726 O   0  0  0  0  0  0  0  0  0  0  0  0
   32.6753   26.6714   47.3321 O   0  0  0  0  0  0  0  0  0  0  0  0
   31.8488   27.5330   48.2746 P   0  0  2  0  0  0  0  0  0  0  0  0
   31.0319   28.7591   47.4053 O   0  0  0  0  0  0  0  0  0  0  0  0
   30.7070   26.5935   49.0179 O   0  0  0  0  0  0  0  0  0  0  0  0
   29.8451   27.3699   49.7700 C   0  0  0  0  0  0  0  0  0  0  0  0
   29.3220   26.6609   50.8538 F   0  0  0  0  0  0  0  0  0  0  0  0
   30.4927   28.4704   50.3000 F   0  0  0  0  0  0  0  0  0  0  0  0
   28.7963   27.8012   49.0040 F   0  0  0  0  0  0  0  0  0  0  0  0
   36.2472   30.9258   43.9098 H   0  0  0  0  0  0  0  0  0  0  0  0
   34.0301   30.0533   44.2882 H   0  0  0  0  0  0  0  0  0  0  0  0
   33.3824   29.3628   46.4782 H   0  0  0  0  0  0  0  0  0  0  0  0
   40.2155   33.7412   46.4357 H   0  0  0  0  0  0  0  0  0  0  0  0
   41.6583   32.5271   44.9451 H   0  0  0  0  0  0  0  0  0  0  0  0
   41.9970   29.8420   43.7862 H   0  0  0  0  0  0  0  0  0  0  0  0
   40.8215   30.0051   42.6660 H   0  0  0  0  0  0  0  0  0  0  0  0
   35.7520   29.4174   49.4893 H   0  0  0  0  0  0  0  0  0  0  0  0
   34.2135   30.2322   49.2684 H   0  0  0  0  0  0  0  0  0  0  0  0
   34.2557   27.5038   48.1091 H   0  0  0  0  0  0  0  0  0  0  0  0
   34.6248   27.4965   49.8432 H   0  0  0  0  0  0  0  0  0  0  0  0
   29.0469   26.6077   47.0846 O   0  0  0  0  0  0  0  0  0  0  0  0
   29.8665   27.0437   46.0832 C   0  0  2  0  0  0  0  0  0  0  0  0
   30.4547   28.4063   46.2504 C   0  0  1  0  0  0  0  0  0  0  0  0
   29.2226   29.2578   45.9111 C   0  0  2  0  0  0  0  0  0  0  0  0
   29.4956   30.1474   45.3065 H   0  0  0  0  0  0  0  0  0  0  0  0
   28.3712   28.4733   45.1765 O   0  0  0  0  0  0  0  0  0  0  0  0
   28.9696   27.2850   44.8559 C   0  0  2  0  0  0  0  0  0  0  0  0
   28.1997   26.4807   44.7954 H   0  0  0  0  0  0  0  0  0  0  0  0
   29.1028   25.6227   47.1635 H   0  0  0  0  0  0  0  0  0  0  0  0
   30.5940   26.2725   45.7009 H   0  0  0  0  0  0  0  0  0  0  0  0
   31.1516   28.5449   45.3909 H   0  0  0  0  0  0  0  0  0  0  0  0
   28.7646   29.6496   46.8455 H   0  0  0  0  0  0  0  0  0  0  0  0
   29.5985   27.3094   43.9467 H   0  0  0  0  0  0  0  0  0  0  0  0
  2  7  2  0
  2  1  1  0
  3  2  1  0
  4  5  1  0
  4  3  2  0
  5  6  2  0
  6  7  1  0
  7 15  1  0
  8 13  2  0
  9  8  1  0
 10 11  1  0
 10  9  2  0
 11 12  2  0
 12  3  1  0
 12 13  1  0
 14 10  1  0
 15 16  1  0
 16 17  1  0
 19 18  2  0
 19 21  1  1
 19 17  1  0
 20 19  1  0
 21 22  1  0
 22 24  1  0
 22 23  1  0
 25 22  1  0
  4 26  1  0
  5 27  1  0
  6 28  1  0
  8 29  1  0
  9 30  1  0
 14 31  1  0
 14 32  1  0
 15 33  1  0
 15 34  1  0
 16 35  1  0
 16 36  1  0
 37 38  1  0
 38 39  1  0
 39 40  1  0
 40 41  1  6
 40 42  1  0
 42 43  1  0
 43 44  1  6
 43 38  1  0
 37 45  1  0
 38 46  1  6
 39 47  1  6
 40 48  1  0
 43 49  1  0
 20 39  1  0
M  ISO  8  26  14  27  14  28  14  29  14  30  14  33   8  34   8  35   8
M  ISO  3  36   8  41  15  44  16
M  END
>  <DihAtoms>  (1) 
18,19,38,37

>  <DihDeg>  (1) 
123.50710475293997

$$$$
