
 OpenBabel03272504403D

 45 47  0  0  1  0  0  0  0  0999 V2000
   34.7140   29.4090   48.7550 C   0  0  0  0  0  0  0  0  0  0  0  0
   35.6020   29.4850   49.4480 H   0  0  0  0  0  0  0  0  0  0  0  0
   34.0400   30.2270   49.1490 H   0  0  0  0  0  0  0  0  0  0  0  0
   37.4740   30.4770   48.5000 Cl  0  0  0  0  0  0  0  0  0  0  0  0
   36.3560   30.2990   47.1550 C   0  0  0  0  0  0  0  0  0  0  0  0
   36.7570   30.6710   45.9090 C   0  0  0  0  0  0  0  0  0  0  0  0
   35.8940   30.5390   44.8420 C   0  0  0  0  0  0  0  0  0  0  0  0
   34.6260   30.0260   45.0710 C   0  0  0  0  0  0  0  0  0  0  0  0
   34.2810   29.6630   46.3820 C   0  0  0  0  0  0  0  0  0  0  0  0
   35.1130   29.7860   47.4320 C   0  0  0  0  0  0  0  0  0  0  0  0
   36.2340   30.8450   43.8450 H   0  0  0  0  0  0  0  0  0  0  0  0
   34.0170   29.9570   44.1850 H   0  0  0  0  0  0  0  0  0  0  0  0
   33.3190   29.3070   46.3720 H   0  0  0  0  0  0  0  0  0  0  0  0
   39.7510   32.8260   46.0090 C   0  0  0  0  0  0  0  0  0  0  0  0
   40.6260   32.0950   45.1290 C   0  0  0  0  0  0  0  0  0  0  0  0
   40.1480   30.9050   44.5480 C   0  0  0  0  0  0  0  0  0  0  0  0
   38.8870   30.5000   44.8420 N   0  0  0  0  0  0  0  0  0  0  0  0
   38.0860   31.2080   45.6730 C   0  0  0  0  0  0  0  0  0  0  0  0
   38.5210   32.3480   46.2390 N   0  0  0  0  0  0  0  0  0  0  0  0
   40.1230   33.7320   46.4470 H   0  0  0  0  0  0  0  0  0  0  0  0
   41.5990   32.5270   44.9820 H   0  0  0  0  0  0  0  0  0  0  0  0
   41.0320   30.2290   43.7020 N   0  0  0  0  0  0  0  0  0  0  0  0
   41.9750   29.8440   43.8300 H   0  0  0  0  0  0  0  0  0  0  0  0
   40.8190   29.9990   42.6900 H   0  0  0  0  0  0  0  0  0  0  0  0
   34.0900   28.1120   48.9940 C   0  0  0  0  0  0  0  0  0  0  0  0
   34.2090   27.4810   48.0660 H   0  0  0  0  0  0  0  0  0  0  0  0
   34.5630   27.5170   49.8030 H   0  0  0  0  0  0  0  0  0  0  0  0
   32.7560   28.2510   49.3050 O   0  0  0  0  0  0  0  0  0  0  0  0
   32.6550   26.4670   47.3880 O   0  0  0  0  0  0  0  0  0  0  0  0
   31.8020   27.4140   48.2180 P   0  0  2  0  0  0  0  0  0  0  0  0
   31.0580   28.5850   47.2160 O   0  0  0  0  0  0  0  0  0  0  0  0
   29.9050   27.0800   45.6500 C   0  0  2  0  0  3  0  0  0  0  0  0
   30.8060   28.2320   45.9500 C   0  0  1  0  0  3  0  0  0  0  0  0
   30.0880   29.3310   45.1530 C   0  0  0  0  0  3  0  0  0  0  0  0
   30.8080   30.0040   44.6440 H   0  0  0  0  0  0  0  0  0  0  0  0
   29.3180   28.7110   44.2030 O   0  0  0  0  0  0  0  0  0  0  0  0
   29.5800   27.3680   44.1730 C   0  0  0  0  0  3  0  0  0  0  0  0
   28.6580   26.8120   43.8810 H   0  0  0  0  0  0  0  0  0  0  0  0
   28.7120   27.0520   46.3130 O   0  0  0  0  0  0  0  0  0  0  0  0
   28.4240   26.1160   46.4540 H   0  0  0  0  0  0  0  0  0  0  0  0
   30.6030   26.5560   48.9700 O   0  0  0  0  0  0  0  0  0  0  0  0
   29.8520   27.3770   49.7920 C   0  0  0  0  0  0  0  0  0  0  0  0
   29.3150   26.6740   50.8730 F   0  0  0  0  0  0  0  0  0  0  0  0
   30.6240   28.3890   50.3300 F   0  0  0  0  0  0  0  0  0  0  0  0
   28.8150   27.9340   49.0950 F   0  0  0  0  0  0  0  0  0  0  0  0
  1 25  1  0  0  0  0
  1  3  1  0  0  0  0
  1  2  1  0  0  0  0
  5 10  1  0  0  0  0
  5  4  1  0  0  0  0
  6  5  2  0  0  0  0
  7  8  2  0  0  0  0
  7  6  1  0  0  0  0
  8  9  1  0  0  0  0
  9 10  2  0  0  0  0
 10  1  1  0  0  0  0
 11  7  1  0  0  0  0
 12  8  1  0  0  0  0
 13  9  1  0  0  0  0
 14 19  1  0  0  0  0
 14 20  1  0  0  0  0
 15 14  2  0  0  0  0
 16 17  2  0  0  0  0
 16 15  1  0  0  0  0
 17 18  1  0  0  0  0
 18  6  1  0  0  0  0
 18 19  2  0  0  0  0
 21 15  1  0  0  0  0
 22 23  1  0  0  0  0
 22 16  1  0  0  0  0
 24 22  1  0  0  0  0
 25 28  1  0  0  0  0
 25 27  1  0  0  0  0
 26 25  1  0  0  0  0
 30 29  2  6  0  0  0
 30 41  1  0  0  0  0
 30 28  1  0  0  0  0
 31 30  1  0  0  0  0
 32 33  1  0  0  0  0
 32 39  1  1  0  0  0
 33 31  1  1  0  0  0
 34 33  1  0  0  0  0
 35 34  1  0  0  0  0
 36 34  1  0  0  0  0
 37 36  1  0  0  0  0
 37 32  1  0  0  0  0
 38 37  1  0  0  0  0
 39 40  1  0  0  0  0
 41 42  1  0  0  0  0
 42 44  1  0  0  0  0
 42 43  1  0  0  0  0
 45 42  1  0  0  0  0
M  END
>  <minimizedAffinity>
-5.74173927

>  <minimizedRMSD>
0.861307502

$$$$
