REMARK  Name = 
REMARK  2 active torsions:
REMARK  status: ('A' for Active; 'I' for Inactive)
REMARK    1  A    between atoms: N_12  and  C_22
REMARK    2  A    between atoms: O_20  and  C_21
REMARK                            x       y       z     vdW  Elec       q    Type
REMARK                         _______ _______ _______ _____ _____    ______ ____
ROOT
ATOM      1  C   UNL     1      37.476  30.252  51.333  0.00  0.00    +0.000 A 
ATOM      2  C   UNL     1      38.173  30.978  50.323  0.00  0.00    +0.000 A 
ATOM      3  C   UNL     1      37.841  30.723  48.997  0.00  0.00    +0.000 A 
ATOM      4  N   UNL     1      36.873  29.797  48.709  0.00  0.00    +0.000 NA
ATOM      5  C   UNL     1      36.225  29.118  49.697  0.00  0.00    +0.000 A 
ATOM      6  N   UNL     1      36.525  29.345  50.993  0.00  0.00    +0.000 NA
ATOM      7  N   UNL     1      38.468  31.404  47.932  0.00  0.00    +0.000 N 
ATOM      8  C   UNL     1      38.696  30.825  46.739  0.00  0.00    +0.000 A 
ATOM      9  C   UNL     1      39.304  31.536  45.693  0.00  0.00    +0.000 A 
ATOM     10  C   UNL     1      39.669  32.853  45.907  0.00  0.00    +0.000 A 
ATOM     11  O   UNL     1      40.207  33.503  45.001  0.00  0.00    +0.000 OA
ATOM     12  N   UNL     1      39.427  33.394  47.106  0.00  0.00    +0.000 N 
ATOM     13  C   UNL     1      38.845  32.668  48.066  0.00  0.00    +0.000 A 
ATOM     14  O   UNL     1      38.649  33.240  49.171  0.00  0.00    +0.000 OA
ATOM     15  H   UNL     1      37.681  30.399  52.377  0.00  0.00    +0.000 HD
ATOM     16  H   UNL     1      38.914  31.660  50.697  0.00  0.00    +0.000 HD
ATOM     17  H   UNL     1      35.488  28.421  49.323  0.00  0.00    +0.000 HD
ATOM     18  H   UNL     1      38.411  29.799  46.574  0.00  0.00    +0.000 HD
ATOM     19  H   UNL     1      39.472  31.040  44.745  0.00  0.00    +0.000 HD
ENDROOT
BRANCH  12  21
ATOM     20  C   UNL     1      39.120  35.474  48.417  0.00  0.00    +0.000 C 
ATOM     21  C   UNL     1      39.813  34.742  47.291  0.00  0.00    +0.000 C 
ATOM     22  C   UNL     1      41.229  35.074  47.546  0.00  0.00    +0.000 C 
ATOM     23  H   UNL     1      41.621  34.826  48.556  0.00  0.00    +0.000 HD
ATOM     24  O   UNL     1      41.089  36.488  47.651  0.00  0.00    +0.000 OA
ATOM     25  C   UNL     1      40.218  36.491  48.768  0.00  0.00    +0.000 C 
ATOM     26  H   UNL     1      39.754  37.476  48.921  0.00  0.00    +0.000 HD
BRANCH  20  27
ATOM     27  O   UNL     1      37.972  36.133  47.982  0.00  0.00    +0.000 OA
ATOM     28  H   UNL     1      37.187  35.841  48.531  0.00  0.00    +0.000 HD
ENDBRANCH  20  27
ENDBRANCH  12  21
TORSDOF 2
