
 OpenBabel03272508083D

 24 25  0  0  1  0  0  0  0  0999 V2000
   39.3410   32.7310   47.3070 O   0  0  0  0  0  0  0  0  0  0  0  0
   38.3700   31.9270   46.5180 P   0  0  2  0  0  0  0  0  0  0  0  0
   37.7840   32.8530   45.2130 O   0  0  0  0  0  0  0  0  0  0  0  0
   37.3870   32.2370   44.5380 H   0  0  0  0  0  0  0  0  0  0  0  0
   37.0800   31.3020   47.4110 O   0  0  0  0  0  0  0  0  0  0  0  0
   37.5990   30.5180   50.9940 C   0  0  0  0  0  0  0  0  0  0  0  0
   37.7240   31.2540   49.8000 C   0  0  0  0  0  0  0  0  0  0  0  0
   37.1010   30.7750   48.6540 C   0  0  0  0  0  0  0  0  0  0  0  0
   36.3960   29.6030   48.7620 N   0  0  0  0  0  0  0  0  0  0  0  0
   36.3000   28.9320   49.9140 C   0  0  0  0  0  0  0  0  0  0  0  0
   36.8980   29.3880   51.0200 N   0  0  0  0  0  0  0  0  0  0  0  0
   38.1140   30.9530   51.8550 H   0  0  0  0  0  0  0  0  0  0  0  0
   38.2610   32.1740   49.6610 H   0  0  0  0  0  0  0  0  0  0  0  0
   35.7310   27.9960   49.9770 H   0  0  0  0  0  0  0  0  0  0  0  0
   39.2340   30.6410   45.8200 O   0  0  0  0  0  0  0  0  0  0  0  0
   40.2040   31.3770   43.7370 C   0  0  1  0  0  3  0  0  0  0  0  0
   39.0490   30.7390   44.4380 C   0  0  1  0  0  3  0  0  0  0  0  0
   38.9110   29.3940   43.7850 C   0  0  0  0  0  3  0  0  0  0  0  0
   37.9370   29.3020   43.2540 H   0  0  0  0  0  0  0  0  0  0  0  0
   39.9140   29.2300   42.8600 O   0  0  0  0  0  0  0  0  0  0  0  0
   40.8800   30.1820   43.0870 C   0  0  0  0  0  3  0  0  0  0  0  0
   41.3310   30.5350   42.1260 H   0  0  0  0  0  0  0  0  0  0  0  0
   39.7470   32.1930   42.7050 O   0  0  0  0  0  0  0  0  0  0  0  0
   40.4620   32.7680   42.3310 H   0  0  0  0  0  0  0  0  0  0  0  0
  2  1  2  1  0  0  0
  2  5  1  0  0  0  0
  3  2  1  0  0  0  0
  4  3  1  0  0  0  0
  5  8  1  0  0  0  0
  6 11  1  0  0  0  0
  6 12  1  0  0  0  0
  7  6  2  0  0  0  0
  8  9  2  0  0  0  0
  8  7  1  0  0  0  0
  9 10  1  0  0  0  0
 10 14  1  0  0  0  0
 10 11  2  0  0  0  0
 13  7  1  0  0  0  0
 15  2  1  0  0  0  0
 16 23  1  6  0  0  0
 16 17  1  0  0  0  0
 17 15  1  1  0  0  0
 18 17  1  0  0  0  0
 19 18  1  0  0  0  0
 20 21  1  0  0  0  0
 20 18  1  0  0  0  0
 21 16  1  0  0  0  0
 22 21  1  0  0  0  0
 24 23  1  0  0  0  0
M  END
>  <minimizedAffinity>
-4.91403198

>  <minimizedRMSD>
2.99618077

$$$$
