
     RDKit          3D

 23 24  0  0  0  0  0  0  0  0999 V2000
   37.2646   30.1785   51.4104 C   0  0  0  0  0  0  0  0  0  0  0  0
   38.1199   30.7607   50.4726 C   0  0  0  0  0  0  0  0  0  0  0  0
   37.8456   30.5484   49.1147 C   0  0  0  0  0  0  0  0  0  0  0  0
   36.7593   29.7857   48.7994 N   0  0  0  0  0  0  0  0  0  0  0  0
   35.9627   29.2442   49.7253 C   0  0  0  0  0  0  0  0  0  0  0  0
   36.2094   29.4363   51.0232 N   0  0  0  0  0  0  0  0  0  0  0  0
   34.5404   28.2452   49.2883 S   0  0  0  0  0  0  0  0  0  0  0  0
   37.4619   30.3323   52.4651 H   0  0  0  0  0  0  0  0  0  0  0  0
   38.9734   31.3609   50.7835 H   0  0  0  0  0  0  0  0  0  0  0  0
   38.4931   30.9886   48.3689 H   0  0  0  0  0  0  0  0  0  0  0  0
   35.6682   26.1746   46.8402 O   0  0  0  0  0  0  0  0  0  0  0  0
   35.6580   27.5500   46.8317 C   0  0  2  0  0  0  0  0  0  0  0  0
   34.4577   28.1602   47.5224 C   0  0  2  0  0  0  0  0  0  0  0  0
   34.4817   29.5254   46.8438 C   0  0  1  0  0  0  0  0  0  0  0  0
   33.5018   30.0247   47.0001 H   0  0  0  0  0  0  0  0  0  0  0  0
   34.7844   29.2753   45.5119 O   0  0  0  0  0  0  0  0  0  0  0  0
   35.2953   27.9878   45.4077 C   0  0  1  0  0  0  0  0  0  0  0  0
   36.1085   27.8625   44.6956 H   0  0  0  0  0  0  0  0  0  0  0  0
   35.2401   25.8436   47.6755 H   0  0  0  0  0  0  0  0  0  0  0  0
   36.5980   28.0347   47.1018 H   0  0  0  0  0  0  0  0  0  0  0  0
   33.5578   27.6246   47.1636 H   0  0  0  0  0  0  0  0  0  0  0  0
   35.2749   30.1370   47.3500 H   0  0  0  0  0  0  0  0  0  0  0  0
   34.4105   27.3436   45.1281 H   0  0  0  0  0  0  0  0  0  0  0  0
  2  1  2  0
  3  2  1  0
  4  3  2  0
  4  5  1  0
  5  6  2  0
  6  1  1  0
  7  5  1  0
  1  8  1  0
  2  9  1  0
  3 10  1  0
 11 12  1  0
 12 13  1  0
 13 14  1  0
 14 15  1  6
 14 16  1  0
 16 17  1  0
 17 18  1  6
 17 12  1  0
 11 19  1  0
 12 20  1  1
 13 21  1  1
 14 22  1  0
 17 23  1  0
  7 13  1  0
M  ISO  5   8  14   9  14  10  14  15  15  18  16
M  END
>  <DihAtoms>  (1) 
4,6,12,11

>  <DihDeg>  (1) 
179.99940534578485

$$$$
