
     RDKit          3D

 23 24  0  0  0  0  0  0  0  0999 V2000
   37.2646   30.1785   51.4104 C   0  0  0  0  0  0  0  0  0  0  0  0
   38.1199   30.7607   50.4726 C   0  0  0  0  0  0  0  0  0  0  0  0
   37.8456   30.5484   49.1147 C   0  0  0  0  0  0  0  0  0  0  0  0
   36.7593   29.7857   48.7994 N   0  0  0  0  0  0  0  0  0  0  0  0
   35.9627   29.2442   49.7253 C   0  0  0  0  0  0  0  0  0  0  0  0
   36.2094   29.4363   51.0232 N   0  0  0  0  0  0  0  0  0  0  0  0
   34.5404   28.2452   49.2883 S   0  0  0  0  0  0  0  0  0  0  0  0
   37.4619   30.3323   52.4651 H   0  0  0  0  0  0  0  0  0  0  0  0
   38.9734   31.3609   50.7835 H   0  0  0  0  0  0  0  0  0  0  0  0
   38.4931   30.9886   48.3689 H   0  0  0  0  0  0  0  0  0  0  0  0
   36.3724   29.3653   46.6536 O   0  0  0  0  0  0  0  0  0  0  0  0
   35.0024   29.3582   46.7753 C   0  0  2  0  0  0  0  0  0  0  0  0
   34.4577   28.1602   47.5224 C   0  0  2  0  0  0  0  0  0  0  0  0
   33.0344   28.1865   46.9760 C   0  0  1  0  0  0  0  0  0  0  0  0
   32.5500   27.2079   47.1803 H   0  0  0  0  0  0  0  0  0  0  0  0
   33.1580   28.4871   45.6260 O   0  0  0  0  0  0  0  0  0  0  0  0
   34.4310   28.9949   45.3997 C   0  0  1  0  0  0  0  0  0  0  0  0
   34.4901   29.8069   44.6778 H   0  0  0  0  0  0  0  0  0  0  0  0
   36.7801   28.9374   47.4545 H   0  0  0  0  0  0  0  0  0  0  0  0
   34.5475   30.2997   47.0888 H   0  0  0  0  0  0  0  0  0  0  0  0
   34.9549   27.2586   47.1158 H   0  0  0  0  0  0  0  0  0  0  0  0
   32.4752   28.9817   47.5367 H   0  0  0  0  0  0  0  0  0  0  0  0
   35.0439   28.1083   45.0616 H   0  0  0  0  0  0  0  0  0  0  0  0
  2  1  2  0
  3  2  1  0
  4  3  2  0
  4  5  1  0
  5  6  2  0
  6  1  1  0
  7  5  1  0
  1  8  1  0
  2  9  1  0
  3 10  1  0
 11 12  1  0
 12 13  1  0
 13 14  1  0
 14 15  1  6
 14 16  1  0
 16 17  1  0
 17 18  1  6
 17 12  1  0
 11 19  1  0
 12 20  1  1
 13 21  1  6
 14 22  1  0
 17 23  1  0
  7 13  1  0
M  ISO  5   8  14   9  14  10  14  15  15  18  16
M  END
>  <DihAtoms>  (1) 
4,6,12,11

>  <DihDeg>  (1) 
179.99940534578485

$$$$
