
     RDKit          3D

 23 24  0  0  0  0  0  0  0  0999 V2000
   37.2646   30.1785   51.4104 C   0  0  0  0  0  0  0  0  0  0  0  0
   38.1199   30.7607   50.4726 C   0  0  0  0  0  0  0  0  0  0  0  0
   37.8456   30.5484   49.1147 C   0  0  0  0  0  0  0  0  0  0  0  0
   36.7593   29.7857   48.7994 N   0  0  0  0  0  0  0  0  0  0  0  0
   35.9627   29.2442   49.7253 C   0  0  0  0  0  0  0  0  0  0  0  0
   36.2094   29.4363   51.0232 N   0  0  0  0  0  0  0  0  0  0  0  0
   34.5404   28.2452   49.2883 S   0  0  0  0  0  0  0  0  0  0  0  0
   37.4619   30.3323   52.4651 H   0  0  0  0  0  0  0  0  0  0  0  0
   38.9734   31.3609   50.7835 H   0  0  0  0  0  0  0  0  0  0  0  0
   38.4931   30.9886   48.3689 H   0  0  0  0  0  0  0  0  0  0  0  0
   32.2201   27.4332   46.9411 O   0  0  0  0  0  0  0  0  0  0  0  0
   33.5520   27.0901   46.9524 C   0  0  2  0  0  0  0  0  0  0  0  0
   34.4577   28.1602   47.5224 C   0  0  2  0  0  0  0  0  0  0  0  0
   35.7628   27.7162   46.8709 C   0  0  1  0  0  0  0  0  0  0  0  0
   36.4983   28.5466   46.9309 H   0  0  0  0  0  0  0  0  0  0  0  0
   35.4271   27.3488   45.5745 O   0  0  0  0  0  0  0  0  0  0  0  0
   34.0506   27.1764   45.5050 C   0  0  1  0  0  0  0  0  0  0  0  0
   33.7125   26.3520   44.8805 H   0  0  0  0  0  0  0  0  0  0  0  0
   32.0201   28.0174   47.7217 H   0  0  0  0  0  0  0  0  0  0  0  0
   33.7832   26.0913   47.3272 H   0  0  0  0  0  0  0  0  0  0  0  0
   34.1661   29.1242   47.0629 H   0  0  0  0  0  0  0  0  0  0  0  0
   36.1571   26.8509   47.4669 H   0  0  0  0  0  0  0  0  0  0  0  0
   33.6510   28.1620   45.1243 H   0  0  0  0  0  0  0  0  0  0  0  0
  2  1  2  0
  3  2  1  0
  4  3  2  0
  4  5  1  0
  5  6  2  0
  6  1  1  0
  7  5  1  0
  1  8  1  0
  2  9  1  0
  3 10  1  0
 11 12  1  0
 12 13  1  0
 13 14  1  0
 14 15  1  6
 14 16  1  0
 16 17  1  0
 17 18  1  6
 17 12  1  0
 11 19  1  0
 12 20  1  1
 13 21  1  6
 14 22  1  0
 17 23  1  0
  7 13  1  0
M  ISO  5   8  14   9  14  10  14  15  15  18  16
M  END
>  <DihAtoms>  (1) 
4,6,12,11

>  <DihDeg>  (1) 
179.99940534578485

$$$$
