
 OpenBabel03272503473D

 24 25  0  0  1  0  0  0  0  0999 V2000
   40.0490   27.2050   33.9210 O   0  0  0  0  0  0  0  0  0  0  0  0
   38.7710   26.8360   34.6310 P   0  0  2  0  0  0  0  0  0  0  0  0
   38.8660   27.4950   36.1930 O   0  0  0  0  0  0  0  0  0  0  0  0
   37.9850   27.5540   36.6310 H   0  0  0  0  0  0  0  0  0  0  0  0
   38.5680   25.1290   34.7530 O   0  0  0  0  0  0  0  0  0  0  0  0
   38.7640   24.4500   35.9390 C   0  0  0  0  0  0  0  0  0  0  0  0
   39.7590   23.4980   36.1820 C   0  0  0  0  0  0  0  0  0  0  0  0
   39.8200   22.9050   37.4380 C   0  0  0  0  0  0  0  0  0  0  0  0
   38.9130   23.2670   38.3860 N   0  0  0  0  0  0  0  0  0  0  0  0
   37.9520   24.2030   38.1130 C   0  0  0  0  0  0  0  0  0  0  0  0
   37.8720   24.7970   36.8940 N   0  0  0  0  0  0  0  0  0  0  0  0
   40.4120   23.2960   35.3650 H   0  0  0  0  0  0  0  0  0  0  0  0
   40.5940   22.1710   37.6130 H   0  0  0  0  0  0  0  0  0  0  0  0
   37.2940   24.4110   38.9310 H   0  0  0  0  0  0  0  0  0  0  0  0
   37.3930   27.4050   33.8350 O   0  0  0  0  0  0  0  0  0  0  0  0
   37.1270   26.2790   31.7250 C   0  0  1  0  0  3  0  0  0  0  0  0
   37.6620   27.4570   32.4880 C   0  0  1  0  0  3  0  0  0  0  0  0
   36.8410   28.5900   31.9020 C   0  0  0  0  0  3  0  0  0  0  0  0
   37.3430   28.9080   30.9790 H   0  0  0  0  0  0  0  0  0  0  0  0
   35.5890   28.0510   31.7280 O   0  0  0  0  0  0  0  0  0  0  0  0
   35.7290   26.7170   31.3890 C   0  0  0  0  0  3  0  0  0  0  0  0
   35.0300   26.0360   31.9110 H   0  0  0  0  0  0  0  0  0  0  0  0
   37.8400   26.1330   30.5230 O   0  0  0  0  0  0  0  0  0  0  0  0
   38.0850   25.2020   30.3290 H   0  0  0  0  0  0  0  0  0  0  0  0
  2  1  2  6  0  0  0
  2  5  1  0  0  0  0
  2  3  1  0  0  0  0
  3  4  1  0  0  0  0
  5  6  1  0  0  0  0
  6  7  2  0  0  0  0
  6 11  1  0  0  0  0
  7  8  1  0  0  0  0
  8 13  1  0  0  0  0
  8  9  2  0  0  0  0
 10  9  1  0  0  0  0
 10 14  1  0  0  0  0
 11 10  2  0  0  0  0
 12  7  1  0  0  0  0
 15  2  1  0  0  0  0
 16 23  1  6  0  0  0
 16 17  1  0  0  0  0
 17 15  1  1  0  0  0
 18 17  1  0  0  0  0
 19 18  1  0  0  0  0
 20 18  1  0  0  0  0
 21 16  1  0  0  0  0
 21 20  1  0  0  0  0
 21 22  1  0  0  0  0
 24 23  1  0  0  0  0
M  END
>  <minimizedAffinity>
-4.62187147

$$$$

 OpenBabel03272503473D

 24 25  0  0  1  0  0  0  0  0999 V2000
   40.6470   26.7960   34.9160 O   0  0  0  0  0  0  0  0  0  0  0  0
   39.1420   26.7640   34.8340 P   0  0  2  0  0  0  0  0  0  0  0  0
   38.5590   27.7790   36.0650 O   0  0  0  0  0  0  0  0  0  0  0  0
   37.6210   28.0450   35.9210 H   0  0  0  0  0  0  0  0  0  0  0  0
   38.5140   25.1770   35.0710 O   0  0  0  0  0  0  0  0  0  0  0  0
   38.7220   24.4740   36.2410 C   0  0  0  0  0  0  0  0  0  0  0  0
   39.6420   23.4350   36.4190 C   0  0  0  0  0  0  0  0  0  0  0  0
   39.7270   22.8290   37.6680 C   0  0  0  0  0  0  0  0  0  0  0  0
   38.9170   23.2620   38.6710 N   0  0  0  0  0  0  0  0  0  0  0  0
   38.0280   24.2820   38.4610 C   0  0  0  0  0  0  0  0  0  0  0  0
   37.9260   24.8910   37.2510 N   0  0  0  0  0  0  0  0  0  0  0  0
   40.2220   23.1820   35.5630 H   0  0  0  0  0  0  0  0  0  0  0  0
   40.4420   22.0270   37.7920 H   0  0  0  0  0  0  0  0  0  0  0  0
   37.4430   24.5410   39.3190 H   0  0  0  0  0  0  0  0  0  0  0  0
   38.5570   27.2670   33.3310 O   0  0  0  0  0  0  0  0  0  0  0  0
   36.5670   28.5420   32.8720 C   0  0  1  0  0  3  0  0  0  0  0  0
   37.1830   27.2690   33.3810 C   0  0  1  0  0  3  0  0  0  0  0  0
   36.6870   26.2670   32.3550 C   0  0  0  0  0  3  0  0  0  0  0  0
   35.6820   25.9550   32.6680 H   0  0  0  0  0  0  0  0  0  0  0  0
   36.7400   26.9450   31.1610 O   0  0  0  0  0  0  0  0  0  0  0  0
   36.4410   28.2750   31.3980 C   0  0  0  0  0  3  0  0  0  0  0  0
   37.0980   28.9930   30.8700 H   0  0  0  0  0  0  0  0  0  0  0  0
   35.2740   28.6850   33.4030 O   0  0  0  0  0  0  0  0  0  0  0  0
   35.0840   29.5950   33.7190 H   0  0  0  0  0  0  0  0  0  0  0  0
  2  1  2  1  0  0  0
  2  5  1  0  0  0  0
  2  3  1  0  0  0  0
  4  3  1  0  0  0  0
  5  6  1  0  0  0  0
  6  7  2  0  0  0  0
  6 11  1  0  0  0  0
  7  8  1  0  0  0  0
  8 13  1  0  0  0  0
  8  9  2  0  0  0  0
 10  9  1  0  0  0  0
 10 14  1  0  0  0  0
 11 10  2  0  0  0  0
 12  7  1  0  0  0  0
 15  2  1  0  0  0  0
 16 17  1  0  0  0  0
 16 23  1  1  0  0  0
 17 15  1  6  0  0  0
 18 19  1  0  0  0  0
 18 17  1  0  0  0  0
 20 21  1  0  0  0  0
 20 18  1  0  0  0  0
 21 16  1  0  0  0  0
 22 21  1  0  0  0  0
 23 24  1  0  0  0  0
M  END
>  <minimizedAffinity>
-4.52864885

$$$$

 OpenBabel03272503473D

 24 25  0  0  1  0  0  0  0  0999 V2000
   37.7320   23.8170   37.6670 O   0  0  0  0  0  0  0  0  0  0  0  0
   38.8740   23.2880   36.8360 P   0  0  2  0  0  0  0  0  0  0  0  0
   38.3350   21.8440   36.1210 O   0  0  0  0  0  0  0  0  0  0  0  0
   38.8910   21.5750   35.3530 H   0  0  0  0  0  0  0  0  0  0  0  0
   40.2690   22.9540   37.7920 O   0  0  0  0  0  0  0  0  0  0  0  0
   41.4320   22.4550   37.2420 C   0  0  0  0  0  0  0  0  0  0  0  0
   42.4030   23.2020   36.5660 C   0  0  0  0  0  0  0  0  0  0  0  0
   43.5230   22.5430   36.0710 C   0  0  0  0  0  0  0  0  0  0  0  0
   43.6380   21.2000   36.2570 N   0  0  0  0  0  0  0  0  0  0  0  0
   42.6680   20.5010   36.9240 C   0  0  0  0  0  0  0  0  0  0  0  0
   41.5650   21.1210   37.4170 N   0  0  0  0  0  0  0  0  0  0  0  0
   42.2060   24.2440   36.4810 H   0  0  0  0  0  0  0  0  0  0  0  0
   44.2670   23.1320   35.5510 H   0  0  0  0  0  0  0  0  0  0  0  0
   42.8620   19.4520   37.0130 H   0  0  0  0  0  0  0  0  0  0  0  0
   39.3820   24.3780   35.6500 O   0  0  0  0  0  0  0  0  0  0  0  0
   39.3800   26.7830   35.5760 C   0  0  1  0  0  3  0  0  0  0  0  0
   38.6040   25.5080   35.7410 C   0  0  1  0  0  3  0  0  0  0  0  0
   37.7070   25.5450   34.5180 C   0  0  0  0  0  3  0  0  0  0  0  0
   36.8340   26.1580   34.7770 H   0  0  0  0  0  0  0  0  0  0  0  0
   38.5040   26.0580   33.5240 O   0  0  0  0  0  0  0  0  0  0  0  0
   39.3670   26.9820   34.0860 C   0  0  0  0  0  3  0  0  0  0  0  0
   40.4130   26.9090   33.7290 H   0  0  0  0  0  0  0  0  0  0  0  0
   38.6730   27.8460   36.1650 O   0  0  0  0  0  0  0  0  0  0  0  0
   39.2420   28.4410   36.6990 H   0  0  0  0  0  0  0  0  0  0  0  0
  2  1  2  1  0  0  0
  2  5  1  0  0  0  0
  3  2  1  0  0  0  0
  4  3  1  0  0  0  0
  6 11  1  0  0  0  0
  6  5  1  0  0  0  0
  7  6  2  0  0  0  0
  8  9  2  0  0  0  0
  8  7  1  0  0  0  0
  9 10  1  0  0  0  0
 10 14  1  0  0  0  0
 10 11  2  0  0  0  0
 12  7  1  0  0  0  0
 13  8  1  0  0  0  0
 15  2  1  0  0  0  0
 16 17  1  0  0  0  0
 16 23  1  1  0  0  0
 17 15  1  6  0  0  0
 18 19  1  0  0  0  0
 18 17  1  0  0  0  0
 20 21  1  0  0  0  0
 20 18  1  0  0  0  0
 21 16  1  0  0  0  0
 22 21  1  0  0  0  0
 23 24  1  0  0  0  0
M  END
>  <minimizedAffinity>
-4.45614624

$$$$

 OpenBabel03272503473D

 24 25  0  0  1  0  0  0  0  0999 V2000
   36.9420   26.0090   35.7390 O   0  0  0  0  0  0  0  0  0  0  0  0
   38.3850   26.1840   35.3370 P   0  0  2  0  0  0  0  0  0  0  0  0
   38.9440   27.5910   36.1060 O   0  0  0  0  0  0  0  0  0  0  0  0
   39.9280   27.6370   36.1370 H   0  0  0  0  0  0  0  0  0  0  0  0
   38.5630   26.3670   33.6320 O   0  0  0  0  0  0  0  0  0  0  0  0
   37.5290   26.1100   32.7550 C   0  0  0  0  0  0  0  0  0  0  0  0
   37.0780   24.8430   32.3710 C   0  0  0  0  0  0  0  0  0  0  0  0
   36.0190   24.7580   31.4740 C   0  0  0  0  0  0  0  0  0  0  0  0
   35.4590   25.9030   30.9990 N   0  0  0  0  0  0  0  0  0  0  0  0
   35.9270   27.1270   31.3970 C   0  0  0  0  0  0  0  0  0  0  0  0
   36.9590   27.2370   32.2720 N   0  0  0  0  0  0  0  0  0  0  0  0
   37.5920   24.0190   32.8080 H   0  0  0  0  0  0  0  0  0  0  0  0
   35.6790   23.7720   31.1860 H   0  0  0  0  0  0  0  0  0  0  0  0
   35.4130   27.9580   30.9610 H   0  0  0  0  0  0  0  0  0  0  0  0
   39.3470   24.8610   35.7580 O   0  0  0  0  0  0  0  0  0  0  0  0
   38.8660   22.5030   35.7250 C   0  0  1  0  0  3  0  0  0  0  0  0
   38.5290   23.8700   36.2480 C   0  0  1  0  0  3  0  0  0  0  0  0
   38.8400   23.7100   37.7250 C   0  0  0  0  0  3  0  0  0  0  0  0
   37.9530   23.2670   38.1950 H   0  0  0  0  0  0  0  0  0  0  0  0
   39.9680   22.9260   37.7540 O   0  0  0  0  0  0  0  0  0  0  0  0
   39.9050   22.0280   36.7030 C   0  0  0  0  0  3  0  0  0  0  0  0
   40.8560   21.9060   36.1480 H   0  0  0  0  0  0  0  0  0  0  0  0
   37.7440   21.6650   35.8390 O   0  0  0  0  0  0  0  0  0  0  0  0
   37.5870   21.1180   35.0400 H   0  0  0  0  0  0  0  0  0  0  0  0
  2  1  2  1  0  0  0
  2 15  1  0  0  0  0
  2  3  1  0  0  0  0
  3  4  1  0  0  0  0
  5  2  1  0  0  0  0
  6  5  1  0  0  0  0
  7  6  1  0  0  0  0
  7 12  1  0  0  0  0
  8  7  2  0  0  0  0
  9 10  2  0  0  0  0
  9  8  1  0  0  0  0
 10 11  1  0  0  0  0
 11  6  2  0  0  0  0
 13  8  1  0  0  0  0
 14 10  1  0  0  0  0
 16 23  1  1  0  0  0
 16 17  1  0  0  0  0
 16 21  1  0  0  0  0
 17 15  1  6  0  0  0
 17 18  1  0  0  0  0
 18 20  1  0  0  0  0
 18 19  1  0  0  0  0
 21 20  1  0  0  0  0
 22 21  1  0  0  0  0
 24 23  1  0  0  0  0
M  END
>  <minimizedAffinity>
-4.28457499

$$$$

 OpenBabel03272503473D

 24 25  0  0  1  0  0  0  0  0999 V2000
   35.0470   24.2810   30.8170 O   0  0  0  0  0  0  0  0  0  0  0  0
   36.4350   24.2860   31.4050 P   0  0  2  0  0  0  0  0  0  0  0  0
   37.5220   24.1710   30.1050 O   0  0  0  0  0  0  0  0  0  0  0  0
   38.4360   24.4470   30.3530 H   0  0  0  0  0  0  0  0  0  0  0  0
   36.6920   22.9570   32.4710 O   0  0  0  0  0  0  0  0  0  0  0  0
   36.3080   21.6710   32.1450 C   0  0  0  0  0  0  0  0  0  0  0  0
   35.4250   20.8710   32.8770 C   0  0  0  0  0  0  0  0  0  0  0  0
   35.1420   19.5920   32.4090 C   0  0  0  0  0  0  0  0  0  0  0  0
   35.7300   19.1630   31.2600 N   0  0  0  0  0  0  0  0  0  0  0  0
   36.5900   19.9740   30.5690 C   0  0  0  0  0  0  0  0  0  0  0  0
   36.8820   21.2260   31.0050 N   0  0  0  0  0  0  0  0  0  0  0  0
   35.0270   21.3130   33.7600 H   0  0  0  0  0  0  0  0  0  0  0  0
   34.4580   18.9840   32.9840 H   0  0  0  0  0  0  0  0  0  0  0  0
   36.9930   19.5340   29.6800 H   0  0  0  0  0  0  0  0  0  0  0  0
   36.7540   25.6720   32.3170 O   0  0  0  0  0  0  0  0  0  0  0  0
   36.1530   27.4100   30.7650 C   0  0  1  0  0  3  0  0  0  0  0  0
   37.2350   26.6440   31.4720 C   0  0  1  0  0  3  0  0  0  0  0  0
   37.8560   27.7300   32.3310 C   0  0  0  0  0  3  0  0  0  0  0  0
   38.5850   28.2600   31.7040 H   0  0  0  0  0  0  0  0  0  0  0  0
   36.7890   28.4870   32.7510 O   0  0  0  0  0  0  0  0  0  0  0  0
   35.8440   28.5120   31.7400 C   0  0  0  0  0  3  0  0  0  0  0  0
   34.8010   28.3730   32.0840 H   0  0  0  0  0  0  0  0  0  0  0  0
   36.6740   27.9930   29.5970 O   0  0  0  0  0  0  0  0  0  0  0  0
   36.0840   27.8950   28.8190 H   0  0  0  0  0  0  0  0  0  0  0  0
  2  1  2  6  0  0  0
  2 15  1  0  0  0  0
  2  5  1  0  0  0  0
  3  4  1  0  0  0  0
  3  2  1  0  0  0  0
  6  5  1  0  0  0  0
  6  7  1  0  0  0  0
  7 12  1  0  0  0  0
  8  7  2  0  0  0  0
  8 13  1  0  0  0  0
  9  8  1  0  0  0  0
 10 11  1  0  0  0  0
 10  9  2  0  0  0  0
 11  6  2  0  0  0  0
 14 10  1  0  0  0  0
 16 23  1  6  0  0  0
 16 17  1  0  0  0  0
 16 21  1  0  0  0  0
 17 15  1  1  0  0  0
 17 18  1  0  0  0  0
 18 20  1  0  0  0  0
 19 18  1  0  0  0  0
 21 22  1  0  0  0  0
 21 20  1  0  0  0  0
 24 23  1  0  0  0  0
M  END
>  <minimizedAffinity>
-4.24650621

$$$$

 OpenBabel03272503473D

 24 25  0  0  1  0  0  0  0  0999 V2000
   38.8620   27.5000   35.7050 O   0  0  0  0  0  0  0  0  0  0  0  0
   39.5430   26.6050   34.7000 P   0  0  2  0  0  0  0  0  0  0  0  0
   41.2110   26.7000   35.0060 O   0  0  0  0  0  0  0  0  0  0  0  0
   41.7110   25.9530   34.6010 H   0  0  0  0  0  0  0  0  0  0  0  0
   39.2400   27.1060   33.0790 O   0  0  0  0  0  0  0  0  0  0  0  0
   37.9840   27.0310   32.5110 C   0  0  0  0  0  0  0  0  0  0  0  0
   36.9800   27.9990   32.6160 C   0  0  0  0  0  0  0  0  0  0  0  0
   35.7650   27.7680   31.9790 C   0  0  0  0  0  0  0  0  0  0  0  0
   35.5930   26.6150   31.2790 N   0  0  0  0  0  0  0  0  0  0  0  0
   36.5980   25.6900   31.1970 C   0  0  0  0  0  0  0  0  0  0  0  0
   37.7940   25.8910   31.8090 N   0  0  0  0  0  0  0  0  0  0  0  0
   37.2290   28.8600   33.1900 H   0  0  0  0  0  0  0  0  0  0  0  0
   34.9970   28.5250   32.0690 H   0  0  0  0  0  0  0  0  0  0  0  0
   36.3530   24.8220   30.6210 H   0  0  0  0  0  0  0  0  0  0  0  0
   39.0190   25.0020   34.7890 O   0  0  0  0  0  0  0  0  0  0  0  0
   37.7910   24.1770   36.6870 C   0  0  1  0  0  3  0  0  0  0  0  0
   39.1090   24.5910   36.0980 C   0  0  1  0  0  3  0  0  0  0  0  0
   39.8670   23.2760   36.1120 C   0  0  0  0  0  3  0  0  0  0  0  0
   40.3030   23.1660   37.1140 H   0  0  0  0  0  0  0  0  0  0  0  0
   38.9240   22.3330   35.7810 O   0  0  0  0  0  0  0  0  0  0  0  0
   37.7080   22.7240   36.3120 C   0  0  0  0  0  3  0  0  0  0  0  0
   36.8480   22.6040   35.6250 H   0  0  0  0  0  0  0  0  0  0  0  0
   37.8530   24.2640   38.0890 O   0  0  0  0  0  0  0  0  0  0  0  0
   37.0570   24.6780   38.4870 H   0  0  0  0  0  0  0  0  0  0  0  0
  2 15  1  0  0  0  0
  2  3  1  0  0  0  0
  2  1  2  1  0  0  0
  4  3  1  0  0  0  0
  5  2  1  0  0  0  0
  6  7  1  0  0  0  0
  6  5  1  0  0  0  0
  7 12  1  0  0  0  0
  8 13  1  0  0  0  0
  8  7  2  0  0  0  0
  9  8  1  0  0  0  0
 10  9  2  0  0  0  0
 10 11  1  0  0  0  0
 11  6  2  0  0  0  0
 14 10  1  0  0  0  0
 16 23  1  1  0  0  0
 17 15  1  6  0  0  0
 17 18  1  0  0  0  0
 17 16  1  0  0  0  0
 18 19  1  0  0  0  0
 20 18  1  0  0  0  0
 20 21  1  0  0  0  0
 21 16  1  0  0  0  0
 22 21  1  0  0  0  0
 23 24  1  0  0  0  0
M  END
>  <minimizedAffinity>
-4.23196554

$$$$

 OpenBabel03272503473D

 24 25  0  0  1  0  0  0  0  0999 V2000
   40.3600   26.7720   34.9740 O   0  0  0  0  0  0  0  0  0  0  0  0
   39.7600   25.3960   34.8270 P   0  0  2  0  0  0  0  0  0  0  0  0
   41.0530   24.3130   34.6250 O   0  0  0  0  0  0  0  0  0  0  0  0
   40.7920   23.3790   34.8010 H   0  0  0  0  0  0  0  0  0  0  0  0
   38.7170   25.2890   33.4590 O   0  0  0  0  0  0  0  0  0  0  0  0
   38.1700   26.4080   32.8650 C   0  0  0  0  0  0  0  0  0  0  0  0
   38.6500   27.0400   31.7130 C   0  0  0  0  0  0  0  0  0  0  0  0
   37.9790   28.1630   31.2410 C   0  0  0  0  0  0  0  0  0  0  0  0
   36.8840   28.6100   31.9120 N   0  0  0  0  0  0  0  0  0  0  0  0
   36.4420   27.9660   33.0360 C   0  0  0  0  0  0  0  0  0  0  0  0
   37.0790   26.8680   33.5170 N   0  0  0  0  0  0  0  0  0  0  0  0
   39.5150   26.6000   31.2730 H   0  0  0  0  0  0  0  0  0  0  0  0
   38.3610   28.6410   30.3490 H   0  0  0  0  0  0  0  0  0  0  0  0
   35.5720   28.4030   33.4820 H   0  0  0  0  0  0  0  0  0  0  0  0
   38.8190   24.9470   36.1570 O   0  0  0  0  0  0  0  0  0  0  0  0
   39.2130   23.3990   37.9570 C   0  0  1  0  0  3  0  0  0  0  0  0
   39.1200   23.6450   36.4780 C   0  0  1  0  0  3  0  0  0  0  0  0
   37.9180   22.7940   36.1090 C   0  0  0  0  0  3  0  0  0  0  0  0
   38.2830   21.7690   35.9580 H   0  0  0  0  0  0  0  0  0  0  0  0
   37.0500   22.9540   37.1620 O   0  0  0  0  0  0  0  0  0  0  0  0
   37.7890   23.0850   38.3250 C   0  0  0  0  0  3  0  0  0  0  0  0
   37.4350   23.8840   39.0050 H   0  0  0  0  0  0  0  0  0  0  0  0
   39.9890   22.2530   38.1980 O   0  0  0  0  0  0  0  0  0  0  0  0
   40.6340   22.3680   38.9290 H   0  0  0  0  0  0  0  0  0  0  0  0
  2  1  2  1  0  0  0
  2 15  1  0  0  0  0
  3  4  1  0  0  0  0
  3  2  1  0  0  0  0
  5  2  1  0  0  0  0
  6  5  1  0  0  0  0
  6 11  1  0  0  0  0
  7  6  2  0  0  0  0
  8  7  1  0  0  0  0
  8  9  2  0  0  0  0
  9 10  1  0  0  0  0
 10 14  1  0  0  0  0
 10 11  2  0  0  0  0
 12  7  1  0  0  0  0
 13  8  1  0  0  0  0
 16 23  1  6  0  0  0
 16 21  1  0  0  0  0
 17 15  1  1  0  0  0
 17 16  1  0  0  0  0
 18 17  1  0  0  0  0
 18 20  1  0  0  0  0
 19 18  1  0  0  0  0
 20 21  1  0  0  0  0
 21 22  1  0  0  0  0
 23 24  1  0  0  0  0
M  END
>  <minimizedAffinity>
-4.17321634

$$$$

 OpenBabel03272503473D

 24 25  0  0  1  0  0  0  0  0999 V2000
   38.2340   27.8040   31.7840 O   0  0  0  0  0  0  0  0  0  0  0  0
   36.9920   26.9930   32.0550 P   0  0  2  0  0  0  0  0  0  0  0  0
   36.7790   25.9590   30.7240 O   0  0  0  0  0  0  0  0  0  0  0  0
   36.1740   25.2070   30.9250 H   0  0  0  0  0  0  0  0  0  0  0  0
   35.5950   27.9870   32.2240 O   0  0  0  0  0  0  0  0  0  0  0  0
   35.6210   29.1760   32.9240 C   0  0  0  0  0  0  0  0  0  0  0  0
   35.5560   29.3090   34.3140 C   0  0  0  0  0  0  0  0  0  0  0  0
   35.5950   30.5860   34.8640 C   0  0  0  0  0  0  0  0  0  0  0  0
   35.6940   31.6600   34.0350 N   0  0  0  0  0  0  0  0  0  0  0  0
   35.7560   31.4930   32.6780 C   0  0  0  0  0  0  0  0  0  0  0  0
   35.7190   30.2570   32.1170 N   0  0  0  0  0  0  0  0  0  0  0  0
   35.4810   28.3980   34.8600 H   0  0  0  0  0  0  0  0  0  0  0  0
   35.5450   30.6740   35.9400 H   0  0  0  0  0  0  0  0  0  0  0  0
   35.8330   32.4060   32.1240 H   0  0  0  0  0  0  0  0  0  0  0  0
   37.0940   26.0980   33.4840 O   0  0  0  0  0  0  0  0  0  0  0  0
   37.8840   26.7610   35.6590 C   0  0  1  0  0  3  0  0  0  0  0  0
   38.1760   26.5510   34.2010 C   0  0  1  0  0  3  0  0  0  0  0  0
   39.1890   25.4220   34.2600 C   0  0  0  0  0  3  0  0  0  0  0  0
   40.1720   25.8780   34.4330 H   0  0  0  0  0  0  0  0  0  0  0  0
   38.7370   24.6100   35.2720 O   0  0  0  0  0  0  0  0  0  0  0  0
   38.1550   25.4030   36.2440 C   0  0  0  0  0  3  0  0  0  0  0  0
   37.1980   25.0130   36.6420 H   0  0  0  0  0  0  0  0  0  0  0  0
   38.8140   27.6650   36.2010 O   0  0  0  0  0  0  0  0  0  0  0  0
   38.4030   28.3390   36.7850 H   0  0  0  0  0  0  0  0  0  0  0  0
  2  1  2  6  0  0  0
  2  5  1  0  0  0  0
  2 15  1  0  0  0  0
  3  4  1  0  0  0  0
  3  2  1  0  0  0  0
  5  6  1  0  0  0  0
  6  7  1  0  0  0  0
  7 12  1  0  0  0  0
  7  8  2  0  0  0  0
  8 13  1  0  0  0  0
  9  8  1  0  0  0  0
 10  9  2  0  0  0  0
 11 10  1  0  0  0  0
 11  6  2  0  0  0  0
 14 10  1  0  0  0  0
 16 23  1  1  0  0  0
 16 21  1  0  0  0  0
 17 15  1  6  0  0  0
 17 18  1  0  0  0  0
 17 16  1  0  0  0  0
 18 19  1  0  0  0  0
 18 20  1  0  0  0  0
 20 21  1  0  0  0  0
 21 22  1  0  0  0  0
 23 24  1  0  0  0  0
M  END
>  <minimizedAffinity>
-4.06338549

$$$$

 OpenBabel03272503473D

 24 25  0  0  1  0  0  0  0  0999 V2000
   37.1030   23.8770   32.5540 O   0  0  0  0  0  0  0  0  0  0  0  0
   38.2540   23.4180   33.4140 P   0  0  2  0  0  0  0  0  0  0  0  0
   39.1750   22.3450   32.4740 O   0  0  0  0  0  0  0  0  0  0  0  0
   40.0830   22.2120   32.8350 H   0  0  0  0  0  0  0  0  0  0  0  0
   37.7160   22.6030   34.8340 O   0  0  0  0  0  0  0  0  0  0  0  0
   38.3540   22.7480   36.0490 C   0  0  0  0  0  0  0  0  0  0  0  0
   39.6610   22.3440   36.3410 C   0  0  0  0  0  0  0  0  0  0  0  0
   40.1550   22.5650   37.6220 C   0  0  0  0  0  0  0  0  0  0  0  0
   39.3570   23.1630   38.5460 N   0  0  0  0  0  0  0  0  0  0  0  0
   38.0820   23.5460   38.2250 C   0  0  0  0  0  0  0  0  0  0  0  0
   37.5760   23.3420   36.9820 N   0  0  0  0  0  0  0  0  0  0  0  0
   40.1910   21.8860   35.5390 H   0  0  0  0  0  0  0  0  0  0  0  0
   41.1670   22.2470   37.8340 H   0  0  0  0  0  0  0  0  0  0  0  0
   37.5450   24.0080   39.0280 H   0  0  0  0  0  0  0  0  0  0  0  0
   39.2150   24.6970   33.9580 O   0  0  0  0  0  0  0  0  0  0  0  0
   37.7910   26.3330   35.0000 C   0  0  1  0  0  3  0  0  0  0  0  0
   38.5200   25.8690   33.7720 C   0  0  1  0  0  3  0  0  0  0  0  0
   39.5380   26.9800   33.5910 C   0  0  0  0  0  3  0  0  0  0  0  0
   39.0400   27.7880   33.0400 H   0  0  0  0  0  0  0  0  0  0  0  0
   39.9250   27.3010   34.8700 O   0  0  0  0  0  0  0  0  0  0  0  0
   38.8350   27.1500   35.7090 C   0  0  0  0  0  3  0  0  0  0  0  0
   39.0610   26.6440   36.6680 H   0  0  0  0  0  0  0  0  0  0  0  0
   36.7420   27.1920   34.6290 O   0  0  0  0  0  0  0  0  0  0  0  0
   35.9040   27.0090   35.1070 H   0  0  0  0  0  0  0  0  0  0  0  0
  2  1  2  6  0  0  0
  2 15  1  0  0  0  0
  2  5  1  0  0  0  0
  3  4  1  0  0  0  0
  3  2  1  0  0  0  0
  5  6  1  0  0  0  0
  6  7  2  0  0  0  0
  6 11  1  0  0  0  0
  7  8  1  0  0  0  0
  8 13  1  0  0  0  0
  8  9  2  0  0  0  0
 10  9  1  0  0  0  0
 10 14  1  0  0  0  0
 11 10  2  0  0  0  0
 12  7  1  0  0  0  0
 16 23  1  6  0  0  0
 16 21  1  0  0  0  0
 17 15  1  1  0  0  0
 17 16  1  0  0  0  0
 18 17  1  0  0  0  0
 18 20  1  0  0  0  0
 19 18  1  0  0  0  0
 20 21  1  0  0  0  0
 21 22  1  0  0  0  0
 23 24  1  0  0  0  0
M  END
>  <minimizedAffinity>
-4.04199648

$$$$
