REMARK  Name = 
REMARK  3 active torsions:
REMARK  status: ('A' for Active; 'I' for Inactive)
REMARK    1  A    between atoms: C_5  and  S_7
REMARK    2  A    between atoms: S_7  and  C_13
REMARK    3  A    between atoms: O_11  and  C_12
REMARK                            x       y       z     vdW  Elec       q    Type
REMARK                         _______ _______ _______ _____ _____    ______ ____
ROOT
ATOM      1  S   UNL     1      34.540  28.245  49.288  0.00  0.00    +0.000 S 
ENDROOT
BRANCH   1   6
ATOM      2  C   UNL     1      37.265  30.178  51.410  0.00  0.00    +0.000 A 
ATOM      3  C   UNL     1      38.120  30.761  50.473  0.00  0.00    +0.000 A 
ATOM      4  C   UNL     1      37.846  30.548  49.115  0.00  0.00    +0.000 A 
ATOM      5  N   UNL     1      36.759  29.786  48.799  0.00  0.00    +0.000 NA
ATOM      6  C   UNL     1      35.963  29.244  49.725  0.00  0.00    +0.000 A 
ATOM      7  N   UNL     1      36.209  29.436  51.023  0.00  0.00    +0.000 NA
ATOM      8  H   UNL     1      37.462  30.332  52.465  0.00  0.00    +0.000 HD
ATOM      9  H   UNL     1      38.973  31.361  50.783  0.00  0.00    +0.000 HD
ATOM     10  H   UNL     1      38.493  30.989  48.369  0.00  0.00    +0.000 HD
ENDBRANCH   1   6
BRANCH   1  12
ATOM     11  C   UNL     1      35.658  27.550  46.832  0.00  0.00    +0.000 C 
ATOM     12  C   UNL     1      34.458  28.160  47.522  0.00  0.00    +0.000 C 
ATOM     13  C   UNL     1      34.482  29.525  46.844  0.00  0.00    +0.000 C 
ATOM     14  H   UNL     1      33.502  30.025  47.000  0.00  0.00    +0.000 HD
ATOM     15  O   UNL     1      34.784  29.275  45.512  0.00  0.00    +0.000 OA
ATOM     16  C   UNL     1      35.295  27.988  45.408  0.00  0.00    +0.000 C 
ATOM     17  H   UNL     1      36.108  27.863  44.696  0.00  0.00    +0.000 HD
BRANCH  11  18
ATOM     18  O   UNL     1      35.668  26.175  46.840  0.00  0.00    +0.000 OA
ATOM     19  H   UNL     1      35.240  25.844  47.675  0.00  0.00    +0.000 HD
ENDBRANCH  11  18
ENDBRANCH   1  12
TORSDOF 3
