
 OpenBabel03272506403D

 19 20  0  0  1  0  0  0  0  0999 V2000
   34.6650   28.1130   49.3030 S   0  0  0  0  0  0  0  0  0  0  0  0
   37.2520   30.3850   51.2560 C   0  0  0  0  0  0  0  0  0  0  0  0
   38.1140   30.8880   50.2800 C   0  0  0  0  0  0  0  0  0  0  0  0
   37.8900   30.5080   48.9490 C   0  0  0  0  0  0  0  0  0  0  0  0
   36.8420   29.6730   48.6960 N   0  0  0  0  0  0  0  0  0  0  0  0
   36.0370   29.2110   49.6580 C   0  0  0  0  0  0  0  0  0  0  0  0
   36.2360   29.5620   50.9300 N   0  0  0  0  0  0  0  0  0  0  0  0
   37.4110   30.6690   52.2900 H   0  0  0  0  0  0  0  0  0  0  0  0
   38.9350   31.5530   50.5400 H   0  0  0  0  0  0  0  0  0  0  0  0
   38.5440   30.8850   48.1740 H   0  0  0  0  0  0  0  0  0  0  0  0
   33.9470   28.2790   46.6160 C   0  0  2  0  0  3  0  0  0  0  0  0
   33.7110   28.8390   48.0010 C   0  0  2  0  0  3  0  0  0  0  0  0
   34.0720   30.2930   47.7180 C   0  0  0  0  0  3  0  0  0  0  0  0
   33.6840   30.9300   48.5410 H   0  0  0  0  0  0  0  0  0  0  0  0
   33.5250   30.5780   46.4740 O   0  0  0  0  0  0  0  0  0  0  0  0
   33.2120   29.3810   45.8430 C   0  0  0  0  0  3  0  0  0  0  0  0
   33.3950   29.3550   44.7710 H   0  0  0  0  0  0  0  0  0  0  0  0
   33.2810   27.1010   46.3690 O   0  0  0  0  0  0  0  0  0  0  0  0
   33.2120   26.5760   47.2110 H   0  0  0  0  0  0  0  0  0  0  0  0
  1  6  1  0  0  0  0
  2  8  1  0  0  0  0
  3  9  1  0  0  0  0
  3  2  2  0  0  0  0
  4  3  1  0  0  0  0
  5  4  2  0  0  0  0
  5  6  1  0  0  0  0
  6  7  2  0  0  0  0
  7  2  1  0  0  0  0
 10  4  1  0  0  0  0
 11 18  1  1  0  0  0
 11 12  1  0  0  0  0
 12  1  1  1  0  0  0
 13 12  1  0  0  0  0
 13 14  1  0  0  0  0
 15 13  1  0  0  0  0
 16 15  1  0  0  0  0
 16 11  1  0  0  0  0
 17 16  1  0  0  0  0
 18 19  1  0  0  0  0
M  END
>  <minimizedAffinity>
-3.74282289

>  <minimizedRMSD>
1.37251985

$$$$
