
 OpenBabel03262520333D

 29 30  0  0  1  0  0  0  0  0999 V2000
   32.5560   27.1190   48.4660 O   0  0  0  0  0  0  0  0  0  0  0  0
   33.2740   27.8540   47.5310 C   0  0  0  0  0  0  0  0  0  0  0  0
   32.6640   28.5310   46.9310 H   0  0  0  0  0  0  0  0  0  0  0  0
   33.7380   27.1020   46.8360 H   0  0  0  0  0  0  0  0  0  0  0  0
   34.8710   28.3800   49.3460 C   0  0  0  0  0  0  0  0  0  0  0  0
   34.4010   28.5770   48.1630 C   0  0  0  0  0  0  0  0  0  0  0  0
   37.2700   30.1550   51.4730 C   0  0  0  0  0  0  0  0  0  0  0  0
   38.1260   30.7500   50.5190 C   0  0  0  0  0  0  0  0  0  0  0  0
   37.8600   30.5290   49.1550 C   0  0  0  0  0  0  0  0  0  0  0  0
   36.7710   29.7370   48.8560 N   0  0  0  0  0  0  0  0  0  0  0  0
   35.9950   29.2000   49.7930 C   0  0  0  0  0  0  0  0  0  0  0  0
   36.2450   29.4100   51.0940 N   0  0  0  0  0  0  0  0  0  0  0  0
   37.5340   30.3700   52.5010 H   0  0  0  0  0  0  0  0  0  0  0  0
   38.9660   31.3620   50.7600 H   0  0  0  0  0  0  0  0  0  0  0  0
   38.4510   30.9360   48.3540 H   0  0  0  0  0  0  0  0  0  0  0  0
   30.1970   26.3940   47.7870 O   0  0  0  0  0  0  0  0  0  0  0  0
   30.9140   27.5910   48.3990 P   0  0  2  0  0  0  0  0  0  0  0  0
   30.8080   28.9390   47.3780 O   0  0  0  0  0  0  0  0  0  0  0  0
   30.7450   28.6810   46.4330 H   0  0  0  0  0  0  0  0  0  0  0  0
   30.3200   27.9250   49.9430 O   0  0  0  0  0  0  0  0  0  0  0  0
   28.0170   28.6690   49.7900 C   0  0  1  0  0  0  0  0  0  0  0  0
   28.9670   27.5270   49.9290 C   0  0  2  0  0  0  0  0  0  0  0  0
   28.5850   26.9730   51.3070 C   0  0  0  0  0  0  0  0  0  0  0  0
   29.1190   27.5240   52.0990 H   0  0  0  0  0  0  0  0  0  0  0  0
   27.2150   27.1090   51.3200 O   0  0  0  0  0  0  0  0  0  0  0  0
   26.8900   28.2970   50.7170 C   0  0  0  0  0  0  0  0  0  0  0  0
   26.6230   29.1010   51.4370 H   0  0  0  0  0  0  0  0  0  0  0  0
   28.5420   29.8700   50.2620 O   0  0  0  0  0  0  0  0  0  0  0  0
   28.8540   29.7350   51.1960 H   0  0  0  0  0  0  0  0  0  0  0  0
  2  6  1  0  0  0  0
  2  1  1  0  0  0  0
  3  2  1  0  0  0  0
  4  2  1  0  0  0  0
  5 11  1  0  0  0  0
  6  5  2  0  0  0  0
  7 13  1  0  0  0  0
  8 14  1  0  0  0  0
  8  7  2  0  0  0  0
  9  8  1  0  0  0  0
 10  9  2  0  0  0  0
 10 11  1  0  0  0  0
 11 12  2  0  0  0  0
 12  7  1  0  0  0  0
 15  9  1  0  0  0  0
 17 16  2  6  0  0  0
 17  1  1  0  0  0  0
 17 20  1  0  0  0  0
 18 17  1  0  0  0  0
 19 18  1  0  0  0  0
 21 22  1  0  0  0  0
 21 28  1  1  0  0  0
 21 26  1  0  0  0  0
 22 20  1  1  0  0  0
 22 23  1  0  0  0  0
 23 25  1  0  0  0  0
 23 24  1  0  0  0  0
 26 25  1  0  0  0  0
 26 27  1  0  0  0  0
 28 29  1  0  0  0  0
M  END
>  <minimizedAffinity>
-6.07559633

>  <minimizedRMSD>
1.14664435

$$$$
