
     RDKit          3D

 46 48  0  0  0  0  0  0  0  0999 V2000
   37.6532   30.4519   48.5159 Cl  0  0  0  0  0  0  0  0  0  0  0  0
   36.4818   30.3066   47.2064 C   0  0  0  0  0  0  0  0  0  0  0  0
   36.8370   30.6961   45.9509 C   0  0  0  0  0  0  0  0  0  0  0  0
   35.9377   30.5885   44.9264 C   0  0  0  0  0  0  0  0  0  0  0  0
   34.6777   30.0825   45.1906 C   0  0  0  0  0  0  0  0  0  0  0  0
   34.3652   29.6978   46.4961 C   0  0  0  0  0  0  0  0  0  0  0  0
   35.2459   29.7972   47.5285 C   0  0  0  0  0  0  0  0  0  0  0  0
   39.8443   32.8446   45.9621 C   0  0  0  0  0  0  0  0  0  0  0  0
   40.7001   32.1101   45.0864 C   0  0  0  0  0  0  0  0  0  0  0  0
   40.2103   30.9140   44.5325 C   0  0  0  0  0  0  0  0  0  0  0  0
   38.9524   30.5090   44.8506 N   0  0  0  0  0  0  0  0  0  0  0  0
   38.1678   31.2291   45.6838 C   0  0  0  0  0  0  0  0  0  0  0  0
   38.6179   32.3756   46.2237 N   0  0  0  0  0  0  0  0  0  0  0  0
   41.0765   30.2172   43.6767 N   0  0  0  0  0  0  0  0  0  0  0  0
   34.9035   29.3998   48.8755 C   0  0  0  0  0  0  0  0  0  0  0  0
   34.1977   28.1415   49.0941 C   0  0  0  0  0  0  0  0  0  0  0  0
   32.8828   28.3410   49.4306 O   0  0  0  0  0  0  0  0  0  0  0  0
   32.6312   26.6058   47.4633 O   0  0  0  0  0  0  0  0  0  0  0  0
   31.8647   27.5544   48.3526 P   0  0  2  0  0  0  0  0  0  0  0  0
   31.1012   28.7853   47.4331 O   0  0  0  0  0  0  0  0  0  0  0  0
   30.6651   26.7010   49.1321 O   0  0  0  0  0  0  0  0  0  0  0  0
   36.2579   30.9117   43.9272 H   0  0  0  0  0  0  0  0  0  0  0  0
   34.0478   30.0414   44.3090 H   0  0  0  0  0  0  0  0  0  0  0  0
   33.3920   29.3514   46.4901 H   0  0  0  0  0  0  0  0  0  0  0  0
   40.1797   33.7533   46.3999 H   0  0  0  0  0  0  0  0  0  0  0  0
   41.6811   32.5091   44.8927 H   0  0  0  0  0  0  0  0  0  0  0  0
   42.1017   30.2655   43.7997 H   0  0  0  0  0  0  0  0  0  0  0  0
   40.6273   29.6485   42.9104 H   0  0  0  0  0  0  0  0  0  0  0  0
   34.2838   30.2390   49.3124 H   0  0  0  0  0  0  0  0  0  0  0  0
   35.8221   29.4101   49.4981 H   0  0  0  0  0  0  0  0  0  0  0  0
   34.2597   27.5165   48.1716 H   0  0  0  0  0  0  0  0  0  0  0  0
   34.6502   27.5248   49.8997 H   0  0  0  0  0  0  0  0  0  0  0  0
   30.7800   28.4254   46.5700 H   0  0  0  0  0  0  0  0  0  0  0  0
   28.3857   27.9940   46.7261 O   0  0  0  0  0  0  0  0  0  0  0  0
   29.5182   27.8861   47.5005 C   0  0  2  0  0  0  0  0  0  0  0  0
   29.4521   26.6942   48.4634 C   0  0  2  0  0  0  0  0  0  0  0  0
   28.3993   27.2311   49.4098 C   0  0  1  0  0  0  0  0  0  0  0  0
   27.3929   27.2340   48.9134 H   0  0  0  0  0  0  0  0  0  0  0  0
   28.7291   28.5672   49.5837 O   0  0  0  0  0  0  0  0  0  0  0  0
   29.4930   28.9981   48.5294 C   0  0  2  0  0  0  0  0  0  0  0  0
   29.2422   29.9700   48.1057 H   0  0  0  0  0  0  0  0  0  0  0  0
   28.2711   27.2381   46.0977 H   0  0  0  0  0  0  0  0  0  0  0  0
   30.4553   27.8553   46.9087 H   0  0  0  0  0  0  0  0  0  0  0  0
   29.1898   25.7695   47.9567 H   0  0  0  0  0  0  0  0  0  0  0  0
   28.3712   26.6727   50.3711 H   0  0  0  0  0  0  0  0  0  0  0  0
   30.5594   29.0694   48.8918 H   0  0  0  0  0  0  0  0  0  0  0  0
  2  7  2  0
  2  1  1  0
  3  2  1  0
  4  5  1  0
  4  3  2  0
  5  6  2  0
  6  7  1  0
  7 15  1  0
  8 13  2  0
  9  8  1  0
 10 11  1  0
 10  9  2  0
 11 12  2  0
 12  3  1  0
 12 13  1  0
 14 10  1  0
 15 16  1  0
 16 17  1  0
 18 19  2  0
 19 21  1  1
 19 17  1  0
 20 19  1  0
  4 22  1  0
  5 23  1  0
  6 24  1  0
  8 25  1  0
  9 26  1  0
 14 27  1  0
 14 28  1  0
 15 29  1  0
 15 30  1  0
 16 31  1  0
 16 32  1  0
 20 33  1  0
 34 35  1  0
 35 36  1  0
 36 37  1  0
 37 38  1  6
 37 39  1  0
 39 40  1  0
 40 41  1  6
 40 35  1  0
 34 42  1  0
 35 43  1  6
 36 44  1  6
 37 45  1  0
 40 46  1  0
 21 36  1  0
M  ISO  8  22  14  23  14  24  14  25  14  26  14  29   8  30   8  31   8
M  ISO  4  32   8  33   3  38  15  41  16
M  END
>  <DihAtoms>  (1) 
18,20,35,34

>  <DihDeg>  (1) 
-124.78830534664993

$$$$
