
 OpenBabel03262521423D

 30 32  0  0  1  0  0  0  0  0999 V2000
   38.8190   31.4230   47.2910 C   0  0  1  0  0  0  0  0  0  0  0  0
   37.9830   30.1760   46.9740 C   0  0  2  0  0  0  0  0  0  0  0  0
   37.7080   30.5250   45.5280 C   0  0  0  0  0  0  0  0  0  0  0  0
   38.9210   30.9630   45.0170 O   0  0  0  0  0  0  0  0  0  0  0  0
   39.7190   31.3870   46.0420 C   0  0  0  0  0  0  0  0  0  0  0  0
   39.4140   31.2430   48.2010 H   0  0  0  0  0  0  0  0  0  0  0  0
   38.6550   29.3040   47.0320 H   0  0  0  0  0  0  0  0  0  0  0  0
   37.3100   29.6530   44.9740 H   0  0  0  0  0  0  0  0  0  0  0  0
   36.9900   31.3520   45.4290 H   0  0  0  0  0  0  0  0  0  0  0  0
   40.0880   32.4170   45.8370 H   0  0  0  0  0  0  0  0  0  0  0  0
   40.5990   30.7160   46.2210 H   0  0  0  0  0  0  0  0  0  0  0  0
   36.7840   30.0830   47.8150 C   0  0  0  0  0  0  0  0  0  0  0  0
   36.8860   29.6560   49.1470 C   0  0  0  0  0  0  0  0  0  0  0  0
   35.7020   29.5700   49.8840 C   0  0  0  0  0  0  0  0  0  0  0  0
   34.5220   29.9020   49.2740 N   0  0  0  0  0  0  0  0  0  0  0  0
   34.4590   30.3160   47.9700 C   0  0  0  0  0  0  0  0  0  0  0  0
   35.6040   30.4010   47.2520 N   0  0  0  0  0  0  0  0  0  0  0  0
   37.8270   29.4020   49.5980 H   0  0  0  0  0  0  0  0  0  0  0  0
   35.6880   29.2510   50.9180 H   0  0  0  0  0  0  0  0  0  0  0  0
   33.4810   30.5560   47.5770 H   0  0  0  0  0  0  0  0  0  0  0  0
   38.1000   32.5660   47.2300 O   0  0  0  0  0  0  0  0  0  0  0  0
   39.6870   33.7690   48.4840 C   0  0  2  0  0  3  0  0  0  0  0  0
   38.2140   33.4500   48.2680 C   0  0  2  0  0  3  0  0  0  0  0  0
   37.8870   32.8440   49.6160 C   0  0  0  0  0  3  0  0  0  0  0  0
   36.8200   32.8020   49.8310 H   0  0  0  0  0  0  0  0  0  0  0  0
   38.4760   33.7730   50.4790 O   0  0  0  0  0  0  0  0  0  0  0  0
   39.7250   34.0670   49.9640 C   0  0  0  0  0  3  0  0  0  0  0  0
   40.0010   35.1130   50.1700 H   0  0  0  0  0  0  0  0  0  0  0  0
   40.0400   34.8870   47.7570 O   0  0  0  0  0  0  0  0  0  0  0  0
   41.0130   34.8200   47.5580 H   0  0  0  0  0  0  0  0  0  0  0  0
  1  6  1  1  0  0  0
  2  7  1  1  0  0  0
  2  1  1  0  0  0  0
  2 12  1  0  0  0  0
  3  2  1  0  0  0  0
  4  3  1  0  0  0  0
  4  5  1  0  0  0  0
  5 11  1  0  0  0  0
  5  1  1  0  0  0  0
  8  3  1  0  0  0  0
  9  3  1  0  0  0  0
 10  5  1  0  0  0  0
 12 13  1  0  0  0  0
 13 18  1  0  0  0  0
 13 14  2  0  0  0  0
 14 19  1  0  0  0  0
 15 14  1  0  0  0  0
 16 15  2  0  0  0  0
 17 12  2  0  0  0  0
 17 16  1  0  0  0  0
 20 16  1  0  0  0  0
 21  1  1  0  0  0  0
 22 29  1  6  0  0  0
 22 27  1  0  0  0  0
 23 21  1  6  0  0  0
 23 22  1  0  0  0  0
 23 24  1  0  0  0  0
 24 25  1  0  0  0  0
 24 26  1  0  0  0  0
 27 28  1  0  0  0  0
 27 26  1  0  0  0  0
 30 29  1  0  0  0  0
M  END
>  <minimizedAffinity>
-3.08021927

>  <minimizedRMSD>
1.42013931

$$$$
