REMARK  Name = 
REMARK  4 active torsions:
REMARK  status: ('A' for Active; 'I' for Inactive)
REMARK    1  A    between atoms: C_1  and  C_8
REMARK    2  A    between atoms: C_7  and  O_12
REMARK    3  A    between atoms: O_12  and  C_24
REMARK    4  A    between atoms: O_22  and  C_23
REMARK                            x       y       z     vdW  Elec       q    Type
REMARK                         _______ _______ _______ _____ _____    ______ ____
ROOT
ATOM      1  C   UNL     1      38.920  32.334  48.092  0.00  0.00    +0.000 C 
ATOM      2  C   UNL     1      38.262  30.986  47.771  0.00  0.00    +0.000 C 
ATOM      3  C   UNL     1      37.578  31.435  46.499  0.00  0.00    +0.000 C 
ATOM      4  O   UNL     1      38.529  32.171  45.808  0.00  0.00    +0.000 OA
ATOM      5  C   UNL     1      39.472  32.630  46.685  0.00  0.00    +0.000 C 
ATOM      6  H   UNL     1      39.746  32.178  48.805  0.00  0.00    +0.000 HD
ATOM      7  H   UNL     1      39.068  30.272  47.536  0.00  0.00    +0.000 HD
ATOM      8  H   UNL     1      37.212  30.569  45.913  0.00  0.00    +0.000 HD
ATOM      9  H   UNL     1      36.725  32.101  46.697  0.00  0.00    +0.000 HD
ATOM     10  H   UNL     1      39.593  33.731  46.572  0.00  0.00    +0.000 HD
ATOM     11  H   UNL     1      40.471  32.141  46.552  0.00  0.00    +0.000 HD
ENDROOT
BRANCH   2  12
ATOM     12  C   UNL     1      37.346  30.550  48.831  0.00  0.00    +0.000 A 
ATOM     13  C   UNL     1      37.849  29.977  50.008  0.00  0.00    +0.000 A 
ATOM     14  C   UNL     1      36.920  29.564  50.967  0.00  0.00    +0.000 A 
ATOM     15  N   UNL     1      35.586  29.738  50.709  0.00  0.00    +0.000 NA
ATOM     16  C   UNL     1      35.130  30.302  49.547  0.00  0.00    +0.000 A 
ATOM     17  N   UNL     1      36.027  30.704  48.615  0.00  0.00    +0.000 NA
ATOM     18  H   UNL     1      38.901  29.853  50.183  0.00  0.00    +0.000 HD
ATOM     19  H   UNL     1      37.219  29.113  51.904  0.00  0.00    +0.000 HD
ATOM     20  H   UNL     1      34.059  30.397  49.434  0.00  0.00    +0.000 HD
ENDBRANCH   2  12
BRANCH   1  21
ATOM     21  O   UNL     1      38.021  33.302  48.378  0.00  0.00    +0.000 OA
BRANCH  21  23
ATOM     22  C   UNL     1      39.682  34.317  49.701  0.00  0.00    +0.000 C 
ATOM     23  C   UNL     1      38.198  34.020  49.529  0.00  0.00    +0.000 C 
ATOM     24  C   UNL     1      37.954  33.213  50.787  0.00  0.00    +0.000 C 
ATOM     25  H   UNL     1      36.903  33.128  51.057  0.00  0.00    +0.000 HD
ATOM     26  O   UNL     1      38.595  34.006  51.744  0.00  0.00    +0.000 OA
ATOM     27  C   UNL     1      39.810  34.387  51.205  0.00  0.00    +0.000 C 
ATOM     28  H   UNL     1      40.098  35.394  51.550  0.00  0.00    +0.000 HD
BRANCH  22  29
ATOM     29  O   UNL     1      39.988  35.536  49.133  0.00  0.00    +0.000 OA
ATOM     30  H   UNL     1      40.947  35.510  48.868  0.00  0.00    +0.000 HD
ENDBRANCH  22  29
ENDBRANCH  21  23
ENDBRANCH   1  21
TORSDOF 4
