
     RDKit          3D

 34 36  0  0  0  0  0  0  0  0999 V2000
   37.3460   30.5498   48.8313 C   0  0  0  0  0  0  0  0  0  0  0  0
   37.8495   29.9774   50.0075 C   0  0  0  0  0  0  0  0  0  0  0  0
   36.9198   29.5642   50.9671 C   0  0  0  0  0  0  0  0  0  0  0  0
   35.5856   29.7383   50.7087 N   0  0  0  0  0  0  0  0  0  0  0  0
   35.1302   30.3019   49.5465 C   0  0  0  0  0  0  0  0  0  0  0  0
   36.0274   30.7037   48.6154 N   0  0  0  0  0  0  0  0  0  0  0  0
   38.9203   32.3335   48.0923 C   0  0  1  0  0  0  0  0  0  0  0  0
   38.2616   30.9858   47.7713 C   0  0  2  0  0  0  0  0  0  0  0  0
   37.5778   31.4351   46.4995 C   0  0  0  0  0  0  0  0  0  0  0  0
   38.5291   32.1710   45.8081 O   0  0  0  0  0  0  0  0  0  0  0  0
   39.4725   32.6300   46.6850 C   0  0  0  0  0  0  0  0  0  0  0  0
   38.0212   33.3023   48.3784 O   0  0  0  0  0  0  0  0  0  0  0  0
   38.9013   29.8529   50.1831 H   0  0  0  0  0  0  0  0  0  0  0  0
   37.2186   29.1126   51.9044 H   0  0  0  0  0  0  0  0  0  0  0  0
   34.0589   30.3969   49.4338 H   0  0  0  0  0  0  0  0  0  0  0  0
   39.7460   32.1779   48.8046 H   0  0  0  0  0  0  0  0  0  0  0  0
   39.0679   30.2717   47.5365 H   0  0  0  0  0  0  0  0  0  0  0  0
   37.2119   30.5688   45.9125 H   0  0  0  0  0  0  0  0  0  0  0  0
   36.7248   32.1007   46.6967 H   0  0  0  0  0  0  0  0  0  0  0  0
   39.5928   33.7308   46.5717 H   0  0  0  0  0  0  0  0  0  0  0  0
   40.4709   32.1406   46.5521 H   0  0  0  0  0  0  0  0  0  0  0  0
   39.5457   35.9001   48.9742 O   0  0  0  0  0  0  0  0  0  0  0  0
   39.5922   34.6327   49.5180 C   0  0  2  0  0  0  0  0  0  0  0  0
   38.1984   34.0197   49.5288 C   0  0  2  0  0  0  0  0  0  0  0  0
   38.3116   33.1557   50.7675 C   0  0  1  0  0  0  0  0  0  0  0  0
   37.3518   32.8366   51.1700 H   0  0  0  0  0  0  0  0  0  0  0  0
   38.8938   34.0529   51.6687 O   0  0  0  0  0  0  0  0  0  0  0  0
   39.9104   34.7017   50.9931 C   0  0  2  0  0  0  0  0  0  0  0  0
   40.0202   35.7403   51.3463 H   0  0  0  0  0  0  0  0  0  0  0  0
   40.4421   36.0904   48.5842 H   0  0  0  0  0  0  0  0  0  0  0  0
   40.3054   33.9436   48.9852 H   0  0  0  0  0  0  0  0  0  0  0  0
   37.4524   34.7967   49.7308 H   0  0  0  0  0  0  0  0  0  0  0  0
   39.0600   32.3554   50.6263 H   0  0  0  0  0  0  0  0  0  0  0  0
   40.8417   34.1142   51.1803 H   0  0  0  0  0  0  0  0  0  0  0  0
  1  2  2  0
  2  3  1  0
  4  3  2  0
  5  4  1  0
  6  1  1  0
  6  5  2  0
  7 12  1  0
  8  7  1  0
  8  1  1  0
  9  8  1  0
 10  9  1  0
 10 11  1  0
 11  7  1  0
  2 13  1  0
  3 14  1  0
  5 15  1  0
  7 16  1  1
  8 17  1  6
  9 18  1  0
  9 19  1  0
 11 20  1  0
 11 21  1  0
 22 23  1  0
 23 24  1  0
 24 25  1  0
 25 26  1  1
 25 27  1  0
 27 28  1  0
 28 29  1  1
 28 23  1  0
 22 30  1  0
 23 31  1  6
 24 32  1  1
 25 33  1  0
 28 34  1  0
 12 24  1  0
M  ISO  8  13  14  14  14  15  14  16  13  17  13  18  13  19  13  20  13
M  ISO  3  21  13  26  15  29  16
M  END
>  <DihAtoms>  (1) 
6,11,23,22

>  <DihDeg>  (1) 
-124.46126110149284

$$$$
