REMARK  Name = 
REMARK  7 active torsions:
REMARK  status: ('A' for Active; 'I' for Inactive)
REMARK    1  A    between atoms: C_3  and  C_12
REMARK    2  A    between atoms: C_7  and  O_14
REMARK    3  A    between atoms: O_14  and  P_16
REMARK    4  A    between atoms: P_16  and  O_17
REMARK    5  A    between atoms: P_16  and  O_18
REMARK    6  A    between atoms: O_18  and  C_28
REMARK    7  A    between atoms: O_26  and  C_27
REMARK                            x       y       z     vdW  Elec       q    Type
REMARK                         _______ _______ _______ _____ _____    ______ ____
ROOT
ATOM      1  F   UNL     1      37.917  30.279  48.151  0.00  0.00    +0.000 F 
ATOM      2  C   UNL     1      36.986  30.228  47.170  0.00  0.00    +0.000 A 
ATOM      3  C   UNL     1      37.208  30.735  45.901  0.00  0.00    +0.000 A 
ATOM      4  C   UNL     1      36.208  30.642  44.965  0.00  0.00    +0.000 A 
ATOM      5  C   UNL     1      34.977  30.061  45.226  0.00  0.00    +0.000 A 
ATOM      6  C   UNL     1      34.778  29.560  46.505  0.00  0.00    +0.000 A 
ATOM      7  C   UNL     1      35.774  29.641  47.474  0.00  0.00    +0.000 A 
ATOM      8  H   UNL     1      36.452  31.062  43.986  0.00  0.00    +0.000 HD
ATOM      9  H   UNL     1      34.243  30.020  44.458  0.00  0.00    +0.000 HD
ATOM     10  H   UNL     1      33.839  29.101  46.754  0.00  0.00    +0.000 HD
ENDROOT
BRANCH   3  15
ATOM     11  C   UNL     1      39.652  33.272  44.900  0.00  0.00    +0.000 A 
ATOM     12  C   UNL     1      40.878  32.623  45.016  0.00  0.00    +0.000 A 
ATOM     13  C   UNL     1      40.859  31.305  45.442  0.00  0.00    +0.000 A 
ATOM     14  N   UNL     1      39.686  30.676  45.733  0.00  0.00    +0.000 NA
ATOM     15  C   UNL     1      38.505  31.355  45.604  0.00  0.00    +0.000 A 
ATOM     16  N   UNL     1      38.503  32.642  45.190  0.00  0.00    +0.000 NA
ATOM     17  H   UNL     1      39.670  34.301  44.568  0.00  0.00    +0.000 HD
ATOM     18  H   UNL     1      41.850  33.069  44.799  0.00  0.00    +0.000 HD
ATOM     19  H   UNL     1      41.795  30.752  45.548  0.00  0.00    +0.000 HD
ENDBRANCH   3  15
BRANCH   7  20
ATOM     20  O   UNL     1      35.553  29.143  48.718  0.00  0.00    +0.000 OA
BRANCH  20  22
ATOM     21  O   UNL     1      35.764  29.206  51.295  0.00  0.00    +0.000 OA
ATOM     22  P   UNL     1      35.121  29.934  50.121  0.00  0.00    +0.000 P 
BRANCH  22  23
ATOM     23  O   UNL     1      33.469  29.984  50.424  0.00  0.00    +0.000 OA
ATOM     24  H   UNL     1      33.007  29.488  49.694  0.00  0.00    +0.000 HD
ENDBRANCH  22  23
BRANCH  22  25
ATOM     25  O   UNL     1      35.740  31.533  50.146  0.00  0.00    +0.000 OA
BRANCH  25  27
ATOM     26  C   UNL     1      37.483  30.625  51.416  0.00  0.00    +0.000 C 
ATOM     27  C   UNL     1      36.528  31.782  51.239  0.00  0.00    +0.000 C 
ATOM     28  C   UNL     1      37.504  32.912  51.029  0.00  0.00    +0.000 C 
ATOM     29  H   UNL     1      37.728  33.140  49.989  0.00  0.00    +0.000 HD
ATOM     30  O   UNL     1      38.657  32.611  51.713  0.00  0.00    +0.000 OA
ATOM     31  C   UNL     1      38.592  31.318  52.196  0.00  0.00    +0.000 C 
ATOM     32  H   UNL     1      38.295  31.343  53.249  0.00  0.00    +0.000 HD
BRANCH  26  33
ATOM     33  O   UNL     1      38.035  30.249  50.195  0.00  0.00    +0.000 OA
ATOM     34  H   UNL     1      37.947  29.288  49.988  0.00  0.00    +0.000 HD
ENDBRANCH  26  33
ENDBRANCH  25  27
ENDBRANCH  22  25
ENDBRANCH  20  22
ENDBRANCH   7  20
TORSDOF 7
