REMARK  Name = 
REMARK  10 active torsions:
REMARK  status: ('A' for Active; 'I' for Inactive)
REMARK    1  A    between atoms: C_3  and  C_12
REMARK    2  A    between atoms: C_7  and  C_15
REMARK    3  A    between atoms: C_10  and  N_14
REMARK    4  A    between atoms: C_15  and  C_16
REMARK    5  A    between atoms: C_16  and  O_17
REMARK    6  A    between atoms: O_17  and  P_19
REMARK    7  A    between atoms: P_19  and  O_20
REMARK    8  A    between atoms: P_19  and  O_21
REMARK    9  A    between atoms: O_21  and  C_36
REMARK   10  A    between atoms: O_34  and  C_35
REMARK                            x       y       z     vdW  Elec       q    Type
REMARK                         _______ _______ _______ _____ _____    ______ ____
ROOT
ATOM      1 CL   UNL     1      37.653  30.452  48.516  0.00  0.00    +0.000 Cl
ATOM      2  C   UNL     1      36.482  30.307  47.206  0.00  0.00    +0.000 A 
ATOM      3  C   UNL     1      36.837  30.696  45.951  0.00  0.00    +0.000 A 
ATOM      4  C   UNL     1      35.938  30.588  44.926  0.00  0.00    +0.000 A 
ATOM      5  C   UNL     1      34.678  30.082  45.191  0.00  0.00    +0.000 A 
ATOM      6  C   UNL     1      34.365  29.698  46.496  0.00  0.00    +0.000 A 
ATOM      7  C   UNL     1      35.246  29.797  47.529  0.00  0.00    +0.000 A 
ATOM      8  H   UNL     1      36.258  30.912  43.927  0.00  0.00    +0.000 HD
ATOM      9  H   UNL     1      34.048  30.041  44.309  0.00  0.00    +0.000 HD
ATOM     10  H   UNL     1      33.392  29.351  46.490  0.00  0.00    +0.000 HD
ENDROOT
BRANCH   3  15
ATOM     11  C   UNL     1      39.844  32.845  45.962  0.00  0.00    +0.000 A 
ATOM     12  C   UNL     1      40.700  32.110  45.086  0.00  0.00    +0.000 A 
ATOM     13  C   UNL     1      40.210  30.914  44.532  0.00  0.00    +0.000 A 
ATOM     14  N   UNL     1      38.952  30.509  44.851  0.00  0.00    +0.000 NA
ATOM     15  C   UNL     1      38.168  31.229  45.684  0.00  0.00    +0.000 A 
ATOM     16  N   UNL     1      38.618  32.376  46.224  0.00  0.00    +0.000 NA
ATOM     17  H   UNL     1      40.180  33.753  46.400  0.00  0.00    +0.000 HD
ATOM     18  H   UNL     1      41.681  32.509  44.893  0.00  0.00    +0.000 HD
BRANCH  13  19
ATOM     19  N   UNL     1      41.077  30.217  43.677  0.00  0.00    +0.000 N 
ATOM     20  H   UNL     1      42.102  30.265  43.800  0.00  0.00    +0.000 HD
ATOM     21  H   UNL     1      40.627  29.648  42.910  0.00  0.00    +0.000 HD
ENDBRANCH  13  19
ENDBRANCH   3  15
BRANCH   7  22
ATOM     22  C   UNL     1      34.904  29.400  48.876  0.00  0.00    +0.000 C 
ATOM     23  H   UNL     1      34.284  30.239  49.312  0.00  0.00    +0.000 HD
ATOM     24  H   UNL     1      35.822  29.410  49.498  0.00  0.00    +0.000 HD
BRANCH  22  25
ATOM     25  C   UNL     1      34.198  28.142  49.094  0.00  0.00    +0.000 C 
ATOM     26  H   UNL     1      34.260  27.517  48.172  0.00  0.00    +0.000 HD
ATOM     27  H   UNL     1      34.650  27.525  49.900  0.00  0.00    +0.000 HD
BRANCH  25  28
ATOM     28  O   UNL     1      32.883  28.341  49.431  0.00  0.00    +0.000 OA
BRANCH  28  30
ATOM     29  O   UNL     1      32.631  26.606  47.463  0.00  0.00    +0.000 OA
ATOM     30  P   UNL     1      31.865  27.554  48.353  0.00  0.00    +0.000 P 
BRANCH  30  31
ATOM     31  O   UNL     1      31.101  28.785  47.433  0.00  0.00    +0.000 OA
ATOM     32  H   UNL     1      30.780  28.425  46.570  0.00  0.00    +0.000 HD
ENDBRANCH  30  31
BRANCH  30  33
ATOM     33  O   UNL     1      30.665  26.701  49.132  0.00  0.00    +0.000 OA
BRANCH  33  35
ATOM     34  C   UNL     1      29.553  25.538  47.461  0.00  0.00    +0.000 C 
ATOM     35  C   UNL     1      29.452  26.694  48.463  0.00  0.00    +0.000 C 
ATOM     36  C   UNL     1      29.461  27.844  47.478  0.00  0.00    +0.000 C 
ATOM     37  H   UNL     1      28.489  27.886  46.918  0.00  0.00    +0.000 HD
ATOM     38  O   UNL     1      30.416  27.494  46.535  0.00  0.00    +0.000 OA
ATOM     39  C   UNL     1      30.603  26.135  46.546  0.00  0.00    +0.000 C 
ATOM     40  H   UNL     1      30.660  25.640  45.577  0.00  0.00    +0.000 HD
BRANCH  34  41
ATOM     41  O   UNL     1      28.395  25.375  46.735  0.00  0.00    +0.000 OA
ATOM     42  H   UNL     1      27.626  25.090  47.289  0.00  0.00    +0.000 HD
ENDBRANCH  34  41
ENDBRANCH  33  35
ENDBRANCH  30  33
ENDBRANCH  28  30
ENDBRANCH  25  28
ENDBRANCH  22  25
ENDBRANCH   7  22
TORSDOF 10
