REMARK  Name = 
REMARK  4 active torsions:
REMARK  status: ('A' for Active; 'I' for Inactive)
REMARK    1  A    between atoms: N_1  and  C_10
REMARK    2  A    between atoms: C_13  and  O_15
REMARK    3  A    between atoms: O_15  and  C_23
REMARK    4  A    between atoms: O_21  and  C_22
REMARK                            x       y       z     vdW  Elec       q    Type
REMARK                         _______ _______ _______ _____ _____    ______ ____
ROOT
ATOM      1  C   UNL     1      36.172  29.251  49.298  0.00  0.00    +0.000 A 
ATOM      2  C   UNL     1      35.992  30.397  48.478  0.00  0.00    +0.000 A 
ATOM      3  C   UNL     1      34.872  30.444  47.675  0.00  0.00    +0.000 A 
ATOM      4  N   UNL     1      34.005  29.397  47.709  0.00  0.00    +0.000 NA
ATOM      5  C   UNL     1      34.186  28.322  48.487  0.00  0.00    +0.000 A 
ATOM      6  N   UNL     1      35.277  28.247  49.288  0.00  0.00    +0.000 NA
ATOM      7  H   UNL     1      37.057  29.213  49.934  0.00  0.00    +0.000 HD
ATOM      8  H   UNL     1      34.746  31.321  47.055  0.00  0.00    +0.000 HD
ENDROOT
BRANCH   2   9
ATOM      9  N   UNL     1      36.984  31.412  48.549  0.00  0.00    +0.000 N 
ATOM     10  C   UNL     1      37.160  32.160  49.657  0.00  0.00    +0.000 A 
ATOM     11  C   UNL     1      38.154  33.147  49.669  0.00  0.00    +0.000 A 
ATOM     12  C   UNL     1      38.870  33.253  48.512  0.00  0.00    +0.000 A 
ATOM     13  O   UNL     1      39.763  34.153  48.548  0.00  0.00    +0.000 OA
ATOM     14  N   UNL     1      38.715  32.526  47.402  0.00  0.00    +0.000 N 
ATOM     15  C   UNL     1      37.743  31.591  47.449  0.00  0.00    +0.000 A 
ATOM     16  O   UNL     1      37.587  30.894  46.399  0.00  0.00    +0.000 OA
ATOM     17  H   UNL     1      36.536  32.004  50.545  0.00  0.00    +0.000 HD
ATOM     18  H   UNL     1      38.319  33.762  50.542  0.00  0.00    +0.000 HD
ATOM     19  H   UNL     1      39.313  32.677  46.556  0.00  0.00    +0.000 HD
ENDBRANCH   2   9
BRANCH   5  20
ATOM     20  O   UNL     1      33.272  27.279  48.487  0.00  0.00    +0.000 OA
BRANCH  20  22
ATOM     21  C   UNL     1      34.867  25.601  49.180  0.00  0.00    +0.000 C 
ATOM     22  C   UNL     1      33.464  26.160  49.298  0.00  0.00    +0.000 C 
ATOM     23  C   UNL     1      32.637  24.976  48.894  0.00  0.00    +0.000 C 
ATOM     24  H   UNL     1      31.604  25.014  49.313  0.00  0.00    +0.000 HD
ATOM     25  O   UNL     1      33.312  23.847  49.331  0.00  0.00    +0.000 OA
ATOM     26  C   UNL     1      34.665  24.133  49.307  0.00  0.00    +0.000 C 
ATOM     27  H   UNL     1      35.176  23.581  48.481  0.00  0.00    +0.000 HD
BRANCH  21  28
ATOM     28  O   UNL     1      35.702  26.117  50.161  0.00  0.00    +0.000 OA
ATOM     29  H   UNL     1      36.520  25.559  50.173  0.00  0.00    +0.000 HD
ENDBRANCH  21  28
ENDBRANCH  20  22
ENDBRANCH   5  20
TORSDOF 4
