
 OpenBabel03272502583D

 34 36  0  0  1  0  0  0  0  0999 V2000
   35.8810   29.7180   48.7700 N   0  0  0  0  0  0  0  0  0  0  0  0
   36.7890   28.9400   49.5770 C   0  0  0  0  0  0  0  0  0  0  0  0
   37.3390   29.5640   50.7800 C   0  0  0  0  0  0  0  0  0  0  0  0
   37.4300   31.0340   50.8400 C   0  0  0  0  0  0  0  0  0  0  0  0
   36.5110   31.7630   49.8820 C   0  0  0  0  0  0  0  0  0  0  0  0
   36.4820   31.0210   48.5620 C   0  0  1  0  0  0  0  0  0  0  0  0
   36.2740   27.9760   49.8040 H   0  0  0  0  0  0  0  0  0  0  0  0
   37.6350   28.6570   48.9020 H   0  0  0  0  0  0  0  0  0  0  0  0
   36.7340   29.2010   51.6520 H   0  0  0  0  0  0  0  0  0  0  0  0
   38.3580   29.1490   50.9810 H   0  0  0  0  0  0  0  0  0  0  0  0
   37.1590   31.4100   51.8490 H   0  0  0  0  0  0  0  0  0  0  0  0
   38.4670   31.4090   50.6680 H   0  0  0  0  0  0  0  0  0  0  0  0
   36.9310   32.7780   49.7400 H   0  0  0  0  0  0  0  0  0  0  0  0
   35.4880   31.8920   50.2550 H   0  0  0  0  0  0  0  0  0  0  0  0
   35.9770   31.6030   47.7760 H   0  0  0  0  0  0  0  0  0  0  0  0
   34.6250   29.2710   48.2770 C   0  0  0  0  0  0  0  0  0  0  0  0
   34.0570   29.7030   47.0680 C   0  0  0  0  0  0  0  0  0  0  0  0
   32.8200   29.1880   46.6980 C   0  0  0  0  0  0  0  0  0  0  0  0
   32.2340   28.2860   47.5410 N   0  0  0  0  0  0  0  0  0  0  0  0
   32.8090   27.8990   48.6850 C   0  0  0  0  0  0  0  0  0  0  0  0
   34.0050   28.3890   49.0570 N   0  0  0  0  0  0  0  0  0  0  0  0
   34.5990   30.4080   46.4880 H   0  0  0  0  0  0  0  0  0  0  0  0
   32.3710   29.5080   45.7770 H   0  0  0  0  0  0  0  0  0  0  0  0
   32.2600   27.1720   49.2940 H   0  0  0  0  0  0  0  0  0  0  0  0
   37.8290   30.9130   48.1720 O   0  0  0  0  0  0  0  0  0  0  0  0
   38.6280   32.6700   46.7580 C   0  0  2  0  0  3  0  0  0  0  0  0
   37.9800   31.3050   46.8320 C   0  0  1  0  0  3  0  0  0  0  0  0
   38.9660   30.4220   46.1360 C   0  0  0  0  0  3  0  0  0  0  0  0
   39.0790   29.4660   46.7220 H   0  0  0  0  0  0  0  0  0  0  0  0
   40.1720   31.1180   46.1130 O   0  0  0  0  0  0  0  0  0  0  0  0
   39.7940   32.4110   45.8190 C   0  0  0  0  0  3  0  0  0  0  0  0
   40.5610   33.1740   46.0650 H   0  0  0  0  0  0  0  0  0  0  0  0
   39.1140   33.0840   47.9810 O   0  0  0  0  0  0  0  0  0  0  0  0
   38.8810   34.0310   48.2060 H   0  0  0  0  0  0  0  0  0  0  0  0
  1  2  1  0  0  0  0
  2  7  1  0  0  0  0
  2  3  1  0  0  0  0
  3  4  1  0  0  0  0
  3 10  1  0  0  0  0
  3  9  1  0  0  0  0
  4 11  1  0  0  0  0
  5 14  1  0  0  0  0
  5  4  1  0  0  0  0
  6 15  1  6  0  0  0
  6  1  1  0  0  0  0
  6  5  1  0  0  0  0
  8  2  1  0  0  0  0
 12  4  1  0  0  0  0
 13  5  1  0  0  0  0
 16  1  1  0  0  0  0
 16 21  1  0  0  0  0
 17 16  2  0  0  0  0
 18 17  1  0  0  0  0
 18 19  2  0  0  0  0
 19 20  1  0  0  0  0
 20 21  2  0  0  0  0
 20 24  1  0  0  0  0
 22 17  1  0  0  0  0
 23 18  1  0  0  0  0
 25  6  1  0  0  0  0
 26 27  1  0  0  0  0
 26 33  1  1  0  0  0
 27 25  1  1  0  0  0
 28 29  1  0  0  0  0
 28 27  1  0  0  0  0
 30 28  1  0  0  0  0
 31 32  1  0  0  0  0
 31 30  1  0  0  0  0
 31 26  1  0  0  0  0
 33 34  1  0  0  0  0
M  END
>  <minimizedAffinity>
-5.38754034

>  <minimizedRMSD>
0.764267504

$$$$
