
 OpenBabel03272502583D

 34 36  0  0  1  0  0  0  0  0999 V2000
   35.7520   29.6390   48.7760 N   0  0  0  0  0  0  0  0  0  0  0  0
   36.6480   28.8590   49.5950 C   0  0  0  0  0  0  0  0  0  0  0  0
   37.1980   29.4870   50.7950 C   0  0  0  0  0  0  0  0  0  0  0  0
   37.3030   30.9570   50.8440 C   0  0  0  0  0  0  0  0  0  0  0  0
   36.3960   31.6870   49.8750 C   0  0  0  0  0  0  0  0  0  0  0  0
   36.3660   30.9340   48.5620 C   0  0  1  0  0  0  0  0  0  0  0  0
   36.1230   27.9020   49.8270 H   0  0  0  0  0  0  0  0  0  0  0  0
   37.4950   28.5630   48.9260 H   0  0  0  0  0  0  0  0  0  0  0  0
   36.5860   29.1370   51.6670 H   0  0  0  0  0  0  0  0  0  0  0  0
   38.2120   29.0640   51.0050 H   0  0  0  0  0  0  0  0  0  0  0  0
   37.0300   31.3430   51.8480 H   0  0  0  0  0  0  0  0  0  0  0  0
   38.3450   31.3200   50.6740 H   0  0  0  0  0  0  0  0  0  0  0  0
   36.8260   32.6970   49.7270 H   0  0  0  0  0  0  0  0  0  0  0  0
   35.3720   31.8290   50.2420 H   0  0  0  0  0  0  0  0  0  0  0  0
   35.8710   31.5150   47.7680 H   0  0  0  0  0  0  0  0  0  0  0  0
   34.4940   29.1990   48.2810 C   0  0  0  0  0  0  0  0  0  0  0  0
   33.9400   29.6220   47.0620 C   0  0  0  0  0  0  0  0  0  0  0  0
   32.6990   29.1170   46.6910 C   0  0  0  0  0  0  0  0  0  0  0  0
   32.0970   28.2320   47.5410 N   0  0  0  0  0  0  0  0  0  0  0  0
   32.6600   27.8540   48.6940 C   0  0  0  0  0  0  0  0  0  0  0  0
   33.8590   28.3350   49.0680 N   0  0  0  0  0  0  0  0  0  0  0  0
   34.4930   30.3140   46.4780 H   0  0  0  0  0  0  0  0  0  0  0  0
   32.2600   29.4300   45.7630 H   0  0  0  0  0  0  0  0  0  0  0  0
   32.0980   27.1400   49.3080 H   0  0  0  0  0  0  0  0  0  0  0  0
   37.7140   30.8110   48.1790 O   0  0  0  0  0  0  0  0  0  0  0  0
   38.6720   32.6500   46.9860 C   0  0  2  0  0  3  0  0  0  0  0  0
   37.9070   31.3490   46.8960 C   0  0  1  0  0  3  0  0  0  0  0  0
   38.8150   30.4740   46.0930 C   0  0  0  0  0  3  0  0  0  0  0  0
   38.8410   29.4470   46.5580 H   0  0  0  0  0  0  0  0  0  0  0  0
   40.0780   31.0590   46.1500 O   0  0  0  0  0  0  0  0  0  0  0  0
   39.8160   32.4070   46.0180 C   0  0  0  0  0  3  0  0  0  0  0  0
   40.6460   33.0630   46.3510 H   0  0  0  0  0  0  0  0  0  0  0  0
   39.1840   32.8680   48.2480 O   0  0  0  0  0  0  0  0  0  0  0  0
   39.0350   33.7970   48.5880 H   0  0  0  0  0  0  0  0  0  0  0  0
  1  2  1  0  0  0  0
  2  7  1  0  0  0  0
  2  3  1  0  0  0  0
  3  4  1  0  0  0  0
  3 10  1  0  0  0  0
  3  9  1  0  0  0  0
  4 11  1  0  0  0  0
  5 14  1  0  0  0  0
  5  4  1  0  0  0  0
  6 15  1  6  0  0  0
  6  1  1  0  0  0  0
  6  5  1  0  0  0  0
  8  2  1  0  0  0  0
 12  4  1  0  0  0  0
 13  5  1  0  0  0  0
 16  1  1  0  0  0  0
 16 21  1  0  0  0  0
 17 16  2  0  0  0  0
 18 17  1  0  0  0  0
 18 19  2  0  0  0  0
 19 20  1  0  0  0  0
 20 21  2  0  0  0  0
 20 24  1  0  0  0  0
 22 17  1  0  0  0  0
 23 18  1  0  0  0  0
 25  6  1  0  0  0  0
 26 33  1  1  0  0  0
 27 26  1  0  0  0  0
 27 25  1  1  0  0  0
 28 30  1  0  0  0  0
 28 29  1  0  0  0  0
 28 27  1  0  0  0  0
 31 30  1  0  0  0  0
 31 32  1  0  0  0  0
 31 26  1  0  0  0  0
 33 34  1  0  0  0  0
M  END
>  <minimizedAffinity>
-5.41856909

>  <minimizedRMSD>
1.09341037

$$$$
