
 OpenBabel03272507273D

 35 37  0  0  1  0  0  0  0  0999 V2000
   36.9040   30.1760   49.3370 C   0  0  0  0  0  0  0  0  0  0  0  0
   37.8790   30.8250   48.5640 C   0  0  0  0  0  0  0  0  0  0  0  0
   37.6100   31.0310   47.2020 C   0  0  0  0  0  0  0  0  0  0  0  0
   36.4440   30.5980   46.7210 N   0  0  0  0  0  0  0  0  0  0  0  0
   35.5270   29.9760   47.4880 C   0  0  0  0  0  0  0  0  0  0  0  0
   35.7620   29.7710   48.7820 N   0  0  0  0  0  0  0  0  0  0  0  0
   38.5570   31.6750   46.3870 N   0  0  0  0  0  0  0  0  0  0  0  0
   39.5350   32.6740   46.8330 C   0  0  0  0  0  0  0  0  0  0  0  0
   40.1650   33.2460   45.6080 C   0  0  0  0  0  0  0  0  0  0  0  0
   39.2000   32.8830   44.5370 C   0  0  0  0  0  0  0  0  0  0  0  0
   38.7760   31.5080   44.9790 C   0  0  2  0  0  0  0  0  0  0  0  0
   37.0510   29.9880   50.3890 H   0  0  0  0  0  0  0  0  0  0  0  0
   38.8020   31.1510   49.0160 H   0  0  0  0  0  0  0  0  0  0  0  0
   34.6150   29.6670   46.9930 H   0  0  0  0  0  0  0  0  0  0  0  0
   40.3220   32.0810   47.3620 H   0  0  0  0  0  0  0  0  0  0  0  0
   39.0940   33.4060   47.5060 H   0  0  0  0  0  0  0  0  0  0  0  0
   40.1330   34.3670   45.7380 H   0  0  0  0  0  0  0  0  0  0  0  0
   41.1880   32.9360   45.3940 H   0  0  0  0  0  0  0  0  0  0  0  0
   39.6870   32.7800   43.5340 H   0  0  0  0  0  0  0  0  0  0  0  0
   38.3360   33.5690   44.4930 H   0  0  0  0  0  0  0  0  0  0  0  0
   37.6560   30.9540   44.1640 C   0  0  0  0  0  0  0  0  0  0  0  0
   36.5030   31.5960   44.5800 F   0  0  0  0  0  0  0  0  0  0  0  0
   37.4420   29.6100   44.2840 F   0  0  0  0  0  0  0  0  0  0  0  0
   37.8840   31.3670   42.8580 F   0  0  0  0  0  0  0  0  0  0  0  0
   39.9310   30.5920   44.8580 C   0  0  0  0  0  0  0  0  0  0  0  0
   39.6030   29.6240   45.2890 H   0  0  0  0  0  0  0  0  0  0  0  0
   40.7100   30.9440   45.6020 H   0  0  0  0  0  0  0  0  0  0  0  0
   40.4340   30.7700   43.7400 O   0  0  0  0  0  0  0  0  0  0  0  0
   40.7400   30.0500   42.6390 C   0  0  0  0  0  0  0  0  0  0  0  0
   40.7260   30.8060   41.6340 O   0  0  0  0  0  0  0  0  0  0  0  0
   41.0940   28.8070   41.9730 C   0  0  0  0  0  3  0  0  0  0  0  0
   39.8000   28.0660   41.6470 C   0  0  0  0  0  2  0  0  0  0  0  0
   40.3490   27.0970   40.5910 C   0  0  0  0  0  2  0  0  0  0  0  0
   40.9630   28.1060   39.6410 C   0  0  0  0  0  2  0  0  0  0  0  0
   41.7340   29.0030   40.6170 C   0  0  0  0  0  2  0  0  0  0  0  0
  1 12  1  0  0  0  0
  2 13  1  0  0  0  0
  2  1  2  0  0  0  0
  3  2  1  0  0  0  0
  4  3  2  0  0  0  0
  4  5  1  0  0  0  0
  5  6  2  0  0  0  0
  6  1  1  0  0  0  0
  7  8  1  0  0  0  0
  7  3  1  0  0  0  0
  8 15  1  0  0  0  0
  8 16  1  0  0  0  0
  9 17  1  0  0  0  0
  9  8  1  0  0  0  0
 10 11  1  0  0  0  0
 10  9  1  0  0  0  0
 11 21  1  6  0  0  0
 11  7  1  0  0  0  0
 14  5  1  0  0  0  0
 18  9  1  0  0  0  0
 19 10  1  0  0  0  0
 20 10  1  0  0  0  0
 21 23  1  0  0  0  0
 21 22  1  0  0  0  0
 24 21  1  0  0  0  0
 25 11  1  0  0  0  0
 25 26  1  0  0  0  0
 25 27  1  0  0  0  0
 28 25  1  0  0  0  0
 29 28  1  0  0  0  0
 30 29  2  0  0  0  0
 31 29  1  0  0  0  0
 32 31  1  0  0  0  0
 33 32  1  0  0  0  0
 34 33  1  0  0  0  0
 34 35  1  0  0  0  0
 35 31  1  0  0  0  0
M  END
>  <minimizedAffinity>
-5.16368723

>  <minimizedRMSD>
0.683284938

$$$$
