
 OpenBabel03272503053D

 28 30  0  0  0  0  0  0  0  0999 V2000
   38.1460   30.1110   47.1320 F   0  0  0  0  0  0  0  0  0  0  0  0
   38.6040   31.3490   47.4530 C   0  0  0  0  0  0  0  0  0  0  0  0
   38.3300   31.8890   48.6770 C   0  0  0  0  0  0  0  0  0  0  0  0
   38.8210   33.1390   48.9350 C   0  0  0  0  0  0  0  0  0  0  0  0
   39.5600   33.8410   48.0220 C   0  0  0  0  0  0  0  0  0  0  0  0
   39.8280   33.2770   46.7860 C   0  0  0  0  0  0  0  0  0  0  0  0
   39.3410   32.0160   46.5060 C   0  0  0  0  0  0  0  0  0  0  0  0
   38.6070   33.5730   49.9040 H   0  0  0  0  0  0  0  0  0  0  0  0
   39.9440   34.8320   48.2370 H   0  0  0  0  0  0  0  0  0  0  0  0
   40.4120   33.7860   46.0120 H   0  0  0  0  0  0  0  0  0  0  0  0
   37.2590   29.8150   51.6670 C   0  0  0  0  0  0  0  0  0  0  0  0
   38.0500   30.5820   50.7910 C   0  0  0  0  0  0  0  0  0  0  0  0
   37.5310   31.0830   49.6140 C   0  0  0  0  0  0  0  0  0  0  0  0
   36.2300   30.7990   49.3510 N   0  0  0  0  0  0  0  0  0  0  0  0
   35.4800   30.0610   50.1990 C   0  0  0  0  0  0  0  0  0  0  0  0
   35.9800   29.5820   51.3260 N   0  0  0  0  0  0  0  0  0  0  0  0
   37.7450   29.4610   52.5670 H   0  0  0  0  0  0  0  0  0  0  0  0
   39.0840   30.7960   51.0220 H   0  0  0  0  0  0  0  0  0  0  0  0
   34.4500   29.9000   49.8780 H   0  0  0  0  0  0  0  0  0  0  0  0
   38.5800   31.6330   44.2560 C   0  0  0  0  0  0  0  0  0  0  0  0
   37.5990   32.3310   44.6610 O   0  0  0  0  0  0  0  0  0  0  0  0
   39.5990   31.3980   45.2330 N   0  0  0  0  0  0  0  0  0  0  0  0
   40.4280   30.8300   44.9990 H   0  0  0  0  0  0  0  0  0  0  0  0
   38.8000   31.0370   42.9120 C   0  0  0  0  0  3  0  0  0  0  0  0
   39.4660   29.7000   42.9760 C   0  0  0  0  0  2  0  0  0  0  0  0
   40.7650   29.8260   42.1850 C   0  0  0  0  0  2  0  0  0  0  0  0
   40.5250   31.0100   41.2670 C   0  0  0  0  0  2  0  0  0  0  0  0
   39.7560   31.9350   42.1740 C   0  0  0  0  0  2  0  0  0  0  0  0
  1  2  1  0  0  0  0
  2  3  1  0  0  0  0
  3  4  2  0  0  0  0
  3 13  1  0  0  0  0
  4  8  1  0  0  0  0
  5  9  1  0  0  0  0
  5  4  1  0  0  0  0
  6  5  2  0  0  0  0
  7  6  1  0  0  0  0
  7  2  2  0  0  0  0
 10  6  1  0  0  0  0
 11 17  1  0  0  0  0
 12 18  1  0  0  0  0
 12 11  2  0  0  0  0
 13 12  1  0  0  0  0
 14 13  2  0  0  0  0
 14 15  1  0  0  0  0
 15 16  2  0  0  0  0
 16 11  1  0  0  0  0
 19 15  1  0  0  0  0
 20 21  2  0  0  0  0
 20 22  1  0  0  0  0
 22  7  1  0  0  0  0
 23 22  1  0  0  0  0
 24 25  1  0  0  0  0
 24 20  1  0  0  0  0
 26 25  1  0  0  0  0
 27 28  1  0  0  0  0
 27 26  1  0  0  0  0
 28 24  1  0  0  0  0
M  END
>  <minimizedAffinity>
-6.18448448

>  <minimizedRMSD>
0.952136278

$$$$
