
 OpenBabel03262520323D

 19 20  0  0  0  0  0  0  0  0999 V2000
   35.2220   28.6610   48.9980 C   0  0  0  0  0  3  0  0  0  0  0  0
   34.6250   29.1060   47.9430 C   0  0  0  0  0  3  0  0  0  0  0  0
   37.4780   30.2500   51.4130 C   0  0  0  0  0  0  0  0  0  0  0  0
   38.3350   30.9800   50.5430 C   0  0  0  0  0  0  0  0  0  0  0  0
   38.1160   30.9080   49.1430 C   0  0  0  0  0  0  0  0  0  0  0  0
   37.0680   30.1180   48.7450 N   0  0  0  0  0  0  0  0  0  0  0  0
   36.2880   29.4500   49.5970 C   0  0  0  0  0  0  0  0  0  0  0  0
   36.4900   29.5140   50.9220 N   0  0  0  0  0  0  0  0  0  0  0  0
   37.7040   30.3510   52.4660 H   0  0  0  0  0  0  0  0  0  0  0  0
   39.1650   31.6040   50.8530 H   0  0  0  0  0  0  0  0  0  0  0  0
   38.7280   31.4340   48.4480 H   0  0  0  0  0  0  0  0  0  0  0  0
   33.5570   28.4800   47.1950 C   0  0  0  0  0  0  0  0  0  0  0  0
   32.7600   29.2140   46.9490 H   0  0  0  0  0  0  0  0  0  0  0  0
   33.9880   28.1820   46.1940 H   0  0  0  0  0  0  0  0  0  0  0  0
   32.9580   27.2310   47.7620 C   0  0  0  0  0  3  0  0  0  0  0  0
   31.7300   27.7270   48.5550 C   0  0  0  0  0  2  0  0  0  0  0  0
   30.7400   26.6090   48.5360 C   0  0  0  0  0  2  0  0  0  0  0  0
   31.2470   25.6100   47.5400 C   0  0  0  0  0  2  0  0  0  0  0  0
   32.2060   26.4440   46.6790 C   0  0  0  0  0  2  0  0  0  0  0  0
  1  7  1  0  0  0  0
  2  1  2  0  0  0  0
  3  9  1  0  0  0  0
  4 10  1  0  0  0  0
  4  3  2  0  0  0  0
  5  4  1  0  0  0  0
  6  5  2  0  0  0  0
  6  7  1  0  0  0  0
  7  8  2  0  0  0  0
  8  3  1  0  0  0  0
 11  5  1  0  0  0  0
 12 15  1  0  0  0  0
 12  2  1  0  0  0  0
 13 12  1  0  0  0  0
 14 12  1  0  0  0  0
 15 16  1  0  0  0  0
 17 16  1  0  0  0  0
 18 17  1  0  0  0  0
 19 18  1  0  0  0  0
 19 15  1  0  0  0  0
M  END
>  <minimizedAffinity>
-4.22994137

>  <minimizedRMSD>
1.35994673

$$$$
