
 OpenBabel03272508513D

 25 27  0  0  1  0  0  0  0  0999 V2000
   37.7580   30.3970   44.3530 C   0  0  2  0  0  0  0  0  0  0  0  0
   36.3670   30.1110   44.6760 C   0  0  0  0  0  0  0  0  0  0  0  0
   37.2590   30.9580   45.6010 C   0  0  1  0  0  0  0  0  0  0  0  0
   38.5180   29.5590   44.5120 H   0  0  0  0  0  0  0  0  0  0  0  0
   35.5500   30.6560   44.1310 H   0  0  0  0  0  0  0  0  0  0  0  0
   36.0560   29.1650   45.1120 H   0  0  0  0  0  0  0  0  0  0  0  0
   36.8230   31.9600   45.7280 H   0  0  0  0  0  0  0  0  0  0  0  0
   39.6780   31.9660   41.6020 C   0  0  0  0  0  0  0  0  0  0  0  0
   38.8290   33.0390   41.2200 C   0  0  0  0  0  0  0  0  0  0  0  0
   37.5910   33.2040   41.9290 C   0  0  0  0  0  0  0  0  0  0  0  0
   37.2970   32.3300   42.9220 N   0  0  0  0  0  0  0  0  0  0  0  0
   38.1510   31.3200   43.2440 C   0  0  0  0  0  0  0  0  0  0  0  0
   39.3240   31.1220   42.6090 N   0  0  0  0  0  0  0  0  0  0  0  0
   40.5840   31.9200   41.0150 H   0  0  0  0  0  0  0  0  0  0  0  0
   39.1020   33.7130   40.4200 H   0  0  0  0  0  0  0  0  0  0  0  0
   36.9270   34.0120   41.6580 H   0  0  0  0  0  0  0  0  0  0  0  0
   36.7110   30.3230   47.9270 C   0  0  0  0  0  0  0  0  0  0  0  0
   35.5440   30.7510   47.7470 O   0  0  0  0  0  0  0  0  0  0  0  0
   37.6460   30.2640   46.8340 N   0  0  0  0  0  0  0  0  0  0  0  0
   38.5720   29.7670   46.8550 H   0  0  0  0  0  0  0  0  0  0  0  0
   37.2440   29.8440   49.2520 C   0  0  0  0  0  3  0  0  0  0  0  0
   36.1600   29.0590   49.9600 C   0  0  0  0  0  2  0  0  0  0  0  0
   36.3310   29.4010   51.4020 C   0  0  0  0  0  2  0  0  0  0  0  0
   37.4690   30.3910   51.5170 C   0  0  0  0  0  2  0  0  0  0  0  0
   37.6550   30.9740   50.1320 C   0  0  0  0  0  2  0  0  0  0  0  0
  1  4  1  1  0  0  0
  1  2  1  0  0  0  0
  1  3  1  0  0  0  0
  2  6  1  0  0  0  0
  2  3  1  0  0  0  0
  3  7  1  1  0  0  0
  3 19  1  0  0  0  0
  5  2  1  0  0  0  0
  8 13  1  0  0  0  0
  9  8  2  0  0  0  0
  9 10  1  0  0  0  0
 10 11  2  0  0  0  0
 11 12  1  0  0  0  0
 12  1  1  0  0  0  0
 13 12  2  0  0  0  0
 14  8  1  0  0  0  0
 15  9  1  0  0  0  0
 16 10  1  0  0  0  0
 17 21  1  0  0  0  0
 18 17  2  0  0  0  0
 19 20  1  0  0  0  0
 19 17  1  0  0  0  0
 21 22  1  0  0  0  0
 21 25  1  0  0  0  0
 22 23  1  0  0  0  0
 23 24  1  0  0  0  0
 25 24  1  0  0  0  0
M  END
>  <minimizedAffinity>
-4.65136719

>  <minimizedRMSD>
2.97999525

$$$$
