
 OpenBabel03262523563D

 34 36  0  0  1  0  0  0  0  0999 V2000
   36.8060   23.8330   31.2220 C   0  0  1  0  0  0  0  0  0  0  0  0
   35.3750   23.9750   31.4490 C   0  0  0  0  0  0  0  0  0  0  0  0
   34.9090   25.2550   30.8240 C   0  0  0  0  0  0  0  0  0  0  0  0
   35.8810   26.3510   31.0570 C   0  0  0  0  0  0  0  0  0  0  0  0
   36.8140   26.1450   32.1860 C   0  0  0  0  0  0  0  0  0  0  0  0
   37.5340   24.7960   32.1650 C   0  0  1  0  0  0  0  0  0  0  0  0
   37.0950   24.1480   30.1900 H   0  0  0  0  0  0  0  0  0  0  0  0
   34.8120   23.0890   31.0820 H   0  0  0  0  0  0  0  0  0  0  0  0
   35.1240   24.0400   32.5300 H   0  0  0  0  0  0  0  0  0  0  0  0
   33.9380   25.5270   31.2860 H   0  0  0  0  0  0  0  0  0  0  0  0
   34.6980   25.0720   29.7430 H   0  0  0  0  0  0  0  0  0  0  0  0
   36.4850   26.4680   30.1320 H   0  0  0  0  0  0  0  0  0  0  0  0
   35.3480   27.2970   31.2310 H   0  0  0  0  0  0  0  0  0  0  0  0
   36.2560   26.1940   33.1480 H   0  0  0  0  0  0  0  0  0  0  0  0
   37.5740   26.9490   32.1980 H   0  0  0  0  0  0  0  0  0  0  0  0
   38.5470   24.9770   31.7420 H   0  0  0  0  0  0  0  0  0  0  0  0
   37.0530   20.1900   31.9020 C   0  0  0  0  0  0  0  0  0  0  0  0
   36.4820   21.4670   31.6440 C   0  0  0  0  0  0  0  0  0  0  0  0
   37.3860   22.5070   31.4690 C   0  0  0  0  0  0  0  0  0  0  0  0
   38.7520   22.2760   31.5470 N   0  0  0  0  0  0  0  0  0  0  0  0
   39.2440   21.0540   31.7910 C   0  0  0  0  0  0  0  0  0  0  0  0
   38.3930   19.9960   31.9720 N   0  0  0  0  0  0  0  0  0  0  0  0
   36.3700   19.3650   32.0420 H   0  0  0  0  0  0  0  0  0  0  0  0
   35.4150   21.6020   31.5930 H   0  0  0  0  0  0  0  0  0  0  0  0
   40.3000   20.8790   31.8510 H   0  0  0  0  0  0  0  0  0  0  0  0
   38.7010   24.3550   34.4890 C   0  0  0  0  0  0  0  0  0  0  0  0
   39.6620   25.0550   34.0920 O   0  0  0  0  0  0  0  0  0  0  0  0
   37.6760   24.2900   33.5000 N   0  0  0  0  0  0  0  0  0  0  0  0
   36.7710   23.7640   33.7220 H   0  0  0  0  0  0  0  0  0  0  0  0
   38.4460   23.6010   35.7690 C   0  0  0  0  0  3  0  0  0  0  0  0
   39.8260   23.3500   36.3580 C   0  0  0  0  0  2  0  0  0  0  0  0
   39.4590   22.9880   37.7800 C   0  0  0  0  0  2  0  0  0  0  0  0
   38.1730   23.7720   38.0720 C   0  0  0  0  0  2  0  0  0  0  0  0
   37.8680   24.5330   36.7750 C   0  0  0  0  0  2  0  0  0  0  0  0
  1  7  1  6  0  0  0
  1  2  1  0  0  0  0
  1 19  1  0  0  0  0
  1  6  1  0  0  0  0
  2  9  1  0  0  0  0
  3  4  1  0  0  0  0
  3 10  1  0  0  0  0
  3  2  1  0  0  0  0
  4 13  1  0  0  0  0
  4  5  1  0  0  0  0
  5 15  1  0  0  0  0
  5 14  1  0  0  0  0
  6 16  1  6  0  0  0
  6  5  1  0  0  0  0
  6 28  1  0  0  0  0
  8  2  1  0  0  0  0
 11  3  1  0  0  0  0
 12  4  1  0  0  0  0
 17 22  1  0  0  0  0
 17 23  1  0  0  0  0
 18 17  2  0  0  0  0
 19 20  2  0  0  0  0
 19 18  1  0  0  0  0
 20 21  1  0  0  0  0
 21 25  1  0  0  0  0
 21 22  2  0  0  0  0
 24 18  1  0  0  0  0
 26 30  1  0  0  0  0
 27 26  2  0  0  0  0
 28 29  1  0  0  0  0
 28 26  1  0  0  0  0
 30 31  1  0  0  0  0
 30 34  1  0  0  0  0
 31 32  1  0  0  0  0
 32 33  1  0  0  0  0
 34 33  1  0  0  0  0
M  END
>  <minimizedAffinity>
-5.1482811

$$$$

 OpenBabel03262523563D

 34 36  0  0  1  0  0  0  0  0999 V2000
   38.8380   24.8640   36.0710 C   0  0  1  0  0  0  0  0  0  0  0  0
   37.7610   24.5000   36.9810 C   0  0  0  0  0  0  0  0  0  0  0  0
   38.3520   23.8690   38.2050 C   0  0  0  0  0  0  0  0  0  0  0  0
   39.4620   22.9510   37.8530 C   0  0  0  0  0  0  0  0  0  0  0  0
   39.4720   22.4710   36.4540 C   0  0  0  0  0  0  0  0  0  0  0  0
   39.3540   23.5820   35.4100 C   0  0  1  0  0  0  0  0  0  0  0  0
   39.7130   25.2930   36.6160 H   0  0  0  0  0  0  0  0  0  0  0  0
   37.1140   25.3720   37.2190 H   0  0  0  0  0  0  0  0  0  0  0  0
   37.0710   23.7490   36.5390 H   0  0  0  0  0  0  0  0  0  0  0  0
   37.5520   23.2930   38.7120 H   0  0  0  0  0  0  0  0  0  0  0  0
   38.6520   24.6750   38.9170 H   0  0  0  0  0  0  0  0  0  0  0  0
   40.4160   23.4910   38.0350 H   0  0  0  0  0  0  0  0  0  0  0  0
   39.4450   22.0690   38.5100 H   0  0  0  0  0  0  0  0  0  0  0  0
   38.6120   21.7830   36.2870 H   0  0  0  0  0  0  0  0  0  0  0  0
   40.3990   21.9020   36.2580 H   0  0  0  0  0  0  0  0  0  0  0  0
   40.3820   23.7870   35.0390 H   0  0  0  0  0  0  0  0  0  0  0  0
   36.9540   27.3160   34.0150 C   0  0  0  0  0  0  0  0  0  0  0  0
   37.2850   26.4480   35.0910 C   0  0  0  0  0  0  0  0  0  0  0  0
   38.4960   25.7780   34.9740 C   0  0  0  0  0  0  0  0  0  0  0  0
   39.3050   25.9690   33.8630 N   0  0  0  0  0  0  0  0  0  0  0  0
   38.9510   26.8000   32.8730 C   0  0  0  0  0  0  0  0  0  0  0  0
   37.7650   27.4820   32.9410 N   0  0  0  0  0  0  0  0  0  0  0  0
   36.0170   27.8480   34.0820 H   0  0  0  0  0  0  0  0  0  0  0  0
   36.6270   26.3280   35.9350 H   0  0  0  0  0  0  0  0  0  0  0  0
   39.5790   26.9450   32.0160 H   0  0  0  0  0  0  0  0  0  0  0  0
   38.8040   22.4210   33.1070 C   0  0  0  0  0  0  0  0  0  0  0  0
   40.0030   22.0640   33.0470 O   0  0  0  0  0  0  0  0  0  0  0  0
   38.5460   23.1420   34.3090 N   0  0  0  0  0  0  0  0  0  0  0  0
   37.5480   23.4680   34.5160 H   0  0  0  0  0  0  0  0  0  0  0  0
   37.6350   22.2320   32.1740 C   0  0  0  0  0  3  0  0  0  0  0  0
   36.5960   21.4810   32.9920 C   0  0  0  0  0  2  0  0  0  0  0  0
   35.3610   21.7090   32.1510 C   0  0  0  0  0  2  0  0  0  0  0  0
   35.5800   23.0720   31.4820 C   0  0  0  0  0  2  0  0  0  0  0  0
   36.9550   23.5400   31.9760 C   0  0  0  0  0  2  0  0  0  0  0  0
  1  7  1  1  0  0  0
  1  2  1  0  0  0  0
  2  8  1  0  0  0  0
  2  3  1  0  0  0  0
  3 10  1  0  0  0  0
  3 11  1  0  0  0  0
  4 12  1  0  0  0  0
  4  3  1  0  0  0  0
  4 13  1  0  0  0  0
  5  4  1  0  0  0  0
  6 16  1  6  0  0  0
  6  1  1  0  0  0  0
  6  5  1  0  0  0  0
  9  2  1  0  0  0  0
 14  5  1  0  0  0  0
 15  5  1  0  0  0  0
 17 23  1  0  0  0  0
 17 18  1  0  0  0  0
 18 24  1  0  0  0  0
 19 18  2  0  0  0  0
 19  1  1  0  0  0  0
 20 19  1  0  0  0  0
 21 22  1  0  0  0  0
 21 20  2  0  0  0  0
 22 17  2  0  0  0  0
 25 21  1  0  0  0  0
 26 28  1  0  0  0  0
 27 26  2  0  0  0  0
 28 29  1  0  0  0  0
 28  6  1  0  0  0  0
 30 31  1  0  0  0  0
 30 26  1  0  0  0  0
 32 31  1  0  0  0  0
 33 34  1  0  0  0  0
 33 32  1  0  0  0  0
 34 30  1  0  0  0  0
M  END
>  <minimizedAffinity>
-5.06728792

$$$$

 OpenBabel03262523563D

 34 36  0  0  1  0  0  0  0  0999 V2000
   37.1690   21.1290   33.2250 C   0  0  1  0  0  0  0  0  0  0  0  0
   35.8640   20.7930   33.7760 C   0  0  0  0  0  0  0  0  0  0  0  0
   35.2650   19.6850   32.9650 C   0  0  0  0  0  0  0  0  0  0  0  0
   35.5050   19.8900   31.5160 C   0  0  0  0  0  0  0  0  0  0  0  0
   35.8290   21.2760   31.1130 C   0  0  0  0  0  0  0  0  0  0  0  0
   36.9490   21.9200   31.9320 C   0  0  1  0  0  0  0  0  0  0  0  0
   37.7390   20.2160   32.9240 H   0  0  0  0  0  0  0  0  0  0  0  0
   35.9280   20.5460   34.8580 H   0  0  0  0  0  0  0  0  0  0  0  0
   35.1520   21.6460   33.7240 H   0  0  0  0  0  0  0  0  0  0  0  0
   34.1720   19.6770   33.1530 H   0  0  0  0  0  0  0  0  0  0  0  0
   35.6530   18.7100   33.3450 H   0  0  0  0  0  0  0  0  0  0  0  0
   36.3580   19.2420   31.2210 H   0  0  0  0  0  0  0  0  0  0  0  0
   34.6250   19.5700   30.9390 H   0  0  0  0  0  0  0  0  0  0  0  0
   34.9310   21.9220   31.2380 H   0  0  0  0  0  0  0  0  0  0  0  0
   36.1140   21.3010   30.0460 H   0  0  0  0  0  0  0  0  0  0  0  0
   37.8780   21.8380   31.3260 H   0  0  0  0  0  0  0  0  0  0  0  0
   38.5210   22.9090   36.1900 C   0  0  0  0  0  0  0  0  0  0  0  0
   37.6740   22.0920   35.3920 C   0  0  0  0  0  0  0  0  0  0  0  0
   38.0480   21.9550   34.0620 C   0  0  0  0  0  0  0  0  0  0  0  0
   39.1820   22.5900   33.5780 N   0  0  0  0  0  0  0  0  0  0  0  0
   39.9520   23.3510   34.3690 C   0  0  0  0  0  0  0  0  0  0  0  0
   39.6240   23.5180   35.6890 N   0  0  0  0  0  0  0  0  0  0  0  0
   38.2510   23.0320   37.2290 H   0  0  0  0  0  0  0  0  0  0  0  0
   36.8020   21.6170   35.8090 H   0  0  0  0  0  0  0  0  0  0  0  0
   40.8270   23.8410   33.9910 H   0  0  0  0  0  0  0  0  0  0  0  0
   36.9920   24.5160   31.4710 C   0  0  0  0  0  0  0  0  0  0  0  0
   37.6340   24.2780   30.4220 O   0  0  0  0  0  0  0  0  0  0  0  0
   36.6640   23.3090   32.1530 N   0  0  0  0  0  0  0  0  0  0  0  0
   36.0720   23.3580   33.0430 H   0  0  0  0  0  0  0  0  0  0  0  0
   36.5250   25.7980   32.1130 C   0  0  0  0  0  3  0  0  0  0  0  0
   37.2660   25.8660   33.4390 C   0  0  0  0  0  2  0  0  0  0  0  0
   37.0690   27.3230   33.7930 C   0  0  0  0  0  2  0  0  0  0  0  0
   36.9840   28.0530   32.4470 C   0  0  0  0  0  2  0  0  0  0  0  0
   37.1240   26.9510   31.3880 C   0  0  0  0  0  2  0  0  0  0  0  0
  1  7  1  6  0  0  0
  1  2  1  0  0  0  0
  1 19  1  0  0  0  0
  2  8  1  0  0  0  0
  3 10  1  0  0  0  0
  3 11  1  0  0  0  0
  3  2  1  0  0  0  0
  4  3  1  0  0  0  0
  5 14  1  0  0  0  0
  5  4  1  0  0  0  0
  5  6  1  0  0  0  0
  6 16  1  6  0  0  0
  6 28  1  0  0  0  0
  6  1  1  0  0  0  0
  9  2  1  0  0  0  0
 12  4  1  0  0  0  0
 13  4  1  0  0  0  0
 15  5  1  0  0  0  0
 17 23  1  0  0  0  0
 18 24  1  0  0  0  0
 18 17  2  0  0  0  0
 19 18  1  0  0  0  0
 20 19  2  0  0  0  0
 20 21  1  0  0  0  0
 21 22  2  0  0  0  0
 22 17  1  0  0  0  0
 25 21  1  0  0  0  0
 26 30  1  0  0  0  0
 26 28  1  0  0  0  0
 27 26  2  0  0  0  0
 28 29  1  0  0  0  0
 30 31  1  0  0  0  0
 31 32  1  0  0  0  0
 33 32  1  0  0  0  0
 34 30  1  0  0  0  0
 34 33  1  0  0  0  0
M  END
>  <minimizedAffinity>
-5.00936651

$$$$

 OpenBabel03262523563D

 34 36  0  0  1  0  0  0  0  0999 V2000
   37.1890   25.3390   31.1540 C   0  0  1  0  0  0  0  0  0  0  0  0
   36.0330   26.1760   31.4430 C   0  0  0  0  0  0  0  0  0  0  0  0
   36.2870   27.5540   30.9140 C   0  0  0  0  0  0  0  0  0  0  0  0
   37.6830   27.9810   31.1750 C   0  0  0  0  0  0  0  0  0  0  0  0
   38.3820   27.2480   32.2530 C   0  0  0  0  0  0  0  0  0  0  0  0
   38.3100   25.7260   32.1250 C   0  0  1  0  0  0  0  0  0  0  0  0
   37.5970   25.5350   30.1330 H   0  0  0  0  0  0  0  0  0  0  0  0
   35.0960   25.7300   31.0450 H   0  0  0  0  0  0  0  0  0  0  0  0
   35.8530   26.2830   32.5350 H   0  0  0  0  0  0  0  0  0  0  0  0
   35.5930   28.2510   31.4280 H   0  0  0  0  0  0  0  0  0  0  0  0
   36.0100   27.5820   29.8330 H   0  0  0  0  0  0  0  0  0  0  0  0
   38.2600   27.8380   30.2370 H   0  0  0  0  0  0  0  0  0  0  0  0
   37.7100   29.0520   31.4260 H   0  0  0  0  0  0  0  0  0  0  0  0
   37.9300   27.5070   33.2370 H   0  0  0  0  0  0  0  0  0  0  0  0
   39.4460   27.5480   32.2850 H   0  0  0  0  0  0  0  0  0  0  0  0
   39.2710   25.3940   31.6750 H   0  0  0  0  0  0  0  0  0  0  0  0
   35.5400   22.0450   31.6250 C   0  0  0  0  0  0  0  0  0  0  0  0
   35.7030   23.4490   31.4670 C   0  0  0  0  0  0  0  0  0  0  0  0
   37.0090   23.8890   31.2980 C   0  0  0  0  0  0  0  0  0  0  0  0
   38.0630   22.9870   31.2900 N   0  0  0  0  0  0  0  0  0  0  0  0
   37.8610   21.6710   31.4420 C   0  0  0  0  0  0  0  0  0  0  0  0
   36.5900   21.1880   31.6130 N   0  0  0  0  0  0  0  0  0  0  0  0
   34.5330   21.6780   31.7590 H   0  0  0  0  0  0  0  0  0  0  0  0
   34.8560   24.1150   31.4810 H   0  0  0  0  0  0  0  0  0  0  0  0
   38.6780   20.9770   31.4360 H   0  0  0  0  0  0  0  0  0  0  0  0
   39.0880   24.5680   34.3620 C   0  0  0  0  0  0  0  0  0  0  0  0
   40.2700   24.6830   33.9620 O   0  0  0  0  0  0  0  0  0  0  0  0
   38.1750   25.1260   33.4210 N   0  0  0  0  0  0  0  0  0  0  0  0
   37.1310   25.1410   33.6540 H   0  0  0  0  0  0  0  0  0  0  0  0
   38.4860   23.9700   35.6080 C   0  0  0  0  0  3  0  0  0  0  0  0
   39.6620   23.3760   36.3670 C   0  0  0  0  0  2  0  0  0  0  0  0
   39.0450   23.1920   37.7350 C   0  0  0  0  0  2  0  0  0  0  0  0
   38.0030   24.3110   37.8570 C   0  0  0  0  0  2  0  0  0  0  0  0
   38.0760   25.0680   36.5240 C   0  0  0  0  0  2  0  0  0  0  0  0
  1  7  1  6  0  0  0
  1 19  1  0  0  0  0
  1  2  1  0  0  0  0
  1  6  1  0  0  0  0
  2  9  1  0  0  0  0
  3  4  1  0  0  0  0
  3 10  1  0  0  0  0
  3  2  1  0  0  0  0
  4 13  1  0  0  0  0
  4  5  1  0  0  0  0
  5 15  1  0  0  0  0
  5 14  1  0  0  0  0
  6 16  1  6  0  0  0
  6  5  1  0  0  0  0
  6 28  1  0  0  0  0
  8  2  1  0  0  0  0
 11  3  1  0  0  0  0
 12  4  1  0  0  0  0
 17 23  1  0  0  0  0
 18 24  1  0  0  0  0
 18 17  2  0  0  0  0
 19 18  1  0  0  0  0
 20 19  2  0  0  0  0
 20 21  1  0  0  0  0
 21 22  2  0  0  0  0
 22 17  1  0  0  0  0
 25 21  1  0  0  0  0
 26 30  1  0  0  0  0
 27 26  2  0  0  0  0
 28 29  1  0  0  0  0
 28 26  1  0  0  0  0
 30 31  1  0  0  0  0
 30 34  1  0  0  0  0
 31 32  1  0  0  0  0
 32 33  1  0  0  0  0
 34 33  1  0  0  0  0
M  END
>  <minimizedAffinity>
-4.98519611

$$$$

 OpenBabel03262523563D

 34 36  0  0  1  0  0  0  0  0999 V2000
   35.9510   21.6290   31.5920 C   0  0  1  0  0  0  0  0  0  0  0  0
   36.7790   20.6390   30.9190 C   0  0  0  0  0  0  0  0  0  0  0  0
   36.0070   19.3610   30.7970 C   0  0  0  0  0  0  0  0  0  0  0  0
   35.2450   19.0740   32.0370 C   0  0  0  0  0  0  0  0  0  0  0  0
   35.7230   19.7670   33.2530 C   0  0  0  0  0  0  0  0  0  0  0  0
   35.9060   21.2760   33.0820 C   0  0  1  0  0  0  0  0  0  0  0  0
   34.8910   21.5880   31.2430 H   0  0  0  0  0  0  0  0  0  0  0  0
   37.1480   21.0120   29.9380 H   0  0  0  0  0  0  0  0  0  0  0  0
   37.7010   20.3990   31.4930 H   0  0  0  0  0  0  0  0  0  0  0  0
   36.7310   18.5400   30.6190 H   0  0  0  0  0  0  0  0  0  0  0  0
   35.3650   19.4130   29.8850 H   0  0  0  0  0  0  0  0  0  0  0  0
   34.1910   19.3790   31.8630 H   0  0  0  0  0  0  0  0  0  0  0  0
   35.2520   17.9940   32.2430 H   0  0  0  0  0  0  0  0  0  0  0  0
   36.7130   19.3580   33.5540 H   0  0  0  0  0  0  0  0  0  0  0  0
   35.0200   19.5920   34.0880 H   0  0  0  0  0  0  0  0  0  0  0  0
   35.0030   21.7620   33.5140 H   0  0  0  0  0  0  0  0  0  0  0  0
   35.8390   25.3300   31.3190 C   0  0  0  0  0  0  0  0  0  0  0  0
   35.3970   23.9820   31.4090 C   0  0  0  0  0  0  0  0  0  0  0  0
   36.3980   23.0260   31.5180 C   0  0  0  0  0  0  0  0  0  0  0  0
   37.7340   23.3990   31.5350 N   0  0  0  0  0  0  0  0  0  0  0  0
   38.1030   24.6850   31.4480 C   0  0  0  0  0  0  0  0  0  0  0  0
   37.1530   25.6650   31.3380 N   0  0  0  0  0  0  0  0  0  0  0  0
   35.0800   26.0930   31.2320 H   0  0  0  0  0  0  0  0  0  0  0  0
   34.3480   23.7360   31.3910 H   0  0  0  0  0  0  0  0  0  0  0  0
   39.1370   24.9700   31.4620 H   0  0  0  0  0  0  0  0  0  0  0  0
   37.3830   21.8430   35.1920 C   0  0  0  0  0  0  0  0  0  0  0  0
   36.4470   21.4190   35.9090 O   0  0  0  0  0  0  0  0  0  0  0  0
   37.0610   21.7200   33.8090 N   0  0  0  0  0  0  0  0  0  0  0  0
   37.7900   22.0000   33.0780 H   0  0  0  0  0  0  0  0  0  0  0  0
   38.7300   22.4360   35.5160 C   0  0  0  0  0  3  0  0  0  0  0  0
   39.6050   22.1030   34.3180 C   0  0  0  0  0  2  0  0  0  0  0  0
   40.7530   23.0630   34.5360 C   0  0  0  0  0  2  0  0  0  0  0  0
   40.1320   24.2720   35.2470 C   0  0  0  0  0  2  0  0  0  0  0  0
   38.6480   23.9180   35.4100 C   0  0  0  0  0  2  0  0  0  0  0  0
  1  7  1  6  0  0  0
  1  6  1  0  0  0  0
  2  9  1  0  0  0  0
  2  1  1  0  0  0  0
  3  2  1  0  0  0  0
  3  4  1  0  0  0  0
  4 13  1  0  0  0  0
  4  5  1  0  0  0  0
  5 14  1  0  0  0  0
  5 15  1  0  0  0  0
  6  5  1  0  0  0  0
  6 16  1  1  0  0  0
  6 28  1  0  0  0  0
  8  2  1  0  0  0  0
 10  3  1  0  0  0  0
 11  3  1  0  0  0  0
 12  4  1  0  0  0  0
 17 22  2  0  0  0  0
 17 18  1  0  0  0  0
 18 19  2  0  0  0  0
 19 20  1  0  0  0  0
 19  1  1  0  0  0  0
 21 25  1  0  0  0  0
 21 20  2  0  0  0  0
 22 21  1  0  0  0  0
 23 17  1  0  0  0  0
 24 18  1  0  0  0  0
 26 30  1  0  0  0  0
 26 27  2  0  0  0  0
 28 26  1  0  0  0  0
 29 28  1  0  0  0  0
 31 32  1  0  0  0  0
 31 30  1  0  0  0  0
 32 33  1  0  0  0  0
 33 34  1  0  0  0  0
 34 30  1  0  0  0  0
M  END
>  <minimizedAffinity>
-4.96571207

$$$$

 OpenBabel03262523563D

 34 36  0  0  1  0  0  0  0  0999 V2000
   38.4720   25.7370   33.5290 C   0  0  1  0  0  0  0  0  0  0  0  0
   39.6430   25.7030   32.6640 C   0  0  0  0  0  0  0  0  0  0  0  0
   39.8360   27.0580   32.0540 C   0  0  0  0  0  0  0  0  0  0  0  0
   38.5400   27.6510   31.6440 C   0  0  0  0  0  0  0  0  0  0  0  0
   37.4300   26.6920   31.4610 C   0  0  0  0  0  0  0  0  0  0  0  0
   37.2250   25.7390   32.6400 C   0  0  1  0  0  0  0  0  0  0  0  0
   38.4210   26.6840   34.1190 H   0  0  0  0  0  0  0  0  0  0  0  0
   40.5440   25.3450   33.2090 H   0  0  0  0  0  0  0  0  0  0  0  0
   39.5220   24.9890   31.8200 H   0  0  0  0  0  0  0  0  0  0  0  0
   40.4810   26.9410   31.1600 H   0  0  0  0  0  0  0  0  0  0  0  0
   40.4090   27.6960   32.7690 H   0  0  0  0  0  0  0  0  0  0  0  0
   38.2380   28.3770   32.4290 H   0  0  0  0  0  0  0  0  0  0  0  0
   38.6620   28.2070   30.7030 H   0  0  0  0  0  0  0  0  0  0  0  0
   37.6250   26.0560   30.5680 H   0  0  0  0  0  0  0  0  0  0  0  0
   36.4850   27.2380   31.2830 H   0  0  0  0  0  0  0  0  0  0  0  0
   36.3840   26.1490   33.2430 H   0  0  0  0  0  0  0  0  0  0  0  0
   37.7180   23.8490   36.6370 C   0  0  0  0  0  0  0  0  0  0  0  0
   37.8590   24.9400   35.7360 C   0  0  0  0  0  0  0  0  0  0  0  0
   38.3050   24.6150   34.4610 C   0  0  0  0  0  0  0  0  0  0  0  0
   38.5850   23.2980   34.1250 N   0  0  0  0  0  0  0  0  0  0  0  0
   38.4370   22.3020   35.0090 C   0  0  0  0  0  0  0  0  0  0  0  0
   38.0000   22.5720   36.2790 N   0  0  0  0  0  0  0  0  0  0  0  0
   37.3740   24.0760   37.6350 H   0  0  0  0  0  0  0  0  0  0  0  0
   37.6310   25.9480   36.0390 H   0  0  0  0  0  0  0  0  0  0  0  0
   38.6550   21.2860   34.7460 H   0  0  0  0  0  0  0  0  0  0  0  0
   35.7050   23.8920   31.5310 C   0  0  0  0  0  0  0  0  0  0  0  0
   34.8530   24.7840   31.3100 O   0  0  0  0  0  0  0  0  0  0  0  0
   36.8590   24.4360   32.1650 N   0  0  0  0  0  0  0  0  0  0  0  0
   37.6910   23.7950   32.3710 H   0  0  0  0  0  0  0  0  0  0  0  0
   35.7250   22.4100   31.2590 C   0  0  0  0  0  3  0  0  0  0  0  0
   37.1930   22.0650   31.0670 C   0  0  0  0  0  2  0  0  0  0  0  0
   37.1490   20.5620   31.2200 C   0  0  0  0  0  2  0  0  0  0  0  0
   35.9880   20.2940   32.1870 C   0  0  0  0  0  2  0  0  0  0  0  0
   35.4200   21.6800   32.5190 C   0  0  0  0  0  2  0  0  0  0  0  0
  1  7  1  1  0  0  0
  1 19  1  0  0  0  0
  2  8  1  0  0  0  0
  2  1  1  0  0  0  0
  3  2  1  0  0  0  0
  3 11  1  0  0  0  0
  4  3  1  0  0  0  0
  4 12  1  0  0  0  0
  5  4  1  0  0  0  0
  5  6  1  0  0  0  0
  6 16  1  1  0  0  0
  6  1  1  0  0  0  0
  9  2  1  0  0  0  0
 10  3  1  0  0  0  0
 13  4  1  0  0  0  0
 14  5  1  0  0  0  0
 15  5  1  0  0  0  0
 17 23  1  0  0  0  0
 18 24  1  0  0  0  0
 18 17  2  0  0  0  0
 19 18  1  0  0  0  0
 20 19  2  0  0  0  0
 20 21  1  0  0  0  0
 21 22  2  0  0  0  0
 22 17  1  0  0  0  0
 25 21  1  0  0  0  0
 26 28  1  0  0  0  0
 27 26  2  0  0  0  0
 28 29  1  0  0  0  0
 28  6  1  0  0  0  0
 30 26  1  0  0  0  0
 30 34  1  0  0  0  0
 31 32  1  0  0  0  0
 31 30  1  0  0  0  0
 32 33  1  0  0  0  0
 33 34  1  0  0  0  0
M  END
>  <minimizedAffinity>
-4.92633152

$$$$

 OpenBabel03262523563D

 34 36  0  0  1  0  0  0  0  0999 V2000
   35.4940   30.8880   31.5750 C   0  0  1  0  0  0  0  0  0  0  0  0
   36.6440   31.7730   31.6980 C   0  0  0  0  0  0  0  0  0  0  0  0
   37.0520   32.2300   30.3310 C   0  0  0  0  0  0  0  0  0  0  0  0
   36.9830   31.1200   29.3500 C   0  0  0  0  0  0  0  0  0  0  0  0
   37.0040   29.7590   29.9260 C   0  0  0  0  0  0  0  0  0  0  0  0
   35.9880   29.5370   31.0480 C   0  0  1  0  0  0  0  0  0  0  0  0
   34.7660   31.2590   30.8130 H   0  0  0  0  0  0  0  0  0  0  0  0
   36.4380   32.6190   32.3890 H   0  0  0  0  0  0  0  0  0  0  0  0
   37.5260   31.2580   32.1370 H   0  0  0  0  0  0  0  0  0  0  0  0
   38.0980   32.5960   30.3910 H   0  0  0  0  0  0  0  0  0  0  0  0
   36.4310   33.1130   30.0460 H   0  0  0  0  0  0  0  0  0  0  0  0
   36.0370   31.2340   28.7790 H   0  0  0  0  0  0  0  0  0  0  0  0
   37.8160   31.1950   28.6360 H   0  0  0  0  0  0  0  0  0  0  0  0
   38.0080   29.5500   30.3610 H   0  0  0  0  0  0  0  0  0  0  0  0
   36.8200   29.0100   29.1330 H   0  0  0  0  0  0  0  0  0  0  0  0
   35.1160   29.0160   30.5950 H   0  0  0  0  0  0  0  0  0  0  0  0
   34.4600   30.9570   35.1410 C   0  0  0  0  0  0  0  0  0  0  0  0
   35.1740   31.2610   33.9500 C   0  0  0  0  0  0  0  0  0  0  0  0
   34.7490   30.5960   32.8070 C   0  0  0  0  0  0  0  0  0  0  0  0
   33.6920   29.7000   32.8620 N   0  0  0  0  0  0  0  0  0  0  0  0
   33.0480   29.4460   34.0100 C   0  0  0  0  0  0  0  0  0  0  0  0
   33.4300   30.0760   35.1650 N   0  0  0  0  0  0  0  0  0  0  0  0
   34.7720   31.4600   36.0440 H   0  0  0  0  0  0  0  0  0  0  0  0
   35.9910   31.9630   33.9520 H   0  0  0  0  0  0  0  0  0  0  0  0
   32.2310   28.7530   34.0490 H   0  0  0  0  0  0  0  0  0  0  0  0
   36.4390   27.3140   32.3920 C   0  0  0  0  0  0  0  0  0  0  0  0
   35.7230   26.7130   31.5580 O   0  0  0  0  0  0  0  0  0  0  0  0
   36.5490   28.6970   32.0660 N   0  0  0  0  0  0  0  0  0  0  0  0
   37.1720   29.3260   32.6670 H   0  0  0  0  0  0  0  0  0  0  0  0
   37.1740   26.8550   33.6250 C   0  0  0  0  0  3  0  0  0  0  0  0
   38.6460   27.0810   33.3130 C   0  0  0  0  0  2  0  0  0  0  0  0
   39.2400   27.0000   34.7010 C   0  0  0  0  0  2  0  0  0  0  0  0
   38.1380   27.5110   35.6380 C   0  0  0  0  0  2  0  0  0  0  0  0
   36.9570   27.8430   34.7160 C   0  0  0  0  0  2  0  0  0  0  0  0
  1  7  1  6  0  0  0
  1  2  1  0  0  0  0
  1 19  1  0  0  0  0
  2  9  1  0  0  0  0
  2  8  1  0  0  0  0
  3 10  1  0  0  0  0
  3  2  1  0  0  0  0
  4  5  1  0  0  0  0
  4  3  1  0  0  0  0
  5 14  1  0  0  0  0
  5  6  1  0  0  0  0
  6 16  1  6  0  0  0
  6  1  1  0  0  0  0
  6 28  1  0  0  0  0
 11  3  1  0  0  0  0
 12  4  1  0  0  0  0
 13  4  1  0  0  0  0
 15  5  1  0  0  0  0
 17 22  1  0  0  0  0
 17 23  1  0  0  0  0
 18 24  1  0  0  0  0
 18 17  2  0  0  0  0
 19 20  2  0  0  0  0
 19 18  1  0  0  0  0
 20 21  1  0  0  0  0
 21 25  1  0  0  0  0
 21 22  2  0  0  0  0
 26 30  1  0  0  0  0
 27 26  2  0  0  0  0
 28 26  1  0  0  0  0
 28 29  1  0  0  0  0
 30 34  1  0  0  0  0
 31 30  1  0  0  0  0
 31 32  1  0  0  0  0
 32 33  1  0  0  0  0
 34 33  1  0  0  0  0
M  END
>  <minimizedAffinity>
-4.9149456

$$$$

 OpenBabel03262523563D

 34 36  0  0  1  0  0  0  0  0999 V2000
   38.7490   22.2940   35.8670 C   0  0  1  0  0  0  0  0  0  0  0  0
   40.1270   22.6640   36.1550 C   0  0  0  0  0  0  0  0  0  0  0  0
   40.3400   22.6270   37.6380 C   0  0  0  0  0  0  0  0  0  0  0  0
   39.1780   23.1980   38.3620 C   0  0  0  0  0  0  0  0  0  0  0  0
   38.3030   24.0830   37.5630 C   0  0  0  0  0  0  0  0  0  0  0  0
   37.8520   23.4830   36.2310 C   0  0  1  0  0  0  0  0  0  0  0  0
   38.4030   21.4500   36.5110 H   0  0  0  0  0  0  0  0  0  0  0  0
   40.8470   22.0220   35.6020 H   0  0  0  0  0  0  0  0  0  0  0  0
   40.3630   23.7000   35.8260 H   0  0  0  0  0  0  0  0  0  0  0  0
   41.2420   23.2290   37.8680 H   0  0  0  0  0  0  0  0  0  0  0  0
   40.5800   21.5790   37.9410 H   0  0  0  0  0  0  0  0  0  0  0  0
   38.5610   22.3500   38.7290 H   0  0  0  0  0  0  0  0  0  0  0  0
   39.5220   23.7670   39.2370 H   0  0  0  0  0  0  0  0  0  0  0  0
   38.8430   25.0260   37.3210 H   0  0  0  0  0  0  0  0  0  0  0  0
   37.4040   24.3520   38.1480 H   0  0  0  0  0  0  0  0  0  0  0  0
   36.8230   23.0900   36.3850 H   0  0  0  0  0  0  0  0  0  0  0  0
   39.1940   21.5540   32.2550 C   0  0  0  0  0  0  0  0  0  0  0  0
   39.5120   21.8610   33.6060 C   0  0  0  0  0  0  0  0  0  0  0  0
   38.4310   21.9580   34.4730 C   0  0  0  0  0  0  0  0  0  0  0  0
   37.1370   21.7610   34.0140 N   0  0  0  0  0  0  0  0  0  0  0  0
   36.8860   21.4720   32.7290 C   0  0  0  0  0  0  0  0  0  0  0  0
   37.9180   21.3670   31.8350 N   0  0  0  0  0  0  0  0  0  0  0  0
   40.0170   21.4740   31.5610 H   0  0  0  0  0  0  0  0  0  0  0  0
   40.5320   22.0070   33.9210 H   0  0  0  0  0  0  0  0  0  0  0  0
   35.8840   21.3210   32.3770 H   0  0  0  0  0  0  0  0  0  0  0  0
   38.6350   25.6150   34.8910 C   0  0  0  0  0  0  0  0  0  0  0  0
   39.6350   25.6700   35.6440 O   0  0  0  0  0  0  0  0  0  0  0  0
   37.8120   24.4980   35.2180 N   0  0  0  0  0  0  0  0  0  0  0  0
   36.9450   24.2990   34.6240 H   0  0  0  0  0  0  0  0  0  0  0  0
   38.1670   26.4810   33.7500 C   0  0  0  0  0  3  0  0  0  0  0  0
   37.2410   25.5920   32.9350 C   0  0  0  0  0  2  0  0  0  0  0  0
   36.5220   26.6280   32.1010 C   0  0  0  0  0  2  0  0  0  0  0  0
   36.4840   27.8880   32.9760 C   0  0  0  0  0  2  0  0  0  0  0  0
   37.2090   27.4940   34.2700 C   0  0  0  0  0  2  0  0  0  0  0  0
  1  2  1  0  0  0  0
  1  6  1  0  0  0  0
  1  7  1  1  0  0  0
  2  3  1  0  0  0  0
  3 10  1  0  0  0  0
  3 11  1  0  0  0  0
  3  4  1  0  0  0  0
  4 12  1  0  0  0  0
  4 13  1  0  0  0  0
  5 15  1  0  0  0  0
  5  4  1  0  0  0  0
  6 16  1  1  0  0  0
  6  5  1  0  0  0  0
  8  2  1  0  0  0  0
  9  2  1  0  0  0  0
 14  5  1  0  0  0  0
 17 18  1  0  0  0  0
 18 24  1  0  0  0  0
 18 19  2  0  0  0  0
 19  1  1  0  0  0  0
 20 19  1  0  0  0  0
 21 20  2  0  0  0  0
 22 17  2  0  0  0  0
 22 21  1  0  0  0  0
 23 17  1  0  0  0  0
 25 21  1  0  0  0  0
 26 28  1  0  0  0  0
 26 27  2  0  0  0  0
 28  6  1  0  0  0  0
 29 28  1  0  0  0  0
 30 34  1  0  0  0  0
 30 26  1  0  0  0  0
 31 30  1  0  0  0  0
 32 31  1  0  0  0  0
 32 33  1  0  0  0  0
 33 34  1  0  0  0  0
M  END
>  <minimizedAffinity>
-4.86597586

$$$$

 OpenBabel03262523563D

 34 36  0  0  1  0  0  0  0  0999 V2000
   37.4500   21.4440   33.0480 C   0  0  1  0  0  0  0  0  0  0  0  0
   36.2030   21.1070   33.7200 C   0  0  0  0  0  0  0  0  0  0  0  0
   35.2470   20.5410   32.7160 C   0  0  0  0  0  0  0  0  0  0  0  0
   35.3030   21.2930   31.4380 C   0  0  0  0  0  0  0  0  0  0  0  0
   35.8720   22.6550   31.5260 C   0  0  0  0  0  0  0  0  0  0  0  0
   37.2220   22.7250   32.2400 C   0  0  1  0  0  0  0  0  0  0  0  0
   37.7400   20.6660   32.3010 H   0  0  0  0  0  0  0  0  0  0  0  0
   36.3740   20.4240   34.5810 H   0  0  0  0  0  0  0  0  0  0  0  0
   35.7080   21.9990   34.1620 H   0  0  0  0  0  0  0  0  0  0  0  0
   34.2240   20.6180   33.1370 H   0  0  0  0  0  0  0  0  0  0  0  0
   35.4530   19.4500   32.5970 H   0  0  0  0  0  0  0  0  0  0  0  0
   35.9270   20.7080   30.7300 H   0  0  0  0  0  0  0  0  0  0  0  0
   34.2950   21.3780   31.0060 H   0  0  0  0  0  0  0  0  0  0  0  0
   35.1780   23.3170   32.0920 H   0  0  0  0  0  0  0  0  0  0  0  0
   35.9890   23.0810   30.5120 H   0  0  0  0  0  0  0  0  0  0  0  0
   38.0040   22.7660   31.4500 H   0  0  0  0  0  0  0  0  0  0  0  0
   40.9770   21.8800   34.1240 C   0  0  0  0  0  0  0  0  0  0  0  0
   39.8550   21.6460   33.2830 C   0  0  0  0  0  0  0  0  0  0  0  0
   38.6140   21.7040   33.9040 C   0  0  0  0  0  0  0  0  0  0  0  0
   38.5150   21.9770   35.2610 N   0  0  0  0  0  0  0  0  0  0  0  0
   39.6030   22.1920   36.0140 C   0  0  0  0  0  0  0  0  0  0  0  0
   40.8490   22.1440   35.4470 N   0  0  0  0  0  0  0  0  0  0  0  0
   41.9540   21.8390   33.6640 H   0  0  0  0  0  0  0  0  0  0  0  0
   39.9770   21.4370   32.2330 H   0  0  0  0  0  0  0  0  0  0  0  0
   39.5230   22.4030   37.0620 H   0  0  0  0  0  0  0  0  0  0  0  0
   37.7490   25.2520   32.7840 C   0  0  0  0  0  0  0  0  0  0  0  0
   38.1000   25.3920   31.5890 O   0  0  0  0  0  0  0  0  0  0  0  0
   37.3040   23.9200   33.0300 N   0  0  0  0  0  0  0  0  0  0  0  0
   36.9270   23.6690   34.0000 H   0  0  0  0  0  0  0  0  0  0  0  0
   37.7160   26.1980   33.9560 C   0  0  0  0  0  3  0  0  0  0  0  0
   37.7920   25.3040   35.1850 C   0  0  0  0  0  2  0  0  0  0  0  0
   38.1690   26.3160   36.2420 C   0  0  0  0  0  2  0  0  0  0  0  0
   38.9900   27.3800   35.5020 C   0  0  0  0  0  2  0  0  0  0  0  0
   39.0180   26.9130   34.0400 C   0  0  0  0  0  2  0  0  0  0  0  0
  1  7  1  6  0  0  0
  1  2  1  0  0  0  0
  1 19  1  0  0  0  0
  2  9  1  0  0  0  0
  2  8  1  0  0  0  0
  3 10  1  0  0  0  0
  3  2  1  0  0  0  0
  4  5  1  0  0  0  0
  4  3  1  0  0  0  0
  5 14  1  0  0  0  0
  5  6  1  0  0  0  0
  6 16  1  6  0  0  0
  6 28  1  0  0  0  0
  6  1  1  0  0  0  0
 11  3  1  0  0  0  0
 12  4  1  0  0  0  0
 13  4  1  0  0  0  0
 15  5  1  0  0  0  0
 17 22  1  0  0  0  0
 18 19  1  0  0  0  0
 18 17  2  0  0  0  0
 19 20  2  0  0  0  0
 20 21  1  0  0  0  0
 21 25  1  0  0  0  0
 22 21  2  0  0  0  0
 23 17  1  0  0  0  0
 24 18  1  0  0  0  0
 26 28  1  0  0  0  0
 26 30  1  0  0  0  0
 27 26  2  0  0  0  0
 28 29  1  0  0  0  0
 30 34  1  0  0  0  0
 30 31  1  0  0  0  0
 31 32  1  0  0  0  0
 33 32  1  0  0  0  0
 34 33  1  0  0  0  0
M  END
>  <minimizedAffinity>
-4.85010481

$$$$
