
 OpenBabel03272503503D

 33 35  0  0  1  0  0  0  0  0999 V2000
   32.9060   27.4090   46.0350 C   0  0  1  0  0  0  0  0  0  0  0  0
   33.9000   27.5300   47.2110 C   0  0  2  0  0  0  0  0  0  0  0  0
   33.8790   26.2870   47.7630 O   0  0  0  0  0  0  0  0  0  0  0  0
   33.9720   25.4270   46.6820 C   0  0  0  0  0  0  0  0  0  0  0  0
   33.1940   26.0350   45.5380 C   0  0  2  0  0  0  0  0  0  0  0  0
   33.1770   28.1610   45.2640 H   0  0  0  0  0  0  0  0  0  0  0  0
   34.8570   27.8460   46.7380 H   0  0  0  0  0  0  0  0  0  0  0  0
   35.0170   25.1640   46.4220 H   0  0  0  0  0  0  0  0  0  0  0  0
   33.4720   24.4800   46.9810 H   0  0  0  0  0  0  0  0  0  0  0  0
   32.3030   25.4300   45.2790 H   0  0  0  0  0  0  0  0  0  0  0  0
   31.6100   27.6010   46.4750 O   0  0  0  0  0  0  0  0  0  0  0  0
   31.1290   28.2000   45.8310 H   0  0  0  0  0  0  0  0  0  0  0  0
   33.4150   28.5560   47.9670 O   0  0  0  0  0  0  0  0  0  0  0  0
   35.3550   29.8700   46.7520 O   0  0  0  0  0  0  0  0  0  0  0  0
   34.1370   30.0430   47.6460 P   0  0  1  0  0  0  0  0  0  0  0  0
   33.0750   31.0270   46.7660 O   0  0  0  0  0  0  0  0  0  0  0  0
   32.2620   31.2130   47.2960 H   0  0  0  0  0  0  0  0  0  0  0  0
   34.5080   30.7500   49.1500 O   0  0  0  0  0  0  0  0  0  0  0  0
   35.7230   30.5740   49.7740 C   0  0  0  0  0  0  0  0  0  0  0  0
   35.9950   29.5430   50.7010 C   0  0  0  0  0  0  0  0  0  0  0  0
   37.2720   29.4880   51.2520 C   0  0  0  0  0  0  0  0  0  0  0  0
   38.1870   30.4270   50.8710 N   0  0  0  0  0  0  0  0  0  0  0  0
   37.8920   31.4080   49.9740 C   0  0  0  0  0  0  0  0  0  0  0  0
   36.6490   31.4780   49.4240 N   0  0  0  0  0  0  0  0  0  0  0  0
   35.1920   28.8530   50.9290 H   0  0  0  0  0  0  0  0  0  0  0  0
   37.4910   28.7070   51.9590 H   0  0  0  0  0  0  0  0  0  0  0  0
   38.6530   32.1220   49.7100 H   0  0  0  0  0  0  0  0  0  0  0  0
   34.0010   26.0930   44.4020 O   0  0  0  0  0  0  0  0  0  0  0  0
   33.3560   25.6420   43.2580 C   0  0  0  0  0  3  0  0  0  0  0  0
   32.0180   25.0540   43.6150 C   0  0  0  0  0  2  0  0  0  0  0  0
   30.9720   25.8610   42.9190 C   0  0  0  0  0  2  0  0  0  0  0  0
   31.6550   26.7470   41.9130 C   0  0  0  0  0  2  0  0  0  0  0  0
   33.1160   26.7450   42.2630 C   0  0  0  0  0  2  0  0  0  0  0  0
  1  6  1  6  0  0  0
  1 11  1  0  0  0  0
  1  2  1  0  0  0  0
  2  7  1  6  0  0  0
  2  3  1  0  0  0  0
  2 13  1  0  0  0  0
  4  9  1  0  0  0  0
  4  3  1  0  0  0  0
  5 10  1  6  0  0  0
  5  1  1  0  0  0  0
  5  4  1  0  0  0  0
  8  4  1  0  0  0  0
 12 11  1  0  0  0  0
 15 14  2  6  0  0  0
 15 13  1  0  0  0  0
 15 18  1  0  0  0  0
 16 17  1  0  0  0  0
 16 15  1  0  0  0  0
 18 19  1  0  0  0  0
 19 20  1  0  0  0  0
 20 25  1  0  0  0  0
 20 21  2  0  0  0  0
 21 26  1  0  0  0  0
 22 21  1  0  0  0  0
 23 22  2  0  0  0  0
 24 19  2  0  0  0  0
 24 23  1  0  0  0  0
 27 23  1  0  0  0  0
 28  5  1  0  0  0  0
 29 30  1  0  0  0  0
 29 28  1  0  0  0  0
 31 30  1  0  0  0  0
 32 33  1  0  0  0  0
 32 31  1  0  0  0  0
 33 29  1  0  0  0  0
M  END
>  <minimizedAffinity>
-3.86247063

>  <minimizedRMSD>
0.772156954

$$$$
