
 OpenBabel03272507303D

 25 27  0  0  0  0  0  0  0  0999 V2000
   35.8850   29.2080   49.7880 C   0  0  0  0  0  0  0  0  0  0  0  0
   34.8130   29.7430   50.4200 C   0  0  0  0  0  0  0  0  0  0  0  0
   33.6590   29.1350   49.9280 C   0  0  0  0  0  0  0  0  0  0  0  0
   34.1310   28.2120   48.9680 C   0  0  0  0  0  0  0  0  0  0  0  0
   35.4170   28.3310   48.9640 O   0  0  0  0  0  0  0  0  0  0  0  0
   34.8020   30.5100   51.1820 H   0  0  0  0  0  0  0  0  0  0  0  0
   32.6360   29.3000   50.1900 H   0  0  0  0  0  0  0  0  0  0  0  0
   37.2480   29.6160   50.0620 C   0  0  0  0  0  0  0  0  0  0  0  0
   37.8580   29.0820   50.9990 O   0  0  0  0  0  0  0  0  0  0  0  0
   37.8130   30.6440   49.1990 C   0  0  0  0  0  0  0  0  0  0  0  0
   38.1360   31.8600   49.8020 C   0  0  0  0  0  0  0  0  0  0  0  0
   38.6760   32.8680   49.0170 C   0  0  0  0  0  0  0  0  0  0  0  0
   38.8610   32.6010   47.6820 N   0  0  0  0  0  0  0  0  0  0  0  0
   38.5440   31.4300   47.1260 C   0  0  0  0  0  0  0  0  0  0  0  0
   38.0200   30.4470   47.8760 N   0  0  0  0  0  0  0  0  0  0  0  0
   37.9660   32.0100   50.8620 H   0  0  0  0  0  0  0  0  0  0  0  0
   38.9250   33.8060   49.4810 H   0  0  0  0  0  0  0  0  0  0  0  0
   38.7300   31.3220   46.0650 H   0  0  0  0  0  0  0  0  0  0  0  0
   33.2610   27.3310   48.1780 C   0  0  0  0  0  0  0  0  0  0  0  0
   32.0240   27.2930   48.4250 O   0  0  0  0  0  0  0  0  0  0  0  0
   33.9080   26.5360   47.1280 C   0  0  0  0  0  3  0  0  0  0  0  0
   33.2400   26.7220   45.7650 C   0  0  0  0  0  2  0  0  0  0  0  0
   33.9500   25.6410   44.9710 C   0  0  0  0  0  2  0  0  0  0  0  0
   34.3760   24.5790   45.9940 C   0  0  0  0  0  2  0  0  0  0  0  0
   33.6870   25.0510   47.2830 C   0  0  0  0  0  2  0  0  0  0  0  0
  1  8  1  0  0  0  0
  1  2  2  0  0  0  0
  2  6  1  0  0  0  0
  3  7  1  0  0  0  0
  3  2  1  0  0  0  0
  4  3  2  0  0  0  0
  5  4  1  0  0  0  0
  5  1  1  0  0  0  0
  8  9  2  0  0  0  0
 10 11  1  0  0  0  0
 10  8  1  0  0  0  0
 11 16  1  0  0  0  0
 12 17  1  0  0  0  0
 12 11  2  0  0  0  0
 13 12  1  0  0  0  0
 14 13  2  0  0  0  0
 14 15  1  0  0  0  0
 15 10  2  0  0  0  0
 18 14  1  0  0  0  0
 19 20  2  0  0  0  0
 19  4  1  0  0  0  0
 21 25  1  0  0  0  0
 21 19  1  0  0  0  0
 22 21  1  0  0  0  0
 23 22  1  0  0  0  0
 23 24  1  0  0  0  0
 24 25  1  0  0  0  0
M  END
>  <minimizedAffinity>
-5.26284885

>  <minimizedRMSD>
0.889506519

$$$$
