REMARK  Name = 
REMARK  6 active torsions:
REMARK  status: ('A' for Active; 'I' for Inactive)
REMARK    1  A    between atoms: C_1  and  O_8
REMARK    2  A    between atoms: C_2  and  N_7
REMARK    3  A    between atoms: O_8  and  P_10
REMARK    4  A    between atoms: P_10  and  O_11
REMARK    5  A    between atoms: P_10  and  O_12
REMARK    6  A    between atoms: O_12  and  C_18
REMARK                            x       y       z     vdW  Elec       q    Type
REMARK                         _______ _______ _______ _____ _____    ______ ____
ROOT
ATOM      1  C   UNL     1      35.951  30.794  49.629  0.00  0.00    +0.000 A 
ATOM      2  C   UNL     1      36.225  29.901  50.649  0.00  0.00    +0.000 A 
ATOM      3  C   UNL     1      37.497  29.892  51.196  0.00  0.00    +0.000 A 
ATOM      4  N   UNL     1      38.438  30.761  50.715  0.00  0.00    +0.000 NA
ATOM      5  C   UNL     1      38.125  31.623  49.709  0.00  0.00    +0.000 A 
ATOM      6  N   UNL     1      36.883  31.646  49.160  0.00  0.00    +0.000 NA
ATOM      7  H   UNL     1      37.667  29.194  51.974  0.00  0.00    +0.000 HD
ATOM      8  H   UNL     1      38.890  32.315  49.333  0.00  0.00    +0.000 HD
ENDROOT
BRANCH   2   9
ATOM      9  N   UNL     1      35.139  29.077  51.023  0.00  0.00    +0.000 N 
ATOM     10  H   UNL     1      35.267  28.216  50.427  0.00  0.00    +0.000 HD
ATOM     11  H   UNL     1      34.385  29.291  51.735  0.00  0.00    +0.000 HD
ENDBRANCH   2   9
BRANCH   1  12
ATOM     12  O   UNL     1      34.734  30.942  48.963  0.00  0.00    +0.000 OA
BRANCH  12  14
ATOM     13  O   UNL     1      35.522  30.088  46.548  0.00  0.00    +0.000 OA
ATOM     14  P   UNL     1      34.377  30.076  47.513  0.00  0.00    +0.000 P 
BRANCH  14  15
ATOM     15  O   UNL     1      33.991  28.495  47.991  0.00  0.00    +0.000 OA
ATOM     16  H   UNL     1      33.481  28.468  48.819  0.00  0.00    +0.000 HD
ENDBRANCH  14  15
BRANCH  14  17
ATOM     17  O   UNL     1      33.085  30.826  46.716  0.00  0.00    +0.000 OA
BRANCH  17  18
ATOM     18  C   UNL     1      32.164  29.896  46.231  0.00  0.00    +0.000 C 
ATOM     19  C   UNL     1      32.493  28.488  46.696  0.00  0.00    +0.000 C 
ATOM     20  C   UNL     1      31.680  27.670  45.691  0.00  0.00    +0.000 C 
ATOM     21  C   UNL     1      31.911  28.411  44.392  0.00  0.00    +0.000 C 
ATOM     22  C   UNL     1      32.398  29.785  44.735  0.00  0.00    +0.000 C 
ENDBRANCH  17  18
ENDBRANCH  14  17
ENDBRANCH  12  14
ENDBRANCH   1  12
TORSDOF 6
