
 OpenBabel03272503493D

 33 35  0  0  1  0  0  0  0  0999 V2000
   33.1820   27.3260   45.8730 C   0  0  1  0  0  0  0  0  0  0  0  0
   33.9220   27.4650   47.2220 C   0  0  2  0  0  0  0  0  0  0  0  0
   33.7720   26.2360   47.7850 O   0  0  0  0  0  0  0  0  0  0  0  0
   34.0670   25.3490   46.7640 C   0  0  0  0  0  0  0  0  0  0  0  0
   33.5430   25.9370   45.4740 C   0  0  2  0  0  0  0  0  0  0  0  0
   33.6140   28.0560   45.1560 H   0  0  0  0  0  0  0  0  0  0  0  0
   34.9590   27.7590   46.9440 H   0  0  0  0  0  0  0  0  0  0  0  0
   35.1390   25.0690   46.7240 H   0  0  0  0  0  0  0  0  0  0  0  0
   33.5020   24.4150   46.9760 H   0  0  0  0  0  0  0  0  0  0  0  0
   32.7130   25.3360   45.0540 H   0  0  0  0  0  0  0  0  0  0  0  0
   31.8280   27.5430   46.0380 O   0  0  0  0  0  0  0  0  0  0  0  0
   31.4950   28.1300   45.2980 H   0  0  0  0  0  0  0  0  0  0  0  0
   33.3110   28.5140   47.8420 O   0  0  0  0  0  0  0  0  0  0  0  0
   35.3470   29.8160   46.7790 O   0  0  0  0  0  0  0  0  0  0  0  0
   34.0900   29.9900   47.6170 P   0  0  1  0  0  0  0  0  0  0  0  0
   33.1020   31.0390   46.7260 O   0  0  0  0  0  0  0  0  0  0  0  0
   32.2690   31.2300   47.2220 H   0  0  0  0  0  0  0  0  0  0  0  0
   34.4040   30.6270   49.1660 O   0  0  0  0  0  0  0  0  0  0  0  0
   35.6290   30.5080   49.7830 C   0  0  0  0  0  0  0  0  0  0  0  0
   35.9550   29.4890   50.7050 C   0  0  0  0  0  0  0  0  0  0  0  0
   37.2360   29.4950   51.2510 C   0  0  0  0  0  0  0  0  0  0  0  0
   38.1030   30.4770   50.8670 N   0  0  0  0  0  0  0  0  0  0  0  0
   37.7560   31.4450   49.9750 C   0  0  0  0  0  0  0  0  0  0  0  0
   36.5080   31.4570   49.4310 N   0  0  0  0  0  0  0  0  0  0  0  0
   35.1880   28.7610   50.9360 H   0  0  0  0  0  0  0  0  0  0  0  0
   37.4960   28.7240   51.9540 H   0  0  0  0  0  0  0  0  0  0  0  0
   38.4810   32.1960   49.7090 H   0  0  0  0  0  0  0  0  0  0  0  0
   34.5630   25.9590   44.5220 O   0  0  0  0  0  0  0  0  0  0  0  0
   34.4820   24.9070   43.6190 C   0  0  0  0  0  3  0  0  0  0  0  0
   33.0940   24.8240   43.0470 C   0  0  0  0  0  2  0  0  0  0  0  0
   33.2040   25.0290   41.5700 C   0  0  0  0  0  2  0  0  0  0  0  0
   34.6580   24.9440   41.1920 C   0  0  0  0  0  2  0  0  0  0  0  0
   35.4390   25.0620   42.4690 C   0  0  0  0  0  2  0  0  0  0  0  0
  1  6  1  6  0  0  0
  1 11  1  0  0  0  0
  1  2  1  0  0  0  0
  2  7  1  6  0  0  0
  2  3  1  0  0  0  0
  2 13  1  0  0  0  0
  4  9  1  0  0  0  0
  4  3  1  0  0  0  0
  5 10  1  6  0  0  0
  5  1  1  0  0  0  0
  5  4  1  0  0  0  0
  8  4  1  0  0  0  0
 12 11  1  0  0  0  0
 15 14  2  6  0  0  0
 15 13  1  0  0  0  0
 15 18  1  0  0  0  0
 16 17  1  0  0  0  0
 16 15  1  0  0  0  0
 18 19  1  0  0  0  0
 19 20  1  0  0  0  0
 20 25  1  0  0  0  0
 20 21  2  0  0  0  0
 21 26  1  0  0  0  0
 22 21  1  0  0  0  0
 23 22  2  0  0  0  0
 24 19  2  0  0  0  0
 24 23  1  0  0  0  0
 27 23  1  0  0  0  0
 28  5  1  0  0  0  0
 29 28  1  0  0  0  0
 30 29  1  0  0  0  0
 31 30  1  0  0  0  0
 32 31  1  0  0  0  0
 32 33  1  0  0  0  0
 33 29  1  0  0  0  0
M  END
>  <minimizedAffinity>
-3.92533541

>  <minimizedRMSD>
0.471705526

$$$$
