
 OpenBabel03272500583D

 31 33  0  0  0  0  0  0  0  0999 V2000
   38.1190   31.9230   47.4470 C   0  0  0  0  0  0  0  0  0  0  0  0
   38.5750   32.8490   48.3400 C   0  0  0  0  0  0  0  0  0  0  0  0
   38.0860   32.9340   49.6390 C   0  0  0  0  0  0  0  0  0  0  0  0
   37.0550   31.9940   50.0350 C   0  0  0  0  0  0  0  0  0  0  0  0
   36.6460   31.1010   49.1000 C   0  0  0  0  0  0  0  0  0  0  0  0
   37.1210   31.0250   47.8470 C   0  0  0  0  0  0  0  0  0  0  0  0
   39.3570   33.5780   48.0750 H   0  0  0  0  0  0  0  0  0  0  0  0
   38.4940   33.7030   50.3090 H   0  0  0  0  0  0  0  0  0  0  0  0
   36.7770   32.1770   51.0550 H   0  0  0  0  0  0  0  0  0  0  0  0
   35.9110   30.4960   49.6090 H   0  0  0  0  0  0  0  0  0  0  0  0
   40.0060   31.2990   46.0210 C   0  0  0  0  0  0  0  0  0  0  0  0
   38.7450   31.9410   46.1420 C   0  0  0  0  0  0  0  0  0  0  0  0
   38.2700   32.4980   44.9810 C   0  0  0  0  0  0  0  0  0  0  0  0
   38.9800   32.4170   43.8430 N   0  0  0  0  0  0  0  0  0  0  0  0
   40.1470   31.8200   43.7460 C   0  0  0  0  0  0  0  0  0  0  0  0
   40.6500   31.2650   44.8370 N   0  0  0  0  0  0  0  0  0  0  0  0
   40.4330   30.8460   46.8840 H   0  0  0  0  0  0  0  0  0  0  0  0
   37.3070   32.9890   45.0750 H   0  0  0  0  0  0  0  0  0  0  0  0
   40.7090   31.7600   42.8230 H   0  0  0  0  0  0  0  0  0  0  0  0
   35.1930   29.9790   46.9950 C   0  0  0  0  0  0  0  0  0  0  0  0
   34.5470   30.6760   47.8750 O   0  0  0  0  0  0  0  0  0  0  0  0
   36.6360   30.1090   46.9490 N   0  0  0  0  0  0  0  0  0  0  0  0
   37.2220   29.5660   46.3100 H   0  0  0  0  0  0  0  0  0  0  0  0
   34.4970   29.1530   46.1540 O   0  0  0  0  0  0  0  0  0  0  0  0
   33.4340   29.5530   45.3540 C   0  0  0  0  0  0  0  0  0  0  0  0
   33.5870   30.4160   44.3720 O   0  0  0  0  0  0  0  0  0  0  0  0
   32.0520   29.0290   45.5220 C   0  0  0  0  0  3  0  0  0  0  0  0
   31.9190   28.2140   46.7930 C   0  0  0  0  0  2  0  0  0  0  0  0
   30.4690   28.3600   47.2090 C   0  0  0  0  0  2  0  0  0  0  0  0
   29.8380   29.2760   46.1620 C   0  0  0  0  0  2  0  0  0  0  0  0
   31.0610   30.1290   45.8000 C   0  0  0  0  0  2  0  0  0  0  0  0
  1  6  2  0  0  0  0
  1  2  1  0  0  0  0
  2  3  2  0  0  0  0
  3  4  1  0  0  0  0
  3  8  1  0  0  0  0
  4  9  1  0  0  0  0
  5 10  1  0  0  0  0
  5  4  2  0  0  0  0
  6  5  1  0  0  0  0
  7  2  1  0  0  0  0
 11 12  1  0  0  0  0
 11 17  1  0  0  0  0
 12  1  1  0  0  0  0
 13 18  1  0  0  0  0
 13 12  2  0  0  0  0
 14 13  1  0  0  0  0
 15 14  2  0  0  0  0
 15 16  1  0  0  0  0
 16 11  2  0  0  0  0
 19 15  1  0  0  0  0
 20 21  2  0  0  0  0
 22 20  1  0  0  0  0
 22  6  1  0  0  0  0
 23 22  1  0  0  0  0
 24 20  1  0  0  0  0
 25 27  1  0  0  0  0
 25 24  1  0  0  0  0
 26 25  2  0  0  0  0
 27 31  1  0  0  0  0
 27 28  1  0  0  0  0
 28 29  1  0  0  0  0
 30 29  1  0  0  0  0
 31 30  1  0  0  0  0
M  END
>  <minimizedAffinity>
-5.4565649

>  <minimizedRMSD>
0.806345642

$$$$
