REMARK  Name = 
REMARK  3 active torsions:
REMARK  status: ('A' for Active; 'I' for Inactive)
REMARK    1  A    between atoms: C_3  and  C_10
REMARK    2  A    between atoms: C_7  and  N_16
REMARK    3  A    between atoms: C_14  and  C_24
REMARK                            x       y       z     vdW  Elec       q    Type
REMARK                         _______ _______ _______ _____ _____    ______ ____
ROOT
ATOM      1  F   UNL     1      38.456  30.448  47.309  0.00  0.00    +0.000 F 
ATOM      2  C   UNL     1      38.753  31.680  47.796  0.00  0.00    +0.000 A 
ATOM      3  C   UNL     1      38.241  32.090  48.993  0.00  0.00    +0.000 A 
ATOM      4  C   UNL     1      38.580  33.343  49.425  0.00  0.00    +0.000 A 
ATOM      5  C   UNL     1      39.398  34.171  48.706  0.00  0.00    +0.000 A 
ATOM      6  C   UNL     1      39.908  33.738  47.494  0.00  0.00    +0.000 A 
ATOM      7  C   UNL     1      39.578  32.477  47.040  0.00  0.00    +0.000 A 
ATOM      8  H   UNL     1      38.176  33.674  50.374  0.00  0.00    +0.000 HD
ATOM      9  H   UNL     1      39.660  35.163  49.057  0.00  0.00    +0.000 HD
ATOM     10  H   UNL     1      40.567  34.352  46.870  0.00  0.00    +0.000 HD
ENDROOT
BRANCH   3  13
ATOM     11  C   UNL     1      36.919  29.595  51.526  0.00  0.00    +0.000 A 
ATOM     12  C   UNL     1      37.778  30.485  50.855  0.00  0.00    +0.000 A 
ATOM     13  C   UNL     1      37.368  31.152  49.718  0.00  0.00    +0.000 A 
ATOM     14  N   UNL     1      36.105  30.905  49.287  0.00  0.00    +0.000 NA
ATOM     15  C   UNL     1      35.289  30.048  49.939  0.00  0.00    +0.000 A 
ATOM     16  N   UNL     1      35.684  29.410  51.029  0.00  0.00    +0.000 NA
ATOM     17  H   UNL     1      37.320  29.114  52.409  0.00  0.00    +0.000 HD
ATOM     18  H   UNL     1      38.780  30.667  51.217  0.00  0.00    +0.000 HD
ATOM     19  H   UNL     1      34.298  29.932  49.497  0.00  0.00    +0.000 HD
ENDBRANCH   3  13
BRANCH   7  22
ATOM     20  C   UNL     1      39.189  32.166  44.686  0.00  0.00    +0.000 C 
ATOM     21  O   UNL     1      38.075  32.700  44.983  0.00  0.00    +0.000 OA
ATOM     22  N   UNL     1      40.089  31.993  45.786  0.00  0.00    +0.000 N 
ATOM     23  H   UNL     1      41.012  31.555  45.643  0.00  0.00    +0.000 HD
BRANCH  20  24
ATOM     24  C   UNL     1      39.670  31.704  43.358  0.00  0.00    +0.000 C 
ATOM     25  C   UNL     1      40.680  32.627  42.757  0.00  0.00    +0.000 C 
ATOM     26  C   UNL     1      40.102  33.095  41.425  0.00  0.00    +0.000 C 
ATOM     27  C   UNL     1      39.083  32.027  41.069  0.00  0.00    +0.000 C 
ATOM     28  C   UNL     1      38.492  31.723  42.423  0.00  0.00    +0.000 C 
ENDBRANCH  20  24
ENDBRANCH   7  22
TORSDOF 3
