
 OpenBabel03262521303D

 27 29  0  0  1  0  0  0  0  0999 V2000
   38.4830   31.9160   48.3740 C   0  0  1  0  0  0  0  0  0  0  0  0
   38.1080   30.4710   48.5450 C   0  0  2  0  0  0  0  0  0  0  0  0
   38.1410   29.8560   47.3110 O   0  0  0  0  0  0  0  0  0  0  0  0
   38.9730   30.6290   46.4960 C   0  0  0  0  0  0  0  0  0  0  0  0
   38.5490   32.0280   46.8790 C   0  0  2  0  0  0  0  0  0  0  0  0
   39.5340   32.0960   48.7330 H   0  0  0  0  0  0  0  0  0  0  0  0
   38.8740   29.9900   49.1920 H   0  0  0  0  0  0  0  0  0  0  0  0
   40.0390   30.4330   46.6870 H   0  0  0  0  0  0  0  0  0  0  0  0
   38.6710   30.4300   45.4410 H   0  0  0  0  0  0  0  0  0  0  0  0
   37.5390   32.1890   46.4410 H   0  0  0  0  0  0  0  0  0  0  0  0
   35.4540   29.4010   51.0160 C   0  0  0  0  0  0  0  0  0  0  0  0
   36.7500   29.5820   50.4540 C   0  0  0  0  0  0  0  0  0  0  0  0
   36.8120   30.2400   49.2180 C   0  0  0  0  0  0  0  0  0  0  0  0
   35.6540   30.6770   48.6070 N   0  0  0  0  0  0  0  0  0  0  0  0
   34.4560   30.4680   49.2030 C   0  0  0  0  0  0  0  0  0  0  0  0
   34.3620   29.8380   50.3910 N   0  0  0  0  0  0  0  0  0  0  0  0
   35.5460   28.8850   51.9610 H   0  0  0  0  0  0  0  0  0  0  0  0
   37.6700   29.2540   50.9050 H   0  0  0  0  0  0  0  0  0  0  0  0
   33.5520   30.8120   48.7200 H   0  0  0  0  0  0  0  0  0  0  0  0
   37.6710   32.8050   48.9940 O   0  0  0  0  0  0  0  0  0  0  0  0
   36.7470   32.7960   48.6520 H   0  0  0  0  0  0  0  0  0  0  0  0
   39.4120   32.9940   46.4340 O   0  0  0  0  0  0  0  0  0  0  0  0
   39.3290   33.1940   45.0520 C   0  0  0  0  0  0  0  0  0  0  0  0
   38.0490   32.6230   44.5310 C   0  0  0  0  0  0  0  0  0  0  0  0
   38.4090   31.8980   43.2310 C   0  0  0  0  0  0  0  0  0  0  0  0
   39.8260   32.3330   42.9270 C   0  0  0  0  0  0  0  0  0  0  0  0
   40.4060   32.4170   44.3260 C   0  0  0  0  0  0  0  0  0  0  0  0
  1  2  1  0  0  0  0
  1  6  1  1  0  0  0
  1 20  1  0  0  0  0
  2  7  1  1  0  0  0
  2 13  1  0  0  0  0
  3  2  1  0  0  0  0
  4  8  1  0  0  0  0
  4  5  1  0  0  0  0
  4  3  1  0  0  0  0
  5 10  1  6  0  0  0
  5  1  1  0  0  0  0
  9  4  1  0  0  0  0
 11 17  1  0  0  0  0
 12 18  1  0  0  0  0
 12 11  1  0  0  0  0
 13 12  2  0  0  0  0
 14 15  2  0  0  0  0
 14 13  1  0  0  0  0
 15 16  1  0  0  0  0
 16 11  2  0  0  0  0
 19 15  1  0  0  0  0
 21 20  1  0  0  0  0
 22  5  1  0  0  0  0
 23 22  1  0  0  0  0
 24 23  1  0  0  0  0
 25 24  1  0  0  0  0
 26 25  1  0  0  0  0
 26 27  1  0  0  0  0
 27 23  1  0  0  0  0
M  END
>  <minimizedAffinity>
-4.40415192

>  <minimizedRMSD>
2.43265104

$$$$
