
 OpenBabel03272503053D

 28 30  0  0  0  0  0  0  0  0999 V2000
   38.0690   30.0800   47.2200 F   0  0  0  0  0  0  0  0  0  0  0  0
   38.5080   31.3140   47.5750 C   0  0  0  0  0  0  0  0  0  0  0  0
   38.1950   31.8320   48.7990 C   0  0  0  0  0  0  0  0  0  0  0  0
   38.6690   33.0810   49.0930 C   0  0  0  0  0  0  0  0  0  0  0  0
   39.4280   33.8030   48.2140 C   0  0  0  0  0  0  0  0  0  0  0  0
   39.7360   33.2620   46.9770 C   0  0  0  0  0  0  0  0  0  0  0  0
   39.2670   32.0030   46.6610 C   0  0  0  0  0  0  0  0  0  0  0  0
   38.4230   33.4970   50.0620 H   0  0  0  0  0  0  0  0  0  0  0  0
   39.7980   34.7930   48.4560 H   0  0  0  0  0  0  0  0  0  0  0  0
   40.3380   33.7890   46.2280 H   0  0  0  0  0  0  0  0  0  0  0  0
   37.0540   29.7010   51.7220 C   0  0  0  0  0  0  0  0  0  0  0  0
   37.8640   30.4880   50.8830 C   0  0  0  0  0  0  0  0  0  0  0  0
   37.3750   31.0040   49.6990 C   0  0  0  0  0  0  0  0  0  0  0  0
   36.0850   30.7140   49.3930 N   0  0  0  0  0  0  0  0  0  0  0  0
   35.3170   29.9570   50.2060 C   0  0  0  0  0  0  0  0  0  0  0  0
   35.7870   29.4630   51.3410 N   0  0  0  0  0  0  0  0  0  0  0  0
   37.5160   29.3360   52.6310 H   0  0  0  0  0  0  0  0  0  0  0  0
   38.8880   30.7070   51.1480 H   0  0  0  0  0  0  0  0  0  0  0  0
   34.2980   29.7930   49.8530 H   0  0  0  0  0  0  0  0  0  0  0  0
   38.5470   31.6030   44.4000 C   0  0  0  0  0  0  0  0  0  0  0  0
   37.5300   32.2500   44.8010 O   0  0  0  0  0  0  0  0  0  0  0  0
   39.5670   31.4090   45.3860 N   0  0  0  0  0  0  0  0  0  0  0  0
   40.4240   30.8820   45.1560 H   0  0  0  0  0  0  0  0  0  0  0  0
   38.8080   31.0290   43.0550 C   0  0  0  0  0  3  0  0  0  0  0  0
   39.3900   29.6550   43.1170 C   0  0  0  0  0  2  0  0  0  0  0  0
   40.7380   29.7210   42.4030 C   0  0  0  0  0  2  0  0  0  0  0  0
   40.6200   30.9410   41.5070 C   0  0  0  0  0  2  0  0  0  0  0  0
   39.8550   31.8870   42.3980 C   0  0  0  0  0  2  0  0  0  0  0  0
  1  2  1  0  0  0  0
  2  3  1  0  0  0  0
  3  4  2  0  0  0  0
  3 13  1  0  0  0  0
  4  8  1  0  0  0  0
  5  9  1  0  0  0  0
  5  4  1  0  0  0  0
  6  5  2  0  0  0  0
  7  6  1  0  0  0  0
  7  2  2  0  0  0  0
 10  6  1  0  0  0  0
 11 17  1  0  0  0  0
 12 18  1  0  0  0  0
 12 11  2  0  0  0  0
 13 12  1  0  0  0  0
 14 13  2  0  0  0  0
 14 15  1  0  0  0  0
 15 16  2  0  0  0  0
 16 11  1  0  0  0  0
 19 15  1  0  0  0  0
 20 21  2  0  0  0  0
 20 22  1  0  0  0  0
 22  7  1  0  0  0  0
 23 22  1  0  0  0  0
 24 25  1  0  0  0  0
 24 20  1  0  0  0  0
 26 25  1  0  0  0  0
 27 28  1  0  0  0  0
 27 26  1  0  0  0  0
 28 24  1  0  0  0  0
M  END
>  <minimizedAffinity>
-6.20715427

>  <minimizedRMSD>
0.856615305

$$$$
