
 OpenBabel03272507273D

 35 37  0  0  1  0  0  0  0  0999 V2000
   36.7590   29.9430   49.3360 C   0  0  0  0  0  0  0  0  0  0  0  0
   37.7510   30.6180   48.6080 C   0  0  0  0  0  0  0  0  0  0  0  0
   37.5010   30.8940   47.2550 C   0  0  0  0  0  0  0  0  0  0  0  0
   36.3360   30.5000   46.7390 N   0  0  0  0  0  0  0  0  0  0  0  0
   35.4020   29.8520   47.4630 C   0  0  0  0  0  0  0  0  0  0  0  0
   35.6190   29.5800   48.7480 N   0  0  0  0  0  0  0  0  0  0  0  0
   38.4650   31.5670   46.4840 N   0  0  0  0  0  0  0  0  0  0  0  0
   39.4480   32.5310   46.9900 C   0  0  0  0  0  0  0  0  0  0  0  0
   40.1000   33.1550   45.8030 C   0  0  0  0  0  0  0  0  0  0  0  0
   39.1440   32.8580   44.7050 C   0  0  0  0  0  0  0  0  0  0  0  0
   38.7000   31.4670   45.0720 C   0  0  2  0  0  0  0  0  0  0  0  0
   36.8910   29.7010   50.3780 H   0  0  0  0  0  0  0  0  0  0  0  0
   38.6710   30.9090   49.0860 H   0  0  0  0  0  0  0  0  0  0  0  0
   34.4930   29.5780   46.9430 H   0  0  0  0  0  0  0  0  0  0  0  0
   40.2230   31.9030   47.4990 H   0  0  0  0  0  0  0  0  0  0  0  0
   39.0080   33.2330   47.6940 H   0  0  0  0  0  0  0  0  0  0  0  0
   40.0790   34.2690   45.9890 H   0  0  0  0  0  0  0  0  0  0  0  0
   41.1220   32.8440   45.5870 H   0  0  0  0  0  0  0  0  0  0  0  0
   39.6430   32.7990   43.7030 H   0  0  0  0  0  0  0  0  0  0  0  0
   38.2890   33.5550   44.6840 H   0  0  0  0  0  0  0  0  0  0  0  0
   37.5840   30.9680   44.2170 C   0  0  0  0  0  0  0  0  0  0  0  0
   36.4340   31.6050   44.6490 F   0  0  0  0  0  0  0  0  0  0  0  0
   37.3500   29.6240   44.2700 F   0  0  0  0  0  0  0  0  0  0  0  0
   37.8340   31.4400   42.9350 F   0  0  0  0  0  0  0  0  0  0  0  0
   39.8460   30.5450   44.9190 C   0  0  0  0  0  0  0  0  0  0  0  0
   39.5040   29.5630   45.3060 H   0  0  0  0  0  0  0  0  0  0  0  0
   40.6240   30.8560   45.6820 H   0  0  0  0  0  0  0  0  0  0  0  0
   40.3570   30.7650   43.8130 O   0  0  0  0  0  0  0  0  0  0  0  0
   40.6960   30.0830   42.6980 C   0  0  0  0  0  0  0  0  0  0  0  0
   40.6760   30.8650   41.7130 O   0  0  0  0  0  0  0  0  0  0  0  0
   41.0890   28.8670   42.0040 C   0  0  0  0  0  3  0  0  0  0  0  0
   39.8210   28.0820   41.6840 C   0  0  0  0  0  2  0  0  0  0  0  0
   40.3920   27.1520   40.6030 C   0  0  0  0  0  2  0  0  0  0  0  0
   40.9500   28.2020   39.6620 C   0  0  0  0  0  2  0  0  0  0  0  0
   41.7000   29.1120   40.6430 C   0  0  0  0  0  2  0  0  0  0  0  0
  1 12  1  0  0  0  0
  2 13  1  0  0  0  0
  2  1  2  0  0  0  0
  3  2  1  0  0  0  0
  4  3  2  0  0  0  0
  4  5  1  0  0  0  0
  5  6  2  0  0  0  0
  6  1  1  0  0  0  0
  7  8  1  0  0  0  0
  7  3  1  0  0  0  0
  8 15  1  0  0  0  0
  8 16  1  0  0  0  0
  9 17  1  0  0  0  0
  9  8  1  0  0  0  0
 10 11  1  0  0  0  0
 10  9  1  0  0  0  0
 11 21  1  6  0  0  0
 11  7  1  0  0  0  0
 14  5  1  0  0  0  0
 18  9  1  0  0  0  0
 19 10  1  0  0  0  0
 20 10  1  0  0  0  0
 21 23  1  0  0  0  0
 21 22  1  0  0  0  0
 24 21  1  0  0  0  0
 25 11  1  0  0  0  0
 25 26  1  0  0  0  0
 25 27  1  0  0  0  0
 28 25  1  0  0  0  0
 29 28  1  0  0  0  0
 30 29  2  0  0  0  0
 31 29  1  0  0  0  0
 32 31  1  0  0  0  0
 33 32  1  0  0  0  0
 34 33  1  0  0  0  0
 34 35  1  0  0  0  0
 35 31  1  0  0  0  0
M  END
>  <minimizedAffinity>
-5.15738964

>  <minimizedRMSD>
0.664817512

$$$$
