REMARK  Name = 
REMARK  3 active torsions:
REMARK  status: ('A' for Active; 'I' for Inactive)
REMARK    1  A    between atoms: C_5  and  C_7
REMARK    2  A    between atoms: C_8  and  C_9
REMARK    3  A    between atoms: C_9  and  C_17
REMARK                            x       y       z     vdW  Elec       q    Type
REMARK                         _______ _______ _______ _____ _____    ______ ____
ROOT
ATOM      1  C   UNL     1      34.662  28.449  49.673  0.00  0.00    +0.000 C 
ATOM      2  C   UNL     1      34.492  27.983  48.481  0.00  0.00    +0.000 C 
ENDROOT
BRANCH   1   7
ATOM      3  C   UNL     1      37.370  30.184  51.434  0.00  0.00    +0.000 A 
ATOM      4  C   UNL     1      38.134  30.676  50.339  0.00  0.00    +0.000 A 
ATOM      5  C   UNL     1      37.698  30.398  49.018  0.00  0.00    +0.000 A 
ATOM      6  N   UNL     1      36.547  29.659  48.914  0.00  0.00    +0.000 NA
ATOM      7  C   UNL     1      35.861  29.218  49.970  0.00  0.00    +0.000 A 
ATOM      8  N   UNL     1      36.268  29.477  51.222  0.00  0.00    +0.000 NA
ATOM      9  H   UNL     1      37.761  30.433  52.412  0.00  0.00    +0.000 HD
ATOM     10  H   UNL     1      39.044  31.259  50.417  0.00  0.00    +0.000 HD
ATOM     11  H   UNL     1      38.232  30.742  48.163  0.00  0.00    +0.000 HD
ENDBRANCH   1   7
BRANCH   2  12
ATOM     12  C   UNL     1      33.386  27.194  47.984  0.00  0.00    +0.000 C 
ATOM     13  H   UNL     1      32.939  27.660  47.080  0.00  0.00    +0.000 HD
ATOM     14  H   UNL     1      33.818  26.217  47.617  0.00  0.00    +0.000 HD
BRANCH  12  15
ATOM     15  C   UNL     1      32.314  26.818  48.959  0.00  0.00    +0.000 C 
ATOM     16  C   UNL     1      32.784  27.433  50.293  0.00  0.00    +0.000 C 
ATOM     17  C   UNL     1      31.547  27.728  51.078  0.00  0.00    +0.000 C 
ATOM     18  C   UNL     1      30.395  27.555  50.133  0.00  0.00    +0.000 C 
ATOM     19  C   UNL     1      31.062  27.683  48.757  0.00  0.00    +0.000 C 
ENDBRANCH  12  15
ENDBRANCH   2  12
TORSDOF 3
