REMARK  Name = 
REMARK  3 active torsions:
REMARK  status: ('A' for Active; 'I' for Inactive)
REMARK    1  A    between atoms: C_1  and  C_8
REMARK    2  A    between atoms: C_4  and  O_13
REMARK    3  A    between atoms: O_13  and  C_20
REMARK                            x       y       z     vdW  Elec       q    Type
REMARK                         _______ _______ _______ _____ _____    ______ ____
ROOT
ATOM      1  C   UNL     1      37.570  31.655  48.936  0.00  0.00    +0.000 A 
ATOM      2  C   UNL     1      38.193  32.733  49.505  0.00  0.00    +0.000 A 
ATOM      3  C   UNL     1      39.061  33.567  48.836  0.00  0.00    +0.000 A 
ATOM      4  C   UNL     1      39.347  33.340  47.521  0.00  0.00    +0.000 A 
ATOM      5  C   UNL     1      38.708  32.237  46.943  0.00  0.00    +0.000 A 
ATOM      6  N   UNL     1      37.863  31.445  47.637  0.00  0.00    +0.000 NA
ATOM      7  H   UNL     1      37.989  32.943  50.550  0.00  0.00    +0.000 HD
ATOM      8  H   UNL     1      39.563  34.424  49.270  0.00  0.00    +0.000 HD
ATOM      9  H   UNL     1      38.834  31.928  45.906  0.00  0.00    +0.000 HD
ENDROOT
BRANCH   1  11
ATOM     10  C   UNL     1      36.944  30.160  50.867  0.00  0.00    +0.000 A 
ATOM     11  C   UNL     1      36.663  30.794  49.658  0.00  0.00    +0.000 A 
ATOM     12  C   UNL     1      35.397  30.571  49.108  0.00  0.00    +0.000 A 
ATOM     13  N   UNL     1      34.528  29.754  49.788  0.00  0.00    +0.000 NA
ATOM     14  C   UNL     1      34.850  29.171  50.946  0.00  0.00    +0.000 A 
ATOM     15  N   UNL     1      36.059  29.372  51.490  0.00  0.00    +0.000 NA
ATOM     16  H   UNL     1      37.919  30.350  51.262  0.00  0.00    +0.000 HD
ATOM     17  H   UNL     1      35.057  31.000  48.184  0.00  0.00    +0.000 HD
ATOM     18  H   UNL     1      34.069  28.555  51.369  0.00  0.00    +0.000 HD
ENDBRANCH   1  11
BRANCH   4  19
ATOM     19  O   UNL     1      40.185  34.055  46.677  0.00  0.00    +0.000 OA
BRANCH  19  20
ATOM     20  C   UNL     1      40.926  35.184  47.019  0.00  0.00    +0.000 C 
ATOM     21  C   UNL     1      42.275  34.778  47.589  0.00  0.00    +0.000 C 
ATOM     22  C   UNL     1      42.267  35.264  49.024  0.00  0.00    +0.000 C 
ATOM     23  C   UNL     1      40.785  35.207  49.347  0.00  0.00    +0.000 C 
ATOM     24  C   UNL     1      40.215  35.921  48.143  0.00  0.00    +0.000 C 
ENDBRANCH  19  20
ENDBRANCH   4  19
TORSDOF 3
