
 OpenBabel03272507273D

 35 37  0  0  1  0  0  0  0  0999 V2000
   36.6880   29.9050   49.1170 C   0  0  0  0  0  0  0  0  0  0  0  0
   37.7120   30.5920   48.4470 C   0  0  0  0  0  0  0  0  0  0  0  0
   37.5170   30.9100   47.0940 C   0  0  0  0  0  0  0  0  0  0  0  0
   36.3700   30.5400   46.5220 N   0  0  0  0  0  0  0  0  0  0  0  0
   35.4040   29.8800   47.1910 C   0  0  0  0  0  0  0  0  0  0  0  0
   35.5690   29.5690   48.4750 N   0  0  0  0  0  0  0  0  0  0  0  0
   38.5150   31.5960   46.3800 N   0  0  0  0  0  0  0  0  0  0  0  0
   39.4850   32.5370   46.9520 C   0  0  0  0  0  0  0  0  0  0  0  0
   40.1870   33.1890   45.8090 C   0  0  0  0  0  0  0  0  0  0  0  0
   39.2720   32.9320   44.6670 C   0  0  0  0  0  0  0  0  0  0  0  0
   38.8030   31.5350   44.9760 C   0  0  2  0  0  0  0  0  0  0  0  0
   36.7780   29.6320   50.1560 H   0  0  0  0  0  0  0  0  0  0  0  0
   38.6160   30.8620   48.9680 H   0  0  0  0  0  0  0  0  0  0  0  0
   34.5130   29.6290   46.6290 H   0  0  0  0  0  0  0  0  0  0  0  0
   40.2350   31.8880   47.4710 H   0  0  0  0  0  0  0  0  0  0  0  0
   39.0230   33.2220   47.6590 H   0  0  0  0  0  0  0  0  0  0  0  0
   40.1670   34.2980   46.0270 H   0  0  0  0  0  0  0  0  0  0  0  0
   41.2140   32.8750   45.6230 H   0  0  0  0  0  0  0  0  0  0  0  0
   39.8090   32.8980   43.6840 H   0  0  0  0  0  0  0  0  0  0  0  0
   38.4230   33.6370   44.6340 H   0  0  0  0  0  0  0  0  0  0  0  0
   37.7170   31.0700   44.0650 C   0  0  0  0  0  0  0  0  0  0  0  0
   36.5490   31.6760   44.4940 F   0  0  0  0  0  0  0  0  0  0  0  0
   37.4960   29.7230   44.0440 F   0  0  0  0  0  0  0  0  0  0  0  0
   38.0000   31.6090   42.8170 F   0  0  0  0  0  0  0  0  0  0  0  0
   39.9470   30.6080   44.8400 C   0  0  0  0  0  0  0  0  0  0  0  0
   39.6130   29.6420   45.2720 H   0  0  0  0  0  0  0  0  0  0  0  0
   40.7380   30.9490   45.5780 H   0  0  0  0  0  0  0  0  0  0  0  0
   40.4400   30.7840   43.7180 O   0  0  0  0  0  0  0  0  0  0  0  0
   40.7530   30.0600   42.6230 C   0  0  0  0  0  0  0  0  0  0  0  0
   40.7570   30.8140   41.6150 O   0  0  0  0  0  0  0  0  0  0  0  0
   41.1060   28.8130   41.9630 C   0  0  0  0  0  3  0  0  0  0  0  0
   39.8110   28.0670   41.6530 C   0  0  0  0  0  2  0  0  0  0  0  0
   40.3540   27.0900   40.6000 C   0  0  0  0  0  2  0  0  0  0  0  0
   40.9580   28.0940   39.6380 C   0  0  0  0  0  2  0  0  0  0  0  0
   41.7350   29.0000   40.6000 C   0  0  0  0  0  2  0  0  0  0  0  0
  1 12  1  0  0  0  0
  2 13  1  0  0  0  0
  2  1  2  0  0  0  0
  3  2  1  0  0  0  0
  4  3  2  0  0  0  0
  4  5  1  0  0  0  0
  5  6  2  0  0  0  0
  6  1  1  0  0  0  0
  7  8  1  0  0  0  0
  7  3  1  0  0  0  0
  8 15  1  0  0  0  0
  8 16  1  0  0  0  0
  9 17  1  0  0  0  0
  9  8  1  0  0  0  0
 10 11  1  0  0  0  0
 10  9  1  0  0  0  0
 11 21  1  6  0  0  0
 11  7  1  0  0  0  0
 14  5  1  0  0  0  0
 18  9  1  0  0  0  0
 19 10  1  0  0  0  0
 20 10  1  0  0  0  0
 21 22  1  0  0  0  0
 23 21  1  0  0  0  0
 24 21  1  0  0  0  0
 25 11  1  0  0  0  0
 25 26  1  0  0  0  0
 25 27  1  0  0  0  0
 28 25  1  0  0  0  0
 29 28  1  0  0  0  0
 30 29  2  0  0  0  0
 31 29  1  0  0  0  0
 32 31  1  0  0  0  0
 33 32  1  0  0  0  0
 34 35  1  0  0  0  0
 34 33  1  0  0  0  0
 35 31  1  0  0  0  0
M  END
>  <minimizedAffinity>
-5.16743898

>  <minimizedRMSD>
0.467860162

$$$$
