
 OpenBabel03272500453D

 21 23  0  0  0  0  0  0  0  0999 V2000
   37.6300   26.8930   34.2470 C   0  0  0  0  0  0  0  0  0  0  0  0
   38.1310   27.5500   35.3840 C   0  0  0  0  0  0  0  0  0  0  0  0
   38.3370   26.5870   36.3760 C   0  0  0  0  0  0  0  0  0  0  0  0
   37.9600   25.3990   35.8240 N   0  0  0  0  0  0  0  0  0  0  0  0
   37.5580   25.6240   34.5900 N   0  0  0  0  0  0  0  0  0  0  0  0
   38.3320   28.6150   35.4910 H   0  0  0  0  0  0  0  0  0  0  0  0
   38.7110   26.7550   37.3640 H   0  0  0  0  0  0  0  0  0  0  0  0
   38.1470   27.6210   31.9100 C   0  0  0  0  0  0  0  0  0  0  0  0
   37.3060   27.5950   33.0300 C   0  0  0  0  0  0  0  0  0  0  0  0
   36.0900   28.2930   32.9460 C   0  0  0  0  0  0  0  0  0  0  0  0
   35.8130   28.9480   31.7780 N   0  0  0  0  0  0  0  0  0  0  0  0
   36.6580   28.9440   30.7210 C   0  0  0  0  0  0  0  0  0  0  0  0
   37.8300   28.2760   30.7910 N   0  0  0  0  0  0  0  0  0  0  0  0
   39.0880   27.0880   31.9570 H   0  0  0  0  0  0  0  0  0  0  0  0
   35.4090   28.3030   33.7850 H   0  0  0  0  0  0  0  0  0  0  0  0
   36.2140   29.5290   29.9260 H   0  0  0  0  0  0  0  0  0  0  0  0
   38.0080   24.1260   36.5040 C   0  0  0  0  0  3  0  0  0  0  0  0
   39.3210   23.4130   36.2600 C   0  0  0  0  0  2  0  0  0  0  0  0
   39.7990   22.8850   37.5890 C   0  0  0  0  0  2  0  0  0  0  0  0
   38.8250   23.3510   38.6310 C   0  0  0  0  0  2  0  0  0  0  0  0
   37.9160   24.3650   37.9770 C   0  0  0  0  0  2  0  0  0  0  0  0
  1  5  2  0  0  0  0
  1  2  1  0  0  0  0
  2  6  1  0  0  0  0
  2  3  2  0  0  0  0
  3  7  1  0  0  0  0
  4  3  1  0  0  0  0
  4 17  1  0  0  0  0
  5  4  1  0  0  0  0
  8 14  1  0  0  0  0
  8  9  1  0  0  0  0
  9  1  1  0  0  0  0
 10  9  2  0  0  0  0
 10 15  1  0  0  0  0
 11 10  1  0  0  0  0
 12 13  1  0  0  0  0
 12 11  2  0  0  0  0
 13  8  2  0  0  0  0
 16 12  1  0  0  0  0
 17 21  1  0  0  0  0
 18 17  1  0  0  0  0
 18 19  1  0  0  0  0
 19 20  1  0  0  0  0
 21 20  1  0  0  0  0
M  END
>  <minimizedAffinity>
-4.92224646

$$$$

 OpenBabel03272500453D

 21 23  0  0  0  0  0  0  0  0999 V2000
   36.3890   23.9330   31.8980 C   0  0  0  0  0  0  0  0  0  0  0  0
   35.6500   24.8850   31.1770 C   0  0  0  0  0  0  0  0  0  0  0  0
   36.0460   26.1530   31.6130 C   0  0  0  0  0  0  0  0  0  0  0  0
   36.9930   25.9360   32.5690 N   0  0  0  0  0  0  0  0  0  0  0  0
   37.1600   24.6360   32.7010 N   0  0  0  0  0  0  0  0  0  0  0  0
   34.9000   24.6910   30.4100 H   0  0  0  0  0  0  0  0  0  0  0  0
   35.6770   27.0940   31.2660 H   0  0  0  0  0  0  0  0  0  0  0  0
   35.1550   21.7790   32.2140 C   0  0  0  0  0  0  0  0  0  0  0  0
   36.2280   22.5140   31.6950 C   0  0  0  0  0  0  0  0  0  0  0  0
   37.1880   21.8190   30.9410 C   0  0  0  0  0  0  0  0  0  0  0  0
   37.0070   20.4750   30.7660 N   0  0  0  0  0  0  0  0  0  0  0  0
   35.9520   19.8070   31.2870 C   0  0  0  0  0  0  0  0  0  0  0  0
   35.0240   20.4660   32.0140 N   0  0  0  0  0  0  0  0  0  0  0  0
   34.4070   22.2990   32.7970 H   0  0  0  0  0  0  0  0  0  0  0  0
   38.0350   22.3440   30.5210 H   0  0  0  0  0  0  0  0  0  0  0  0
   36.0360   18.7640   31.0100 H   0  0  0  0  0  0  0  0  0  0  0  0
   37.6800   26.9780   33.2950 C   0  0  0  0  0  3  0  0  0  0  0  0
   37.0380   27.2340   34.6430 C   0  0  0  0  0  2  0  0  0  0  0  0
   38.1490   27.3290   35.6590 C   0  0  0  0  0  2  0  0  0  0  0  0
   39.4360   27.0480   34.9400 C   0  0  0  0  0  2  0  0  0  0  0  0
   39.0820   26.5330   33.5650 C   0  0  0  0  0  2  0  0  0  0  0  0
  1  5  2  0  0  0  0
  2  3  2  0  0  0  0
  2  1  1  0  0  0  0
  3  4  1  0  0  0  0
  4  5  1  0  0  0  0
  4 17  1  0  0  0  0
  6  2  1  0  0  0  0
  7  3  1  0  0  0  0
  8 14  1  0  0  0  0
  9  1  1  0  0  0  0
  9  8  2  0  0  0  0
 10  9  1  0  0  0  0
 11 10  2  0  0  0  0
 11 12  1  0  0  0  0
 12 13  2  0  0  0  0
 13  8  1  0  0  0  0
 15 10  1  0  0  0  0
 16 12  1  0  0  0  0
 17 21  1  0  0  0  0
 17 18  1  0  0  0  0
 18 19  1  0  0  0  0
 20 19  1  0  0  0  0
 21 20  1  0  0  0  0
M  END
>  <minimizedAffinity>
-4.69728851

$$$$

 OpenBabel03272500453D

 21 23  0  0  0  0  0  0  0  0999 V2000
   38.0330   23.1250   34.7720 C   0  0  0  0  0  0  0  0  0  0  0  0
   37.9920   21.9100   34.0680 C   0  0  0  0  0  0  0  0  0  0  0  0
   37.6010   22.1900   32.7550 C   0  0  0  0  0  0  0  0  0  0  0  0
   37.4190   23.5410   32.7040 N   0  0  0  0  0  0  0  0  0  0  0  0
   37.6810   24.0400   33.8940 N   0  0  0  0  0  0  0  0  0  0  0  0
   38.2210   20.9180   34.4560 H   0  0  0  0  0  0  0  0  0  0  0  0
   37.4720   21.4870   31.9610 H   0  0  0  0  0  0  0  0  0  0  0  0
   37.5890   23.7770   37.1460 C   0  0  0  0  0  0  0  0  0  0  0  0
   38.4020   23.1980   36.1640 C   0  0  0  0  0  0  0  0  0  0  0  0
   39.6370   22.6670   36.5730 C   0  0  0  0  0  0  0  0  0  0  0  0
   39.9570   22.7530   37.8990 N   0  0  0  0  0  0  0  0  0  0  0  0
   39.1370   23.3220   38.8130 C   0  0  0  0  0  0  0  0  0  0  0  0
   37.9480   23.8360   38.4310 N   0  0  0  0  0  0  0  0  0  0  0  0
   36.6350   24.1920   36.8490 H   0  0  0  0  0  0  0  0  0  0  0  0
   40.2990   22.2110   35.8500 H   0  0  0  0  0  0  0  0  0  0  0  0
   39.6140   23.2660   39.7830 H   0  0  0  0  0  0  0  0  0  0  0  0
   37.0100   24.2690   31.5260 C   0  0  0  0  0  3  0  0  0  0  0  0
   35.5890   23.9300   31.1280 C   0  0  0  0  0  2  0  0  0  0  0  0
   34.8870   25.2290   30.8170 C   0  0  0  0  0  2  0  0  0  0  0  0
   35.8540   26.3380   31.1090 C   0  0  0  0  0  2  0  0  0  0  0  0
   37.0320   25.7320   31.8340 C   0  0  0  0  0  2  0  0  0  0  0  0
  1  9  1  0  0  0  0
  2  6  1  0  0  0  0
  2  1  1  0  0  0  0
  3  2  2  0  0  0  0
  4  3  1  0  0  0  0
  4  5  1  0  0  0  0
  5  1  2  0  0  0  0
  7  3  1  0  0  0  0
  8 13  1  0  0  0  0
  9 10  1  0  0  0  0
  9  8  2  0  0  0  0
 10 11  2  0  0  0  0
 11 12  1  0  0  0  0
 12 16  1  0  0  0  0
 13 12  2  0  0  0  0
 14  8  1  0  0  0  0
 15 10  1  0  0  0  0
 17 21  1  0  0  0  0
 17  4  1  0  0  0  0
 18 17  1  0  0  0  0
 19 20  1  0  0  0  0
 19 18  1  0  0  0  0
 20 21  1  0  0  0  0
M  END
>  <minimizedAffinity>
-4.5722928

$$$$

 OpenBabel03272500453D

 21 23  0  0  0  0  0  0  0  0999 V2000
   38.2210   25.7650   35.4070 C   0  0  0  0  0  0  0  0  0  0  0  0
   38.1430   27.0560   35.9540 C   0  0  0  0  0  0  0  0  0  0  0  0
   37.4910   27.8740   35.0260 C   0  0  0  0  0  0  0  0  0  0  0  0
   37.2010   27.0700   33.9640 N   0  0  0  0  0  0  0  0  0  0  0  0
   37.6420   25.8570   34.2290 N   0  0  0  0  0  0  0  0  0  0  0  0
   38.5140   27.3820   36.9250 H   0  0  0  0  0  0  0  0  0  0  0  0
   37.2700   28.9150   35.1330 H   0  0  0  0  0  0  0  0  0  0  0  0
   39.9830   24.0050   35.6460 C   0  0  0  0  0  0  0  0  0  0  0  0
   38.8380   24.6650   36.1070 C   0  0  0  0  0  0  0  0  0  0  0  0
   38.2730   24.2210   37.3140 C   0  0  0  0  0  0  0  0  0  0  0  0
   38.8810   23.1770   37.9530 N   0  0  0  0  0  0  0  0  0  0  0  0
   39.9900   22.5700   37.4690 C   0  0  0  0  0  0  0  0  0  0  0  0
   40.5400   22.9890   36.3090 N   0  0  0  0  0  0  0  0  0  0  0  0
   40.4310   24.3340   34.7180 H   0  0  0  0  0  0  0  0  0  0  0  0
   37.3880   24.6990   37.7090 H   0  0  0  0  0  0  0  0  0  0  0  0
   40.2730   21.7800   38.1520 H   0  0  0  0  0  0  0  0  0  0  0  0
   36.5220   27.5060   32.7660 C   0  0  0  0  0  3  0  0  0  0  0  0
   35.6990   28.7530   33.0150 C   0  0  0  0  0  2  0  0  0  0  0  0
   35.9660   29.7030   31.8740 C   0  0  0  0  0  2  0  0  0  0  0  0
   37.0040   29.0660   30.9970 C   0  0  0  0  0  2  0  0  0  0  0  0
   37.5460   27.8660   31.7380 C   0  0  0  0  0  2  0  0  0  0  0  0
  1  2  1  0  0  0  0
  1  9  1  0  0  0  0
  2  6  1  0  0  0  0
  3  7  1  0  0  0  0
  3  2  2  0  0  0  0
  4  5  1  0  0  0  0
  4  3  1  0  0  0  0
  5  1  2  0  0  0  0
  8  9  2  0  0  0  0
  8 13  1  0  0  0  0
  9 10  1  0  0  0  0
 10 15  1  0  0  0  0
 10 11  2  0  0  0  0
 12 11  1  0  0  0  0
 12 16  1  0  0  0  0
 13 12  2  0  0  0  0
 14  8  1  0  0  0  0
 17 18  1  0  0  0  0
 17  4  1  0  0  0  0
 19 18  1  0  0  0  0
 20 21  1  0  0  0  0
 20 19  1  0  0  0  0
 21 17  1  0  0  0  0
M  END
>  <minimizedAffinity>
-4.52269983

$$$$

 OpenBabel03272500453D

 21 23  0  0  0  0  0  0  0  0999 V2000
   37.4780   22.2070   33.5370 C   0  0  0  0  0  0  0  0  0  0  0  0
   37.9700   23.3260   32.8450 C   0  0  0  0  0  0  0  0  0  0  0  0
   38.5940   24.1620   33.7750 C   0  0  0  0  0  0  0  0  0  0  0  0
   38.4640   23.5380   34.9800 N   0  0  0  0  0  0  0  0  0  0  0  0
   37.8110   22.4090   34.7940 N   0  0  0  0  0  0  0  0  0  0  0  0
   37.8900   23.5250   31.7770 H   0  0  0  0  0  0  0  0  0  0  0  0
   39.0730   25.0970   33.5760 H   0  0  0  0  0  0  0  0  0  0  0  0
   36.9930   20.7840   31.5370 C   0  0  0  0  0  0  0  0  0  0  0  0
   36.7730   21.1370   32.8740 C   0  0  0  0  0  0  0  0  0  0  0  0
   35.8140   20.4030   33.5910 C   0  0  0  0  0  0  0  0  0  0  0  0
   35.1640   19.3960   32.9350 N   0  0  0  0  0  0  0  0  0  0  0  0
   35.4110   19.0900   31.6400 C   0  0  0  0  0  0  0  0  0  0  0  0
   36.3310   19.7900   30.9410 N   0  0  0  0  0  0  0  0  0  0  0  0
   37.7280   21.3390   30.9700 H   0  0  0  0  0  0  0  0  0  0  0  0
   35.6100   20.6400   34.6260 H   0  0  0  0  0  0  0  0  0  0  0  0
   34.7730   18.2630   31.3560 H   0  0  0  0  0  0  0  0  0  0  0  0
   38.9690   24.0540   36.2300 C   0  0  0  0  0  3  0  0  0  0  0  0
   37.8920   24.7780   37.0100 C   0  0  0  0  0  2  0  0  0  0  0  0
   37.9860   24.3160   38.4420 C   0  0  0  0  0  2  0  0  0  0  0  0
   39.0520   23.2620   38.5010 C   0  0  0  0  0  2  0  0  0  0  0  0
   39.4160   22.9070   37.0790 C   0  0  0  0  0  2  0  0  0  0  0  0
  1  5  2  0  0  0  0
  2  1  1  0  0  0  0
  2  3  2  0  0  0  0
  3  4  1  0  0  0  0
  4 17  1  0  0  0  0
  5  4  1  0  0  0  0
  6  2  1  0  0  0  0
  7  3  1  0  0  0  0
  8  9  1  0  0  0  0
  9  1  1  0  0  0  0
  9 10  2  0  0  0  0
 10 15  1  0  0  0  0
 11 10  1  0  0  0  0
 12 11  2  0  0  0  0
 13  8  2  0  0  0  0
 13 12  1  0  0  0  0
 14  8  1  0  0  0  0
 16 12  1  0  0  0  0
 17 18  1  0  0  0  0
 17 21  1  0  0  0  0
 18 19  1  0  0  0  0
 19 20  1  0  0  0  0
 21 20  1  0  0  0  0
M  END
>  <minimizedAffinity>
-4.4945097

$$$$

 OpenBabel03272500453D

 21 23  0  0  0  0  0  0  0  0999 V2000
   37.4290   22.1050   34.3000 C   0  0  0  0  0  0  0  0  0  0  0  0
   37.3240   21.8010   35.6670 C   0  0  0  0  0  0  0  0  0  0  0  0
   37.9700   22.8150   36.3800 C   0  0  0  0  0  0  0  0  0  0  0  0
   38.4400   23.6860   35.4410 N   0  0  0  0  0  0  0  0  0  0  0  0
   38.1030   23.2340   34.2510 N   0  0  0  0  0  0  0  0  0  0  0  0
   36.8310   20.9380   36.1120 H   0  0  0  0  0  0  0  0  0  0  0  0
   38.0720   22.8870   37.4420 H   0  0  0  0  0  0  0  0  0  0  0  0
   37.4570   21.0740   32.0200 C   0  0  0  0  0  0  0  0  0  0  0  0
   36.8660   21.2600   33.2750 C   0  0  0  0  0  0  0  0  0  0  0  0
   35.6630   20.5810   33.5340 C   0  0  0  0  0  0  0  0  0  0  0  0
   35.1550   19.7880   32.5420 N   0  0  0  0  0  0  0  0  0  0  0  0
   35.7640   19.6390   31.3430 C   0  0  0  0  0  0  0  0  0  0  0  0
   36.9210   20.2870   31.0840 N   0  0  0  0  0  0  0  0  0  0  0  0
   38.3840   21.5890   31.8040 H   0  0  0  0  0  0  0  0  0  0  0  0
   35.1690   20.6950   34.4890 H   0  0  0  0  0  0  0  0  0  0  0  0
   35.1700   18.9670   30.7390 H   0  0  0  0  0  0  0  0  0  0  0  0
   39.1780   24.8910   35.7370 C   0  0  0  0  0  3  0  0  0  0  0  0
   39.8230   25.4680   34.4940 C   0  0  0  0  0  2  0  0  0  0  0  0
   39.5620   26.9530   34.5000 C   0  0  0  0  0  2  0  0  0  0  0  0
   38.6960   27.2490   35.6890 C   0  0  0  0  0  2  0  0  0  0  0  0
   38.2250   25.9260   36.2450 C   0  0  0  0  0  2  0  0  0  0  0  0
  1  2  1  0  0  0  0
  2  6  1  0  0  0  0
  2  3  2  0  0  0  0
  3  7  1  0  0  0  0
  4 17  1  0  0  0  0
  4  3  1  0  0  0  0
  5  1  2  0  0  0  0
  5  4  1  0  0  0  0
  8  9  1  0  0  0  0
  9 10  2  0  0  0  0
  9  1  1  0  0  0  0
 10 15  1  0  0  0  0
 11 10  1  0  0  0  0
 12 11  2  0  0  0  0
 13 12  1  0  0  0  0
 13  8  2  0  0  0  0
 14  8  1  0  0  0  0
 16 12  1  0  0  0  0
 17 21  1  0  0  0  0
 18 19  1  0  0  0  0
 18 17  1  0  0  0  0
 19 20  1  0  0  0  0
 20 21  1  0  0  0  0
M  END
>  <minimizedAffinity>
-4.46954775

$$$$

 OpenBabel03272500453D

 21 23  0  0  0  0  0  0  0  0999 V2000
   36.6280   27.8440   33.8850 C   0  0  0  0  0  0  0  0  0  0  0  0
   36.4590   28.3420   32.5820 C   0  0  0  0  0  0  0  0  0  0  0  0
   35.8850   29.6120   32.6830 C   0  0  0  0  0  0  0  0  0  0  0  0
   35.7240   29.8420   34.0170 N   0  0  0  0  0  0  0  0  0  0  0  0
   36.1690   28.7910   34.6750 N   0  0  0  0  0  0  0  0  0  0  0  0
   36.7240   27.8450   31.6500 H   0  0  0  0  0  0  0  0  0  0  0  0
   35.6260   30.2640   31.8760 H   0  0  0  0  0  0  0  0  0  0  0  0
   37.6640   26.1510   35.4090 C   0  0  0  0  0  0  0  0  0  0  0  0
   37.2010   26.5470   34.1480 C   0  0  0  0  0  0  0  0  0  0  0  0
   37.3080   25.6210   33.0970 C   0  0  0  0  0  0  0  0  0  0  0  0
   37.8550   24.4010   33.3790 N   0  0  0  0  0  0  0  0  0  0  0  0
   38.2890   24.0630   34.6160 C   0  0  0  0  0  0  0  0  0  0  0  0
   38.1910   24.9450   35.6330 N   0  0  0  0  0  0  0  0  0  0  0  0
   37.5890   26.8520   36.2300 H   0  0  0  0  0  0  0  0  0  0  0  0
   36.9650   25.8820   32.1050 H   0  0  0  0  0  0  0  0  0  0  0  0
   38.6760   23.0530   34.5780 H   0  0  0  0  0  0  0  0  0  0  0  0
   35.1590   31.0460   34.5800 C   0  0  0  0  0  3  0  0  0  0  0  0
   33.7560   30.8120   35.1000 C   0  0  0  0  0  2  0  0  0  0  0  0
   33.6650   31.4630   36.4570 C   0  0  0  0  0  2  0  0  0  0  0  0
   35.0250   32.0060   36.7830 C   0  0  0  0  0  2  0  0  0  0  0  0
   35.9870   31.4620   35.7530 C   0  0  0  0  0  2  0  0  0  0  0  0
  1  9  1  0  0  0  0
  1  5  2  0  0  0  0
  2  3  2  0  0  0  0
  2  1  1  0  0  0  0
  3  4  1  0  0  0  0
  4 17  1  0  0  0  0
  4  5  1  0  0  0  0
  6  2  1  0  0  0  0
  7  3  1  0  0  0  0
  8 13  1  0  0  0  0
  8 14  1  0  0  0  0
  9  8  2  0  0  0  0
 10 11  2  0  0  0  0
 10  9  1  0  0  0  0
 11 12  1  0  0  0  0
 12 13  2  0  0  0  0
 15 10  1  0  0  0  0
 16 12  1  0  0  0  0
 17 18  1  0  0  0  0
 17 21  1  0  0  0  0
 18 19  1  0  0  0  0
 19 20  1  0  0  0  0
 21 20  1  0  0  0  0
M  END
>  <minimizedAffinity>
-4.45833015

$$$$

 OpenBabel03272500453D

 21 23  0  0  0  0  0  0  0  0999 V2000
   36.5730   24.1780   31.7070 C   0  0  0  0  0  0  0  0  0  0  0  0
   37.7360   23.5980   31.1730 C   0  0  0  0  0  0  0  0  0  0  0  0
   37.4680   22.2460   30.9380 C   0  0  0  0  0  0  0  0  0  0  0  0
   36.1770   22.0510   31.3300 N   0  0  0  0  0  0  0  0  0  0  0  0
   35.6980   23.1970   31.7690 N   0  0  0  0  0  0  0  0  0  0  0  0
   38.6840   24.0940   30.9690 H   0  0  0  0  0  0  0  0  0  0  0  0
   38.1410   21.5200   30.5350 H   0  0  0  0  0  0  0  0  0  0  0  0
   37.1270   26.1090   33.2000 C   0  0  0  0  0  0  0  0  0  0  0  0
   36.5020   25.5730   32.0670 C   0  0  0  0  0  0  0  0  0  0  0  0
   35.7720   26.4530   31.2510 C   0  0  0  0  0  0  0  0  0  0  0  0
   35.7230   27.7690   31.6190 N   0  0  0  0  0  0  0  0  0  0  0  0
   36.3450   28.2410   32.7250 C   0  0  0  0  0  0  0  0  0  0  0  0
   37.0490   27.4030   33.5170 N   0  0  0  0  0  0  0  0  0  0  0  0
   37.6920   25.4450   33.8400 H   0  0  0  0  0  0  0  0  0  0  0  0
   35.2710   26.0860   30.3660 H   0  0  0  0  0  0  0  0  0  0  0  0
   36.1570   29.3040   32.7950 H   0  0  0  0  0  0  0  0  0  0  0  0
   35.4810   20.7870   31.2630 C   0  0  0  0  0  3  0  0  0  0  0  0
   36.3490   19.7060   30.6550 C   0  0  0  0  0  2  0  0  0  0  0  0
   36.2010   18.4750   31.5140 C   0  0  0  0  0  2  0  0  0  0  0  0
   35.3220   18.8430   32.6720 C   0  0  0  0  0  2  0  0  0  0  0  0
   35.1530   20.3440   32.6520 C   0  0  0  0  0  2  0  0  0  0  0  0
  1  5  2  0  0  0  0
  1  9  1  0  0  0  0
  2  1  1  0  0  0  0
  3  2  2  0  0  0  0
  3  4  1  0  0  0  0
  4  5  1  0  0  0  0
  6  2  1  0  0  0  0
  7  3  1  0  0  0  0
  8 13  1  0  0  0  0
  8 14  1  0  0  0  0
  9  8  2  0  0  0  0
 10 11  2  0  0  0  0
 10  9  1  0  0  0  0
 11 12  1  0  0  0  0
 12 16  1  0  0  0  0
 12 13  2  0  0  0  0
 15 10  1  0  0  0  0
 17  4  1  0  0  0  0
 17 21  1  0  0  0  0
 18 17  1  0  0  0  0
 18 19  1  0  0  0  0
 19 20  1  0  0  0  0
 21 20  1  0  0  0  0
M  END
>  <minimizedAffinity>
-4.41902256

$$$$

 OpenBabel03272500453D

 21 23  0  0  0  0  0  0  0  0999 V2000
   37.9290   25.3700   34.7950 C   0  0  0  0  0  0  0  0  0  0  0  0
   37.7790   24.9090   33.4770 C   0  0  0  0  0  0  0  0  0  0  0  0
   37.2480   25.9550   32.7170 C   0  0  0  0  0  0  0  0  0  0  0  0
   37.0950   26.9990   33.5810 N   0  0  0  0  0  0  0  0  0  0  0  0
   37.5020   26.6150   34.7730 N   0  0  0  0  0  0  0  0  0  0  0  0
   38.0260   23.9190   33.0950 H   0  0  0  0  0  0  0  0  0  0  0  0
   37.0130   25.9350   31.6740 H   0  0  0  0  0  0  0  0  0  0  0  0
   37.8700   24.4400   37.1180 C   0  0  0  0  0  0  0  0  0  0  0  0
   38.4560   24.5380   35.8490 C   0  0  0  0  0  0  0  0  0  0  0  0
   39.6150   23.7820   35.6080 C   0  0  0  0  0  0  0  0  0  0  0  0
   40.0890   23.0040   36.6280 N   0  0  0  0  0  0  0  0  0  0  0  0
   39.4870   22.9410   37.8380 C   0  0  0  0  0  0  0  0  0  0  0  0
   38.3730   23.6640   38.0810 N   0  0  0  0  0  0  0  0  0  0  0  0
   36.9780   25.0160   37.3200 H   0  0  0  0  0  0  0  0  0  0  0  0
   40.1030   23.8260   34.6450 H   0  0  0  0  0  0  0  0  0  0  0  0
   40.0500   22.2620   38.4650 H   0  0  0  0  0  0  0  0  0  0  0  0
   36.5710   28.2950   33.2170 C   0  0  0  0  0  3  0  0  0  0  0  0
   35.4760   28.1810   32.1770 C   0  0  0  0  0  2  0  0  0  0  0  0
   34.3480   29.0820   32.6130 C   0  0  0  0  0  2  0  0  0  0  0  0
   34.7290   29.6630   33.9430 C   0  0  0  0  0  2  0  0  0  0  0  0
   35.9530   28.9200   34.4250 C   0  0  0  0  0  2  0  0  0  0  0  0
  1  9  1  0  0  0  0
  2  1  1  0  0  0  0
  3  2  2  0  0  0  0
  3  4  1  0  0  0  0
  4  5  1  0  0  0  0
  5  1  2  0  0  0  0
  6  2  1  0  0  0  0
  7  3  1  0  0  0  0
  8 14  1  0  0  0  0
  8 13  1  0  0  0  0
  9  8  2  0  0  0  0
 10  9  1  0  0  0  0
 10 11  2  0  0  0  0
 11 12  1  0  0  0  0
 12 13  2  0  0  0  0
 12 16  1  0  0  0  0
 15 10  1  0  0  0  0
 17  4  1  0  0  0  0
 17 21  1  0  0  0  0
 18 19  1  0  0  0  0
 18 17  1  0  0  0  0
 19 20  1  0  0  0  0
 20 21  1  0  0  0  0
M  END
>  <minimizedAffinity>
-4.3263073

$$$$
