
 OpenBabel03272503053D

 28 30  0  0  0  0  0  0  0  0999 V2000
   38.5090   30.4410   47.3170 F   0  0  0  0  0  0  0  0  0  0  0  0
   38.7740   31.6780   47.8100 C   0  0  0  0  0  0  0  0  0  0  0  0
   38.1980   32.0930   48.9760 C   0  0  0  0  0  0  0  0  0  0  0  0
   38.5080   33.3510   49.4160 C   0  0  0  0  0  0  0  0  0  0  0  0
   39.3570   34.1790   48.7340 C   0  0  0  0  0  0  0  0  0  0  0  0
   39.9310   33.7400   47.5530 C   0  0  0  0  0  0  0  0  0  0  0  0
   39.6320   32.4740   47.0920 C   0  0  0  0  0  0  0  0  0  0  0  0
   38.0530   33.6860   50.3400 H   0  0  0  0  0  0  0  0  0  0  0  0
   39.5950   35.1740   49.0910 H   0  0  0  0  0  0  0  0  0  0  0  0
   40.6180   34.3540   46.9590 H   0  0  0  0  0  0  0  0  0  0  0  0
   36.7760   29.5750   51.4310 C   0  0  0  0  0  0  0  0  0  0  0  0
   37.6650   30.4640   50.7980 C   0  0  0  0  0  0  0  0  0  0  0  0
   37.2940   31.1550   49.6610 C   0  0  0  0  0  0  0  0  0  0  0  0
   36.0400   30.9320   49.1930 N   0  0  0  0  0  0  0  0  0  0  0  0
   35.1960   30.0750   49.8080 C   0  0  0  0  0  0  0  0  0  0  0  0
   35.5530   29.4140   50.8980 N   0  0  0  0  0  0  0  0  0  0  0  0
   37.1470   29.0740   52.3160 H   0  0  0  0  0  0  0  0  0  0  0  0
   38.6590   30.6270   51.1890 H   0  0  0  0  0  0  0  0  0  0  0  0
   34.2160   29.9800   49.3380 H   0  0  0  0  0  0  0  0  0  0  0  0
   39.4060   32.2250   44.7090 C   0  0  0  0  0  0  0  0  0  0  0  0
   38.3030   32.8140   44.9340 O   0  0  0  0  0  0  0  0  0  0  0  0
   40.2100   31.9850   45.8690 N   0  0  0  0  0  0  0  0  0  0  0  0
   41.1160   31.4990   45.7860 H   0  0  0  0  0  0  0  0  0  0  0  0
   39.9610   31.7610   43.4110 C   0  0  0  0  0  3  0  0  0  0  0  0
   39.3720   32.4800   42.2410 C   0  0  0  0  0  2  0  0  0  0  0  0
   38.7190   31.4180   41.3620 C   0  0  0  0  0  2  0  0  0  0  0  0
   39.4220   30.1300   41.7560 C   0  0  0  0  0  2  0  0  0  0  0  0
   39.5650   30.3190   43.2450 C   0  0  0  0  0  2  0  0  0  0  0  0
  1  2  1  0  0  0  0
  2  3  1  0  0  0  0
  3  4  2  0  0  0  0
  3 13  1  0  0  0  0
  4  8  1  0  0  0  0
  5  9  1  0  0  0  0
  5  4  1  0  0  0  0
  6  5  2  0  0  0  0
  7  6  1  0  0  0  0
  7  2  2  0  0  0  0
 10  6  1  0  0  0  0
 11 17  1  0  0  0  0
 12 18  1  0  0  0  0
 12 11  2  0  0  0  0
 13 12  1  0  0  0  0
 14 13  2  0  0  0  0
 14 15  1  0  0  0  0
 15 16  2  0  0  0  0
 16 11  1  0  0  0  0
 19 15  1  0  0  0  0
 20 21  2  0  0  0  0
 20 22  1  0  0  0  0
 22  7  1  0  0  0  0
 23 22  1  0  0  0  0
 24 20  1  0  0  0  0
 25 24  1  0  0  0  0
 26 27  1  0  0  0  0
 26 25  1  0  0  0  0
 27 28  1  0  0  0  0
 28 24  1  0  0  0  0
M  END
>  <minimizedAffinity>
-6.36681175

>  <minimizedRMSD>
0.435366601

$$$$
