
     RDKit          3D

 31 32  0  0  0  0  0  0  0  0999 V2000
   35.9507   30.7935   49.6287 C   0  0  0  0  0  0  0  0  0  0  0  0
   36.2254   29.9007   50.6488 C   0  0  0  0  0  0  0  0  0  0  0  0
   37.4973   29.8921   51.1961 C   0  0  0  0  0  0  0  0  0  0  0  0
   38.4382   30.7613   50.7146 N   0  0  0  0  0  0  0  0  0  0  0  0
   38.1248   31.6231   49.7095 C   0  0  0  0  0  0  0  0  0  0  0  0
   36.8825   31.6463   49.1601 N   0  0  0  0  0  0  0  0  0  0  0  0
   35.1394   29.0772   51.0226 N   0  0  0  0  0  0  0  0  0  0  0  0
   34.7340   30.9421   48.9631 O   0  0  0  0  0  0  0  0  0  0  0  0
   35.5217   30.0880   46.5485 O   0  0  0  0  0  0  0  0  0  0  0  0
   34.3773   30.0763   47.5130 P   0  0  1  0  0  0  0  0  0  0  0  0
   33.9907   28.4948   47.9908 O   0  0  0  0  0  0  0  0  0  0  0  0
   33.0849   30.8257   46.7163 O   0  0  0  0  0  0  0  0  0  0  0  0
   37.6674   29.1944   51.9744 H   0  0  0  0  0  0  0  0  0  0  0  0
   38.8902   32.3150   49.3333 H   0  0  0  0  0  0  0  0  0  0  0  0
   35.2665   28.2156   50.4273 H   0  0  0  0  0  0  0  0  0  0  0  0
   34.3850   29.2913   51.7350 H   0  0  0  0  0  0  0  0  0  0  0  0
   33.4814   28.4680   48.8191 H   0  0  0  0  0  0  0  0  0  0  0  0
   32.1639   29.8956   46.2306 C   0  0  0  0  0  0  0  0  0  0  0  0
   32.2622   28.5732   46.9702 C   0  0  0  0  0  0  0  0  0  0  0  0
   31.5443   27.6525   45.9818 C   0  0  0  0  0  0  0  0  0  0  0  0
   32.0622   28.1299   44.6436 C   0  0  0  0  0  0  0  0  0  0  0  0
   32.6282   29.5028   44.8397 C   0  0  0  0  0  0  0  0  0  0  0  0
   31.1335   30.2794   46.1925 H   0  0  0  0  0  0  0  0  0  0  0  0
   31.7653   28.5765   47.9526 H   0  0  0  0  0  0  0  0  0  0  0  0
   33.3174   28.2683   46.9785 H   0  0  0  0  0  0  0  0  0  0  0  0
   30.4629   27.9229   46.0557 H   0  0  0  0  0  0  0  0  0  0  0  0
   31.7097   26.5924   46.1828 H   0  0  0  0  0  0  0  0  0  0  0  0
   31.2674   28.1568   43.8798 H   0  0  0  0  0  0  0  0  0  0  0  0
   32.8462   27.3993   44.2927 H   0  0  0  0  0  0  0  0  0  0  0  0
   32.2892   30.2289   44.0737 H   0  0  0  0  0  0  0  0  0  0  0  0
   33.7318   29.4118   44.8849 H   0  0  0  0  0  0  0  0  0  0  0  0
  1  2  2  0
  2  7  1  0
  2  3  1  0
  4  3  2  0
  5  4  1  0
  6  1  1  0
  6  5  2  0
  8  1  1  0
  9 10  2  0
 10 11  1  1
 10  8  1  0
 12 10  1  0
  3 13  1  0
  5 14  1  0
  7 15  1  0
  7 16  1  0
 11 17  1  0
 18 19  1  0
 19 20  1  0
 20 21  1  0
 21 22  1  0
 22 18  1  0
 18 23  1  0
 19 24  1  0
 19 25  1  0
 20 26  1  0
 20 27  1  0
 21 28  1  0
 21 29  1  0
 22 30  1  0
 22 31  1  0
 12 18  1  0
M  ISO  3  13  14  14  14  17   3
M  END
>  <DihAtoms>  (1) 
9,11,17,18

>  <DihDeg>  (1) 
-128.18969751829874

$$$$
