
 OpenBabel03272503493D

 33 35  0  0  1  0  0  0  0  0999 V2000
   33.0890   27.3200   45.9080 C   0  0  1  0  0  0  0  0  0  0  0  0
   33.9120   27.4780   47.2060 C   0  0  2  0  0  0  0  0  0  0  0  0
   33.8170   26.2510   47.7840 O   0  0  0  0  0  0  0  0  0  0  0  0
   34.0600   25.3620   46.7500 C   0  0  0  0  0  0  0  0  0  0  0  0
   33.4450   25.9350   45.4930 C   0  0  2  0  0  0  0  0  0  0  0  0
   33.4620   28.0530   45.1610 H   0  0  0  0  0  0  0  0  0  0  0  0
   34.9240   27.7870   46.8600 H   0  0  0  0  0  0  0  0  0  0  0  0
   35.1310   25.0990   46.6430 H   0  0  0  0  0  0  0  0  0  0  0  0
   33.5240   24.4210   47.0030 H   0  0  0  0  0  0  0  0  0  0  0  0
   32.5990   25.3180   45.1310 H   0  0  0  0  0  0  0  0  0  0  0  0
   31.7450   27.5180   46.1590 O   0  0  0  0  0  0  0  0  0  0  0  0
   31.3560   28.0960   45.4390 H   0  0  0  0  0  0  0  0  0  0  0  0
   33.3260   28.5220   47.8600 O   0  0  0  0  0  0  0  0  0  0  0  0
   35.3430   29.8270   46.7650 O   0  0  0  0  0  0  0  0  0  0  0  0
   34.0940   30.0000   47.6150 P   0  0  1  0  0  0  0  0  0  0  0  0
   33.0910   31.0370   46.7260 O   0  0  0  0  0  0  0  0  0  0  0  0
   32.2620   31.2260   47.2290 H   0  0  0  0  0  0  0  0  0  0  0  0
   34.4200   30.6510   49.1550 O   0  0  0  0  0  0  0  0  0  0  0  0
   35.6450   30.5220   49.7710 C   0  0  0  0  0  0  0  0  0  0  0  0
   35.9650   29.4980   50.6900 C   0  0  0  0  0  0  0  0  0  0  0  0
   37.2460   29.4930   51.2340 C   0  0  0  0  0  0  0  0  0  0  0  0
   38.1190   30.4710   50.8540 N   0  0  0  0  0  0  0  0  0  0  0  0
   37.7780   31.4450   49.9650 C   0  0  0  0  0  0  0  0  0  0  0  0
   36.5300   31.4670   49.4210 N   0  0  0  0  0  0  0  0  0  0  0  0
   35.1930   28.7740   50.9180 H   0  0  0  0  0  0  0  0  0  0  0  0
   37.5010   28.7180   51.9350 H   0  0  0  0  0  0  0  0  0  0  0  0
   38.5080   32.1920   49.7010 H   0  0  0  0  0  0  0  0  0  0  0  0
   34.4010   25.9670   44.4780 O   0  0  0  0  0  0  0  0  0  0  0  0
   34.1000   25.1110   43.4260 C   0  0  0  0  0  3  0  0  0  0  0  0
   35.0600   23.9540   43.4090 C   0  0  0  0  0  2  0  0  0  0  0  0
   34.2610   22.7050   43.5980 C   0  0  0  0  0  2  0  0  0  0  0  0
   32.8060   23.0500   43.4390 C   0  0  0  0  0  2  0  0  0  0  0  0
   32.7090   24.5470   43.5260 C   0  0  0  0  0  2  0  0  0  0  0  0
  1  6  1  6  0  0  0
  1 11  1  0  0  0  0
  1  2  1  0  0  0  0
  2  7  1  6  0  0  0
  2  3  1  0  0  0  0
  2 13  1  0  0  0  0
  4  9  1  0  0  0  0
  4  3  1  0  0  0  0
  5 10  1  6  0  0  0
  5  1  1  0  0  0  0
  5  4  1  0  0  0  0
  8  4  1  0  0  0  0
 12 11  1  0  0  0  0
 15 14  2  6  0  0  0
 15 13  1  0  0  0  0
 15 18  1  0  0  0  0
 16 17  1  0  0  0  0
 16 15  1  0  0  0  0
 18 19  1  0  0  0  0
 19 20  1  0  0  0  0
 20 25  1  0  0  0  0
 20 21  2  0  0  0  0
 21 26  1  0  0  0  0
 22 21  1  0  0  0  0
 23 22  2  0  0  0  0
 24 19  2  0  0  0  0
 24 23  1  0  0  0  0
 27 23  1  0  0  0  0
 28  5  1  0  0  0  0
 29 33  1  0  0  0  0
 29 28  1  0  0  0  0
 30 29  1  0  0  0  0
 30 31  1  0  0  0  0
 32 33  1  0  0  0  0
 32 31  1  0  0  0  0
M  END
>  <minimizedAffinity>
-3.91853309

>  <minimizedRMSD>
0.374303758

$$$$
