
 OpenBabel03272509403D

 31 33  0  0  0  0  0  0  0  0999 V2000
   37.0370   30.9240   49.0830 C   0  0  0  0  0  0  0  0  0  0  0  0
   36.7710   31.9050   50.0620 C   0  0  0  0  0  0  0  0  0  0  0  0
   37.3900   33.1390   50.0550 C   0  0  0  0  0  0  0  0  0  0  0  0
   38.3120   33.4530   49.0570 C   0  0  0  0  0  0  0  0  0  0  0  0
   38.5640   32.4860   48.1030 C   0  0  0  0  0  0  0  0  0  0  0  0
   37.9300   31.2550   48.1330 C   0  0  0  0  0  0  0  0  0  0  0  0
   36.0670   31.6790   50.8360 H   0  0  0  0  0  0  0  0  0  0  0  0
   37.1350   33.8390   50.8400 H   0  0  0  0  0  0  0  0  0  0  0  0
   38.7840   34.4240   49.0690 H   0  0  0  0  0  0  0  0  0  0  0  0
   39.2880   32.8060   47.3660 H   0  0  0  0  0  0  0  0  0  0  0  0
   36.3410   29.6650   49.1750 C   0  0  0  0  0  0  0  0  0  0  0  0
   36.8350   28.8360   50.0060 O   0  0  0  0  0  0  0  0  0  0  0  0
   33.5850   30.1200   46.8430 C   0  0  0  0  0  0  0  0  0  0  0  0
   32.9330   28.8820   46.8510 C   0  0  0  0  0  0  0  0  0  0  0  0
   33.4400   27.8900   47.6560 C   0  0  0  0  0  0  0  0  0  0  0  0
   34.5400   28.1320   48.4120 N   0  0  0  0  0  0  0  0  0  0  0  0
   35.1510   29.3100   48.3970 C   0  0  0  0  0  0  0  0  0  0  0  0
   34.6610   30.2960   47.6060 N   0  0  0  0  0  0  0  0  0  0  0  0
   33.2410   30.9490   46.2310 H   0  0  0  0  0  0  0  0  0  0  0  0
   32.0730   28.8190   46.2070 H   0  0  0  0  0  0  0  0  0  0  0  0
   32.9380   26.9480   47.6570 H   0  0  0  0  0  0  0  0  0  0  0  0
   38.3090   30.3690   47.0680 C   0  0  0  0  0  3  0  0  0  0  0  0
   38.7200   30.7050   45.8510 C   0  0  0  0  0  3  0  0  0  0  0  0
   39.1330   29.9030   44.6870 C   0  0  0  0  0  0  0  0  0  0  0  0
   38.2500   29.4100   44.1920 H   0  0  0  0  0  0  0  0  0  0  0  0
   39.7730   29.0760   45.0580 H   0  0  0  0  0  0  0  0  0  0  0  0
   39.9270   30.6420   43.6620 C   0  0  0  0  0  3  0  0  0  0  0  0
   39.0430   30.7300   42.4140 C   0  0  0  0  0  2  0  0  0  0  0  0
   39.2360   32.1190   41.8770 C   0  0  0  0  0  2  0  0  0  0  0  0
   39.5810   32.9700   43.0550 C   0  0  0  0  0  2  0  0  0  0  0  0
   40.2690   32.0530   44.0290 C   0  0  0  0  0  2  0  0  0  0  0  0
  1 11  1  0  0  0  0
  1  2  1  0  0  0  0
  2  7  1  0  0  0  0
  3  2  2  0  0  0  0
  3  8  1  0  0  0  0
  4  9  1  0  0  0  0
  4  3  1  0  0  0  0
  5  6  1  0  0  0  0
  5  4  2  0  0  0  0
  6  1  2  0  0  0  0
 10  5  1  0  0  0  0
 11 12  2  0  0  0  0
 13 14  2  0  0  0  0
 13 18  1  0  0  0  0
 14 15  1  0  0  0  0
 15 21  1  0  0  0  0
 15 16  2  0  0  0  0
 17 16  1  0  0  0  0
 17 11  1  0  0  0  0
 18 17  2  0  0  0  0
 19 13  1  0  0  0  0
 20 14  1  0  0  0  0
 22  6  1  0  0  0  0
 23 22  2  0  0  0  0
 24 26  1  0  0  0  0
 24 23  1  0  0  0  0
 25 24  1  0  0  0  0
 27 31  1  0  0  0  0
 27 24  1  0  0  0  0
 28 27  1  0  0  0  0
 29 28  1  0  0  0  0
 29 30  1  0  0  0  0
 30 31  1  0  0  0  0
M  END
>  <minimizedAffinity>
-5.99239492

>  <minimizedRMSD>
0.90313375

$$$$
