
 OpenBabel03272503493D

 33 35  0  0  1  0  0  0  0  0999 V2000
   33.2320   27.3200   45.8480 C   0  0  1  0  0  0  0  0  0  0  0  0
   33.9240   27.4600   47.2220 C   0  0  2  0  0  0  0  0  0  0  0  0
   33.7530   26.2310   47.7810 O   0  0  0  0  0  0  0  0  0  0  0  0
   34.0840   25.3430   46.7710 C   0  0  0  0  0  0  0  0  0  0  0  0
   33.6060   25.9310   45.4630 C   0  0  2  0  0  0  0  0  0  0  0  0
   33.6880   28.0490   45.1460 H   0  0  0  0  0  0  0  0  0  0  0  0
   34.9700   27.7530   46.9800 H   0  0  0  0  0  0  0  0  0  0  0  0
   35.1560   25.0630   46.7690 H   0  0  0  0  0  0  0  0  0  0  0  0
   33.5120   24.4100   46.9650 H   0  0  0  0  0  0  0  0  0  0  0  0
   32.7910   25.3290   45.0150 H   0  0  0  0  0  0  0  0  0  0  0  0
   31.8730   27.5370   45.9660 O   0  0  0  0  0  0  0  0  0  0  0  0
   31.5650   28.1240   45.2140 H   0  0  0  0  0  0  0  0  0  0  0  0
   33.2910   28.5090   47.8200 O   0  0  0  0  0  0  0  0  0  0  0  0
   35.3410   29.8170   46.7900 O   0  0  0  0  0  0  0  0  0  0  0  0
   34.0790   29.9850   47.6220 P   0  0  1  0  0  0  0  0  0  0  0  0
   33.1030   31.0520   46.7410 O   0  0  0  0  0  0  0  0  0  0  0  0
   32.2670   31.2390   47.2330 H   0  0  0  0  0  0  0  0  0  0  0  0
   34.3860   30.5970   49.1820 O   0  0  0  0  0  0  0  0  0  0  0  0
   35.6150   30.4890   49.7930 C   0  0  0  0  0  0  0  0  0  0  0  0
   35.9550   29.4750   50.7160 C   0  0  0  0  0  0  0  0  0  0  0  0
   37.2380   29.4930   51.2540 C   0  0  0  0  0  0  0  0  0  0  0  0
   38.0940   30.4820   50.8650 N   0  0  0  0  0  0  0  0  0  0  0  0
   37.7350   31.4460   49.9730 C   0  0  0  0  0  0  0  0  0  0  0  0
   36.4840   31.4460   49.4350 N   0  0  0  0  0  0  0  0  0  0  0  0
   35.1950   28.7400   50.9510 H   0  0  0  0  0  0  0  0  0  0  0  0
   37.5080   28.7250   51.9580 H   0  0  0  0  0  0  0  0  0  0  0  0
   38.4510   32.2020   49.7020 H   0  0  0  0  0  0  0  0  0  0  0  0
   34.6590   25.9510   44.5480 O   0  0  0  0  0  0  0  0  0  0  0  0
   34.4560   25.0960   43.4720 C   0  0  0  0  0  3  0  0  0  0  0  0
   34.7380   25.8150   42.1800 C   0  0  0  0  0  2  0  0  0  0  0  0
   35.8630   25.0990   41.5060 C   0  0  0  0  0  2  0  0  0  0  0  0
   36.0800   23.7910   42.2150 C   0  0  0  0  0  2  0  0  0  0  0  0
   35.3490   23.8870   43.5240 C   0  0  0  0  0  2  0  0  0  0  0  0
  1  6  1  6  0  0  0
  1 11  1  0  0  0  0
  1  2  1  0  0  0  0
  2  7  1  6  0  0  0
  2  3  1  0  0  0  0
  2 13  1  0  0  0  0
  4  9  1  0  0  0  0
  4  3  1  0  0  0  0
  5 10  1  6  0  0  0
  5  1  1  0  0  0  0
  5  4  1  0  0  0  0
  8  4  1  0  0  0  0
 12 11  1  0  0  0  0
 15 14  2  6  0  0  0
 15 13  1  0  0  0  0
 15 18  1  0  0  0  0
 16 17  1  0  0  0  0
 16 15  1  0  0  0  0
 18 19  1  0  0  0  0
 19 20  1  0  0  0  0
 20 25  1  0  0  0  0
 20 21  2  0  0  0  0
 21 26  1  0  0  0  0
 22 21  1  0  0  0  0
 23 22  2  0  0  0  0
 24 19  2  0  0  0  0
 24 23  1  0  0  0  0
 27 23  1  0  0  0  0
 28  5  1  0  0  0  0
 29 33  1  0  0  0  0
 29 28  1  0  0  0  0
 30 29  1  0  0  0  0
 31 30  1  0  0  0  0
 31 32  1  0  0  0  0
 32 33  1  0  0  0  0
M  END
>  <minimizedAffinity>
-3.98920345

>  <minimizedRMSD>
0.35090062

$$$$
