
 OpenBabel03272508023D

 24 26  0  0  0  0  0  0  0  0999 V2000
   35.1010   29.6010   47.6650 C   0  0  0  0  0  0  0  0  0  0  0  0
   36.0390   30.3670   48.4040 C   0  0  0  0  0  0  0  0  0  0  0  0
   36.2300   30.0440   49.7460 C   0  0  0  0  0  0  0  0  0  0  0  0
   35.5050   29.0100   50.2760 N   0  0  0  0  0  0  0  0  0  0  0  0
   34.6230   28.3020   49.5500 C   0  0  0  0  0  0  0  0  0  0  0  0
   34.4310   28.6100   48.2440 N   0  0  0  0  0  0  0  0  0  0  0  0
   36.5910   31.1680   47.9630 H   0  0  0  0  0  0  0  0  0  0  0  0
   34.0720   27.4900   50.0220 H   0  0  0  0  0  0  0  0  0  0  0  0
   34.9040   29.9410   46.2610 C   0  0  0  0  0  0  0  0  0  0  0  0
   33.7220   30.1170   45.5990 C   0  0  0  0  0  0  0  0  0  0  0  0
   33.9670   30.4350   44.2620 C   0  0  0  0  0  0  0  0  0  0  0  0
   35.3320   30.4380   44.1660 N   0  0  0  0  0  0  0  0  0  0  0  0
   35.8490   30.1480   45.3420 N   0  0  0  0  0  0  0  0  0  0  0  0
   32.7110   30.0330   46.0060 H   0  0  0  0  0  0  0  0  0  0  0  0
   33.2770   30.6380   43.4580 H   0  0  0  0  0  0  0  0  0  0  0  0
   36.0300   30.7310   42.9060 C   0  0  0  0  0  3  0  0  0  0  0  0
   37.4930   31.0120   43.1620 C   0  0  0  0  0  2  0  0  0  0  0  0
   37.4430   32.5170   43.4540 C   0  0  0  0  0  2  0  0  0  0  0  0
   36.6280   32.9760   42.2560 C   0  0  0  0  0  2  0  0  0  0  0  0
   35.5090   31.9660   42.2290 C   0  0  0  0  0  2  0  0  0  0  0  0
   37.2130   30.8370   50.5410 C   0  0  0  0  0  0  0  0  0  0  0  0
   36.7990   32.1560   50.4350 F   0  0  0  0  0  0  0  0  0  0  0  0
   37.2180   30.4950   51.8760 F   0  0  0  0  0  0  0  0  0  0  0  0
   38.4870   30.7540   50.0250 F   0  0  0  0  0  0  0  0  0  0  0  0
  1  6  2  0  0  0  0
  1  2  1  0  0  0  0
  2  3  2  0  0  0  0
  3  4  1  0  0  0  0
  3 21  1  0  0  0  0
  5  8  1  0  0  0  0
  5  4  2  0  0  0  0
  6  5  1  0  0  0  0
  7  2  1  0  0  0  0
  9  1  1  0  0  0  0
 10 14  1  0  0  0  0
 10  9  1  0  0  0  0
 11 10  2  0  0  0  0
 12 11  1  0  0  0  0
 12 13  1  0  0  0  0
 13  9  2  0  0  0  0
 15 11  1  0  0  0  0
 16 17  1  0  0  0  0
 16 12  1  0  0  0  0
 17 18  1  0  0  0  0
 19 18  1  0  0  0  0
 20 19  1  0  0  0  0
 20 16  1  0  0  0  0
 21 23  1  0  0  0  0
 22 21  1  0  0  0  0
 24 21  1  0  0  0  0
M  END
>  <minimizedAffinity>
-5.23793173

>  <minimizedRMSD>
4.15175819

$$$$
