
 OpenBabel03272503493D

 33 35  0  0  1  0  0  0  0  0999 V2000
   32.8070   27.3960   46.1190 C   0  0  1  0  0  0  0  0  0  0  0  0
   33.8770   27.5310   47.2250 C   0  0  2  0  0  0  0  0  0  0  0  0
   33.9040   26.2910   47.7830 O   0  0  0  0  0  0  0  0  0  0  0  0
   33.9320   25.4260   46.7010 C   0  0  0  0  0  0  0  0  0  0  0  0
   33.0740   26.0220   45.6100 C   0  0  2  0  0  0  0  0  0  0  0  0
   33.0200   28.1470   45.3280 H   0  0  0  0  0  0  0  0  0  0  0  0
   34.7970   27.8530   46.6880 H   0  0  0  0  0  0  0  0  0  0  0  0
   34.9590   25.1710   46.3730 H   0  0  0  0  0  0  0  0  0  0  0  0
   33.4610   24.4770   47.0370 H   0  0  0  0  0  0  0  0  0  0  0  0
   32.1720   25.4080   45.4130 H   0  0  0  0  0  0  0  0  0  0  0  0
   31.5430   27.5800   46.6430 O   0  0  0  0  0  0  0  0  0  0  0  0
   31.0140   28.1710   46.0300 H   0  0  0  0  0  0  0  0  0  0  0  0
   33.4350   28.5570   48.0080 O   0  0  0  0  0  0  0  0  0  0  0  0
   35.3540   29.8620   46.7490 O   0  0  0  0  0  0  0  0  0  0  0  0
   34.1450   30.0420   47.6540 P   0  0  1  0  0  0  0  0  0  0  0  0
   33.0680   31.0070   46.7710 O   0  0  0  0  0  0  0  0  0  0  0  0
   32.2600   31.1970   47.3070 H   0  0  0  0  0  0  0  0  0  0  0  0
   34.5290   30.7750   49.1430 O   0  0  0  0  0  0  0  0  0  0  0  0
   35.7400   30.5880   49.7720 C   0  0  0  0  0  0  0  0  0  0  0  0
   35.9940   29.5610   50.7080 C   0  0  0  0  0  0  0  0  0  0  0  0
   37.2680   29.4940   51.2640 C   0  0  0  0  0  0  0  0  0  0  0  0
   38.1980   30.4160   50.8790 N   0  0  0  0  0  0  0  0  0  0  0  0
   37.9190   31.3940   49.9730 C   0  0  0  0  0  0  0  0  0  0  0  0
   36.6790   31.4770   49.4180 N   0  0  0  0  0  0  0  0  0  0  0  0
   35.1820   28.8840   50.9390 H   0  0  0  0  0  0  0  0  0  0  0  0
   37.4740   28.7150   51.9780 H   0  0  0  0  0  0  0  0  0  0  0  0
   38.6910   32.0960   49.7060 H   0  0  0  0  0  0  0  0  0  0  0  0
   33.8030   26.0820   44.4220 O   0  0  0  0  0  0  0  0  0  0  0  0
   33.4800   25.0590   43.5390 C   0  0  0  0  0  3  0  0  0  0  0  0
   31.9920   24.8400   43.5220 C   0  0  0  0  0  2  0  0  0  0  0  0
   31.5140   25.1080   42.1320 C   0  0  0  0  0  2  0  0  0  0  0  0
   32.7160   25.2020   41.2320 C   0  0  0  0  0  2  0  0  0  0  0  0
   33.9100   25.3630   42.1290 C   0  0  0  0  0  2  0  0  0  0  0  0
  1  6  1  6  0  0  0
  1 11  1  0  0  0  0
  1  2  1  0  0  0  0
  2  7  1  6  0  0  0
  2  3  1  0  0  0  0
  2 13  1  0  0  0  0
  4  9  1  0  0  0  0
  4  3  1  0  0  0  0
  5 10  1  6  0  0  0
  5  1  1  0  0  0  0
  5  4  1  0  0  0  0
  8  4  1  0  0  0  0
 12 11  1  0  0  0  0
 15 14  2  6  0  0  0
 15 13  1  0  0  0  0
 15 18  1  0  0  0  0
 16 17  1  0  0  0  0
 16 15  1  0  0  0  0
 18 19  1  0  0  0  0
 19 20  1  0  0  0  0
 20 25  1  0  0  0  0
 20 21  2  0  0  0  0
 21 26  1  0  0  0  0
 22 21  1  0  0  0  0
 23 22  2  0  0  0  0
 24 19  2  0  0  0  0
 24 23  1  0  0  0  0
 27 23  1  0  0  0  0
 28  5  1  0  0  0  0
 29 28  1  0  0  0  0
 30 29  1  0  0  0  0
 31 30  1  0  0  0  0
 32 33  1  0  0  0  0
 32 31  1  0  0  0  0
 33 29  1  0  0  0  0
M  END
>  <minimizedAffinity>
-3.84260917

>  <minimizedRMSD>
0.396834522

$$$$
