
 OpenBabel03272510103D

 24 26  0  0  0  0  0  0  0  0999 V2000
   34.8650   28.6920   48.5000 C   0  0  0  0  0  0  0  0  0  0  0  0
   35.7110   28.6540   49.5750 C   0  0  0  0  0  0  0  0  0  0  0  0
   36.7960   29.4870   49.7360 C   0  0  0  0  0  0  0  0  0  0  0  0
   37.0830   30.4240   48.7850 C   0  0  0  0  0  0  0  0  0  0  0  0
   36.2150   30.4590   47.6870 C   0  0  0  0  0  0  0  0  0  0  0  0
   35.1620   29.6220   47.5710 N   0  0  0  0  0  0  0  0  0  0  0  0
   35.5130   27.9210   50.3500 H   0  0  0  0  0  0  0  0  0  0  0  0
   37.4760   29.4710   50.5790 H   0  0  0  0  0  0  0  0  0  0  0  0
   36.3120   31.1490   46.8500 H   0  0  0  0  0  0  0  0  0  0  0  0
   33.7400   26.5970   47.6620 C   0  0  0  0  0  0  0  0  0  0  0  0
   33.7330   27.8070   48.3530 C   0  0  0  0  0  0  0  0  0  0  0  0
   32.5260   28.1870   48.9480 C   0  0  0  0  0  0  0  0  0  0  0  0
   31.4450   27.3520   48.8140 N   0  0  0  0  0  0  0  0  0  0  0  0
   31.5070   26.2010   48.1400 C   0  0  0  0  0  0  0  0  0  0  0  0
   32.6550   25.8190   47.5610 N   0  0  0  0  0  0  0  0  0  0  0  0
   34.6760   26.3340   47.2180 H   0  0  0  0  0  0  0  0  0  0  0  0
   32.3890   29.0930   49.5080 H   0  0  0  0  0  0  0  0  0  0  0  0
   30.5800   25.6450   48.1160 H   0  0  0  0  0  0  0  0  0  0  0  0
   38.1170   31.3480   48.7590 O   0  0  0  0  0  0  0  0  0  0  0  0
   38.0530   32.6380   48.2380 C   0  0  0  0  0  3  0  0  0  0  0  0
   39.3520   32.9890   47.5330 C   0  0  0  0  0  2  0  0  0  0  0  0
   39.9410   34.1390   48.3240 C   0  0  0  0  0  2  0  0  0  0  0  0
   39.3910   33.8560   49.7100 C   0  0  0  0  0  2  0  0  0  0  0  0
   37.9320   33.6300   49.3850 C   0  0  0  0  0  2  0  0  0  0  0  0
  1  2  1  0  0  0  0
  2  3  2  0  0  0  0
  2  7  1  0  0  0  0
  3  8  1  0  0  0  0
  4  3  1  0  0  0  0
  5  4  2  0  0  0  0
  6  5  1  0  0  0  0
  6  1  2  0  0  0  0
  9  5  1  0  0  0  0
 10 11  1  0  0  0  0
 11  1  1  0  0  0  0
 11 12  2  0  0  0  0
 12 17  1  0  0  0  0
 13 12  1  0  0  0  0
 14 13  2  0  0  0  0
 15 10  2  0  0  0  0
 15 14  1  0  0  0  0
 16 10  1  0  0  0  0
 18 14  1  0  0  0  0
 19  4  1  0  0  0  0
 20 19  1  0  0  0  0
 20 24  1  0  0  0  0
 21 20  1  0  0  0  0
 21 22  1  0  0  0  0
 22 23  1  0  0  0  0
 24 23  1  0  0  0  0
M  END
>  <minimizedAffinity>
-5.19890022

>  <minimizedRMSD>
4.1804533

$$$$
