
 OpenBabel03272502263D

 26 28  0  0  0  0  0  0  0  0999 V2000
   36.6250   26.8110   32.1190 C   0  0  0  0  0  0  0  0  0  0  0  0
   37.1680   25.6800   32.7710 C   0  0  0  0  0  0  0  0  0  0  0  0
   37.4300   25.7880   34.1320 C   0  0  0  0  0  0  0  0  0  0  0  0
   37.1470   26.9640   34.7280 N   0  0  0  0  0  0  0  0  0  0  0  0
   36.6270   28.0300   34.0810 C   0  0  0  0  0  0  0  0  0  0  0  0
   36.3670   27.9470   32.7690 N   0  0  0  0  0  0  0  0  0  0  0  0
   36.4150   26.7430   31.0610 H   0  0  0  0  0  0  0  0  0  0  0  0
   37.3820   24.7590   32.2680 H   0  0  0  0  0  0  0  0  0  0  0  0
   37.9900   24.7130   34.9260 C   0  0  0  0  0  0  0  0  0  0  0  0
   38.6390   23.6480   34.3490 C   0  0  0  0  0  0  0  0  0  0  0  0
   39.1840   22.6090   35.0740 C   0  0  0  0  0  0  0  0  0  0  0  0
   39.0760   22.6330   36.4300 N   0  0  0  0  0  0  0  0  0  0  0  0
   38.4440   23.6730   36.9780 C   0  0  0  0  0  0  0  0  0  0  0  0
   37.9130   24.6850   36.2840 N   0  0  0  0  0  0  0  0  0  0  0  0
   38.6990   23.6740   33.2630 H   0  0  0  0  0  0  0  0  0  0  0  0
   39.6860   21.7860   34.6110 H   0  0  0  0  0  0  0  0  0  0  0  0
   38.3110   23.7230   38.4620 C   0  0  0  0  0  0  0  0  0  0  0  0
   37.3350   22.8090   38.8370 F   0  0  0  0  0  0  0  0  0  0  0  0
   39.5290   23.4160   39.0670 F   0  0  0  0  0  0  0  0  0  0  0  0
   37.9150   24.9410   38.9060 F   0  0  0  0  0  0  0  0  0  0  0  0
   36.4110   29.1370   34.8660 O   0  0  0  0  0  0  0  0  0  0  0  0
   35.5430   30.1800   34.6210 C   0  0  0  0  0  3  0  0  0  0  0  0
   35.8130   31.2620   35.6500 C   0  0  0  0  0  2  0  0  0  0  0  0
   34.4720   31.7760   36.1170 C   0  0  0  0  0  2  0  0  0  0  0  0
   33.4910   31.2390   35.0690 C   0  0  0  0  0  2  0  0  0  0  0  0
   34.0960   29.8720   34.8200 C   0  0  0  0  0  2  0  0  0  0  0  0
  1  6  2  0  0  0  0
  1  2  1  0  0  0  0
  2  3  2  0  0  0  0
  3  4  1  0  0  0  0
  3  9  1  0  0  0  0
  5  4  2  0  0  0  0
  5 21  1  0  0  0  0
  6  5  1  0  0  0  0
  7  1  1  0  0  0  0
  8  2  1  0  0  0  0
  9 14  1  0  0  0  0
 10  9  2  0  0  0  0
 10 11  1  0  0  0  0
 11 12  2  0  0  0  0
 12 13  1  0  0  0  0
 13 17  1  0  0  0  0
 14 13  2  0  0  0  0
 15 10  1  0  0  0  0
 16 11  1  0  0  0  0
 17 18  1  0  0  0  0
 17 20  1  0  0  0  0
 17 19  1  0  0  0  0
 22 26  1  0  0  0  0
 22 21  1  0  0  0  0
 22 23  1  0  0  0  0
 23 24  1  0  0  0  0
 25 24  1  0  0  0  0
 26 25  1  0  0  0  0
M  END
>  <minimizedAffinity>
-5.91144514

$$$$

 OpenBabel03272502263D

 26 28  0  0  0  0  0  0  0  0999 V2000
   36.3460   28.5450   34.2460 C   0  0  0  0  0  0  0  0  0  0  0  0
   37.0270   27.6060   35.0530 C   0  0  0  0  0  0  0  0  0  0  0  0
   37.3880   26.3980   34.4670 C   0  0  0  0  0  0  0  0  0  0  0  0
   37.0620   26.2130   33.1720 N   0  0  0  0  0  0  0  0  0  0  0  0
   36.4100   27.1290   32.4220 C   0  0  0  0  0  0  0  0  0  0  0  0
   36.0530   28.3000   32.9670 N   0  0  0  0  0  0  0  0  0  0  0  0
   36.0590   29.4900   34.6860 H   0  0  0  0  0  0  0  0  0  0  0  0
   37.2720   27.7830   36.0810 H   0  0  0  0  0  0  0  0  0  0  0  0
   38.0840   25.3430   35.1760 C   0  0  0  0  0  0  0  0  0  0  0  0
   38.9870   24.5200   34.5460 C   0  0  0  0  0  0  0  0  0  0  0  0
   39.6660   23.5060   35.1910 C   0  0  0  0  0  0  0  0  0  0  0  0
   39.4340   23.3070   36.5160 N   0  0  0  0  0  0  0  0  0  0  0  0
   38.5560   24.1130   37.1150 C   0  0  0  0  0  0  0  0  0  0  0  0
   37.8930   25.0970   36.5000 N   0  0  0  0  0  0  0  0  0  0  0  0
   39.1360   24.7190   33.4880 H   0  0  0  0  0  0  0  0  0  0  0  0
   40.3660   22.8730   34.6870 H   0  0  0  0  0  0  0  0  0  0  0  0
   38.2840   23.9140   38.5680 C   0  0  0  0  0  0  0  0  0  0  0  0
   37.3280   22.9140   38.6920 F   0  0  0  0  0  0  0  0  0  0  0  0
   39.4540   23.5580   39.2350 F   0  0  0  0  0  0  0  0  0  0  0  0
   37.7820   25.0260   39.1580 F   0  0  0  0  0  0  0  0  0  0  0  0
   36.1690   26.7500   31.1230 O   0  0  0  0  0  0  0  0  0  0  0  0
   36.2100   25.4740   30.6030 C   0  0  0  0  0  3  0  0  0  0  0  0
   35.0950   24.6720   31.2480 C   0  0  0  0  0  2  0  0  0  0  0  0
   35.6590   23.3130   31.5820 C   0  0  0  0  0  2  0  0  0  0  0  0
   36.9630   23.2520   30.7780 C   0  0  0  0  0  2  0  0  0  0  0  0
   37.4330   24.6840   30.9330 C   0  0  0  0  0  2  0  0  0  0  0  0
  1  7  1  0  0  0  0
  1  2  1  0  0  0  0
  2  8  1  0  0  0  0
  3  2  2  0  0  0  0
  3  9  1  0  0  0  0
  4  3  1  0  0  0  0
  5  6  1  0  0  0  0
  5  4  2  0  0  0  0
  6  1  2  0  0  0  0
  9 14  1  0  0  0  0
 10  9  2  0  0  0  0
 10 11  1  0  0  0  0
 11 12  2  0  0  0  0
 12 13  1  0  0  0  0
 13 17  1  0  0  0  0
 14 13  2  0  0  0  0
 15 10  1  0  0  0  0
 16 11  1  0  0  0  0
 17 18  1  0  0  0  0
 17 20  1  0  0  0  0
 17 19  1  0  0  0  0
 21  5  1  0  0  0  0
 22 26  1  0  0  0  0
 22 21  1  0  0  0  0
 22 23  1  0  0  0  0
 23 24  1  0  0  0  0
 25 26  1  0  0  0  0
 25 24  1  0  0  0  0
M  END
>  <minimizedAffinity>
-5.75943279

$$$$

 OpenBabel03272502263D

 26 28  0  0  0  0  0  0  0  0999 V2000
   36.9700   27.1730   33.8750 C   0  0  0  0  0  0  0  0  0  0  0  0
   37.3810   26.5250   35.0630 C   0  0  0  0  0  0  0  0  0  0  0  0
   37.9760   25.2740   34.9390 C   0  0  0  0  0  0  0  0  0  0  0  0
   38.1170   24.7740   33.6950 N   0  0  0  0  0  0  0  0  0  0  0  0
   37.7150   25.4150   32.5750 C   0  0  0  0  0  0  0  0  0  0  0  0
   37.1390   26.6200   32.6720 N   0  0  0  0  0  0  0  0  0  0  0  0
   36.5050   28.1460   33.9540 H   0  0  0  0  0  0  0  0  0  0  0  0
   37.2540   26.9500   36.0370 H   0  0  0  0  0  0  0  0  0  0  0  0
   38.4400   24.4960   36.0690 C   0  0  0  0  0  0  0  0  0  0  0  0
   37.7580   24.4710   37.2620 C   0  0  0  0  0  0  0  0  0  0  0  0
   38.1720   23.7410   38.3560 C   0  0  0  0  0  0  0  0  0  0  0  0
   39.3120   23.0060   38.2560 N   0  0  0  0  0  0  0  0  0  0  0  0
   39.9640   23.0380   37.0930 C   0  0  0  0  0  0  0  0  0  0  0  0
   39.5720   23.7420   36.0270 N   0  0  0  0  0  0  0  0  0  0  0  0
   36.8540   25.0750   37.2910 H   0  0  0  0  0  0  0  0  0  0  0  0
   37.6310   23.7320   39.2790 H   0  0  0  0  0  0  0  0  0  0  0  0
   41.2180   22.2410   36.9580 C   0  0  0  0  0  0  0  0  0  0  0  0
   41.1490   21.5320   35.7660 F   0  0  0  0  0  0  0  0  0  0  0  0
   42.3290   23.0820   36.9650 F   0  0  0  0  0  0  0  0  0  0  0  0
   41.3660   21.3370   37.9560 F   0  0  0  0  0  0  0  0  0  0  0  0
   37.9470   24.7360   31.4030 O   0  0  0  0  0  0  0  0  0  0  0  0
   37.2180   23.6860   30.8870 C   0  0  0  0  0  3  0  0  0  0  0  0
   35.8310   23.7350   31.5000 C   0  0  0  0  0  2  0  0  0  0  0  0
   35.4490   22.3180   31.8530 C   0  0  0  0  0  2  0  0  0  0  0  0
   36.4670   21.4650   31.0880 C   0  0  0  0  0  2  0  0  0  0  0  0
   37.7050   22.3230   31.2550 C   0  0  0  0  0  2  0  0  0  0  0  0
  1  7  1  0  0  0  0
  1  2  1  0  0  0  0
  2  8  1  0  0  0  0
  3  2  2  0  0  0  0
  3  9  1  0  0  0  0
  4  3  1  0  0  0  0
  5  6  1  0  0  0  0
  5  4  2  0  0  0  0
  6  1  2  0  0  0  0
  9 10  1  0  0  0  0
 10 15  1  0  0  0  0
 10 11  2  0  0  0  0
 11 16  1  0  0  0  0
 12 11  1  0  0  0  0
 13 12  2  0  0  0  0
 14  9  2  0  0  0  0
 14 13  1  0  0  0  0
 17 19  1  0  0  0  0
 17 13  1  0  0  0  0
 17 20  1  0  0  0  0
 18 17  1  0  0  0  0
 21  5  1  0  0  0  0
 22 26  1  0  0  0  0
 22 21  1  0  0  0  0
 22 23  1  0  0  0  0
 23 24  1  0  0  0  0
 25 26  1  0  0  0  0
 25 24  1  0  0  0  0
M  END
>  <minimizedAffinity>
-5.68439436

$$$$

 OpenBabel03272502263D

 26 28  0  0  0  0  0  0  0  0999 V2000
   37.0200   28.0950   31.9390 C   0  0  0  0  0  0  0  0  0  0  0  0
   37.7790   27.0420   32.4980 C   0  0  0  0  0  0  0  0  0  0  0  0
   37.6490   26.8110   33.8630 C   0  0  0  0  0  0  0  0  0  0  0  0
   36.8080   27.6090   34.5510 N   0  0  0  0  0  0  0  0  0  0  0  0
   36.0920   28.6100   33.9900 C   0  0  0  0  0  0  0  0  0  0  0  0
   36.2030   28.8490   32.6770 N   0  0  0  0  0  0  0  0  0  0  0  0
   37.1090   28.2870   30.8780 H   0  0  0  0  0  0  0  0  0  0  0  0
   38.4400   26.4250   31.9230 H   0  0  0  0  0  0  0  0  0  0  0  0
   38.3690   25.7710   34.5700 C   0  0  0  0  0  0  0  0  0  0  0  0
   39.4570   25.1390   34.0170 C   0  0  0  0  0  0  0  0  0  0  0  0
   40.1650   24.1460   34.6620 C   0  0  0  0  0  0  0  0  0  0  0  0
   39.7710   23.7690   35.9080 N   0  0  0  0  0  0  0  0  0  0  0  0
   38.7130   24.3910   36.4330 C   0  0  0  0  0  0  0  0  0  0  0  0
   38.0210   25.3540   35.8160 N   0  0  0  0  0  0  0  0  0  0  0  0
   39.7320   25.4760   33.0200 H   0  0  0  0  0  0  0  0  0  0  0  0
   41.0100   23.6620   34.2180 H   0  0  0  0  0  0  0  0  0  0  0  0
   38.2610   23.9950   37.7980 C   0  0  0  0  0  0  0  0  0  0  0  0
   39.2900   23.2850   38.4020 F   0  0  0  0  0  0  0  0  0  0  0  0
   37.9380   25.1240   38.5470 F   0  0  0  0  0  0  0  0  0  0  0  0
   37.1750   23.1840   37.7680 F   0  0  0  0  0  0  0  0  0  0  0  0
   35.2930   29.3100   34.8620 O   0  0  0  0  0  0  0  0  0  0  0  0
   35.0010   30.6570   34.8320 C   0  0  0  0  0  3  0  0  0  0  0  0
   36.0100   31.3720   35.7120 C   0  0  0  0  0  2  0  0  0  0  0  0
   35.2510   32.4020   36.5120 C   0  0  0  0  0  2  0  0  0  0  0  0
   33.9010   32.5010   35.7930 C   0  0  0  0  0  2  0  0  0  0  0  0
   33.6900   31.0440   35.4300 C   0  0  0  0  0  2  0  0  0  0  0  0
  1  2  2  0  0  0  0
  1  6  1  0  0  0  0
  2  3  1  0  0  0  0
  3  4  2  0  0  0  0
  3  9  1  0  0  0  0
  5  4  1  0  0  0  0
  5 21  1  0  0  0  0
  6  5  2  0  0  0  0
  7  1  1  0  0  0  0
  8  2  1  0  0  0  0
  9 14  1  0  0  0  0
 10  9  2  0  0  0  0
 10 11  1  0  0  0  0
 11 12  2  0  0  0  0
 12 13  1  0  0  0  0
 13 17  1  0  0  0  0
 14 13  2  0  0  0  0
 15 10  1  0  0  0  0
 16 11  1  0  0  0  0
 17 18  1  0  0  0  0
 17 19  1  0  0  0  0
 20 17  1  0  0  0  0
 22 21  1  0  0  0  0
 22 26  1  0  0  0  0
 22 23  1  0  0  0  0
 23 24  1  0  0  0  0
 25 24  1  0  0  0  0
 26 25  1  0  0  0  0
M  END
>  <minimizedAffinity>
-5.57765102

$$$$

 OpenBabel03272502263D

 26 28  0  0  0  0  0  0  0  0999 V2000
   36.7430   25.2080   31.9210 C   0  0  0  0  0  0  0  0  0  0  0  0
   37.5740   25.1370   33.0620 C   0  0  0  0  0  0  0  0  0  0  0  0
   37.7960   23.8810   33.6180 C   0  0  0  0  0  0  0  0  0  0  0  0
   37.2010   22.8260   33.0260 N   0  0  0  0  0  0  0  0  0  0  0  0
   36.4100   22.9230   31.9340 C   0  0  0  0  0  0  0  0  0  0  0  0
   36.1840   24.1230   31.3830 N   0  0  0  0  0  0  0  0  0  0  0  0
   36.5610   26.1770   31.4770 H   0  0  0  0  0  0  0  0  0  0  0  0
   38.0320   25.9960   33.5100 H   0  0  0  0  0  0  0  0  0  0  0  0
   38.6200   23.6600   34.7880 C   0  0  0  0  0  0  0  0  0  0  0  0
   39.9370   23.2800   34.6870 C   0  0  0  0  0  0  0  0  0  0  0  0
   40.7490   23.0610   35.7810 C   0  0  0  0  0  0  0  0  0  0  0  0
   40.2260   23.2290   37.0250 N   0  0  0  0  0  0  0  0  0  0  0  0
   38.9470   23.5980   37.1090 C   0  0  0  0  0  0  0  0  0  0  0  0
   38.1520   23.8130   36.0560 N   0  0  0  0  0  0  0  0  0  0  0  0
   40.3070   23.1580   33.6720 H   0  0  0  0  0  0  0  0  0  0  0  0
   41.7720   22.7640   35.6860 H   0  0  0  0  0  0  0  0  0  0  0  0
   38.3490   23.7880   38.4630 C   0  0  0  0  0  0  0  0  0  0  0  0
   37.9160   25.1030   38.5600 F   0  0  0  0  0  0  0  0  0  0  0  0
   37.2860   22.9070   38.6500 F   0  0  0  0  0  0  0  0  0  0  0  0
   39.2460   23.5850   39.4580 F   0  0  0  0  0  0  0  0  0  0  0  0
   35.8970   21.7310   31.4820 O   0  0  0  0  0  0  0  0  0  0  0  0
   36.0220   20.4900   32.0700 C   0  0  0  0  0  3  0  0  0  0  0  0
   36.9760   19.6670   31.2250 C   0  0  0  0  0  2  0  0  0  0  0  0
   36.3920   18.2800   31.1160 C   0  0  0  0  0  2  0  0  0  0  0  0
   35.3200   18.2490   32.2120 C   0  0  0  0  0  2  0  0  0  0  0  0
   34.7810   19.6600   32.0910 C   0  0  0  0  0  2  0  0  0  0  0  0
  1  2  1  0  0  0  0
  2  8  1  0  0  0  0
  2  3  2  0  0  0  0
  3  9  1  0  0  0  0
  4  3  1  0  0  0  0
  5  4  2  0  0  0  0
  6  1  2  0  0  0  0
  6  5  1  0  0  0  0
  7  1  1  0  0  0  0
  9 14  1  0  0  0  0
 10  9  2  0  0  0  0
 10 11  1  0  0  0  0
 11 12  2  0  0  0  0
 12 13  1  0  0  0  0
 13 17  1  0  0  0  0
 14 13  2  0  0  0  0
 15 10  1  0  0  0  0
 16 11  1  0  0  0  0
 17 18  1  0  0  0  0
 17 19  1  0  0  0  0
 17 20  1  0  0  0  0
 21  5  1  0  0  0  0
 21 22  1  0  0  0  0
 22 26  1  0  0  0  0
 23 22  1  0  0  0  0
 24 23  1  0  0  0  0
 24 25  1  0  0  0  0
 26 25  1  0  0  0  0
M  END
>  <minimizedAffinity>
-5.57044268

$$$$

 OpenBabel03272502263D

 26 28  0  0  0  0  0  0  0  0999 V2000
   36.6250   22.5960   31.7670 C   0  0  0  0  0  0  0  0  0  0  0  0
   37.2970   22.2200   32.9520 C   0  0  0  0  0  0  0  0  0  0  0  0
   37.9330   23.2230   33.6750 C   0  0  0  0  0  0  0  0  0  0  0  0
   37.8620   24.4790   33.1900 N   0  0  0  0  0  0  0  0  0  0  0  0
   37.2120   24.8120   32.0530 C   0  0  0  0  0  0  0  0  0  0  0  0
   36.5920   23.8600   31.3410 N   0  0  0  0  0  0  0  0  0  0  0  0
   36.1250   21.8280   31.1930 H   0  0  0  0  0  0  0  0  0  0  0  0
   37.3350   21.2110   33.3110 H   0  0  0  0  0  0  0  0  0  0  0  0
   38.6630   22.9830   34.9030 C   0  0  0  0  0  0  0  0  0  0  0  0
   39.8580   22.3050   34.9160 C   0  0  0  0  0  0  0  0  0  0  0  0
   40.5780   22.0590   36.0670 C   0  0  0  0  0  0  0  0  0  0  0  0
   40.0840   22.5070   37.2520 N   0  0  0  0  0  0  0  0  0  0  0  0
   38.9230   23.1630   37.2260 C   0  0  0  0  0  0  0  0  0  0  0  0
   38.2190   23.4070   36.1170 N   0  0  0  0  0  0  0  0  0  0  0  0
   40.2100   21.9670   33.9440 H   0  0  0  0  0  0  0  0  0  0  0  0
   41.5070   21.5290   36.0610 H   0  0  0  0  0  0  0  0  0  0  0  0
   38.3600   23.6640   38.5140 C   0  0  0  0  0  0  0  0  0  0  0  0
   37.9040   24.9590   38.3070 F   0  0  0  0  0  0  0  0  0  0  0  0
   37.3210   22.8400   38.9400 F   0  0  0  0  0  0  0  0  0  0  0  0
   39.2890   23.7170   39.4990 F   0  0  0  0  0  0  0  0  0  0  0  0
   37.2570   26.1460   31.7280 O   0  0  0  0  0  0  0  0  0  0  0  0
   36.3220   27.1120   32.0310 C   0  0  0  0  0  3  0  0  0  0  0  0
   36.3300   28.1370   30.9120 C   0  0  0  0  0  2  0  0  0  0  0  0
   36.2530   29.5000   31.5560 C   0  0  0  0  0  2  0  0  0  0  0  0
   35.8230   29.1990   32.9970 C   0  0  0  0  0  2  0  0  0  0  0  0
   36.6130   27.9300   33.2460 C   0  0  0  0  0  2  0  0  0  0  0  0
  1  2  1  0  0  0  0
  2  8  1  0  0  0  0
  2  3  2  0  0  0  0
  3  9  1  0  0  0  0
  4  3  1  0  0  0  0
  5  4  2  0  0  0  0
  6  1  2  0  0  0  0
  6  5  1  0  0  0  0
  7  1  1  0  0  0  0
  9 10  2  0  0  0  0
  9 14  1  0  0  0  0
 10 11  1  0  0  0  0
 11 12  2  0  0  0  0
 13 12  1  0  0  0  0
 13 17  1  0  0  0  0
 14 13  2  0  0  0  0
 15 10  1  0  0  0  0
 16 11  1  0  0  0  0
 17 19  1  0  0  0  0
 17 20  1  0  0  0  0
 18 17  1  0  0  0  0
 21 22  1  0  0  0  0
 21  5  1  0  0  0  0
 22 26  1  0  0  0  0
 23 24  1  0  0  0  0
 23 22  1  0  0  0  0
 24 25  1  0  0  0  0
 25 26  1  0  0  0  0
M  END
>  <minimizedAffinity>
-5.55622387

$$$$

 OpenBabel03272502263D

 26 28  0  0  0  0  0  0  0  0999 V2000
   37.5370   26.6060   32.4900 C   0  0  0  0  0  0  0  0  0  0  0  0
   36.6760   27.7240   32.5830 C   0  0  0  0  0  0  0  0  0  0  0  0
   36.3240   28.1590   33.8560 C   0  0  0  0  0  0  0  0  0  0  0  0
   36.8310   27.4820   34.9060 N   0  0  0  0  0  0  0  0  0  0  0  0
   37.6530   26.4160   34.7890 C   0  0  0  0  0  0  0  0  0  0  0  0
   38.0040   25.9800   33.5720 N   0  0  0  0  0  0  0  0  0  0  0  0
   37.8200   26.2550   31.5080 H   0  0  0  0  0  0  0  0  0  0  0  0
   36.2900   28.2400   31.7280 H   0  0  0  0  0  0  0  0  0  0  0  0
   35.4480   29.2860   34.1010 C   0  0  0  0  0  0  0  0  0  0  0  0
   34.2110   29.3840   33.5100 C   0  0  0  0  0  0  0  0  0  0  0  0
   33.3520   30.4430   33.7210 C   0  0  0  0  0  0  0  0  0  0  0  0
   33.7430   31.4430   34.5560 N   0  0  0  0  0  0  0  0  0  0  0  0
   34.9460   31.3350   35.1230 C   0  0  0  0  0  0  0  0  0  0  0  0
   35.7850   30.3140   34.9250 N   0  0  0  0  0  0  0  0  0  0  0  0
   33.9450   28.5610   32.8510 H   0  0  0  0  0  0  0  0  0  0  0  0
   32.3920   30.5060   33.2530 H   0  0  0  0  0  0  0  0  0  0  0  0
   35.3990   32.4190   36.0420 C   0  0  0  0  0  0  0  0  0  0  0  0
   36.7740   32.5510   35.9050 F   0  0  0  0  0  0  0  0  0  0  0  0
   34.7580   33.6170   35.7300 F   0  0  0  0  0  0  0  0  0  0  0  0
   35.1490   32.1340   37.3430 F   0  0  0  0  0  0  0  0  0  0  0  0
   38.0600   25.8630   35.9800 O   0  0  0  0  0  0  0  0  0  0  0  0
   38.1500   24.5240   36.2930 C   0  0  0  0  0  3  0  0  0  0  0  0
   37.8920   24.3750   37.7810 C   0  0  0  0  0  2  0  0  0  0  0  0
   38.9000   23.3830   38.3100 C   0  0  0  0  0  2  0  0  0  0  0  0
   39.4530   22.7150   37.0460 C   0  0  0  0  0  2  0  0  0  0  0  0
   39.5010   23.9120   36.1170 C   0  0  0  0  0  2  0  0  0  0  0  0
  1  2  2  0  0  0  0
  1  6  1  0  0  0  0
  2  3  1  0  0  0  0
  3  9  1  0  0  0  0
  3  4  2  0  0  0  0
  5  4  1  0  0  0  0
  5 21  1  0  0  0  0
  6  5  2  0  0  0  0
  7  1  1  0  0  0  0
  8  2  1  0  0  0  0
  9 14  1  0  0  0  0
 10 11  1  0  0  0  0
 10  9  2  0  0  0  0
 11 12  2  0  0  0  0
 12 13  1  0  0  0  0
 13 17  1  0  0  0  0
 14 13  2  0  0  0  0
 15 10  1  0  0  0  0
 16 11  1  0  0  0  0
 17 20  1  0  0  0  0
 18 17  1  0  0  0  0
 19 17  1  0  0  0  0
 21 22  1  0  0  0  0
 22 23  1  0  0  0  0
 23 24  1  0  0  0  0
 25 24  1  0  0  0  0
 26 22  1  0  0  0  0
 26 25  1  0  0  0  0
M  END
>  <minimizedAffinity>
-5.52368593

$$$$

 OpenBabel03272502263D

 26 28  0  0  0  0  0  0  0  0999 V2000
   36.3220   29.8810   31.3050 C   0  0  0  0  0  0  0  0  0  0  0  0
   35.7990   30.6810   32.3460 C   0  0  0  0  0  0  0  0  0  0  0  0
   35.6390   30.0880   33.5940 C   0  0  0  0  0  0  0  0  0  0  0  0
   35.9950   28.7930   33.7160 N   0  0  0  0  0  0  0  0  0  0  0  0
   36.4940   28.0500   32.7030 C   0  0  0  0  0  0  0  0  0  0  0  0
   36.6560   28.6020   31.4930 N   0  0  0  0  0  0  0  0  0  0  0  0
   36.4530   30.3270   30.3290 H   0  0  0  0  0  0  0  0  0  0  0  0
   35.5250   31.7080   32.2160 H   0  0  0  0  0  0  0  0  0  0  0  0
   35.1110   30.7850   34.7480 C   0  0  0  0  0  0  0  0  0  0  0  0
   35.8220   31.7740   35.3860 C   0  0  0  0  0  0  0  0  0  0  0  0
   35.3480   32.4570   36.4870 C   0  0  0  0  0  0  0  0  0  0  0  0
   34.1170   32.1420   36.9700 N   0  0  0  0  0  0  0  0  0  0  0  0
   33.4370   31.1810   36.3420 C   0  0  0  0  0  0  0  0  0  0  0  0
   33.8870   30.5130   35.2750 N   0  0  0  0  0  0  0  0  0  0  0  0
   36.8000   31.9880   34.9620 H   0  0  0  0  0  0  0  0  0  0  0  0
   35.9140   33.2240   36.9730 H   0  0  0  0  0  0  0  0  0  0  0  0
   32.0850   30.8160   36.8530 C   0  0  0  0  0  0  0  0  0  0  0  0
   32.2520   30.0480   37.9980 F   0  0  0  0  0  0  0  0  0  0  0  0
   31.3480   31.9640   37.1360 F   0  0  0  0  0  0  0  0  0  0  0  0
   31.3810   30.0700   35.9670 F   0  0  0  0  0  0  0  0  0  0  0  0
   36.7940   26.7500   33.0310 O   0  0  0  0  0  0  0  0  0  0  0  0
   37.8600   26.3020   33.7830 C   0  0  0  0  0  3  0  0  0  0  0  0
   37.5020   26.4730   35.2470 C   0  0  0  0  0  2  0  0  0  0  0  0
   38.7250   27.0160   35.9440 C   0  0  0  0  0  2  0  0  0  0  0  0
   39.8540   26.7810   34.9340 C   0  0  0  0  0  2  0  0  0  0  0  0
   39.1200   27.0890   33.6450 C   0  0  0  0  0  2  0  0  0  0  0  0
  1  6  2  0  0  0  0
  1  2  1  0  0  0  0
  2  3  2  0  0  0  0
  3  4  1  0  0  0  0
  3  9  1  0  0  0  0
  5 21  1  0  0  0  0
  5  4  2  0  0  0  0
  6  5  1  0  0  0  0
  7  1  1  0  0  0  0
  8  2  1  0  0  0  0
  9 14  2  0  0  0  0
  9 10  1  0  0  0  0
 10 11  2  0  0  0  0
 11 12  1  0  0  0  0
 11 16  1  0  0  0  0
 13 17  1  0  0  0  0
 13 12  2  0  0  0  0
 14 13  1  0  0  0  0
 15 10  1  0  0  0  0
 17 19  1  0  0  0  0
 17 18  1  0  0  0  0
 20 17  1  0  0  0  0
 21 22  1  0  0  0  0
 22 23  1  0  0  0  0
 23 24  1  0  0  0  0
 25 24  1  0  0  0  0
 26 22  1  0  0  0  0
 26 25  1  0  0  0  0
M  END
>  <minimizedAffinity>
-5.47906637

$$$$

 OpenBabel03272502263D

 26 28  0  0  0  0  0  0  0  0999 V2000
   36.3520   28.4360   34.1130 C   0  0  0  0  0  0  0  0  0  0  0  0
   36.7850   27.3400   34.8930 C   0  0  0  0  0  0  0  0  0  0  0  0
   37.5050   26.3390   34.2490 C   0  0  0  0  0  0  0  0  0  0  0  0
   37.7360   26.4900   32.9290 N   0  0  0  0  0  0  0  0  0  0  0  0
   37.3100   27.5500   32.2070 C   0  0  0  0  0  0  0  0  0  0  0  0
   36.6140   28.5250   32.8070 N   0  0  0  0  0  0  0  0  0  0  0  0
   35.7910   29.2230   34.5990 H   0  0  0  0  0  0  0  0  0  0  0  0
   36.5850   27.2490   35.9410 H   0  0  0  0  0  0  0  0  0  0  0  0
   38.0060   25.1570   34.9210 C   0  0  0  0  0  0  0  0  0  0  0  0
   38.5790   24.1180   34.2280 C   0  0  0  0  0  0  0  0  0  0  0  0
   39.0660   22.9790   34.8370 C   0  0  0  0  0  0  0  0  0  0  0  0
   38.9780   22.8750   36.1900 N   0  0  0  0  0  0  0  0  0  0  0  0
   38.4200   23.8910   36.8500 C   0  0  0  0  0  0  0  0  0  0  0  0
   37.9450   24.9980   36.2700 N   0  0  0  0  0  0  0  0  0  0  0  0
   38.6260   24.2490   33.1500 H   0  0  0  0  0  0  0  0  0  0  0  0
   39.5090   22.1770   34.2840 H   0  0  0  0  0  0  0  0  0  0  0  0
   38.3100   23.8000   38.3350 C   0  0  0  0  0  0  0  0  0  0  0  0
   39.5250   23.3420   38.8270 F   0  0  0  0  0  0  0  0  0  0  0  0
   38.0010   25.0480   38.8740 F   0  0  0  0  0  0  0  0  0  0  0  0
   37.3580   22.9220   38.7300 F   0  0  0  0  0  0  0  0  0  0  0  0
   37.6450   27.5180   30.8750 O   0  0  0  0  0  0  0  0  0  0  0  0
   38.5180   28.3540   30.2120 C   0  0  0  0  0  3  0  0  0  0  0  0
   37.9290   28.6540   28.8460 C   0  0  0  0  0  2  0  0  0  0  0  0
   39.0590   28.5780   27.8470 C   0  0  0  0  0  2  0  0  0  0  0  0
   40.3190   28.6100   28.7190 C   0  0  0  0  0  2  0  0  0  0  0  0
   39.8510   27.7650   29.8870 C   0  0  0  0  0  2  0  0  0  0  0  0
  1  7  1  0  0  0  0
  1  2  1  0  0  0  0
  2  8  1  0  0  0  0
  3  2  2  0  0  0  0
  3  9  1  0  0  0  0
  4  3  1  0  0  0  0
  5  6  1  0  0  0  0
  5  4  2  0  0  0  0
  6  1  2  0  0  0  0
  9 14  1  0  0  0  0
 10 11  1  0  0  0  0
 10  9  2  0  0  0  0
 11 12  2  0  0  0  0
 12 13  1  0  0  0  0
 13 17  1  0  0  0  0
 14 13  2  0  0  0  0
 15 10  1  0  0  0  0
 16 11  1  0  0  0  0
 17 20  1  0  0  0  0
 17 18  1  0  0  0  0
 17 19  1  0  0  0  0
 21  5  1  0  0  0  0
 22 21  1  0  0  0  0
 23 22  1  0  0  0  0
 24 25  1  0  0  0  0
 24 23  1  0  0  0  0
 25 26  1  0  0  0  0
 26 22  1  0  0  0  0
M  END
>  <minimizedAffinity>
-5.33661985

$$$$
