
     RDKit          3D

 37 39  0  0  0  0  0  0  0  0999 V2000
   38.4562   30.4478   47.3092 F   0  0  0  0  0  0  0  0  0  0  0  0
   38.7532   31.6804   47.7963 C   0  0  0  0  0  0  0  0  0  0  0  0
   38.2407   32.0896   48.9928 C   0  0  0  0  0  0  0  0  0  0  0  0
   38.5801   33.3426   49.4245 C   0  0  0  0  0  0  0  0  0  0  0  0
   39.3975   34.1712   48.7057 C   0  0  0  0  0  0  0  0  0  0  0  0
   39.9079   33.7383   47.4938 C   0  0  0  0  0  0  0  0  0  0  0  0
   39.5777   32.4772   47.0401 C   0  0  0  0  0  0  0  0  0  0  0  0
   36.9195   29.5954   51.5259 C   0  0  0  0  0  0  0  0  0  0  0  0
   37.7775   30.4851   50.8553 C   0  0  0  0  0  0  0  0  0  0  0  0
   37.3681   31.1525   49.7179 C   0  0  0  0  0  0  0  0  0  0  0  0
   36.1046   30.9048   49.2874 N   0  0  0  0  0  0  0  0  0  0  0  0
   35.2892   30.0482   49.9394 C   0  0  0  0  0  0  0  0  0  0  0  0
   35.6837   29.4103   51.0285 N   0  0  0  0  0  0  0  0  0  0  0  0
   39.1888   32.1662   44.6864 C   0  0  0  0  0  0  0  0  0  0  0  0
   38.0747   32.7001   44.9826 O   0  0  0  0  0  0  0  0  0  0  0  0
   40.0886   31.9932   45.7860 N   0  0  0  0  0  0  0  0  0  0  0  0
   38.1765   33.6737   50.3740 H   0  0  0  0  0  0  0  0  0  0  0  0
   39.6603   35.1631   49.0573 H   0  0  0  0  0  0  0  0  0  0  0  0
   40.5672   34.3524   46.8705 H   0  0  0  0  0  0  0  0  0  0  0  0
   37.3199   29.1145   52.4090 H   0  0  0  0  0  0  0  0  0  0  0  0
   38.7798   30.6667   51.2168 H   0  0  0  0  0  0  0  0  0  0  0  0
   34.2980   29.9324   49.4969 H   0  0  0  0  0  0  0  0  0  0  0  0
   41.0123   31.5545   45.6429 H   0  0  0  0  0  0  0  0  0  0  0  0
   39.6697   31.7042   43.3583 C   0  0  0  0  0  0  0  0  0  0  0  0
   38.8453   32.2333   42.2295 C   0  0  0  0  0  0  0  0  0  0  0  0
   38.2901   31.0183   41.4915 C   0  0  0  0  0  0  0  0  0  0  0  0
   39.2380   29.8932   41.8679 C   0  0  0  0  0  0  0  0  0  0  0  0
   39.5070   30.2096   43.3174 C   0  0  0  0  0  0  0  0  0  0  0  0
   40.7527   32.0077   43.2722 H   0  0  0  0  0  0  0  0  0  0  0  0
   38.0294   32.9083   42.5577 H   0  0  0  0  0  0  0  0  0  0  0  0
   39.5015   32.8022   41.5484 H   0  0  0  0  0  0  0  0  0  0  0  0
   38.1807   31.1716   40.4186 H   0  0  0  0  0  0  0  0  0  0  0  0
   37.3013   30.7518   41.9482 H   0  0  0  0  0  0  0  0  0  0  0  0
   38.6961   28.9094   41.8598 H   0  0  0  0  0  0  0  0  0  0  0  0
   40.1390   29.8403   41.2552 H   0  0  0  0  0  0  0  0  0  0  0  0
   40.3357   29.6521   43.7528 H   0  0  0  0  0  0  0  0  0  0  0  0
   38.5673   29.9881   43.8728 H   0  0  0  0  0  0  0  0  0  0  0  0
  1  2  1  0
  2  3  2  0
  3  4  1  0
  3 10  1  0
  5  4  2  0
  6  5  1  0
  7  6  2  0
  7  2  1  0
  9  8  2  0
 10  9  1  0
 11 10  2  0
 11 12  1  0
 12 13  2  0
 13  8  1  0
 14 15  2  0
 14 16  1  0
 16  7  1  0
  4 17  1  0
  5 18  1  0
  6 19  1  0
  8 20  1  0
  9 21  1  0
 12 22  1  0
 16 23  1  0
 24 25  1  0
 25 26  1  0
 26 27  1  0
 27 28  1  0
 28 24  1  0
 24 29  1  0
 25 30  1  0
 25 31  1  0
 26 32  1  0
 26 33  1  0
 27 34  1  0
 27 35  1  0
 28 36  1  0
 28 37  1  0
 14 24  1  0
M  ISO  6  17  14  18  14  19  14  20  14  21  14  22  14
M  END
>  <DihAtoms>  (1) 
14,13,23,24

>  <DihDeg>  (1) 
-0.0020061507635978147

$$$$
