
 OpenBabel03272500583D

 31 33  0  0  0  0  0  0  0  0999 V2000
   38.2230   31.9140   47.3950 C   0  0  0  0  0  0  0  0  0  0  0  0
   38.8090   32.7550   48.2960 C   0  0  0  0  0  0  0  0  0  0  0  0
   38.3890   32.8360   49.6190 C   0  0  0  0  0  0  0  0  0  0  0  0
   37.2890   31.9870   50.0330 C   0  0  0  0  0  0  0  0  0  0  0  0
   36.7520   31.1760   49.0880 C   0  0  0  0  0  0  0  0  0  0  0  0
   37.1600   31.1030   47.8110 C   0  0  0  0  0  0  0  0  0  0  0  0
   39.6470   33.4140   48.0200 H   0  0  0  0  0  0  0  0  0  0  0  0
   38.9020   33.5350   50.2950 H   0  0  0  0  0  0  0  0  0  0  0  0
   37.0770   32.1570   51.0700 H   0  0  0  0  0  0  0  0  0  0  0  0
   35.9840   30.6260   49.6100 H   0  0  0  0  0  0  0  0  0  0  0  0
   40.0270   31.2500   45.8810 C   0  0  0  0  0  0  0  0  0  0  0  0
   38.7890   31.9230   46.0620 C   0  0  0  0  0  0  0  0  0  0  0  0
   38.2760   32.4970   44.9270 C   0  0  0  0  0  0  0  0  0  0  0  0
   38.9300   32.4030   43.7560 N   0  0  0  0  0  0  0  0  0  0  0  0
   40.0750   31.7770   43.6040 C   0  0  0  0  0  0  0  0  0  0  0  0
   40.6140   31.2050   44.6680 N   0  0  0  0  0  0  0  0  0  0  0  0
   40.4810   30.7820   46.7220 H   0  0  0  0  0  0  0  0  0  0  0  0
   37.3300   33.0110   45.0670 H   0  0  0  0  0  0  0  0  0  0  0  0
   40.5930   31.7070   42.6550 H   0  0  0  0  0  0  0  0  0  0  0  0
   35.1400   30.0690   47.1910 C   0  0  0  0  0  0  0  0  0  0  0  0
   34.6450   30.6240   48.2510 O   0  0  0  0  0  0  0  0  0  0  0  0
   36.5470   30.2750   46.9070 N   0  0  0  0  0  0  0  0  0  0  0  0
   37.0210   29.8400   46.1120 H   0  0  0  0  0  0  0  0  0  0  0  0
   34.3270   29.3120   46.3900 O   0  0  0  0  0  0  0  0  0  0  0  0
   32.9380   29.3460   46.4160 C   0  0  0  0  0  0  0  0  0  0  0  0
   32.2600   30.4040   46.0230 O   0  0  0  0  0  0  0  0  0  0  0  0
   32.1080   28.1950   46.8630 C   0  0  0  0  0  3  0  0  0  0  0  0
   32.3350   27.8840   48.3290 C   0  0  0  0  0  2  0  0  0  0  0  0
   31.0360   27.2740   48.8120 C   0  0  0  0  0  2  0  0  0  0  0  0
   30.1080   27.2840   47.5980 C   0  0  0  0  0  2  0  0  0  0  0  0
   30.6400   28.5320   46.8810 C   0  0  0  0  0  2  0  0  0  0  0  0
  1  6  2  0  0  0  0
  1  2  1  0  0  0  0
  2  3  2  0  0  0  0
  3  4  1  0  0  0  0
  3  8  1  0  0  0  0
  4  9  1  0  0  0  0
  5 10  1  0  0  0  0
  5  4  2  0  0  0  0
  6  5  1  0  0  0  0
  7  2  1  0  0  0  0
 11 12  1  0  0  0  0
 11 17  1  0  0  0  0
 12  1  1  0  0  0  0
 13 18  1  0  0  0  0
 13 12  2  0  0  0  0
 14 13  1  0  0  0  0
 15 14  2  0  0  0  0
 15 16  1  0  0  0  0
 16 11  2  0  0  0  0
 19 15  1  0  0  0  0
 20 21  2  0  0  0  0
 22 20  1  0  0  0  0
 22  6  1  0  0  0  0
 23 22  1  0  0  0  0
 24 25  1  0  0  0  0
 24 20  1  0  0  0  0
 25 27  1  0  0  0  0
 26 25  2  0  0  0  0
 27 31  1  0  0  0  0
 27 28  1  0  0  0  0
 28 29  1  0  0  0  0
 30 29  1  0  0  0  0
 31 30  1  0  0  0  0
M  END
>  <minimizedAffinity>
-5.94959211

>  <minimizedRMSD>
1.41016591

$$$$
