
 OpenBabel03262523413D

 34 36  0  0  1  0  0  0  0  0999 V2000
   38.4180   26.9000   36.1570 C   0  0  0  0  0  0  0  0  0  0  0  0
   38.0040   27.5930   35.0200 C   0  0  0  0  0  0  0  0  0  0  0  0
   37.5880   26.9600   33.8670 C   0  0  0  0  0  0  0  0  0  0  0  0
   37.6170   25.6120   33.9380 N   0  0  0  0  0  0  0  0  0  0  0  0
   38.0040   24.8930   35.0000 C   0  0  0  0  0  0  0  0  0  0  0  0
   38.4050   25.5480   36.1100 N   0  0  0  0  0  0  0  0  0  0  0  0
   37.1790   27.6840   32.7430 N   0  0  0  0  0  0  0  0  0  0  0  0
   38.0860   27.7230   31.6350 C   0  0  0  0  0  0  0  0  0  0  0  0
   37.5290   28.3230   30.3850 C   0  0  0  0  0  0  0  0  0  0  0  0
   36.2160   28.7750   30.3910 N   0  0  0  0  0  0  0  0  0  0  0  0
   35.6330   29.2260   31.5990 C   0  0  0  0  0  0  0  0  0  0  0  0
   35.8890   28.3310   32.7690 C   0  0  2  0  0  0  0  0  0  0  0  0
   38.7470   27.3580   37.0640 H   0  0  0  0  0  0  0  0  0  0  0  0
   38.0610   28.6560   35.1650 H   0  0  0  0  0  0  0  0  0  0  0  0
   37.9500   23.8320   34.8420 H   0  0  0  0  0  0  0  0  0  0  0  0
   38.4680   26.6860   31.4820 H   0  0  0  0  0  0  0  0  0  0  0  0
   38.9800   28.2880   31.9960 H   0  0  0  0  0  0  0  0  0  0  0  0
   38.2080   29.1510   30.0590 H   0  0  0  0  0  0  0  0  0  0  0  0
   37.6330   27.5590   29.5760 H   0  0  0  0  0  0  0  0  0  0  0  0
   36.0720   29.4920   29.6660 H   0  0  0  0  0  0  0  0  0  0  0  0
   34.5280   29.3060   31.4110 H   0  0  0  0  0  0  0  0  0  0  0  0
   36.0940   30.2160   31.8230 H   0  0  0  0  0  0  0  0  0  0  0  0
   35.1100   27.5260   32.7560 H   0  0  0  0  0  0  0  0  0  0  0  0
   35.6560   29.1600   33.9960 C   0  0  0  0  0  0  0  0  0  0  0  0
   34.6730   29.0070   34.4550 H   0  0  0  0  0  0  0  0  0  0  0  0
   36.5120   29.0580   34.7130 H   0  0  0  0  0  0  0  0  0  0  0  0
   35.7220   30.6250   33.5240 C   0  0  0  0  0  0  0  0  0  0  0  0
   36.7400   31.0160   33.4910 H   0  0  0  0  0  0  0  0  0  0  0  0
   35.2310   30.7820   32.5650 H   0  0  0  0  0  0  0  0  0  0  0  0
   35.0170   31.4030   34.6160 C   0  0  0  0  0  3  0  0  0  0  0  0
   35.8600   31.6890   35.8130 C   0  0  0  0  0  2  0  0  0  0  0  0
   34.8460   31.9560   36.9080 C   0  0  0  0  0  2  0  0  0  0  0  0
   33.4920   31.5870   36.3420 C   0  0  0  0  0  2  0  0  0  0  0  0
   33.8780   30.6040   35.2270 C   0  0  0  0  0  2  0  0  0  0  0  0
  1 13  1  0  0  0  0
  2 14  1  0  0  0  0
  2  1  2  0  0  0  0
  3  4  2  0  0  0  0
  3  2  1  0  0  0  0
  4  5  1  0  0  0  0
  5  6  2  0  0  0  0
  6  1  1  0  0  0  0
  7 12  1  0  0  0  0
  7  3  1  0  0  0  0
  8 17  1  0  0  0  0
  8  7  1  0  0  0  0
  9 10  1  0  0  0  0
  9  8  1  0  0  0  0
 10 11  1  0  0  0  0
 11 22  1  0  0  0  0
 11 12  1  0  0  0  0
 12 23  1  6  0  0  0
 12 24  1  0  0  0  0
 15  5  1  0  0  0  0
 16  8  1  0  0  0  0
 18  9  1  0  0  0  0
 19  9  1  0  0  0  0
 20 10  1  0  0  0  0
 21 11  1  0  0  0  0
 24 25  1  0  0  0  0
 24 26  1  0  0  0  0
 27 24  1  0  0  0  0
 27 30  1  0  0  0  0
 28 27  1  0  0  0  0
 29 27  1  0  0  0  0
 30 34  1  0  0  0  0
 30 31  1  0  0  0  0
 31 32  1  0  0  0  0
 33 32  1  0  0  0  0
 34 33  1  0  0  0  0
M  END
>  <minimizedAffinity>
-5.22235775

$$$$

 OpenBabel03262523413D

 34 36  0  0  1  0  0  0  0  0999 V2000
   37.4420   22.8240   32.3960 C   0  0  0  0  0  0  0  0  0  0  0  0
   38.0320   23.0630   33.6370 C   0  0  0  0  0  0  0  0  0  0  0  0
   37.7210   22.3350   34.7660 C   0  0  0  0  0  0  0  0  0  0  0  0
   36.7950   21.3730   34.5630 N   0  0  0  0  0  0  0  0  0  0  0  0
   36.1960   21.0980   33.3980 C   0  0  0  0  0  0  0  0  0  0  0  0
   36.5260   21.8320   32.3140 N   0  0  0  0  0  0  0  0  0  0  0  0
   38.3310   22.5990   35.9960 N   0  0  0  0  0  0  0  0  0  0  0  0
   37.5330   23.2670   36.9820 C   0  0  0  0  0  0  0  0  0  0  0  0
   38.1450   23.3420   38.3430 C   0  0  0  0  0  0  0  0  0  0  0  0
   39.3950   22.7700   38.5430 N   0  0  0  0  0  0  0  0  0  0  0  0
   40.3070   22.6800   37.4670 C   0  0  0  0  0  0  0  0  0  0  0  0
   39.6990   22.1860   36.1930 C   0  0  2  0  0  0  0  0  0  0  0  0
   37.6590   23.3690   31.5030 H   0  0  0  0  0  0  0  0  0  0  0  0
   38.7350   23.8730   33.5870 H   0  0  0  0  0  0  0  0  0  0  0  0
   35.4900   20.2910   33.4590 H   0  0  0  0  0  0  0  0  0  0  0  0
   36.5310   22.7770   36.9860 H   0  0  0  0  0  0  0  0  0  0  0  0
   37.3320   24.2860   36.5680 H   0  0  0  0  0  0  0  0  0  0  0  0
   38.1690   24.4150   38.6600 H   0  0  0  0  0  0  0  0  0  0  0  0
   37.4250   22.8700   39.0560 H   0  0  0  0  0  0  0  0  0  0  0  0
   39.8710   23.2050   39.3460 H   0  0  0  0  0  0  0  0  0  0  0  0
   41.1250   21.9840   37.7970 H   0  0  0  0  0  0  0  0  0  0  0  0
   40.6840   23.7130   37.2830 H   0  0  0  0  0  0  0  0  0  0  0  0
   39.7090   21.0660   36.2260 H   0  0  0  0  0  0  0  0  0  0  0  0
   40.6200   22.6100   35.0900 C   0  0  0  0  0  0  0  0  0  0  0  0
   41.3740   21.8600   34.8280 H   0  0  0  0  0  0  0  0  0  0  0  0
   40.0390   22.9940   34.2120 H   0  0  0  0  0  0  0  0  0  0  0  0
   41.3670   23.8460   35.6270 C   0  0  0  0  0  0  0  0  0  0  0  0
   40.9820   24.1910   36.5880 H   0  0  0  0  0  0  0  0  0  0  0  0
   42.4440   23.6950   35.6890 H   0  0  0  0  0  0  0  0  0  0  0  0
   41.0400   24.9420   34.6340 C   0  0  0  0  0  3  0  0  0  0  0  0
   42.1570   25.8980   34.3790 C   0  0  0  0  0  2  0  0  0  0  0  0
   41.4580   27.1270   33.8330 C   0  0  0  0  0  2  0  0  0  0  0  0
   39.9730   26.8970   34.0170 C   0  0  0  0  0  2  0  0  0  0  0  0
   39.9570   25.8700   35.1590 C   0  0  0  0  0  2  0  0  0  0  0  0
  1  2  1  0  0  0  0
  2  3  2  0  0  0  0
  3  7  1  0  0  0  0
  4  3  1  0  0  0  0
  5 15  1  0  0  0  0
  5  4  2  0  0  0  0
  6  1  2  0  0  0  0
  6  5  1  0  0  0  0
  7 12  1  0  0  0  0
  7  8  1  0  0  0  0
  8 16  1  0  0  0  0
  8  9  1  0  0  0  0
  9 10  1  0  0  0  0
  9 18  1  0  0  0  0
  9 19  1  0  0  0  0
 10 20  1  0  0  0  0
 11 21  1  0  0  0  0
 11 10  1  0  0  0  0
 12 23  1  1  0  0  0
 12 11  1  0  0  0  0
 13  1  1  0  0  0  0
 14  2  1  0  0  0  0
 17  8  1  0  0  0  0
 22 11  1  0  0  0  0
 24 27  1  0  0  0  0
 24 12  1  0  0  0  0
 25 24  1  0  0  0  0
 26 24  1  0  0  0  0
 27 29  1  0  0  0  0
 27 28  1  0  0  0  0
 30 34  1  0  0  0  0
 30 27  1  0  0  0  0
 31 30  1  0  0  0  0
 32 33  1  0  0  0  0
 32 31  1  0  0  0  0
 33 34  1  0  0  0  0
M  END
>  <minimizedAffinity>
-5.19177055

$$$$

 OpenBabel03262523413D

 34 36  0  0  1  0  0  0  0  0999 V2000
   39.0030   23.1600   35.7990 C   0  0  0  0  0  0  0  0  0  0  0  0
   38.1280   23.6320   34.8210 C   0  0  0  0  0  0  0  0  0  0  0  0
   38.4980   24.5640   33.8730 C   0  0  0  0  0  0  0  0  0  0  0  0
   39.7790   24.9770   33.9770 N   0  0  0  0  0  0  0  0  0  0  0  0
   40.6630   24.5600   34.8920 C   0  0  0  0  0  0  0  0  0  0  0  0
   40.2650   23.6480   35.8040 N   0  0  0  0  0  0  0  0  0  0  0  0
   37.5970   25.0170   32.9050 N   0  0  0  0  0  0  0  0  0  0  0  0
   37.0740   26.3410   33.0790 C   0  0  0  0  0  0  0  0  0  0  0  0
   36.2860   26.8640   31.9220 C   0  0  0  0  0  0  0  0  0  0  0  0
   36.1320   26.0570   30.8020 N   0  0  0  0  0  0  0  0  0  0  0  0
   36.1530   24.6500   30.9410 C   0  0  0  0  0  0  0  0  0  0  0  0
   37.2590   24.1410   31.8090 C   0  0  2  0  0  0  0  0  0  0  0  0
   38.7500   22.4400   36.5470 H   0  0  0  0  0  0  0  0  0  0  0  0
   37.1570   23.1850   34.9140 H   0  0  0  0  0  0  0  0  0  0  0  0
   41.6300   25.0180   34.7950 H   0  0  0  0  0  0  0  0  0  0  0  0
   37.9300   27.0020   33.3510 H   0  0  0  0  0  0  0  0  0  0  0  0
   36.4570   26.3020   34.0090 H   0  0  0  0  0  0  0  0  0  0  0  0
   35.2800   27.1810   32.2960 H   0  0  0  0  0  0  0  0  0  0  0  0
   36.7650   27.8220   31.6020 H   0  0  0  0  0  0  0  0  0  0  0  0
   35.2910   26.3250   30.2710 H   0  0  0  0  0  0  0  0  0  0  0  0
   36.2540   24.2270   29.9040 H   0  0  0  0  0  0  0  0  0  0  0  0
   35.1880   24.3630   31.4190 H   0  0  0  0  0  0  0  0  0  0  0  0
   38.1730   24.0380   31.1690 H   0  0  0  0  0  0  0  0  0  0  0  0
   36.8590   22.7630   32.2420 C   0  0  0  0  0  0  0  0  0  0  0  0
   37.4740   21.9660   31.8110 H   0  0  0  0  0  0  0  0  0  0  0  0
   36.7630   22.7090   33.3580 H   0  0  0  0  0  0  0  0  0  0  0  0
   35.4210   22.5680   31.7230 C   0  0  0  0  0  0  0  0  0  0  0  0
   34.6770   23.0910   32.3260 H   0  0  0  0  0  0  0  0  0  0  0  0
   35.3100   22.8400   30.6740 H   0  0  0  0  0  0  0  0  0  0  0  0
   35.1480   21.0910   31.9210 C   0  0  0  0  0  3  0  0  0  0  0  0
   35.4260   20.5910   33.2990 C   0  0  0  0  0  2  0  0  0  0  0  0
   35.6050   19.0990   33.1080 C   0  0  0  0  0  2  0  0  0  0  0  0
   35.6490   18.8560   31.6150 C   0  0  0  0  0  2  0  0  0  0  0  0
   36.0850   20.2320   31.0890 C   0  0  0  0  0  2  0  0  0  0  0  0
  1  6  1  0  0  0  0
  1 13  1  0  0  0  0
  2 14  1  0  0  0  0
  2  1  2  0  0  0  0
  3  4  2  0  0  0  0
  3  2  1  0  0  0  0
  4  5  1  0  0  0  0
  5  6  2  0  0  0  0
  7  8  1  0  0  0  0
  7  3  1  0  0  0  0
  8 16  1  0  0  0  0
  8 17  1  0  0  0  0
  9 18  1  0  0  0  0
  9  8  1  0  0  0  0
 10 11  1  0  0  0  0
 10  9  1  0  0  0  0
 11 22  1  0  0  0  0
 11 12  1  0  0  0  0
 12 23  1  6  0  0  0
 12 24  1  0  0  0  0
 12  7  1  0  0  0  0
 15  5  1  0  0  0  0
 19  9  1  0  0  0  0
 20 10  1  0  0  0  0
 21 11  1  0  0  0  0
 24 26  1  0  0  0  0
 25 24  1  0  0  0  0
 27 30  1  0  0  0  0
 27 24  1  0  0  0  0
 27 28  1  0  0  0  0
 29 27  1  0  0  0  0
 30 31  1  0  0  0  0
 32 31  1  0  0  0  0
 33 32  1  0  0  0  0
 34 33  1  0  0  0  0
 34 30  1  0  0  0  0
M  END
>  <minimizedAffinity>
-4.97066975

$$$$

 OpenBabel03262523413D

 34 36  0  0  1  0  0  0  0  0999 V2000
   36.5270   28.4820   32.8750 C   0  0  0  0  0  0  0  0  0  0  0  0
   36.4870   27.0910   32.9770 C   0  0  0  0  0  0  0  0  0  0  0  0
   36.7820   26.2540   31.9220 C   0  0  0  0  0  0  0  0  0  0  0  0
   37.1120   26.8990   30.7820 N   0  0  0  0  0  0  0  0  0  0  0  0
   37.1670   28.2280   30.6240 C   0  0  0  0  0  0  0  0  0  0  0  0
   36.8710   29.0150   31.6810 N   0  0  0  0  0  0  0  0  0  0  0  0
   36.7330   24.8630   32.0570 N   0  0  0  0  0  0  0  0  0  0  0  0
   35.6210   24.1940   31.4480 C   0  0  0  0  0  0  0  0  0  0  0  0
   35.7140   22.7030   31.4320 C   0  0  0  0  0  0  0  0  0  0  0  0
   36.8370   22.1010   31.9840 N   0  0  0  0  0  0  0  0  0  0  0  0
   37.5410   22.7460   33.0270 C   0  0  0  0  0  0  0  0  0  0  0  0
   37.7880   24.2010   32.7840 C   0  0  2  0  0  0  0  0  0  0  0  0
   36.3040   29.1580   33.6710 H   0  0  0  0  0  0  0  0  0  0  0  0
   36.1960   26.7790   33.9630 H   0  0  0  0  0  0  0  0  0  0  0  0
   37.4520   28.5310   29.6340 H   0  0  0  0  0  0  0  0  0  0  0  0
   35.4900   24.6290   30.4290 H   0  0  0  0  0  0  0  0  0  0  0  0
   34.7170   24.5410   32.0060 H   0  0  0  0  0  0  0  0  0  0  0  0
   34.7930   22.2880   31.9120 H   0  0  0  0  0  0  0  0  0  0  0  0
   35.6290   22.3770   30.3660 H   0  0  0  0  0  0  0  0  0  0  0  0
   36.6290   21.1340   32.2730 H   0  0  0  0  0  0  0  0  0  0  0  0
   38.5190   22.2040   33.1380 H   0  0  0  0  0  0  0  0  0  0  0  0
   36.9060   22.6590   33.9400 H   0  0  0  0  0  0  0  0  0  0  0  0
   38.7230   24.2880   32.1720 H   0  0  0  0  0  0  0  0  0  0  0  0
   38.0710   24.8120   34.1230 C   0  0  0  0  0  0  0  0  0  0  0  0
   38.3600   25.8680   34.0780 H   0  0  0  0  0  0  0  0  0  0  0  0
   37.2350   24.6020   34.8410 H   0  0  0  0  0  0  0  0  0  0  0  0
   39.2710   24.0290   34.6900 C   0  0  0  0  0  0  0  0  0  0  0  0
   39.1970   22.9540   34.5170 H   0  0  0  0  0  0  0  0  0  0  0  0
   40.2280   24.4000   34.3260 H   0  0  0  0  0  0  0  0  0  0  0  0
   39.1650   24.2130   36.1900 C   0  0  0  0  0  3  0  0  0  0  0  0
   39.5490   23.0140   36.9880 C   0  0  0  0  0  2  0  0  0  0  0  0
   38.8710   23.2400   38.3240 C   0  0  0  0  0  2  0  0  0  0  0  0
   37.9540   24.4320   38.1460 C   0  0  0  0  0  2  0  0  0  0  0  0
   37.7250   24.4230   36.6270 C   0  0  0  0  0  2  0  0  0  0  0  0
  1  2  1  0  0  0  0
  1 13  1  0  0  0  0
  2 14  1  0  0  0  0
  3  7  1  0  0  0  0
  3  2  2  0  0  0  0
  4  3  1  0  0  0  0
  5  4  2  0  0  0  0
  5  6  1  0  0  0  0
  6  1  2  0  0  0  0
  7 12  1  0  0  0  0
  8 17  1  0  0  0  0
  8  7  1  0  0  0  0
  9  8  1  0  0  0  0
  9 18  1  0  0  0  0
  9 10  1  0  0  0  0
 10 20  1  0  0  0  0
 10 11  1  0  0  0  0
 11 21  1  0  0  0  0
 11 22  1  0  0  0  0
 12 23  1  6  0  0  0
 12 11  1  0  0  0  0
 12 24  1  0  0  0  0
 15  5  1  0  0  0  0
 16  8  1  0  0  0  0
 19  9  1  0  0  0  0
 24 27  1  0  0  0  0
 24 26  1  0  0  0  0
 25 24  1  0  0  0  0
 27 30  1  0  0  0  0
 28 27  1  0  0  0  0
 29 27  1  0  0  0  0
 30 34  1  0  0  0  0
 30 31  1  0  0  0  0
 31 32  1  0  0  0  0
 33 32  1  0  0  0  0
 34 33  1  0  0  0  0
M  END
>  <minimizedAffinity>
-4.86977959

$$$$

 OpenBabel03262523413D

 34 36  0  0  1  0  0  0  0  0999 V2000
   36.2670   21.1100   33.8280 C   0  0  0  0  0  0  0  0  0  0  0  0
   37.0270   22.0100   33.0820 C   0  0  0  0  0  0  0  0  0  0  0  0
   36.8160   22.2330   31.7370 C   0  0  0  0  0  0  0  0  0  0  0  0
   35.8090   21.5030   31.2090 N   0  0  0  0  0  0  0  0  0  0  0  0
   35.0470   20.6260   31.8750 C   0  0  0  0  0  0  0  0  0  0  0  0
   35.2840   20.4340   33.1900 N   0  0  0  0  0  0  0  0  0  0  0  0
   37.5960   23.1420   31.0160 N   0  0  0  0  0  0  0  0  0  0  0  0
   38.5690   22.5900   30.1210 C   0  0  0  0  0  0  0  0  0  0  0  0
   39.2310   23.5820   29.2200 C   0  0  0  0  0  0  0  0  0  0  0  0
   38.8590   24.9160   29.3120 N   0  0  0  0  0  0  0  0  0  0  0  0
   38.3790   25.4300   30.5390 C   0  0  0  0  0  0  0  0  0  0  0  0
   37.3720   24.5540   31.2130 C   0  0  2  0  0  0  0  0  0  0  0  0
   36.4040   20.9130   34.8690 H   0  0  0  0  0  0  0  0  0  0  0  0
   37.7800   22.4820   33.6850 H   0  0  0  0  0  0  0  0  0  0  0  0
   34.3020   20.1540   31.2620 H   0  0  0  0  0  0  0  0  0  0  0  0
   38.0730   21.7630   29.5600 H   0  0  0  0  0  0  0  0  0  0  0  0
   39.3140   22.0670   30.7690 H   0  0  0  0  0  0  0  0  0  0  0  0
   40.3390   23.4920   29.3510 H   0  0  0  0  0  0  0  0  0  0  0  0
   39.0600   23.2400   28.1690 H   0  0  0  0  0  0  0  0  0  0  0  0
   39.6100   25.5300   28.9660 H   0  0  0  0  0  0  0  0  0  0  0  0
   37.9250   26.4320   30.3110 H   0  0  0  0  0  0  0  0  0  0  0  0
   39.2620   25.5130   31.2150 H   0  0  0  0  0  0  0  0  0  0  0  0
   36.3680   24.7970   30.7800 H   0  0  0  0  0  0  0  0  0  0  0  0
   37.3490   24.9650   32.6540 C   0  0  0  0  0  0  0  0  0  0  0  0
   36.6120   24.4260   33.2580 H   0  0  0  0  0  0  0  0  0  0  0  0
   38.3840   24.9540   33.0870 H   0  0  0  0  0  0  0  0  0  0  0  0
   36.9480   26.4520   32.6540 C   0  0  0  0  0  0  0  0  0  0  0  0
   37.3050   26.9880   31.7730 H   0  0  0  0  0  0  0  0  0  0  0  0
   35.8760   26.6000   32.7720 H   0  0  0  0  0  0  0  0  0  0  0  0
   37.6990   27.0430   33.8290 C   0  0  0  0  0  3  0  0  0  0  0  0
   39.1780   26.8580   33.7740 C   0  0  0  0  0  2  0  0  0  0  0  0
   39.6120   27.0190   35.2170 C   0  0  0  0  0  2  0  0  0  0  0  0
   38.3470   27.0590   36.0470 C   0  0  0  0  0  2  0  0  0  0  0  0
   37.3500   26.3370   35.1290 C   0  0  0  0  0  2  0  0  0  0  0  0
  1 13  1  0  0  0  0
  2 14  1  0  0  0  0
  2  1  2  0  0  0  0
  3  2  1  0  0  0  0
  4  3  2  0  0  0  0
  4  5  1  0  0  0  0
  5  6  2  0  0  0  0
  6  1  1  0  0  0  0
  7 12  1  0  0  0  0
  7  3  1  0  0  0  0
  8 17  1  0  0  0  0
  8  7  1  0  0  0  0
  9 10  1  0  0  0  0
  9 18  1  0  0  0  0
  9  8  1  0  0  0  0
 10 11  1  0  0  0  0
 11 12  1  0  0  0  0
 11 22  1  0  0  0  0
 12 23  1  6  0  0  0
 12 24  1  0  0  0  0
 15  5  1  0  0  0  0
 16  8  1  0  0  0  0
 19  9  1  0  0  0  0
 20 10  1  0  0  0  0
 21 11  1  0  0  0  0
 24 27  1  0  0  0  0
 24 26  1  0  0  0  0
 24 25  1  0  0  0  0
 27 29  1  0  0  0  0
 27 30  1  0  0  0  0
 28 27  1  0  0  0  0
 30 34  1  0  0  0  0
 31 30  1  0  0  0  0
 31 32  1  0  0  0  0
 32 33  1  0  0  0  0
 34 33  1  0  0  0  0
M  END
>  <minimizedAffinity>
-4.82440758

$$$$

 OpenBabel03262523413D

 34 36  0  0  1  0  0  0  0  0999 V2000
   31.3710   28.8020   33.4930 C   0  0  0  0  0  0  0  0  0  0  0  0
   32.1990   29.7700   34.0610 C   0  0  0  0  0  0  0  0  0  0  0  0
   32.4580   29.8310   35.4150 C   0  0  0  0  0  0  0  0  0  0  0  0
   31.8410   28.8720   36.1380 N   0  0  0  0  0  0  0  0  0  0  0  0
   31.0380   27.9190   35.6490 C   0  0  0  0  0  0  0  0  0  0  0  0
   30.8070   27.8920   34.3190 N   0  0  0  0  0  0  0  0  0  0  0  0
   33.2930   30.8150   35.9540 N   0  0  0  0  0  0  0  0  0  0  0  0
   32.6560   31.8770   36.6750 C   0  0  0  0  0  0  0  0  0  0  0  0
   33.5870   32.7860   37.4100 C   0  0  0  0  0  0  0  0  0  0  0  0
   34.9510   32.5350   37.3460 N   0  0  0  0  0  0  0  0  0  0  0  0
   35.4960   31.8910   36.2110 C   0  0  0  0  0  0  0  0  0  0  0  0
   34.7170   30.6970   35.7580 C   0  0  2  0  0  0  0  0  0  0  0  0
   31.1480   28.7260   32.4510 H   0  0  0  0  0  0  0  0  0  0  0  0
   32.5850   30.4420   33.3180 H   0  0  0  0  0  0  0  0  0  0  0  0
   30.6510   27.2570   36.4010 H   0  0  0  0  0  0  0  0  0  0  0  0
   31.8910   31.4140   37.3410 H   0  0  0  0  0  0  0  0  0  0  0  0
   32.0520   32.4360   35.9190 H   0  0  0  0  0  0  0  0  0  0  0  0
   33.3840   33.8370   37.0840 H   0  0  0  0  0  0  0  0  0  0  0  0
   33.2780   32.7770   38.4850 H   0  0  0  0  0  0  0  0  0  0  0  0
   35.4900   33.3930   37.5310 H   0  0  0  0  0  0  0  0  0  0  0  0
   36.5420   31.5850   36.4860 H   0  0  0  0  0  0  0  0  0  0  0  0
   35.4800   32.6390   35.3850 H   0  0  0  0  0  0  0  0  0  0  0  0
   35.0670   29.8180   36.3580 H   0  0  0  0  0  0  0  0  0  0  0  0
   35.1110   30.4510   34.3330 C   0  0  0  0  0  0  0  0  0  0  0  0
   34.2610   30.3560   33.6470 H   0  0  0  0  0  0  0  0  0  0  0  0
   35.8810   31.1950   33.9990 H   0  0  0  0  0  0  0  0  0  0  0  0
   35.8550   29.1010   34.3360 C   0  0  0  0  0  0  0  0  0  0  0  0
   36.8810   29.1830   34.6960 H   0  0  0  0  0  0  0  0  0  0  0  0
   35.3250   28.3290   34.8910 H   0  0  0  0  0  0  0  0  0  0  0  0
   35.9600   28.7280   32.8720 C   0  0  0  0  0  3  0  0  0  0  0  0
   37.1910   27.9640   32.5160 C   0  0  0  0  0  2  0  0  0  0  0  0
   37.3300   28.1860   31.0230 C   0  0  0  0  0  2  0  0  0  0  0  0
   36.3130   29.2410   30.6470 C   0  0  0  0  0  2  0  0  0  0  0  0
   36.0960   29.9560   31.9890 C   0  0  0  0  0  2  0  0  0  0  0  0
  1  2  2  0  0  0  0
  1  6  1  0  0  0  0
  2  3  1  0  0  0  0
  3  7  1  0  0  0  0
  3  4  2  0  0  0  0
  5  4  1  0  0  0  0
  5 15  1  0  0  0  0
  6  5  2  0  0  0  0
  7  8  1  0  0  0  0
  8 16  1  0  0  0  0
  8  9  1  0  0  0  0
  9 19  1  0  0  0  0
 10  9  1  0  0  0  0
 10 20  1  0  0  0  0
 11 21  1  0  0  0  0
 11 10  1  0  0  0  0
 12  7  1  0  0  0  0
 12 11  1  0  0  0  0
 12 23  1  1  0  0  0
 13  1  1  0  0  0  0
 14  2  1  0  0  0  0
 17  8  1  0  0  0  0
 18  9  1  0  0  0  0
 22 11  1  0  0  0  0
 24 27  1  0  0  0  0
 24 12  1  0  0  0  0
 25 24  1  0  0  0  0
 26 24  1  0  0  0  0
 27 28  1  0  0  0  0
 27 29  1  0  0  0  0
 30 27  1  0  0  0  0
 31 30  1  0  0  0  0
 32 31  1  0  0  0  0
 33 32  1  0  0  0  0
 33 34  1  0  0  0  0
 34 30  1  0  0  0  0
M  END
>  <minimizedAffinity>
-4.81154823

$$$$

 OpenBabel03262523413D

 34 36  0  0  1  0  0  0  0  0999 V2000
   38.7210   24.0890   31.1590 C   0  0  0  0  0  0  0  0  0  0  0  0
   38.2920   25.2780   31.7500 C   0  0  0  0  0  0  0  0  0  0  0  0
   36.9750   25.5110   32.0890 C   0  0  0  0  0  0  0  0  0  0  0  0
   36.1420   24.4890   31.7990 N   0  0  0  0  0  0  0  0  0  0  0  0
   36.4960   23.3280   31.2330 C   0  0  0  0  0  0  0  0  0  0  0  0
   37.7940   23.1360   30.9150 N   0  0  0  0  0  0  0  0  0  0  0  0
   36.5760   26.7130   32.6810 N   0  0  0  0  0  0  0  0  0  0  0  0
   35.8600   27.6360   31.8490 C   0  0  0  0  0  0  0  0  0  0  0  0
   35.2720   28.8060   32.5680 C   0  0  0  0  0  0  0  0  0  0  0  0
   35.4510   28.9030   33.9410 N   0  0  0  0  0  0  0  0  0  0  0  0
   36.5940   28.3280   34.5430 C   0  0  0  0  0  0  0  0  0  0  0  0
   36.9010   26.9440   34.0670 C   0  0  2  0  0  0  0  0  0  0  0  0
   39.7310   23.8760   30.8830 H   0  0  0  0  0  0  0  0  0  0  0  0
   39.1060   25.9630   31.8900 H   0  0  0  0  0  0  0  0  0  0  0  0
   35.6730   22.6520   31.0910 H   0  0  0  0  0  0  0  0  0  0  0  0
   35.0980   27.0500   31.2830 H   0  0  0  0  0  0  0  0  0  0  0  0
   36.5860   27.9610   31.0640 H   0  0  0  0  0  0  0  0  0  0  0  0
   35.6380   29.7420   32.0750 H   0  0  0  0  0  0  0  0  0  0  0  0
   34.1740   28.8060   32.3560 H   0  0  0  0  0  0  0  0  0  0  0  0
   35.3690   29.8810   34.2530 H   0  0  0  0  0  0  0  0  0  0  0  0
   36.4030   28.3190   35.6510 H   0  0  0  0  0  0  0  0  0  0  0  0
   37.4570   28.9780   34.2710 H   0  0  0  0  0  0  0  0  0  0  0  0
   36.2870   26.2320   34.6780 H   0  0  0  0  0  0  0  0  0  0  0  0
   38.3400   26.6910   34.3990 C   0  0  0  0  0  0  0  0  0  0  0  0
   38.7320   25.7520   33.9920 H   0  0  0  0  0  0  0  0  0  0  0  0
   38.9680   27.5870   34.1530 H   0  0  0  0  0  0  0  0  0  0  0  0
   38.4000   26.5890   35.9350 C   0  0  0  0  0  0  0  0  0  0  0  0
   39.4070   26.7220   36.3310 H   0  0  0  0  0  0  0  0  0  0  0  0
   37.7110   27.2720   36.4300 H   0  0  0  0  0  0  0  0  0  0  0  0
   38.0270   25.1510   36.2310 C   0  0  0  0  0  3  0  0  0  0  0  0
   37.9990   24.8050   37.6810 C   0  0  0  0  0  2  0  0  0  0  0  0
   38.1470   23.2970   37.6930 C   0  0  0  0  0  2  0  0  0  0  0  0
   38.4800   22.8850   36.2750 C   0  0  0  0  0  2  0  0  0  0  0  0
   39.0740   24.1820   35.7060 C   0  0  0  0  0  2  0  0  0  0  0  0
  1  2  1  0  0  0  0
  2 14  1  0  0  0  0
  2  3  2  0  0  0  0
  3  7  1  0  0  0  0
  4  3  1  0  0  0  0
  5  4  2  0  0  0  0
  6  1  2  0  0  0  0
  6  5  1  0  0  0  0
  7 12  1  0  0  0  0
  8  9  1  0  0  0  0
  8  7  1  0  0  0  0
  9 10  1  0  0  0  0
 10 20  1  0  0  0  0
 10 11  1  0  0  0  0
 11 21  1  0  0  0  0
 12 24  1  0  0  0  0
 12 11  1  0  0  0  0
 12 23  1  1  0  0  0
 13  1  1  0  0  0  0
 15  5  1  0  0  0  0
 16  8  1  0  0  0  0
 17  8  1  0  0  0  0
 18  9  1  0  0  0  0
 19  9  1  0  0  0  0
 22 11  1  0  0  0  0
 24 27  1  0  0  0  0
 25 24  1  0  0  0  0
 26 24  1  0  0  0  0
 27 30  1  0  0  0  0
 27 28  1  0  0  0  0
 27 29  1  0  0  0  0
 30 31  1  0  0  0  0
 31 32  1  0  0  0  0
 33 32  1  0  0  0  0
 34 30  1  0  0  0  0
 34 33  1  0  0  0  0
M  END
>  <minimizedAffinity>
-4.75803709

$$$$

 OpenBabel03262523413D

 34 36  0  0  1  0  0  0  0  0999 V2000
   37.6890   21.3800   32.5840 C   0  0  0  0  0  0  0  0  0  0  0  0
   37.9890   22.7420   32.5680 C   0  0  0  0  0  0  0  0  0  0  0  0
   37.0890   23.7020   32.1540 C   0  0  0  0  0  0  0  0  0  0  0  0
   35.8950   23.2060   31.7660 N   0  0  0  0  0  0  0  0  0  0  0  0
   35.5500   21.9120   31.7590 C   0  0  0  0  0  0  0  0  0  0  0  0
   36.4580   21.0010   32.1710 N   0  0  0  0  0  0  0  0  0  0  0  0
   37.4210   25.0600   32.1500 N   0  0  0  0  0  0  0  0  0  0  0  0
   37.6750   25.6590   30.8730 C   0  0  0  0  0  0  0  0  0  0  0  0
   37.8170   27.1460   30.8920 C   0  0  0  0  0  0  0  0  0  0  0  0
   37.6890   27.8120   32.1040 N   0  0  0  0  0  0  0  0  0  0  0  0
   38.0230   27.1510   33.3080 C   0  0  0  0  0  0  0  0  0  0  0  0
   37.4810   25.7610   33.4090 C   0  0  2  0  0  0  0  0  0  0  0  0
   38.3610   20.6110   32.8970 H   0  0  0  0  0  0  0  0  0  0  0  0
   38.9910   22.9270   32.9070 H   0  0  0  0  0  0  0  0  0  0  0  0
   34.5490   21.7370   31.4120 H   0  0  0  0  0  0  0  0  0  0  0  0
   36.8750   25.3110   30.1780 H   0  0  0  0  0  0  0  0  0  0  0  0
   38.6000   25.1650   30.4860 H   0  0  0  0  0  0  0  0  0  0  0  0
   38.7960   27.4130   30.4200 H   0  0  0  0  0  0  0  0  0  0  0  0
   37.0590   27.5600   30.1820 H   0  0  0  0  0  0  0  0  0  0  0  0
   38.1770   28.7190   32.0760 H   0  0  0  0  0  0  0  0  0  0  0  0
   37.6170   27.7830   34.1440 H   0  0  0  0  0  0  0  0  0  0  0  0
   39.1350   27.0830   33.3340 H   0  0  0  0  0  0  0  0  0  0  0  0
   36.4340   25.8340   33.8030 H   0  0  0  0  0  0  0  0  0  0  0  0
   38.3020   25.0610   34.4500 C   0  0  0  0  0  0  0  0  0  0  0  0
   38.2950   23.9690   34.3610 H   0  0  0  0  0  0  0  0  0  0  0  0
   39.3310   25.5030   34.5080 H   0  0  0  0  0  0  0  0  0  0  0  0
   37.6510   25.4190   35.8000 C   0  0  0  0  0  0  0  0  0  0  0  0
   37.6920   26.4870   36.0210 H   0  0  0  0  0  0  0  0  0  0  0  0
   36.6280   25.0590   35.8840 H   0  0  0  0  0  0  0  0  0  0  0  0
   38.5370   24.7510   36.8320 C   0  0  0  0  0  3  0  0  0  0  0  0
   39.3850   23.6470   36.2950 C   0  0  0  0  0  2  0  0  0  0  0  0
   39.7280   22.8300   37.5250 C   0  0  0  0  0  2  0  0  0  0  0  0
   38.8780   23.3710   38.6540 C   0  0  0  0  0  2  0  0  0  0  0  0
   37.7190   24.0230   37.8850 C   0  0  0  0  0  2  0  0  0  0  0  0
  1 13  1  0  0  0  0
  2  1  1  0  0  0  0
  2 14  1  0  0  0  0
  3  2  2  0  0  0  0
  4  3  1  0  0  0  0
  5  4  2  0  0  0  0
  5  6  1  0  0  0  0
  6  1  2  0  0  0  0
  7  3  1  0  0  0  0
  7 12  1  0  0  0  0
  8  9  1  0  0  0  0
  8  7  1  0  0  0  0
  9 10  1  0  0  0  0
 10 11  1  0  0  0  0
 11 22  1  0  0  0  0
 11 12  1  0  0  0  0
 11 21  1  0  0  0  0
 12 23  1  1  0  0  0
 12 24  1  0  0  0  0
 15  5  1  0  0  0  0
 16  8  1  0  0  0  0
 17  8  1  0  0  0  0
 18  9  1  0  0  0  0
 19  9  1  0  0  0  0
 20 10  1  0  0  0  0
 24 26  1  0  0  0  0
 24 27  1  0  0  0  0
 25 24  1  0  0  0  0
 27 29  1  0  0  0  0
 27 28  1  0  0  0  0
 27 30  1  0  0  0  0
 30 34  1  0  0  0  0
 31 30  1  0  0  0  0
 31 32  1  0  0  0  0
 32 33  1  0  0  0  0
 34 33  1  0  0  0  0
M  END
>  <minimizedAffinity>
-4.72907019

$$$$

 OpenBabel03262523413D

 34 36  0  0  1  0  0  0  0  0999 V2000
   38.4300   22.9960   31.6250 C   0  0  0  0  0  0  0  0  0  0  0  0
   38.2670   24.2720   32.1640 C   0  0  0  0  0  0  0  0  0  0  0  0
   37.0330   24.8700   32.3110 C   0  0  0  0  0  0  0  0  0  0  0  0
   35.9990   24.1120   31.8870 N   0  0  0  0  0  0  0  0  0  0  0  0
   36.0940   22.8840   31.3620 C   0  0  0  0  0  0  0  0  0  0  0  0
   37.3190   22.3310   31.2340 N   0  0  0  0  0  0  0  0  0  0  0  0
   36.9030   26.1520   32.8550 N   0  0  0  0  0  0  0  0  0  0  0  0
   36.6000   27.2140   31.9420 C   0  0  0  0  0  0  0  0  0  0  0  0
   36.2630   28.5200   32.5840 C   0  0  0  0  0  0  0  0  0  0  0  0
   36.2620   28.6000   33.9700 N   0  0  0  0  0  0  0  0  0  0  0  0
   37.1000   27.7470   34.7240 C   0  0  0  0  0  0  0  0  0  0  0  0
   37.0750   26.3200   34.2780 C   0  0  2  0  0  0  0  0  0  0  0  0
   39.3690   22.5040   31.4960 H   0  0  0  0  0  0  0  0  0  0  0  0
   39.2110   24.7080   32.4320 H   0  0  0  0  0  0  0  0  0  0  0  0
   35.1460   22.4590   31.0910 H   0  0  0  0  0  0  0  0  0  0  0  0
   35.7960   26.8470   31.2620 H   0  0  0  0  0  0  0  0  0  0  0  0
   37.4940   27.3040   31.2770 H   0  0  0  0  0  0  0  0  0  0  0  0
   36.9420   29.3040   32.1640 H   0  0  0  0  0  0  0  0  0  0  0  0
   35.2510   28.8190   32.2140 H   0  0  0  0  0  0  0  0  0  0  0  0
   36.4110   29.5700   34.2810 H   0  0  0  0  0  0  0  0  0  0  0  0
   36.7560   27.8210   35.7920 H   0  0  0  0  0  0  0  0  0  0  0  0
   38.1400   28.1250   34.5910 H   0  0  0  0  0  0  0  0  0  0  0  0
   36.2060   25.8230   34.7820 H   0  0  0  0  0  0  0  0  0  0  0  0
   38.3240   25.6860   34.8120 C   0  0  0  0  0  0  0  0  0  0  0  0
   38.7500   24.9200   34.1560 H   0  0  0  0  0  0  0  0  0  0  0  0
   39.0610   26.4690   35.1320 H   0  0  0  0  0  0  0  0  0  0  0  0
   37.9070   24.9910   36.1230 C   0  0  0  0  0  0  0  0  0  0  0  0
   37.7290   25.6940   36.9380 H   0  0  0  0  0  0  0  0  0  0  0  0
   37.0450   24.3380   35.9990 H   0  0  0  0  0  0  0  0  0  0  0  0
   39.1280   24.1910   36.5280 C   0  0  0  0  0  3  0  0  0  0  0  0
   39.5610   23.1760   35.5250 C   0  0  0  0  0  2  0  0  0  0  0  0
   40.3850   22.1980   36.3380 C   0  0  0  0  0  2  0  0  0  0  0  0
   40.1910   22.5750   37.7920 C   0  0  0  0  0  2  0  0  0  0  0  0
   38.8500   23.3220   37.7430 C   0  0  0  0  0  2  0  0  0  0  0  0
  1  2  1  0  0  0  0
  2  3  2  0  0  0  0
  2 14  1  0  0  0  0
  3  7  1  0  0  0  0
  4  3  1  0  0  0  0
  5  4  2  0  0  0  0
  6  5  1  0  0  0  0
  6  1  2  0  0  0  0
  7 12  1  0  0  0  0
  8  9  1  0  0  0  0
  8  7  1  0  0  0  0
  9 10  1  0  0  0  0
 10 20  1  0  0  0  0
 10 11  1  0  0  0  0
 11 21  1  0  0  0  0
 12 11  1  0  0  0  0
 12 23  1  1  0  0  0
 12 24  1  0  0  0  0
 13  1  1  0  0  0  0
 15  5  1  0  0  0  0
 16  8  1  0  0  0  0
 17  8  1  0  0  0  0
 18  9  1  0  0  0  0
 19  9  1  0  0  0  0
 22 11  1  0  0  0  0
 24 26  1  0  0  0  0
 24 27  1  0  0  0  0
 25 24  1  0  0  0  0
 27 30  1  0  0  0  0
 27 28  1  0  0  0  0
 29 27  1  0  0  0  0
 30 34  1  0  0  0  0
 31 32  1  0  0  0  0
 31 30  1  0  0  0  0
 32 33  1  0  0  0  0
 34 33  1  0  0  0  0
M  END
>  <minimizedAffinity>
-4.62987089

$$$$
