
 OpenBabel03272500583D

 31 33  0  0  0  0  0  0  0  0999 V2000
   38.2420   31.9180   47.3980 C   0  0  0  0  0  0  0  0  0  0  0  0
   38.8320   32.7560   48.2980 C   0  0  0  0  0  0  0  0  0  0  0  0
   38.4200   32.8360   49.6230 C   0  0  0  0  0  0  0  0  0  0  0  0
   37.3210   31.9870   50.0400 C   0  0  0  0  0  0  0  0  0  0  0  0
   36.7780   31.1770   49.0960 C   0  0  0  0  0  0  0  0  0  0  0  0
   37.1810   31.1070   47.8180 C   0  0  0  0  0  0  0  0  0  0  0  0
   39.6700   33.4150   48.0180 H   0  0  0  0  0  0  0  0  0  0  0  0
   38.9360   33.5320   50.2980 H   0  0  0  0  0  0  0  0  0  0  0  0
   37.1140   32.1540   51.0790 H   0  0  0  0  0  0  0  0  0  0  0  0
   36.0130   30.6270   49.6220 H   0  0  0  0  0  0  0  0  0  0  0  0
   40.0330   31.2470   45.8720 C   0  0  0  0  0  0  0  0  0  0  0  0
   38.8010   31.9280   46.0620 C   0  0  0  0  0  0  0  0  0  0  0  0
   38.2860   32.5110   44.9320 C   0  0  0  0  0  0  0  0  0  0  0  0
   38.9340   32.4170   43.7580 N   0  0  0  0  0  0  0  0  0  0  0  0
   40.0740   31.7840   43.5970 C   0  0  0  0  0  0  0  0  0  0  0  0
   40.6140   31.2040   44.6570 N   0  0  0  0  0  0  0  0  0  0  0  0
   40.4880   30.7720   46.7090 H   0  0  0  0  0  0  0  0  0  0  0  0
   37.3450   33.0310   45.0790 H   0  0  0  0  0  0  0  0  0  0  0  0
   40.5870   31.7150   42.6460 H   0  0  0  0  0  0  0  0  0  0  0  0
   35.1480   30.1050   47.1840 C   0  0  0  0  0  0  0  0  0  0  0  0
   34.6510   30.6820   48.2310 O   0  0  0  0  0  0  0  0  0  0  0  0
   36.5620   30.2800   46.9150 N   0  0  0  0  0  0  0  0  0  0  0  0
   37.0380   29.8270   46.1310 H   0  0  0  0  0  0  0  0  0  0  0  0
   34.3300   29.3560   46.3800 O   0  0  0  0  0  0  0  0  0  0  0  0
   32.9690   29.5770   46.2120 C   0  0  0  0  0  0  0  0  0  0  0  0
   32.5100   30.6220   45.5540 O   0  0  0  0  0  0  0  0  0  0  0  0
   31.9270   28.6530   46.7330 C   0  0  0  0  0  3  0  0  0  0  0  0
   30.5350   29.1090   46.3430 C   0  0  0  0  0  2  0  0  0  0  0  0
   29.7080   27.8440   46.2710 C   0  0  0  0  0  2  0  0  0  0  0  0
   30.6740   26.7070   46.6040 C   0  0  0  0  0  2  0  0  0  0  0  0
   31.9710   27.3090   46.0520 C   0  0  0  0  0  2  0  0  0  0  0  0
  1  6  2  0  0  0  0
  1  2  1  0  0  0  0
  2  3  2  0  0  0  0
  3  4  1  0  0  0  0
  3  8  1  0  0  0  0
  4  9  1  0  0  0  0
  5 10  1  0  0  0  0
  5  4  2  0  0  0  0
  6  5  1  0  0  0  0
  7  2  1  0  0  0  0
 11 12  1  0  0  0  0
 11 17  1  0  0  0  0
 12  1  1  0  0  0  0
 13 18  1  0  0  0  0
 13 12  2  0  0  0  0
 14 13  1  0  0  0  0
 15 14  2  0  0  0  0
 15 16  1  0  0  0  0
 16 11  2  0  0  0  0
 19 15  1  0  0  0  0
 20 21  2  0  0  0  0
 22 20  1  0  0  0  0
 22  6  1  0  0  0  0
 23 22  1  0  0  0  0
 24 20  1  0  0  0  0
 25 24  1  0  0  0  0
 25 27  1  0  0  0  0
 26 25  2  0  0  0  0
 28 27  1  0  0  0  0
 29 28  1  0  0  0  0
 29 30  1  0  0  0  0
 31 30  1  0  0  0  0
 31 27  1  0  0  0  0
M  END
>  <minimizedAffinity>
-5.5239315

>  <minimizedRMSD>
1.08462119

$$$$
