
 OpenBabel03272508513D

 25 27  0  0  1  0  0  0  0  0999 V2000
   38.0700   30.5760   44.5770 C   0  0  2  0  0  0  0  0  0  0  0  0
   37.0020   29.5850   44.6070 C   0  0  0  0  0  0  0  0  0  0  0  0
   36.9350   30.8780   45.4400 C   0  0  1  0  0  0  0  0  0  0  0  0
   39.0230   30.3390   45.1600 H   0  0  0  0  0  0  0  0  0  0  0  0
   36.2940   29.5110   43.7390 H   0  0  0  0  0  0  0  0  0  0  0  0
   37.0680   28.6810   45.2060 H   0  0  0  0  0  0  0  0  0  0  0  0
   36.0480   31.4620   45.1550 H   0  0  0  0  0  0  0  0  0  0  0  0
   39.2050   33.3960   42.4630 C   0  0  0  0  0  0  0  0  0  0  0  0
   38.7810   32.9900   41.1700 C   0  0  0  0  0  0  0  0  0  0  0  0
   38.1010   31.7300   41.0490 C   0  0  0  0  0  0  0  0  0  0  0  0
   37.9000   30.9980   42.1710 N   0  0  0  0  0  0  0  0  0  0  0  0
   38.3300   31.4390   43.3840 C   0  0  0  0  0  0  0  0  0  0  0  0
   38.9730   32.6130   43.5520 N   0  0  0  0  0  0  0  0  0  0  0  0
   39.7060   34.3540   42.4570 H   0  0  0  0  0  0  0  0  0  0  0  0
   38.9630   33.6060   40.3000 H   0  0  0  0  0  0  0  0  0  0  0  0
   37.7680   31.3980   40.0760 H   0  0  0  0  0  0  0  0  0  0  0  0
   35.9330   30.5370   47.6740 C   0  0  0  0  0  0  0  0  0  0  0  0
   34.8100   30.4040   47.1260 O   0  0  0  0  0  0  0  0  0  0  0  0
   37.1260   30.6570   46.8770 N   0  0  0  0  0  0  0  0  0  0  0  0
   38.1090   30.5990   47.2450 H   0  0  0  0  0  0  0  0  0  0  0  0
   36.1500   30.5850   49.1630 C   0  0  0  0  0  3  0  0  0  0  0  0
   37.5550   30.1090   49.4670 C   0  0  0  0  0  2  0  0  0  0  0  0
   37.4260   29.3490   50.7440 C   0  0  0  0  0  2  0  0  0  0  0  0
   35.9690   29.3570   51.1480 C   0  0  0  0  0  2  0  0  0  0  0  0
   35.1910   29.7120   49.8970 C   0  0  0  0  0  2  0  0  0  0  0  0
  1  2  1  0  0  0  0
  1  4  1  1  0  0  0
  1  3  1  0  0  0  0
  2  6  1  0  0  0  0
  2  3  1  0  0  0  0
  3  7  1  6  0  0  0
  3 19  1  0  0  0  0
  5  2  1  0  0  0  0
  8 13  1  0  0  0  0
  9  8  2  0  0  0  0
 10  9  1  0  0  0  0
 10 11  2  0  0  0  0
 11 12  1  0  0  0  0
 12 13  2  0  0  0  0
 12  1  1  0  0  0  0
 14  8  1  0  0  0  0
 15  9  1  0  0  0  0
 16 10  1  0  0  0  0
 17 21  1  0  0  0  0
 18 17  2  0  0  0  0
 19 20  1  0  0  0  0
 19 17  1  0  0  0  0
 21 22  1  0  0  0  0
 21 25  1  0  0  0  0
 22 23  1  0  0  0  0
 23 24  1  0  0  0  0
 25 24  1  0  0  0  0
M  END
>  <minimizedAffinity>
-4.30424309

>  <minimizedRMSD>
3.34819412

$$$$
