
 OpenBabel03272510313D

 28 30  0  0  0  0  0  0  0  0999 V2000
   37.4200   31.0480   49.6090 C   0  0  0  0  0  0  0  0  0  0  0  0
   38.3880   32.0350   49.5530 C   0  0  0  0  0  0  0  0  0  0  0  0
   38.6990   32.5080   48.2740 C   0  0  0  0  0  0  0  0  0  0  0  0
   38.0550   31.9890   47.1890 N   0  0  0  0  0  0  0  0  0  0  0  0
   37.1180   31.0260   47.2890 C   0  0  0  0  0  0  0  0  0  0  0  0
   36.7910   30.5420   48.5300 N   0  0  0  0  0  0  0  0  0  0  0  0
   38.8590   32.4020   50.4570 H   0  0  0  0  0  0  0  0  0  0  0  0
   39.4500   33.2810   48.1750 H   0  0  0  0  0  0  0  0  0  0  0  0
   37.0450   30.5450   50.9750 C   0  0  0  0  0  0  0  0  0  0  0  0
   36.1000   29.4940   51.1780 C   0  0  0  0  0  0  0  0  0  0  0  0
   37.5710   29.1120   51.2270 C   0  0  0  0  0  0  0  0  0  0  0  0
   37.4600   31.2300   51.7580 H   0  0  0  0  0  0  0  0  0  0  0  0
   35.5510   29.4810   52.1620 H   0  0  0  0  0  0  0  0  0  0  0  0
   35.4550   29.1590   50.3640 H   0  0  0  0  0  0  0  0  0  0  0  0
   37.9880   28.8670   52.2030 H   0  0  0  0  0  0  0  0  0  0  0  0
   37.9110   28.5300   50.3690 H   0  0  0  0  0  0  0  0  0  0  0  0
   36.4200   30.4690   46.1390 C   0  0  0  0  0  0  0  0  0  0  0  0
   35.5300   31.0690   45.8210 H   0  0  0  0  0  0  0  0  0  0  0  0
   36.0600   29.4610   46.3180 H   0  0  0  0  0  0  0  0  0  0  0  0
   37.1460   31.0210   43.8090 C   0  0  0  0  0  0  0  0  0  0  0  0
   36.1390   31.7210   43.5260 O   0  0  0  0  0  0  0  0  0  0  0  0
   37.3870   30.3940   45.0550 N   0  0  0  0  0  0  0  0  0  0  0  0
   38.2680   29.8520   45.2480 H   0  0  0  0  0  0  0  0  0  0  0  0
   38.2020   30.8120   42.7560 C   0  0  0  0  0  3  0  0  0  0  0  0
   39.0270   32.0870   42.6780 C   0  0  0  0  0  2  0  0  0  0  0  0
   40.2810   31.7550   43.4860 C   0  0  0  0  0  2  0  0  0  0  0  0
   40.5200   30.3260   43.0240 C   0  0  0  0  0  2  0  0  0  0  0  0
   39.1560   29.7200   43.1440 C   0  0  0  0  0  2  0  0  0  0  0  0
  1  9  1  0  0  0  0
  2  1  1  0  0  0  0
  2  7  1  0  0  0  0
  3  2  2  0  0  0  0
  4  5  2  0  0  0  0
  4  3  1  0  0  0  0
  5  6  1  0  0  0  0
  6  1  2  0  0  0  0
  8  3  1  0  0  0  0
  9 10  1  0  0  0  0
  9 11  1  0  0  0  0
  9 12  1  0  0  0  0
 10 11  1  0  0  0  0
 10 13  1  0  0  0  0
 11 15  1  0  0  0  0
 14 10  1  0  0  0  0
 16 11  1  0  0  0  0
 17 19  1  0  0  0  0
 17  5  1  0  0  0  0
 18 17  1  0  0  0  0
 20 22  1  0  0  0  0
 21 20  2  0  0  0  0
 22 23  1  0  0  0  0
 22 17  1  0  0  0  0
 24 28  1  0  0  0  0
 24 20  1  0  0  0  0
 25 24  1  0  0  0  0
 25 26  1  0  0  0  0
 27 28  1  0  0  0  0
 27 26  1  0  0  0  0
M  END
>  <minimizedAffinity>
-4.89229441

>  <minimizedRMSD>
3.20177364

$$$$
