
     RDKit          3D

 38 40  0  0  0  0  0  0  0  0999 V2000
   36.9839   31.5661   48.6618 C   0  0  1  0  0  0  0  0  0  0  0  0
   36.2183   30.9167   47.6236 C   0  0  0  0  0  0  0  0  0  0  0  0
   37.1757   30.1244   48.4457 C   0  0  2  0  0  0  0  0  0  0  0  0
   38.1426   32.4612   48.3183 C   0  0  0  0  0  0  0  0  0  0  0  0
   38.5240   33.3835   49.3184 C   0  0  0  0  0  0  0  0  0  0  0  0
   39.5905   34.1832   48.9883 C   0  0  0  0  0  0  0  0  0  0  0  0
   40.1965   34.0548   47.7780 N   0  0  0  0  0  0  0  0  0  0  0  0
   39.8006   33.1578   46.8469 C   0  0  0  0  0  0  0  0  0  0  0  0
   38.7375   32.3418   47.1403 N   0  0  0  0  0  0  0  0  0  0  0  0
   40.4219   32.9919   45.6026 N   0  0  0  0  0  0  0  0  0  0  0  0
   36.6028   29.3046   49.4259 O   0  0  0  0  0  0  0  0  0  0  0  0
   34.6226   27.6800   49.7131 O   0  0  0  0  0  0  0  0  0  0  0  0
   35.0258   28.9410   49.0211 P   0  0  1  0  0  0  0  0  0  0  0  0
   33.9855   30.1362   49.7464 O   0  0  0  0  0  0  0  0  0  0  0  0
   34.8249   28.9637   47.3838 O   0  0  0  0  0  0  0  0  0  0  0  0
   36.5427   31.8229   49.6863 H   0  0  0  0  0  0  0  0  0  0  0  0
   35.1886   31.1771   47.7802 H   0  0  0  0  0  0  0  0  0  0  0  0
   36.5354   31.1369   46.5811 H   0  0  0  0  0  0  0  0  0  0  0  0
   37.8468   29.5783   47.7980 H   0  0  0  0  0  0  0  0  0  0  0  0
   38.0448   33.4875   50.2809 H   0  0  0  0  0  0  0  0  0  0  0  0
   39.9525   34.9184   49.6901 H   0  0  0  0  0  0  0  0  0  0  0  0
   40.5115   33.7118   44.8490 H   0  0  0  0  0  0  0  0  0  0  0  0
   40.9075   32.1612   45.1712 H   0  0  0  0  0  0  0  0  0  0  0  0
   34.3534   30.3839   50.6315 H   0  0  0  0  0  0  0  0  0  0  0  0
   34.8392   27.8295   46.6751 C   0  0  0  0  0  0  0  0  0  0  0  0
   35.3678   26.7248   47.5732 C   0  0  0  0  0  0  0  0  0  0  0  0
   35.3680   25.5728   46.5927 C   0  0  0  0  0  0  0  0  0  0  0  0
   35.7349   26.2032   45.2769 C   0  0  0  0  0  0  0  0  0  0  0  0
   35.7450   27.7140   45.5055 C   0  0  0  0  0  0  0  0  0  0  0  0
   33.8302   27.5360   46.3560 H   0  0  0  0  0  0  0  0  0  0  0  0
   34.7053   26.5405   48.4396 H   0  0  0  0  0  0  0  0  0  0  0  0
   36.4057   27.0089   47.8636 H   0  0  0  0  0  0  0  0  0  0  0  0
   36.0884   24.7834   46.9007 H   0  0  0  0  0  0  0  0  0  0  0  0
   34.3078   25.1935   46.5953 H   0  0  0  0  0  0  0  0  0  0  0  0
   35.0124   25.9527   44.4720 H   0  0  0  0  0  0  0  0  0  0  0  0
   36.7398   25.8109   44.9960 H   0  0  0  0  0  0  0  0  0  0  0  0
   35.3712   28.2087   44.5879 H   0  0  0  0  0  0  0  0  0  0  0  0
   36.7903   27.9832   45.7127 H   0  0  0  0  0  0  0  0  0  0  0  0
  2  3  1  0
  2  1  1  0
  3  1  1  0
  3 11  1  0
  4  1  1  0
  4  5  2  0
  6  5  1  0
  7  6  2  0
  8  9  2  0
  8  7  1  0
  9  4  1  0
 10  8  1  0
 13 11  1  6
 13 12  2  0
 13 14  1  0
 15 13  1  0
  1 16  1  1
  2 17  1  0
  2 18  1  0
  3 19  1  6
  5 20  1  0
  6 21  1  0
 10 22  1  0
 10 23  1  0
 14 24  1  0
 25 26  1  0
 26 27  1  0
 27 28  1  0
 28 29  1  0
 29 25  1  0
 25 30  1  0
 26 31  1  0
 26 32  1  0
 27 33  1  0
 27 34  1  0
 28 35  1  0
 28 36  1  0
 29 37  1  0
 29 38  1  0
 15 25  1  0
M  ISO  7  16  13  17  13  18  13  19  13  20  14  21  14  24   3
M  END
>  <DihAtoms>  (1) 
12,14,24,25

>  <DihDeg>  (1) 
-117.717990795972

$$$$
