
     RDKit          3D

 31 33  0  0  0  0  0  0  0  0999 V2000
   37.5224   31.3994   49.3259 C   0  0  0  0  0  0  0  0  0  0  0  0
   38.1458   32.6447   49.4070 C   0  0  0  0  0  0  0  0  0  0  0  0
   38.9419   32.9868   48.3042 C   0  0  0  0  0  0  0  0  0  0  0  0
   39.0703   32.1224   47.2380 N   0  0  0  0  0  0  0  0  0  0  0  0
   38.4298   30.9146   47.2250 C   0  0  0  0  0  0  0  0  0  0  0  0
   37.6491   30.5484   48.2770 N   0  0  0  0  0  0  0  0  0  0  0  0
   36.6385   31.0378   50.4981 C   0  0  1  0  0  0  0  0  0  0  0  0
   36.1437   29.6870   50.6648 C   0  0  2  0  0  0  0  0  0  0  0  0
   37.3494   30.1023   51.4829 C   0  0  0  0  0  0  0  0  0  0  0  0
   36.3850   28.7445   49.6562 O   0  0  0  0  0  0  0  0  0  0  0  0
   38.0189   33.2924   50.2610 H   0  0  0  0  0  0  0  0  0  0  0  0
   39.4509   33.9354   48.3045 H   0  0  0  0  0  0  0  0  0  0  0  0
   38.5778   30.2958   46.3610 H   0  0  0  0  0  0  0  0  0  0  0  0
   36.2031   31.9255   51.0305 H   0  0  0  0  0  0  0  0  0  0  0  0
   35.1921   29.5218   51.1864 H   0  0  0  0  0  0  0  0  0  0  0  0
   37.1392   30.2352   52.5604 H   0  0  0  0  0  0  0  0  0  0  0  0
   38.3364   29.7228   51.2357 H   0  0  0  0  0  0  0  0  0  0  0  0
   35.2972   27.8857   49.6560 C   0  0  0  0  0  0  0  0  0  0  0  0
   34.0566   28.4776   50.2946 C   0  0  0  0  0  0  0  0  0  0  0  0
   33.0457   27.3800   49.9353 C   0  0  0  0  0  0  0  0  0  0  0  0
   33.4904   26.8693   48.5639 C   0  0  0  0  0  0  0  0  0  0  0  0
   34.7770   27.6218   48.2466 C   0  0  0  0  0  0  0  0  0  0  0  0
   35.4818   26.9026   50.0959 H   0  0  0  0  0  0  0  0  0  0  0  0
   34.1394   28.5882   51.3901 H   0  0  0  0  0  0  0  0  0  0  0  0
   33.7032   29.3925   49.7932 H   0  0  0  0  0  0  0  0  0  0  0  0
   32.0086   27.7578   49.9132 H   0  0  0  0  0  0  0  0  0  0  0  0
   33.1756   26.5997   50.7097 H   0  0  0  0  0  0  0  0  0  0  0  0
   32.7126   27.0171   47.8028 H   0  0  0  0  0  0  0  0  0  0  0  0
   33.7948   25.7892   48.6782 H   0  0  0  0  0  0  0  0  0  0  0  0
   35.4485   27.0126   47.6372 H   0  0  0  0  0  0  0  0  0  0  0  0
   34.5187   28.5815   47.7538 H   0  0  0  0  0  0  0  0  0  0  0  0
  1  2  2  0
  1  7  1  0
  3  2  1  0
  4  3  2  0
  5  4  1  0
  5  6  2  0
  6  1  1  0
  7  8  1  0
  7  9  1  0
  8  9  1  0
 10  8  1  0
  2 11  1  0
  3 12  1  0
  5 13  1  0
  7 14  1  1
  8 15  1  1
  9 16  1  0
  9 17  1  0
 18 19  1  0
 19 20  1  0
 20 21  1  0
 21 22  1  0
 22 18  1  0
 18 23  1  0
 19 24  1  0
 19 25  1  0
 20 26  1  0
 20 27  1  0
 21 28  1  0
 21 29  1  0
 22 30  1  0
 22 31  1  0
 10 18  1  0
M  ISO  7  11  14  12  14  13  14  14  13  15  13  16  13  17  13
M  END
>  <DihAtoms>  (1) 
7,9,17,18

>  <DihDeg>  (1) 
126.21635427698038

$$$$
