
     RDKit          3D

 30 31  0  0  0  0  0  0  0  0999 V2000
   37.3703   30.1841   51.4344 C   0  0  0  0  0  0  0  0  0  0  0  0
   38.1336   30.6756   50.3387 C   0  0  0  0  0  0  0  0  0  0  0  0
   37.6976   30.3976   49.0179 C   0  0  0  0  0  0  0  0  0  0  0  0
   36.5472   29.6594   48.9143 N   0  0  0  0  0  0  0  0  0  0  0  0
   35.8611   29.2176   49.9698 C   0  0  0  0  0  0  0  0  0  0  0  0
   36.2680   29.4770   51.2216 N   0  0  0  0  0  0  0  0  0  0  0  0
   34.6624   28.4486   49.6734 C   0  0  0  0  0  0  0  0  0  0  0  0
   34.4924   27.9828   48.4809 C   0  0  0  0  0  0  0  0  0  0  0  0
   33.3864   27.1944   47.9839 C   0  0  0  0  0  0  0  0  0  0  0  0
   37.7607   30.4333   52.4118 H   0  0  0  0  0  0  0  0  0  0  0  0
   39.0436   31.2595   50.4173 H   0  0  0  0  0  0  0  0  0  0  0  0
   38.2319   30.7417   48.1625 H   0  0  0  0  0  0  0  0  0  0  0  0
   33.9225   28.2671   50.4169 H   0  0  0  0  0  0  0  0  0  0  0  0
   35.2315   28.1528   47.6805 H   0  0  0  0  0  0  0  0  0  0  0  0
   32.9389   27.6595   47.0804 H   0  0  0  0  0  0  0  0  0  0  0  0
   33.8180   26.2168   47.6173 H   0  0  0  0  0  0  0  0  0  0  0  0
   32.3139   26.8180   48.9595 C   0  0  0  0  0  0  0  0  0  0  0  0
   31.5242   28.1248   49.1755 C   0  0  0  0  0  0  0  0  0  0  0  0
   30.1264   27.7195   49.5135 C   0  0  0  0  0  0  0  0  0  0  0  0
   30.0320   26.2499   49.2303 C   0  0  0  0  0  0  0  0  0  0  0  0
   31.2044   26.0121   48.2691 C   0  0  0  0  0  0  0  0  0  0  0  0
   32.6367   26.3556   49.8844 H   0  0  0  0  0  0  0  0  0  0  0  0
   32.0198   28.7759   49.9163 H   0  0  0  0  0  0  0  0  0  0  0  0
   31.4753   28.6591   48.2046 H   0  0  0  0  0  0  0  0  0  0  0  0
   29.8657   27.9905   50.5636 H   0  0  0  0  0  0  0  0  0  0  0  0
   29.3625   28.2450   48.8760 H   0  0  0  0  0  0  0  0  0  0  0  0
   30.2754   25.6911   50.1672 H   0  0  0  0  0  0  0  0  0  0  0  0
   29.0659   25.9812   48.7834 H   0  0  0  0  0  0  0  0  0  0  0  0
   31.0020   26.4690   47.2897 H   0  0  0  0  0  0  0  0  0  0  0  0
   31.3871   24.9434   48.2428 H   0  0  0  0  0  0  0  0  0  0  0  0
  2  1  2  0
  3  2  1  0
  4  3  2  0
  4  5  1  0
  5  6  2  0
  6  1  1  0
  7  5  1  0
  8  7  2  0
  9  8  1  0
  1 10  1  0
  2 11  1  0
  3 12  1  0
  7 13  1  0
  8 14  1  0
  9 15  1  0
  9 16  1  0
 17 18  1  0
 18 19  1  0
 19 20  1  0
 20 21  1  0
 21 17  1  0
 17 22  1  0
 18 23  1  0
 18 24  1  0
 19 25  1  0
 19 26  1  0
 20 27  1  0
 20 28  1  0
 21 29  1  0
 21 30  1  0
  9 17  1  0
M  ISO  5  10  14  11  14  12  14  15   8  16   8
M  END
>  <DihAtoms>  (1) 
7,8,16,17

>  <DihDeg>  (1) 
179.40645608169527

$$$$
