
 OpenBabel03272503493D

 33 35  0  0  1  0  0  0  0  0999 V2000
   33.0820   27.3290   45.8930 C   0  0  1  0  0  0  0  0  0  0  0  0
   33.9130   27.4740   47.1870 C   0  0  2  0  0  0  0  0  0  0  0  0
   33.8210   26.2410   47.7530 O   0  0  0  0  0  0  0  0  0  0  0  0
   34.0570   25.3630   46.7090 C   0  0  0  0  0  0  0  0  0  0  0  0
   33.4360   25.9480   45.4620 C   0  0  2  0  0  0  0  0  0  0  0  0
   33.4510   28.0690   45.1510 H   0  0  0  0  0  0  0  0  0  0  0  0
   34.9230   27.7860   46.8390 H   0  0  0  0  0  0  0  0  0  0  0  0
   35.1280   25.1000   46.5940 H   0  0  0  0  0  0  0  0  0  0  0  0
   33.5230   24.4190   46.9560 H   0  0  0  0  0  0  0  0  0  0  0  0
   32.5870   25.3350   45.0990 H   0  0  0  0  0  0  0  0  0  0  0  0
   31.7400   27.5240   46.1540 O   0  0  0  0  0  0  0  0  0  0  0  0
   31.3460   28.1090   45.4410 H   0  0  0  0  0  0  0  0  0  0  0  0
   33.3300   28.5110   47.8540 O   0  0  0  0  0  0  0  0  0  0  0  0
   35.3480   29.8250   46.7710 O   0  0  0  0  0  0  0  0  0  0  0  0
   34.0950   29.9930   47.6180 P   0  0  1  0  0  0  0  0  0  0  0  0
   33.0930   31.0300   46.7300 O   0  0  0  0  0  0  0  0  0  0  0  0
   32.2620   31.2160   47.2310 H   0  0  0  0  0  0  0  0  0  0  0  0
   34.4150   30.6380   49.1620 O   0  0  0  0  0  0  0  0  0  0  0  0
   35.6410   30.5150   49.7780 C   0  0  0  0  0  0  0  0  0  0  0  0
   35.9640   29.4950   50.7010 C   0  0  0  0  0  0  0  0  0  0  0  0
   37.2450   29.4980   51.2450 C   0  0  0  0  0  0  0  0  0  0  0  0
   38.1150   30.4770   50.8610 N   0  0  0  0  0  0  0  0  0  0  0  0
   37.7700   31.4470   49.9690 C   0  0  0  0  0  0  0  0  0  0  0  0
   36.5220   31.4620   49.4250 N   0  0  0  0  0  0  0  0  0  0  0  0
   35.1950   28.7700   50.9310 H   0  0  0  0  0  0  0  0  0  0  0  0
   37.5030   28.7260   51.9490 H   0  0  0  0  0  0  0  0  0  0  0  0
   38.4970   32.1950   49.7030 H   0  0  0  0  0  0  0  0  0  0  0  0
   34.3860   25.9900   44.4420 O   0  0  0  0  0  0  0  0  0  0  0  0
   33.8940   25.5300   43.2270 C   0  0  0  0  0  3  0  0  0  0  0  0
   32.5280   24.9270   43.4170 C   0  0  0  0  0  2  0  0  0  0  0  0
   31.5690   25.7220   42.5920 C   0  0  0  0  0  2  0  0  0  0  0  0
   32.3620   26.6140   41.6770 C   0  0  0  0  0  2  0  0  0  0  0  0
   33.7680   26.6280   42.2060 C   0  0  0  0  0  2  0  0  0  0  0  0
  1  6  1  6  0  0  0
  1 11  1  0  0  0  0
  1  2  1  0  0  0  0
  2  7  1  6  0  0  0
  2  3  1  0  0  0  0
  2 13  1  0  0  0  0
  4  9  1  0  0  0  0
  4  3  1  0  0  0  0
  5 10  1  6  0  0  0
  5  1  1  0  0  0  0
  5  4  1  0  0  0  0
  8  4  1  0  0  0  0
 12 11  1  0  0  0  0
 15 14  2  6  0  0  0
 15 13  1  0  0  0  0
 15 18  1  0  0  0  0
 16 17  1  0  0  0  0
 16 15  1  0  0  0  0
 18 19  1  0  0  0  0
 19 20  1  0  0  0  0
 20 25  1  0  0  0  0
 20 21  2  0  0  0  0
 21 26  1  0  0  0  0
 22 21  1  0  0  0  0
 23 22  2  0  0  0  0
 24 19  2  0  0  0  0
 24 23  1  0  0  0  0
 27 23  1  0  0  0  0
 28  5  1  0  0  0  0
 29 30  1  0  0  0  0
 29 28  1  0  0  0  0
 31 30  1  0  0  0  0
 32 33  1  0  0  0  0
 32 31  1  0  0  0  0
 33 29  1  0  0  0  0
M  END
>  <minimizedAffinity>
-3.86820602

>  <minimizedRMSD>
0.344919622

$$$$
