
 OpenBabel03272507313D

 25 27  0  0  0  0  0  0  0  0999 V2000
   37.8170   26.4350   34.2480 C   0  0  0  0  0  0  0  0  0  0  0  0
   38.1300   27.3830   35.1630 C   0  0  0  0  0  0  0  0  0  0  0  0
   38.3970   26.7540   36.3790 C   0  0  0  0  0  0  0  0  0  0  0  0
   38.2180   25.3800   36.1090 C   0  0  0  0  0  0  0  0  0  0  0  0
   37.8870   25.3020   34.8640 O   0  0  0  0  0  0  0  0  0  0  0  0
   38.1800   28.4540   35.0250 H   0  0  0  0  0  0  0  0  0  0  0  0
   38.6760   27.1780   37.3200 H   0  0  0  0  0  0  0  0  0  0  0  0
   37.4840   26.7460   32.8730 C   0  0  0  0  0  0  0  0  0  0  0  0
   37.8580   27.8240   32.3930 O   0  0  0  0  0  0  0  0  0  0  0  0
   36.7180   25.7470   32.1390 C   0  0  0  0  0  0  0  0  0  0  0  0
   35.5730   26.1950   31.4800 C   0  0  0  0  0  0  0  0  0  0  0  0
   34.8120   25.2780   30.7700 C   0  0  0  0  0  0  0  0  0  0  0  0
   35.2400   23.9720   30.7620 N   0  0  0  0  0  0  0  0  0  0  0  0
   36.3390   23.5650   31.4000 C   0  0  0  0  0  0  0  0  0  0  0  0
   37.0820   24.4450   32.0910 N   0  0  0  0  0  0  0  0  0  0  0  0
   35.2870   27.2400   31.5250 H   0  0  0  0  0  0  0  0  0  0  0  0
   33.9300   25.6230   30.2620 H   0  0  0  0  0  0  0  0  0  0  0  0
   36.5890   22.5140   31.3310 H   0  0  0  0  0  0  0  0  0  0  0  0
   38.3930   24.3170   37.1080 C   0  0  0  0  0  0  0  0  0  0  0  0
   37.7800   24.3890   38.2080 O   0  0  0  0  0  0  0  0  0  0  0  0
   39.2940   23.2150   36.7460 C   0  0  0  0  0  3  0  0  0  0  0  0
   40.0910   22.7010   37.9450 C   0  0  0  0  0  2  0  0  0  0  0  0
   41.0600   21.7700   37.2400 C   0  0  0  0  0  2  0  0  0  0  0  0
   41.2040   22.3150   35.8120 C   0  0  0  0  0  2  0  0  0  0  0  0
   40.4500   23.6500   35.8780 C   0  0  0  0  0  2  0  0  0  0  0  0
  1  5  1  0  0  0  0
  1  2  2  0  0  0  0
  2  3  1  0  0  0  0
  3  7  1  0  0  0  0
  4  3  2  0  0  0  0
  4 19  1  0  0  0  0
  5  4  1  0  0  0  0
  6  2  1  0  0  0  0
  8  1  1  0  0  0  0
  9  8  2  0  0  0  0
 10  8  1  0  0  0  0
 11 16  1  0  0  0  0
 11 10  2  0  0  0  0
 12 11  1  0  0  0  0
 13 12  2  0  0  0  0
 13 14  1  0  0  0  0
 14 15  2  0  0  0  0
 15 10  1  0  0  0  0
 17 12  1  0  0  0  0
 18 14  1  0  0  0  0
 19 20  2  0  0  0  0
 21 19  1  0  0  0  0
 21 22  1  0  0  0  0
 23 22  1  0  0  0  0
 24 25  1  0  0  0  0
 24 23  1  0  0  0  0
 25 21  1  0  0  0  0
M  END
>  <minimizedAffinity>
-5.37017536

$$$$

 OpenBabel03272507313D

 25 27  0  0  0  0  0  0  0  0999 V2000
   36.8210   27.7660   34.3860 C   0  0  0  0  0  0  0  0  0  0  0  0
   37.6570   28.1220   35.3910 C   0  0  0  0  0  0  0  0  0  0  0  0
   38.3100   26.9790   35.8510 C   0  0  0  0  0  0  0  0  0  0  0  0
   37.7960   25.9360   35.0500 C   0  0  0  0  0  0  0  0  0  0  0  0
   36.9520   26.4890   34.2440 O   0  0  0  0  0  0  0  0  0  0  0  0
   37.8280   29.1090   35.7990 H   0  0  0  0  0  0  0  0  0  0  0  0
   39.0360   26.8740   36.6280 H   0  0  0  0  0  0  0  0  0  0  0  0
   35.9860   28.7160   33.6800 C   0  0  0  0  0  0  0  0  0  0  0  0
   35.9580   28.6870   32.4420 O   0  0  0  0  0  0  0  0  0  0  0  0
   35.2250   29.6550   34.4940 C   0  0  0  0  0  0  0  0  0  0  0  0
   33.8540   29.4200   34.6040 C   0  0  0  0  0  0  0  0  0  0  0  0
   33.0910   30.2900   35.3690 C   0  0  0  0  0  0  0  0  0  0  0  0
   33.7410   31.3380   35.9740 N   0  0  0  0  0  0  0  0  0  0  0  0
   35.0530   31.5440   35.8540 C   0  0  0  0  0  0  0  0  0  0  0  0
   35.8020   30.7090   35.1160 N   0  0  0  0  0  0  0  0  0  0  0  0
   33.3990   28.5740   34.1020 H   0  0  0  0  0  0  0  0  0  0  0  0
   32.0340   30.1100   35.4540 H   0  0  0  0  0  0  0  0  0  0  0  0
   35.4680   32.4000   36.3720 H   0  0  0  0  0  0  0  0  0  0  0  0
   38.1980   24.5290   35.1760 C   0  0  0  0  0  0  0  0  0  0  0  0
   37.9500   23.7230   34.2370 O   0  0  0  0  0  0  0  0  0  0  0  0
   38.8790   24.1480   36.4200 C   0  0  0  0  0  3  0  0  0  0  0  0
   39.7160   22.8790   36.2580 C   0  0  0  0  0  2  0  0  0  0  0  0
   40.0880   22.6180   37.7060 C   0  0  0  0  0  2  0  0  0  0  0  0
   38.9740   23.2550   38.5480 C   0  0  0  0  0  2  0  0  0  0  0  0
   37.9350   23.6570   37.4920 C   0  0  0  0  0  2  0  0  0  0  0  0
  1  2  2  0  0  0  0
  2  6  1  0  0  0  0
  2  3  1  0  0  0  0
  3  7  1  0  0  0  0
  4 19  1  0  0  0  0
  4  3  2  0  0  0  0
  5  1  1  0  0  0  0
  5  4  1  0  0  0  0
  8  1  1  0  0  0  0
  8 10  1  0  0  0  0
  9  8  2  0  0  0  0
 10 11  2  0  0  0  0
 10 15  1  0  0  0  0
 11 12  1  0  0  0  0
 12 17  1  0  0  0  0
 12 13  2  0  0  0  0
 14 13  1  0  0  0  0
 14 18  1  0  0  0  0
 15 14  2  0  0  0  0
 16 11  1  0  0  0  0
 19 21  1  0  0  0  0
 20 19  2  0  0  0  0
 21 25  1  0  0  0  0
 22 21  1  0  0  0  0
 22 23  1  0  0  0  0
 23 24  1  0  0  0  0
 25 24  1  0  0  0  0
M  END
>  <minimizedAffinity>
-5.30253363

$$$$

 OpenBabel03272507313D

 25 27  0  0  0  0  0  0  0  0999 V2000
   36.7840   27.7110   34.3290 C   0  0  0  0  0  0  0  0  0  0  0  0
   37.6390   28.1040   35.3030 C   0  0  0  0  0  0  0  0  0  0  0  0
   38.3160   26.9810   35.7790 C   0  0  0  0  0  0  0  0  0  0  0  0
   37.7970   25.9110   35.0180 C   0  0  0  0  0  0  0  0  0  0  0  0
   36.9280   26.4320   34.2180 O   0  0  0  0  0  0  0  0  0  0  0  0
   37.8070   29.1030   35.6810 H   0  0  0  0  0  0  0  0  0  0  0  0
   39.0620   26.9060   36.5410 H   0  0  0  0  0  0  0  0  0  0  0  0
   35.9210   28.6310   33.6170 C   0  0  0  0  0  0  0  0  0  0  0  0
   34.9500   29.1230   34.2080 O   0  0  0  0  0  0  0  0  0  0  0  0
   36.2670   28.9180   32.2310 C   0  0  0  0  0  0  0  0  0  0  0  0
   36.2370   30.2580   31.8420 C   0  0  0  0  0  0  0  0  0  0  0  0
   36.5580   30.5770   30.5320 C   0  0  0  0  0  0  0  0  0  0  0  0
   36.8870   29.5410   29.6910 N   0  0  0  0  0  0  0  0  0  0  0  0
   36.9090   28.2670   30.0840 C   0  0  0  0  0  0  0  0  0  0  0  0
   36.5990   27.9460   31.3510 N   0  0  0  0  0  0  0  0  0  0  0  0
   35.9690   31.0310   32.5540 H   0  0  0  0  0  0  0  0  0  0  0  0
   36.5360   31.6090   30.2310 H   0  0  0  0  0  0  0  0  0  0  0  0
   37.1820   27.5260   29.3420 H   0  0  0  0  0  0  0  0  0  0  0  0
   38.2190   24.5120   35.1730 C   0  0  0  0  0  0  0  0  0  0  0  0
   38.0090   23.6910   34.2380 O   0  0  0  0  0  0  0  0  0  0  0  0
   38.8730   24.1590   36.4390 C   0  0  0  0  0  3  0  0  0  0  0  0
   39.7250   22.8950   36.3170 C   0  0  0  0  0  2  0  0  0  0  0  0
   40.0650   22.6620   37.7780 C   0  0  0  0  0  2  0  0  0  0  0  0
   38.9250   23.3020   38.5830 C   0  0  0  0  0  2  0  0  0  0  0  0
   37.9080   23.6770   37.4960 C   0  0  0  0  0  2  0  0  0  0  0  0
  1  2  2  0  0  0  0
  2  6  1  0  0  0  0
  2  3  1  0  0  0  0
  3  7  1  0  0  0  0
  4 19  1  0  0  0  0
  4  3  2  0  0  0  0
  5  1  1  0  0  0  0
  5  4  1  0  0  0  0
  8  9  2  0  0  0  0
  8  1  1  0  0  0  0
 10  8  1  0  0  0  0
 11 10  1  0  0  0  0
 11 16  1  0  0  0  0
 12 11  2  0  0  0  0
 13 14  2  0  0  0  0
 13 12  1  0  0  0  0
 14 15  1  0  0  0  0
 15 10  2  0  0  0  0
 17 12  1  0  0  0  0
 18 14  1  0  0  0  0
 19 21  1  0  0  0  0
 20 19  2  0  0  0  0
 21 25  1  0  0  0  0
 22 21  1  0  0  0  0
 22 23  1  0  0  0  0
 23 24  1  0  0  0  0
 25 24  1  0  0  0  0
M  END
>  <minimizedAffinity>
-5.24852848

$$$$

 OpenBabel03272507313D

 25 27  0  0  0  0  0  0  0  0999 V2000
   38.2120   25.3050   36.1260 C   0  0  0  0  0  0  0  0  0  0  0  0
   38.4870   26.6040   36.3960 C   0  0  0  0  0  0  0  0  0  0  0  0
   38.1880   27.3650   35.2660 C   0  0  0  0  0  0  0  0  0  0  0  0
   37.7240   26.4220   34.3220 C   0  0  0  0  0  0  0  0  0  0  0  0
   37.7760   25.2740   34.9110 O   0  0  0  0  0  0  0  0  0  0  0  0
   38.8700   27.0290   37.3140 H   0  0  0  0  0  0  0  0  0  0  0  0
   38.2760   28.4190   35.1100 H   0  0  0  0  0  0  0  0  0  0  0  0
   38.4090   24.2410   37.0890 C   0  0  0  0  0  0  0  0  0  0  0  0
   37.6590   24.1730   38.0710 O   0  0  0  0  0  0  0  0  0  0  0  0
   39.4970   23.3080   36.8250 C   0  0  0  0  0  0  0  0  0  0  0  0
   39.8790   23.1520   35.4920 C   0  0  0  0  0  0  0  0  0  0  0  0
   40.9110   22.2740   35.1950 C   0  0  0  0  0  0  0  0  0  0  0  0
   41.4960   21.6070   36.2430 N   0  0  0  0  0  0  0  0  0  0  0  0
   41.1140   21.7710   37.5110 C   0  0  0  0  0  0  0  0  0  0  0  0
   40.1160   22.6180   37.8110 N   0  0  0  0  0  0  0  0  0  0  0  0
   39.3780   23.7080   34.7080 H   0  0  0  0  0  0  0  0  0  0  0  0
   41.2060   22.1540   34.1670 H   0  0  0  0  0  0  0  0  0  0  0  0
   41.6410   21.1970   38.2630 H   0  0  0  0  0  0  0  0  0  0  0  0
   37.2880   26.7680   32.9630 C   0  0  0  0  0  0  0  0  0  0  0  0
   37.7580   27.7950   32.4000 O   0  0  0  0  0  0  0  0  0  0  0  0
   36.3100   25.8690   32.3370 C   0  0  0  0  0  3  0  0  0  0  0  0
   36.9760   24.6830   31.6400 C   0  0  0  0  0  2  0  0  0  0  0  0
   35.7790   24.0910   30.9190 C   0  0  0  0  0  2  0  0  0  0  0  0
   34.8030   25.2550   30.6980 C   0  0  0  0  0  2  0  0  0  0  0  0
   35.6230   26.4760   31.1370 C   0  0  0  0  0  2  0  0  0  0  0  0
  1  2  2  0  0  0  0
  1  8  1  0  0  0  0
  2  6  1  0  0  0  0
  3  2  1  0  0  0  0
  4  5  1  0  0  0  0
  4  3  2  0  0  0  0
  5  1  1  0  0  0  0
  7  3  1  0  0  0  0
  8  9  2  0  0  0  0
 10  8  1  0  0  0  0
 10 15  1  0  0  0  0
 11 10  2  0  0  0  0
 12 11  1  0  0  0  0
 12 13  2  0  0  0  0
 13 14  1  0  0  0  0
 14 15  2  0  0  0  0
 14 18  1  0  0  0  0
 16 11  1  0  0  0  0
 17 12  1  0  0  0  0
 19  4  1  0  0  0  0
 20 19  2  0  0  0  0
 21 19  1  0  0  0  0
 22 21  1  0  0  0  0
 23 22  1  0  0  0  0
 24 23  1  0  0  0  0
 24 25  1  0  0  0  0
 25 21  1  0  0  0  0
M  END
>  <minimizedAffinity>
-5.24794817

$$$$

 OpenBabel03272507313D

 25 27  0  0  0  0  0  0  0  0999 V2000
   38.0300   25.4300   35.9870 C   0  0  0  0  0  0  0  0  0  0  0  0
   38.4030   26.7140   36.2050 C   0  0  0  0  0  0  0  0  0  0  0  0
   38.0070   27.4830   35.1120 C   0  0  0  0  0  0  0  0  0  0  0  0
   37.3810   26.5620   34.2430 C   0  0  0  0  0  0  0  0  0  0  0  0
   37.4460   25.4160   34.8350 O   0  0  0  0  0  0  0  0  0  0  0  0
   38.9180   27.1230   37.0640 H   0  0  0  0  0  0  0  0  0  0  0  0
   38.1290   28.5300   34.9330 H   0  0  0  0  0  0  0  0  0  0  0  0
   38.2890   24.3620   36.9300 C   0  0  0  0  0  0  0  0  0  0  0  0
   37.5880   24.2760   37.9480 O   0  0  0  0  0  0  0  0  0  0  0  0
   39.3760   23.4470   36.6070 C   0  0  0  0  0  0  0  0  0  0  0  0
   39.9610   22.7680   37.6750 C   0  0  0  0  0  0  0  0  0  0  0  0
   41.0000   21.8870   37.4140 C   0  0  0  0  0  0  0  0  0  0  0  0
   41.3900   21.7400   36.1050 N   0  0  0  0  0  0  0  0  0  0  0  0
   40.8160   22.4000   35.0980 C   0  0  0  0  0  0  0  0  0  0  0  0
   39.8090   23.2550   35.3400 N   0  0  0  0  0  0  0  0  0  0  0  0
   39.6090   22.9280   38.6880 H   0  0  0  0  0  0  0  0  0  0  0  0
   41.4530   21.3630   38.2370 H   0  0  0  0  0  0  0  0  0  0  0  0
   41.1980   22.2110   34.1020 H   0  0  0  0  0  0  0  0  0  0  0  0
   36.7990   26.9230   32.9440 C   0  0  0  0  0  0  0  0  0  0  0  0
   36.3520   26.0160   32.1890 O   0  0  0  0  0  0  0  0  0  0  0  0
   36.7780   28.3510   32.6060 C   0  0  0  0  0  3  0  0  0  0  0  0
   35.4470   29.0120   32.9660 C   0  0  0  0  0  2  0  0  0  0  0  0
   35.6360   30.3670   32.3100 C   0  0  0  0  0  2  0  0  0  0  0  0
   36.6230   30.1410   31.1560 C   0  0  0  0  0  2  0  0  0  0  0  0
   36.7630   28.6130   31.1190 C   0  0  0  0  0  2  0  0  0  0  0  0
  1  2  2  0  0  0  0
  1  8  1  0  0  0  0
  2  6  1  0  0  0  0
  3  2  1  0  0  0  0
  4  5  1  0  0  0  0
  4  3  2  0  0  0  0
  5  1  1  0  0  0  0
  7  3  1  0  0  0  0
  8  9  2  0  0  0  0
 10  8  1  0  0  0  0
 10 11  1  0  0  0  0
 11 16  1  0  0  0  0
 12 11  2  0  0  0  0
 12 17  1  0  0  0  0
 13 12  1  0  0  0  0
 14 15  1  0  0  0  0
 14 13  2  0  0  0  0
 15 10  2  0  0  0  0
 18 14  1  0  0  0  0
 19  4  1  0  0  0  0
 20 19  2  0  0  0  0
 21 19  1  0  0  0  0
 21 22  1  0  0  0  0
 23 22  1  0  0  0  0
 24 23  1  0  0  0  0
 25 24  1  0  0  0  0
 25 21  1  0  0  0  0
M  END
>  <minimizedAffinity>
-5.1521039

$$$$

 OpenBabel03272507313D

 25 27  0  0  0  0  0  0  0  0999 V2000
   37.8110   27.2270   34.4480 C   0  0  0  0  0  0  0  0  0  0  0  0
   37.5130   27.2260   33.1270 C   0  0  0  0  0  0  0  0  0  0  0  0
   36.4900   28.1460   32.9010 C   0  0  0  0  0  0  0  0  0  0  0  0
   36.2130   28.6810   34.1790 C   0  0  0  0  0  0  0  0  0  0  0  0
   37.0210   28.0910   34.9940 O   0  0  0  0  0  0  0  0  0  0  0  0
   37.9630   26.6340   32.3410 H   0  0  0  0  0  0  0  0  0  0  0  0
   36.0010   28.4140   31.9890 H   0  0  0  0  0  0  0  0  0  0  0  0
   38.8360   26.3830   35.0270 C   0  0  0  0  0  0  0  0  0  0  0  0
   39.9790   26.8360   35.1690 O   0  0  0  0  0  0  0  0  0  0  0  0
   38.4380   25.0340   35.4080 C   0  0  0  0  0  0  0  0  0  0  0  0
   37.9950   24.8580   36.7190 C   0  0  0  0  0  0  0  0  0  0  0  0
   37.6070   23.5900   37.1250 C   0  0  0  0  0  0  0  0  0  0  0  0
   37.6850   22.5770   36.2000 N   0  0  0  0  0  0  0  0  0  0  0  0
   38.1130   22.7680   34.9510 C   0  0  0  0  0  0  0  0  0  0  0  0
   38.4910   23.9910   34.5470 N   0  0  0  0  0  0  0  0  0  0  0  0
   37.9560   25.6980   37.4030 H   0  0  0  0  0  0  0  0  0  0  0  0
   37.2650   23.4540   38.1360 H   0  0  0  0  0  0  0  0  0  0  0  0
   38.1360   21.9030   34.3000 H   0  0  0  0  0  0  0  0  0  0  0  0
   35.1900   29.7030   34.4370 C   0  0  0  0  0  0  0  0  0  0  0  0
   34.0350   29.5660   33.9470 O   0  0  0  0  0  0  0  0  0  0  0  0
   35.5930   30.8420   35.2700 C   0  0  0  0  0  3  0  0  0  0  0  0
   34.4430   31.3680   36.1290 C   0  0  0  0  0  2  0  0  0  0  0  0
   35.0760   32.6350   36.6750 C   0  0  0  0  0  2  0  0  0  0  0  0
   36.1290   33.0570   35.6420 C   0  0  0  0  0  2  0  0  0  0  0  0
   35.8680   32.0960   34.4750 C   0  0  0  0  0  2  0  0  0  0  0  0
  1  5  1  0  0  0  0
  1  8  1  0  0  0  0
  2  1  2  0  0  0  0
  3  2  1  0  0  0  0
  3  4  2  0  0  0  0
  4 19  1  0  0  0  0
  4  5  1  0  0  0  0
  6  2  1  0  0  0  0
  7  3  1  0  0  0  0
  8  9  2  0  0  0  0
  8 10  1  0  0  0  0
 10 11  1  0  0  0  0
 11 12  2  0  0  0  0
 11 16  1  0  0  0  0
 12 17  1  0  0  0  0
 13 12  1  0  0  0  0
 14 13  2  0  0  0  0
 15 14  1  0  0  0  0
 15 10  2  0  0  0  0
 18 14  1  0  0  0  0
 19 21  1  0  0  0  0
 20 19  2  0  0  0  0
 21 22  1  0  0  0  0
 22 23  1  0  0  0  0
 24 23  1  0  0  0  0
 25 21  1  0  0  0  0
 25 24  1  0  0  0  0
M  END
>  <minimizedAffinity>
-5.14748287

$$$$

 OpenBabel03272507313D

 25 27  0  0  0  0  0  0  0  0999 V2000
   36.6200   25.7860   32.4610 C   0  0  0  0  0  0  0  0  0  0  0  0
   36.7310   27.1350   32.5130 C   0  0  0  0  0  0  0  0  0  0  0  0
   37.2910   27.4870   33.7400 C   0  0  0  0  0  0  0  0  0  0  0  0
   37.4960   26.2540   34.3980 C   0  0  0  0  0  0  0  0  0  0  0  0
   37.0800   25.3430   33.5830 O   0  0  0  0  0  0  0  0  0  0  0  0
   36.4510   27.8570   31.7580 H   0  0  0  0  0  0  0  0  0  0  0  0
   37.5260   28.4540   34.1310 H   0  0  0  0  0  0  0  0  0  0  0  0
   36.0750   25.0820   31.3180 C   0  0  0  0  0  0  0  0  0  0  0  0
   35.2570   25.6610   30.5900 O   0  0  0  0  0  0  0  0  0  0  0  0
   36.5370   23.7170   31.1040 C   0  0  0  0  0  0  0  0  0  0  0  0
   35.6040   22.7000   31.3090 C   0  0  0  0  0  0  0  0  0  0  0  0
   36.0020   21.3850   31.1170 C   0  0  0  0  0  0  0  0  0  0  0  0
   37.3020   21.1670   30.7330 N   0  0  0  0  0  0  0  0  0  0  0  0
   38.1780   22.1550   30.5430 C   0  0  0  0  0  0  0  0  0  0  0  0
   37.8050   23.4320   30.7260 N   0  0  0  0  0  0  0  0  0  0  0  0
   34.5910   22.9370   31.6130 H   0  0  0  0  0  0  0  0  0  0  0  0
   35.2830   20.6010   31.2760 H   0  0  0  0  0  0  0  0  0  0  0  0
   39.1800   21.8750   30.2400 H   0  0  0  0  0  0  0  0  0  0  0  0
   38.0740   26.1270   35.7420 C   0  0  0  0  0  0  0  0  0  0  0  0
   38.4880   27.1570   36.3420 O   0  0  0  0  0  0  0  0  0  0  0  0
   38.1300   24.7740   36.3090 C   0  0  0  0  0  3  0  0  0  0  0  0
   38.1340   24.7860   37.8380 C   0  0  0  0  0  2  0  0  0  0  0  0
   38.4250   23.3220   38.1150 C   0  0  0  0  0  2  0  0  0  0  0  0
   39.1910   22.8060   36.8890 C   0  0  0  0  0  2  0  0  0  0  0  0
   39.4570   24.0880   36.0880 C   0  0  0  0  0  2  0  0  0  0  0  0
  1  2  2  0  0  0  0
  1  5  1  0  0  0  0
  2  3  1  0  0  0  0
  3  7  1  0  0  0  0
  3  4  2  0  0  0  0
  4 19  1  0  0  0  0
  5  4  1  0  0  0  0
  6  2  1  0  0  0  0
  8  1  1  0  0  0  0
  9  8  2  0  0  0  0
 10 11  1  0  0  0  0
 10  8  1  0  0  0  0
 11 16  1  0  0  0  0
 12 17  1  0  0  0  0
 12 11  2  0  0  0  0
 13 12  1  0  0  0  0
 14 15  1  0  0  0  0
 14 13  2  0  0  0  0
 15 10  2  0  0  0  0
 18 14  1  0  0  0  0
 19 21  1  0  0  0  0
 19 20  2  0  0  0  0
 21 22  1  0  0  0  0
 22 23  1  0  0  0  0
 24 23  1  0  0  0  0
 25 21  1  0  0  0  0
 25 24  1  0  0  0  0
M  END
>  <minimizedAffinity>
-5.13096142

$$$$

 OpenBabel03272507313D

 25 27  0  0  0  0  0  0  0  0999 V2000
   36.7250   25.7900   31.6940 C   0  0  0  0  0  0  0  0  0  0  0  0
   35.4650   25.6050   31.2350 C   0  0  0  0  0  0  0  0  0  0  0  0
   35.2970   24.2540   30.9310 C   0  0  0  0  0  0  0  0  0  0  0  0
   36.5430   23.6680   31.2420 C   0  0  0  0  0  0  0  0  0  0  0  0
   37.2910   24.6290   31.6700 O   0  0  0  0  0  0  0  0  0  0  0  0
   34.6840   26.3430   31.1100 H   0  0  0  0  0  0  0  0  0  0  0  0
   34.4400   23.7420   30.5490 H   0  0  0  0  0  0  0  0  0  0  0  0
   37.2340   27.0830   32.1040 C   0  0  0  0  0  0  0  0  0  0  0  0
   37.0650   28.0580   31.3600 O   0  0  0  0  0  0  0  0  0  0  0  0
   37.9220   27.1420   33.3870 C   0  0  0  0  0  0  0  0  0  0  0  0
   39.3000   26.9230   33.3700 C   0  0  0  0  0  0  0  0  0  0  0  0
   39.9950   26.9700   34.5690 C   0  0  0  0  0  0  0  0  0  0  0  0
   39.2740   27.2320   35.7090 N   0  0  0  0  0  0  0  0  0  0  0  0
   37.9560   27.4390   35.7020 C   0  0  0  0  0  0  0  0  0  0  0  0
   37.2730   27.3950   34.5470 N   0  0  0  0  0  0  0  0  0  0  0  0
   39.8130   26.7200   32.4370 H   0  0  0  0  0  0  0  0  0  0  0  0
   41.0570   26.8000   34.5570 H   0  0  0  0  0  0  0  0  0  0  0  0
   37.4830   27.6380   36.6550 H   0  0  0  0  0  0  0  0  0  0  0  0
   36.8420   22.2390   31.0780 C   0  0  0  0  0  0  0  0  0  0  0  0
   37.8520   21.8870   30.4090 O   0  0  0  0  0  0  0  0  0  0  0  0
   35.9210   21.2960   31.7240 C   0  0  0  0  0  3  0  0  0  0  0  0
   36.3510   20.9490   33.1490 C   0  0  0  0  0  2  0  0  0  0  0  0
   35.3780   19.8240   33.4540 C   0  0  0  0  0  2  0  0  0  0  0  0
   35.0100   19.2070   32.0980 C   0  0  0  0  0  2  0  0  0  0  0  0
   35.9740   19.9080   31.1310 C   0  0  0  0  0  2  0  0  0  0  0  0
  1  8  1  0  0  0  0
  2  1  2  0  0  0  0
  3  2  1  0  0  0  0
  3  4  2  0  0  0  0
  4  5  1  0  0  0  0
  5  1  1  0  0  0  0
  6  2  1  0  0  0  0
  7  3  1  0  0  0  0
  8 10  1  0  0  0  0
  9  8  2  0  0  0  0
 10 15  1  0  0  0  0
 11 10  2  0  0  0  0
 11 12  1  0  0  0  0
 12 13  2  0  0  0  0
 14 13  1  0  0  0  0
 14 18  1  0  0  0  0
 15 14  2  0  0  0  0
 16 11  1  0  0  0  0
 17 12  1  0  0  0  0
 19  4  1  0  0  0  0
 19 21  1  0  0  0  0
 20 19  2  0  0  0  0
 21 22  1  0  0  0  0
 22 23  1  0  0  0  0
 24 23  1  0  0  0  0
 25 21  1  0  0  0  0
 25 24  1  0  0  0  0
M  END
>  <minimizedAffinity>
-5.03245831

$$$$

 OpenBabel03272507313D

 25 27  0  0  0  0  0  0  0  0999 V2000
   37.8610   26.3220   33.9050 C   0  0  0  0  0  0  0  0  0  0  0  0
   38.1950   27.1490   32.8860 C   0  0  0  0  0  0  0  0  0  0  0  0
   37.4770   26.7710   31.7530 C   0  0  0  0  0  0  0  0  0  0  0  0
   36.7040   25.6680   32.1800 C   0  0  0  0  0  0  0  0  0  0  0  0
   36.9950   25.4920   33.4260 O   0  0  0  0  0  0  0  0  0  0  0  0
   38.8920   27.9760   32.8990 H   0  0  0  0  0  0  0  0  0  0  0  0
   37.4810   27.1910   30.7700 H   0  0  0  0  0  0  0  0  0  0  0  0
   38.4260   26.4370   35.2340 C   0  0  0  0  0  0  0  0  0  0  0  0
   38.6350   27.5640   35.7020 O   0  0  0  0  0  0  0  0  0  0  0  0
   38.7130   25.1930   35.9370 C   0  0  0  0  0  0  0  0  0  0  0  0
   39.7660   24.4230   35.4420 C   0  0  0  0  0  0  0  0  0  0  0  0
   40.0750   23.2310   36.0800 C   0  0  0  0  0  0  0  0  0  0  0  0
   39.3140   22.8810   37.1690 N   0  0  0  0  0  0  0  0  0  0  0  0
   38.3110   23.6320   37.6250 C   0  0  0  0  0  0  0  0  0  0  0  0
   38.0030   24.7890   37.0150 N   0  0  0  0  0  0  0  0  0  0  0  0
   40.3300   24.7530   34.5770 H   0  0  0  0  0  0  0  0  0  0  0  0
   40.8860   22.6360   35.6990 H   0  0  0  0  0  0  0  0  0  0  0  0
   37.7740   23.2660   38.4910 H   0  0  0  0  0  0  0  0  0  0  0  0
   35.7770   24.9290   31.3130 C   0  0  0  0  0  0  0  0  0  0  0  0
   34.7180   25.4870   30.9130 O   0  0  0  0  0  0  0  0  0  0  0  0
   36.1600   23.5560   30.9610 C   0  0  0  0  0  3  0  0  0  0  0  0
   35.5690   22.5250   31.9240 C   0  0  0  0  0  2  0  0  0  0  0  0
   36.3010   21.2790   31.4620 C   0  0  0  0  0  2  0  0  0  0  0  0
   37.6190   21.7700   30.8460 C   0  0  0  0  0  2  0  0  0  0  0  0
   37.6230   23.2650   31.1930 C   0  0  0  0  0  2  0  0  0  0  0  0
  1  8  1  0  0  0  0
  2  6  1  0  0  0  0
  2  1  2  0  0  0  0
  3  4  2  0  0  0  0
  3  2  1  0  0  0  0
  4  5  1  0  0  0  0
  5  1  1  0  0  0  0
  7  3  1  0  0  0  0
  8  9  2  0  0  0  0
  8 10  1  0  0  0  0
 10 15  1  0  0  0  0
 11 10  2  0  0  0  0
 11 12  1  0  0  0  0
 12 13  2  0  0  0  0
 13 14  1  0  0  0  0
 14 18  1  0  0  0  0
 15 14  2  0  0  0  0
 16 11  1  0  0  0  0
 17 12  1  0  0  0  0
 19  4  1  0  0  0  0
 20 19  2  0  0  0  0
 21 25  1  0  0  0  0
 21 19  1  0  0  0  0
 21 22  1  0  0  0  0
 23 22  1  0  0  0  0
 24 25  1  0  0  0  0
 24 23  1  0  0  0  0
M  END
>  <minimizedAffinity>
-5.03138018

$$$$
