
 OpenBabel03272509403D

 31 33  0  0  0  0  0  0  0  0999 V2000
   36.9390   30.9070   49.0660 C   0  0  0  0  0  0  0  0  0  0  0  0
   36.6330   31.8150   50.1020 C   0  0  0  0  0  0  0  0  0  0  0  0
   37.2300   33.0560   50.1920 C   0  0  0  0  0  0  0  0  0  0  0  0
   38.1690   33.4510   49.2400 C   0  0  0  0  0  0  0  0  0  0  0  0
   38.4610   32.5550   48.2310 C   0  0  0  0  0  0  0  0  0  0  0  0
   37.8490   31.3150   48.1620 C   0  0  0  0  0  0  0  0  0  0  0  0
   35.9150   31.5260   50.8410 H   0  0  0  0  0  0  0  0  0  0  0  0
   36.9440   33.6980   51.0150 H   0  0  0  0  0  0  0  0  0  0  0  0
   38.6240   34.4260   49.3290 H   0  0  0  0  0  0  0  0  0  0  0  0
   39.1970   32.9350   47.5340 H   0  0  0  0  0  0  0  0  0  0  0  0
   36.2630   29.6330   49.0560 C   0  0  0  0  0  0  0  0  0  0  0  0
   36.7840   28.7420   49.8020 O   0  0  0  0  0  0  0  0  0  0  0  0
   33.5410   30.2090   46.7110 C   0  0  0  0  0  0  0  0  0  0  0  0
   32.8410   28.9970   46.7070 C   0  0  0  0  0  0  0  0  0  0  0  0
   33.3050   27.9810   47.5080 C   0  0  0  0  0  0  0  0  0  0  0  0
   34.4090   28.1760   48.2720 N   0  0  0  0  0  0  0  0  0  0  0  0
   35.0650   29.3290   48.2690 C   0  0  0  0  0  0  0  0  0  0  0  0
   34.6180   30.3390   47.4820 N   0  0  0  0  0  0  0  0  0  0  0  0
   33.2330   31.0560   46.1030 H   0  0  0  0  0  0  0  0  0  0  0  0
   31.9840   28.9720   46.0580 H   0  0  0  0  0  0  0  0  0  0  0  0
   32.7670   27.0600   47.4990 H   0  0  0  0  0  0  0  0  0  0  0  0
   38.2670   30.5090   47.0500 C   0  0  0  0  0  3  0  0  0  0  0  0
   39.0500   30.8750   46.0420 C   0  0  0  0  0  3  0  0  0  0  0  0
   39.5470   30.1510   44.8590 C   0  0  0  0  0  0  0  0  0  0  0  0
   38.7160   29.6050   44.3310 H   0  0  0  0  0  0  0  0  0  0  0  0
   40.2480   29.3680   45.2130 H   0  0  0  0  0  0  0  0  0  0  0  0
   40.2930   30.9900   43.8750 C   0  0  0  0  0  3  0  0  0  0  0  0
   39.7020   30.6650   42.4990 C   0  0  0  0  0  2  0  0  0  0  0  0
   39.5990   31.9800   41.7810 C   0  0  0  0  0  2  0  0  0  0  0  0
   39.4290   33.0160   42.8450 C   0  0  0  0  0  2  0  0  0  0  0  0
   40.1300   32.4670   44.0580 C   0  0  0  0  0  2  0  0  0  0  0  0
  1  2  1  0  0  0  0
  2  3  2  0  0  0  0
  2  7  1  0  0  0  0
  3  8  1  0  0  0  0
  4  9  1  0  0  0  0
  4  3  1  0  0  0  0
  5  4  2  0  0  0  0
  6  5  1  0  0  0  0
  6  1  2  0  0  0  0
 10  5  1  0  0  0  0
 11  1  1  0  0  0  0
 11 12  2  0  0  0  0
 13 18  1  0  0  0  0
 14 13  2  0  0  0  0
 14 15  1  0  0  0  0
 15 16  2  0  0  0  0
 17 16  1  0  0  0  0
 17 11  1  0  0  0  0
 18 17  2  0  0  0  0
 19 13  1  0  0  0  0
 20 14  1  0  0  0  0
 21 15  1  0  0  0  0
 22  6  1  0  0  0  0
 23 22  2  0  0  0  0
 24 26  1  0  0  0  0
 24 23  1  0  0  0  0
 25 24  1  0  0  0  0
 27 31  1  0  0  0  0
 27 24  1  0  0  0  0
 28 27  1  0  0  0  0
 29 28  1  0  0  0  0
 29 30  1  0  0  0  0
 30 31  1  0  0  0  0
M  END
>  <minimizedAffinity>
-6.03526354

>  <minimizedRMSD>
0.885223627

$$$$
