
     RDKit          3D

 34 36  0  0  0  0  0  0  0  0999 V2000
   38.3716   30.5883   47.0982 C   0  0  2  0  0  0  0  0  0  0  0  0
   36.9779   30.5605   47.5220 C   0  0  0  0  0  0  0  0  0  0  0  0
   38.0897   31.1316   48.4204 C   0  0  1  0  0  0  0  0  0  0  0  0
   40.6139   32.6809   45.0225 C   0  0  0  0  0  0  0  0  0  0  0  0
   39.7246   33.1817   44.0347 C   0  0  0  0  0  0  0  0  0  0  0  0
   38.3472   32.7815   44.1041 C   0  0  0  0  0  0  0  0  0  0  0  0
   37.9682   31.9501   45.1043 N   0  0  0  0  0  0  0  0  0  0  0  0
   38.8661   31.5019   46.0227 C   0  0  0  0  0  0  0  0  0  0  0  0
   40.1700   31.8466   46.0033 N   0  0  0  0  0  0  0  0  0  0  0  0
   37.7097   30.5482   50.7917 C   0  0  0  0  0  0  0  0  0  0  0  0
   36.7217   31.3238   50.8027 O   0  0  0  0  0  0  0  0  0  0  0  0
   38.4134   30.2749   49.5654 N   0  0  0  0  0  0  0  0  0  0  0  0
   38.9507   29.6041   47.1349 H   0  0  0  0  0  0  0  0  0  0  0  0
   36.2548   31.3024   47.0874 H   0  0  0  0  0  0  0  0  0  0  0  0
   36.5114   29.6642   47.9185 H   0  0  0  0  0  0  0  0  0  0  0  0
   37.8810   32.1873   48.6496 H   0  0  0  0  0  0  0  0  0  0  0  0
   41.6271   33.0343   44.8919 H   0  0  0  0  0  0  0  0  0  0  0  0
   40.0712   33.8439   43.2533 H   0  0  0  0  0  0  0  0  0  0  0  0
   37.6500   33.1488   43.3642 H   0  0  0  0  0  0  0  0  0  0  0  0
   39.1303   29.5184   49.4334 H   0  0  0  0  0  0  0  0  0  0  0  0
   38.2502   29.8439   52.0094 C   0  0  0  0  0  0  0  0  0  0  0  0
   37.3204   28.7048   52.3674 C   0  0  0  0  0  0  0  0  0  0  0  0
   37.3211   28.6739   53.8592 C   0  0  0  0  0  0  0  0  0  0  0  0
   38.2067   29.7969   54.3487 C   0  0  0  0  0  0  0  0  0  0  0  0
   38.3489   30.7547   53.1843 C   0  0  0  0  0  0  0  0  0  0  0  0
   39.2499   29.4147   51.8406 H   0  0  0  0  0  0  0  0  0  0  0  0
   37.7590   27.7230   52.0293 H   0  0  0  0  0  0  0  0  0  0  0  0
   36.3138   28.8005   51.9036 H   0  0  0  0  0  0  0  0  0  0  0  0
   36.2637   28.8227   54.1992 H   0  0  0  0  0  0  0  0  0  0  0  0
   37.6180   27.6896   54.2896 H   0  0  0  0  0  0  0  0  0  0  0  0
   37.6947   30.3123   55.1633 H   0  0  0  0  0  0  0  0  0  0  0  0
   39.1736   29.3899   54.6898 H   0  0  0  0  0  0  0  0  0  0  0  0
   37.5781   31.5486   53.2029 H   0  0  0  0  0  0  0  0  0  0  0  0
   39.3552   31.2045   53.2231 H   0  0  0  0  0  0  0  0  0  0  0  0
  1  2  1  0
  1  3  1  0
  2  3  1  0
  3 12  1  0
  4  9  2  0
  5  6  2  0
  5  4  1  0
  6  7  1  0
  7  8  2  0
  8  1  1  0
  9  8  1  0
 10 11  2  0
 12 10  1  0
  1 13  1  1
  2 14  1  0
  2 15  1  0
  3 16  1  1
  4 17  1  0
  5 18  1  0
  6 19  1  0
 12 20  1  0
 21 22  1  0
 22 23  1  0
 23 24  1  0
 24 25  1  0
 25 21  1  0
 21 26  1  0
 22 27  1  0
 22 28  1  0
 23 29  1  0
 23 30  1  0
 24 31  1  0
 24 32  1  0
 25 33  1  0
 25 34  1  0
 10 21  1  0
M  ISO  7  13  13  14  13  15  13  16  13  17  14  18  14  19  14
M  END
>  <DihAtoms>  (1) 
10,9,20,21

>  <DihDeg>  (1) 
119.99836348398611

$$$$
