
 OpenBabel03272503503D

 33 35  0  0  1  0  0  0  0  0999 V2000
   33.1830   27.3150   45.8710 C   0  0  1  0  0  0  0  0  0  0  0  0
   33.9170   27.4640   47.2220 C   0  0  2  0  0  0  0  0  0  0  0  0
   33.7660   26.2390   47.7930 O   0  0  0  0  0  0  0  0  0  0  0  0
   34.0680   25.3460   46.7780 C   0  0  0  0  0  0  0  0  0  0  0  0
   33.5500   25.9250   45.4820 C   0  0  2  0  0  0  0  0  0  0  0  0
   33.6170   28.0420   45.1510 H   0  0  0  0  0  0  0  0  0  0  0  0
   34.9540   27.7590   46.9470 H   0  0  0  0  0  0  0  0  0  0  0  0
   35.1410   25.0680   46.7460 H   0  0  0  0  0  0  0  0  0  0  0  0
   33.5050   24.4120   46.9940 H   0  0  0  0  0  0  0  0  0  0  0  0
   32.7230   25.3180   45.0620 H   0  0  0  0  0  0  0  0  0  0  0  0
   31.8280   27.5300   46.0290 O   0  0  0  0  0  0  0  0  0  0  0  0
   31.4970   28.1120   45.2830 H   0  0  0  0  0  0  0  0  0  0  0  0
   33.3000   28.5160   47.8330 O   0  0  0  0  0  0  0  0  0  0  0  0
   35.3440   29.8130   46.7800 O   0  0  0  0  0  0  0  0  0  0  0  0
   34.0850   29.9900   47.6160 P   0  0  1  0  0  0  0  0  0  0  0  0
   33.1040   31.0460   46.7270 O   0  0  0  0  0  0  0  0  0  0  0  0
   32.2700   31.2380   47.2220 H   0  0  0  0  0  0  0  0  0  0  0  0
   34.3990   30.6190   49.1680 O   0  0  0  0  0  0  0  0  0  0  0  0
   35.6250   30.5030   49.7820 C   0  0  0  0  0  0  0  0  0  0  0  0
   35.9560   29.4850   50.7040 C   0  0  0  0  0  0  0  0  0  0  0  0
   37.2380   29.4940   51.2460 C   0  0  0  0  0  0  0  0  0  0  0  0
   38.1020   30.4790   50.8610 N   0  0  0  0  0  0  0  0  0  0  0  0
   37.7500   31.4460   49.9690 C   0  0  0  0  0  0  0  0  0  0  0  0
   36.5010   31.4540   49.4280 N   0  0  0  0  0  0  0  0  0  0  0  0
   35.1920   28.7550   50.9360 H   0  0  0  0  0  0  0  0  0  0  0  0
   37.5020   28.7230   51.9490 H   0  0  0  0  0  0  0  0  0  0  0  0
   38.4730   32.1980   49.7020 H   0  0  0  0  0  0  0  0  0  0  0  0
   34.5740   25.9430   44.5350 O   0  0  0  0  0  0  0  0  0  0  0  0
   34.5290   24.8570   43.6700 C   0  0  0  0  0  3  0  0  0  0  0  0
   33.1280   24.6630   43.1570 C   0  0  0  0  0  2  0  0  0  0  0  0
   33.1670   24.8240   41.6720 C   0  0  0  0  0  2  0  0  0  0  0  0
   34.6070   24.8230   41.2370 C   0  0  0  0  0  2  0  0  0  0  0  0
   35.4290   25.0370   42.4770 C   0  0  0  0  0  2  0  0  0  0  0  0
  1  6  1  6  0  0  0
  1 11  1  0  0  0  0
  1  2  1  0  0  0  0
  2  7  1  6  0  0  0
  2  3  1  0  0  0  0
  2 13  1  0  0  0  0
  4  9  1  0  0  0  0
  4  3  1  0  0  0  0
  5 10  1  6  0  0  0
  5  1  1  0  0  0  0
  5  4  1  0  0  0  0
  8  4  1  0  0  0  0
 12 11  1  0  0  0  0
 15 14  2  6  0  0  0
 15 13  1  0  0  0  0
 15 18  1  0  0  0  0
 16 17  1  0  0  0  0
 16 15  1  0  0  0  0
 18 19  1  0  0  0  0
 19 20  1  0  0  0  0
 20 25  1  0  0  0  0
 20 21  2  0  0  0  0
 21 26  1  0  0  0  0
 22 21  1  0  0  0  0
 23 22  2  0  0  0  0
 24 19  2  0  0  0  0
 24 23  1  0  0  0  0
 27 23  1  0  0  0  0
 28  5  1  0  0  0  0
 29 28  1  0  0  0  0
 30 29  1  0  0  0  0
 31 30  1  0  0  0  0
 32 31  1  0  0  0  0
 32 33  1  0  0  0  0
 33 29  1  0  0  0  0
M  END
>  <minimizedAffinity>
-3.92717385

>  <minimizedRMSD>
0.626014829

$$$$
