REMARK  Name = 
REMARK  3 active torsions:
REMARK  status: ('A' for Active; 'I' for Inactive)
REMARK    1  A    between atoms: C_1  and  C_8
REMARK    2  A    between atoms: C_3  and  N_12
REMARK    3  A    between atoms: C_10  and  C_21
REMARK                            x       y       z     vdW  Elec       q    Type
REMARK                         _______ _______ _______ _____ _____    ______ ____
ROOT
ATOM      1  C   UNL     1      38.372  30.588  47.098  0.00  0.00    +0.000 C 
ATOM      2  C   UNL     1      36.978  30.561  47.522  0.00  0.00    +0.000 C 
ATOM      3  C   UNL     1      38.090  31.132  48.420  0.00  0.00    +0.000 C 
ATOM      4  H   UNL     1      38.951  29.604  47.135  0.00  0.00    +0.000 HD
ATOM      5  H   UNL     1      36.255  31.302  47.087  0.00  0.00    +0.000 HD
ATOM      6  H   UNL     1      36.511  29.664  47.919  0.00  0.00    +0.000 HD
ATOM      7  H   UNL     1      37.881  32.187  48.650  0.00  0.00    +0.000 HD
ENDROOT
BRANCH   1  12
ATOM      8  C   UNL     1      40.614  32.681  45.023  0.00  0.00    +0.000 A 
ATOM      9  C   UNL     1      39.725  33.182  44.035  0.00  0.00    +0.000 A 
ATOM     10  C   UNL     1      38.347  32.782  44.104  0.00  0.00    +0.000 A 
ATOM     11  N   UNL     1      37.968  31.950  45.104  0.00  0.00    +0.000 NA
ATOM     12  C   UNL     1      38.866  31.502  46.023  0.00  0.00    +0.000 A 
ATOM     13  N   UNL     1      40.170  31.847  46.003  0.00  0.00    +0.000 NA
ATOM     14  H   UNL     1      41.627  33.034  44.892  0.00  0.00    +0.000 HD
ATOM     15  H   UNL     1      40.071  33.844  43.253  0.00  0.00    +0.000 HD
ATOM     16  H   UNL     1      37.650  33.149  43.364  0.00  0.00    +0.000 HD
ENDBRANCH   1  12
BRANCH   3  19
ATOM     17  C   UNL     1      37.710  30.548  50.792  0.00  0.00    +0.000 C 
ATOM     18  O   UNL     1      36.722  31.324  50.803  0.00  0.00    +0.000 OA
ATOM     19  N   UNL     1      38.413  30.275  49.565  0.00  0.00    +0.000 N 
ATOM     20  H   UNL     1      39.130  29.518  49.433  0.00  0.00    +0.000 HD
BRANCH  17  21
ATOM     21  C   UNL     1      38.250  29.844  52.009  0.00  0.00    +0.000 C 
ATOM     22  C   UNL     1      37.163  28.963  52.587  0.00  0.00    +0.000 C 
ATOM     23  C   UNL     1      37.353  29.052  54.064  0.00  0.00    +0.000 C 
ATOM     24  C   UNL     1      38.505  29.995  54.331  0.00  0.00    +0.000 C 
ATOM     25  C   UNL     1      38.685  30.803  53.063  0.00  0.00    +0.000 C 
ENDBRANCH  17  21
ENDBRANCH   3  19
TORSDOF 3
