
 OpenBabel03272508033D

 24 26  0  0  0  0  0  0  0  0999 V2000
   37.9410   25.0590   34.9740 C   0  0  0  0  0  0  0  0  0  0  0  0
   37.8400   24.9550   36.3850 C   0  0  0  0  0  0  0  0  0  0  0  0
   38.4150   23.8450   37.0000 C   0  0  0  0  0  0  0  0  0  0  0  0
   39.0430   22.9170   36.2110 N   0  0  0  0  0  0  0  0  0  0  0  0
   39.1220   23.0430   34.8760 C   0  0  0  0  0  0  0  0  0  0  0  0
   38.5660   24.1200   34.2700 N   0  0  0  0  0  0  0  0  0  0  0  0
   37.3440   25.6960   36.9740 H   0  0  0  0  0  0  0  0  0  0  0  0
   39.6330   22.2750   34.2960 H   0  0  0  0  0  0  0  0  0  0  0  0
   37.3380   26.2220   34.3340 C   0  0  0  0  0  0  0  0  0  0  0  0
   37.0550   27.4350   34.8930 C   0  0  0  0  0  0  0  0  0  0  0  0
   36.4800   28.2770   33.9410 C   0  0  0  0  0  0  0  0  0  0  0  0
   36.4390   27.5160   32.8060 N   0  0  0  0  0  0  0  0  0  0  0  0
   36.9430   26.3270   33.0630 N   0  0  0  0  0  0  0  0  0  0  0  0
   37.2290   27.7490   35.9260 H   0  0  0  0  0  0  0  0  0  0  0  0
   36.1350   29.2950   34.0310 H   0  0  0  0  0  0  0  0  0  0  0  0
   35.8980   28.0250   31.5370 C   0  0  0  0  0  3  0  0  0  0  0  0
   36.8360   27.7090   30.3940 C   0  0  0  0  0  2  0  0  0  0  0  0
   37.7710   28.9250   30.4540 C   0  0  0  0  0  2  0  0  0  0  0  0
   36.7340   30.0360   30.4940 C   0  0  0  0  0  2  0  0  0  0  0  0
   35.7600   29.5210   31.5250 C   0  0  0  0  0  2  0  0  0  0  0  0
   38.3200   23.7180   38.4840 C   0  0  0  0  0  0  0  0  0  0  0  0
   37.8860   24.9550   38.9360 F   0  0  0  0  0  0  0  0  0  0  0  0
   37.4020   22.7700   38.8800 F   0  0  0  0  0  0  0  0  0  0  0  0
   39.5440   23.4650   39.0620 F   0  0  0  0  0  0  0  0  0  0  0  0
  1  2  1  0  0  0  0
  2  7  1  0  0  0  0
  2  3  2  0  0  0  0
  3 21  1  0  0  0  0
  4  3  1  0  0  0  0
  5  4  2  0  0  0  0
  6  5  1  0  0  0  0
  6  1  2  0  0  0  0
  8  5  1  0  0  0  0
  9 10  1  0  0  0  0
  9  1  1  0  0  0  0
 10 14  1  0  0  0  0
 11 15  1  0  0  0  0
 11 10  2  0  0  0  0
 12 13  1  0  0  0  0
 12 11  1  0  0  0  0
 13  9  2  0  0  0  0
 16 12  1  0  0  0  0
 17 18  1  0  0  0  0
 17 16  1  0  0  0  0
 18 19  1  0  0  0  0
 19 20  1  0  0  0  0
 20 16  1  0  0  0  0
 21 23  1  0  0  0  0
 21 22  1  0  0  0  0
 21 24  1  0  0  0  0
M  END
>  <minimizedAffinity>
-5.74651861

$$$$

 OpenBabel03272508033D

 24 26  0  0  0  0  0  0  0  0999 V2000
   37.9190   25.2750   34.8150 C   0  0  0  0  0  0  0  0  0  0  0  0
   37.8190   25.1770   36.2270 C   0  0  0  0  0  0  0  0  0  0  0  0
   38.3160   24.0270   36.8360 C   0  0  0  0  0  0  0  0  0  0  0  0
   38.8700   23.0570   36.0430 N   0  0  0  0  0  0  0  0  0  0  0  0
   38.9490   23.1780   34.7070 C   0  0  0  0  0  0  0  0  0  0  0  0
   38.4680   24.2940   34.1060 N   0  0  0  0  0  0  0  0  0  0  0  0
   37.3830   25.9510   36.8200 H   0  0  0  0  0  0  0  0  0  0  0  0
   39.3980   22.3760   34.1220 H   0  0  0  0  0  0  0  0  0  0  0  0
   37.3990   26.4800   34.1800 C   0  0  0  0  0  0  0  0  0  0  0  0
   37.4730   26.8330   32.8630 C   0  0  0  0  0  0  0  0  0  0  0  0
   36.8510   28.0660   32.6640 C   0  0  0  0  0  0  0  0  0  0  0  0
   36.4100   28.4210   33.9090 N   0  0  0  0  0  0  0  0  0  0  0  0
   36.7420   27.4810   34.7690 N   0  0  0  0  0  0  0  0  0  0  0  0
   37.9390   26.2730   32.0480 H   0  0  0  0  0  0  0  0  0  0  0  0
   36.7230   28.6430   31.7610 H   0  0  0  0  0  0  0  0  0  0  0  0
   35.6850   29.6750   34.1580 C   0  0  0  0  0  3  0  0  0  0  0  0
   34.2390   29.3940   34.5030 C   0  0  0  0  0  2  0  0  0  0  0  0
   33.6200   29.3460   33.1000 C   0  0  0  0  0  2  0  0  0  0  0  0
   34.1810   30.6400   32.5340 C   0  0  0  0  0  2  0  0  0  0  0  0
   35.6300   30.5630   32.9470 C   0  0  0  0  0  2  0  0  0  0  0  0
   38.2220   23.9050   38.3210 C   0  0  0  0  0  0  0  0  0  0  0  0
   39.4660   23.4560   38.7360 F   0  0  0  0  0  0  0  0  0  0  0  0
   37.9730   25.1110   38.9400 F   0  0  0  0  0  0  0  0  0  0  0  0
   37.2880   22.9710   38.7070 F   0  0  0  0  0  0  0  0  0  0  0  0
  1  2  1  0  0  0  0
  2  7  1  0  0  0  0
  2  3  2  0  0  0  0
  3 21  1  0  0  0  0
  4  3  1  0  0  0  0
  5  4  2  0  0  0  0
  6  5  1  0  0  0  0
  6  1  2  0  0  0  0
  8  5  1  0  0  0  0
  9 13  2  0  0  0  0
  9  1  1  0  0  0  0
 10  9  1  0  0  0  0
 11 10  2  0  0  0  0
 11 12  1  0  0  0  0
 12 16  1  0  0  0  0
 12 13  1  0  0  0  0
 14 10  1  0  0  0  0
 15 11  1  0  0  0  0
 16 17  1  0  0  0  0
 18 17  1  0  0  0  0
 19 20  1  0  0  0  0
 19 18  1  0  0  0  0
 20 16  1  0  0  0  0
 21 24  1  0  0  0  0
 21 22  1  0  0  0  0
 21 23  1  0  0  0  0
M  END
>  <minimizedAffinity>
-5.52172327

$$$$

 OpenBabel03272508033D

 24 26  0  0  0  0  0  0  0  0999 V2000
   38.0950   23.8510   34.4000 C   0  0  0  0  0  0  0  0  0  0  0  0
   38.1320   23.3960   35.7440 C   0  0  0  0  0  0  0  0  0  0  0  0
   38.2460   24.3510   36.7520 C   0  0  0  0  0  0  0  0  0  0  0  0
   38.3160   25.6710   36.3930 N   0  0  0  0  0  0  0  0  0  0  0  0
   38.2790   26.0710   35.1100 C   0  0  0  0  0  0  0  0  0  0  0  0
   38.1690   25.1490   34.1240 N   0  0  0  0  0  0  0  0  0  0  0  0
   38.0750   22.3590   35.9940 H   0  0  0  0  0  0  0  0  0  0  0  0
   38.3400   27.1340   34.8800 H   0  0  0  0  0  0  0  0  0  0  0  0
   37.9760   22.8490   33.3480 C   0  0  0  0  0  0  0  0  0  0  0  0
   38.9680   22.3370   32.5610 C   0  0  0  0  0  0  0  0  0  0  0  0
   38.4370   21.3990   31.6740 C   0  0  0  0  0  0  0  0  0  0  0  0
   37.1020   21.3800   31.9710 N   0  0  0  0  0  0  0  0  0  0  0  0
   36.8640   22.2310   32.9470 N   0  0  0  0  0  0  0  0  0  0  0  0
   40.0320   22.5910   32.5800 H   0  0  0  0  0  0  0  0  0  0  0  0
   38.9240   20.8050   30.9170 H   0  0  0  0  0  0  0  0  0  0  0  0
   36.1520   20.5110   31.2610 C   0  0  0  0  0  3  0  0  0  0  0  0
   34.9500   20.2160   32.1300 C   0  0  0  0  0  2  0  0  0  0  0  0
   35.4550   18.9890   32.9010 C   0  0  0  0  0  2  0  0  0  0  0  0
   35.9580   18.1520   31.7360 C   0  0  0  0  0  2  0  0  0  0  0  0
   36.7330   19.1660   30.9300 C   0  0  0  0  0  2  0  0  0  0  0  0
   38.2850   23.8930   38.1720 C   0  0  0  0  0  0  0  0  0  0  0  0
   37.2850   22.9390   38.2830 F   0  0  0  0  0  0  0  0  0  0  0  0
   39.4830   23.3000   38.5080 F   0  0  0  0  0  0  0  0  0  0  0  0
   37.9960   24.9100   39.0540 F   0  0  0  0  0  0  0  0  0  0  0  0
  1  2  1  0  0  0  0
  2  7  1  0  0  0  0
  2  3  2  0  0  0  0
  3 21  1  0  0  0  0
  4  3  1  0  0  0  0
  5  4  2  0  0  0  0
  6  1  2  0  0  0  0
  6  5  1  0  0  0  0
  8  5  1  0  0  0  0
  9  1  1  0  0  0  0
 10 14  1  0  0  0  0
 10  9  1  0  0  0  0
 11 12  1  0  0  0  0
 11 10  2  0  0  0  0
 12 13  1  0  0  0  0
 13  9  2  0  0  0  0
 15 11  1  0  0  0  0
 16 12  1  0  0  0  0
 16 17  1  0  0  0  0
 17 18  1  0  0  0  0
 19 18  1  0  0  0  0
 20 16  1  0  0  0  0
 20 19  1  0  0  0  0
 21 22  1  0  0  0  0
 21 23  1  0  0  0  0
 21 24  1  0  0  0  0
M  END
>  <minimizedAffinity>
-5.45483398

$$$$

 OpenBabel03272508033D

 24 26  0  0  0  0  0  0  0  0999 V2000
   37.0160   26.8160   33.5270 C   0  0  0  0  0  0  0  0  0  0  0  0
   37.2970   26.4870   34.8790 C   0  0  0  0  0  0  0  0  0  0  0  0
   37.8030   25.2180   35.1480 C   0  0  0  0  0  0  0  0  0  0  0  0
   38.0010   24.3590   34.0980 N   0  0  0  0  0  0  0  0  0  0  0  0
   37.7250   24.7000   32.8280 C   0  0  0  0  0  0  0  0  0  0  0  0
   37.2310   25.9330   32.5570 N   0  0  0  0  0  0  0  0  0  0  0  0
   37.1330   27.1780   35.6760 H   0  0  0  0  0  0  0  0  0  0  0  0
   37.9000   23.9780   32.0310 H   0  0  0  0  0  0  0  0  0  0  0  0
   36.4860   28.1450   33.2480 C   0  0  0  0  0  0  0  0  0  0  0  0
   36.5280   28.8350   32.0710 C   0  0  0  0  0  0  0  0  0  0  0  0
   35.9070   30.0760   32.2220 C   0  0  0  0  0  0  0  0  0  0  0  0
   35.5000   30.0860   33.5280 N   0  0  0  0  0  0  0  0  0  0  0  0
   35.8490   28.9530   34.0990 N   0  0  0  0  0  0  0  0  0  0  0  0
   36.9710   28.5110   31.1240 H   0  0  0  0  0  0  0  0  0  0  0  0
   35.7590   30.8710   31.5080 H   0  0  0  0  0  0  0  0  0  0  0  0
   34.7880   31.2280   34.1190 C   0  0  0  0  0  3  0  0  0  0  0  0
   35.7350   32.3860   34.3430 C   0  0  0  0  0  2  0  0  0  0  0  0
   36.2800   32.0390   35.7350 C   0  0  0  0  0  2  0  0  0  0  0  0
   34.9680   31.7880   36.4610 C   0  0  0  0  0  2  0  0  0  0  0  0
   34.2240   30.9200   35.4770 C   0  0  0  0  0  2  0  0  0  0  0  0
   38.1070   24.8520   36.5630 C   0  0  0  0  0  0  0  0  0  0  0  0
   38.2770   26.0560   37.2290 F   0  0  0  0  0  0  0  0  0  0  0  0
   37.0760   24.1680   37.1690 F   0  0  0  0  0  0  0  0  0  0  0  0
   39.2800   24.1400   36.6750 F   0  0  0  0  0  0  0  0  0  0  0  0
  1  2  1  0  0  0  0
  2  3  2  0  0  0  0
  2  7  1  0  0  0  0
  3 21  1  0  0  0  0
  4  3  1  0  0  0  0
  5  4  2  0  0  0  0
  6  5  1  0  0  0  0
  6  1  2  0  0  0  0
  8  5  1  0  0  0  0
  9  1  1  0  0  0  0
  9 13  2  0  0  0  0
 10 11  2  0  0  0  0
 10  9  1  0  0  0  0
 11 12  1  0  0  0  0
 12 13  1  0  0  0  0
 12 16  1  0  0  0  0
 14 10  1  0  0  0  0
 15 11  1  0  0  0  0
 16 17  1  0  0  0  0
 16 20  1  0  0  0  0
 17 18  1  0  0  0  0
 18 19  1  0  0  0  0
 20 19  1  0  0  0  0
 21 24  1  0  0  0  0
 21 23  1  0  0  0  0
 21 22  1  0  0  0  0
M  END
>  <minimizedAffinity>
-5.29000092

$$$$

 OpenBabel03272508033D

 24 26  0  0  0  0  0  0  0  0999 V2000
   36.8870   27.5720   33.8630 C   0  0  0  0  0  0  0  0  0  0  0  0
   36.4910   28.6480   34.6990 C   0  0  0  0  0  0  0  0  0  0  0  0
   35.6300   29.6050   34.1660 C   0  0  0  0  0  0  0  0  0  0  0  0
   35.2150   29.4560   32.8690 N   0  0  0  0  0  0  0  0  0  0  0  0
   35.6080   28.4250   32.1010 C   0  0  0  0  0  0  0  0  0  0  0  0
   36.4450   27.4900   32.6120 N   0  0  0  0  0  0  0  0  0  0  0  0
   36.8300   28.7380   35.7080 H   0  0  0  0  0  0  0  0  0  0  0  0
   35.2480   28.3550   31.0750 H   0  0  0  0  0  0  0  0  0  0  0  0
   37.7880   26.5730   34.4240 C   0  0  0  0  0  0  0  0  0  0  0  0
   39.1440   26.6510   34.5640 C   0  0  0  0  0  0  0  0  0  0  0  0
   39.6310   25.4810   35.1480 C   0  0  0  0  0  0  0  0  0  0  0  0
   38.5130   24.7170   35.3450 N   0  0  0  0  0  0  0  0  0  0  0  0
   37.4580   25.3770   34.9160 N   0  0  0  0  0  0  0  0  0  0  0  0
   39.7970   27.4800   34.2770 H   0  0  0  0  0  0  0  0  0  0  0  0
   40.6410   25.1990   35.4030 H   0  0  0  0  0  0  0  0  0  0  0  0
   38.5730   23.3790   35.9500 C   0  0  0  0  0  3  0  0  0  0  0  0
   37.5290   23.2390   37.0360 C   0  0  0  0  0  2  0  0  0  0  0  0
   38.3030   23.7900   38.2410 C   0  0  0  0  0  2  0  0  0  0  0  0
   39.5830   22.9820   38.1060 C   0  0  0  0  0  2  0  0  0  0  0  0
   39.8830   23.1090   36.6330 C   0  0  0  0  0  2  0  0  0  0  0  0
   35.2000   30.7440   35.0290 C   0  0  0  0  0  0  0  0  0  0  0  0
   36.2250   30.9230   35.9450 F   0  0  0  0  0  0  0  0  0  0  0  0
   35.0440   31.9170   34.3240 F   0  0  0  0  0  0  0  0  0  0  0  0
   34.0520   30.4570   35.7340 F   0  0  0  0  0  0  0  0  0  0  0  0
  1  9  1  0  0  0  0
  1  2  1  0  0  0  0
  2  7  1  0  0  0  0
  3  2  2  0  0  0  0
  3 21  1  0  0  0  0
  4  3  1  0  0  0  0
  5  6  1  0  0  0  0
  5  4  2  0  0  0  0
  6  1  2  0  0  0  0
  8  5  1  0  0  0  0
  9 10  1  0  0  0  0
  9 13  2  0  0  0  0
 10 11  2  0  0  0  0
 11 12  1  0  0  0  0
 11 15  1  0  0  0  0
 12 16  1  0  0  0  0
 13 12  1  0  0  0  0
 14 10  1  0  0  0  0
 16 20  1  0  0  0  0
 16 17  1  0  0  0  0
 17 18  1  0  0  0  0
 19 18  1  0  0  0  0
 20 19  1  0  0  0  0
 21 24  1  0  0  0  0
 21 22  1  0  0  0  0
 23 21  1  0  0  0  0
M  END
>  <minimizedAffinity>
-5.26848078

$$$$

 OpenBabel03272508033D

 24 26  0  0  0  0  0  0  0  0999 V2000
   38.7900   22.9330   34.9670 C   0  0  0  0  0  0  0  0  0  0  0  0
   38.6130   24.3380   34.8690 C   0  0  0  0  0  0  0  0  0  0  0  0
   39.7250   25.1510   35.0760 C   0  0  0  0  0  0  0  0  0  0  0  0
   40.9240   24.5530   35.3630 N   0  0  0  0  0  0  0  0  0  0  0  0
   41.0610   23.2190   35.4490 C   0  0  0  0  0  0  0  0  0  0  0  0
   39.9840   22.4200   35.2490 N   0  0  0  0  0  0  0  0  0  0  0  0
   37.6650   24.7750   34.6430 H   0  0  0  0  0  0  0  0  0  0  0  0
   42.0370   22.7950   35.6810 H   0  0  0  0  0  0  0  0  0  0  0  0
   37.6250   22.0850   34.7490 C   0  0  0  0  0  0  0  0  0  0  0  0
   36.7930   21.5450   35.6880 C   0  0  0  0  0  0  0  0  0  0  0  0
   35.7960   20.7930   35.0650 C   0  0  0  0  0  0  0  0  0  0  0  0
   36.0730   20.9130   33.7310 N   0  0  0  0  0  0  0  0  0  0  0  0
   37.1400   21.6680   33.5770 N   0  0  0  0  0  0  0  0  0  0  0  0
   36.8550   21.6530   36.7740 H   0  0  0  0  0  0  0  0  0  0  0  0
   34.9790   20.2330   35.4930 H   0  0  0  0  0  0  0  0  0  0  0  0
   35.2530   20.2640   32.6980 C   0  0  0  0  0  3  0  0  0  0  0  0
   35.3510   18.7590   32.8090 C   0  0  0  0  0  2  0  0  0  0  0  0
   36.5950   18.4940   31.9510 C   0  0  0  0  0  2  0  0  0  0  0  0
   36.2180   19.2880   30.7110 C   0  0  0  0  0  2  0  0  0  0  0  0
   35.7180   20.5820   31.3050 C   0  0  0  0  0  2  0  0  0  0  0  0
   39.5590   26.6300   34.9770 C   0  0  0  0  0  0  0  0  0  0  0  0
   40.8330   27.1330   34.7610 F   0  0  0  0  0  0  0  0  0  0  0  0
   38.7630   27.0080   33.9170 F   0  0  0  0  0  0  0  0  0  0  0  0
   39.0840   27.1800   36.1460 F   0  0  0  0  0  0  0  0  0  0  0  0
  1  6  1  0  0  0  0
  2  1  2  0  0  0  0
  2  3  1  0  0  0  0
  3  4  2  0  0  0  0
  4  5  1  0  0  0  0
  5  8  1  0  0  0  0
  6  5  2  0  0  0  0
  7  2  1  0  0  0  0
  9  1  1  0  0  0  0
  9 10  1  0  0  0  0
 10 14  1  0  0  0  0
 11 15  1  0  0  0  0
 11 10  2  0  0  0  0
 12 11  1  0  0  0  0
 13 12  1  0  0  0  0
 13  9  2  0  0  0  0
 16 17  1  0  0  0  0
 16 12  1  0  0  0  0
 18 17  1  0  0  0  0
 19 20  1  0  0  0  0
 19 18  1  0  0  0  0
 20 16  1  0  0  0  0
 21  3  1  0  0  0  0
 21 24  1  0  0  0  0
 22 21  1  0  0  0  0
 23 21  1  0  0  0  0
M  END
>  <minimizedAffinity>
-5.1760993

$$$$

 OpenBabel03272508033D

 24 26  0  0  0  0  0  0  0  0999 V2000
   38.3570   24.5810   36.3030 C   0  0  0  0  0  0  0  0  0  0  0  0
   39.5230   23.8050   36.0740 C   0  0  0  0  0  0  0  0  0  0  0  0
   39.9830   22.9990   37.1130 C   0  0  0  0  0  0  0  0  0  0  0  0
   39.2880   23.0000   38.2940 N   0  0  0  0  0  0  0  0  0  0  0  0
   38.1870   23.7470   38.4810 C   0  0  0  0  0  0  0  0  0  0  0  0
   37.7320   24.5340   37.4760 N   0  0  0  0  0  0  0  0  0  0  0  0
   40.0430   23.8250   35.1420 H   0  0  0  0  0  0  0  0  0  0  0  0
   37.6730   23.7110   39.4410 H   0  0  0  0  0  0  0  0  0  0  0  0
   37.8780   25.4230   35.2140 C   0  0  0  0  0  0  0  0  0  0  0  0
   37.4000   26.7010   35.2890 C   0  0  0  0  0  0  0  0  0  0  0  0
   37.0440   27.1520   34.0180 C   0  0  0  0  0  0  0  0  0  0  0  0
   37.3310   26.0960   33.1980 N   0  0  0  0  0  0  0  0  0  0  0  0
   37.8130   25.1060   33.9190 N   0  0  0  0  0  0  0  0  0  0  0  0
   37.2910   27.3200   36.1840 H   0  0  0  0  0  0  0  0  0  0  0  0
   36.6350   28.1010   33.7060 H   0  0  0  0  0  0  0  0  0  0  0  0
   37.1040   26.1440   31.7460 C   0  0  0  0  0  3  0  0  0  0  0  0
   38.3770   25.8200   30.9980 C   0  0  0  0  0  2  0  0  0  0  0  0
   39.0180   27.2120   30.9170 C   0  0  0  0  0  2  0  0  0  0  0  0
   37.8320   28.0030   30.3880 C   0  0  0  0  0  2  0  0  0  0  0  0
   36.7080   27.5120   31.2660 C   0  0  0  0  0  2  0  0  0  0  0  0
   41.2070   22.1740   36.8920 C   0  0  0  0  0  0  0  0  0  0  0  0
   42.2620   23.0740   36.8680 F   0  0  0  0  0  0  0  0  0  0  0  0
   41.4340   21.2740   37.9110 F   0  0  0  0  0  0  0  0  0  0  0  0
   41.1830   21.5220   35.6800 F   0  0  0  0  0  0  0  0  0  0  0  0
  1  6  1  0  0  0  0
  2  1  2  0  0  0  0
  2  3  1  0  0  0  0
  3  4  2  0  0  0  0
  4  5  1  0  0  0  0
  5  8  1  0  0  0  0
  6  5  2  0  0  0  0
  7  2  1  0  0  0  0
  9 10  1  0  0  0  0
  9  1  1  0  0  0  0
 10 14  1  0  0  0  0
 11 10  2  0  0  0  0
 12 13  1  0  0  0  0
 12 11  1  0  0  0  0
 13  9  2  0  0  0  0
 15 11  1  0  0  0  0
 16 12  1  0  0  0  0
 17 16  1  0  0  0  0
 18 17  1  0  0  0  0
 19 18  1  0  0  0  0
 19 20  1  0  0  0  0
 20 16  1  0  0  0  0
 21  3  1  0  0  0  0
 21 23  1  0  0  0  0
 22 21  1  0  0  0  0
 24 21  1  0  0  0  0
M  END
>  <minimizedAffinity>
-5.13748026

$$$$

 OpenBabel03272508033D

 24 26  0  0  0  0  0  0  0  0999 V2000
   37.4730   26.0990   34.2450 C   0  0  0  0  0  0  0  0  0  0  0  0
   36.9060   27.2870   34.7770 C   0  0  0  0  0  0  0  0  0  0  0  0
   36.3790   28.2140   33.8820 C   0  0  0  0  0  0  0  0  0  0  0  0
   36.4360   27.9310   32.5420 N   0  0  0  0  0  0  0  0  0  0  0  0
   36.9800   26.7970   32.0680 C   0  0  0  0  0  0  0  0  0  0  0  0
   37.4950   25.8900   32.9330 N   0  0  0  0  0  0  0  0  0  0  0  0
   36.8760   27.4790   35.8270 H   0  0  0  0  0  0  0  0  0  0  0  0
   37.0000   26.6220   30.9930 H   0  0  0  0  0  0  0  0  0  0  0  0
   38.0240   25.1310   35.1850 C   0  0  0  0  0  0  0  0  0  0  0  0
   37.8890   25.1090   36.5440 C   0  0  0  0  0  0  0  0  0  0  0  0
   38.5710   24.0140   37.0740 C   0  0  0  0  0  0  0  0  0  0  0  0
   39.1090   23.3950   35.9780 N   0  0  0  0  0  0  0  0  0  0  0  0
   38.7750   24.0660   34.8960 N   0  0  0  0  0  0  0  0  0  0  0  0
   37.3420   25.8190   37.1700 H   0  0  0  0  0  0  0  0  0  0  0  0
   38.6780   23.6900   38.0970 H   0  0  0  0  0  0  0  0  0  0  0  0
   39.9210   22.1750   36.0850 C   0  0  0  0  0  3  0  0  0  0  0  0
   40.8070   22.2320   37.3100 C   0  0  0  0  0  2  0  0  0  0  0  0
   42.0290   22.9630   36.7380 C   0  0  0  0  0  2  0  0  0  0  0  0
   42.2600   22.1260   35.4900 C   0  0  0  0  0  2  0  0  0  0  0  0
   40.8650   22.0030   34.9290 C   0  0  0  0  0  2  0  0  0  0  0  0
   35.7770   29.4690   34.4210 C   0  0  0  0  0  0  0  0  0  0  0  0
   35.8600   30.3930   33.3900 F   0  0  0  0  0  0  0  0  0  0  0  0
   34.4490   29.3210   34.7580 F   0  0  0  0  0  0  0  0  0  0  0  0
   36.4860   29.9680   35.4900 F   0  0  0  0  0  0  0  0  0  0  0  0
  1  2  1  0  0  0  0
  1  9  1  0  0  0  0
  2  7  1  0  0  0  0
  3 21  1  0  0  0  0
  3  2  2  0  0  0  0
  4  3  1  0  0  0  0
  5  4  2  0  0  0  0
  5  6  1  0  0  0  0
  6  1  2  0  0  0  0
  8  5  1  0  0  0  0
  9 10  1  0  0  0  0
 10 11  2  0  0  0  0
 10 14  1  0  0  0  0
 11 15  1  0  0  0  0
 12 16  1  0  0  0  0
 12 11  1  0  0  0  0
 13  9  2  0  0  0  0
 13 12  1  0  0  0  0
 16 17  1  0  0  0  0
 18 17  1  0  0  0  0
 19 18  1  0  0  0  0
 20 19  1  0  0  0  0
 20 16  1  0  0  0  0
 21 23  1  0  0  0  0
 21 24  1  0  0  0  0
 22 21  1  0  0  0  0
M  END
>  <minimizedAffinity>
-5.07257652

$$$$

 OpenBabel03272508033D

 24 26  0  0  0  0  0  0  0  0999 V2000
   36.1960   28.2740   33.6170 C   0  0  0  0  0  0  0  0  0  0  0  0
   37.0120   27.9130   34.7210 C   0  0  0  0  0  0  0  0  0  0  0  0
   37.9560   26.9060   34.5300 C   0  0  0  0  0  0  0  0  0  0  0  0
   38.0450   26.3220   33.2940 N   0  0  0  0  0  0  0  0  0  0  0  0
   37.2570   26.6860   32.2680 C   0  0  0  0  0  0  0  0  0  0  0  0
   36.3360   27.6640   32.4450 N   0  0  0  0  0  0  0  0  0  0  0  0
   36.9210   28.3870   35.6730 H   0  0  0  0  0  0  0  0  0  0  0  0
   37.3680   26.1880   31.3050 H   0  0  0  0  0  0  0  0  0  0  0  0
   35.2090   29.3270   33.8200 C   0  0  0  0  0  0  0  0  0  0  0  0
   34.0670   29.5550   33.1070 C   0  0  0  0  0  0  0  0  0  0  0  0
   33.3970   30.6660   33.6220 C   0  0  0  0  0  0  0  0  0  0  0  0
   34.1860   31.0790   34.6590 N   0  0  0  0  0  0  0  0  0  0  0  0
   35.2310   30.2830   34.7510 N   0  0  0  0  0  0  0  0  0  0  0  0
   33.6890   28.9850   32.2540 H   0  0  0  0  0  0  0  0  0  0  0  0
   32.4720   31.1270   33.3090 H   0  0  0  0  0  0  0  0  0  0  0  0
   33.8450   32.2410   35.4920 C   0  0  0  0  0  3  0  0  0  0  0  0
   34.1230   31.9510   36.9500 C   0  0  0  0  0  2  0  0  0  0  0  0
   32.7970   31.2980   37.3640 C   0  0  0  0  0  2  0  0  0  0  0  0
   31.8270   32.3320   36.8150 C   0  0  0  0  0  2  0  0  0  0  0  0
   32.3830   32.5850   35.4350 C   0  0  0  0  0  2  0  0  0  0  0  0
   38.8250   26.5120   35.6780 C   0  0  0  0  0  0  0  0  0  0  0  0
   40.0560   27.1010   35.4310 F   0  0  0  0  0  0  0  0  0  0  0  0
   38.3590   26.9830   36.8860 F   0  0  0  0  0  0  0  0  0  0  0  0
   39.0170   25.1500   35.7410 F   0  0  0  0  0  0  0  0  0  0  0  0
  1  9  1  0  0  0  0
  1  2  1  0  0  0  0
  2  7  1  0  0  0  0
  3  2  2  0  0  0  0
  3 21  1  0  0  0  0
  4  3  1  0  0  0  0
  5  6  1  0  0  0  0
  5  4  2  0  0  0  0
  6  1  2  0  0  0  0
  8  5  1  0  0  0  0
  9 13  2  0  0  0  0
 10 11  2  0  0  0  0
 10  9  1  0  0  0  0
 11 12  1  0  0  0  0
 12 13  1  0  0  0  0
 12 16  1  0  0  0  0
 14 10  1  0  0  0  0
 15 11  1  0  0  0  0
 16 17  1  0  0  0  0
 17 18  1  0  0  0  0
 19 18  1  0  0  0  0
 20 16  1  0  0  0  0
 20 19  1  0  0  0  0
 21 24  1  0  0  0  0
 21 23  1  0  0  0  0
 22 21  1  0  0  0  0
M  END
>  <minimizedAffinity>
-5.03367615

$$$$
