
     RDKit          3D

 42 44  0  0  0  0  0  0  0  0999 V2000
   37.1347   30.9532   49.0153 C   0  0  0  0  0  0  0  0  0  0  0  0
   36.9132   31.9348   50.0026 C   0  0  0  0  0  0  0  0  0  0  0  0
   37.5477   33.1607   49.9782 C   0  0  0  0  0  0  0  0  0  0  0  0
   38.4428   33.4637   48.9533 C   0  0  0  0  0  0  0  0  0  0  0  0
   38.6525   32.4949   47.9914 C   0  0  0  0  0  0  0  0  0  0  0  0
   38.0042   31.2733   48.0377 C   0  0  0  0  0  0  0  0  0  0  0  0
   36.4253   29.7035   49.1263 C   0  0  0  0  0  0  0  0  0  0  0  0
   36.9264   28.8711   49.9495 O   0  0  0  0  0  0  0  0  0  0  0  0
   33.6262   30.1848   46.8524 C   0  0  0  0  0  0  0  0  0  0  0  0
   32.9594   28.9547   46.8768 C   0  0  0  0  0  0  0  0  0  0  0  0
   33.4707   27.9591   47.6741 C   0  0  0  0  0  0  0  0  0  0  0  0
   34.5905   28.1900   48.4055 N   0  0  0  0  0  0  0  0  0  0  0  0
   35.2152   29.3603   48.3753 C   0  0  0  0  0  0  0  0  0  0  0  0
   34.7197   30.3501   47.5921 N   0  0  0  0  0  0  0  0  0  0  0  0
   38.3384   30.3836   46.9606 C   0  0  0  0  0  0  0  0  0  0  0  0
   38.8072   30.7128   45.7640 C   0  0  0  0  0  0  0  0  0  0  0  0
   39.1849   29.9063   44.5910 C   0  0  0  0  0  0  0  0  0  0  0  0
   36.2287   31.7180   50.7967 H   0  0  0  0  0  0  0  0  0  0  0  0
   37.3262   33.8626   50.7713 H   0  0  0  0  0  0  0  0  0  0  0  0
   38.9287   34.4280   48.9523 H   0  0  0  0  0  0  0  0  0  0  0  0
   39.3588   32.8056   47.2323 H   0  0  0  0  0  0  0  0  0  0  0  0
   33.2786   31.0172   46.2449 H   0  0  0  0  0  0  0  0  0  0  0  0
   32.0849   28.9010   46.2522 H   0  0  0  0  0  0  0  0  0  0  0  0
   32.9576   27.0238   47.6880 H   0  0  0  0  0  0  0  0  0  0  0  0
   38.2364   29.2858   47.0163 H   0  0  0  0  0  0  0  0  0  0  0  0
   38.9751   31.7647   45.5211 H   0  0  0  0  0  0  0  0  0  0  0  0
   38.5089   30.1109   43.7144 H   0  0  0  0  0  0  0  0  0  0  0  0
   39.0293   28.8392   44.8511 H   0  0  0  0  0  0  0  0  0  0  0  0
   40.6078   30.0462   44.1618 C   0  0  0  0  0  0  0  0  0  0  0  0
   40.5850   30.1992   42.6378 C   0  0  0  0  0  0  0  0  0  0  0  0
   41.6023   31.2575   42.3210 C   0  0  0  0  0  0  0  0  0  0  0  0
   41.6643   32.1404   43.5243 C   0  0  0  0  0  0  0  0  0  0  0  0
   41.3066   31.2602   44.6908 C   0  0  0  0  0  0  0  0  0  0  0  0
   41.1429   29.0954   44.3525 H   0  0  0  0  0  0  0  0  0  0  0  0
   39.5886   30.5383   42.2697 H   0  0  0  0  0  0  0  0  0  0  0  0
   40.7928   29.2297   42.1259 H   0  0  0  0  0  0  0  0  0  0  0  0
   42.5717   30.8410   42.0219 H   0  0  0  0  0  0  0  0  0  0  0  0
   41.2609   31.8861   41.4513 H   0  0  0  0  0  0  0  0  0  0  0  0
   40.9647   33.0050   43.4082 H   0  0  0  0  0  0  0  0  0  0  0  0
   42.6780   32.5878   43.5946 H   0  0  0  0  0  0  0  0  0  0  0  0
   42.2364   30.9208   45.2099 H   0  0  0  0  0  0  0  0  0  0  0  0
   40.6599   31.7631   45.4122 H   0  0  0  0  0  0  0  0  0  0  0  0
  1  7  1  0
  1  2  2  0
  3  2  1  0
  4  3  2  0
  5  6  2  0
  5  4  1  0
  6  1  1  0
  7  8  2  0
  9 10  2  0
  9 14  1  0
 10 11  1  0
 11 12  2  0
 13 12  1  0
 13  7  1  0
 14 13  2  0
 15  6  1  0
 16 15  2  0
 17 16  1  0
  2 18  1  0
  3 19  1  0
  4 20  1  0
  5 21  1  0
  9 22  1  0
 10 23  1  0
 11 24  1  0
 15 25  1  0
 16 26  1  0
 17 27  1  0
 17 28  1  0
 29 30  1  0
 30 31  1  0
 31 32  1  0
 32 33  1  0
 33 29  1  0
 29 34  1  0
 30 35  1  0
 30 36  1  0
 31 37  1  0
 31 38  1  0
 32 39  1  0
 32 40  1  0
 33 41  1  0
 33 42  1  0
 17 29  1  0
M  ISO  8  18  14  19  14  20  14  21  14  22  14  23  14  24  14  27   8
M  ISO  1  28   8
M  END
>  <DihAtoms>  (1) 
15,16,28,29

>  <DihDeg>  (1) 
179.9993053861096

$$$$
