
 OpenBabel03272500573D

 31 33  0  0  0  0  0  0  0  0999 V2000
   38.0960   31.8970   47.4300 C   0  0  0  0  0  0  0  0  0  0  0  0
   38.7010   32.8000   48.2550 C   0  0  0  0  0  0  0  0  0  0  0  0
   38.3560   32.9300   49.5960 C   0  0  0  0  0  0  0  0  0  0  0  0
   37.3150   32.0640   50.1130 C   0  0  0  0  0  0  0  0  0  0  0  0
   36.7540   31.1900   49.2400 C   0  0  0  0  0  0  0  0  0  0  0  0
   37.0900   31.0710   47.9460 C   0  0  0  0  0  0  0  0  0  0  0  0
   39.4960   33.4740   47.8980 H   0  0  0  0  0  0  0  0  0  0  0  0
   38.8810   33.6780   50.2070 H   0  0  0  0  0  0  0  0  0  0  0  0
   37.1580   32.2760   51.1520 H   0  0  0  0  0  0  0  0  0  0  0  0
   36.0400   30.6390   49.8330 H   0  0  0  0  0  0  0  0  0  0  0  0
   39.7870   31.1480   45.8290 C   0  0  0  0  0  0  0  0  0  0  0  0
   38.5820   31.8610   46.0670 C   0  0  0  0  0  0  0  0  0  0  0  0
   38.0190   32.4260   44.9510 C   0  0  0  0  0  0  0  0  0  0  0  0
   38.6010   32.2890   43.7460 N   0  0  0  0  0  0  0  0  0  0  0  0
   39.7160   31.6260   43.5410 C   0  0  0  0  0  0  0  0  0  0  0  0
   40.3000   31.0610   44.5850 N   0  0  0  0  0  0  0  0  0  0  0  0
   40.2770   30.6840   46.6520 H   0  0  0  0  0  0  0  0  0  0  0  0
   37.0990   32.9720   45.1340 H   0  0  0  0  0  0  0  0  0  0  0  0
   40.1750   31.5210   42.5660 H   0  0  0  0  0  0  0  0  0  0  0  0
   35.0330   30.0830   47.3740 C   0  0  0  0  0  0  0  0  0  0  0  0
   34.5400   30.7830   48.3460 O   0  0  0  0  0  0  0  0  0  0  0  0
   36.4560   30.1790   47.1190 N   0  0  0  0  0  0  0  0  0  0  0  0
   36.9280   29.6310   46.3960 H   0  0  0  0  0  0  0  0  0  0  0  0
   34.2010   29.2850   46.6340 O   0  0  0  0  0  0  0  0  0  0  0  0
   33.0280   29.7150   46.0250 C   0  0  0  0  0  0  0  0  0  0  0  0
   32.9730   30.8330   45.3310 O   0  0  0  0  0  0  0  0  0  0  0  0
   31.7550   28.9480   46.0860 C   0  0  0  0  0  3  0  0  0  0  0  0
   30.6470   29.6510   45.3290 C   0  0  0  0  0  2  0  0  0  0  0  0
   29.7220   28.5480   44.8600 C   0  0  0  0  0  2  0  0  0  0  0  0
   30.3580   27.2480   45.3530 C   0  0  0  0  0  2  0  0  0  0  0  0
   31.8360   27.6590   45.3110 C   0  0  0  0  0  2  0  0  0  0  0  0
  1  6  2  0  0  0  0
  1  2  1  0  0  0  0
  2  3  2  0  0  0  0
  3  4  1  0  0  0  0
  3  8  1  0  0  0  0
  4  9  1  0  0  0  0
  5 10  1  0  0  0  0
  5  4  2  0  0  0  0
  6  5  1  0  0  0  0
  7  2  1  0  0  0  0
 11 12  1  0  0  0  0
 11 17  1  0  0  0  0
 12  1  1  0  0  0  0
 13 18  1  0  0  0  0
 13 12  2  0  0  0  0
 14 13  1  0  0  0  0
 15 14  2  0  0  0  0
 15 16  1  0  0  0  0
 16 11  2  0  0  0  0
 19 15  1  0  0  0  0
 20 21  2  0  0  0  0
 22 20  1  0  0  0  0
 22  6  1  0  0  0  0
 23 22  1  0  0  0  0
 24 20  1  0  0  0  0
 25 27  1  0  0  0  0
 25 24  1  0  0  0  0
 26 25  2  0  0  0  0
 28 27  1  0  0  0  0
 29 28  1  0  0  0  0
 29 30  1  0  0  0  0
 31 30  1  0  0  0  0
 31 27  1  0  0  0  0
M  END
>  <minimizedAffinity>
-5.08873129

>  <minimizedRMSD>
0.677026391

$$$$
