
     RDKit          3D

 40 42  0  0  0  0  0  0  0  0999 V2000
   38.1104   31.8884   47.4125 C   0  0  0  0  0  0  0  0  0  0  0  0
   38.5772   32.7898   48.3243 C   0  0  0  0  0  0  0  0  0  0  0  0
   38.0807   32.8617   49.6211 C   0  0  0  0  0  0  0  0  0  0  0  0
   37.0306   31.9348   49.9949 C   0  0  0  0  0  0  0  0  0  0  0  0
   36.6123   31.0647   49.0416 C   0  0  0  0  0  0  0  0  0  0  0  0
   37.0937   31.0016   47.7908 C   0  0  0  0  0  0  0  0  0  0  0  0
   40.0029   31.2685   45.9915 C   0  0  0  0  0  0  0  0  0  0  0  0
   38.7452   31.9172   46.1123 C   0  0  0  0  0  0  0  0  0  0  0  0
   38.2822   32.4902   44.9550 C   0  0  0  0  0  0  0  0  0  0  0  0
   38.9986   32.4169   43.8202 N   0  0  0  0  0  0  0  0  0  0  0  0
   40.1616   31.8127   43.7237 C   0  0  0  0  0  0  0  0  0  0  0  0
   40.6540   31.2432   44.8117 N   0  0  0  0  0  0  0  0  0  0  0  0
   35.1574   29.9697   46.9434 C   0  0  0  0  0  0  0  0  0  0  0  0
   34.5226   30.6362   47.8548 O   0  0  0  0  0  0  0  0  0  0  0  0
   36.5978   30.1095   46.8749 N   0  0  0  0  0  0  0  0  0  0  0  0
   34.4513   29.1646   46.0892 O   0  0  0  0  0  0  0  0  0  0  0  0
   33.3643   29.5786   45.3291 C   0  0  0  0  0  0  0  0  0  0  0  0
   33.3664   30.7225   44.6772 O   0  0  0  0  0  0  0  0  0  0  0  0
   39.3745   33.5090   48.0771 H   0  0  0  0  0  0  0  0  0  0  0  0
   38.4995   33.6116   50.3068 H   0  0  0  0  0  0  0  0  0  0  0  0
   36.7504   32.1061   51.0157 H   0  0  0  0  0  0  0  0  0  0  0  0
   35.8634   30.4653   49.5360 H   0  0  0  0  0  0  0  0  0  0  0  0
   40.4209   30.8022   46.8532 H   0  0  0  0  0  0  0  0  0  0  0  0
   37.3214   32.9858   45.0482 H   0  0  0  0  0  0  0  0  0  0  0  0
   40.7302   31.7599   42.8037 H   0  0  0  0  0  0  0  0  0  0  0  0
   37.1754   29.5899   46.2089 H   0  0  0  0  0  0  0  0  0  0  0  0
   32.1294   28.7645   45.1701 C   0  0  0  0  0  0  0  0  0  0  0  0
   31.4543   28.5145   46.5045 C   0  0  0  0  0  0  0  0  0  0  0  0
   29.9835   28.3578   46.1825 C   0  0  0  0  0  0  0  0  0  0  0  0
   29.8764   28.5486   44.6700 C   0  0  0  0  0  0  0  0  0  0  0  0
   31.0416   29.5226   44.4549 C   0  0  0  0  0  0  0  0  0  0  0  0
   32.2885   27.7961   44.6872 H   0  0  0  0  0  0  0  0  0  0  0  0
   31.8221   27.5373   46.8842 H   0  0  0  0  0  0  0  0  0  0  0  0
   31.6633   29.2799   47.2516 H   0  0  0  0  0  0  0  0  0  0  0  0
   29.5802   27.3772   46.5091 H   0  0  0  0  0  0  0  0  0  0  0  0
   29.3749   29.1752   46.6202 H   0  0  0  0  0  0  0  0  0  0  0  0
   30.1536   27.5641   44.2263 H   0  0  0  0  0  0  0  0  0  0  0  0
   28.9148   28.9475   44.3482 H   0  0  0  0  0  0  0  0  0  0  0  0
   31.2519   29.6645   43.3824 H   0  0  0  0  0  0  0  0  0  0  0  0
   30.7634   30.4483   44.9987 H   0  0  0  0  0  0  0  0  0  0  0  0
  1  6  1  0
  1  2  2  0
  2  3  1  0
  3  4  2  0
  5  4  1  0
  6  5  2  0
  7  8  2  0
  8  1  1  0
  9  8  1  0
 10  9  2  0
 11 10  1  0
 11 12  2  0
 12  7  1  0
 13 14  2  0
 15 13  1  0
 15  6  1  0
 16 13  1  0
 17 16  1  0
 18 17  2  0
  2 19  1  0
  3 20  1  0
  4 21  1  0
  5 22  1  0
  7 23  1  0
  9 24  1  0
 11 25  1  0
 15 26  1  0
 27 28  1  0
 28 29  1  0
 29 30  1  0
 30 31  1  0
 31 27  1  0
 27 32  1  0
 28 33  1  0
 28 34  1  0
 29 35  1  0
 29 36  1  0
 30 37  1  0
 30 38  1  0
 31 39  1  0
 31 40  1  0
 17 27  1  0
M  ISO  7  19  14  20  14  21  14  22  14  23  14  24  14  25  14
M  END
>  <DihAtoms>  (1) 
15,16,26,27

>  <DihDeg>  (1) 
60.73355713914247

$$$$
