
 OpenBabel03272500453D

 21 23  0  0  0  0  0  0  0  0999 V2000
   35.1040   29.8100   47.4750 C   0  0  0  0  0  0  0  0  0  0  0  0
   35.6470   30.1160   46.2160 C   0  0  0  0  0  0  0  0  0  0  0  0
   36.8720   30.7570   46.4240 C   0  0  0  0  0  0  0  0  0  0  0  0
   37.0310   30.8210   47.7770 N   0  0  0  0  0  0  0  0  0  0  0  0
   35.9830   30.2600   48.3450 N   0  0  0  0  0  0  0  0  0  0  0  0
   35.2090   29.9000   45.2410 H   0  0  0  0  0  0  0  0  0  0  0  0
   37.5400   31.1210   45.6730 H   0  0  0  0  0  0  0  0  0  0  0  0
   33.5000   28.3740   48.7500 C   0  0  0  0  0  0  0  0  0  0  0  0
   33.8360   29.1400   47.6270 C   0  0  0  0  0  0  0  0  0  0  0  0
   32.8770   29.2520   46.6060 C   0  0  0  0  0  0  0  0  0  0  0  0
   31.6860   28.6050   46.7810 N   0  0  0  0  0  0  0  0  0  0  0  0
   31.4060   27.8740   47.8850 C   0  0  0  0  0  0  0  0  0  0  0  0
   32.3210   27.7610   48.8720 N   0  0  0  0  0  0  0  0  0  0  0  0
   34.2270   28.2770   49.5450 H   0  0  0  0  0  0  0  0  0  0  0  0
   33.0910   29.8320   45.7200 H   0  0  0  0  0  0  0  0  0  0  0  0
   30.4080   27.4680   47.7830 H   0  0  0  0  0  0  0  0  0  0  0  0
   38.1690   31.4090   48.4420 C   0  0  0  0  0  0  0  0  0  0  0  0
   39.0040   32.2380   47.4880 C   0  0  0  0  0  0  0  0  0  0  0  0
   39.3310   33.5340   48.1870 C   0  0  0  0  0  0  0  0  0  0  0  0
   38.6260   33.5160   49.5110 C   0  0  0  0  0  0  0  0  0  0  0  0
   37.6780   32.3410   49.5030 C   0  0  0  0  0  0  0  0  0  0  0  0
  1  9  1  0  0  0  0
  1  5  2  0  0  0  0
  2  3  2  0  0  0  0
  2  1  1  0  0  0  0
  3  4  1  0  0  0  0
  4  5  1  0  0  0  0
  4 17  1  0  0  0  0
  6  2  1  0  0  0  0
  7  3  1  0  0  0  0
  8 13  1  0  0  0  0
  8 14  1  0  0  0  0
  9  8  2  0  0  0  0
 10 11  2  0  0  0  0
 10  9  1  0  0  0  0
 11 12  1  0  0  0  0
 12 13  2  0  0  0  0
 15 10  1  0  0  0  0
 16 12  1  0  0  0  0
 17 21  1  0  0  0  0
 18 19  1  0  0  0  0
 18 17  1  0  0  0  0
 19 20  1  0  0  0  0
 21 20  1  0  0  0  0
M  END
>  <minimizedAffinity>
-4.76872015

>  <minimizedRMSD>
4.22422695

$$$$
