REMARK  Name = 
REMARK  6 active torsions:
REMARK  status: ('A' for Active; 'I' for Inactive)
REMARK    1  A    between atoms: C_1  and  C_4
REMARK    2  A    between atoms: C_3  and  O_11
REMARK    3  A    between atoms: O_11  and  P_13
REMARK    4  A    between atoms: P_13  and  O_14
REMARK    5  A    between atoms: P_13  and  O_15
REMARK    6  A    between atoms: O_15  and  C_25
REMARK                            x       y       z     vdW  Elec       q    Type
REMARK                         _______ _______ _______ _____ _____    ______ ____
ROOT
ATOM      1  C   UNL     1      36.984  31.566  48.662  0.00  0.00    +0.000 C 
ATOM      2  C   UNL     1      36.218  30.917  47.624  0.00  0.00    +0.000 C 
ATOM      3  C   UNL     1      37.176  30.124  48.446  0.00  0.00    +0.000 C 
ATOM      4  H   UNL     1      36.543  31.823  49.686  0.00  0.00    +0.000 HD
ATOM      5  H   UNL     1      35.189  31.177  47.780  0.00  0.00    +0.000 HD
ATOM      6  H   UNL     1      36.535  31.137  46.581  0.00  0.00    +0.000 HD
ATOM      7  H   UNL     1      37.847  29.578  47.798  0.00  0.00    +0.000 HD
ENDROOT
BRANCH   1   8
ATOM      8  C   UNL     1      38.143  32.461  48.318  0.00  0.00    +0.000 A 
ATOM      9  C   UNL     1      38.524  33.383  49.318  0.00  0.00    +0.000 A 
ATOM     10  C   UNL     1      39.590  34.183  48.988  0.00  0.00    +0.000 A 
ATOM     11  N   UNL     1      40.197  34.055  47.778  0.00  0.00    +0.000 NA
ATOM     12  C   UNL     1      39.801  33.158  46.847  0.00  0.00    +0.000 A 
ATOM     13  N   UNL     1      38.737  32.342  47.140  0.00  0.00    +0.000 NA
ATOM     14  N   UNL     1      40.422  32.992  45.603  0.00  0.00    +0.000 N 
ATOM     15  H   UNL     1      38.045  33.487  50.281  0.00  0.00    +0.000 HD
ATOM     16  H   UNL     1      39.953  34.918  49.690  0.00  0.00    +0.000 HD
ATOM     17  H   UNL     1      40.511  33.712  44.849  0.00  0.00    +0.000 HD
ATOM     18  H   UNL     1      40.907  32.161  45.171  0.00  0.00    +0.000 HD
ENDBRANCH   1   8
BRANCH   3  19
ATOM     19  O   UNL     1      36.603  29.305  49.426  0.00  0.00    +0.000 OA
BRANCH  19  21
ATOM     20  O   UNL     1      34.623  27.680  49.713  0.00  0.00    +0.000 OA
ATOM     21  P   UNL     1      35.026  28.941  49.021  0.00  0.00    +0.000 P 
BRANCH  21  22
ATOM     22  O   UNL     1      33.986  30.136  49.746  0.00  0.00    +0.000 OA
ATOM     23  H   UNL     1      34.353  30.384  50.632  0.00  0.00    +0.000 HD
ENDBRANCH  21  22
BRANCH  21  24
ATOM     24  O   UNL     1      34.825  28.964  47.384  0.00  0.00    +0.000 OA
BRANCH  24  25
ATOM     25  C   UNL     1      34.839  27.829  46.675  0.00  0.00    +0.000 C 
ATOM     26  C   UNL     1      35.749  28.039  45.477  0.00  0.00    +0.000 C 
ATOM     27  C   UNL     1      35.581  26.703  44.789  0.00  0.00    +0.000 C 
ATOM     28  C   UNL     1      34.145  26.332  45.039  0.00  0.00    +0.000 C 
ATOM     29  C   UNL     1      33.592  27.367  46.018  0.00  0.00    +0.000 C 
ENDBRANCH  24  25
ENDBRANCH  21  24
ENDBRANCH  19  21
ENDBRANCH   3  19
TORSDOF 6
