REMARK  Name = 
REMARK  5 active torsions:
REMARK  status: ('A' for Active; 'I' for Inactive)
REMARK    1  A    between atoms: C_1  and  C_7
REMARK    2  A    between atoms: C_6  and  C_15
REMARK    3  A    between atoms: C_7  and  C_13
REMARK    4  A    between atoms: C_16  and  C_17
REMARK    5  A    between atoms: C_17  and  C_29
REMARK                            x       y       z     vdW  Elec       q    Type
REMARK                         _______ _______ _______ _____ _____    ______ ____
ROOT
ATOM      1  C   UNL     1      37.135  30.953  49.015  0.00  0.00    +0.000 A 
ATOM      2  C   UNL     1      36.913  31.935  50.003  0.00  0.00    +0.000 A 
ATOM      3  C   UNL     1      37.548  33.161  49.978  0.00  0.00    +0.000 A 
ATOM      4  C   UNL     1      38.443  33.464  48.953  0.00  0.00    +0.000 A 
ATOM      5  C   UNL     1      38.653  32.495  47.991  0.00  0.00    +0.000 A 
ATOM      6  C   UNL     1      38.004  31.273  48.038  0.00  0.00    +0.000 A 
ATOM      7  H   UNL     1      36.229  31.718  50.797  0.00  0.00    +0.000 HD
ATOM      8  H   UNL     1      37.326  33.863  50.771  0.00  0.00    +0.000 HD
ATOM      9  H   UNL     1      38.929  34.428  48.952  0.00  0.00    +0.000 HD
ATOM     10  H   UNL     1      39.359  32.806  47.232  0.00  0.00    +0.000 HD
ENDROOT
BRANCH   1  11
ATOM     11  C   UNL     1      36.425  29.703  49.126  0.00  0.00    +0.000 C 
ATOM     12  O   UNL     1      36.926  28.871  49.950  0.00  0.00    +0.000 OA
BRANCH  11  17
ATOM     13  C   UNL     1      33.626  30.185  46.852  0.00  0.00    +0.000 A 
ATOM     14  C   UNL     1      32.959  28.955  46.877  0.00  0.00    +0.000 A 
ATOM     15  C   UNL     1      33.471  27.959  47.674  0.00  0.00    +0.000 A 
ATOM     16  N   UNL     1      34.590  28.190  48.406  0.00  0.00    +0.000 NA
ATOM     17  C   UNL     1      35.215  29.360  48.375  0.00  0.00    +0.000 A 
ATOM     18  N   UNL     1      34.720  30.350  47.592  0.00  0.00    +0.000 NA
ATOM     19  H   UNL     1      33.279  31.017  46.245  0.00  0.00    +0.000 HD
ATOM     20  H   UNL     1      32.085  28.901  46.252  0.00  0.00    +0.000 HD
ATOM     21  H   UNL     1      32.958  27.024  47.688  0.00  0.00    +0.000 HD
ENDBRANCH  11  17
ENDBRANCH   1  11
BRANCH   6  22
ATOM     22  C   UNL     1      38.338  30.384  46.961  0.00  0.00    +0.000 C 
ATOM     23  C   UNL     1      38.807  30.713  45.764  0.00  0.00    +0.000 C 
BRANCH  23  24
ATOM     24  C   UNL     1      39.185  29.906  44.591  0.00  0.00    +0.000 C 
ATOM     25  H   UNL     1      38.509  30.111  43.714  0.00  0.00    +0.000 HD
ATOM     26  H   UNL     1      39.029  28.839  44.851  0.00  0.00    +0.000 HD
BRANCH  24  27
ATOM     27  C   UNL     1      40.608  30.046  44.162  0.00  0.00    +0.000 C 
ATOM     28  C   UNL     1      41.002  28.706  43.533  0.00  0.00    +0.000 C 
ATOM     29  C   UNL     1      41.819  29.052  42.321  0.00  0.00    +0.000 C 
ATOM     30  C   UNL     1      41.337  30.391  41.869  0.00  0.00    +0.000 C 
ATOM     31  C   UNL     1      40.847  31.085  43.110  0.00  0.00    +0.000 C 
ENDBRANCH  24  27
ENDBRANCH  23  24
ENDBRANCH   6  22
TORSDOF 5
