
     RDKit          3D

 30 31  0  0  0  0  0  0  0  0999 V2000
   37.3703   30.1841   51.4344 C   0  0  0  0  0  0  0  0  0  0  0  0
   38.1336   30.6756   50.3387 C   0  0  0  0  0  0  0  0  0  0  0  0
   37.6976   30.3976   49.0179 C   0  0  0  0  0  0  0  0  0  0  0  0
   36.5472   29.6594   48.9143 N   0  0  0  0  0  0  0  0  0  0  0  0
   35.8611   29.2176   49.9698 C   0  0  0  0  0  0  0  0  0  0  0  0
   36.2680   29.4770   51.2216 N   0  0  0  0  0  0  0  0  0  0  0  0
   34.6624   28.4486   49.6734 C   0  0  0  0  0  0  0  0  0  0  0  0
   34.4924   27.9828   48.4809 C   0  0  0  0  0  0  0  0  0  0  0  0
   33.3864   27.1944   47.9839 C   0  0  0  0  0  0  0  0  0  0  0  0
   37.7607   30.4333   52.4118 H   0  0  0  0  0  0  0  0  0  0  0  0
   39.0436   31.2595   50.4173 H   0  0  0  0  0  0  0  0  0  0  0  0
   38.2319   30.7417   48.1625 H   0  0  0  0  0  0  0  0  0  0  0  0
   33.9225   28.2671   50.4169 H   0  0  0  0  0  0  0  0  0  0  0  0
   35.2315   28.1528   47.6805 H   0  0  0  0  0  0  0  0  0  0  0  0
   32.9389   27.6595   47.0804 H   0  0  0  0  0  0  0  0  0  0  0  0
   33.8180   26.2168   47.6173 H   0  0  0  0  0  0  0  0  0  0  0  0
   32.3139   26.8180   48.9595 C   0  0  0  0  0  0  0  0  0  0  0  0
   31.3075   27.9840   48.8830 C   0  0  0  0  0  0  0  0  0  0  0  0
   29.9715   27.4081   49.2230 C   0  0  0  0  0  0  0  0  0  0  0  0
   30.1403   25.9181   49.2213 C   0  0  0  0  0  0  0  0  0  0  0  0
   31.4096   25.7199   48.3819 C   0  0  0  0  0  0  0  0  0  0  0  0
   32.6316   26.5930   49.9704 H   0  0  0  0  0  0  0  0  0  0  0  0
   31.6292   28.8340   49.5093 H   0  0  0  0  0  0  0  0  0  0  0  0
   31.2512   28.3181   47.8268 H   0  0  0  0  0  0  0  0  0  0  0  0
   29.5860   27.8136   50.1880 H   0  0  0  0  0  0  0  0  0  0  0  0
   29.1865   27.6688   48.4602 H   0  0  0  0  0  0  0  0  0  0  0  0
   30.3946   25.5880   50.2585 H   0  0  0  0  0  0  0  0  0  0  0  0
   29.2700   25.4088   48.7869 H   0  0  0  0  0  0  0  0  0  0  0  0
   31.2156   25.9508   47.3246 H   0  0  0  0  0  0  0  0  0  0  0  0
   31.7650   24.7125   48.5692 H   0  0  0  0  0  0  0  0  0  0  0  0
  2  1  2  0
  3  2  1  0
  4  3  2  0
  4  5  1  0
  5  6  2  0
  6  1  1  0
  7  5  1  0
  8  7  2  0
  9  8  1  0
  1 10  1  0
  2 11  1  0
  3 12  1  0
  7 13  1  0
  8 14  1  0
  9 15  1  0
  9 16  1  0
 17 18  1  0
 18 19  1  0
 19 20  1  0
 20 21  1  0
 21 17  1  0
 17 22  1  0
 18 23  1  0
 18 24  1  0
 19 25  1  0
 19 26  1  0
 20 27  1  0
 20 28  1  0
 21 29  1  0
 21 30  1  0
  9 17  1  0
M  ISO  5  10  14  11  14  12  14  15   8  16   8
M  END
>  <DihAtoms>  (1) 
7,8,16,17

>  <DihDeg>  (1) 
179.40645608169527

$$$$
