
 OpenBabel03272507343D

 32 35  0  0  1  0  0  0  0  0999 V2000
   35.8180   29.1180   49.7930 C   0  0  0  0  0  0  0  0  0  0  0  0
   34.7870   29.6280   50.5490 C   0  0  0  0  0  0  0  0  0  0  0  0
   33.5970   29.0790   50.0550 C   0  0  0  0  0  0  0  0  0  0  0  0
   33.9840   28.2600   49.0180 C   0  0  0  0  0  0  0  0  0  0  0  0
   35.2930   28.3140   48.8990 O   0  0  0  0  0  0  0  0  0  0  0  0
   34.8500   30.3320   51.3880 H   0  0  0  0  0  0  0  0  0  0  0  0
   32.5860   29.2550   50.4070 H   0  0  0  0  0  0  0  0  0  0  0  0
   37.2090   29.4760   50.0310 C   0  0  0  0  0  0  0  0  0  0  0  0
   37.8460   28.8770   50.9050 O   0  0  0  0  0  0  0  0  0  0  0  0
   37.7580   30.5230   49.2160 C   0  0  0  0  0  0  0  0  0  0  0  0
   38.1020   31.7040   49.8530 C   0  0  0  0  0  0  0  0  0  0  0  0
   38.6370   32.7450   49.0880 C   0  0  0  0  0  0  0  0  0  0  0  0
   38.7970   32.5410   47.7370 N   0  0  0  0  0  0  0  0  0  0  0  0
   38.4530   31.3840   47.1560 C   0  0  0  0  0  0  0  0  0  0  0  0
   37.9400   30.3820   47.8830 N   0  0  0  0  0  0  0  0  0  0  0  0
   37.9860   31.8960   50.9220 H   0  0  0  0  0  0  0  0  0  0  0  0
   38.9110   33.6710   49.5580 H   0  0  0  0  0  0  0  0  0  0  0  0
   38.5910   31.2510   46.0850 H   0  0  0  0  0  0  0  0  0  0  0  0
   33.0920   27.4570   48.1820 C   0  0  0  0  0  0  0  0  0  0  0  0
   31.8510   27.4240   48.4750 O   0  0  0  0  0  0  0  0  0  0  0  0
   33.6400   26.6880   47.0140 C   0  0  1  0  0  0  0  0  0  0  0  0
   33.7670   25.1650   47.3880 C   0  0  0  0  0  0  0  0  0  0  0  0
   32.8330   25.6640   46.3480 C   0  0  2  0  0  0  0  0  0  0  0  0
   34.6620   27.0190   46.7330 H   0  0  0  0  0  0  0  0  0  0  0  0
   33.2980   24.8380   48.3270 H   0  0  0  0  0  0  0  0  0  0  0  0
   34.6810   24.6410   47.1350 H   0  0  0  0  0  0  0  0  0  0  0  0
   31.7550   25.6420   46.5530 H   0  0  0  0  0  0  0  0  0  0  0  0
   33.1840   25.4420   44.8760 C   0  0  0  0  0  3  0  0  0  0  0  0
   32.6570   24.1120   44.3840 C   0  0  0  0  0  2  0  0  0  0  0  0
   33.5570   23.9140   43.1570 C   0  0  0  0  0  2  0  0  0  0  0  0
   34.9210   24.0860   43.8400 C   0  0  0  0  0  2  0  0  0  0  0  0
   34.6800   25.3040   44.7080 C   0  0  0  0  0  2  0  0  0  0  0  0
  1  8  1  0  0  0  0
  1  2  2  0  0  0  0
  2  6  1  0  0  0  0
  3  7  1  0  0  0  0
  3  2  1  0  0  0  0
  4  3  2  0  0  0  0
  5  4  1  0  0  0  0
  5  1  1  0  0  0  0
  8  9  2  0  0  0  0
 10 11  1  0  0  0  0
 10  8  1  0  0  0  0
 11 16  1  0  0  0  0
 12 17  1  0  0  0  0
 12 11  2  0  0  0  0
 13 12  1  0  0  0  0
 14 13  2  0  0  0  0
 14 15  1  0  0  0  0
 15 10  2  0  0  0  0
 18 14  1  0  0  0  0
 19 20  2  0  0  0  0
 19  4  1  0  0  0  0
 21 24  1  6  0  0  0
 21 22  1  0  0  0  0
 21 19  1  0  0  0  0
 22 25  1  0  0  0  0
 23 27  1  1  0  0  0
 23 21  1  0  0  0  0
 23 22  1  0  0  0  0
 26 22  1  0  0  0  0
 28 23  1  0  0  0  0
 29 28  1  0  0  0  0
 30 31  1  0  0  0  0
 30 29  1  0  0  0  0
 31 32  1  0  0  0  0
 32 28  1  0  0  0  0
M  END
>  <minimizedAffinity>
-4.96775627

>  <minimizedRMSD>
0.146689847

$$$$
