
 OpenBabel03272506193D

 30 32  0  0  0  0  0  0  0  0999 V2000
   35.4300   30.4380   49.9650 C   0  0  0  0  0  0  0  0  0  0  0  0
   36.4470   31.2290   49.1660 C   0  0  0  0  0  0  0  0  0  0  0  0
   37.8410   30.6860   49.2830 C   0  0  0  0  0  0  0  0  0  0  0  0
   38.2850   30.5950   50.7180 C   0  0  0  0  0  0  0  0  0  0  0  0
   37.2540   29.9830   51.6220 C   0  0  0  0  0  0  0  0  0  0  0  0
   36.0570   29.4370   50.8740 C   0  0  0  0  0  0  0  0  0  0  0  0
   34.7760   31.1610   50.4930 H   0  0  0  0  0  0  0  0  0  0  0  0
   36.4840   32.2650   49.5580 H   0  0  0  0  0  0  0  0  0  0  0  0
   36.1770   31.2890   48.0960 H   0  0  0  0  0  0  0  0  0  0  0  0
   37.8670   29.6740   48.8020 H   0  0  0  0  0  0  0  0  0  0  0  0
   38.5060   31.3580   48.7350 H   0  0  0  0  0  0  0  0  0  0  0  0
   38.4310   31.6550   51.0550 H   0  0  0  0  0  0  0  0  0  0  0  0
   39.2620   30.0950   50.7580 H   0  0  0  0  0  0  0  0  0  0  0  0
   36.8570   30.7070   52.3640 H   0  0  0  0  0  0  0  0  0  0  0  0
   37.7070   29.1410   52.1830 H   0  0  0  0  0  0  0  0  0  0  0  0
   35.3410   29.0980   51.6300 H   0  0  0  0  0  0  0  0  0  0  0  0
   36.4410   28.5890   50.2430 H   0  0  0  0  0  0  0  0  0  0  0  0
   34.5300   29.6950   49.0290 C   0  0  0  0  0  0  0  0  0  0  0  0
   34.3450   30.2870   47.7660 C   0  0  0  0  0  0  0  0  0  0  0  0
   33.4920   29.6040   46.8810 C   0  0  0  0  0  0  0  0  0  0  0  0
   32.8950   28.4250   47.2730 N   0  0  0  0  0  0  0  0  0  0  0  0
   33.1170   27.8990   48.5190 C   0  0  0  0  0  0  0  0  0  0  0  0
   33.9210   28.5340   49.3680 N   0  0  0  0  0  0  0  0  0  0  0  0
   34.7730   31.1930   47.4060 H   0  0  0  0  0  0  0  0  0  0  0  0
   32.6680   26.9900   48.8450 H   0  0  0  0  0  0  0  0  0  0  0  0
   33.1720   30.0500   45.5330 C   0  0  0  0  0  3  0  0  0  0  0  0
   32.1010   31.1490   45.5080 C   0  0  0  0  0  2  0  0  0  0  0  0
   32.0520   31.3420   43.9850 C   0  0  0  0  0  2  0  0  0  0  0  0
   32.0230   29.9100   43.5040 C   0  0  0  0  0  2  0  0  0  0  0  0
   32.5390   29.0400   44.6340 C   0  0  0  0  0  2  0  0  0  0  0  0
  1  7  1  0  0  0  0
  1  6  1  0  0  0  0
  2  3  1  0  0  0  0
  2  8  1  0  0  0  0
  2  1  1  0  0  0  0
  3  4  1  0  0  0  0
  4 13  1  0  0  0  0
  4 12  1  0  0  0  0
  4  5  1  0  0  0  0
  5 15  1  0  0  0  0
  5 14  1  0  0  0  0
  6  5  1  0  0  0  0
  6 16  1  0  0  0  0
  9  2  1  0  0  0  0
 10  3  1  0  0  0  0
 11  3  1  0  0  0  0
 17  6  1  0  0  0  0
 18 23  1  0  0  0  0
 18  1  1  0  0  0  0
 19 18  2  0  0  0  0
 20 21  2  0  0  0  0
 20 19  1  0  0  0  0
 21 22  1  0  0  0  0
 22 25  1  0  0  0  0
 22 23  2  0  0  0  0
 24 19  1  0  0  0  0
 26 20  1  0  0  0  0
 27 26  1  0  0  0  0
 28 27  1  0  0  0  0
 29 28  1  0  0  0  0
 29 30  1  0  0  0  0
 30 26  1  0  0  0  0
M  END
>  <minimizedAffinity>
-5.21842289

>  <minimizedRMSD>
0.617126703

$$$$
