
 OpenBabel03272510273D

 41 45  0  0  1  0  0  0  0  0999 V2000
   36.1980   30.1510   46.9810 C   0  0  0  0  0  0  0  0  0  0  0  0
   37.0350   30.7150   47.9420 C   0  0  0  0  0  0  0  0  0  0  0  0
   38.0220   31.6400   47.5880 C   0  0  0  0  0  0  0  0  0  0  0  0
   38.1140   31.9580   46.2370 C   0  0  0  0  0  0  0  0  0  0  0  0
   38.9870   32.8290   45.6500 N   0  0  0  0  0  0  0  0  0  0  0  0
   38.7070   32.8170   44.3390 C   0  0  0  0  0  0  0  0  0  0  0  0
   37.7080   31.9810   44.1020 N   0  0  0  0  0  0  0  0  0  0  0  0
   37.3090   31.4260   45.2590 C   0  0  0  0  0  0  0  0  0  0  0  0
   36.3320   30.5010   45.6490 C   0  0  0  0  0  0  0  0  0  0  0  0
   35.4340   29.4340   47.2530 H   0  0  0  0  0  0  0  0  0  0  0  0
   38.6790   32.0860   48.3300 H   0  0  0  0  0  0  0  0  0  0  0  0
   39.7340   33.3990   46.1320 H   0  0  0  0  0  0  0  0  0  0  0  0
   35.6980   30.0820   44.8770 H   0  0  0  0  0  0  0  0  0  0  0  0
   37.4110   30.0940   51.6190 C   0  0  0  0  0  0  0  0  0  0  0  0
   37.7470   30.5440   50.3560 C   0  0  0  0  0  0  0  0  0  0  0  0
   36.8600   30.3210   49.3270 C   0  0  0  0  0  0  0  0  0  0  0  0
   35.6880   29.6570   49.6320 N   0  0  0  0  0  0  0  0  0  0  0  0
   35.3820   29.2280   50.8720 C   0  0  0  0  0  0  0  0  0  0  0  0
   36.2350   29.4450   51.8480 N   0  0  0  0  0  0  0  0  0  0  0  0
   38.1670   30.3120   52.3710 H   0  0  0  0  0  0  0  0  0  0  0  0
   38.6610   31.0630   50.1050 H   0  0  0  0  0  0  0  0  0  0  0  0
   34.4440   28.7150   51.0400 H   0  0  0  0  0  0  0  0  0  0  0  0
   39.4070   33.5960   43.4160 O   0  0  0  0  0  0  0  0  0  0  0  0
   39.9460   31.6870   42.2400 N   0  0  0  0  0  0  0  0  0  0  0  0
   39.4950   33.0640   42.1030 C   0  0  1  0  0  0  0  0  0  0  0  0
   38.2060   33.1130   41.4330 C   0  0  0  0  0  0  0  0  0  0  0  0
   38.3530   32.5970   40.1330 O   0  0  0  0  0  0  0  0  0  0  0  0
   38.8910   31.3440   40.0580 C   0  0  0  0  0  0  0  0  0  0  0  0
   40.1630   31.2560   40.8810 C   0  0  2  0  0  0  0  0  0  0  0  0
   39.3010   31.0180   42.6320 H   0  0  0  0  0  0  0  0  0  0  0  0
   40.2650   33.5890   41.5140 H   0  0  0  0  0  0  0  0  0  0  0  0
   37.9690   34.2060   41.2430 H   0  0  0  0  0  0  0  0  0  0  0  0
   37.3120   32.6720   41.7800 H   0  0  0  0  0  0  0  0  0  0  0  0
   38.1230   30.6310   40.3950 H   0  0  0  0  0  0  0  0  0  0  0  0
   39.1920   31.1730   39.0160 H   0  0  0  0  0  0  0  0  0  0  0  0
   40.8340   32.0270   40.4370 H   0  0  0  0  0  0  0  0  0  0  0  0
   40.8630   29.9580   40.7530 C   0  0  0  0  0  3  0  0  0  0  0  0
   41.6870   29.8850   39.4940 C   0  0  0  0  0  2  0  0  0  0  0  0
   42.1690   28.4310   39.5900 C   0  0  0  0  0  2  0  0  0  0  0  0
   40.8670   27.7270   39.9050 C   0  0  0  0  0  2  0  0  0  0  0  0
   39.9760   28.7610   40.6060 C   0  0  0  0  0  2  0  0  0  0  0  0
  1 10  1  0  0  0  0
  1  2  1  0  0  0  0
  2 16  1  0  0  0  0
  3  2  2  0  0  0  0
  3 11  1  0  0  0  0
  4  3  1  0  0  0  0
  5 12  1  0  0  0  0
  5  4  1  0  0  0  0
  6  5  1  0  0  0  0
  7  6  2  0  0  0  0
  7  8  1  0  0  0  0
  8  9  1  0  0  0  0
  8  4  2  0  0  0  0
  9  1  2  0  0  0  0
 13  9  1  0  0  0  0
 14 19  1  0  0  0  0
 14 20  1  0  0  0  0
 15 14  2  0  0  0  0
 16 17  2  0  0  0  0
 16 15  1  0  0  0  0
 17 18  1  0  0  0  0
 18 22  1  0  0  0  0
 18 19  2  0  0  0  0
 21 15  1  0  0  0  0
 23  6  1  0  0  0  0
 24 30  1  0  0  0  0
 25 31  1  6  0  0  0
 25 24  1  0  0  0  0
 25 23  1  0  0  0  0
 26 33  1  0  0  0  0
 26 25  1  0  0  0  0
 27 26  1  0  0  0  0
 28 27  1  0  0  0  0
 28 34  1  0  0  0  0
 28 29  1  0  0  0  0
 29 36  1  6  0  0  0
 29 24  1  0  0  0  0
 32 26  1  0  0  0  0
 35 28  1  0  0  0  0
 37 29  1  0  0  0  0
 38 39  1  0  0  0  0
 38 37  1  0  0  0  0
 39 40  1  0  0  0  0
 40 41  1  0  0  0  0
 41 37  1  0  0  0  0
M  END
>  <minimizedAffinity>
-5.93200397

>  <minimizedRMSD>
0.785840809

$$$$
