
 OpenBabel03272500153D

 27 29  0  0  0  0  0  0  0  0999 V2000
   32.8080   30.7350   46.3240 Cl  0  0  0  0  0  0  0  0  0  0  0  0
   32.9000   29.0780   46.8630 C   0  0  0  0  0  0  0  0  0  0  0  0
   33.9580   28.6670   47.6820 C   0  0  0  0  0  0  0  0  0  0  0  0
   34.0680   27.3520   48.1230 C   0  0  0  0  0  0  0  0  0  0  0  0
   33.0910   26.4500   47.7210 C   0  0  0  0  0  0  0  0  0  0  0  0
   32.0360   26.8450   46.9060 C   0  0  0  0  0  0  0  0  0  0  0  0
   30.8340   25.6580   46.4340 Cl  0  0  0  0  0  0  0  0  0  0  0  0
   31.9410   28.1850   46.4720 C   0  0  0  0  0  0  0  0  0  0  0  0
   34.8660   27.0010   48.7530 H   0  0  0  0  0  0  0  0  0  0  0  0
   33.1240   25.4210   48.0290 H   0  0  0  0  0  0  0  0  0  0  0  0
   35.9410   30.9770   49.7540 C   0  0  0  0  0  0  0  0  0  0  0  0
   36.9270   31.3930   48.8290 C   0  0  0  0  0  0  0  0  0  0  0  0
   36.9030   30.8840   47.5150 C   0  0  0  0  0  0  0  0  0  0  0  0
   35.9100   30.0010   47.2110 N   0  0  0  0  0  0  0  0  0  0  0  0
   34.9780   29.6140   48.1000 C   0  0  0  0  0  0  0  0  0  0  0  0
   34.9860   30.0900   49.3600 N   0  0  0  0  0  0  0  0  0  0  0  0
   35.9670   31.3660   50.7410 H   0  0  0  0  0  0  0  0  0  0  0  0
   37.6450   31.2020   46.8320 H   0  0  0  0  0  0  0  0  0  0  0  0
   37.9620   32.3690   49.2970 C   0  0  0  0  0  0  0  0  0  0  0  0
   38.7570   32.7860   48.2090 F   0  0  0  0  0  0  0  0  0  0  0  0
   37.3420   33.4700   49.7970 F   0  0  0  0  0  0  0  0  0  0  0  0
   38.8070   31.8330   50.2400 F   0  0  0  0  0  0  0  0  0  0  0  0
   30.7780   28.5100   45.6200 C   0  0  0  0  0  0  0  0  0  0  0  0
   31.1440   28.7280   44.1690 C   0  0  0  0  0  0  0  0  0  0  0  0
   30.7790   30.1670   43.8620 C   0  0  0  0  0  0  0  0  0  0  0  0
   29.8300   30.6240   44.9380 C   0  0  0  0  0  0  0  0  0  0  0  0
   29.9280   29.6390   46.0790 C   0  0  0  0  0  0  0  0  0  0  0  0
  1  2  1  0  0  0  0
  2  3  1  0  0  0  0
  3 15  1  0  0  0  0
  3  4  2  0  0  0  0
  4  9  1  0  0  0  0
  5 10  1  0  0  0  0
  5  4  1  0  0  0  0
  6  5  2  0  0  0  0
  7  6  1  0  0  0  0
  8  2  2  0  0  0  0
  8  6  1  0  0  0  0
 11 17  1  0  0  0  0
 12 19  1  0  0  0  0
 12 11  2  0  0  0  0
 13 12  1  0  0  0  0
 14 13  2  0  0  0  0
 14 15  1  0  0  0  0
 15 16  2  0  0  0  0
 16 11  1  0  0  0  0
 18 13  1  0  0  0  0
 19 21  1  0  0  0  0
 19 22  1  0  0  0  0
 20 19  1  0  0  0  0
 23 27  1  0  0  0  0
 23  8  1  0  0  0  0
 24 23  1  0  0  0  0
 25 24  1  0  0  0  0
 25 26  1  0  0  0  0
 26 27  1  0  0  0  0
M  END
>  <minimizedAffinity>
-5.57576227

>  <minimizedRMSD>
1.50698853

$$$$
