
 OpenBabel03272508453D

 23 25  0  0  0  0  0  0  0  0999 V2000
   35.6470   29.9570   50.1650 C   0  0  0  0  0  0  0  0  0  0  0  0
   36.4930   29.4710   51.1570 C   0  0  0  0  0  0  0  0  0  0  0  0
   37.6820   30.1670   50.8850 C   0  0  0  0  0  0  0  0  0  0  0  0
   37.5010   30.9900   49.8040 C   0  0  0  0  0  0  0  0  0  0  0  0
   36.2630   30.8390   49.3930 O   0  0  0  0  0  0  0  0  0  0  0  0
   36.2210   28.7460   51.9040 H   0  0  0  0  0  0  0  0  0  0  0  0
   38.5820   30.0150   51.5010 H   0  0  0  0  0  0  0  0  0  0  0  0
   38.4890   31.8780   49.2050 C   0  0  0  0  0  3  0  0  0  0  0  0
   38.3030   33.3320   49.5800 C   0  0  0  0  0  2  0  0  0  0  0  0
   39.3460   33.9850   48.6830 C   0  0  0  0  0  2  0  0  0  0  0  0
   39.4600   33.0770   47.4660 C   0  0  0  0  0  2  0  0  0  0  0  0
   38.4120   31.9890   47.6960 C   0  0  0  0  0  2  0  0  0  0  0  0
   34.2450   29.5230   50.0160 C   0  0  0  0  0  0  0  0  0  0  0  0
   33.4460   29.7900   50.9310 O   0  0  0  0  0  0  0  0  0  0  0  0
   32.4510   27.2020   47.8550 C   0  0  0  0  0  0  0  0  0  0  0  0
   33.0300   27.4220   46.6050 C   0  0  0  0  0  0  0  0  0  0  0  0
   34.0350   28.3610   46.4860 C   0  0  0  0  0  0  0  0  0  0  0  0
   34.4060   29.0250   47.6090 N   0  0  0  0  0  0  0  0  0  0  0  0
   33.8370   28.8050   48.8220 C   0  0  0  0  0  0  0  0  0  0  0  0
   32.8650   27.8910   48.9250 N   0  0  0  0  0  0  0  0  0  0  0  0
   31.6740   26.4590   47.8900 H   0  0  0  0  0  0  0  0  0  0  0  0
   32.7800   26.9280   45.6780 H   0  0  0  0  0  0  0  0  0  0  0  0
   34.5920   28.6630   45.6100 H   0  0  0  0  0  0  0  0  0  0  0  0
  1  2  2  0  0  0  0
  2  6  1  0  0  0  0
  3  2  1  0  0  0  0
  3  7  1  0  0  0  0
  4  3  2  0  0  0  0
  5  4  1  0  0  0  0
  5  1  1  0  0  0  0
  8  9  1  0  0  0  0
  8  4  1  0  0  0  0
 10  9  1  0  0  0  0
 11 12  1  0  0  0  0
 11 10  1  0  0  0  0
 12  8  1  0  0  0  0
 13  1  1  0  0  0  0
 13 14  2  0  0  0  0
 15 21  1  0  0  0  0
 15 20  1  0  0  0  0
 16 15  2  0  0  0  0
 17 16  1  0  0  0  0
 17 18  2  0  0  0  0
 18 19  1  0  0  0  0
 19 20  2  0  0  0  0
 19 13  1  0  0  0  0
 22 16  1  0  0  0  0
 23 17  1  0  0  0  0
M  END
>  <minimizedAffinity>
-5.59591103

>  <minimizedRMSD>
2.34008479

$$$$
