
 OpenBabel03272509343D

 37 41  0  0  1  0  0  0  0  0999 V2000
   33.8320   29.8550   47.5100 C   0  0  1  0  0  0  0  0  0  0  0  0
   33.8310   28.6990   48.4230 C   0  0  0  0  0  0  0  0  0  0  0  0
   35.1530   29.1340   47.9010 C   0  0  2  0  0  0  0  0  0  0  0  0
   33.8380   30.8620   47.8940 H   0  0  0  0  0  0  0  0  0  0  0  0
   33.4420   27.7080   47.9980 H   0  0  0  0  0  0  0  0  0  0  0  0
   33.3450   28.9140   49.3550 H   0  0  0  0  0  0  0  0  0  0  0  0
   35.7180   28.9240   47.0090 H   0  0  0  0  0  0  0  0  0  0  0  0
   35.9790   29.7090   48.9930 C   0  0  0  0  0  0  0  0  0  0  0  0
   35.6940   29.0790   50.2100 C   0  0  0  0  0  0  0  0  0  0  0  0
   36.3940   29.3960   51.3540 C   0  0  0  0  0  0  0  0  0  0  0  0
   37.4130   30.3540   51.3270 C   0  0  0  0  0  0  0  0  0  0  0  0
   37.6730   30.9560   50.1190 C   0  0  0  0  0  0  0  0  0  0  0  0
   38.6340   31.9240   49.9400 C   0  0  0  0  0  0  0  0  0  0  0  0
   38.9010   32.5440   48.7400 C   0  0  0  0  0  0  0  0  0  0  0  0
   38.1680   32.1860   47.6320 C   0  0  0  0  0  0  0  0  0  0  0  0
   37.1990   31.2180   47.7820 C   0  0  0  0  0  0  0  0  0  0  0  0
   36.9700   30.6290   48.9990 C   0  0  0  0  0  0  0  0  0  0  0  0
   35.0250   28.3240   50.5640 H   0  0  0  0  0  0  0  0  0  0  0  0
   36.3030   29.0140   52.3590 H   0  0  0  0  0  0  0  0  0  0  0  0
   38.0510   30.7170   52.1210 H   0  0  0  0  0  0  0  0  0  0  0  0
   39.2360   32.2310   50.8110 H   0  0  0  0  0  0  0  0  0  0  0  0
   39.6750   33.3050   48.6590 H   0  0  0  0  0  0  0  0  0  0  0  0
   38.3160   32.6230   46.6550 H   0  0  0  0  0  0  0  0  0  0  0  0
   36.6210   30.9440   46.8810 H   0  0  0  0  0  0  0  0  0  0  0  0
   32.0560   28.6300   44.4190 C   0  0  0  0  0  0  0  0  0  0  0  0
   32.3920   28.8220   45.7900 C   0  0  0  0  0  0  0  0  0  0  0  0
   33.4490   29.6470   46.0980 C   0  0  0  0  0  0  0  0  0  0  0  0
   34.0940   30.2200   45.0510 N   0  0  0  0  0  0  0  0  0  0  0  0
   33.7790   30.0410   43.7590 C   0  0  0  0  0  0  0  0  0  0  0  0
   32.7430   29.2320   43.4340 N   0  0  0  0  0  0  0  0  0  0  0  0
   31.2270   27.9830   44.1700 H   0  0  0  0  0  0  0  0  0  0  0  0
   31.8020   28.3110   46.5280 H   0  0  0  0  0  0  0  0  0  0  0  0
   34.6490   30.7900   42.7820 C   0  0  0  0  0  3  0  0  0  0  0  0
   36.0630   30.8690   43.2500 C   0  0  0  0  0  2  0  0  0  0  0  0
   36.5080   32.2980   43.1940 C   0  0  0  0  0  2  0  0  0  0  0  0
   35.4010   33.0800   42.5180 C   0  0  0  0  0  2  0  0  0  0  0  0
   34.1710   32.1930   42.5900 C   0  0  0  0  0  2  0  0  0  0  0  0
  1  4  1  1  0  0  0
  1  3  1  0  0  0  0
  1  2  1  0  0  0  0
  2  6  1  0  0  0  0
  3  7  1  6  0  0  0
  3  2  1  0  0  0  0
  3  8  1  0  0  0  0
  5  2  1  0  0  0  0
  8 17  2  0  0  0  0
  8  9  1  0  0  0  0
  9 18  1  0  0  0  0
  9 10  2  0  0  0  0
 10 19  1  0  0  0  0
 11 10  1  0  0  0  0
 11 20  1  0  0  0  0
 12 11  2  0  0  0  0
 13 12  1  0  0  0  0
 13 21  1  0  0  0  0
 14 13  2  0  0  0  0
 15 16  2  0  0  0  0
 15 14  1  0  0  0  0
 16 17  1  0  0  0  0
 17 12  1  0  0  0  0
 22 14  1  0  0  0  0
 23 15  1  0  0  0  0
 24 16  1  0  0  0  0
 25 26  1  0  0  0  0
 26 27  2  0  0  0  0
 26 32  1  0  0  0  0
 27  1  1  0  0  0  0
 28 27  1  0  0  0  0
 29 28  2  0  0  0  0
 30 29  1  0  0  0  0
 30 25  2  0  0  0  0
 31 25  1  0  0  0  0
 33 34  1  0  0  0  0
 33 29  1  0  0  0  0
 35 34  1  0  0  0  0
 36 37  1  0  0  0  0
 36 35  1  0  0  0  0
 37 33  1  0  0  0  0
M  END
>  <minimizedAffinity>
-6.5695715

>  <minimizedRMSD>
7.58505678

$$$$
