
 OpenBabel03272510303D

 24 26  0  0  0  0  0  0  0  0999 V2000
   37.3050   31.3860   49.3180 C   0  0  0  0  0  0  0  0  0  0  0  0
   37.5440   32.6650   49.8230 C   0  0  0  0  0  0  0  0  0  0  0  0
   38.4460   33.4390   49.0940 C   0  0  0  0  0  0  0  0  0  0  0  0
   39.0280   32.9330   47.9730 N   0  0  0  0  0  0  0  0  0  0  0  0
   38.7550   31.6720   47.5270 C   0  0  0  0  0  0  0  0  0  0  0  0
   37.8670   30.8760   48.2230 N   0  0  0  0  0  0  0  0  0  0  0  0
   37.0590   33.0300   50.7190 H   0  0  0  0  0  0  0  0  0  0  0  0
   38.6880   34.4450   49.4170 H   0  0  0  0  0  0  0  0  0  0  0  0
   36.3050   30.5430   50.0490 C   0  0  0  0  0  0  0  0  0  0  0  0
   36.2450   29.1060   49.9190 C   0  0  0  0  0  0  0  0  0  0  0  0
   36.9250   29.6710   51.1450 C   0  0  0  0  0  0  0  0  0  0  0  0
   35.4480   31.1900   50.4050 H   0  0  0  0  0  0  0  0  0  0  0  0
   36.9400   28.6440   49.1840 H   0  0  0  0  0  0  0  0  0  0  0  0
   35.2880   28.5640   50.0020 H   0  0  0  0  0  0  0  0  0  0  0  0
   36.3470   29.6030   52.0630 H   0  0  0  0  0  0  0  0  0  0  0  0
   38.0080   29.6650   51.2480 H   0  0  0  0  0  0  0  0  0  0  0  0
   39.3430   31.1170   46.3190 C   0  0  0  0  0  0  0  0  0  0  0  0
   39.9110   31.8530   45.7360 H   0  0  0  0  0  0  0  0  0  0  0  0
   40.0440   30.3090   46.6190 H   0  0  0  0  0  0  0  0  0  0  0  0
   38.3410   30.5010   45.3750 C   0  0  0  0  0  0  0  0  0  0  0  0
   39.1540   29.7570   44.3120 C   0  0  0  0  0  0  0  0  0  0  0  0
   38.3360   29.8010   43.0410 C   0  0  0  0  0  0  0  0  0  0  0  0
   37.2010   30.7730   43.3120 C   0  0  0  0  0  0  0  0  0  0  0  0
   37.5990   31.5240   44.5660 C   0  0  0  0  0  0  0  0  0  0  0  0
  1  2  1  0  0  0  0
  1  9  1  0  0  0  0
  2  7  1  0  0  0  0
  3  8  1  0  0  0  0
  3  2  2  0  0  0  0
  4  3  1  0  0  0  0
  5  4  2  0  0  0  0
  5  6  1  0  0  0  0
  6  1  2  0  0  0  0
  9 12  1  0  0  0  0
  9 11  1  0  0  0  0
 10 14  1  0  0  0  0
 10  9  1  0  0  0  0
 10 11  1  0  0  0  0
 11 16  1  0  0  0  0
 11 15  1  0  0  0  0
 13 10  1  0  0  0  0
 17 19  1  0  0  0  0
 17  5  1  0  0  0  0
 18 17  1  0  0  0  0
 20 17  1  0  0  0  0
 21 20  1  0  0  0  0
 22 23  1  0  0  0  0
 22 21  1  0  0  0  0
 23 24  1  0  0  0  0
 24 20  1  0  0  0  0
M  END
>  <minimizedAffinity>
-5.1190896

>  <minimizedRMSD>
1.27604163

$$$$
