
     RDKit          3D

 24 25  0  0  0  0  0  0  0  0999 V2000
   37.2955   29.9883   51.1839 C   0  0  0  0  0  0  0  0  0  0  0  0
   37.9357   30.9082   50.3546 C   0  0  0  0  0  0  0  0  0  0  0  0
   37.2831   31.3928   49.2320 C   0  0  0  0  0  0  0  0  0  0  0  0
   36.0240   30.9279   49.0029 N   0  0  0  0  0  0  0  0  0  0  0  0
   35.4131   30.0357   49.8142 C   0  0  0  0  0  0  0  0  0  0  0  0
   36.0466   29.5699   50.8977 N   0  0  0  0  0  0  0  0  0  0  0  0
   38.0960   29.6211   52.2467 O   0  0  0  0  0  0  0  0  0  0  0  0
   37.6473   32.0887   48.5214 H   0  0  0  0  0  0  0  0  0  0  0  0
   34.4073   29.6766   49.6142 H   0  0  0  0  0  0  0  0  0  0  0  0
   38.9073   29.0487   52.1749 H   0  0  0  0  0  0  0  0  0  0  0  0
   39.3118   31.4416   50.5701 C   0  0  0  0  0  0  0  0  0  0  0  0
   39.6711   32.4076   49.4823 C   0  0  0  0  0  0  0  0  0  0  0  0
   40.1894   33.6502   50.1268 C   0  0  0  0  0  0  0  0  0  0  0  0
   39.6787   33.5795   51.5440 C   0  0  0  0  0  0  0  0  0  0  0  0
   39.4592   32.1354   51.8741 C   0  0  0  0  0  0  0  0  0  0  0  0
   39.9812   30.5420   50.4720 H   0  0  0  0  0  0  0  0  0  0  0  0
   40.4213   31.9863   48.7779 H   0  0  0  0  0  0  0  0  0  0  0  0
   38.7600   32.6736   48.8823 H   0  0  0  0  0  0  0  0  0  0  0  0
   39.7984   34.5777   49.6681 H   0  0  0  0  0  0  0  0  0  0  0  0
   41.2949   33.5764   50.1242 H   0  0  0  0  0  0  0  0  0  0  0  0
   40.4283   34.0622   52.2285 H   0  0  0  0  0  0  0  0  0  0  0  0
   38.7719   34.2010   51.6434 H   0  0  0  0  0  0  0  0  0  0  0  0
   40.3840   31.7478   52.3727 H   0  0  0  0  0  0  0  0  0  0  0  0
   38.6523   31.9528   52.6053 H   0  0  0  0  0  0  0  0  0  0  0  0
  1  7  1  0
  2  1  2  0
  3  2  1  0
  4  3  2  0
  4  5  1  0
  5  6  2  0
  6  1  1  0
  3  8  1  0
  5  9  1  0
  7 10  1  0
 11 12  1  0
 12 13  1  0
 13 14  1  0
 14 15  1  0
 15 11  1  0
 11 16  1  0
 12 17  1  0
 12 18  1  0
 13 19  1  0
 13 20  1  0
 14 21  1  0
 14 22  1  0
 15 23  1  0
 15 24  1  0
  2 11  1  0
M  ISO  3   8  14   9  14  10   3
M  END
>  <DihAtoms>  (1) 
0,1,10,11

>  <DihDeg>  (1) 
90.00071310431238

$$$$
