
 OpenBabel03272500463D

 28 31  0  0  1  0  0  0  0  0999 V2000
   32.7770   28.1880   47.9010 C   0  0  0  0  0  0  0  0  0  0  0  0
   33.6610   27.3040   48.4950 C   0  0  0  0  0  0  0  0  0  0  0  0
   34.8250   28.0240   48.8140 C   0  0  0  0  0  0  0  0  0  0  0  0
   34.6080   29.2890   48.4130 N   0  0  0  0  0  0  0  0  0  0  0  0
   33.4060   29.3510   47.8860 N   0  0  0  0  0  0  0  0  0  0  0  0
   33.5300   26.2450   48.6970 H   0  0  0  0  0  0  0  0  0  0  0  0
   35.7010   27.5820   49.2950 H   0  0  0  0  0  0  0  0  0  0  0  0
   30.4200   27.4360   48.3010 C   0  0  0  0  0  0  0  0  0  0  0  0
   31.4670   27.7980   47.4390 C   0  0  0  0  0  0  0  0  0  0  0  0
   31.1960   27.7680   46.0790 C   0  0  0  0  0  0  0  0  0  0  0  0
   29.9490   27.3960   45.6660 N   0  0  0  0  0  0  0  0  0  0  0  0
   28.9780   27.0570   46.5350 C   0  0  0  0  0  0  0  0  0  0  0  0
   29.2110   27.0750   47.8820 N   0  0  0  0  0  0  0  0  0  0  0  0
   30.7180   27.4850   49.3460 H   0  0  0  0  0  0  0  0  0  0  0  0
   31.9820   28.0430   45.3960 H   0  0  0  0  0  0  0  0  0  0  0  0
   28.0050   26.7690   46.1590 H   0  0  0  0  0  0  0  0  0  0  0  0
   35.5370   30.3830   48.5410 C   0  0  1  0  0  0  0  0  0  0  0  0
   35.6690   31.0430   49.9490 C   0  0  0  0  0  0  0  0  0  0  0  0
   36.7620   30.2410   49.3630 C   0  0  2  0  0  0  0  0  0  0  0  0
   35.5060   31.1460   47.7300 H   0  0  0  0  0  0  0  0  0  0  0  0
   35.7400   32.1280   50.0030 H   0  0  0  0  0  0  0  0  0  0  0  0
   35.0140   30.5350   50.7200 H   0  0  0  0  0  0  0  0  0  0  0  0
   36.8800   29.1970   49.7820 H   0  0  0  0  0  0  0  0  0  0  0  0
   38.0680   30.8190   48.9520 C   0  0  0  0  0  0  0  0  0  0  0  0
   38.0990   30.8760   47.4360 C   0  0  0  0  0  0  0  0  0  0  0  0
   39.1430   31.9430   47.1630 C   0  0  0  0  0  0  0  0  0  0  0  0
   38.9720   32.9480   48.2520 C   0  0  0  0  0  0  0  0  0  0  0  0
   38.3720   32.1890   49.4390 C   0  0  0  0  0  0  0  0  0  0  0  0
  1  2  1  0  0  0  0
  2  6  1  0  0  0  0
  2  3  2  0  0  0  0
  3  7  1  0  0  0  0
  4 17  1  0  0  0  0
  4  3  1  0  0  0  0
  5  1  2  0  0  0  0
  5  4  1  0  0  0  0
  8 14  1  0  0  0  0
  9  1  1  0  0  0  0
  9  8  2  0  0  0  0
 10  9  1  0  0  0  0
 11 10  2  0  0  0  0
 11 12  1  0  0  0  0
 12 13  2  0  0  0  0
 13  8  1  0  0  0  0
 15 10  1  0  0  0  0
 16 12  1  0  0  0  0
 17 20  1  6  0  0  0
 17 19  1  0  0  0  0
 17 18  1  0  0  0  0
 18 21  1  0  0  0  0
 18 22  1  0  0  0  0
 19 23  1  1  0  0  0
 19 18  1  0  0  0  0
 24 19  1  0  0  0  0
 24 28  1  0  0  0  0
 25 24  1  0  0  0  0
 26 25  1  0  0  0  0
 26 27  1  0  0  0  0
 27 28  1  0  0  0  0
M  END
>  <minimizedAffinity>
-5.13504028

>  <minimizedRMSD>
5.13495302

$$$$
