
 OpenBabel03272505393D

 27 29  0  0  0  0  0  0  0  0999 V2000
   37.5870   23.4190   33.3720 C   0  0  0  0  0  0  0  0  0  0  0  0
   37.4770   24.7150   32.8790 C   0  0  0  0  0  0  0  0  0  0  0  0
   36.7100   24.9680   31.7660 C   0  0  0  0  0  0  0  0  0  0  0  0
   36.0230   23.9530   31.0950 C   0  0  0  0  0  0  0  0  0  0  0  0
   36.1360   22.6790   31.5870 C   0  0  0  0  0  0  0  0  0  0  0  0
   36.9100   22.4270   32.7110 C   0  0  0  0  0  0  0  0  0  0  0  0
   38.0230   25.4870   33.4220 H   0  0  0  0  0  0  0  0  0  0  0  0
   36.7060   26.0100   31.4850 H   0  0  0  0  0  0  0  0  0  0  0  0
   35.4600   24.2870   30.2350 H   0  0  0  0  0  0  0  0  0  0  0  0
   35.5730   21.9860   30.9890 H   0  0  0  0  0  0  0  0  0  0  0  0
   38.7890   23.2580   36.8280 C   0  0  0  0  0  0  0  0  0  0  0  0
   40.0460   22.6700   36.7040 C   0  0  0  0  0  0  0  0  0  0  0  0
   40.4740   22.3270   35.4060 C   0  0  0  0  0  0  0  0  0  0  0  0
   39.6220   22.5990   34.3820 N   0  0  0  0  0  0  0  0  0  0  0  0
   38.4200   23.1630   34.5360 C   0  0  0  0  0  0  0  0  0  0  0  0
   38.0110   23.4910   35.7700 N   0  0  0  0  0  0  0  0  0  0  0  0
   40.7210   22.4550   37.5090 H   0  0  0  0  0  0  0  0  0  0  0  0
   41.4390   21.8700   35.2480 H   0  0  0  0  0  0  0  0  0  0  0  0
   38.3460   23.6360   38.2190 C   0  0  0  0  0  0  0  0  0  0  0  0
   38.0270   25.0030   38.2450 F   0  0  0  0  0  0  0  0  0  0  0  0
   37.2960   22.8610   38.5550 F   0  0  0  0  0  0  0  0  0  0  0  0
   39.4200   23.4780   39.0690 F   0  0  0  0  0  0  0  0  0  0  0  0
   36.9390   20.9860   33.1520 C   0  0  0  0  0  3  0  0  0  0  0  0
   37.3420   20.0670   32.0670 C   0  0  0  0  0  2  0  0  0  0  0  0
   36.4020   18.8930   32.1530 C   0  0  0  0  0  2  0  0  0  0  0  0
   35.1100   19.4970   32.6550 C   0  0  0  0  0  2  0  0  0  0  0  0
   35.5780   20.5490   33.6070 C   0  0  0  0  0  2  0  0  0  0  0  0
  1 15  1  0  0  0  0
  2  1  1  0  0  0  0
  2  7  1  0  0  0  0
  3  2  2  0  0  0  0
  4  5  2  0  0  0  0
  4  3  1  0  0  0  0
  5  6  1  0  0  0  0
  6 23  1  0  0  0  0
  6  1  2  0  0  0  0
  8  3  1  0  0  0  0
  9  4  1  0  0  0  0
 10  5  1  0  0  0  0
 11 19  1  0  0  0  0
 12 11  1  0  0  0  0
 12 17  1  0  0  0  0
 13 12  2  0  0  0  0
 14 15  2  0  0  0  0
 14 13  1  0  0  0  0
 15 16  1  0  0  0  0
 16 11  2  0  0  0  0
 18 13  1  0  0  0  0
 19 20  1  0  0  0  0
 19 21  1  0  0  0  0
 19 22  1  0  0  0  0
 23 27  1  0  0  0  0
 24 25  1  0  0  0  0
 24 23  1  0  0  0  0
 25 26  1  0  0  0  0
 26 27  1  0  0  0  0
M  END
>  <minimizedAffinity>
-5.99550581

$$$$

 OpenBabel03272505393D

 27 29  0  0  0  0  0  0  0  0999 V2000
   37.6390   22.6700   33.7440 C   0  0  0  0  0  0  0  0  0  0  0  0
   36.8990   21.5400   33.4100 C   0  0  0  0  0  0  0  0  0  0  0  0
   36.0860   21.5500   32.3010 C   0  0  0  0  0  0  0  0  0  0  0  0
   35.9710   22.6730   31.4780 C   0  0  0  0  0  0  0  0  0  0  0  0
   36.7040   23.7820   31.8130 C   0  0  0  0  0  0  0  0  0  0  0  0
   37.5240   23.7690   32.9320 C   0  0  0  0  0  0  0  0  0  0  0  0
   37.0080   20.6780   34.0690 H   0  0  0  0  0  0  0  0  0  0  0  0
   35.5670   20.6150   32.1520 H   0  0  0  0  0  0  0  0  0  0  0  0
   35.2980   22.5470   30.6420 H   0  0  0  0  0  0  0  0  0  0  0  0
   36.5300   24.5800   31.1150 H   0  0  0  0  0  0  0  0  0  0  0  0
   38.8070   23.1090   37.1880 C   0  0  0  0  0  0  0  0  0  0  0  0
   40.1080   22.6120   37.1510 C   0  0  0  0  0  0  0  0  0  0  0  0
   40.5790   22.1200   35.9170 C   0  0  0  0  0  0  0  0  0  0  0  0
   39.7200   22.1710   34.8640 N   0  0  0  0  0  0  0  0  0  0  0  0
   38.4760   22.6530   34.9330 C   0  0  0  0  0  0  0  0  0  0  0  0
   38.0260   23.1230   36.1060 N   0  0  0  0  0  0  0  0  0  0  0  0
   40.7880   22.5710   37.9790 H   0  0  0  0  0  0  0  0  0  0  0  0
   41.5780   21.7240   35.8280 H   0  0  0  0  0  0  0  0  0  0  0  0
   38.3180   23.6480   38.5080 C   0  0  0  0  0  0  0  0  0  0  0  0
   37.9050   24.9790   38.3370 F   0  0  0  0  0  0  0  0  0  0  0  0
   37.3200   22.8560   38.9460 F   0  0  0  0  0  0  0  0  0  0  0  0
   39.3880   23.6880   39.3770 F   0  0  0  0  0  0  0  0  0  0  0  0
   38.2810   25.0480   33.1790 C   0  0  0  0  0  3  0  0  0  0  0  0
   37.4410   26.0980   33.7900 C   0  0  0  0  0  2  0  0  0  0  0  0
   37.7770   27.3710   33.0570 C   0  0  0  0  0  2  0  0  0  0  0  0
   38.1080   26.9090   31.6570 C   0  0  0  0  0  2  0  0  0  0  0  0
   38.8020   25.6070   31.8880 C   0  0  0  0  0  2  0  0  0  0  0  0
  1 15  1  0  0  0  0
  2  1  1  0  0  0  0
  2  7  1  0  0  0  0
  3  2  2  0  0  0  0
  4  5  2  0  0  0  0
  4  3  1  0  0  0  0
  5  6  1  0  0  0  0
  6 23  1  0  0  0  0
  6  1  2  0  0  0  0
  8  3  1  0  0  0  0
  9  4  1  0  0  0  0
 10  5  1  0  0  0  0
 11 19  1  0  0  0  0
 12 11  1  0  0  0  0
 12 17  1  0  0  0  0
 13 12  2  0  0  0  0
 14 15  2  0  0  0  0
 14 13  1  0  0  0  0
 15 16  1  0  0  0  0
 16 11  2  0  0  0  0
 18 13  1  0  0  0  0
 19 21  1  0  0  0  0
 19 22  1  0  0  0  0
 20 19  1  0  0  0  0
 23 24  1  0  0  0  0
 25 24  1  0  0  0  0
 26 27  1  0  0  0  0
 26 25  1  0  0  0  0
 27 23  1  0  0  0  0
M  END
>  <minimizedAffinity>
-5.73683405

$$$$

 OpenBabel03272505393D

 27 29  0  0  0  0  0  0  0  0999 V2000
   39.8520   25.4790   34.3920 C   0  0  0  0  0  0  0  0  0  0  0  0
   41.2350   25.5590   34.5190 C   0  0  0  0  0  0  0  0  0  0  0  0
   41.9370   26.5220   33.8320 C   0  0  0  0  0  0  0  0  0  0  0  0
   41.3030   27.4430   32.9940 C   0  0  0  0  0  0  0  0  0  0  0  0
   39.9400   27.3580   32.8750 C   0  0  0  0  0  0  0  0  0  0  0  0
   39.2340   26.3860   33.5690 C   0  0  0  0  0  0  0  0  0  0  0  0
   41.7030   24.8290   35.1790 H   0  0  0  0  0  0  0  0  0  0  0  0
   43.0000   26.4790   34.0160 H   0  0  0  0  0  0  0  0  0  0  0  0
   41.9710   28.1440   32.5140 H   0  0  0  0  0  0  0  0  0  0  0  0
   39.5680   28.1080   32.2030 H   0  0  0  0  0  0  0  0  0  0  0  0
   38.2660   23.5510   37.0720 C   0  0  0  0  0  0  0  0  0  0  0  0
   37.7550   22.4380   36.4080 C   0  0  0  0  0  0  0  0  0  0  0  0
   37.9640   22.3620   35.0160 C   0  0  0  0  0  0  0  0  0  0  0  0
   38.6480   23.3860   34.4380 N   0  0  0  0  0  0  0  0  0  0  0  0
   39.1250   24.4410   35.1050 C   0  0  0  0  0  0  0  0  0  0  0  0
   38.9280   24.5140   36.4290 N   0  0  0  0  0  0  0  0  0  0  0  0
   37.2160   21.6300   36.8600 H   0  0  0  0  0  0  0  0  0  0  0  0
   37.5910   21.5240   34.4490 H   0  0  0  0  0  0  0  0  0  0  0  0
   38.0520   23.6150   38.5630 C   0  0  0  0  0  0  0  0  0  0  0  0
   37.5960   24.8970   38.9080 F   0  0  0  0  0  0  0  0  0  0  0  0
   37.1750   22.6520   38.9070 F   0  0  0  0  0  0  0  0  0  0  0  0
   39.2760   23.4660   39.1790 F   0  0  0  0  0  0  0  0  0  0  0  0
   37.7430   26.4120   33.3570 C   0  0  0  0  0  3  0  0  0  0  0  0
   37.3580   27.0990   32.1060 C   0  0  0  0  0  2  0  0  0  0  0  0
   36.1810   27.9690   32.4620 C   0  0  0  0  0  2  0  0  0  0  0  0
   36.4430   28.3690   33.8960 C   0  0  0  0  0  2  0  0  0  0  0  0
   37.0650   27.1420   34.4780 C   0  0  0  0  0  2  0  0  0  0  0  0
  1  2  1  0  0  0  0
  1 15  1  0  0  0  0
  2  7  1  0  0  0  0
  3  8  1  0  0  0  0
  3  2  2  0  0  0  0
  4  3  1  0  0  0  0
  5  4  2  0  0  0  0
  5  6  1  0  0  0  0
  6  1  2  0  0  0  0
  9  4  1  0  0  0  0
 10  5  1  0  0  0  0
 11 19  1  0  0  0  0
 12 17  1  0  0  0  0
 12 11  2  0  0  0  0
 13 12  1  0  0  0  0
 14 13  2  0  0  0  0
 14 15  1  0  0  0  0
 15 16  2  0  0  0  0
 16 11  1  0  0  0  0
 18 13  1  0  0  0  0
 19 21  1  0  0  0  0
 19 20  1  0  0  0  0
 19 22  1  0  0  0  0
 23  6  1  0  0  0  0
 23 27  1  0  0  0  0
 24 25  1  0  0  0  0
 24 23  1  0  0  0  0
 25 26  1  0  0  0  0
 26 27  1  0  0  0  0
M  END
>  <minimizedAffinity>
-5.66750383

$$$$

 OpenBabel03272505393D

 27 29  0  0  0  0  0  0  0  0999 V2000
   39.1690   22.1930   33.8370 C   0  0  0  0  0  0  0  0  0  0  0  0
   40.5170   21.8850   33.6840 C   0  0  0  0  0  0  0  0  0  0  0  0
   40.9010   20.8610   32.8510 C   0  0  0  0  0  0  0  0  0  0  0  0
   39.9730   20.1010   32.1360 C   0  0  0  0  0  0  0  0  0  0  0  0
   38.6470   20.4110   32.2910 C   0  0  0  0  0  0  0  0  0  0  0  0
   38.2610   21.4450   33.1310 C   0  0  0  0  0  0  0  0  0  0  0  0
   41.2190   22.4940   34.2540 H   0  0  0  0  0  0  0  0  0  0  0  0
   41.9710   20.7230   32.8200 H   0  0  0  0  0  0  0  0  0  0  0  0
   40.4080   19.3270   31.5200 H   0  0  0  0  0  0  0  0  0  0  0  0
   38.0300   19.7590   31.7000 H   0  0  0  0  0  0  0  0  0  0  0  0
   38.3350   24.0520   36.8810 C   0  0  0  0  0  0  0  0  0  0  0  0
   38.0090   25.3200   36.4030 C   0  0  0  0  0  0  0  0  0  0  0  0
   38.0820   25.5260   35.0110 C   0  0  0  0  0  0  0  0  0  0  0  0
   38.4680   24.4670   34.2490 N   0  0  0  0  0  0  0  0  0  0  0  0
   38.7750   23.2620   34.7390 C   0  0  0  0  0  0  0  0  0  0  0  0
   38.7050   23.0640   36.0640 N   0  0  0  0  0  0  0  0  0  0  0  0
   37.7040   26.1560   37.0000 H   0  0  0  0  0  0  0  0  0  0  0  0
   37.8410   26.4870   34.5840 H   0  0  0  0  0  0  0  0  0  0  0  0
   38.2380   23.8370   38.3690 C   0  0  0  0  0  0  0  0  0  0  0  0
   39.4600   23.3330   38.8430 F   0  0  0  0  0  0  0  0  0  0  0  0
   37.9110   25.0090   38.9470 F   0  0  0  0  0  0  0  0  0  0  0  0
   37.3030   22.8500   38.5990 F   0  0  0  0  0  0  0  0  0  0  0  0
   36.7760   21.6870   33.2000 C   0  0  0  0  0  3  0  0  0  0  0  0
   35.9960   20.4320   33.2300 C   0  0  0  0  0  2  0  0  0  0  0  0
   34.8410   20.6440   32.2860 C   0  0  0  0  0  2  0  0  0  0  0  0
   35.4020   21.5620   31.2240 C   0  0  0  0  0  2  0  0  0  0  0  0
   36.3120   22.4570   32.0000 C   0  0  0  0  0  2  0  0  0  0  0  0
  1 15  1  0  0  0  0
  2  1  1  0  0  0  0
  2  7  1  0  0  0  0
  3  2  2  0  0  0  0
  4  5  2  0  0  0  0
  4  3  1  0  0  0  0
  5  6  1  0  0  0  0
  6 23  1  0  0  0  0
  6  1  2  0  0  0  0
  8  3  1  0  0  0  0
  9  4  1  0  0  0  0
 10  5  1  0  0  0  0
 11 19  1  0  0  0  0
 12 11  1  0  0  0  0
 12 17  1  0  0  0  0
 13 12  2  0  0  0  0
 14 15  2  0  0  0  0
 14 13  1  0  0  0  0
 15 16  1  0  0  0  0
 16 11  2  0  0  0  0
 18 13  1  0  0  0  0
 19 22  1  0  0  0  0
 19 20  1  0  0  0  0
 19 21  1  0  0  0  0
 23 24  1  0  0  0  0
 25 24  1  0  0  0  0
 26 27  1  0  0  0  0
 26 25  1  0  0  0  0
 27 23  1  0  0  0  0
M  END
>  <minimizedAffinity>
-5.66543627

$$$$

 OpenBabel03272505393D

 27 29  0  0  0  0  0  0  0  0999 V2000
   38.3990   23.1720   36.3110 C   0  0  0  0  0  0  0  0  0  0  0  0
   37.4680   23.8070   37.1260 C   0  0  0  0  0  0  0  0  0  0  0  0
   37.7770   24.0950   38.4350 C   0  0  0  0  0  0  0  0  0  0  0  0
   39.0160   23.7680   38.9920 C   0  0  0  0  0  0  0  0  0  0  0  0
   39.9290   23.1430   38.1820 C   0  0  0  0  0  0  0  0  0  0  0  0
   39.6150   22.8540   36.8620 C   0  0  0  0  0  0  0  0  0  0  0  0
   36.5100   24.0510   36.6670 H   0  0  0  0  0  0  0  0  0  0  0  0
   36.9720   24.5870   38.9590 H   0  0  0  0  0  0  0  0  0  0  0  0
   39.1280   24.0480   40.0290 H   0  0  0  0  0  0  0  0  0  0  0  0
   40.8360   22.9350   38.7180 H   0  0  0  0  0  0  0  0  0  0  0  0
   36.9450   21.5290   33.3790 C   0  0  0  0  0  0  0  0  0  0  0  0
   37.4320   22.2830   32.3140 C   0  0  0  0  0  0  0  0  0  0  0  0
   38.2720   23.3720   32.6220 C   0  0  0  0  0  0  0  0  0  0  0  0
   38.5350   23.5960   33.9380 N   0  0  0  0  0  0  0  0  0  0  0  0
   38.0500   22.8530   34.9370 C   0  0  0  0  0  0  0  0  0  0  0  0
   37.2510   21.8160   34.6450 N   0  0  0  0  0  0  0  0  0  0  0  0
   37.2280   22.1100   31.2760 H   0  0  0  0  0  0  0  0  0  0  0  0
   38.6790   23.9920   31.8390 H   0  0  0  0  0  0  0  0  0  0  0  0
   36.0610   20.3560   33.0380 C   0  0  0  0  0  0  0  0  0  0  0  0
   34.9900   20.8020   32.2460 F   0  0  0  0  0  0  0  0  0  0  0  0
   36.8100   19.4300   32.4090 F   0  0  0  0  0  0  0  0  0  0  0  0
   35.5020   19.8870   34.2070 F   0  0  0  0  0  0  0  0  0  0  0  0
   40.7110   22.1770   36.0820 C   0  0  0  0  0  3  0  0  0  0  0  0
   41.5070   21.2460   36.9090 C   0  0  0  0  0  2  0  0  0  0  0  0
   42.9450   21.4930   36.5360 C   0  0  0  0  0  2  0  0  0  0  0  0
   42.9870   22.9640   36.1950 C   0  0  0  0  0  2  0  0  0  0  0  0
   41.6680   23.1920   35.5310 C   0  0  0  0  0  2  0  0  0  0  0  0
  1  6  2  0  0  0  0
  1  2  1  0  0  0  0
  2  3  2  0  0  0  0
  3  8  1  0  0  0  0
  3  4  1  0  0  0  0
  4  9  1  0  0  0  0
  5 10  1  0  0  0  0
  5  4  2  0  0  0  0
  6  5  1  0  0  0  0
  7  2  1  0  0  0  0
 11 16  1  0  0  0  0
 12 13  1  0  0  0  0
 12 11  2  0  0  0  0
 13 14  2  0  0  0  0
 14 15  1  0  0  0  0
 15  1  1  0  0  0  0
 16 15  2  0  0  0  0
 17 12  1  0  0  0  0
 18 13  1  0  0  0  0
 19 11  1  0  0  0  0
 19 22  1  0  0  0  0
 20 19  1  0  0  0  0
 21 19  1  0  0  0  0
 23  6  1  0  0  0  0
 23 24  1  0  0  0  0
 25 24  1  0  0  0  0
 26 25  1  0  0  0  0
 27 23  1  0  0  0  0
 27 26  1  0  0  0  0
M  END
>  <minimizedAffinity>
-5.65572071

$$$$

 OpenBabel03272505393D

 27 29  0  0  0  0  0  0  0  0999 V2000
   38.6670   24.6950   33.9070 C   0  0  0  0  0  0  0  0  0  0  0  0
   39.0180   25.8260   33.1760 C   0  0  0  0  0  0  0  0  0  0  0  0
   39.2410   27.0220   33.8180 C   0  0  0  0  0  0  0  0  0  0  0  0
   39.1250   27.1500   35.2040 C   0  0  0  0  0  0  0  0  0  0  0  0
   38.7790   26.0310   35.9170 C   0  0  0  0  0  0  0  0  0  0  0  0
   38.5560   24.8260   35.2670 C   0  0  0  0  0  0  0  0  0  0  0  0
   39.1020   25.6980   32.0970 H   0  0  0  0  0  0  0  0  0  0  0  0
   39.5060   27.8200   33.1410 H   0  0  0  0  0  0  0  0  0  0  0  0
   39.3250   28.1430   35.5800 H   0  0  0  0  0  0  0  0  0  0  0  0
   38.7140   26.2510   36.9670 H   0  0  0  0  0  0  0  0  0  0  0  0
   36.9850   22.0210   32.0540 C   0  0  0  0  0  0  0  0  0  0  0  0
   37.9760   21.0500   31.9200 C   0  0  0  0  0  0  0  0  0  0  0  0
   39.2390   21.3340   32.4800 C   0  0  0  0  0  0  0  0  0  0  0  0
   39.3830   22.5340   33.1020 N   0  0  0  0  0  0  0  0  0  0  0  0
   38.4110   23.4440   33.2120 C   0  0  0  0  0  0  0  0  0  0  0  0
   37.2090   23.1760   32.6820 N   0  0  0  0  0  0  0  0  0  0  0  0
   37.8660   20.1030   31.4310 H   0  0  0  0  0  0  0  0  0  0  0  0
   40.0450   20.6200   32.4080 H   0  0  0  0  0  0  0  0  0  0  0  0
   35.6340   21.7020   31.4670 C   0  0  0  0  0  0  0  0  0  0  0  0
   35.2060   22.7840   30.6810 F   0  0  0  0  0  0  0  0  0  0  0  0
   35.7390   20.5640   30.7540 F   0  0  0  0  0  0  0  0  0  0  0  0
   34.7300   21.6010   32.5020 F   0  0  0  0  0  0  0  0  0  0  0  0
   38.1940   23.6750   36.1700 C   0  0  0  0  0  3  0  0  0  0  0  0
   37.5640   24.1180   37.4320 C   0  0  0  0  0  2  0  0  0  0  0  0
   38.2000   23.2930   38.5200 C   0  0  0  0  0  2  0  0  0  0  0  0
   39.6070   23.0550   38.0220 C   0  0  0  0  0  2  0  0  0  0  0  0
   39.4200   22.8980   36.5480 C   0  0  0  0  0  2  0  0  0  0  0  0
  1  6  1  0  0  0  0
  2  3  1  0  0  0  0
  2  1  2  0  0  0  0
  3  4  2  0  0  0  0
  4  9  1  0  0  0  0
  4  5  1  0  0  0  0
  5 10  1  0  0  0  0
  6  5  2  0  0  0  0
  6 23  1  0  0  0  0
  7  2  1  0  0  0  0
  8  3  1  0  0  0  0
 11 16  1  0  0  0  0
 12 11  2  0  0  0  0
 12 13  1  0  0  0  0
 13 14  2  0  0  0  0
 14 15  1  0  0  0  0
 15  1  1  0  0  0  0
 16 15  2  0  0  0  0
 17 12  1  0  0  0  0
 18 13  1  0  0  0  0
 19 11  1  0  0  0  0
 19 22  1  0  0  0  0
 20 19  1  0  0  0  0
 21 19  1  0  0  0  0
 23 27  1  0  0  0  0
 23 24  1  0  0  0  0
 24 25  1  0  0  0  0
 26 25  1  0  0  0  0
 27 26  1  0  0  0  0
M  END
>  <minimizedAffinity>
-5.6208148

$$$$

 OpenBabel03272505393D

 27 29  0  0  0  0  0  0  0  0999 V2000
   36.2040   28.9190   32.5800 C   0  0  0  0  0  0  0  0  0  0  0  0
   36.3760   29.4300   31.2970 C   0  0  0  0  0  0  0  0  0  0  0  0
   37.3580   28.9240   30.4780 C   0  0  0  0  0  0  0  0  0  0  0  0
   38.2080   27.8950   30.8910 C   0  0  0  0  0  0  0  0  0  0  0  0
   38.0330   27.3970   32.1560 C   0  0  0  0  0  0  0  0  0  0  0  0
   37.0410   27.9090   32.9800 C   0  0  0  0  0  0  0  0  0  0  0  0
   35.6990   30.2310   31.0010 H   0  0  0  0  0  0  0  0  0  0  0  0
   37.3880   29.4030   29.5110 H   0  0  0  0  0  0  0  0  0  0  0  0
   38.9360   27.5920   30.1510 H   0  0  0  0  0  0  0  0  0  0  0  0
   38.7440   26.6190   32.3630 H   0  0  0  0  0  0  0  0  0  0  0  0
   34.5280   30.8980   35.1660 C   0  0  0  0  0  0  0  0  0  0  0  0
   33.1970   30.4990   35.0630 C   0  0  0  0  0  0  0  0  0  0  0  0
   32.8840   29.5350   34.0840 C   0  0  0  0  0  0  0  0  0  0  0  0
   33.9110   29.0750   33.3190 N   0  0  0  0  0  0  0  0  0  0  0  0
   35.1780   29.4800   33.4430 C   0  0  0  0  0  0  0  0  0  0  0  0
   35.4780   30.3970   34.3750 N   0  0  0  0  0  0  0  0  0  0  0  0
   32.3860   30.8590   35.6640 H   0  0  0  0  0  0  0  0  0  0  0  0
   31.8700   29.1870   33.9580 H   0  0  0  0  0  0  0  0  0  0  0  0
   34.8560   31.9180   36.2270 C   0  0  0  0  0  0  0  0  0  0  0  0
   34.1250   31.6240   37.3890 F   0  0  0  0  0  0  0  0  0  0  0  0
   36.1850   31.8950   36.4410 F   0  0  0  0  0  0  0  0  0  0  0  0
   34.4060   33.1470   35.7940 F   0  0  0  0  0  0  0  0  0  0  0  0
   36.9490   27.2640   34.3380 C   0  0  0  0  0  3  0  0  0  0  0  0
   37.7860   27.9440   35.3490 C   0  0  0  0  0  2  0  0  0  0  0  0
   38.4640   26.8460   36.1260 C   0  0  0  0  0  2  0  0  0  0  0  0
   38.6520   25.7420   35.1100 C   0  0  0  0  0  2  0  0  0  0  0  0
   37.4160   25.8400   34.2770 C   0  0  0  0  0  2  0  0  0  0  0  0
  1  6  1  0  0  0  0
  1 15  1  0  0  0  0
  2  1  2  0  0  0  0
  3  4  2  0  0  0  0
  3  2  1  0  0  0  0
  4  5  1  0  0  0  0
  5 10  1  0  0  0  0
  5  6  2  0  0  0  0
  6 23  1  0  0  0  0
  7  2  1  0  0  0  0
  8  3  1  0  0  0  0
  9  4  1  0  0  0  0
 11 19  1  0  0  0  0
 12 11  1  0  0  0  0
 12 17  1  0  0  0  0
 13 12  2  0  0  0  0
 14 15  2  0  0  0  0
 14 13  1  0  0  0  0
 15 16  1  0  0  0  0
 16 11  2  0  0  0  0
 18 13  1  0  0  0  0
 19 21  1  0  0  0  0
 19 20  1  0  0  0  0
 22 19  1  0  0  0  0
 23 24  1  0  0  0  0
 24 25  1  0  0  0  0
 26 25  1  0  0  0  0
 27 23  1  0  0  0  0
 27 26  1  0  0  0  0
M  END
>  <minimizedAffinity>
-5.55602026

$$$$

 OpenBabel03272505393D

 27 29  0  0  0  0  0  0  0  0999 V2000
   38.7920   25.9430   32.9560 C   0  0  0  0  0  0  0  0  0  0  0  0
   39.7150   26.6570   32.1990 C   0  0  0  0  0  0  0  0  0  0  0  0
   40.8240   27.2060   32.7990 C   0  0  0  0  0  0  0  0  0  0  0  0
   41.0670   27.0710   34.1680 C   0  0  0  0  0  0  0  0  0  0  0  0
   40.1530   26.3660   34.9080 C   0  0  0  0  0  0  0  0  0  0  0  0
   39.0350   25.8130   34.2990 C   0  0  0  0  0  0  0  0  0  0  0  0
   39.5020   26.7460   31.1330 H   0  0  0  0  0  0  0  0  0  0  0  0
   41.4610   27.7330   32.1050 H   0  0  0  0  0  0  0  0  0  0  0  0
   41.9730   27.5510   34.5110 H   0  0  0  0  0  0  0  0  0  0  0  0
   40.4400   26.3360   35.9430 H   0  0  0  0  0  0  0  0  0  0  0  0
   36.3910   23.5750   31.5270 C   0  0  0  0  0  0  0  0  0  0  0  0
   35.3610   24.3960   31.0730 C   0  0  0  0  0  0  0  0  0  0  0  0
   35.5070   25.7840   31.2690 C   0  0  0  0  0  0  0  0  0  0  0  0
   36.6420   26.2060   31.8870 N   0  0  0  0  0  0  0  0  0  0  0  0
   37.6120   25.3900   32.3120 C   0  0  0  0  0  0  0  0  0  0  0  0
   37.4760   24.0690   32.1260 N   0  0  0  0  0  0  0  0  0  0  0  0
   34.4650   24.0680   30.5850 H   0  0  0  0  0  0  0  0  0  0  0  0
   34.7420   26.4700   30.9380 H   0  0  0  0  0  0  0  0  0  0  0  0
   36.2340   22.0930   31.2990 C   0  0  0  0  0  0  0  0  0  0  0  0
   35.0690   21.8640   30.5490 F   0  0  0  0  0  0  0  0  0  0  0  0
   37.3390   21.6410   30.6740 F   0  0  0  0  0  0  0  0  0  0  0  0
   36.0270   21.4900   32.5210 F   0  0  0  0  0  0  0  0  0  0  0  0
   38.1190   25.0550   35.2240 C   0  0  0  0  0  3  0  0  0  0  0  0
   38.0390   25.6610   36.5700 C   0  0  0  0  0  2  0  0  0  0  0  0
   38.1140   24.5130   37.5420 C   0  0  0  0  0  2  0  0  0  0  0  0
   38.9960   23.5020   36.8460 C   0  0  0  0  0  2  0  0  0  0  0  0
   38.6080   23.6490   35.4110 C   0  0  0  0  0  2  0  0  0  0  0  0
  1  6  1  0  0  0  0
  2  3  1  0  0  0  0
  2  1  2  0  0  0  0
  3  4  2  0  0  0  0
  4  9  1  0  0  0  0
  4  5  1  0  0  0  0
  5 10  1  0  0  0  0
  6  5  2  0  0  0  0
  6 23  1  0  0  0  0
  7  2  1  0  0  0  0
  8  3  1  0  0  0  0
 11 16  1  0  0  0  0
 12 13  1  0  0  0  0
 12 11  2  0  0  0  0
 13 14  2  0  0  0  0
 14 15  1  0  0  0  0
 15  1  1  0  0  0  0
 16 15  2  0  0  0  0
 17 12  1  0  0  0  0
 18 13  1  0  0  0  0
 19 11  1  0  0  0  0
 19 22  1  0  0  0  0
 20 19  1  0  0  0  0
 21 19  1  0  0  0  0
 23 27  1  0  0  0  0
 23 24  1  0  0  0  0
 24 25  1  0  0  0  0
 26 25  1  0  0  0  0
 27 26  1  0  0  0  0
M  END
>  <minimizedAffinity>
-5.50778103

$$$$

 OpenBabel03272505393D

 27 29  0  0  0  0  0  0  0  0999 V2000
   36.1730   26.6980   31.7490 C   0  0  0  0  0  0  0  0  0  0  0  0
   35.4360   25.7410   31.0580 C   0  0  0  0  0  0  0  0  0  0  0  0
   35.6680   24.4030   31.2730 C   0  0  0  0  0  0  0  0  0  0  0  0
   36.6350   23.9550   32.1760 C   0  0  0  0  0  0  0  0  0  0  0  0
   37.3570   24.9040   32.8530 C   0  0  0  0  0  0  0  0  0  0  0  0
   37.1210   26.2530   32.6350 C   0  0  0  0  0  0  0  0  0  0  0  0
   34.6880   26.1180   30.3610 H   0  0  0  0  0  0  0  0  0  0  0  0
   35.0310   23.7650   30.6780 H   0  0  0  0  0  0  0  0  0  0  0  0
   36.7160   22.8800   32.2480 H   0  0  0  0  0  0  0  0  0  0  0  0
   38.0720   24.4440   33.5100 H   0  0  0  0  0  0  0  0  0  0  0  0
   36.3850   30.0640   30.3210 C   0  0  0  0  0  0  0  0  0  0  0  0
   35.4520   30.7870   31.0630 C   0  0  0  0  0  0  0  0  0  0  0  0
   34.7450   30.0930   32.0650 C   0  0  0  0  0  0  0  0  0  0  0  0
   35.0330   28.7730   32.2230 N   0  0  0  0  0  0  0  0  0  0  0  0
   35.9340   28.1090   31.4940 C   0  0  0  0  0  0  0  0  0  0  0  0
   36.6090   28.7670   30.5400 N   0  0  0  0  0  0  0  0  0  0  0  0
   35.2230   31.8260   30.9410 H   0  0  0  0  0  0  0  0  0  0  0  0
   34.0110   30.6000   32.6720 H   0  0  0  0  0  0  0  0  0  0  0  0
   37.1480   30.8190   29.2620 C   0  0  0  0  0  0  0  0  0  0  0  0
   38.3090   31.3650   29.8330 F   0  0  0  0  0  0  0  0  0  0  0  0
   37.4260   29.9700   28.2540 F   0  0  0  0  0  0  0  0  0  0  0  0
   36.3790   31.8900   28.8610 F   0  0  0  0  0  0  0  0  0  0  0  0
   37.9760   27.1870   33.4510 C   0  0  0  0  0  3  0  0  0  0  0  0
   39.3240   26.6420   33.7130 C   0  0  0  0  0  2  0  0  0  0  0  0
   39.6100   26.9350   35.1630 C   0  0  0  0  0  2  0  0  0  0  0  0
   38.2530   26.8660   35.8240 C   0  0  0  0  0  2  0  0  0  0  0  0
   37.3450   27.4440   34.7880 C   0  0  0  0  0  2  0  0  0  0  0  0
  1  6  1  0  0  0  0
  2  3  1  0  0  0  0
  2  1  2  0  0  0  0
  3  4  2  0  0  0  0
  4  9  1  0  0  0  0
  4  5  1  0  0  0  0
  5 10  1  0  0  0  0
  6  5  2  0  0  0  0
  6 23  1  0  0  0  0
  7  2  1  0  0  0  0
  8  3  1  0  0  0  0
 11 16  2  0  0  0  0
 11 12  1  0  0  0  0
 12 13  2  0  0  0  0
 13 14  1  0  0  0  0
 13 18  1  0  0  0  0
 15  1  1  0  0  0  0
 15 14  2  0  0  0  0
 16 15  1  0  0  0  0
 17 12  1  0  0  0  0
 19 20  1  0  0  0  0
 19 11  1  0  0  0  0
 21 19  1  0  0  0  0
 22 19  1  0  0  0  0
 23 24  1  0  0  0  0
 23 27  1  0  0  0  0
 24 25  1  0  0  0  0
 25 26  1  0  0  0  0
 27 26  1  0  0  0  0
M  END
>  <minimizedAffinity>
-5.42077684

$$$$
