
 OpenBabel03272508283D

 34 37  0  0  1  0  0  0  0  0999 V2000
   33.9850   29.0250   47.3500 C   0  0  2  0  0  0  0  0  0  0  0  0
   34.7460   28.2470   48.4140 C   0  0  2  0  0  0  0  0  0  0  0  0
   33.8590   28.0490   49.4290 O   0  0  0  0  0  0  0  0  0  0  0  0
   32.5770   28.1090   48.9620 C   0  0  0  0  0  0  0  0  0  0  0  0
   32.6270   28.3300   47.4650 C   0  0  1  0  0  0  0  0  0  0  0  0
   33.9120   30.0910   47.5840 H   0  0  0  0  0  0  0  0  0  0  0  0
   35.0520   27.2680   47.9940 H   0  0  0  0  0  0  0  0  0  0  0  0
   32.0860   27.1190   49.1340 H   0  0  0  0  0  0  0  0  0  0  0  0
   31.9200   28.8420   49.4690 H   0  0  0  0  0  0  0  0  0  0  0  0
   32.7050   27.3580   46.9200 H   0  0  0  0  0  0  0  0  0  0  0  0
   35.8010   30.5250   49.0420 C   0  0  1  0  0  0  0  0  0  0  0  0
   35.9000   29.0990   48.8410 C   0  0  1  0  0  0  0  0  0  0  0  0
   36.0360   29.5930   50.2420 C   0  0  0  0  0  0  0  0  0  0  0  0
   34.8970   31.1320   49.2270 H   0  0  0  0  0  0  0  0  0  0  0  0
   36.8700   28.7420   48.3910 H   0  0  0  0  0  0  0  0  0  0  0  0
   37.0350   29.6060   50.7310 H   0  0  0  0  0  0  0  0  0  0  0  0
   35.2260   29.4370   50.9740 H   0  0  0  0  0  0  0  0  0  0  0  0
   36.9920   31.4380   48.8010 C   0  0  0  0  0  0  0  0  0  0  0  0
   37.1840   32.4950   49.6920 C   0  0  0  0  0  0  0  0  0  0  0  0
   38.2690   33.3140   49.4140 C   0  0  0  0  0  0  0  0  0  0  0  0
   39.0740   33.0690   48.3250 N   0  0  0  0  0  0  0  0  0  0  0  0
   38.8480   32.0340   47.4900 C   0  0  0  0  0  0  0  0  0  0  0  0
   37.7930   31.2060   47.7300 N   0  0  0  0  0  0  0  0  0  0  0  0
   36.5370   32.6580   50.5320 H   0  0  0  0  0  0  0  0  0  0  0  0
   38.5010   34.1640   50.0530 H   0  0  0  0  0  0  0  0  0  0  0  0
   39.5100   31.8850   46.6500 H   0  0  0  0  0  0  0  0  0  0  0  0
   34.5100   28.8880   46.0810 O   0  0  0  0  0  0  0  0  0  0  0  0
   34.3210   27.9360   45.8110 H   0  0  0  0  0  0  0  0  0  0  0  0
   31.6050   29.1070   47.0040 O   0  0  0  0  0  0  0  0  0  0  0  0
   30.9040   28.5900   45.9480 C   0  0  0  0  0  3  0  0  0  0  0  0
   30.5270   29.6880   44.9500 C   0  0  0  0  0  2  0  0  0  0  0  0
   29.0730   29.9900   45.3020 C   0  0  0  0  0  2  0  0  0  0  0  0
   28.5600   28.5550   45.4770 C   0  0  0  0  0  2  0  0  0  0  0  0
   29.5960   28.0300   46.4750 C   0  0  0  0  0  2  0  0  0  0  0  0
  1  5  1  0  0  0  0
  1  6  1  1  0  0  0
  1  2  1  0  0  0  0
  2  7  1  6  0  0  0
  2 12  1  0  0  0  0
  2  3  1  0  0  0  0
  4  8  1  0  0  0  0
  4  3  1  0  0  0  0
  4  9  1  0  0  0  0
  5 10  1  6  0  0  0
  5  4  1  0  0  0  0
 11 14  1  6  0  0  0
 11 13  1  0  0  0  0
 12 15  1  6  0  0  0
 12 11  1  0  0  0  0
 12 13  1  0  0  0  0
 13 16  1  0  0  0  0
 13 17  1  0  0  0  0
 18 11  1  0  0  0  0
 18 19  1  0  0  0  0
 19 24  1  0  0  0  0
 20 19  2  0  0  0  0
 20 25  1  0  0  0  0
 21 20  1  0  0  0  0
 22 23  1  0  0  0  0
 22 21  2  0  0  0  0
 23 18  2  0  0  0  0
 26 22  1  0  0  0  0
 27  1  1  0  0  0  0
 28 27  1  0  0  0  0
 29  5  1  0  0  0  0
 30 34  1  0  0  0  0
 30 29  1  0  0  0  0
 31 32  1  0  0  0  0
 31 30  1  0  0  0  0
 32 33  1  0  0  0  0
 33 34  1  0  0  0  0
M  END
>  <minimizedAffinity>
-4.81491947

>  <minimizedRMSD>
0.0944188312

$$$$
