
 OpenBabel03272502123D

 22 24  0  0  0  0  0  0  0  0999 V2000
   36.2590   24.1050   31.7940 C   0  0  0  0  0  0  0  0  0  0  0  0
   35.4100   24.8360   30.9900 C   0  0  0  0  0  0  0  0  0  0  0  0
   35.3200   26.2390   31.0260 C   0  0  0  0  0  0  0  0  0  0  0  0
   36.1300   26.8840   31.9160 N   0  0  0  0  0  0  0  0  0  0  0  0
   36.9560   26.1660   32.6980 C   0  0  0  0  0  0  0  0  0  0  0  0
   37.0210   24.8350   32.6430 N   0  0  0  0  0  0  0  0  0  0  0  0
   34.7550   24.3490   30.2730 H   0  0  0  0  0  0  0  0  0  0  0  0
   34.6360   26.7590   30.3720 H   0  0  0  0  0  0  0  0  0  0  0  0
   35.3460   21.8100   32.2070 C   0  0  0  0  0  0  0  0  0  0  0  0
   36.3300   22.6740   31.7360 C   0  0  0  0  0  0  0  0  0  0  0  0
   37.4640   22.0900   31.1690 C   0  0  0  0  0  0  0  0  0  0  0  0
   37.5610   20.7410   31.1000 N   0  0  0  0  0  0  0  0  0  0  0  0
   36.5710   19.9350   31.5740 C   0  0  0  0  0  0  0  0  0  0  0  0
   35.4680   20.4820   32.1240 N   0  0  0  0  0  0  0  0  0  0  0  0
   34.4640   22.2580   32.6470 H   0  0  0  0  0  0  0  0  0  0  0  0
   38.2560   22.7350   30.7910 H   0  0  0  0  0  0  0  0  0  0  0  0
   36.6680   18.8540   31.5080 H   0  0  0  0  0  0  0  0  0  0  0  0
   37.8100   26.9000   33.6420 C   0  0  0  0  0  3  0  0  0  0  0  0
   39.2490   26.5030   33.6460 C   0  0  0  0  0  2  0  0  0  0  0  0
   39.7220   26.8600   35.0550 C   0  0  0  0  0  2  0  0  0  0  0  0
   38.4860   27.2120   35.8370 C   0  0  0  0  0  2  0  0  0  0  0  0
   37.4030   26.4610   35.0560 C   0  0  0  0  0  2  0  0  0  0  0  0
  1  6  1  0  0  0  0
  2  3  1  0  0  0  0
  2  1  2  0  0  0  0
  3  4  2  0  0  0  0
  4  5  1  0  0  0  0
  5 18  1  0  0  0  0
  6  5  2  0  0  0  0
  7  2  1  0  0  0  0
  8  3  1  0  0  0  0
  9 15  1  0  0  0  0
 10  1  1  0  0  0  0
 10  9  2  0  0  0  0
 11 10  1  0  0  0  0
 12 11  2  0  0  0  0
 12 13  1  0  0  0  0
 13 14  2  0  0  0  0
 14  9  1  0  0  0  0
 16 11  1  0  0  0  0
 17 13  1  0  0  0  0
 18 19  1  0  0  0  0
 18 22  1  0  0  0  0
 19 20  1  0  0  0  0
 20 21  1  0  0  0  0
 22 21  1  0  0  0  0
M  END
>  <minimizedAffinity>
-4.91816664

$$$$

 OpenBabel03272502123D

 22 24  0  0  0  0  0  0  0  0999 V2000
   38.1040   23.2850   34.7760 C   0  0  0  0  0  0  0  0  0  0  0  0
   38.3880   24.3040   33.8900 C   0  0  0  0  0  0  0  0  0  0  0  0
   38.0670   24.2560   32.5220 C   0  0  0  0  0  0  0  0  0  0  0  0
   37.4420   23.1270   32.0770 N   0  0  0  0  0  0  0  0  0  0  0  0
   37.1670   22.1370   32.9450 C   0  0  0  0  0  0  0  0  0  0  0  0
   37.4830   22.2080   34.2380 N   0  0  0  0  0  0  0  0  0  0  0  0
   38.8850   25.2130   34.2180 H   0  0  0  0  0  0  0  0  0  0  0  0
   38.3140   25.0840   31.8750 H   0  0  0  0  0  0  0  0  0  0  0  0
   39.5530   22.7560   36.7490 C   0  0  0  0  0  0  0  0  0  0  0  0
   38.4430   23.3610   36.1670 C   0  0  0  0  0  0  0  0  0  0  0  0
   37.6060   24.0900   37.0140 C   0  0  0  0  0  0  0  0  0  0  0  0
   37.8990   24.1790   38.3330 N   0  0  0  0  0  0  0  0  0  0  0  0
   38.9990   23.5700   38.8570 C   0  0  0  0  0  0  0  0  0  0  0  0
   39.8180   22.8620   38.0540 N   0  0  0  0  0  0  0  0  0  0  0  0
   40.2050   22.1890   36.0960 H   0  0  0  0  0  0  0  0  0  0  0  0
   36.7270   24.5760   36.5940 H   0  0  0  0  0  0  0  0  0  0  0  0
   39.2160   23.6550   39.9200 H   0  0  0  0  0  0  0  0  0  0  0  0
   36.4930   20.9400   32.4230 C   0  0  0  0  0  3  0  0  0  0  0  0
   35.2430   21.1960   31.6470 C   0  0  0  0  0  2  0  0  0  0  0  0
   34.4380   19.9090   31.8160 C   0  0  0  0  0  2  0  0  0  0  0  0
   35.1580   19.0960   32.8590 C   0  0  0  0  0  2  0  0  0  0  0  0
   35.9150   20.1840   33.6280 C   0  0  0  0  0  2  0  0  0  0  0  0
  1 10  1  0  0  0  0
  2  7  1  0  0  0  0
  2  1  2  0  0  0  0
  3  2  1  0  0  0  0
  4  3  2  0  0  0  0
  4  5  1  0  0  0  0
  5  6  2  0  0  0  0
  6  1  1  0  0  0  0
  8  3  1  0  0  0  0
  9 14  1  0  0  0  0
 10  9  2  0  0  0  0
 10 11  1  0  0  0  0
 11 12  2  0  0  0  0
 12 13  1  0  0  0  0
 13 17  1  0  0  0  0
 14 13  2  0  0  0  0
 15  9  1  0  0  0  0
 16 11  1  0  0  0  0
 18  5  1  0  0  0  0
 18 22  1  0  0  0  0
 19 20  1  0  0  0  0
 19 18  1  0  0  0  0
 20 21  1  0  0  0  0
 21 22  1  0  0  0  0
M  END
>  <minimizedAffinity>
-4.89842892

$$$$

 OpenBabel03272502123D

 22 24  0  0  0  0  0  0  0  0999 V2000
   37.1380   26.4890   33.5830 C   0  0  0  0  0  0  0  0  0  0  0  0
   37.0990   25.4830   32.6400 C   0  0  0  0  0  0  0  0  0  0  0  0
   37.5720   24.1790   32.8720 C   0  0  0  0  0  0  0  0  0  0  0  0
   38.0930   23.9260   34.1080 N   0  0  0  0  0  0  0  0  0  0  0  0
   38.1280   24.9100   35.0250 C   0  0  0  0  0  0  0  0  0  0  0  0
   37.6730   26.1390   34.7780 N   0  0  0  0  0  0  0  0  0  0  0  0
   36.6890   25.6570   31.6480 H   0  0  0  0  0  0  0  0  0  0  0  0
   37.5150   23.4320   32.0950 H   0  0  0  0  0  0  0  0  0  0  0  0
   36.6700   28.4310   32.0740 C   0  0  0  0  0  0  0  0  0  0  0  0
   36.6480   27.8100   33.3190 C   0  0  0  0  0  0  0  0  0  0  0  0
   36.1070   28.5400   34.3790 C   0  0  0  0  0  0  0  0  0  0  0  0
   35.6370   29.7900   34.1610 N   0  0  0  0  0  0  0  0  0  0  0  0
   35.6790   30.3570   32.9230 C   0  0  0  0  0  0  0  0  0  0  0  0
   36.1970   29.6670   31.8870 N   0  0  0  0  0  0  0  0  0  0  0  0
   37.0880   27.8690   31.2490 H   0  0  0  0  0  0  0  0  0  0  0  0
   36.0740   28.0860   35.3680 H   0  0  0  0  0  0  0  0  0  0  0  0
   35.2950   31.3640   32.7690 H   0  0  0  0  0  0  0  0  0  0  0  0
   38.6970   24.5940   36.3420 C   0  0  0  0  0  3  0  0  0  0  0  0
   39.6620   23.4540   36.3650 C   0  0  0  0  0  2  0  0  0  0  0  0
   39.5650   22.9230   37.7940 C   0  0  0  0  0  2  0  0  0  0  0  0
   38.3930   23.6250   38.4260 C   0  0  0  0  0  2  0  0  0  0  0  0
   37.5630   24.0060   37.1960 C   0  0  0  0  0  2  0  0  0  0  0  0
  1  6  1  0  0  0  0
  2  3  1  0  0  0  0
  2  1  2  0  0  0  0
  3  4  2  0  0  0  0
  4  5  1  0  0  0  0
  5 18  1  0  0  0  0
  6  5  2  0  0  0  0
  7  2  1  0  0  0  0
  8  3  1  0  0  0  0
  9 10  1  0  0  0  0
 10  1  1  0  0  0  0
 10 11  2  0  0  0  0
 11 16  1  0  0  0  0
 12 11  1  0  0  0  0
 13 12  2  0  0  0  0
 14  9  2  0  0  0  0
 14 13  1  0  0  0  0
 15  9  1  0  0  0  0
 17 13  1  0  0  0  0
 18 19  1  0  0  0  0
 18 22  1  0  0  0  0
 19 20  1  0  0  0  0
 20 21  1  0  0  0  0
 22 21  1  0  0  0  0
M  END
>  <minimizedAffinity>
-4.79372072

$$$$

 OpenBabel03272502123D

 22 24  0  0  0  0  0  0  0  0999 V2000
   36.5510   28.0560   33.4340 C   0  0  0  0  0  0  0  0  0  0  0  0
   36.4600   28.2970   32.0780 C   0  0  0  0  0  0  0  0  0  0  0  0
   35.9040   29.4670   31.5320 C   0  0  0  0  0  0  0  0  0  0  0  0
   35.4370   30.3970   32.4170 N   0  0  0  0  0  0  0  0  0  0  0  0
   35.5290   30.1570   33.7380 C   0  0  0  0  0  0  0  0  0  0  0  0
   36.0610   29.0370   34.2290 N   0  0  0  0  0  0  0  0  0  0  0  0
   36.8230   27.5750   31.3530 H   0  0  0  0  0  0  0  0  0  0  0  0
   35.8590   29.6020   30.4620 H   0  0  0  0  0  0  0  0  0  0  0  0
   37.5410   26.6840   35.2800 C   0  0  0  0  0  0  0  0  0  0  0  0
   37.1230   26.8530   33.9630 C   0  0  0  0  0  0  0  0  0  0  0  0
   37.2820   25.7620   33.1060 C   0  0  0  0  0  0  0  0  0  0  0  0
   37.8200   24.6120   33.5770 N   0  0  0  0  0  0  0  0  0  0  0  0
   38.2130   24.4930   34.8750 C   0  0  0  0  0  0  0  0  0  0  0  0
   38.0680   25.5370   35.7170 N   0  0  0  0  0  0  0  0  0  0  0  0
   37.4200   27.5270   35.9480 H   0  0  0  0  0  0  0  0  0  0  0  0
   36.9680   25.8580   32.0680 H   0  0  0  0  0  0  0  0  0  0  0  0
   38.6430   23.5600   35.2330 H   0  0  0  0  0  0  0  0  0  0  0  0
   35.0140   31.1840   34.6530 C   0  0  0  0  0  3  0  0  0  0  0  0
   35.8580   31.4500   35.8560 C   0  0  0  0  0  2  0  0  0  0  0  0
   34.8630   31.9690   36.8930 C   0  0  0  0  0  2  0  0  0  0  0  0
   33.4930   31.7470   36.3100 C   0  0  0  0  0  2  0  0  0  0  0  0
   33.7600   30.6040   35.3240 C   0  0  0  0  0  2  0  0  0  0  0  0
  1 10  1  0  0  0  0
  1  6  1  0  0  0  0
  2  1  2  0  0  0  0
  3  2  1  0  0  0  0
  3  4  2  0  0  0  0
  4  5  1  0  0  0  0
  5  6  2  0  0  0  0
  5 18  1  0  0  0  0
  7  2  1  0  0  0  0
  8  3  1  0  0  0  0
  9 14  1  0  0  0  0
  9 15  1  0  0  0  0
 10  9  2  0  0  0  0
 11 12  2  0  0  0  0
 11 10  1  0  0  0  0
 12 13  1  0  0  0  0
 13 17  1  0  0  0  0
 13 14  2  0  0  0  0
 16 11  1  0  0  0  0
 18 22  1  0  0  0  0
 18 19  1  0  0  0  0
 19 20  1  0  0  0  0
 21 20  1  0  0  0  0
 22 21  1  0  0  0  0
M  END
>  <minimizedAffinity>
-4.72036123

$$$$

 OpenBabel03272502123D

 22 24  0  0  0  0  0  0  0  0999 V2000
   38.1610   24.6130   34.7540 C   0  0  0  0  0  0  0  0  0  0  0  0
   38.2090   23.8160   33.6280 C   0  0  0  0  0  0  0  0  0  0  0  0
   37.8840   24.2720   32.3380 C   0  0  0  0  0  0  0  0  0  0  0  0
   37.5050   25.5790   32.2260 N   0  0  0  0  0  0  0  0  0  0  0  0
   37.4600   26.3510   33.3270 C   0  0  0  0  0  0  0  0  0  0  0  0
   37.7730   25.8920   34.5390 N   0  0  0  0  0  0  0  0  0  0  0  0
   38.5080   22.7730   33.6890 H   0  0  0  0  0  0  0  0  0  0  0  0
   37.9400   23.6030   31.4930 H   0  0  0  0  0  0  0  0  0  0  0  0
   39.4760   23.1660   36.3180 C   0  0  0  0  0  0  0  0  0  0  0  0
   38.4980   24.1210   36.0580 C   0  0  0  0  0  0  0  0  0  0  0  0
   37.8010   24.6260   37.1560 C   0  0  0  0  0  0  0  0  0  0  0  0
   38.0960   24.1800   38.4010 N   0  0  0  0  0  0  0  0  0  0  0  0
   39.0640   23.2440   38.6070 C   0  0  0  0  0  0  0  0  0  0  0  0
   39.7470   22.7450   37.5570 N   0  0  0  0  0  0  0  0  0  0  0  0
   40.0200   22.7710   35.4690 H   0  0  0  0  0  0  0  0  0  0  0  0
   37.0270   25.3740   36.9910 H   0  0  0  0  0  0  0  0  0  0  0  0
   39.2850   22.9000   39.6150 H   0  0  0  0  0  0  0  0  0  0  0  0
   37.0460   27.7510   33.1600 C   0  0  0  0  0  3  0  0  0  0  0  0
   36.3500   28.3570   34.3340 C   0  0  0  0  0  2  0  0  0  0  0  0
   35.4800   29.4510   33.7180 C   0  0  0  0  0  2  0  0  0  0  0  0
   35.5450   29.2520   32.2280 C   0  0  0  0  0  2  0  0  0  0  0  0
   35.9050   27.7650   32.1320 C   0  0  0  0  0  2  0  0  0  0  0  0
  1 10  1  0  0  0  0
  2  7  1  0  0  0  0
  2  1  2  0  0  0  0
  3  2  1  0  0  0  0
  4  3  2  0  0  0  0
  4  5  1  0  0  0  0
  5  6  2  0  0  0  0
  6  1  1  0  0  0  0
  8  3  1  0  0  0  0
  9 14  1  0  0  0  0
 10  9  2  0  0  0  0
 10 11  1  0  0  0  0
 11 12  2  0  0  0  0
 12 13  1  0  0  0  0
 13 17  1  0  0  0  0
 14 13  2  0  0  0  0
 15  9  1  0  0  0  0
 16 11  1  0  0  0  0
 18  5  1  0  0  0  0
 18 19  1  0  0  0  0
 20 19  1  0  0  0  0
 21 20  1  0  0  0  0
 22 21  1  0  0  0  0
 22 18  1  0  0  0  0
M  END
>  <minimizedAffinity>
-4.69873667

$$$$

 OpenBabel03272502123D

 22 24  0  0  0  0  0  0  0  0999 V2000
   38.2810   24.7290   36.0140 C   0  0  0  0  0  0  0  0  0  0  0  0
   37.8420   24.8200   37.3190 C   0  0  0  0  0  0  0  0  0  0  0  0
   38.2890   23.9760   38.3510 C   0  0  0  0  0  0  0  0  0  0  0  0
   39.2090   23.0260   38.0120 N   0  0  0  0  0  0  0  0  0  0  0  0
   39.6360   22.9420   36.7390 C   0  0  0  0  0  0  0  0  0  0  0  0
   39.1930   23.7550   35.7790 N   0  0  0  0  0  0  0  0  0  0  0  0
   37.1100   25.5660   37.6160 H   0  0  0  0  0  0  0  0  0  0  0  0
   37.9100   24.0940   39.3550 H   0  0  0  0  0  0  0  0  0  0  0  0
   37.6720   25.2500   33.6420 C   0  0  0  0  0  0  0  0  0  0  0  0
   37.8070   25.6030   34.9820 C   0  0  0  0  0  0  0  0  0  0  0  0
   37.4520   26.9070   35.3290 C   0  0  0  0  0  0  0  0  0  0  0  0
   37.0010   27.7570   34.3760 N   0  0  0  0  0  0  0  0  0  0  0  0
   36.8850   27.3660   33.0770 C   0  0  0  0  0  0  0  0  0  0  0  0
   37.2240   26.1090   32.7220 N   0  0  0  0  0  0  0  0  0  0  0  0
   37.9470   24.2400   33.3680 H   0  0  0  0  0  0  0  0  0  0  0  0
   37.5450   27.2190   36.3680 H   0  0  0  0  0  0  0  0  0  0  0  0
   36.5210   28.0640   32.3260 H   0  0  0  0  0  0  0  0  0  0  0  0
   40.6260   21.9050   36.4190 C   0  0  0  0  0  3  0  0  0  0  0  0
   41.4740   21.4560   37.5620 C   0  0  0  0  0  2  0  0  0  0  0  0
   42.7560   20.9630   36.8930 C   0  0  0  0  0  2  0  0  0  0  0  0
   42.6630   21.3750   35.4490 C   0  0  0  0  0  2  0  0  0  0  0  0
   41.6930   22.5590   35.5290 C   0  0  0  0  0  2  0  0  0  0  0  0
  1  2  1  0  0  0  0
  2  7  1  0  0  0  0
  2  3  2  0  0  0  0
  3  8  1  0  0  0  0
  4  3  1  0  0  0  0
  5  4  2  0  0  0  0
  6  1  2  0  0  0  0
  6  5  1  0  0  0  0
  9 10  1  0  0  0  0
 10 11  2  0  0  0  0
 10  1  1  0  0  0  0
 11 16  1  0  0  0  0
 12 11  1  0  0  0  0
 13 12  2  0  0  0  0
 14 13  1  0  0  0  0
 14  9  2  0  0  0  0
 15  9  1  0  0  0  0
 17 13  1  0  0  0  0
 18  5  1  0  0  0  0
 18 19  1  0  0  0  0
 20 19  1  0  0  0  0
 21 22  1  0  0  0  0
 21 20  1  0  0  0  0
 22 18  1  0  0  0  0
M  END
>  <minimizedAffinity>
-4.67725086

$$$$

 OpenBabel03272502123D

 22 24  0  0  0  0  0  0  0  0999 V2000
   35.1850   29.8230   34.3100 C   0  0  0  0  0  0  0  0  0  0  0  0
   34.8010   29.8490   32.9850 C   0  0  0  0  0  0  0  0  0  0  0  0
   35.3270   28.9880   32.0060 C   0  0  0  0  0  0  0  0  0  0  0  0
   36.2680   28.0890   32.4200 N   0  0  0  0  0  0  0  0  0  0  0  0
   36.6380   28.0680   33.7130 C   0  0  0  0  0  0  0  0  0  0  0  0
   36.1230   28.8970   34.6210 N   0  0  0  0  0  0  0  0  0  0  0  0
   34.0540   30.5540   32.6290 H   0  0  0  0  0  0  0  0  0  0  0  0
   34.9880   29.0540   30.9830 H   0  0  0  0  0  0  0  0  0  0  0  0
   33.2740   30.8350   35.5730 C   0  0  0  0  0  0  0  0  0  0  0  0
   34.6310   30.7130   35.2880 C   0  0  0  0  0  0  0  0  0  0  0  0
   35.5030   31.5260   36.0130 C   0  0  0  0  0  0  0  0  0  0  0  0
   35.0100   32.3780   36.9430 N   0  0  0  0  0  0  0  0  0  0  0  0
   33.6730   32.4610   37.1890 C   0  0  0  0  0  0  0  0  0  0  0  0
   32.8150   31.6840   36.4980 N   0  0  0  0  0  0  0  0  0  0  0  0
   32.5930   30.2060   35.0130 H   0  0  0  0  0  0  0  0  0  0  0  0
   36.5720   31.4600   35.8160 H   0  0  0  0  0  0  0  0  0  0  0  0
   33.2970   33.1520   37.9410 H   0  0  0  0  0  0  0  0  0  0  0  0
   37.6540   27.0850   34.1140 C   0  0  0  0  0  3  0  0  0  0  0  0
   38.4290   27.4300   35.3430 C   0  0  0  0  0  2  0  0  0  0  0  0
   39.7550   26.6940   35.1560 C   0  0  0  0  0  2  0  0  0  0  0  0
   39.7530   26.1740   33.7440 C   0  0  0  0  0  2  0  0  0  0  0  0
   38.7720   27.1350   33.0630 C   0  0  0  0  0  2  0  0  0  0  0  0
  1  6  1  0  0  0  0
  1 10  1  0  0  0  0
  2  1  2  0  0  0  0
  3  4  2  0  0  0  0
  3  2  1  0  0  0  0
  4  5  1  0  0  0  0
  5 18  1  0  0  0  0
  5  6  2  0  0  0  0
  7  2  1  0  0  0  0
  8  3  1  0  0  0  0
  9 14  1  0  0  0  0
 10  9  2  0  0  0  0
 10 11  1  0  0  0  0
 11 12  2  0  0  0  0
 12 13  1  0  0  0  0
 13 17  1  0  0  0  0
 14 13  2  0  0  0  0
 15  9  1  0  0  0  0
 16 11  1  0  0  0  0
 18 19  1  0  0  0  0
 20 19  1  0  0  0  0
 21 20  1  0  0  0  0
 22 21  1  0  0  0  0
 22 18  1  0  0  0  0
M  END
>  <minimizedAffinity>
-4.66757154

$$$$

 OpenBabel03272502123D

 22 24  0  0  0  0  0  0  0  0999 V2000
   37.3580   25.1710   32.5110 C   0  0  0  0  0  0  0  0  0  0  0  0
   36.5430   26.1410   31.9640 C   0  0  0  0  0  0  0  0  0  0  0  0
   35.4150   25.8560   31.1750 C   0  0  0  0  0  0  0  0  0  0  0  0
   35.1370   24.5370   30.9560 N   0  0  0  0  0  0  0  0  0  0  0  0
   35.9340   23.5950   31.4920 C   0  0  0  0  0  0  0  0  0  0  0  0
   36.9990   23.8940   32.2370 N   0  0  0  0  0  0  0  0  0  0  0  0
   36.7410   27.1980   32.1230 H   0  0  0  0  0  0  0  0  0  0  0  0
   34.8130   26.6570   30.7730 H   0  0  0  0  0  0  0  0  0  0  0  0
   39.2580   24.5660   34.0260 C   0  0  0  0  0  0  0  0  0  0  0  0
   38.5020   25.4920   33.3130 C   0  0  0  0  0  0  0  0  0  0  0  0
   38.8990   26.8270   33.3960 C   0  0  0  0  0  0  0  0  0  0  0  0
   39.9760   27.1620   34.1450 N   0  0  0  0  0  0  0  0  0  0  0  0
   40.6860   26.2190   34.8250 C   0  0  0  0  0  0  0  0  0  0  0  0
   40.3170   24.9240   34.7570 N   0  0  0  0  0  0  0  0  0  0  0  0
   38.9530   23.5280   33.9640 H   0  0  0  0  0  0  0  0  0  0  0  0
   38.3310   27.5810   32.8520 H   0  0  0  0  0  0  0  0  0  0  0  0
   41.5480   26.5090   35.4220 H   0  0  0  0  0  0  0  0  0  0  0  0
   35.5970   22.1890   31.2310 C   0  0  0  0  0  3  0  0  0  0  0  0
   35.0330   21.4390   32.3920 C   0  0  0  0  0  2  0  0  0  0  0  0
   35.4040   19.9850   32.1030 C   0  0  0  0  0  2  0  0  0  0  0  0
   36.3510   20.0170   30.9330 C   0  0  0  0  0  2  0  0  0  0  0  0
   36.9220   21.4350   31.0380 C   0  0  0  0  0  2  0  0  0  0  0  0
  1 10  1  0  0  0  0
  2  7  1  0  0  0  0
  2  1  2  0  0  0  0
  3  2  1  0  0  0  0
  4  3  2  0  0  0  0
  4  5  1  0  0  0  0
  5  6  2  0  0  0  0
  6  1  1  0  0  0  0
  8  3  1  0  0  0  0
  9 14  1  0  0  0  0
 10 11  1  0  0  0  0
 10  9  2  0  0  0  0
 11 12  2  0  0  0  0
 12 13  1  0  0  0  0
 13 17  1  0  0  0  0
 14 13  2  0  0  0  0
 15  9  1  0  0  0  0
 16 11  1  0  0  0  0
 18  5  1  0  0  0  0
 18 19  1  0  0  0  0
 20 19  1  0  0  0  0
 21 22  1  0  0  0  0
 21 20  1  0  0  0  0
 22 18  1  0  0  0  0
M  END
>  <minimizedAffinity>
-4.59943819

$$$$

 OpenBabel03272502123D

 22 24  0  0  0  0  0  0  0  0999 V2000
   37.0130   24.8830   32.8040 C   0  0  0  0  0  0  0  0  0  0  0  0
   36.2230   25.4500   31.8250 C   0  0  0  0  0  0  0  0  0  0  0  0
   35.4740   24.7020   30.8990 C   0  0  0  0  0  0  0  0  0  0  0  0
   35.5530   23.3430   31.0010 N   0  0  0  0  0  0  0  0  0  0  0  0
   36.3230   22.7950   31.9580 C   0  0  0  0  0  0  0  0  0  0  0  0
   37.0240   23.5290   32.8230 N   0  0  0  0  0  0  0  0  0  0  0  0
   36.1430   26.5290   31.7220 H   0  0  0  0  0  0  0  0  0  0  0  0
   34.8730   25.2010   30.1540 H   0  0  0  0  0  0  0  0  0  0  0  0
   37.2580   26.7420   34.4640 C   0  0  0  0  0  0  0  0  0  0  0  0
   37.7660   25.6700   33.7350 C   0  0  0  0  0  0  0  0  0  0  0  0
   39.1100   25.3530   33.9350 C   0  0  0  0  0  0  0  0  0  0  0  0
   39.8490   26.0790   34.8080 N   0  0  0  0  0  0  0  0  0  0  0  0
   39.3070   27.1190   35.5000 C   0  0  0  0  0  0  0  0  0  0  0  0
   38.0100   27.4410   35.3190 N   0  0  0  0  0  0  0  0  0  0  0  0
   36.2160   26.9920   34.3120 H   0  0  0  0  0  0  0  0  0  0  0  0
   39.5430   24.5210   33.3810 H   0  0  0  0  0  0  0  0  0  0  0  0
   39.9180   27.6900   36.1960 H   0  0  0  0  0  0  0  0  0  0  0  0
   36.3780   21.3290   32.0310 C   0  0  0  0  0  3  0  0  0  0  0  0
   36.7320   20.6370   30.7560 C   0  0  0  0  0  2  0  0  0  0  0  0
   36.0870   19.2590   30.8960 C   0  0  0  0  0  2  0  0  0  0  0  0
   35.2140   19.3260   32.1200 C   0  0  0  0  0  2  0  0  0  0  0  0
   34.9380   20.8300   32.2200 C   0  0  0  0  0  2  0  0  0  0  0  0
  1  6  1  0  0  0  0
  1 10  1  0  0  0  0
  2  1  2  0  0  0  0
  3  4  2  0  0  0  0
  3  2  1  0  0  0  0
  4  5  1  0  0  0  0
  5 18  1  0  0  0  0
  5  6  2  0  0  0  0
  7  2  1  0  0  0  0
  8  3  1  0  0  0  0
  9 14  1  0  0  0  0
 10 11  1  0  0  0  0
 10  9  2  0  0  0  0
 11 12  2  0  0  0  0
 12 13  1  0  0  0  0
 13 17  1  0  0  0  0
 14 13  2  0  0  0  0
 15  9  1  0  0  0  0
 16 11  1  0  0  0  0
 18 22  1  0  0  0  0
 19 20  1  0  0  0  0
 19 18  1  0  0  0  0
 20 21  1  0  0  0  0
 21 22  1  0  0  0  0
M  END
>  <minimizedAffinity>
-4.59038353

$$$$
