
 OpenBabel03272504283D

 38 41  0  0  0  0  0  0  0  0999 V2000
   35.3030   29.7940   48.6290 C   0  0  0  0  0  0  0  0  0  0  0  0
   34.7400   29.6590   49.8480 C   0  0  0  0  0  0  0  0  0  0  0  0
   33.7410   28.7930   50.0640 C   0  0  0  0  0  0  0  0  0  0  0  0
   33.2910   28.0390   49.0250 N   0  0  0  0  0  0  0  0  0  0  0  0
   33.8530   28.1810   47.8290 C   0  0  0  0  0  0  0  0  0  0  0  0
   34.8520   29.0450   47.6080 N   0  0  0  0  0  0  0  0  0  0  0  0
   35.0990   30.2620   50.6770 H   0  0  0  0  0  0  0  0  0  0  0  0
   33.3000   28.6980   51.0490 H   0  0  0  0  0  0  0  0  0  0  0  0
   31.9600   26.9810   46.8210 C   0  0  0  0  0  0  0  0  0  0  0  0
   33.3140   27.3100   46.8040 C   0  0  0  0  0  0  0  0  0  0  0  0
   34.2190   26.8330   45.8750 C   0  0  0  0  0  0  0  0  0  0  0  0
   33.7740   25.9740   44.8930 C   0  0  0  0  0  0  0  0  0  0  0  0
   32.4510   25.5910   44.8320 C   0  0  0  0  0  0  0  0  0  0  0  0
   31.6410   26.1120   45.7860 C   0  0  0  0  0  0  0  0  0  0  0  0
   35.2610   27.1190   45.9010 H   0  0  0  0  0  0  0  0  0  0  0  0
   34.4820   25.6000   44.1640 H   0  0  0  0  0  0  0  0  0  0  0  0
   32.0930   24.9240   44.0770 H   0  0  0  0  0  0  0  0  0  0  0  0
   30.5880   25.8010   45.7290 H   0  0  0  0  0  0  0  0  0  0  0  0
   30.8400   27.5530   47.9120 S   0  0  0  0  0  0  0  0  0  0  0  0
   29.6920   26.5570   47.5370 O   0  0  0  0  0  0  0  0  0  0  0  0
   30.4450   28.9360   47.4620 O   0  0  0  0  0  0  0  0  0  0  0  0
   30.2080   27.6410   49.3760 C   0  0  0  0  0  0  0  0  0  0  0  0
   29.6400   26.5580   50.0810 F   0  0  0  0  0  0  0  0  0  0  0  0
   28.8800   28.2740   49.3070 F   0  0  0  0  0  0  0  0  0  0  0  0
   30.5600   28.6810   50.2830 F   0  0  0  0  0  0  0  0  0  0  0  0
   37.8080   32.4500   48.9720 C   0  0  0  0  0  0  0  0  0  0  0  0
   38.4720   32.4050   47.7300 C   0  0  0  0  0  0  0  0  0  0  0  0
   38.0390   31.4610   46.8050 C   0  0  0  0  0  0  0  0  0  0  0  0
   37.0080   30.6470   47.1570 N   0  0  0  0  0  0  0  0  0  0  0  0
   36.3890   30.7190   48.3690 C   0  0  0  0  0  0  0  0  0  0  0  0
   36.7990   31.6230   49.2630 N   0  0  0  0  0  0  0  0  0  0  0  0
   38.0960   33.1620   49.7370 H   0  0  0  0  0  0  0  0  0  0  0  0
   39.2830   33.0880   47.5290 H   0  0  0  0  0  0  0  0  0  0  0  0
   38.6930   31.3650   45.4910 C   0  0  0  0  0  0  0  0  0  0  0  0
   40.1460   31.0340   45.6000 C   0  0  0  0  0  0  0  0  0  0  0  0
   40.8900   32.3290   45.3510 C   0  0  0  0  0  0  0  0  0  0  0  0
   39.8730   33.4050   45.1130 C   0  0  0  0  0  0  0  0  0  0  0  0
   38.6260   32.6770   44.7260 C   0  0  0  0  0  0  0  0  0  0  0  0
  1  2  1  0  0  0  0
  2  3  2  0  0  0  0
  2  7  1  0  0  0  0
  3  8  1  0  0  0  0
  4  3  1  0  0  0  0
  5  4  2  0  0  0  0
  6  5  1  0  0  0  0
  6  1  2  0  0  0  0
  9 19  1  0  0  0  0
 10  9  1  0  0  0  0
 10  5  1  0  0  0  0
 11 15  1  0  0  0  0
 11 10  2  0  0  0  0
 12 11  1  0  0  0  0
 13 12  2  0  0  0  0
 13 14  1  0  0  0  0
 14  9  2  0  0  0  0
 16 12  1  0  0  0  0
 17 13  1  0  0  0  0
 18 14  1  0  0  0  0
 19 22  1  0  0  0  0
 20 19  2  0  0  0  0
 21 19  2  0  0  0  0
 22 23  1  0  0  0  0
 22 25  1  0  0  0  0
 24 22  1  0  0  0  0
 26 31  1  0  0  0  0
 26 32  1  0  0  0  0
 27 26  2  0  0  0  0
 28 29  2  0  0  0  0
 28 27  1  0  0  0  0
 29 30  1  0  0  0  0
 30  1  1  0  0  0  0
 30 31  2  0  0  0  0
 33 27  1  0  0  0  0
 34 35  1  0  0  0  0
 34 28  1  0  0  0  0
 36 35  1  0  0  0  0
 37 36  1  0  0  0  0
 38 37  1  0  0  0  0
 38 34  1  0  0  0  0
M  END
>  <minimizedAffinity>
-6.61295748

>  <minimizedRMSD>
1.58922291

$$$$
