REMARK  Name = 
REMARK  4 active torsions:
REMARK  status: ('A' for Active; 'I' for Inactive)
REMARK    1  A    between atoms: C_3  and  C_10
REMARK    2  A    between atoms: C_8  and  C_15
REMARK    3  A    between atoms: C_15  and  O_17
REMARK    4  A    between atoms: O_17  and  C_23
REMARK                            x       y       z     vdW  Elec       q    Type
REMARK                         _______ _______ _______ _____ _____    ______ ____
ROOT
ATOM      1 CL   UNL     1      36.804  32.181  50.129  0.00  0.00    +0.000 Cl
ATOM      2  C   UNL     1      37.543  31.928  48.591  0.00  0.00    +0.000 A 
ATOM      3  C   UNL     1      36.961  30.916  47.883  0.00  0.00    +0.000 A 
ATOM      4  C   UNL     1      37.483  30.613  46.599  0.00  0.00    +0.000 A 
ATOM      5  C   UNL     1      38.537  31.309  46.080  0.00  0.00    +0.000 A 
ATOM      6  C   UNL     1      39.099  32.319  46.816  0.00  0.00    +0.000 A 
ATOM      7 CL   UNL     1      40.440  33.229  46.196  0.00  0.00    +0.000 Cl
ATOM      8  C   UNL     1      38.605  32.615  48.046  0.00  0.00    +0.000 A 
ATOM      9  H   UNL     1      37.092  29.832  45.963  0.00  0.00    +0.000 HD
ATOM     10  H   UNL     1      38.959  31.102  45.103  0.00  0.00    +0.000 HD
ENDROOT
BRANCH   3  12
ATOM     11  C   UNL     1      36.031  29.093  49.252  0.00  0.00    +0.000 A 
ATOM     12  C   UNL     1      35.833  30.038  48.230  0.00  0.00    +0.000 A 
ATOM     13  C   UNL     1      34.586  30.095  47.602  0.00  0.00    +0.000 A 
ATOM     14  N   UNL     1      33.638  29.213  48.034  0.00  0.00    +0.000 NA
ATOM     15  C   UNL     1      33.866  28.317  49.022  0.00  0.00    +0.000 A 
ATOM     16  N   UNL     1      35.081  28.256  49.640  0.00  0.00    +0.000 NA
ATOM     17  H   UNL     1      37.000  29.052  49.738  0.00  0.00    +0.000 HD
ATOM     18  H   UNL     1      34.449  30.811  46.833  0.00  0.00    +0.000 HD
ATOM     19  H   UNL     1      33.083  27.633  49.336  0.00  0.00    +0.000 HD
ENDBRANCH   3  12
BRANCH   8  20
ATOM     20  C   UNL     1      39.143  33.684  48.910  0.00  0.00    +0.000 C 
ATOM     21  O   UNL     1      39.271  34.895  48.645  0.00  0.00    +0.000 OA
BRANCH  20  22
ATOM     22  O   UNL     1      39.623  33.532  50.226  0.00  0.00    +0.000 OA
BRANCH  22  23
ATOM     23  C   UNL     1      40.121  34.544  51.014  0.00  0.00    +0.000 C 
ATOM     24  C   UNL     1      41.617  34.730  50.926  0.00  0.00    +0.000 C 
ATOM     25  C   UNL     1      41.865  35.594  52.156  0.00  0.00    +0.000 C 
ATOM     26  C   UNL     1      40.866  35.076  53.187  0.00  0.00    +0.000 C 
ATOM     27  C   UNL     1      39.921  34.173  52.467  0.00  0.00    +0.000 C 
ENDBRANCH  22  23
ENDBRANCH  20  22
ENDBRANCH   8  20
TORSDOF 4
