
 OpenBabel03272504293D

 38 41  0  0  0  0  0  0  0  0999 V2000
   38.0750   25.7020   33.5660 C   0  0  0  0  0  0  0  0  0  0  0  0
   38.0240   26.8760   34.2290 C   0  0  0  0  0  0  0  0  0  0  0  0
   38.9820   27.2310   35.0950 C   0  0  0  0  0  0  0  0  0  0  0  0
   40.0240   26.3820   35.3040 N   0  0  0  0  0  0  0  0  0  0  0  0
   40.0640   25.2290   34.6450 C   0  0  0  0  0  0  0  0  0  0  0  0
   39.1090   24.8690   33.7780 N   0  0  0  0  0  0  0  0  0  0  0  0
   37.1910   27.5540   34.0630 H   0  0  0  0  0  0  0  0  0  0  0  0
   38.9250   28.1770   35.6200 H   0  0  0  0  0  0  0  0  0  0  0  0
   41.1650   23.4280   35.9040 C   0  0  0  0  0  0  0  0  0  0  0  0
   41.2300   24.4160   34.9240 C   0  0  0  0  0  0  0  0  0  0  0  0
   42.3660   24.7130   34.1940 C   0  0  0  0  0  0  0  0  0  0  0  0
   43.5180   23.9970   34.4360 C   0  0  0  0  0  0  0  0  0  0  0  0
   43.5480   23.0010   35.3890 C   0  0  0  0  0  0  0  0  0  0  0  0
   42.3860   22.7850   36.0520 C   0  0  0  0  0  0  0  0  0  0  0  0
   42.3680   25.4890   33.4410 H   0  0  0  0  0  0  0  0  0  0  0  0
   44.4080   24.2280   33.8650 H   0  0  0  0  0  0  0  0  0  0  0  0
   44.4350   22.4390   35.5880 H   0  0  0  0  0  0  0  0  0  0  0  0
   42.4190   21.9880   36.8100 H   0  0  0  0  0  0  0  0  0  0  0  0
   39.8090   23.0320   36.7870 S   0  0  0  0  0  0  0  0  0  0  0  0
   40.5440   22.1950   37.8870 O   0  0  0  0  0  0  0  0  0  0  0  0
   38.9840   22.0980   35.9410 O   0  0  0  0  0  0  0  0  0  0  0  0
   38.6810   23.3570   37.8700 C   0  0  0  0  0  0  0  0  0  0  0  0
   37.3430   22.9120   37.8060 F   0  0  0  0  0  0  0  0  0  0  0  0
   38.2140   24.7430   37.6990 F   0  0  0  0  0  0  0  0  0  0  0  0
   39.0080   23.7240   39.2060 F   0  0  0  0  0  0  0  0  0  0  0  0
   35.3450   25.7410   31.1160 C   0  0  0  0  0  0  0  0  0  0  0  0
   35.1630   24.3710   30.8430 C   0  0  0  0  0  0  0  0  0  0  0  0
   35.9830   23.4680   31.5100 C   0  0  0  0  0  0  0  0  0  0  0  0
   36.9050   23.9640   32.3790 N   0  0  0  0  0  0  0  0  0  0  0  0
   37.0540   25.2970   32.6190 C   0  0  0  0  0  0  0  0  0  0  0  0
   36.2690   26.1700   31.9820 N   0  0  0  0  0  0  0  0  0  0  0  0
   34.7390   26.4960   30.6300 H   0  0  0  0  0  0  0  0  0  0  0  0
   34.4070   24.0600   30.1380 H   0  0  0  0  0  0  0  0  0  0  0  0
   35.8410   22.0250   31.2660 C   0  0  0  0  0  3  0  0  0  0  0  0
   34.9610   21.3610   32.2760 C   0  0  0  0  0  2  0  0  0  0  0  0
   35.8880   20.6320   33.2250 C   0  0  0  0  0  2  0  0  0  0  0  0
   37.2960   20.8830   32.7750 C   0  0  0  0  0  2  0  0  0  0  0  0
   37.1750   21.3000   31.3450 C   0  0  0  0  0  2  0  0  0  0  0  0
  1  6  2  0  0  0  0
  1  2  1  0  0  0  0
  2  3  2  0  0  0  0
  3  4  1  0  0  0  0
  3  8  1  0  0  0  0
  5 10  1  0  0  0  0
  5  4  2  0  0  0  0
  6  5  1  0  0  0  0
  7  2  1  0  0  0  0
  9 14  1  0  0  0  0
  9 19  1  0  0  0  0
 10  9  2  0  0  0  0
 11 12  2  0  0  0  0
 11 10  1  0  0  0  0
 12 13  1  0  0  0  0
 13 17  1  0  0  0  0
 13 14  2  0  0  0  0
 14 18  1  0  0  0  0
 15 11  1  0  0  0  0
 16 12  1  0  0  0  0
 19 22  1  0  0  0  0
 19 20  2  0  0  0  0
 21 19  2  0  0  0  0
 22 25  1  0  0  0  0
 23 22  1  0  0  0  0
 24 22  1  0  0  0  0
 26 31  1  0  0  0  0
 27 26  2  0  0  0  0
 27 28  1  0  0  0  0
 28 29  2  0  0  0  0
 29 30  1  0  0  0  0
 30  1  1  0  0  0  0
 31 30  2  0  0  0  0
 32 26  1  0  0  0  0
 33 27  1  0  0  0  0
 34 38  1  0  0  0  0
 34 28  1  0  0  0  0
 34 35  1  0  0  0  0
 35 36  1  0  0  0  0
 37 36  1  0  0  0  0
 38 37  1  0  0  0  0
M  END
>  <minimizedAffinity>
-7.14390326

$$$$

 OpenBabel03272504293D

 38 41  0  0  0  0  0  0  0  0999 V2000
   36.0620   28.2590   32.9340 C   0  0  0  0  0  0  0  0  0  0  0  0
   35.9190   28.9010   31.7550 C   0  0  0  0  0  0  0  0  0  0  0  0
   35.3670   30.1190   31.6860 C   0  0  0  0  0  0  0  0  0  0  0  0
   34.9440   30.7130   32.8340 N   0  0  0  0  0  0  0  0  0  0  0  0
   35.0900   30.0720   33.9890 C   0  0  0  0  0  0  0  0  0  0  0  0
   35.6410   28.8540   34.0630 N   0  0  0  0  0  0  0  0  0  0  0  0
   36.2570   28.4260   30.8380 H   0  0  0  0  0  0  0  0  0  0  0  0
   35.2590   30.6200   30.7310 H   0  0  0  0  0  0  0  0  0  0  0  0
   33.3280   30.6260   35.6100 C   0  0  0  0  0  0  0  0  0  0  0  0
   34.6290   30.8080   35.1480 C   0  0  0  0  0  0  0  0  0  0  0  0
   35.5370   31.6870   35.7090 C   0  0  0  0  0  0  0  0  0  0  0  0
   35.1490   32.4420   36.7950 C   0  0  0  0  0  0  0  0  0  0  0  0
   33.8790   32.3300   37.3190 C   0  0  0  0  0  0  0  0  0  0  0  0
   33.0620   31.4410   36.7010 C   0  0  0  0  0  0  0  0  0  0  0  0
   36.5390   31.7930   35.3170 H   0  0  0  0  0  0  0  0  0  0  0  0
   35.8590   33.1300   37.2350 H   0  0  0  0  0  0  0  0  0  0  0  0
   33.5640   32.9090   38.1600 H   0  0  0  0  0  0  0  0  0  0  0  0
   32.0510   31.3580   37.1270 H   0  0  0  0  0  0  0  0  0  0  0  0
   32.2160   29.5620   34.9710 S   0  0  0  0  0  0  0  0  0  0  0  0
   30.9570   30.4710   35.1660 O   0  0  0  0  0  0  0  0  0  0  0  0
   32.1210   28.3950   35.9190 O   0  0  0  0  0  0  0  0  0  0  0  0
   31.4590   28.8750   33.7440 C   0  0  0  0  0  0  0  0  0  0  0  0
   31.0240   27.5330   33.7080 F   0  0  0  0  0  0  0  0  0  0  0  0
   32.4210   28.5770   32.6700 F   0  0  0  0  0  0  0  0  0  0  0  0
   30.7490   29.6430   32.7770 F   0  0  0  0  0  0  0  0  0  0  0  0
   37.0550   24.7920   32.2650 C   0  0  0  0  0  0  0  0  0  0  0  0
   37.8740   24.4920   33.3710 C   0  0  0  0  0  0  0  0  0  0  0  0
   38.0640   25.4910   34.3200 C   0  0  0  0  0  0  0  0  0  0  0  0
   37.4480   26.6870   34.1200 N   0  0  0  0  0  0  0  0  0  0  0  0
   36.6620   26.9420   33.0370 C   0  0  0  0  0  0  0  0  0  0  0  0
   36.4750   25.9880   32.1210 N   0  0  0  0  0  0  0  0  0  0  0  0
   36.8670   24.0580   31.4900 H   0  0  0  0  0  0  0  0  0  0  0  0
   38.3260   23.5160   33.4560 H   0  0  0  0  0  0  0  0  0  0  0  0
   38.9090   25.2370   35.4970 C   0  0  0  0  0  3  0  0  0  0  0  0
   39.4150   23.8320   35.5430 C   0  0  0  0  0  2  0  0  0  0  0  0
   38.5730   23.1170   36.5790 C   0  0  0  0  0  2  0  0  0  0  0  0
   37.5780   24.1000   37.1190 C   0  0  0  0  0  2  0  0  0  0  0  0
   38.1490   25.4430   36.7970 C   0  0  0  0  0  2  0  0  0  0  0  0
  1 30  1  0  0  0  0
  1  6  1  0  0  0  0
  2  1  2  0  0  0  0
  3  2  1  0  0  0  0
  3  4  2  0  0  0  0
  4  5  1  0  0  0  0
  5  6  2  0  0  0  0
  5 10  1  0  0  0  0
  7  2  1  0  0  0  0
  8  3  1  0  0  0  0
  9 14  1  0  0  0  0
 10  9  2  0  0  0  0
 10 11  1  0  0  0  0
 11 12  2  0  0  0  0
 12 16  1  0  0  0  0
 12 13  1  0  0  0  0
 13 17  1  0  0  0  0
 14 18  1  0  0  0  0
 14 13  2  0  0  0  0
 15 11  1  0  0  0  0
 19 20  2  0  0  0  0
 19  9  1  0  0  0  0
 19 21  2  0  0  0  0
 22 19  1  0  0  0  0
 23 22  1  0  0  0  0
 24 22  1  0  0  0  0
 25 22  1  0  0  0  0
 26 27  1  0  0  0  0
 27 33  1  0  0  0  0
 27 28  2  0  0  0  0
 28 34  1  0  0  0  0
 29 28  1  0  0  0  0
 30 29  2  0  0  0  0
 31 26  2  0  0  0  0
 31 30  1  0  0  0  0
 32 26  1  0  0  0  0
 34 35  1  0  0  0  0
 34 38  1  0  0  0  0
 35 36  1  0  0  0  0
 36 37  1  0  0  0  0
 38 37  1  0  0  0  0
M  END
>  <minimizedAffinity>
-6.84367037

$$$$

 OpenBabel03272504293D

 38 41  0  0  0  0  0  0  0  0999 V2000
   36.3620   28.1440   33.5850 C   0  0  0  0  0  0  0  0  0  0  0  0
   36.3020   28.6450   32.3330 C   0  0  0  0  0  0  0  0  0  0  0  0
   35.7170   29.8220   32.0800 C   0  0  0  0  0  0  0  0  0  0  0  0
   35.1730   30.5190   33.1130 N   0  0  0  0  0  0  0  0  0  0  0  0
   35.2370   30.0160   34.3410 C   0  0  0  0  0  0  0  0  0  0  0  0
   35.8210   28.8390   34.6000 N   0  0  0  0  0  0  0  0  0  0  0  0
   36.7370   28.0880   31.5080 H   0  0  0  0  0  0  0  0  0  0  0  0
   35.6780   30.2110   31.0690 H   0  0  0  0  0  0  0  0  0  0  0  0
   33.2940   30.7280   35.6680 C   0  0  0  0  0  0  0  0  0  0  0  0
   34.6490   30.8540   35.3670 C   0  0  0  0  0  0  0  0  0  0  0  0
   35.4980   31.7640   35.9670 C   0  0  0  0  0  0  0  0  0  0  0  0
   34.9910   32.6130   36.9280 C   0  0  0  0  0  0  0  0  0  0  0  0
   33.6620   32.5620   37.2890 C   0  0  0  0  0  0  0  0  0  0  0  0
   32.9100   31.6360   36.6450 C   0  0  0  0  0  0  0  0  0  0  0  0
   36.5440   31.8230   35.7010 H   0  0  0  0  0  0  0  0  0  0  0  0
   35.6550   33.3260   37.3990 H   0  0  0  0  0  0  0  0  0  0  0  0
   33.2560   33.2150   38.0320 H   0  0  0  0  0  0  0  0  0  0  0  0
   31.8510   31.6030   36.9410 H   0  0  0  0  0  0  0  0  0  0  0  0
   32.2490   29.6300   34.9790 S   0  0  0  0  0  0  0  0  0  0  0  0
   30.9390   30.4560   35.2030 O   0  0  0  0  0  0  0  0  0  0  0  0
   32.2170   28.4210   35.8780 O   0  0  0  0  0  0  0  0  0  0  0  0
   31.5370   28.9510   33.7210 C   0  0  0  0  0  0  0  0  0  0  0  0
   31.0590   27.6240   33.6770 F   0  0  0  0  0  0  0  0  0  0  0  0
   32.5470   28.6060   32.7060 F   0  0  0  0  0  0  0  0  0  0  0  0
   30.9090   29.7280   32.7060 F   0  0  0  0  0  0  0  0  0  0  0  0
   38.0470   25.3860   35.3200 C   0  0  0  0  0  0  0  0  0  0  0  0
   38.1660   24.4160   34.3050 C   0  0  0  0  0  0  0  0  0  0  0  0
   37.6640   24.7360   33.0490 C   0  0  0  0  0  0  0  0  0  0  0  0
   37.0930   25.9600   32.8810 N   0  0  0  0  0  0  0  0  0  0  0  0
   36.9950   26.8740   33.8870 C   0  0  0  0  0  0  0  0  0  0  0  0
   37.4750   26.5740   35.0960 N   0  0  0  0  0  0  0  0  0  0  0  0
   38.4180   25.2000   36.3210 H   0  0  0  0  0  0  0  0  0  0  0  0
   38.6330   23.4680   34.5210 H   0  0  0  0  0  0  0  0  0  0  0  0
   37.7580   23.7640   31.9490 C   0  0  0  0  0  3  0  0  0  0  0  0
   36.7040   23.9750   30.9100 C   0  0  0  0  0  2  0  0  0  0  0  0
   35.6640   22.9000   31.1450 C   0  0  0  0  0  2  0  0  0  0  0  0
   36.1080   22.0810   32.3200 C   0  0  0  0  0  2  0  0  0  0  0  0
   37.5750   22.3350   32.4350 C   0  0  0  0  0  2  0  0  0  0  0  0
  1 30  1  0  0  0  0
  1  6  1  0  0  0  0
  2  1  2  0  0  0  0
  3  2  1  0  0  0  0
  3  4  2  0  0  0  0
  4  5  1  0  0  0  0
  5  6  2  0  0  0  0
  5 10  1  0  0  0  0
  7  2  1  0  0  0  0
  8  3  1  0  0  0  0
  9 14  1  0  0  0  0
 10  9  2  0  0  0  0
 10 11  1  0  0  0  0
 11 12  2  0  0  0  0
 12 13  1  0  0  0  0
 12 16  1  0  0  0  0
 13 17  1  0  0  0  0
 14 18  1  0  0  0  0
 14 13  2  0  0  0  0
 15 11  1  0  0  0  0
 19 20  2  0  0  0  0
 19  9  1  0  0  0  0
 19 21  2  0  0  0  0
 22 19  1  0  0  0  0
 23 22  1  0  0  0  0
 24 22  1  0  0  0  0
 25 22  1  0  0  0  0
 26 32  1  0  0  0  0
 27 33  1  0  0  0  0
 27 26  2  0  0  0  0
 28 27  1  0  0  0  0
 29 28  2  0  0  0  0
 29 30  1  0  0  0  0
 30 31  2  0  0  0  0
 31 26  1  0  0  0  0
 34 38  1  0  0  0  0
 34 28  1  0  0  0  0
 35 36  1  0  0  0  0
 35 34  1  0  0  0  0
 36 37  1  0  0  0  0
 37 38  1  0  0  0  0
M  END
>  <minimizedAffinity>
-6.7253089

$$$$

 OpenBabel03272504293D

 38 41  0  0  0  0  0  0  0  0999 V2000
   35.8830   28.5720   32.4050 C   0  0  0  0  0  0  0  0  0  0  0  0
   36.6430   29.0860   31.4170 C   0  0  0  0  0  0  0  0  0  0  0  0
   37.4230   28.3060   30.6580 C   0  0  0  0  0  0  0  0  0  0  0  0
   37.4430   26.9670   30.8990 N   0  0  0  0  0  0  0  0  0  0  0  0
   36.6900   26.4720   31.8760 C   0  0  0  0  0  0  0  0  0  0  0  0
   35.9080   27.2480   32.6370 N   0  0  0  0  0  0  0  0  0  0  0  0
   36.6280   30.1560   31.2250 H   0  0  0  0  0  0  0  0  0  0  0  0
   38.0280   28.7350   29.8680 H   0  0  0  0  0  0  0  0  0  0  0  0
   37.5610   24.4870   33.0340 C   0  0  0  0  0  0  0  0  0  0  0  0
   36.7690   25.0330   32.0260 C   0  0  0  0  0  0  0  0  0  0  0  0
   36.0530   24.2870   31.1090 C   0  0  0  0  0  0  0  0  0  0  0  0
   36.1130   22.9120   31.1780 C   0  0  0  0  0  0  0  0  0  0  0  0
   36.8720   22.2820   32.1410 C   0  0  0  0  0  0  0  0  0  0  0  0
   37.5380   23.0990   32.9940 C   0  0  0  0  0  0  0  0  0  0  0  0
   35.4490   24.7570   30.3450 H   0  0  0  0  0  0  0  0  0  0  0  0
   35.5520   22.3260   30.4610 H   0  0  0  0  0  0  0  0  0  0  0  0
   36.9290   21.2170   32.2060 H   0  0  0  0  0  0  0  0  0  0  0  0
   38.1400   22.5880   33.7600 H   0  0  0  0  0  0  0  0  0  0  0  0
   38.4190   25.3550   34.1660 S   0  0  0  0  0  0  0  0  0  0  0  0
   39.7210   25.5330   33.3150 O   0  0  0  0  0  0  0  0  0  0  0  0
   38.7160   24.4230   35.3120 O   0  0  0  0  0  0  0  0  0  0  0  0
   38.7970   26.7120   34.9210 C   0  0  0  0  0  0  0  0  0  0  0  0
   40.1090   27.1430   35.2060 F   0  0  0  0  0  0  0  0  0  0  0  0
   38.5460   26.5630   36.3640 F   0  0  0  0  0  0  0  0  0  0  0  0
   37.9000   27.8170   34.9680 F   0  0  0  0  0  0  0  0  0  0  0  0
   32.9630   30.2630   33.8440 C   0  0  0  0  0  0  0  0  0  0  0  0
   33.5290   30.9950   34.9070 C   0  0  0  0  0  0  0  0  0  0  0  0
   34.9010   30.8890   35.1010 C   0  0  0  0  0  0  0  0  0  0  0  0
   35.6060   30.0890   34.2560 N   0  0  0  0  0  0  0  0  0  0  0  0
   35.0250   29.3950   33.2370 C   0  0  0  0  0  0  0  0  0  0  0  0
   33.7070   29.4920   33.0450 N   0  0  0  0  0  0  0  0  0  0  0  0
   31.8990   30.3020   33.6390 H   0  0  0  0  0  0  0  0  0  0  0  0
   32.8980   31.6080   35.5320 H   0  0  0  0  0  0  0  0  0  0  0  0
   35.5500   31.6290   36.1940 C   0  0  0  0  0  3  0  0  0  0  0  0
   34.5670   32.3690   37.0430 C   0  0  0  0  0  2  0  0  0  0  0  0
   34.6670   33.8220   36.6290 C   0  0  0  0  0  2  0  0  0  0  0  0
   35.6930   33.9190   35.5400 C   0  0  0  0  0  2  0  0  0  0  0  0
   36.5170   32.6800   35.6730 C   0  0  0  0  0  2  0  0  0  0  0  0
  1  6  1  0  0  0  0
  1 30  1  0  0  0  0
  2  1  2  0  0  0  0
  3  4  2  0  0  0  0
  3  2  1  0  0  0  0
  4  5  1  0  0  0  0
  5 10  1  0  0  0  0
  5  6  2  0  0  0  0
  7  2  1  0  0  0  0
  8  3  1  0  0  0  0
  9 19  1  0  0  0  0
 10  9  2  0  0  0  0
 11 12  2  0  0  0  0
 11 10  1  0  0  0  0
 12 13  1  0  0  0  0
 13 17  1  0  0  0  0
 13 14  2  0  0  0  0
 14  9  1  0  0  0  0
 14 18  1  0  0  0  0
 15 11  1  0  0  0  0
 16 12  1  0  0  0  0
 19 22  1  0  0  0  0
 19 21  2  0  0  0  0
 20 19  2  0  0  0  0
 22 25  1  0  0  0  0
 22 23  1  0  0  0  0
 22 24  1  0  0  0  0
 26 27  1  0  0  0  0
 27 28  2  0  0  0  0
 27 33  1  0  0  0  0
 28 34  1  0  0  0  0
 29 28  1  0  0  0  0
 30 29  2  0  0  0  0
 31 30  1  0  0  0  0
 31 26  2  0  0  0  0
 32 26  1  0  0  0  0
 34 35  1  0  0  0  0
 36 35  1  0  0  0  0
 37 38  1  0  0  0  0
 37 36  1  0  0  0  0
 38 34  1  0  0  0  0
M  END
>  <minimizedAffinity>
-6.5952363

$$$$

 OpenBabel03272504293D

 38 41  0  0  0  0  0  0  0  0999 V2000
   35.5280   29.0620   32.3110 C   0  0  0  0  0  0  0  0  0  0  0  0
   35.2820   29.9770   31.3500 C   0  0  0  0  0  0  0  0  0  0  0  0
   34.2720   30.8500   31.4600 C   0  0  0  0  0  0  0  0  0  0  0  0
   33.4830   30.8030   32.5660 N   0  0  0  0  0  0  0  0  0  0  0  0
   33.7340   29.8980   33.5060 C   0  0  0  0  0  0  0  0  0  0  0  0
   34.7430   29.0230   33.4010 N   0  0  0  0  0  0  0  0  0  0  0  0
   35.9120   30.0140   30.4660 H   0  0  0  0  0  0  0  0  0  0  0  0
   34.0880   31.5780   30.6790 H   0  0  0  0  0  0  0  0  0  0  0  0
   33.0780   30.8950   35.6540 C   0  0  0  0  0  0  0  0  0  0  0  0
   32.8480   29.9560   34.6510 C   0  0  0  0  0  0  0  0  0  0  0  0
   31.8260   29.0270   34.6750 C   0  0  0  0  0  0  0  0  0  0  0  0
   30.9680   29.0090   35.7530 C   0  0  0  0  0  0  0  0  0  0  0  0
   31.1190   29.8990   36.7950 C   0  0  0  0  0  0  0  0  0  0  0  0
   32.1500   30.7720   36.6800 C   0  0  0  0  0  0  0  0  0  0  0  0
   31.6850   28.3190   33.8700 H   0  0  0  0  0  0  0  0  0  0  0  0
   30.1660   28.2810   35.7730 H   0  0  0  0  0  0  0  0  0  0  0  0
   30.4620   29.8960   37.6380 H   0  0  0  0  0  0  0  0  0  0  0  0
   32.2630   31.4780   37.5150 H   0  0  0  0  0  0  0  0  0  0  0  0
   34.2870   32.0410   35.6480 S   0  0  0  0  0  0  0  0  0  0  0  0
   34.7540   31.8260   37.1260 O   0  0  0  0  0  0  0  0  0  0  0  0
   33.6220   33.3880   35.5420 O   0  0  0  0  0  0  0  0  0  0  0  0
   35.7690   32.5320   35.3110 C   0  0  0  0  0  0  0  0  0  0  0  0
   36.4240   32.3500   34.0750 F   0  0  0  0  0  0  0  0  0  0  0  0
   36.7460   31.6310   35.9460 F   0  0  0  0  0  0  0  0  0  0  0  0
   36.3940   33.5820   36.0430 F   0  0  0  0  0  0  0  0  0  0  0  0
   37.8790   26.5240   31.0930 C   0  0  0  0  0  0  0  0  0  0  0  0
   38.7330   26.3440   32.1990 C   0  0  0  0  0  0  0  0  0  0  0  0
   38.4770   27.1010   33.3370 C   0  0  0  0  0  0  0  0  0  0  0  0
   37.4230   27.9620   33.3090 N   0  0  0  0  0  0  0  0  0  0  0  0
   36.6180   28.1090   32.2200 C   0  0  0  0  0  0  0  0  0  0  0  0
   36.8580   27.3860   31.1230 N   0  0  0  0  0  0  0  0  0  0  0  0
   38.0240   25.9650   30.1750 H   0  0  0  0  0  0  0  0  0  0  0  0
   39.5480   25.6400   32.1390 H   0  0  0  0  0  0  0  0  0  0  0  0
   39.3340   26.9580   34.5240 C   0  0  0  0  0  3  0  0  0  0  0  0
   39.9850   25.6150   34.5980 C   0  0  0  0  0  2  0  0  0  0  0  0
   39.2150   24.8330   35.6400 C   0  0  0  0  0  2  0  0  0  0  0  0
   38.1160   25.7140   36.1560 C   0  0  0  0  0  2  0  0  0  0  0  0
   38.5450   27.1040   35.8150 C   0  0  0  0  0  2  0  0  0  0  0  0
  1  6  1  0  0  0  0
  2  3  1  0  0  0  0
  2  1  2  0  0  0  0
  3  4  2  0  0  0  0
  4  5  1  0  0  0  0
  5 10  1  0  0  0  0
  6  5  2  0  0  0  0
  7  2  1  0  0  0  0
  8  3  1  0  0  0  0
  9 14  1  0  0  0  0
 10 11  1  0  0  0  0
 10  9  2  0  0  0  0
 11 12  2  0  0  0  0
 12 16  1  0  0  0  0
 12 13  1  0  0  0  0
 13 17  1  0  0  0  0
 14 13  2  0  0  0  0
 14 18  1  0  0  0  0
 15 11  1  0  0  0  0
 19  9  1  0  0  0  0
 19 20  2  0  0  0  0
 21 19  2  0  0  0  0
 22 19  1  0  0  0  0
 22 24  1  0  0  0  0
 22 25  1  0  0  0  0
 23 22  1  0  0  0  0
 26 31  2  0  0  0  0
 26 27  1  0  0  0  0
 27 28  2  0  0  0  0
 28 34  1  0  0  0  0
 29 28  1  0  0  0  0
 30  1  1  0  0  0  0
 30 29  2  0  0  0  0
 31 30  1  0  0  0  0
 32 26  1  0  0  0  0
 33 27  1  0  0  0  0
 34 35  1  0  0  0  0
 34 38  1  0  0  0  0
 35 36  1  0  0  0  0
 36 37  1  0  0  0  0
 38 37  1  0  0  0  0
M  END
>  <minimizedAffinity>
-6.39943075

$$$$

 OpenBabel03272504293D

 38 41  0  0  0  0  0  0  0  0999 V2000
   35.7200   28.2030   32.3590 C   0  0  0  0  0  0  0  0  0  0  0  0
   35.1470   27.2350   31.6140 C   0  0  0  0  0  0  0  0  0  0  0  0
   35.8850   26.3680   30.9090 C   0  0  0  0  0  0  0  0  0  0  0  0
   37.2400   26.4750   30.9510 N   0  0  0  0  0  0  0  0  0  0  0  0
   37.7930   27.4320   31.6890 C   0  0  0  0  0  0  0  0  0  0  0  0
   37.0600   28.3020   32.3950 N   0  0  0  0  0  0  0  0  0  0  0  0
   34.0640   27.1500   31.5800 H   0  0  0  0  0  0  0  0  0  0  0  0
   35.4090   25.5970   30.3150 H   0  0  0  0  0  0  0  0  0  0  0  0
   39.9400   27.0970   32.8380 C   0  0  0  0  0  0  0  0  0  0  0  0
   39.2420   27.4360   31.6810 C   0  0  0  0  0  0  0  0  0  0  0  0
   39.8410   27.8170   30.4950 C   0  0  0  0  0  0  0  0  0  0  0  0
   41.2170   27.8730   30.4330 C   0  0  0  0  0  0  0  0  0  0  0  0
   41.9900   27.5570   31.5290 C   0  0  0  0  0  0  0  0  0  0  0  0
   41.3110   27.1950   32.6450 C   0  0  0  0  0  0  0  0  0  0  0  0
   39.2570   28.0690   29.6210 H   0  0  0  0  0  0  0  0  0  0  0  0
   41.6880   28.1710   29.5050 H   0  0  0  0  0  0  0  0  0  0  0  0
   43.0580   27.5970   31.4960 H   0  0  0  0  0  0  0  0  0  0  0  0
   41.9360   26.9430   33.5150 H   0  0  0  0  0  0  0  0  0  0  0  0
   39.2500   26.6150   34.2750 S   0  0  0  0  0  0  0  0  0  0  0  0
   40.5160   26.8340   35.1700 O   0  0  0  0  0  0  0  0  0  0  0  0
   38.9860   25.1350   34.1680 O   0  0  0  0  0  0  0  0  0  0  0  0
   38.3580   26.8750   35.5740 C   0  0  0  0  0  0  0  0  0  0  0  0
   38.3350   26.0540   36.7210 F   0  0  0  0  0  0  0  0  0  0  0  0
   36.9590   26.5040   35.2980 F   0  0  0  0  0  0  0  0  0  0  0  0
   37.8600   28.1710   35.8940 F   0  0  0  0  0  0  0  0  0  0  0  0
   32.9810   30.2680   33.6590 C   0  0  0  0  0  0  0  0  0  0  0  0
   33.6050   30.9780   34.7040 C   0  0  0  0  0  0  0  0  0  0  0  0
   34.9530   30.7290   34.9330 C   0  0  0  0  0  0  0  0  0  0  0  0
   35.5800   29.8200   34.1390 N   0  0  0  0  0  0  0  0  0  0  0  0
   34.9440   29.1510   33.1370 C   0  0  0  0  0  0  0  0  0  0  0  0
   33.6490   29.3850   32.9100 N   0  0  0  0  0  0  0  0  0  0  0  0
   31.9320   30.4150   33.4280 H   0  0  0  0  0  0  0  0  0  0  0  0
   33.0350   31.6840   35.2890 H   0  0  0  0  0  0  0  0  0  0  0  0
   35.6600   31.4400   36.0100 C   0  0  0  0  0  3  0  0  0  0  0  0
   34.7220   32.0840   36.9790 C   0  0  0  0  0  2  0  0  0  0  0  0
   34.7230   33.5610   36.6430 C   0  0  0  0  0  2  0  0  0  0  0  0
   35.6460   33.7670   35.4790 C   0  0  0  0  0  2  0  0  0  0  0  0
   36.5320   32.5630   35.4720 C   0  0  0  0  0  2  0  0  0  0  0  0
  1  6  1  0  0  0  0
  1 30  1  0  0  0  0
  2  1  2  0  0  0  0
  3  4  2  0  0  0  0
  3  2  1  0  0  0  0
  4  5  1  0  0  0  0
  5  6  2  0  0  0  0
  7  2  1  0  0  0  0
  8  3  1  0  0  0  0
  9 19  1  0  0  0  0
 10  5  1  0  0  0  0
 10  9  2  0  0  0  0
 11 10  1  0  0  0  0
 12 11  2  0  0  0  0
 12 13  1  0  0  0  0
 13 14  2  0  0  0  0
 14  9  1  0  0  0  0
 14 18  1  0  0  0  0
 15 11  1  0  0  0  0
 16 12  1  0  0  0  0
 17 13  1  0  0  0  0
 19 20  2  0  0  0  0
 19 22  1  0  0  0  0
 21 19  2  0  0  0  0
 22 25  1  0  0  0  0
 22 23  1  0  0  0  0
 24 22  1  0  0  0  0
 26 27  1  0  0  0  0
 27 28  2  0  0  0  0
 27 33  1  0  0  0  0
 28 34  1  0  0  0  0
 29 28  1  0  0  0  0
 30 29  2  0  0  0  0
 31 30  1  0  0  0  0
 31 26  2  0  0  0  0
 32 26  1  0  0  0  0
 34 35  1  0  0  0  0
 36 35  1  0  0  0  0
 37 36  1  0  0  0  0
 38 37  1  0  0  0  0
 38 34  1  0  0  0  0
M  END
>  <minimizedAffinity>
-6.37118292

$$$$

 OpenBabel03272504293D

 38 41  0  0  0  0  0  0  0  0999 V2000
   37.8270   25.8120   32.5030 C   0  0  0  0  0  0  0  0  0  0  0  0
   36.7460   25.0580   32.2130 C   0  0  0  0  0  0  0  0  0  0  0  0
   35.7840   25.5030   31.3950 C   0  0  0  0  0  0  0  0  0  0  0  0
   35.9080   26.7430   30.8500 N   0  0  0  0  0  0  0  0  0  0  0  0
   36.9770   27.4760   31.1420 C   0  0  0  0  0  0  0  0  0  0  0  0
   37.9420   27.0360   31.9600 N   0  0  0  0  0  0  0  0  0  0  0  0
   36.6470   24.0670   32.6480 H   0  0  0  0  0  0  0  0  0  0  0  0
   34.9220   24.8840   31.1720 H   0  0  0  0  0  0  0  0  0  0  0  0
   36.4850   29.8840   31.1270 C   0  0  0  0  0  0  0  0  0  0  0  0
   37.0180   28.7680   30.4870 C   0  0  0  0  0  0  0  0  0  0  0  0
   37.5750   28.7880   29.2220 C   0  0  0  0  0  0  0  0  0  0  0  0
   37.6130   29.9810   28.5320 C   0  0  0  0  0  0  0  0  0  0  0  0
   37.1080   31.1380   29.0850 C   0  0  0  0  0  0  0  0  0  0  0  0
   36.5840   31.0160   30.3300 C   0  0  0  0  0  0  0  0  0  0  0  0
   37.9780   27.8950   28.7660 H   0  0  0  0  0  0  0  0  0  0  0  0
   38.0490   29.9990   27.5410 H   0  0  0  0  0  0  0  0  0  0  0  0
   37.1310   32.0690   28.5610 H   0  0  0  0  0  0  0  0  0  0  0  0
   36.1840   31.9440   30.7630 H   0  0  0  0  0  0  0  0  0  0  0  0
   35.8260   29.8980   32.6570 S   0  0  0  0  0  0  0  0  0  0  0  0
   34.3620   29.5460   32.2310 O   0  0  0  0  0  0  0  0  0  0  0  0
   35.8580   31.3240   33.1420 O   0  0  0  0  0  0  0  0  0  0  0  0
   35.5160   29.2210   34.0700 C   0  0  0  0  0  0  0  0  0  0  0  0
   34.2600   29.2240   34.7130 F   0  0  0  0  0  0  0  0  0  0  0  0
   36.0570   30.0620   35.1520 F   0  0  0  0  0  0  0  0  0  0  0  0
   36.3290   28.1760   34.5940 F   0  0  0  0  0  0  0  0  0  0  0  0
   41.0420   25.4370   34.2280 C   0  0  0  0  0  0  0  0  0  0  0  0
   40.7890   24.3700   35.1130 C   0  0  0  0  0  0  0  0  0  0  0  0
   39.5190   23.8060   35.0920 C   0  0  0  0  0  0  0  0  0  0  0  0
   38.6060   24.3180   34.2230 N   0  0  0  0  0  0  0  0  0  0  0  0
   38.8860   25.3520   33.3810 C   0  0  0  0  0  0  0  0  0  0  0  0
   40.1040   25.8990   33.3950 N   0  0  0  0  0  0  0  0  0  0  0  0
   42.0110   25.9200   34.1940 H   0  0  0  0  0  0  0  0  0  0  0  0
   41.5700   24.0220   35.7720 H   0  0  0  0  0  0  0  0  0  0  0  0
   39.1940   22.6890   35.9930 C   0  0  0  0  0  3  0  0  0  0  0  0
   37.7210   22.4950   36.1520 C   0  0  0  0  0  2  0  0  0  0  0  0
   37.3670   23.0730   37.5060 C   0  0  0  0  0  2  0  0  0  0  0  0
   38.6250   23.6090   38.1200 C   0  0  0  0  0  2  0  0  0  0  0  0
   39.7330   22.9160   37.3960 C   0  0  0  0  0  2  0  0  0  0  0  0
  1 30  1  0  0  0  0
  2  1  1  0  0  0  0
  2  7  1  0  0  0  0
  3  2  2  0  0  0  0
  4  5  2  0  0  0  0
  4  3  1  0  0  0  0
  5  6  1  0  0  0  0
  6  1  2  0  0  0  0
  8  3  1  0  0  0  0
  9 19  1  0  0  0  0
 10  9  1  0  0  0  0
 10  5  1  0  0  0  0
 11 10  2  0  0  0  0
 12 13  2  0  0  0  0
 12 11  1  0  0  0  0
 13 14  1  0  0  0  0
 14 18  1  0  0  0  0
 14  9  2  0  0  0  0
 15 11  1  0  0  0  0
 16 12  1  0  0  0  0
 17 13  1  0  0  0  0
 19 21  2  0  0  0  0
 19 22  1  0  0  0  0
 20 19  2  0  0  0  0
 22 25  1  0  0  0  0
 22 23  1  0  0  0  0
 22 24  1  0  0  0  0
 26 27  1  0  0  0  0
 27 33  1  0  0  0  0
 28 27  2  0  0  0  0
 28 34  1  0  0  0  0
 29 28  1  0  0  0  0
 30 31  1  0  0  0  0
 30 29  2  0  0  0  0
 31 26  2  0  0  0  0
 32 26  1  0  0  0  0
 34 35  1  0  0  0  0
 34 38  1  0  0  0  0
 35 36  1  0  0  0  0
 36 37  1  0  0  0  0
 38 37  1  0  0  0  0
M  END
>  <minimizedAffinity>
-6.37035036

$$$$

 OpenBabel03272504293D

 38 41  0  0  0  0  0  0  0  0999 V2000
   35.9900   28.9330   32.9500 C   0  0  0  0  0  0  0  0  0  0  0  0
   36.5560   29.4940   31.8610 C   0  0  0  0  0  0  0  0  0  0  0  0
   37.1230   28.7470   30.9060 C   0  0  0  0  0  0  0  0  0  0  0  0
   37.1240   27.3950   31.0450 N   0  0  0  0  0  0  0  0  0  0  0  0
   36.5630   26.8520   32.1210 C   0  0  0  0  0  0  0  0  0  0  0  0
   35.9950   27.5950   33.0800 N   0  0  0  0  0  0  0  0  0  0  0  0
   36.5560   30.5750   31.7500 H   0  0  0  0  0  0  0  0  0  0  0  0
   37.5740   29.2150   30.0380 H   0  0  0  0  0  0  0  0  0  0  0  0
   37.4390   24.7540   33.0530 C   0  0  0  0  0  0  0  0  0  0  0  0
   36.5980   25.4040   32.1530 C   0  0  0  0  0  0  0  0  0  0  0  0
   35.7890   24.7580   31.2380 C   0  0  0  0  0  0  0  0  0  0  0  0
   35.8020   23.3800   31.1950 C   0  0  0  0  0  0  0  0  0  0  0  0
   36.6050   22.6510   32.0470 C   0  0  0  0  0  0  0  0  0  0  0  0
   37.3610   23.3760   32.9080 C   0  0  0  0  0  0  0  0  0  0  0  0
   35.1500   25.3070   30.5600 H   0  0  0  0  0  0  0  0  0  0  0  0
   35.1690   22.8720   30.4790 H   0  0  0  0  0  0  0  0  0  0  0  0
   36.6260   21.5830   32.0240 H   0  0  0  0  0  0  0  0  0  0  0  0
   37.9980   22.7860   33.5840 H   0  0  0  0  0  0  0  0  0  0  0  0
   38.4100   25.5010   34.1810 S   0  0  0  0  0  0  0  0  0  0  0  0
   39.7720   24.9360   33.6570 O   0  0  0  0  0  0  0  0  0  0  0  0
   38.1080   24.8710   35.5160 O   0  0  0  0  0  0  0  0  0  0  0  0
   39.2160   26.7610   34.7430 C   0  0  0  0  0  0  0  0  0  0  0  0
   38.6470   27.8330   35.4630 F   0  0  0  0  0  0  0  0  0  0  0  0
   39.5250   27.6850   33.6380 F   0  0  0  0  0  0  0  0  0  0  0  0
   40.6200   26.7090   34.9760 F   0  0  0  0  0  0  0  0  0  0  0  0
   35.4080   31.3010   35.6900 C   0  0  0  0  0  0  0  0  0  0  0  0
   34.0310   31.1400   35.9440 C   0  0  0  0  0  0  0  0  0  0  0  0
   33.3390   30.2200   35.1650 C   0  0  0  0  0  0  0  0  0  0  0  0
   34.0310   29.5370   34.2140 N   0  0  0  0  0  0  0  0  0  0  0  0
   35.3640   29.7190   33.9960 C   0  0  0  0  0  0  0  0  0  0  0  0
   36.0360   30.6010   34.7390 N   0  0  0  0  0  0  0  0  0  0  0  0
   36.0060   32.0020   36.2600 H   0  0  0  0  0  0  0  0  0  0  0  0
   33.5570   31.7220   36.7180 H   0  0  0  0  0  0  0  0  0  0  0  0
   31.8990   30.0080   35.3830 C   0  0  0  0  0  3  0  0  0  0  0  0
   31.4980   30.2390   36.8040 C   0  0  0  0  0  2  0  0  0  0  0  0
   31.3140   28.8660   37.4160 C   0  0  0  0  0  2  0  0  0  0  0  0
   31.6200   27.8480   36.3580 C   0  0  0  0  0  2  0  0  0  0  0  0
   31.4800   28.5820   35.0640 C   0  0  0  0  0  2  0  0  0  0  0  0
  1  6  1  0  0  0  0
  1 30  1  0  0  0  0
  2  1  2  0  0  0  0
  3  4  2  0  0  0  0
  3  2  1  0  0  0  0
  4  5  1  0  0  0  0
  5 10  1  0  0  0  0
  5  6  2  0  0  0  0
  7  2  1  0  0  0  0
  8  3  1  0  0  0  0
  9 19  1  0  0  0  0
 10  9  2  0  0  0  0
 11 10  1  0  0  0  0
 12 11  2  0  0  0  0
 12 13  1  0  0  0  0
 13 14  2  0  0  0  0
 14  9  1  0  0  0  0
 14 18  1  0  0  0  0
 15 11  1  0  0  0  0
 16 12  1  0  0  0  0
 17 13  1  0  0  0  0
 19 22  1  0  0  0  0
 19 21  2  0  0  0  0
 20 19  2  0  0  0  0
 22 25  1  0  0  0  0
 22 23  1  0  0  0  0
 24 22  1  0  0  0  0
 26 27  1  0  0  0  0
 26 32  1  0  0  0  0
 27 33  1  0  0  0  0
 28 34  1  0  0  0  0
 28 27  2  0  0  0  0
 29 28  1  0  0  0  0
 30 29  2  0  0  0  0
 30 31  1  0  0  0  0
 31 26  2  0  0  0  0
 34 35  1  0  0  0  0
 35 36  1  0  0  0  0
 37 36  1  0  0  0  0
 38 34  1  0  0  0  0
 38 37  1  0  0  0  0
M  END
>  <minimizedAffinity>
-6.2983551

$$$$

 OpenBabel03272504293D

 38 41  0  0  0  0  0  0  0  0999 V2000
   37.1230   27.9690   31.5870 C   0  0  0  0  0  0  0  0  0  0  0  0
   38.1670   28.0750   30.7390 C   0  0  0  0  0  0  0  0  0  0  0  0
   38.9720   27.0340   30.4910 C   0  0  0  0  0  0  0  0  0  0  0  0
   38.7240   25.8500   31.1120 N   0  0  0  0  0  0  0  0  0  0  0  0
   37.6920   25.7580   31.9450 C   0  0  0  0  0  0  0  0  0  0  0  0
   36.8840   26.7960   32.1970 N   0  0  0  0  0  0  0  0  0  0  0  0
   38.3660   29.0210   30.2430 H   0  0  0  0  0  0  0  0  0  0  0  0
   39.8070   27.1360   29.8070 H   0  0  0  0  0  0  0  0  0  0  0  0
   38.1080   24.1410   33.7480 C   0  0  0  0  0  0  0  0  0  0  0  0
   37.5060   24.4450   32.5290 C   0  0  0  0  0  0  0  0  0  0  0  0
   36.7450   23.5560   31.7950 C   0  0  0  0  0  0  0  0  0  0  0  0
   36.5580   22.2800   32.2810 C   0  0  0  0  0  0  0  0  0  0  0  0
   37.1180   21.8880   33.4780 C   0  0  0  0  0  0  0  0  0  0  0  0
   37.8460   22.8310   34.1250 C   0  0  0  0  0  0  0  0  0  0  0  0
   36.2950   23.8400   30.8530 H   0  0  0  0  0  0  0  0  0  0  0  0
   35.9610   21.5830   31.7060 H   0  0  0  0  0  0  0  0  0  0  0  0
   36.9820   20.9020   33.8660 H   0  0  0  0  0  0  0  0  0  0  0  0
   38.2880   22.5090   35.0790 H   0  0  0  0  0  0  0  0  0  0  0  0
   39.0140   25.1930   34.6680 S   0  0  0  0  0  0  0  0  0  0  0  0
   40.4040   24.8360   34.0430 O   0  0  0  0  0  0  0  0  0  0  0  0
   38.9790   24.6880   36.0870 O   0  0  0  0  0  0  0  0  0  0  0  0
   39.5990   26.6430   34.9960 C   0  0  0  0  0  0  0  0  0  0  0  0
   38.8810   27.6860   35.6170 F   0  0  0  0  0  0  0  0  0  0  0  0
   39.6650   27.4420   33.7600 F   0  0  0  0  0  0  0  0  0  0  0  0
   40.9990   26.8760   35.1180 F   0  0  0  0  0  0  0  0  0  0  0  0
   34.8670   30.8390   31.2280 C   0  0  0  0  0  0  0  0  0  0  0  0
   34.5550   31.1510   32.5660 C   0  0  0  0  0  0  0  0  0  0  0  0
   35.1300   30.3650   33.5580 C   0  0  0  0  0  0  0  0  0  0  0  0
   35.9530   29.3510   33.1750 N   0  0  0  0  0  0  0  0  0  0  0  0
   36.2320   29.0790   31.8690 C   0  0  0  0  0  0  0  0  0  0  0  0
   35.6830   29.8290   30.9100 N   0  0  0  0  0  0  0  0  0  0  0  0
   34.4520   31.4120   30.4060 H   0  0  0  0  0  0  0  0  0  0  0  0
   33.8920   31.9730   32.7850 H   0  0  0  0  0  0  0  0  0  0  0  0
   34.8430   30.6410   34.9740 C   0  0  0  0  0  3  0  0  0  0  0  0
   33.9220   31.8040   35.1520 C   0  0  0  0  0  2  0  0  0  0  0  0
   34.7930   32.9640   35.5900 C   0  0  0  0  0  2  0  0  0  0  0  0
   36.2090   32.4760   35.6520 C   0  0  0  0  0  2  0  0  0  0  0  0
   36.1010   30.9890   35.7530 C   0  0  0  0  0  2  0  0  0  0  0  0
  1 30  1  0  0  0  0
  1  6  1  0  0  0  0
  2  1  2  0  0  0  0
  3  2  1  0  0  0  0
  3  4  2  0  0  0  0
  4  5  1  0  0  0  0
  5  6  2  0  0  0  0
  5 10  1  0  0  0  0
  7  2  1  0  0  0  0
  8  3  1  0  0  0  0
  9 14  1  0  0  0  0
  9 19  1  0  0  0  0
 10  9  2  0  0  0  0
 11 12  2  0  0  0  0
 11 10  1  0  0  0  0
 12 13  1  0  0  0  0
 13 17  1  0  0  0  0
 13 14  2  0  0  0  0
 14 18  1  0  0  0  0
 15 11  1  0  0  0  0
 16 12  1  0  0  0  0
 19 22  1  0  0  0  0
 19 21  2  0  0  0  0
 20 19  2  0  0  0  0
 22 25  1  0  0  0  0
 22 23  1  0  0  0  0
 24 22  1  0  0  0  0
 26 27  1  0  0  0  0
 27 33  1  0  0  0  0
 27 28  2  0  0  0  0
 28 34  1  0  0  0  0
 29 28  1  0  0  0  0
 30 29  2  0  0  0  0
 31 26  2  0  0  0  0
 31 30  1  0  0  0  0
 32 26  1  0  0  0  0
 34 35  1  0  0  0  0
 34 38  1  0  0  0  0
 35 36  1  0  0  0  0
 36 37  1  0  0  0  0
 37 38  1  0  0  0  0
M  END
>  <minimizedAffinity>
-6.24743414

$$$$
