
 OpenBabel03272506183D

 30 32  0  0  0  0  0  0  0  0999 V2000
   35.4870   30.2710   49.6370 C   0  0  0  0  0  0  0  0  0  0  0  0
   36.4500   31.0730   48.7830 C   0  0  0  0  0  0  0  0  0  0  0  0
   37.8870   30.7030   49.0080 C   0  0  0  0  0  0  0  0  0  0  0  0
   38.2730   30.8250   50.4570 C   0  0  0  0  0  0  0  0  0  0  0  0
   37.2730   30.2100   51.3940 C   0  0  0  0  0  0  0  0  0  0  0  0
   36.1750   29.4540   50.6770 C   0  0  0  0  0  0  0  0  0  0  0  0
   34.7380   30.9730   50.0550 H   0  0  0  0  0  0  0  0  0  0  0  0
   36.3600   32.1450   49.0520 H   0  0  0  0  0  0  0  0  0  0  0  0
   36.2230   30.9800   47.7060 H   0  0  0  0  0  0  0  0  0  0  0  0
   38.0410   29.6520   48.6510 H   0  0  0  0  0  0  0  0  0  0  0  0
   38.5020   31.3770   48.4060 H   0  0  0  0  0  0  0  0  0  0  0  0
   38.2920   31.9260   50.6710 H   0  0  0  0  0  0  0  0  0  0  0  0
   39.2950   30.4430   50.5880 H   0  0  0  0  0  0  0  0  0  0  0  0
   36.7700   30.9660   52.0320 H   0  0  0  0  0  0  0  0  0  0  0  0
   37.7870   29.4930   52.0640 H   0  0  0  0  0  0  0  0  0  0  0  0
   35.4660   29.1270   51.4450 H   0  0  0  0  0  0  0  0  0  0  0  0
   36.6740   28.5870   50.1630 H   0  0  0  0  0  0  0  0  0  0  0  0
   34.7140   29.3320   48.7660 C   0  0  0  0  0  0  0  0  0  0  0  0
   34.1150   29.9090   47.6320 C   0  0  0  0  0  0  0  0  0  0  0  0
   33.3750   29.0380   46.8110 C   0  0  0  0  0  0  0  0  0  0  0  0
   33.2720   27.7040   47.1420 N   0  0  0  0  0  0  0  0  0  0  0  0
   33.8800   27.2020   48.2620 C   0  0  0  0  0  0  0  0  0  0  0  0
   34.5830   28.0140   49.0490 N   0  0  0  0  0  0  0  0  0  0  0  0
   34.1550   30.9280   47.3250 H   0  0  0  0  0  0  0  0  0  0  0  0
   33.8160   26.1760   48.5380 H   0  0  0  0  0  0  0  0  0  0  0  0
   32.6820   29.4390   45.5960 C   0  0  0  0  0  3  0  0  0  0  0  0
   33.4670   30.4700   44.7750 C   0  0  0  0  0  2  0  0  0  0  0  0
   32.4550   30.6240   43.6310 C   0  0  0  0  0  2  0  0  0  0  0  0
   31.1570   30.7380   44.3940 C   0  0  0  0  0  2  0  0  0  0  0  0
   31.3940   30.1720   45.7810 C   0  0  0  0  0  2  0  0  0  0  0  0
  1  7  1  0  0  0  0
  1  6  1  0  0  0  0
  2  3  1  0  0  0  0
  2  8  1  0  0  0  0
  2  1  1  0  0  0  0
  3  4  1  0  0  0  0
  4 13  1  0  0  0  0
  4 12  1  0  0  0  0
  4  5  1  0  0  0  0
  5 14  1  0  0  0  0
  5 15  1  0  0  0  0
  6  5  1  0  0  0  0
  6 16  1  0  0  0  0
  9  2  1  0  0  0  0
 10  3  1  0  0  0  0
 11  3  1  0  0  0  0
 17  6  1  0  0  0  0
 18 23  1  0  0  0  0
 18  1  1  0  0  0  0
 19 18  2  0  0  0  0
 20 21  2  0  0  0  0
 20 19  1  0  0  0  0
 21 22  1  0  0  0  0
 22 25  1  0  0  0  0
 22 23  2  0  0  0  0
 24 19  1  0  0  0  0
 26 30  1  0  0  0  0
 26 20  1  0  0  0  0
 27 26  1  0  0  0  0
 28 29  1  0  0  0  0
 28 27  1  0  0  0  0
 29 30  1  0  0  0  0
M  END
>  <minimizedAffinity>
-5.17165518

>  <minimizedRMSD>
0.252228796

$$$$
