
     RDKit          3D

 24 25  0  0  0  0  0  0  0  0999 V2000
   37.2955   29.9883   51.1839 C   0  0  0  0  0  0  0  0  0  0  0  0
   37.9357   30.9082   50.3546 C   0  0  0  0  0  0  0  0  0  0  0  0
   37.2831   31.3928   49.2320 C   0  0  0  0  0  0  0  0  0  0  0  0
   36.0240   30.9279   49.0029 N   0  0  0  0  0  0  0  0  0  0  0  0
   35.4131   30.0357   49.8142 C   0  0  0  0  0  0  0  0  0  0  0  0
   36.0466   29.5699   50.8977 N   0  0  0  0  0  0  0  0  0  0  0  0
   38.0960   29.6211   52.2467 O   0  0  0  0  0  0  0  0  0  0  0  0
   37.6473   32.0887   48.5214 H   0  0  0  0  0  0  0  0  0  0  0  0
   34.4073   29.6766   49.6142 H   0  0  0  0  0  0  0  0  0  0  0  0
   38.9073   29.0487   52.1749 H   0  0  0  0  0  0  0  0  0  0  0  0
   39.3118   31.4416   50.5701 C   0  0  0  0  0  0  0  0  0  0  0  0
   39.5384   32.6543   49.7194 C   0  0  0  0  0  0  0  0  0  0  0  0
   40.0841   33.7323   50.5956 C   0  0  0  0  0  0  0  0  0  0  0  0
   39.7155   33.3029   51.9935 C   0  0  0  0  0  0  0  0  0  0  0  0
   39.5669   31.8129   51.9846 C   0  0  0  0  0  0  0  0  0  0  0  0
   39.9918   30.6245   50.1999 H   0  0  0  0  0  0  0  0  0  0  0  0
   40.2274   32.4489   48.8711 H   0  0  0  0  0  0  0  0  0  0  0  0
   38.5667   33.0102   49.2835 H   0  0  0  0  0  0  0  0  0  0  0  0
   39.6263   34.7220   50.4098 H   0  0  0  0  0  0  0  0  0  0  0  0
   41.1857   33.7151   50.4781 H   0  0  0  0  0  0  0  0  0  0  0  0
   40.5151   33.6456   52.7053 H   0  0  0  0  0  0  0  0  0  0  0  0
   38.8067   33.8383   52.3189 H   0  0  0  0  0  0  0  0  0  0  0  0
   40.5456   31.3636   52.2919 H   0  0  0  0  0  0  0  0  0  0  0  0
   38.8399   31.4231   52.7185 H   0  0  0  0  0  0  0  0  0  0  0  0
  1  7  1  0
  2  1  2  0
  3  2  1  0
  4  3  2  0
  4  5  1  0
  5  6  2  0
  6  1  1  0
  3  8  1  0
  5  9  1  0
  7 10  1  0
 11 12  1  0
 12 13  1  0
 13 14  1  0
 14 15  1  0
 15 11  1  0
 11 16  1  0
 12 17  1  0
 12 18  1  0
 13 19  1  0
 13 20  1  0
 14 21  1  0
 14 22  1  0
 15 23  1  0
 15 24  1  0
  2 11  1  0
M  ISO  3   8  14   9  14  10   3
M  END
>  <DihAtoms>  (1) 
0,1,10,11

>  <DihDeg>  (1) 
90.00071310431238

$$$$
