
 OpenBabel03272510273D

 41 45  0  0  1  0  0  0  0  0999 V2000
   35.9560   30.1510   46.9800 C   0  0  0  0  0  0  0  0  0  0  0  0
   36.9120   30.6780   47.8450 C   0  0  0  0  0  0  0  0  0  0  0  0
   37.9110   31.5380   47.3800 C   0  0  0  0  0  0  0  0  0  0  0  0
   37.8920   31.8300   46.0200 C   0  0  0  0  0  0  0  0  0  0  0  0
   38.7520   32.6390   45.3350 N   0  0  0  0  0  0  0  0  0  0  0  0
   38.3480   32.6240   44.0570 C   0  0  0  0  0  0  0  0  0  0  0  0
   37.2850   31.8450   43.9340 N   0  0  0  0  0  0  0  0  0  0  0  0
   36.9670   31.3310   45.1350 C   0  0  0  0  0  0  0  0  0  0  0  0
   35.9810   30.4720   45.6340 C   0  0  0  0  0  0  0  0  0  0  0  0
   35.1810   29.4840   47.3380 H   0  0  0  0  0  0  0  0  0  0  0  0
   38.6620   31.9560   48.0470 H   0  0  0  0  0  0  0  0  0  0  0  0
   39.5740   33.1710   45.7320 H   0  0  0  0  0  0  0  0  0  0  0  0
   35.2530   30.0790   44.9350 H   0  0  0  0  0  0  0  0  0  0  0  0
   37.5740   30.1550   51.4970 C   0  0  0  0  0  0  0  0  0  0  0  0
   37.8070   30.5780   50.2020 C   0  0  0  0  0  0  0  0  0  0  0  0
   36.8490   30.3160   49.2490 C   0  0  0  0  0  0  0  0  0  0  0  0
   35.7140   29.6440   49.6570 N   0  0  0  0  0  0  0  0  0  0  0  0
   35.5090   29.2410   50.9270 C   0  0  0  0  0  0  0  0  0  0  0  0
   36.4300   29.4950   51.8300 N   0  0  0  0  0  0  0  0  0  0  0  0
   38.3810   30.4030   52.1840 H   0  0  0  0  0  0  0  0  0  0  0  0
   38.6900   31.1040   49.8700 H   0  0  0  0  0  0  0  0  0  0  0  0
   34.5960   28.7180   51.1770 H   0  0  0  0  0  0  0  0  0  0  0  0
   39.0000   33.3460   43.0560 O   0  0  0  0  0  0  0  0  0  0  0  0
   39.3690   31.1800   42.3550 N   0  0  0  0  0  0  0  0  0  0  0  0
   39.5110   32.5780   41.9770 C   0  0  1  0  0  0  0  0  0  0  0  0
   38.7790   32.8500   40.7500 C   0  0  0  0  0  0  0  0  0  0  0  0
   39.3380   32.0850   39.7120 O   0  0  0  0  0  0  0  0  0  0  0  0
   39.4070   30.7410   39.9470 C   0  0  0  0  0  0  0  0  0  0  0  0
   40.0400   30.4640   41.2980 C   0  0  2  0  0  0  0  0  0  0  0  0
   38.4380   30.7940   42.3880 H   0  0  0  0  0  0  0  0  0  0  0  0
   40.5900   32.7580   41.8400 H   0  0  0  0  0  0  0  0  0  0  0  0
   39.0300   33.9120   40.4410 H   0  0  0  0  0  0  0  0  0  0  0  0
   37.7380   32.7390   40.6150 H   0  0  0  0  0  0  0  0  0  0  0  0
   38.3860   30.3370   39.8720 H   0  0  0  0  0  0  0  0  0  0  0  0
   40.0840   30.3060   39.2010 H   0  0  0  0  0  0  0  0  0  0  0  0
   41.0520   30.9300   41.2310 H   0  0  0  0  0  0  0  0  0  0  0  0
   40.2530   29.0250   41.5700 C   0  0  0  0  0  3  0  0  0  0  0  0
   39.5920   28.1530   40.5340 C   0  0  0  0  0  2  0  0  0  0  0  0
   39.8800   26.7740   41.1430 C   0  0  0  0  0  2  0  0  0  0  0  0
   39.4640   27.0110   42.5780 C   0  0  0  0  0  2  0  0  0  0  0  0
   39.6390   28.5130   42.8350 C   0  0  0  0  0  2  0  0  0  0  0  0
  1 10  1  0  0  0  0
  1  2  1  0  0  0  0
  2 16  1  0  0  0  0
  3  2  2  0  0  0  0
  3 11  1  0  0  0  0
  4  3  1  0  0  0  0
  5 12  1  0  0  0  0
  5  4  1  0  0  0  0
  6  5  1  0  0  0  0
  7  6  2  0  0  0  0
  7  8  1  0  0  0  0
  8  9  1  0  0  0  0
  8  4  2  0  0  0  0
  9  1  2  0  0  0  0
 13  9  1  0  0  0  0
 14 19  1  0  0  0  0
 14 20  1  0  0  0  0
 15 14  2  0  0  0  0
 16 17  2  0  0  0  0
 16 15  1  0  0  0  0
 17 18  1  0  0  0  0
 18 22  1  0  0  0  0
 18 19  2  0  0  0  0
 21 15  1  0  0  0  0
 23  6  1  0  0  0  0
 24 30  1  0  0  0  0
 25 31  1  6  0  0  0
 25 24  1  0  0  0  0
 25 23  1  0  0  0  0
 26 25  1  0  0  0  0
 27 28  1  0  0  0  0
 27 26  1  0  0  0  0
 28 29  1  0  0  0  0
 29 36  1  6  0  0  0
 29 37  1  0  0  0  0
 29 24  1  0  0  0  0
 32 26  1  0  0  0  0
 33 26  1  0  0  0  0
 34 28  1  0  0  0  0
 35 28  1  0  0  0  0
 37 41  1  0  0  0  0
 38 39  1  0  0  0  0
 38 37  1  0  0  0  0
 39 40  1  0  0  0  0
 40 41  1  0  0  0  0
M  END
>  <minimizedAffinity>
-5.90787172

>  <minimizedRMSD>
1.33390367

$$$$
