
 OpenBabel03272510343D

 24 26  0  0  0  0  0  0  0  0999 V2000
   36.7310   30.5450   46.3280 C   0  0  0  0  0  0  0  0  0  0  0  0
   35.8370   30.4410   45.2860 C   0  0  0  0  0  0  0  0  0  0  0  0
   34.5530   29.9750   45.5350 C   0  0  0  0  0  0  0  0  0  0  0  0
   34.1990   29.6260   46.8130 C   0  0  0  0  0  0  0  0  0  0  0  0
   35.0970   29.7280   47.8670 C   0  0  0  0  0  0  0  0  0  0  0  0
   36.4000   30.1950   47.6470 C   0  0  0  0  0  0  0  0  0  0  0  0
   36.1000   30.7130   44.2710 H   0  0  0  0  0  0  0  0  0  0  0  0
   33.8390   29.8860   44.7390 H   0  0  0  0  0  0  0  0  0  0  0  0
   33.1750   29.2620   46.9640 H   0  0  0  0  0  0  0  0  0  0  0  0
   34.7350   29.4320   48.8370 H   0  0  0  0  0  0  0  0  0  0  0  0
   39.5330   32.8630   45.9810 C   0  0  0  0  0  0  0  0  0  0  0  0
   40.5600   32.0930   45.4430 C   0  0  0  0  0  0  0  0  0  0  0  0
   40.2740   30.7190   45.1890 C   0  0  0  0  0  0  0  0  0  0  0  0
   39.0360   30.2450   45.4820 N   0  0  0  0  0  0  0  0  0  0  0  0
   38.0660   31.0370   46.0060 C   0  0  0  0  0  0  0  0  0  0  0  0
   38.3490   32.3250   46.2390 N   0  0  0  0  0  0  0  0  0  0  0  0
   39.8070   33.8930   46.1510 H   0  0  0  0  0  0  0  0  0  0  0  0
   41.5710   32.3800   45.1800 H   0  0  0  0  0  0  0  0  0  0  0  0
   40.9610   30.0060   44.7790 H   0  0  0  0  0  0  0  0  0  0  0  0
   37.3460   30.3040   48.7610 C   0  0  0  0  0  3  0  0  0  0  0  0
   37.1770   31.5020   49.6350 C   0  0  0  0  0  2  0  0  0  0  0  0
   37.2430   31.0200   51.0860 C   0  0  0  0  0  2  0  0  0  0  0  0
   36.6270   29.6480   50.9770 C   0  0  0  0  0  2  0  0  0  0  0  0
   37.2100   29.1210   49.7030 C   0  0  0  0  0  2  0  0  0  0  0  0
  1  6  1  0  0  0  0
  2  3  1  0  0  0  0
  2  1  2  0  0  0  0
  3  4  2  0  0  0  0
  4  9  1  0  0  0  0
  4  5  1  0  0  0  0
  5 10  1  0  0  0  0
  6  5  2  0  0  0  0
  6 20  1  0  0  0  0
  7  2  1  0  0  0  0
  8  3  1  0  0  0  0
 11 17  1  0  0  0  0
 11 16  1  0  0  0  0
 12 11  2  0  0  0  0
 13 12  1  0  0  0  0
 13 14  2  0  0  0  0
 14 15  1  0  0  0  0
 15 16  2  0  0  0  0
 15  1  1  0  0  0  0
 18 12  1  0  0  0  0
 19 13  1  0  0  0  0
 20 21  1  0  0  0  0
 20 24  1  0  0  0  0
 21 22  1  0  0  0  0
 23 22  1  0  0  0  0
 24 23  1  0  0  0  0
M  END
>  <minimizedAffinity>
-5.49466133

>  <minimizedRMSD>
2.63828278

$$$$
