
     RDKit          3D

 47 50  0  0  0  0  0  0  0  0999 V2000
   34.9857   28.3985   49.4537 C   0  0  0  0  0  0  0  0  0  0  0  0
   34.2842   28.7634   48.4319 C   0  0  0  0  0  0  0  0  0  0  0  0
   37.3928   30.1547   51.5652 C   0  0  0  0  0  0  0  0  0  0  0  0
   38.0977   30.9239   50.6262 C   0  0  0  0  0  0  0  0  0  0  0  0
   37.7198   30.8169   49.2650 C   0  0  0  0  0  0  0  0  0  0  0  0
   36.6896   29.9689   48.9499 N   0  0  0  0  0  0  0  0  0  0  0  0
   36.0579   29.2588   49.9185 C   0  0  0  0  0  0  0  0  0  0  0  0
   36.4087   29.3545   51.2044 N   0  0  0  0  0  0  0  0  0  0  0  0
   38.3780   31.5662   48.1989 C   0  0  0  0  0  0  0  0  0  0  0  0
   38.5868   31.0405   46.9493 C   0  0  0  0  0  0  0  0  0  0  0  0
   39.2349   32.0194   46.1872 C   0  0  0  0  0  0  0  0  0  0  0  0
   39.3924   33.0950   47.0019 N   0  0  0  0  0  0  0  0  0  0  0  0
   38.8777   32.8194   48.2062 N   0  0  0  0  0  0  0  0  0  0  0  0
   33.1634   28.0412   47.8088 C   0  0  0  0  0  0  0  0  0  0  0  0
   33.6037   26.9387   46.8981 C   0  0  0  0  0  0  0  0  0  0  0  0
   33.7936   25.6263   47.3227 C   0  0  0  0  0  0  0  0  0  0  0  0
   34.1995   24.6493   46.4448 C   0  0  0  0  0  0  0  0  0  0  0  0
   34.4288   24.9498   45.1169 C   0  0  0  0  0  0  0  0  0  0  0  0
   34.2436   26.2321   44.7010 C   0  0  0  0  0  0  0  0  0  0  0  0
   33.8364   27.2246   45.5693 C   0  0  0  0  0  0  0  0  0  0  0  0
   34.7204   27.4383   49.9169 H   0  0  0  0  0  0  0  0  0  0  0  0
   34.5600   29.7144   47.9870 H   0  0  0  0  0  0  0  0  0  0  0  0
   37.7584   30.3111   52.5591 H   0  0  0  0  0  0  0  0  0  0  0  0
   38.9164   31.6091   50.8074 H   0  0  0  0  0  0  0  0  0  0  0  0
   38.3033   30.0381   46.5972 H   0  0  0  0  0  0  0  0  0  0  0  0
   39.5240   31.8875   45.1683 H   0  0  0  0  0  0  0  0  0  0  0  0
   39.8593   33.9594   46.6426 H   0  0  0  0  0  0  0  0  0  0  0  0
   32.6409   27.5030   48.6442 H   0  0  0  0  0  0  0  0  0  0  0  0
   32.4220   28.6833   47.3350 H   0  0  0  0  0  0  0  0  0  0  0  0
   33.5858   25.4998   48.3839 H   0  0  0  0  0  0  0  0  0  0  0  0
   34.2945   23.6960   46.9470 H   0  0  0  0  0  0  0  0  0  0  0  0
   34.7403   24.1056   44.5355 H   0  0  0  0  0  0  0  0  0  0  0  0
   34.4385   26.4065   43.6510 H   0  0  0  0  0  0  0  0  0  0  0  0
   33.6783   28.5601   44.9773 C   0  0  0  0  0  0  0  0  0  0  0  0
   34.6157   29.5007   45.6920 C   0  0  0  0  0  0  0  0  0  0  0  0
   33.7232   30.2694   46.6402 C   0  0  0  0  0  0  0  0  0  0  0  0
   32.3624   30.2959   46.0206 C   0  0  0  0  0  0  0  0  0  0  0  0
   32.3076   29.1389   45.0609 C   0  0  0  0  0  0  0  0  0  0  0  0
   33.9801   28.5547   43.9234 H   0  0  0  0  0  0  0  0  0  0  0  0
   35.4001   28.9650   46.2836 H   0  0  0  0  0  0  0  0  0  0  0  0
   35.1502   30.1994   45.0250 H   0  0  0  0  0  0  0  0  0  0  0  0
   33.6984   29.7414   47.6226 H   0  0  0  0  0  0  0  0  0  0  0  0
   34.1016   31.3085   46.7192 H   0  0  0  0  0  0  0  0  0  0  0  0
   32.1880   31.2881   45.5268 H   0  0  0  0  0  0  0  0  0  0  0  0
   31.6158   30.1364   46.8451 H   0  0  0  0  0  0  0  0  0  0  0  0
   31.5014   28.4223   45.3112 H   0  0  0  0  0  0  0  0  0  0  0  0
   31.9765   29.5774   44.0738 H   0  0  0  0  0  0  0  0  0  0  0  0
  1  7  1  0
  2  1  2  0
  4  3  2  0
  5  4  1  0
  6  5  2  0
  6  7  1  0
  7  8  2  0
  8  3  1  0
  9  5  1  0
 10  9  1  0
 11 10  2  0
 11 12  1  0
 12 13  1  0
 13  9  2  0
 14  2  1  0
 15 16  2  0
 15 14  1  0
 17 16  1  0
 18 17  2  0
 19 18  1  0
 19 20  2  0
 20 15  1  0
  1 21  1  0
  2 22  1  0
  3 23  1  0
  4 24  1  0
 10 25  1  0
 11 26  1  0
 12 27  1  0
 14 28  1  0
 14 29  1  0
 16 30  1  0
 17 31  1  0
 18 32  1  0
 19 33  1  0
 34 35  1  0
 35 36  1  0
 36 37  1  0
 37 38  1  0
 38 34  1  0
 34 39  1  0
 35 40  1  0
 35 41  1  0
 36 42  1  0
 36 43  1  0
 37 44  1  0
 37 45  1  0
 38 46  1  0
 38 47  1  0
 20 34  1  0
M  ISO  8  23  14  24  14  25  14  26  14  27   9  28   8  29   8  30  14
M  ISO  3  31  14  32  14  33  14
M  END
>  <DihAtoms>  (1) 
18,19,33,34

>  <DihDeg>  (1) 
89.92907582780855

$$$$
