
 OpenBabel03272508503D

 36 40  0  0  0  0  0  0  0  0999 V2000
   37.8230   26.5170   33.9190 C   0  0  0  0  0  0  0  0  0  0  0  0
   38.2020   27.4190   34.9130 C   0  0  0  0  0  0  0  0  0  0  0  0
   39.1960   26.7380   35.6120 C   0  0  0  0  0  0  0  0  0  0  0  0
   39.3700   25.5050   35.0370 C   0  0  0  0  0  0  0  0  0  0  0  0
   38.5290   25.4020   34.0190 O   0  0  0  0  0  0  0  0  0  0  0  0
   37.8020   28.4010   35.0750 H   0  0  0  0  0  0  0  0  0  0  0  0
   39.7400   27.1310   36.4750 H   0  0  0  0  0  0  0  0  0  0  0  0
   41.5630   24.4020   34.8570 C   0  0  0  0  0  0  0  0  0  0  0  0
   40.3050   24.4690   35.4490 C   0  0  0  0  0  0  0  0  0  0  0  0
   39.9370   23.5580   36.4280 C   0  0  0  0  0  0  0  0  0  0  0  0
   40.8140   22.5670   36.8320 C   0  0  0  0  0  0  0  0  0  0  0  0
   40.7460   21.5630   37.7340 N   0  0  0  0  0  0  0  0  0  0  0  0
   41.9020   20.9200   37.6910 N   0  0  0  0  0  0  0  0  0  0  0  0
   42.7100   21.4940   36.7770 C   0  0  0  0  0  0  0  0  0  0  0  0
   42.0320   22.5610   36.2050 C   0  0  0  0  0  0  0  0  0  0  0  0
   42.4740   23.4170   35.2360 C   0  0  0  0  0  0  0  0  0  0  0  0
   41.8470   25.1240   34.0850 H   0  0  0  0  0  0  0  0  0  0  0  0
   38.9630   23.5930   36.9010 H   0  0  0  0  0  0  0  0  0  0  0  0
   39.9010   21.3930   38.3190 H   0  0  0  0  0  0  0  0  0  0  0  0
   43.7150   21.1290   36.5730 H   0  0  0  0  0  0  0  0  0  0  0  0
   43.4570   23.3440   34.7900 H   0  0  0  0  0  0  0  0  0  0  0  0
   36.7990   26.7900   32.9290 C   0  0  0  0  0  0  0  0  0  0  0  0
   36.3080   25.8370   32.3020 O   0  0  0  0  0  0  0  0  0  0  0  0
   36.0920   29.9100   31.1800 C   0  0  0  0  0  0  0  0  0  0  0  0
   35.6350   30.7450   32.1780 C   0  0  0  0  0  0  0  0  0  0  0  0
   35.5570   30.2660   33.4680 C   0  0  0  0  0  0  0  0  0  0  0  0
   35.9360   28.9880   33.6950 N   0  0  0  0  0  0  0  0  0  0  0  0
   36.3820   28.1820   32.7050 C   0  0  0  0  0  0  0  0  0  0  0  0
   36.4580   28.6510   31.4450 N   0  0  0  0  0  0  0  0  0  0  0  0
   36.1510   30.2910   30.1710 H   0  0  0  0  0  0  0  0  0  0  0  0
   35.3340   31.7720   31.9740 H   0  0  0  0  0  0  0  0  0  0  0  0
   35.0790   31.1270   34.5330 C   0  0  0  0  0  3  0  0  0  0  0  0
   33.7940   30.5980   35.1800 C   0  0  0  0  0  2  0  0  0  0  0  0
   33.7110   31.4060   36.4580 C   0  0  0  0  0  2  0  0  0  0  0  0
   35.0580   32.0580   36.6710 C   0  0  0  0  0  2  0  0  0  0  0  0
   35.9500   31.2640   35.7360 C   0  0  0  0  0  2  0  0  0  0  0  0
  1  5  1  0  0  0  0
  1  2  2  0  0  0  0
  2  6  1  0  0  0  0
  2  3  1  0  0  0  0
  3  7  1  0  0  0  0
  4  9  1  0  0  0  0
  4  3  2  0  0  0  0
  5  4  1  0  0  0  0
  8 16  2  0  0  0  0
  8  9  1  0  0  0  0
  9 10  2  0  0  0  0
 10 11  1  0  0  0  0
 10 18  1  0  0  0  0
 11 12  1  0  0  0  0
 12 19  1  0  0  0  0
 13 12  1  0  0  0  0
 14 13  2  0  0  0  0
 15 14  1  0  0  0  0
 15 11  2  0  0  0  0
 16 15  1  0  0  0  0
 17  8  1  0  0  0  0
 20 14  1  0  0  0  0
 21 16  1  0  0  0  0
 22  1  1  0  0  0  0
 23 22  2  0  0  0  0
 24 29  2  0  0  0  0
 24 25  1  0  0  0  0
 25 26  2  0  0  0  0
 26 27  1  0  0  0  0
 26 32  1  0  0  0  0
 28 22  1  0  0  0  0
 28 27  2  0  0  0  0
 29 28  1  0  0  0  0
 30 24  1  0  0  0  0
 31 25  1  0  0  0  0
 32 33  1  0  0  0  0
 32 36  1  0  0  0  0
 33 34  1  0  0  0  0
 34 35  1  0  0  0  0
 36 35  1  0  0  0  0
M  END
>  <minimizedAffinity>
-6.83152962

$$$$

 OpenBabel03272508503D

 36 40  0  0  0  0  0  0  0  0999 V2000
   37.3370   27.6250   32.6850 C   0  0  0  0  0  0  0  0  0  0  0  0
   36.6610   28.0640   31.5480 C   0  0  0  0  0  0  0  0  0  0  0  0
   35.6910   28.9260   32.0550 C   0  0  0  0  0  0  0  0  0  0  0  0
   35.8150   28.9710   33.4200 C   0  0  0  0  0  0  0  0  0  0  0  0
   36.8160   28.1760   33.7700 O   0  0  0  0  0  0  0  0  0  0  0  0
   36.8630   27.7860   30.5310 H   0  0  0  0  0  0  0  0  0  0  0  0
   34.9580   29.4730   31.4560 H   0  0  0  0  0  0  0  0  0  0  0  0
   33.6320   29.5330   34.4070 C   0  0  0  0  0  0  0  0  0  0  0  0
   35.0070   29.7430   34.3500 C   0  0  0  0  0  0  0  0  0  0  0  0
   35.6100   30.6810   35.1740 C   0  0  0  0  0  0  0  0  0  0  0  0
   34.8570   31.4240   36.0650 C   0  0  0  0  0  0  0  0  0  0  0  0
   35.1490   32.3850   36.9710 N   0  0  0  0  0  0  0  0  0  0  0  0
   34.0110   32.7390   37.5450 N   0  0  0  0  0  0  0  0  0  0  0  0
   32.9940   32.0220   37.0250 C   0  0  0  0  0  0  0  0  0  0  0  0
   33.5110   31.1650   36.0650 C   0  0  0  0  0  0  0  0  0  0  0  0
   32.8380   30.2620   35.2910 C   0  0  0  0  0  0  0  0  0  0  0  0
   33.1610   28.7910   33.7540 H   0  0  0  0  0  0  0  0  0  0  0  0
   36.6790   30.8600   35.1460 H   0  0  0  0  0  0  0  0  0  0  0  0
   36.1190   32.7280   37.1270 H   0  0  0  0  0  0  0  0  0  0  0  0
   31.9630   32.1480   37.3510 H   0  0  0  0  0  0  0  0  0  0  0  0
   31.7680   30.1180   35.3530 H   0  0  0  0  0  0  0  0  0  0  0  0
   38.4500   26.6950   32.6520 C   0  0  0  0  0  0  0  0  0  0  0  0
   39.5410   27.0890   32.2080 O   0  0  0  0  0  0  0  0  0  0  0  0
   37.7510   23.1170   32.6210 C   0  0  0  0  0  0  0  0  0  0  0  0
   37.8450   22.7570   33.9490 C   0  0  0  0  0  0  0  0  0  0  0  0
   38.1490   23.7220   34.8840 C   0  0  0  0  0  0  0  0  0  0  0  0
   38.3420   24.9890   34.4510 N   0  0  0  0  0  0  0  0  0  0  0  0
   38.2450   25.3250   33.1460 C   0  0  0  0  0  0  0  0  0  0  0  0
   37.9480   24.3820   32.2320 N   0  0  0  0  0  0  0  0  0  0  0  0
   37.5130   22.3560   31.8930 H   0  0  0  0  0  0  0  0  0  0  0  0
   37.6870   21.7300   34.2780 H   0  0  0  0  0  0  0  0  0  0  0  0
   38.2540   23.3640   36.2870 C   0  0  0  0  0  3  0  0  0  0  0  0
   39.6770   22.9560   36.6810 C   0  0  0  0  0  2  0  0  0  0  0  0
   39.6300   23.0090   38.1940 C   0  0  0  0  0  2  0  0  0  0  0  0
   38.3770   23.7620   38.5810 C   0  0  0  0  0  2  0  0  0  0  0  0
   37.9980   24.4460   37.2820 C   0  0  0  0  0  2  0  0  0  0  0  0
  1  5  1  0  0  0  0
  2  3  1  0  0  0  0
  2  1  2  0  0  0  0
  3  4  2  0  0  0  0
  4  5  1  0  0  0  0
  4  9  1  0  0  0  0
  6  2  1  0  0  0  0
  7  3  1  0  0  0  0
  8 16  1  0  0  0  0
  9  8  2  0  0  0  0
  9 10  1  0  0  0  0
 10 11  2  0  0  0  0
 11 12  1  0  0  0  0
 12 19  1  0  0  0  0
 12 13  1  0  0  0  0
 14 20  1  0  0  0  0
 14 13  2  0  0  0  0
 15 11  1  0  0  0  0
 15 14  1  0  0  0  0
 16 21  1  0  0  0  0
 16 15  2  0  0  0  0
 17  8  1  0  0  0  0
 18 10  1  0  0  0  0
 22  1  1  0  0  0  0
 22 28  1  0  0  0  0
 23 22  2  0  0  0  0
 24 25  1  0  0  0  0
 25 31  1  0  0  0  0
 25 26  2  0  0  0  0
 26 32  1  0  0  0  0
 27 26  1  0  0  0  0
 28 27  2  0  0  0  0
 29 24  2  0  0  0  0
 29 28  1  0  0  0  0
 30 24  1  0  0  0  0
 32 33  1  0  0  0  0
 32 36  1  0  0  0  0
 33 34  1  0  0  0  0
 34 35  1  0  0  0  0
 36 35  1  0  0  0  0
M  END
>  <minimizedAffinity>
-6.70440674

$$$$

 OpenBabel03272508503D

 36 40  0  0  0  0  0  0  0  0999 V2000
   36.6300   25.9800   31.6140 C   0  0  0  0  0  0  0  0  0  0  0  0
   35.3420   25.9150   31.0840 C   0  0  0  0  0  0  0  0  0  0  0  0
   35.0640   24.5500   31.0650 C   0  0  0  0  0  0  0  0  0  0  0  0
   36.1480   23.8740   31.5630 C   0  0  0  0  0  0  0  0  0  0  0  0
   37.0760   24.7630   31.8850 O   0  0  0  0  0  0  0  0  0  0  0  0
   34.7320   26.7410   30.7730 H   0  0  0  0  0  0  0  0  0  0  0  0
   34.1320   24.1020   30.7100 H   0  0  0  0  0  0  0  0  0  0  0  0
   37.5590   21.8700   31.7920 C   0  0  0  0  0  0  0  0  0  0  0  0
   36.2890   22.4350   31.7210 C   0  0  0  0  0  0  0  0  0  0  0  0
   35.1580   21.6370   31.8020 C   0  0  0  0  0  0  0  0  0  0  0  0
   35.2730   20.2660   31.9530 C   0  0  0  0  0  0  0  0  0  0  0  0
   34.3830   19.2540   32.0590 N   0  0  0  0  0  0  0  0  0  0  0  0
   35.0780   18.1350   32.1850 N   0  0  0  0  0  0  0  0  0  0  0  0
   36.3970   18.4110   32.1640 C   0  0  0  0  0  0  0  0  0  0  0  0
   36.5530   19.7810   32.0140 C   0  0  0  0  0  0  0  0  0  0  0  0
   37.7170   20.4940   31.9440 C   0  0  0  0  0  0  0  0  0  0  0  0
   38.4480   22.5060   31.7270 H   0  0  0  0  0  0  0  0  0  0  0  0
   34.1600   22.0560   31.7490 H   0  0  0  0  0  0  0  0  0  0  0  0
   33.3540   19.4110   32.0350 H   0  0  0  0  0  0  0  0  0  0  0  0
   37.1580   17.6380   32.2540 H   0  0  0  0  0  0  0  0  0  0  0  0
   38.6930   20.0320   32.0000 H   0  0  0  0  0  0  0  0  0  0  0  0
   37.3530   27.2190   31.8280 C   0  0  0  0  0  0  0  0  0  0  0  0
   38.5940   27.1990   31.7810 O   0  0  0  0  0  0  0  0  0  0  0  0
   35.6410   30.3790   31.2130 C   0  0  0  0  0  0  0  0  0  0  0  0
   35.1890   30.7510   32.4620 C   0  0  0  0  0  0  0  0  0  0  0  0
   35.4570   29.9360   33.5410 C   0  0  0  0  0  0  0  0  0  0  0  0
   36.1560   28.8000   33.3210 N   0  0  0  0  0  0  0  0  0  0  0  0
   36.5910   28.4490   32.0900 C   0  0  0  0  0  0  0  0  0  0  0  0
   36.3300   29.2460   31.0360 N   0  0  0  0  0  0  0  0  0  0  0  0
   35.4280   31.0210   30.3710 H   0  0  0  0  0  0  0  0  0  0  0  0
   34.6270   31.6710   32.6180 H   0  0  0  0  0  0  0  0  0  0  0  0
   34.9910   30.3090   34.8630 C   0  0  0  0  0  3  0  0  0  0  0  0
   35.8730   31.3800   35.5140 C   0  0  0  0  0  2  0  0  0  0  0  0
   35.0100   31.8710   36.6570 C   0  0  0  0  0  2  0  0  0  0  0  0
   33.6060   31.3680   36.4120 C   0  0  0  0  0  2  0  0  0  0  0  0
   33.6570   30.9720   34.9490 C   0  0  0  0  0  2  0  0  0  0  0  0
  1 22  1  0  0  0  0
  1  5  1  0  0  0  0
  2  1  2  0  0  0  0
  3  2  1  0  0  0  0
  3  4  2  0  0  0  0
  4  9  1  0  0  0  0
  4  5  1  0  0  0  0
  6  2  1  0  0  0  0
  7  3  1  0  0  0  0
  8 16  1  0  0  0  0
  9  8  2  0  0  0  0
  9 10  1  0  0  0  0
 10 11  2  0  0  0  0
 11 15  1  0  0  0  0
 11 12  1  0  0  0  0
 12 13  1  0  0  0  0
 14 13  2  0  0  0  0
 14 20  1  0  0  0  0
 15 14  1  0  0  0  0
 16 21  1  0  0  0  0
 16 15  2  0  0  0  0
 17  8  1  0  0  0  0
 18 10  1  0  0  0  0
 19 12  1  0  0  0  0
 22 28  1  0  0  0  0
 23 22  2  0  0  0  0
 24 25  1  0  0  0  0
 25 31  1  0  0  0  0
 25 26  2  0  0  0  0
 26 32  1  0  0  0  0
 27 26  1  0  0  0  0
 28 27  2  0  0  0  0
 29 24  2  0  0  0  0
 29 28  1  0  0  0  0
 30 24  1  0  0  0  0
 32 36  1  0  0  0  0
 32 33  1  0  0  0  0
 33 34  1  0  0  0  0
 35 34  1  0  0  0  0
 36 35  1  0  0  0  0
M  END
>  <minimizedAffinity>
-6.68468952

$$$$

 OpenBabel03272508503D

 36 40  0  0  0  0  0  0  0  0999 V2000
   37.1600   27.6720   32.6020 C   0  0  0  0  0  0  0  0  0  0  0  0
   36.4260   28.1200   31.5050 C   0  0  0  0  0  0  0  0  0  0  0  0
   35.4920   28.9870   32.0680 C   0  0  0  0  0  0  0  0  0  0  0  0
   35.6920   29.0270   33.4240 C   0  0  0  0  0  0  0  0  0  0  0  0
   36.7040   28.2240   33.7160 O   0  0  0  0  0  0  0  0  0  0  0  0
   36.5690   27.8420   30.4790 H   0  0  0  0  0  0  0  0  0  0  0  0
   34.7300   29.5400   31.5110 H   0  0  0  0  0  0  0  0  0  0  0  0
   33.5850   29.5520   34.5830 C   0  0  0  0  0  0  0  0  0  0  0  0
   34.9410   29.8030   34.3990 C   0  0  0  0  0  0  0  0  0  0  0  0
   35.5820   30.7850   35.1400 C   0  0  0  0  0  0  0  0  0  0  0  0
   34.8850   31.5320   36.0720 C   0  0  0  0  0  0  0  0  0  0  0  0
   35.2210   32.5290   36.9200 N   0  0  0  0  0  0  0  0  0  0  0  0
   34.1260   32.8650   37.5820 N   0  0  0  0  0  0  0  0  0  0  0  0
   33.0930   32.1010   37.1750 C   0  0  0  0  0  0  0  0  0  0  0  0
   33.5540   31.2310   36.1980 C   0  0  0  0  0  0  0  0  0  0  0  0
   32.8460   30.2830   35.5130 C   0  0  0  0  0  0  0  0  0  0  0  0
   33.0840   28.7750   33.9960 H   0  0  0  0  0  0  0  0  0  0  0  0
   36.6370   30.9960   35.0120 H   0  0  0  0  0  0  0  0  0  0  0  0
   36.1890   32.9070   36.9810 H   0  0  0  0  0  0  0  0  0  0  0  0
   32.0910   32.2040   37.5870 H   0  0  0  0  0  0  0  0  0  0  0  0
   31.7910   30.1070   35.6720 H   0  0  0  0  0  0  0  0  0  0  0  0
   38.2640   26.7350   32.5060 C   0  0  0  0  0  0  0  0  0  0  0  0
   39.3710   27.0720   32.9560 O   0  0  0  0  0  0  0  0  0  0  0  0
   38.5270   23.9820   30.1310 C   0  0  0  0  0  0  0  0  0  0  0  0
   37.6700   23.0300   30.6430 C   0  0  0  0  0  0  0  0  0  0  0  0
   36.9840   23.3020   31.8060 C   0  0  0  0  0  0  0  0  0  0  0  0
   37.1860   24.5020   32.3970 N   0  0  0  0  0  0  0  0  0  0  0  0
   38.0290   25.4250   31.8820 C   0  0  0  0  0  0  0  0  0  0  0  0
   38.6990   25.1580   30.7450 N   0  0  0  0  0  0  0  0  0  0  0  0
   39.0620   23.7620   29.2190 H   0  0  0  0  0  0  0  0  0  0  0  0
   37.5220   22.0680   30.1510 H   0  0  0  0  0  0  0  0  0  0  0  0
   36.0780   22.3140   32.3610 C   0  0  0  0  0  3  0  0  0  0  0  0
   35.4820   21.3980   31.2870 C   0  0  0  0  0  2  0  0  0  0  0  0
   34.9120   20.2570   32.1030 C   0  0  0  0  0  2  0  0  0  0  0  0
   35.4930   20.3620   33.4950 C   0  0  0  0  0  2  0  0  0  0  0  0
   36.6660   21.3000   33.2840 C   0  0  0  0  0  2  0  0  0  0  0  0
  1  5  1  0  0  0  0
  2  3  1  0  0  0  0
  2  1  2  0  0  0  0
  3  4  2  0  0  0  0
  4  5  1  0  0  0  0
  4  9  1  0  0  0  0
  6  2  1  0  0  0  0
  7  3  1  0  0  0  0
  8 16  1  0  0  0  0
  9  8  2  0  0  0  0
  9 10  1  0  0  0  0
 10 11  2  0  0  0  0
 11 15  1  0  0  0  0
 11 12  1  0  0  0  0
 12 19  1  0  0  0  0
 12 13  1  0  0  0  0
 14 13  2  0  0  0  0
 14 20  1  0  0  0  0
 15 14  1  0  0  0  0
 16 21  1  0  0  0  0
 16 15  2  0  0  0  0
 17  8  1  0  0  0  0
 18 10  1  0  0  0  0
 22  1  1  0  0  0  0
 22 23  2  0  0  0  0
 24 25  2  0  0  0  0
 24 29  1  0  0  0  0
 25 26  1  0  0  0  0
 26 32  1  0  0  0  0
 26 27  2  0  0  0  0
 28 27  1  0  0  0  0
 28 22  1  0  0  0  0
 29 28  2  0  0  0  0
 30 24  1  0  0  0  0
 31 25  1  0  0  0  0
 32 36  1  0  0  0  0
 33 34  1  0  0  0  0
 33 32  1  0  0  0  0
 34 35  1  0  0  0  0
 36 35  1  0  0  0  0
M  END
>  <minimizedAffinity>
-6.60561085

$$$$

 OpenBabel03272508503D

 36 40  0  0  0  0  0  0  0  0999 V2000
   38.3440   26.4910   33.7930 C   0  0  0  0  0  0  0  0  0  0  0  0
   38.5790   27.3020   34.9020 C   0  0  0  0  0  0  0  0  0  0  0  0
   39.4890   26.5690   35.6590 C   0  0  0  0  0  0  0  0  0  0  0  0
   39.7580   25.3940   35.0040 C   0  0  0  0  0  0  0  0  0  0  0  0
   39.0530   25.3760   33.8830 O   0  0  0  0  0  0  0  0  0  0  0  0
   38.1430   28.2630   35.0990 H   0  0  0  0  0  0  0  0  0  0  0  0
   39.9140   26.8870   36.6150 H   0  0  0  0  0  0  0  0  0  0  0  0
   41.9190   24.2240   34.8700 C   0  0  0  0  0  0  0  0  0  0  0  0
   40.6530   24.3320   35.4380 C   0  0  0  0  0  0  0  0  0  0  0  0
   40.2390   23.4370   36.4130 C   0  0  0  0  0  0  0  0  0  0  0  0
   41.0780   22.4220   36.8380 C   0  0  0  0  0  0  0  0  0  0  0  0
   40.9630   21.4250   37.7430 N   0  0  0  0  0  0  0  0  0  0  0  0
   42.0990   20.7470   37.7240 N   0  0  0  0  0  0  0  0  0  0  0  0
   42.9420   21.2920   36.8230 C   0  0  0  0  0  0  0  0  0  0  0  0
   42.3070   22.3760   36.2340 C   0  0  0  0  0  0  0  0  0  0  0  0
   42.7930   23.2140   35.2700 C   0  0  0  0  0  0  0  0  0  0  0  0
   42.2390   24.9330   34.1000 H   0  0  0  0  0  0  0  0  0  0  0  0
   39.2580   23.5040   36.8680 H   0  0  0  0  0  0  0  0  0  0  0  0
   40.1020   21.2840   38.3120 H   0  0  0  0  0  0  0  0  0  0  0  0
   43.9380   20.8950   36.6400 H   0  0  0  0  0  0  0  0  0  0  0  0
   43.7810   23.1080   34.8420 H   0  0  0  0  0  0  0  0  0  0  0  0
   37.4470   26.8450   32.7090 C   0  0  0  0  0  0  0  0  0  0  0  0
   37.4120   28.0270   32.3280 O   0  0  0  0  0  0  0  0  0  0  0  0
   34.8280   25.2810   30.7130 C   0  0  0  0  0  0  0  0  0  0  0  0
   35.0150   23.9320   30.9330 C   0  0  0  0  0  0  0  0  0  0  0  0
   36.0350   23.5250   31.7640 C   0  0  0  0  0  0  0  0  0  0  0  0
   36.8120   24.4760   32.3300 N   0  0  0  0  0  0  0  0  0  0  0  0
   36.6160   25.7940   32.1050 C   0  0  0  0  0  0  0  0  0  0  0  0
   35.6180   26.1920   31.2920 N   0  0  0  0  0  0  0  0  0  0  0  0
   34.0270   25.5940   30.0600 H   0  0  0  0  0  0  0  0  0  0  0  0
   34.3780   23.1820   30.4660 H   0  0  0  0  0  0  0  0  0  0  0  0
   36.2490   22.1110   32.0090 C   0  0  0  0  0  3  0  0  0  0  0  0
   34.9750   21.3980   32.4750 C   0  0  0  0  0  2  0  0  0  0  0  0
   35.3260   19.9370   32.2920 C   0  0  0  0  0  2  0  0  0  0  0  0
   36.5650   19.8740   31.4280 C   0  0  0  0  0  2  0  0  0  0  0  0
   36.6130   21.2680   30.8320 C   0  0  0  0  0  2  0  0  0  0  0  0
  1  5  1  0  0  0  0
  1  2  2  0  0  0  0
  2  6  1  0  0  0  0
  2  3  1  0  0  0  0
  3  7  1  0  0  0  0
  4  9  1  0  0  0  0
  4  3  2  0  0  0  0
  5  4  1  0  0  0  0
  8 16  2  0  0  0  0
  8  9  1  0  0  0  0
  9 10  2  0  0  0  0
 10 11  1  0  0  0  0
 10 18  1  0  0  0  0
 11 12  1  0  0  0  0
 12 19  1  0  0  0  0
 13 12  1  0  0  0  0
 14 13  2  0  0  0  0
 15 14  1  0  0  0  0
 15 11  2  0  0  0  0
 16 15  1  0  0  0  0
 17  8  1  0  0  0  0
 20 14  1  0  0  0  0
 21 16  1  0  0  0  0
 22  1  1  0  0  0  0
 23 22  2  0  0  0  0
 24 25  2  0  0  0  0
 24 29  1  0  0  0  0
 25 26  1  0  0  0  0
 26 32  1  0  0  0  0
 26 27  2  0  0  0  0
 28 27  1  0  0  0  0
 28 22  1  0  0  0  0
 29 28  2  0  0  0  0
 30 24  1  0  0  0  0
 31 25  1  0  0  0  0
 32 33  1  0  0  0  0
 34 33  1  0  0  0  0
 35 34  1  0  0  0  0
 36 35  1  0  0  0  0
 36 32  1  0  0  0  0
M  END
>  <minimizedAffinity>
-6.56250811

$$$$

 OpenBabel03272508503D

 36 40  0  0  0  0  0  0  0  0999 V2000
   38.4660   25.2790   35.7090 C   0  0  0  0  0  0  0  0  0  0  0  0
   37.8610   24.6100   36.7730 C   0  0  0  0  0  0  0  0  0  0  0  0
   38.7640   23.5940   37.0770 C   0  0  0  0  0  0  0  0  0  0  0  0
   39.8320   23.6860   36.2220 C   0  0  0  0  0  0  0  0  0  0  0  0
   39.6240   24.7110   35.4100 O   0  0  0  0  0  0  0  0  0  0  0  0
   36.9190   24.8470   37.2280 H   0  0  0  0  0  0  0  0  0  0  0  0
   38.6330   22.8510   37.8690 H   0  0  0  0  0  0  0  0  0  0  0  0
   42.0370   23.1040   35.2960 C   0  0  0  0  0  0  0  0  0  0  0  0
   41.0040   22.8240   36.1860 C   0  0  0  0  0  0  0  0  0  0  0  0
   41.0850   21.7330   37.0380 C   0  0  0  0  0  0  0  0  0  0  0  0
   42.1920   20.9040   37.0170 C   0  0  0  0  0  0  0  0  0  0  0  0
   42.5500   19.7970   37.7050 N   0  0  0  0  0  0  0  0  0  0  0  0
   43.7370   19.4240   37.2540 N   0  0  0  0  0  0  0  0  0  0  0  0
   44.1470   20.2720   36.2900 C   0  0  0  0  0  0  0  0  0  0  0  0
   43.1670   21.2390   36.1150 C   0  0  0  0  0  0  0  0  0  0  0  0
   43.1690   22.2920   35.2440 C   0  0  0  0  0  0  0  0  0  0  0  0
   41.9680   23.9660   34.6250 H   0  0  0  0  0  0  0  0  0  0  0  0
   40.2920   21.4980   37.7380 H   0  0  0  0  0  0  0  0  0  0  0  0
   41.9440   19.3760   38.4400 H   0  0  0  0  0  0  0  0  0  0  0  0
   45.1000   20.1580   35.7770 H   0  0  0  0  0  0  0  0  0  0  0  0
   43.9840   22.4880   34.5600 H   0  0  0  0  0  0  0  0  0  0  0  0
   37.8860   26.4310   35.0460 C   0  0  0  0  0  0  0  0  0  0  0  0
   37.9610   27.5390   35.6040 O   0  0  0  0  0  0  0  0  0  0  0  0
   36.0950   27.2300   31.9730 C   0  0  0  0  0  0  0  0  0  0  0  0
   35.9990   26.0140   31.3280 C   0  0  0  0  0  0  0  0  0  0  0  0
   36.5410   24.8970   31.9240 C   0  0  0  0  0  0  0  0  0  0  0  0
   37.1480   25.0460   33.1230 N   0  0  0  0  0  0  0  0  0  0  0  0
   37.2330   26.2450   33.7420 C   0  0  0  0  0  0  0  0  0  0  0  0
   36.7020   27.3370   33.1600 N   0  0  0  0  0  0  0  0  0  0  0  0
   35.6680   28.1030   31.5010 H   0  0  0  0  0  0  0  0  0  0  0  0
   35.5070   25.9150   30.3610 H   0  0  0  0  0  0  0  0  0  0  0  0
   36.4530   23.6080   31.2620 C   0  0  0  0  0  3  0  0  0  0  0  0
   37.7770   22.8370   31.3030 C   0  0  0  0  0  2  0  0  0  0  0  0
   37.3540   21.4340   30.9230 C   0  0  0  0  0  2  0  0  0  0  0  0
   35.8490   21.3670   31.0400 C   0  0  0  0  0  2  0  0  0  0  0  0
   35.5350   22.5990   31.8670 C   0  0  0  0  0  2  0  0  0  0  0  0
  1  2  2  0  0  0  0
  2  3  1  0  0  0  0
  2  6  1  0  0  0  0
  3  7  1  0  0  0  0
  4  3  2  0  0  0  0
  5  1  1  0  0  0  0
  5  4  1  0  0  0  0
  8  9  1  0  0  0  0
  9  4  1  0  0  0  0
  9 10  2  0  0  0  0
 10 18  1  0  0  0  0
 11 10  1  0  0  0  0
 11 12  1  0  0  0  0
 12 19  1  0  0  0  0
 13 12  1  0  0  0  0
 14 13  2  0  0  0  0
 15 14  1  0  0  0  0
 15 11  2  0  0  0  0
 16  8  2  0  0  0  0
 16 15  1  0  0  0  0
 17  8  1  0  0  0  0
 20 14  1  0  0  0  0
 21 16  1  0  0  0  0
 22 23  2  0  0  0  0
 22  1  1  0  0  0  0
 24 29  1  0  0  0  0
 25 26  1  0  0  0  0
 25 24  2  0  0  0  0
 26 27  2  0  0  0  0
 27 28  1  0  0  0  0
 28 22  1  0  0  0  0
 29 28  2  0  0  0  0
 30 24  1  0  0  0  0
 31 25  1  0  0  0  0
 32 33  1  0  0  0  0
 32 36  1  0  0  0  0
 32 26  1  0  0  0  0
 34 35  1  0  0  0  0
 34 33  1  0  0  0  0
 35 36  1  0  0  0  0
M  END
>  <minimizedAffinity>
-6.51823378

$$$$

 OpenBabel03272508503D

 36 40  0  0  0  0  0  0  0  0999 V2000
   36.6800   27.4820   33.0930 C   0  0  0  0  0  0  0  0  0  0  0  0
   36.4940   28.2900   31.9720 C   0  0  0  0  0  0  0  0  0  0  0  0
   35.8780   29.4280   32.4850 C   0  0  0  0  0  0  0  0  0  0  0  0
   35.7220   29.2700   33.8380 C   0  0  0  0  0  0  0  0  0  0  0  0
   36.2150   28.0870   34.1750 O   0  0  0  0  0  0  0  0  0  0  0  0
   36.7720   28.0600   30.9610 H   0  0  0  0  0  0  0  0  0  0  0  0
   35.5720   30.2990   31.8980 H   0  0  0  0  0  0  0  0  0  0  0  0
   35.9430   31.0350   35.5390 C   0  0  0  0  0  0  0  0  0  0  0  0
   35.1240   30.2140   34.7700 C   0  0  0  0  0  0  0  0  0  0  0  0
   33.7440   30.2890   34.8840 C   0  0  0  0  0  0  0  0  0  0  0  0
   33.1580   31.1810   35.7640 C   0  0  0  0  0  0  0  0  0  0  0  0
   31.8800   31.4780   36.0910 N   0  0  0  0  0  0  0  0  0  0  0  0
   31.9230   32.4290   37.0100 N   0  0  0  0  0  0  0  0  0  0  0  0
   33.2040   32.7480   37.2790 C   0  0  0  0  0  0  0  0  0  0  0  0
   34.0250   31.9560   36.4890 C   0  0  0  0  0  0  0  0  0  0  0  0
   35.3910   31.9470   36.4380 C   0  0  0  0  0  0  0  0  0  0  0  0
   37.0310   30.9710   35.4450 H   0  0  0  0  0  0  0  0  0  0  0  0
   33.0880   29.6590   34.2950 H   0  0  0  0  0  0  0  0  0  0  0  0
   31.0660   30.9990   35.6520 H   0  0  0  0  0  0  0  0  0  0  0  0
   33.4770   33.5100   38.0070 H   0  0  0  0  0  0  0  0  0  0  0  0
   36.0060   32.5950   37.0470 H   0  0  0  0  0  0  0  0  0  0  0  0
   37.2980   26.1700   33.0490 C   0  0  0  0  0  0  0  0  0  0  0  0
   36.6950   25.2480   32.4750 O   0  0  0  0  0  0  0  0  0  0  0  0
   40.6690   26.9160   34.2190 C   0  0  0  0  0  0  0  0  0  0  0  0
   41.0660   25.7450   34.8310 C   0  0  0  0  0  0  0  0  0  0  0  0
   40.1960   24.6770   34.8590 C   0  0  0  0  0  0  0  0  0  0  0  0
   38.9830   24.8280   34.2810 N   0  0  0  0  0  0  0  0  0  0  0  0
   38.6100   25.9830   33.6850 C   0  0  0  0  0  0  0  0  0  0  0  0
   39.4600   27.0270   33.6570 N   0  0  0  0  0  0  0  0  0  0  0  0
   41.3550   27.7500   34.2000 H   0  0  0  0  0  0  0  0  0  0  0  0
   42.0480   25.6430   35.2920 H   0  0  0  0  0  0  0  0  0  0  0  0
   40.5940   23.4360   35.4980 C   0  0  0  0  0  3  0  0  0  0  0  0
   42.0800   23.4200   35.8710 C   0  0  0  0  0  2  0  0  0  0  0  0
   42.1690   22.2530   36.8310 C   0  0  0  0  0  2  0  0  0  0  0  0
   40.7580   21.8980   37.2440 C   0  0  0  0  0  2  0  0  0  0  0  0
   39.9810   23.1310   36.8240 C   0  0  0  0  0  2  0  0  0  0  0  0
  1  5  1  0  0  0  0
  2  3  1  0  0  0  0
  2  1  2  0  0  0  0
  3  4  2  0  0  0  0
  4  5  1  0  0  0  0
  4  9  1  0  0  0  0
  6  2  1  0  0  0  0
  7  3  1  0  0  0  0
  8 16  1  0  0  0  0
  9 10  1  0  0  0  0
  9  8  2  0  0  0  0
 10 11  2  0  0  0  0
 11 12  1  0  0  0  0
 11 15  1  0  0  0  0
 12 13  1  0  0  0  0
 13 14  2  0  0  0  0
 14 20  1  0  0  0  0
 15 14  1  0  0  0  0
 16 15  2  0  0  0  0
 16 21  1  0  0  0  0
 17  8  1  0  0  0  0
 18 10  1  0  0  0  0
 19 12  1  0  0  0  0
 22  1  1  0  0  0  0
 22 28  1  0  0  0  0
 23 22  2  0  0  0  0
 24 25  1  0  0  0  0
 25 26  2  0  0  0  0
 25 31  1  0  0  0  0
 26 32  1  0  0  0  0
 27 26  1  0  0  0  0
 28 27  2  0  0  0  0
 29 28  1  0  0  0  0
 29 24  2  0  0  0  0
 30 24  1  0  0  0  0
 32 33  1  0  0  0  0
 32 36  1  0  0  0  0
 33 34  1  0  0  0  0
 34 35  1  0  0  0  0
 36 35  1  0  0  0  0
M  END
>  <minimizedAffinity>
-6.47388506

$$$$

 OpenBabel03272508503D

 36 40  0  0  0  0  0  0  0  0999 V2000
   35.9620   26.8710   31.3400 C   0  0  0  0  0  0  0  0  0  0  0  0
   37.0720   27.3920   30.6770 C   0  0  0  0  0  0  0  0  0  0  0  0
   37.1900   28.6790   31.1950 C   0  0  0  0  0  0  0  0  0  0  0  0
   36.1900   28.8760   32.1130 C   0  0  0  0  0  0  0  0  0  0  0  0
   35.4660   27.7680   32.1780 O   0  0  0  0  0  0  0  0  0  0  0  0
   37.6750   26.8930   29.9420 H   0  0  0  0  0  0  0  0  0  0  0  0
   37.9580   29.4050   30.9110 H   0  0  0  0  0  0  0  0  0  0  0  0
   35.7520   31.2940   32.2440 C   0  0  0  0  0  0  0  0  0  0  0  0
   35.9390   30.0770   32.8930 C   0  0  0  0  0  0  0  0  0  0  0  0
   35.8860   30.0020   34.2770 C   0  0  0  0  0  0  0  0  0  0  0  0
   35.6470   31.1340   35.0350 C   0  0  0  0  0  0  0  0  0  0  0  0
   35.5410   31.3730   36.3610 N   0  0  0  0  0  0  0  0  0  0  0  0
   35.3040   32.6660   36.5080 N   0  0  0  0  0  0  0  0  0  0  0  0
   35.2550   33.2620   35.3000 C   0  0  0  0  0  0  0  0  0  0  0  0
   35.4740   32.2960   34.3290 C   0  0  0  0  0  0  0  0  0  0  0  0
   35.5090   32.4580   32.9720 C   0  0  0  0  0  0  0  0  0  0  0  0
   35.7950   31.3470   31.1510 H   0  0  0  0  0  0  0  0  0  0  0  0
   36.0280   29.0650   34.8020 H   0  0  0  0  0  0  0  0  0  0  0  0
   35.6420   30.6200   37.0740 H   0  0  0  0  0  0  0  0  0  0  0  0
   35.0700   34.3280   35.1810 H   0  0  0  0  0  0  0  0  0  0  0  0
   35.3620   33.4150   32.4910 H   0  0  0  0  0  0  0  0  0  0  0  0
   35.4480   25.5320   31.1240 C   0  0  0  0  0  0  0  0  0  0  0  0
   34.4700   25.3850   30.3710 O   0  0  0  0  0  0  0  0  0  0  0  0
   37.7490   23.7060   33.2820 C   0  0  0  0  0  0  0  0  0  0  0  0
   37.3810   22.3880   33.1060 C   0  0  0  0  0  0  0  0  0  0  0  0
   36.3430   22.0910   32.2510 C   0  0  0  0  0  0  0  0  0  0  0  0
   35.7280   23.1160   31.6180 N   0  0  0  0  0  0  0  0  0  0  0  0
   36.1010   24.4020   31.8010 C   0  0  0  0  0  0  0  0  0  0  0  0
   37.1160   24.6920   32.6370 N   0  0  0  0  0  0  0  0  0  0  0  0
   38.5640   23.9320   33.9540 H   0  0  0  0  0  0  0  0  0  0  0  0
   37.8890   21.5760   33.6270 H   0  0  0  0  0  0  0  0  0  0  0  0
   35.9400   20.7110   32.0520 C   0  0  0  0  0  3  0  0  0  0  0  0
   37.0980   19.8260   31.5790 C   0  0  0  0  0  2  0  0  0  0  0  0
   36.5630   18.4290   31.8130 C   0  0  0  0  0  2  0  0  0  0  0  0
   35.3480   18.5520   32.7040 C   0  0  0  0  0  2  0  0  0  0  0  0
   35.4980   19.9550   33.2600 C   0  0  0  0  0  2  0  0  0  0  0  0
  1  5  1  0  0  0  0
  2  3  1  0  0  0  0
  2  1  2  0  0  0  0
  3  4  2  0  0  0  0
  4  5  1  0  0  0  0
  4  9  1  0  0  0  0
  6  2  1  0  0  0  0
  7  3  1  0  0  0  0
  8  9  2  0  0  0  0
  8 16  1  0  0  0  0
  9 10  1  0  0  0  0
 10 18  1  0  0  0  0
 10 11  2  0  0  0  0
 11 12  1  0  0  0  0
 12 13  1  0  0  0  0
 12 19  1  0  0  0  0
 14 13  2  0  0  0  0
 15 11  1  0  0  0  0
 15 14  1  0  0  0  0
 16 15  2  0  0  0  0
 17  8  1  0  0  0  0
 20 14  1  0  0  0  0
 21 16  1  0  0  0  0
 22  1  1  0  0  0  0
 22 28  1  0  0  0  0
 23 22  2  0  0  0  0
 24 30  1  0  0  0  0
 25 24  1  0  0  0  0
 25 31  1  0  0  0  0
 26 25  2  0  0  0  0
 27 28  2  0  0  0  0
 27 26  1  0  0  0  0
 28 29  1  0  0  0  0
 29 24  2  0  0  0  0
 32 26  1  0  0  0  0
 32 36  1  0  0  0  0
 33 34  1  0  0  0  0
 33 32  1  0  0  0  0
 34 35  1  0  0  0  0
 35 36  1  0  0  0  0
M  END
>  <minimizedAffinity>
-6.44401312

$$$$

 OpenBabel03272508503D

 36 40  0  0  0  0  0  0  0  0999 V2000
   37.0790   27.5510   32.7880 C   0  0  0  0  0  0  0  0  0  0  0  0
   36.1450   27.8100   31.7870 C   0  0  0  0  0  0  0  0  0  0  0  0
   35.2900   28.7430   32.3680 C   0  0  0  0  0  0  0  0  0  0  0  0
   35.7240   28.9990   33.6440 C   0  0  0  0  0  0  0  0  0  0  0  0
   36.8040   28.2660   33.8680 O   0  0  0  0  0  0  0  0  0  0  0  0
   36.1170   27.3760   30.8050 H   0  0  0  0  0  0  0  0  0  0  0  0
   34.4200   29.1910   31.8800 H   0  0  0  0  0  0  0  0  0  0  0  0
   35.9350   30.7950   35.3140 C   0  0  0  0  0  0  0  0  0  0  0  0
   35.1260   29.9100   34.6080 C   0  0  0  0  0  0  0  0  0  0  0  0
   33.7550   29.8900   34.8170 C   0  0  0  0  0  0  0  0  0  0  0  0
   33.1690   30.7490   35.7290 C   0  0  0  0  0  0  0  0  0  0  0  0
   31.8990   30.9600   36.1410 N   0  0  0  0  0  0  0  0  0  0  0  0
   31.9370   31.9220   37.0490 N   0  0  0  0  0  0  0  0  0  0  0  0
   33.2090   32.3320   37.2270 C   0  0  0  0  0  0  0  0  0  0  0  0
   34.0270   31.5910   36.3880 C   0  0  0  0  0  0  0  0  0  0  0  0
   35.3840   31.6760   36.2430 C   0  0  0  0  0  0  0  0  0  0  0  0
   37.0170   30.8050   35.1460 H   0  0  0  0  0  0  0  0  0  0  0  0
   33.1070   29.2100   34.2780 H   0  0  0  0  0  0  0  0  0  0  0  0
   31.0930   30.4210   35.7620 H   0  0  0  0  0  0  0  0  0  0  0  0
   33.4770   33.1190   37.9300 H   0  0  0  0  0  0  0  0  0  0  0  0
   35.9920   32.3720   36.8050 H   0  0  0  0  0  0  0  0  0  0  0  0
   38.1860   26.6240   32.6400 C   0  0  0  0  0  0  0  0  0  0  0  0
   39.1570   26.9650   31.9440 O   0  0  0  0  0  0  0  0  0  0  0  0
   38.6520   24.0700   35.1980 C   0  0  0  0  0  0  0  0  0  0  0  0
   38.0450   22.9550   34.6580 C   0  0  0  0  0  0  0  0  0  0  0  0
   37.4640   23.0480   33.4120 C   0  0  0  0  0  0  0  0  0  0  0  0
   37.5160   24.2380   32.7720 N   0  0  0  0  0  0  0  0  0  0  0  0
   38.1160   25.3210   33.3160 C   0  0  0  0  0  0  0  0  0  0  0  0
   38.6840   25.2300   34.5330 N   0  0  0  0  0  0  0  0  0  0  0  0
   39.1060   23.9910   36.1750 H   0  0  0  0  0  0  0  0  0  0  0  0
   38.0130   22.0050   35.1900 H   0  0  0  0  0  0  0  0  0  0  0  0
   36.8190   21.8870   32.8250 C   0  0  0  0  0  3  0  0  0  0  0  0
   36.2430   20.9410   33.8840 C   0  0  0  0  0  2  0  0  0  0  0  0
   35.3210   20.0570   33.0710 C   0  0  0  0  0  2  0  0  0  0  0  0
   35.1230   20.7220   31.7280 C   0  0  0  0  0  2  0  0  0  0  0  0
   35.6040   22.1350   31.9950 C   0  0  0  0  0  2  0  0  0  0  0  0
  1  5  1  0  0  0  0
  2  3  1  0  0  0  0
  2  1  2  0  0  0  0
  3  4  2  0  0  0  0
  4  5  1  0  0  0  0
  4  9  1  0  0  0  0
  6  2  1  0  0  0  0
  7  3  1  0  0  0  0
  8 16  1  0  0  0  0
  9 10  1  0  0  0  0
  9  8  2  0  0  0  0
 10 11  2  0  0  0  0
 11 12  1  0  0  0  0
 11 15  1  0  0  0  0
 12 13  1  0  0  0  0
 13 14  2  0  0  0  0
 14 20  1  0  0  0  0
 15 14  1  0  0  0  0
 16 15  2  0  0  0  0
 16 21  1  0  0  0  0
 17  8  1  0  0  0  0
 18 10  1  0  0  0  0
 19 12  1  0  0  0  0
 22  1  1  0  0  0  0
 22 28  1  0  0  0  0
 23 22  2  0  0  0  0
 24 30  1  0  0  0  0
 25 31  1  0  0  0  0
 25 24  1  0  0  0  0
 26 25  2  0  0  0  0
 27 28  2  0  0  0  0
 27 26  1  0  0  0  0
 28 29  1  0  0  0  0
 29 24  2  0  0  0  0
 32 26  1  0  0  0  0
 32 33  1  0  0  0  0
 34 33  1  0  0  0  0
 35 36  1  0  0  0  0
 35 34  1  0  0  0  0
 36 32  1  0  0  0  0
M  END
>  <minimizedAffinity>
-6.38941956

$$$$
