
 OpenBabel03272506363D

 19 20  0  0  0  0  0  0  0  0999 V2000
   37.5660   30.5510   47.0460 C   0  0  0  0  0  0  0  0  0  0  0  0
   38.7540   30.4630   46.2750 C   0  0  0  0  0  0  0  0  0  0  0  0
   38.6350   30.4370   44.8820 C   0  0  0  0  0  0  0  0  0  0  0  0
   37.3760   30.4990   44.3360 N   0  0  0  0  0  0  0  0  0  0  0  0
   36.2770   30.5820   45.1100 C   0  0  0  0  0  0  0  0  0  0  0  0
   36.3790   30.6070   46.4380 N   0  0  0  0  0  0  0  0  0  0  0  0
   34.1350   29.5590   44.9230 C   0  0  0  0  0  0  0  0  0  0  0  0
   34.4070   28.5990   45.7060 O   0  0  0  0  0  0  0  0  0  0  0  0
   34.9710   30.6460   44.5160 N   0  0  0  0  0  0  0  0  0  0  0  0
   39.7640   30.4120   46.6640 H   0  0  0  0  0  0  0  0  0  0  0  0
   39.4700   30.3720   44.2060 H   0  0  0  0  0  0  0  0  0  0  0  0
   33.1140   29.4240   44.5890 H   0  0  0  0  0  0  0  0  0  0  0  0
   34.5480   31.3200   43.8690 H   0  0  0  0  0  0  0  0  0  0  0  0
   37.8680   30.5640   48.3890 O   0  0  0  0  0  0  0  0  0  0  0  0
   37.2410   31.2670   49.4060 C   0  0  0  0  0  3  0  0  0  0  0  0
   35.8580   30.6580   49.5530 C   0  0  0  0  0  2  0  0  0  0  0  0
   36.2540   29.2270   49.8600 C   0  0  0  0  0  2  0  0  0  0  0  0
   37.5130   29.3350   50.6720 C   0  0  0  0  0  2  0  0  0  0  0  0
   37.8560   30.8170   50.7370 C   0  0  0  0  0  2  0  0  0  0  0  0
  1 14  1  0  0  0  0
  2 10  1  0  0  0  0
  2  1  2  0  0  0  0
  3  2  1  0  0  0  0
  4  3  2  0  0  0  0
  4  5  1  0  0  0  0
  5  6  2  0  0  0  0
  6  1  1  0  0  0  0
  7  8  2  0  0  0  0
  9  7  1  0  0  0  0
  9  5  1  0  0  0  0
 11  3  1  0  0  0  0
 12  7  1  0  0  0  0
 13  9  1  0  0  0  0
 14 15  1  0  0  0  0
 15 16  1  0  0  0  0
 15 19  1  0  0  0  0
 16 17  1  0  0  0  0
 17 18  1  0  0  0  0
 18 19  1  0  0  0  0
M  END
>  <minimizedAffinity>
-4.52580881

>  <minimizedRMSD>
4.11353159

$$$$
