REMARK  Name = 
REMARK  2 active torsions:
REMARK  status: ('A' for Active; 'I' for Inactive)
REMARK    1  A    between atoms: C_1  and  O_7
REMARK    2  A    between atoms: C_2  and  C_11
REMARK                            x       y       z     vdW  Elec       q    Type
REMARK                         _______ _______ _______ _____ _____    ______ ____
ROOT
ATOM      1  C   UNL     1      37.295  29.988  51.184  0.00  0.00    +0.000 A 
ATOM      2  C   UNL     1      37.936  30.908  50.355  0.00  0.00    +0.000 A 
ATOM      3  C   UNL     1      37.283  31.393  49.232  0.00  0.00    +0.000 A 
ATOM      4  N   UNL     1      36.024  30.928  49.003  0.00  0.00    +0.000 NA
ATOM      5  C   UNL     1      35.413  30.036  49.814  0.00  0.00    +0.000 A 
ATOM      6  N   UNL     1      36.047  29.570  50.898  0.00  0.00    +0.000 NA
ATOM      7  H   UNL     1      37.647  32.089  48.521  0.00  0.00    +0.000 HD
ATOM      8  H   UNL     1      34.407  29.677  49.614  0.00  0.00    +0.000 HD
ENDROOT
BRANCH   2   9
ATOM      9  C   UNL     1      39.312  31.442  50.570  0.00  0.00    +0.000 C 
ATOM     10  C   UNL     1      40.080  31.433  49.284  0.00  0.00    +0.000 C 
ATOM     11  C   UNL     1      40.685  32.785  49.103  0.00  0.00    +0.000 C 
ATOM     12  C   UNL     1      39.880  33.681  50.010  0.00  0.00    +0.000 C 
ATOM     13  C   UNL     1      39.312  32.828  51.101  0.00  0.00    +0.000 C 
ENDBRANCH   2   9
BRANCH   1  14
ATOM     14  O   UNL     1      38.096  29.621  52.247  0.00  0.00    +0.000 OA
ATOM     15  H   UNL     1      38.907  29.049  52.175  0.00  0.00    +0.000 HD
ENDBRANCH   1  14
TORSDOF 2
