
 OpenBabel03272510243D

 28 31  0  0  0  0  0  0  0  0999 V2000
   36.0520   30.1740   46.9930 C   0  0  0  0  0  0  0  0  0  0  0  0
   36.9650   30.7010   47.9040 C   0  0  0  0  0  0  0  0  0  0  0  0
   37.9590   31.5730   47.5010 C   0  0  0  0  0  0  0  0  0  0  0  0
   37.9850   31.8880   46.1390 C   0  0  0  0  0  0  0  0  0  0  0  0
   38.8700   32.7260   45.5010 N   0  0  0  0  0  0  0  0  0  0  0  0
   38.5260   32.7280   44.2160 C   0  0  0  0  0  0  0  0  0  0  0  0
   37.4690   31.9380   44.0110 N   0  0  0  0  0  0  0  0  0  0  0  0
   37.1120   31.3980   45.2020 C   0  0  0  0  0  0  0  0  0  0  0  0
   36.1190   30.5170   45.6440 C   0  0  0  0  0  0  0  0  0  0  0  0
   35.2660   29.4870   47.2930 H   0  0  0  0  0  0  0  0  0  0  0  0
   38.6740   31.9900   48.1970 H   0  0  0  0  0  0  0  0  0  0  0  0
   39.6640   33.2530   45.9690 H   0  0  0  0  0  0  0  0  0  0  0  0
   35.4250   30.1250   44.9160 H   0  0  0  0  0  0  0  0  0  0  0  0
   37.5360   30.0860   51.5760 C   0  0  0  0  0  0  0  0  0  0  0  0
   37.7720   30.5170   50.2770 C   0  0  0  0  0  0  0  0  0  0  0  0
   36.8360   30.2990   49.2960 C   0  0  0  0  0  0  0  0  0  0  0  0
   35.6820   29.6470   49.6590 N   0  0  0  0  0  0  0  0  0  0  0  0
   35.4770   29.2400   50.9280 C   0  0  0  0  0  0  0  0  0  0  0  0
   36.3840   29.4540   51.8650 N   0  0  0  0  0  0  0  0  0  0  0  0
   38.2620   30.2490   52.3600 H   0  0  0  0  0  0  0  0  0  0  0  0
   38.6810   31.0280   49.9990 H   0  0  0  0  0  0  0  0  0  0  0  0
   34.5220   28.7300   51.1040 H   0  0  0  0  0  0  0  0  0  0  0  0
   39.2040   33.4720   43.2530 O   0  0  0  0  0  0  0  0  0  0  0  0
   39.3630   32.9730   41.9190 C   0  0  0  0  0  3  0  0  0  0  0  0
   38.8310   31.5600   41.7840 C   0  0  0  0  0  2  0  0  0  0  0  0
   37.9800   31.5810   40.5190 C   0  0  0  0  0  2  0  0  0  0  0  0
   37.3790   32.9650   40.6060 C   0  0  0  0  0  2  0  0  0  0  0  0
   38.5320   33.8260   41.0050 C   0  0  0  0  0  2  0  0  0  0  0  0
  1 10  1  0  0  0  0
  1  2  1  0  0  0  0
  2 16  1  0  0  0  0
  3  2  2  0  0  0  0
  3 11  1  0  0  0  0
  4  3  1  0  0  0  0
  5 12  1  0  0  0  0
  5  4  1  0  0  0  0
  6  5  1  0  0  0  0
  7  6  2  0  0  0  0
  7  8  1  0  0  0  0
  8  9  1  0  0  0  0
  8  4  2  0  0  0  0
  9  1  2  0  0  0  0
 13  9  1  0  0  0  0
 14 19  1  0  0  0  0
 14 20  1  0  0  0  0
 15 14  2  0  0  0  0
 16 17  2  0  0  0  0
 16 15  1  0  0  0  0
 17 18  1  0  0  0  0
 18 22  1  0  0  0  0
 18 19  2  0  0  0  0
 21 15  1  0  0  0  0
 23  6  1  0  0  0  0
 24 23  1  0  0  0  0
 25 24  1  0  0  0  0
 26 27  1  0  0  0  0
 26 25  1  0  0  0  0
 27 28  1  0  0  0  0
 28 24  1  0  0  0  0
M  END
>  <minimizedAffinity>
-5.25938368

>  <minimizedRMSD>
1.28043878

$$$$
