
 OpenBabel03272510343D

 24 26  0  0  0  0  0  0  0  0999 V2000
   37.0750   30.7730   46.0430 C   0  0  0  0  0  0  0  0  0  0  0  0
   36.2640   30.4760   44.9710 C   0  0  0  0  0  0  0  0  0  0  0  0
   35.0020   29.9450   45.2000 C   0  0  0  0  0  0  0  0  0  0  0  0
   34.5870   29.7250   46.4870 C   0  0  0  0  0  0  0  0  0  0  0  0
   35.4010   30.0220   47.5720 C   0  0  0  0  0  0  0  0  0  0  0  0
   36.6800   30.5590   47.3730 C   0  0  0  0  0  0  0  0  0  0  0  0
   36.5760   30.6450   43.9480 H   0  0  0  0  0  0  0  0  0  0  0  0
   34.3510   29.7060   44.3800 H   0  0  0  0  0  0  0  0  0  0  0  0
   33.5830   29.3030   46.6210 H   0  0  0  0  0  0  0  0  0  0  0  0
   34.9950   29.8160   48.5490 H   0  0  0  0  0  0  0  0  0  0  0  0
   39.6310   33.2000   45.0840 C   0  0  0  0  0  0  0  0  0  0  0  0
   40.8280   32.4920   45.1490 C   0  0  0  0  0  0  0  0  0  0  0  0
   40.7500   31.1230   45.5380 C   0  0  0  0  0  0  0  0  0  0  0  0
   39.5330   30.5930   45.8210 N   0  0  0  0  0  0  0  0  0  0  0  0
   38.3920   31.3250   45.7420 C   0  0  0  0  0  0  0  0  0  0  0  0
   38.4800   32.6100   45.3750 N   0  0  0  0  0  0  0  0  0  0  0  0
   39.7520   34.2300   44.7840 H   0  0  0  0  0  0  0  0  0  0  0  0
   41.8380   32.8270   44.9450 H   0  0  0  0  0  0  0  0  0  0  0  0
   41.5820   30.4550   45.6330 H   0  0  0  0  0  0  0  0  0  0  0  0
   37.5370   30.8730   48.5200 C   0  0  0  0  0  3  0  0  0  0  0  0
   37.0200   31.9240   49.4410 C   0  0  0  0  0  2  0  0  0  0  0  0
   37.1970   31.4050   50.8710 C   0  0  0  0  0  2  0  0  0  0  0  0
   36.9990   29.9230   50.6800 C   0  0  0  0  0  2  0  0  0  0  0  0
   37.7300   29.6500   49.4020 C   0  0  0  0  0  2  0  0  0  0  0  0
  1  6  1  0  0  0  0
  2  3  1  0  0  0  0
  2  1  2  0  0  0  0
  3  4  2  0  0  0  0
  4  9  1  0  0  0  0
  4  5  1  0  0  0  0
  5 10  1  0  0  0  0
  6  5  2  0  0  0  0
  6 20  1  0  0  0  0
  7  2  1  0  0  0  0
  8  3  1  0  0  0  0
 11 12  2  0  0  0  0
 11 16  1  0  0  0  0
 12 13  1  0  0  0  0
 13 19  1  0  0  0  0
 13 14  2  0  0  0  0
 15 14  1  0  0  0  0
 15  1  1  0  0  0  0
 16 15  2  0  0  0  0
 17 11  1  0  0  0  0
 18 12  1  0  0  0  0
 20 24  1  0  0  0  0
 20 21  1  0  0  0  0
 21 22  1  0  0  0  0
 23 22  1  0  0  0  0
 24 23  1  0  0  0  0
M  END
>  <minimizedAffinity>
-5.72330379

>  <minimizedRMSD>
3.16838408

$$$$
