
 OpenBabel03272504493D

 23 25  0  0  0  0  0  0  0  0999 V2000
   37.3190   25.8260   32.8370 C   0  0  0  0  0  0  0  0  0  0  0  0
   36.8630   27.1070   33.1470 C   0  0  0  0  0  0  0  0  0  0  0  0
   36.9730   27.5180   34.4700 C   0  0  0  0  0  0  0  0  0  0  0  0
   37.5140   26.6640   35.4010 N   0  0  0  0  0  0  0  0  0  0  0  0
   37.9400   25.4370   35.0490 C   0  0  0  0  0  0  0  0  0  0  0  0
   37.8370   25.0320   33.7710 N   0  0  0  0  0  0  0  0  0  0  0  0
   37.2000   25.5830   31.7950 H   0  0  0  0  0  0  0  0  0  0  0  0
   36.6730   28.4680   34.8850 H   0  0  0  0  0  0  0  0  0  0  0  0
   38.5090   24.5520   36.0520 C   0  0  0  0  0  0  0  0  0  0  0  0
   37.9470   24.4720   37.3040 C   0  0  0  0  0  0  0  0  0  0  0  0
   38.4400   23.6520   38.2980 C   0  0  0  0  0  0  0  0  0  0  0  0
   39.5500   22.9100   37.9390 C   0  0  0  0  0  0  0  0  0  0  0  0
   40.1460   22.9630   36.6850 C   0  0  0  0  0  0  0  0  0  0  0  0
   39.5800   23.8030   35.7830 N   0  0  0  0  0  0  0  0  0  0  0  0
   37.0720   25.0810   37.5300 H   0  0  0  0  0  0  0  0  0  0  0  0
   38.0160   23.5700   39.2910 H   0  0  0  0  0  0  0  0  0  0  0  0
   39.9960   22.2380   38.6730 H   0  0  0  0  0  0  0  0  0  0  0  0
   41.0150   22.3660   36.4420 H   0  0  0  0  0  0  0  0  0  0  0  0
   36.2800   28.0640   32.2170 C   0  0  0  0  0  3  0  0  0  0  0  0
   37.2250   28.6120   31.1770 C   0  0  0  0  0  2  0  0  0  0  0  0
   36.4450   29.8080   30.6270 C   0  0  0  0  0  2  0  0  0  0  0  0
   35.3030   30.0530   31.5810 C   0  0  0  0  0  2  0  0  0  0  0  0
   35.7970   29.3540   32.8470 C   0  0  0  0  0  2  0  0  0  0  0  0
  1  2  2  0  0  0  0
  1  6  1  0  0  0  0
  2  3  1  0  0  0  0
  3  8  1  0  0  0  0
  3  4  2  0  0  0  0
  5  4  1  0  0  0  0
  5  9  1  0  0  0  0
  6  5  2  0  0  0  0
  7  1  1  0  0  0  0
  9 10  1  0  0  0  0
 10 15  1  0  0  0  0
 10 11  2  0  0  0  0
 11 16  1  0  0  0  0
 12 11  1  0  0  0  0
 12 17  1  0  0  0  0
 13 12  2  0  0  0  0
 14  9  2  0  0  0  0
 14 13  1  0  0  0  0
 18 13  1  0  0  0  0
 19 23  1  0  0  0  0
 19  2  1  0  0  0  0
 20 19  1  0  0  0  0
 21 20  1  0  0  0  0
 21 22  1  0  0  0  0
 22 23  1  0  0  0  0
M  END
>  <minimizedAffinity>
-5.10319948

$$$$

 OpenBabel03272504493D

 23 25  0  0  0  0  0  0  0  0999 V2000
   37.7920   25.2370   34.3770 C   0  0  0  0  0  0  0  0  0  0  0  0
   38.2090   25.6490   35.6430 C   0  0  0  0  0  0  0  0  0  0  0  0
   38.0660   26.9950   35.9520 C   0  0  0  0  0  0  0  0  0  0  0  0
   37.5310   27.8510   35.0190 N   0  0  0  0  0  0  0  0  0  0  0  0
   37.1440   27.4030   33.8100 C   0  0  0  0  0  0  0  0  0  0  0  0
   37.2790   26.1000   33.5030 N   0  0  0  0  0  0  0  0  0  0  0  0
   37.9350   24.1820   34.2140 H   0  0  0  0  0  0  0  0  0  0  0  0
   38.3330   27.4840   36.8760 H   0  0  0  0  0  0  0  0  0  0  0  0
   36.5830   28.3270   32.8400 C   0  0  0  0  0  0  0  0  0  0  0  0
   37.1290   28.4300   31.5830 C   0  0  0  0  0  0  0  0  0  0  0  0
   36.6410   29.2880   30.6200 C   0  0  0  0  0  0  0  0  0  0  0  0
   35.5520   30.0430   31.0140 C   0  0  0  0  0  0  0  0  0  0  0  0
   34.9710   29.9680   32.2740 C   0  0  0  0  0  0  0  0  0  0  0  0
   35.5310   29.0910   33.1450 N   0  0  0  0  0  0  0  0  0  0  0  0
   37.9880   27.8090   31.3290 H   0  0  0  0  0  0  0  0  0  0  0  0
   37.0520   29.3880   29.6230 H   0  0  0  0  0  0  0  0  0  0  0  0
   35.1110   30.7450   30.3050 H   0  0  0  0  0  0  0  0  0  0  0  0
   34.1190   30.5760   32.5450 H   0  0  0  0  0  0  0  0  0  0  0  0
   38.7820   24.8020   36.6800 C   0  0  0  0  0  3  0  0  0  0  0  0
   39.5680   23.6140   36.1830 C   0  0  0  0  0  2  0  0  0  0  0  0
   39.7060   22.7640   37.4480 C   0  0  0  0  0  2  0  0  0  0  0  0
   38.7440   23.3350   38.4580 C   0  0  0  0  0  2  0  0  0  0  0  0
   37.7700   24.1030   37.5650 C   0  0  0  0  0  2  0  0  0  0  0  0
  1  2  1  0  0  0  0
  2  3  2  0  0  0  0
  2 19  1  0  0  0  0
  3  8  1  0  0  0  0
  4  3  1  0  0  0  0
  5  4  2  0  0  0  0
  6  5  1  0  0  0  0
  6  1  2  0  0  0  0
  7  1  1  0  0  0  0
  9 14  1  0  0  0  0
  9  5  1  0  0  0  0
 10  9  2  0  0  0  0
 11 12  2  0  0  0  0
 11 10  1  0  0  0  0
 12 13  1  0  0  0  0
 13 18  1  0  0  0  0
 13 14  2  0  0  0  0
 15 10  1  0  0  0  0
 16 11  1  0  0  0  0
 17 12  1  0  0  0  0
 19 23  1  0  0  0  0
 20 19  1  0  0  0  0
 20 21  1  0  0  0  0
 21 22  1  0  0  0  0
 23 22  1  0  0  0  0
M  END
>  <minimizedAffinity>
-4.90484047

$$$$

 OpenBabel03272504493D

 23 25  0  0  0  0  0  0  0  0999 V2000
   37.2020   26.2430   33.5140 C   0  0  0  0  0  0  0  0  0  0  0  0
   37.0500   27.5330   34.0230 C   0  0  0  0  0  0  0  0  0  0  0  0
   37.5530   27.7790   35.2940 C   0  0  0  0  0  0  0  0  0  0  0  0
   38.1690   26.7640   35.9860 N   0  0  0  0  0  0  0  0  0  0  0  0
   38.2900   25.5350   35.4500 C   0  0  0  0  0  0  0  0  0  0  0  0
   37.8050   25.2890   34.2200 N   0  0  0  0  0  0  0  0  0  0  0  0
   36.7860   26.1330   32.5270 H   0  0  0  0  0  0  0  0  0  0  0  0
   37.5240   28.7100   35.8380 H   0  0  0  0  0  0  0  0  0  0  0  0
   38.9440   24.4780   36.2020 C   0  0  0  0  0  0  0  0  0  0  0  0
   38.4640   24.1040   37.4340 C   0  0  0  0  0  0  0  0  0  0  0  0
   39.0410   23.1090   38.1960 C   0  0  0  0  0  0  0  0  0  0  0  0
   40.1470   22.5080   37.6230 C   0  0  0  0  0  0  0  0  0  0  0  0
   40.6620   22.8570   36.3800 C   0  0  0  0  0  0  0  0  0  0  0  0
   40.0180   23.8490   35.7170 N   0  0  0  0  0  0  0  0  0  0  0  0
   37.5880   24.6140   37.8350 H   0  0  0  0  0  0  0  0  0  0  0  0
   38.6820   22.7960   39.1680 H   0  0  0  0  0  0  0  0  0  0  0  0
   40.6560   21.7120   38.1660 H   0  0  0  0  0  0  0  0  0  0  0  0
   41.5300   22.3630   35.9660 H   0  0  0  0  0  0  0  0  0  0  0  0
   36.4110   28.6560   33.3490 C   0  0  0  0  0  3  0  0  0  0  0  0
   35.4090   29.4200   34.1770 C   0  0  0  0  0  2  0  0  0  0  0  0
   34.6800   30.2520   33.1190 C   0  0  0  0  0  2  0  0  0  0  0  0
   35.0700   29.6810   31.7790 C   0  0  0  0  0  2  0  0  0  0  0  0
   35.5480   28.2810   32.1620 C   0  0  0  0  0  2  0  0  0  0  0  0
  1  2  2  0  0  0  0
  1  6  1  0  0  0  0
  2  3  1  0  0  0  0
  3  8  1  0  0  0  0
  3  4  2  0  0  0  0
  5  4  1  0  0  0  0
  5  9  1  0  0  0  0
  6  5  2  0  0  0  0
  7  1  1  0  0  0  0
  9 10  1  0  0  0  0
 10 15  1  0  0  0  0
 10 11  2  0  0  0  0
 11 16  1  0  0  0  0
 12 17  1  0  0  0  0
 12 11  1  0  0  0  0
 13 12  2  0  0  0  0
 14  9  2  0  0  0  0
 14 13  1  0  0  0  0
 18 13  1  0  0  0  0
 19  2  1  0  0  0  0
 19 20  1  0  0  0  0
 21 20  1  0  0  0  0
 22 23  1  0  0  0  0
 22 21  1  0  0  0  0
 23 19  1  0  0  0  0
M  END
>  <minimizedAffinity>
-4.87289143

$$$$

 OpenBabel03272504493D

 23 25  0  0  0  0  0  0  0  0999 V2000
   38.0860   24.5450   33.8210 C   0  0  0  0  0  0  0  0  0  0  0  0
   38.0530   24.8000   35.1920 C   0  0  0  0  0  0  0  0  0  0  0  0
   37.6370   26.0630   35.5940 C   0  0  0  0  0  0  0  0  0  0  0  0
   37.2820   26.9920   34.6460 N   0  0  0  0  0  0  0  0  0  0  0  0
   37.3310   26.6950   33.3340 C   0  0  0  0  0  0  0  0  0  0  0  0
   37.7330   25.4750   32.9370 N   0  0  0  0  0  0  0  0  0  0  0  0
   38.4180   23.5470   33.5910 H   0  0  0  0  0  0  0  0  0  0  0  0
   37.5520   26.4300   36.6050 H   0  0  0  0  0  0  0  0  0  0  0  0
   36.9510   27.6950   32.3510 C   0  0  0  0  0  0  0  0  0  0  0  0
   36.2620   28.8200   32.7360 C   0  0  0  0  0  0  0  0  0  0  0  0
   35.8740   29.8050   31.8510 C   0  0  0  0  0  0  0  0  0  0  0  0
   36.2320   29.5750   30.5350 C   0  0  0  0  0  0  0  0  0  0  0  0
   36.9290   28.4510   30.1060 C   0  0  0  0  0  0  0  0  0  0  0  0
   37.2610   27.5460   31.0600 N   0  0  0  0  0  0  0  0  0  0  0  0
   36.0070   28.9480   33.7890 H   0  0  0  0  0  0  0  0  0  0  0  0
   35.3320   30.7000   32.1290 H   0  0  0  0  0  0  0  0  0  0  0  0
   35.9600   30.3100   29.7780 H   0  0  0  0  0  0  0  0  0  0  0  0
   37.1910   28.3070   29.0670 H   0  0  0  0  0  0  0  0  0  0  0  0
   38.4140   23.8670   36.2510 C   0  0  0  0  0  3  0  0  0  0  0  0
   38.0820   24.3210   37.6510 C   0  0  0  0  0  2  0  0  0  0  0  0
   38.8880   23.3430   38.5090 C   0  0  0  0  0  2  0  0  0  0  0  0
   39.8470   22.6430   37.5800 C   0  0  0  0  0  2  0  0  0  0  0  0
   39.9000   23.6110   36.3970 C   0  0  0  0  0  2  0  0  0  0  0  0
  1  2  1  0  0  0  0
  2  3  2  0  0  0  0
  2 19  1  0  0  0  0
  3  8  1  0  0  0  0
  4  3  1  0  0  0  0
  5  4  2  0  0  0  0
  6  5  1  0  0  0  0
  6  1  2  0  0  0  0
  7  1  1  0  0  0  0
  9 10  1  0  0  0  0
  9  5  1  0  0  0  0
 10 15  1  0  0  0  0
 11 16  1  0  0  0  0
 11 10  2  0  0  0  0
 12 11  1  0  0  0  0
 13 12  2  0  0  0  0
 13 14  1  0  0  0  0
 14  9  2  0  0  0  0
 17 12  1  0  0  0  0
 18 13  1  0  0  0  0
 19 23  1  0  0  0  0
 19 20  1  0  0  0  0
 20 21  1  0  0  0  0
 22 21  1  0  0  0  0
 23 22  1  0  0  0  0
M  END
>  <minimizedAffinity>
-4.86776257

$$$$

 OpenBabel03272504493D

 23 25  0  0  0  0  0  0  0  0999 V2000
   37.9280   24.6310   33.8700 C   0  0  0  0  0  0  0  0  0  0  0  0
   38.0120   24.8850   35.2390 C   0  0  0  0  0  0  0  0  0  0  0  0
   37.7130   26.1730   35.6660 C   0  0  0  0  0  0  0  0  0  0  0  0
   37.3530   27.1250   34.7430 N   0  0  0  0  0  0  0  0  0  0  0  0
   37.2870   26.8290   33.4320 C   0  0  0  0  0  0  0  0  0  0  0  0
   37.5750   25.5850   33.0100 N   0  0  0  0  0  0  0  0  0  0  0  0
   38.1740   23.6140   33.6190 H   0  0  0  0  0  0  0  0  0  0  0  0
   37.7260   26.5440   36.6790 H   0  0  0  0  0  0  0  0  0  0  0  0
   36.9050   27.8540   32.4760 C   0  0  0  0  0  0  0  0  0  0  0  0
   37.4990   27.9020   31.2370 C   0  0  0  0  0  0  0  0  0  0  0  0
   37.1790   28.8500   30.2870 C   0  0  0  0  0  0  0  0  0  0  0  0
   36.2080   29.7550   30.6750 C   0  0  0  0  0  0  0  0  0  0  0  0
   35.5850   29.7390   31.9170 C   0  0  0  0  0  0  0  0  0  0  0  0
   35.9750   28.7640   32.7750 N   0  0  0  0  0  0  0  0  0  0  0  0
   38.2590   27.1620   30.9870 H   0  0  0  0  0  0  0  0  0  0  0  0
   37.6310   28.9100   29.3050 H   0  0  0  0  0  0  0  0  0  0  0  0
   35.9030   30.5340   29.9760 H   0  0  0  0  0  0  0  0  0  0  0  0
   34.8290   30.4650   32.1830 H   0  0  0  0  0  0  0  0  0  0  0  0
   38.3850   23.9290   36.2720 C   0  0  0  0  0  3  0  0  0  0  0  0
   38.0690   24.3500   37.6860 C   0  0  0  0  0  2  0  0  0  0  0  0
   38.8850   23.3530   38.5120 C   0  0  0  0  0  2  0  0  0  0  0  0
   39.8330   22.6740   37.5550 C   0  0  0  0  0  2  0  0  0  0  0  0
   39.8720   23.6690   36.3950 C   0  0  0  0  0  2  0  0  0  0  0  0
  1  2  1  0  0  0  0
  2  3  2  0  0  0  0
  2 19  1  0  0  0  0
  3  8  1  0  0  0  0
  4  3  1  0  0  0  0
  5  4  2  0  0  0  0
  6  5  1  0  0  0  0
  6  1  2  0  0  0  0
  7  1  1  0  0  0  0
  9 14  1  0  0  0  0
  9  5  1  0  0  0  0
 10  9  2  0  0  0  0
 11 12  2  0  0  0  0
 11 10  1  0  0  0  0
 12 13  1  0  0  0  0
 13 18  1  0  0  0  0
 13 14  2  0  0  0  0
 15 10  1  0  0  0  0
 16 11  1  0  0  0  0
 17 12  1  0  0  0  0
 19 23  1  0  0  0  0
 19 20  1  0  0  0  0
 20 21  1  0  0  0  0
 22 21  1  0  0  0  0
 23 22  1  0  0  0  0
M  END
>  <minimizedAffinity>
-4.82166529

$$$$

 OpenBabel03272504493D

 23 25  0  0  0  0  0  0  0  0999 V2000
   37.2520   25.5150   32.5500 C   0  0  0  0  0  0  0  0  0  0  0  0
   36.4130   26.3880   31.8570 C   0  0  0  0  0  0  0  0  0  0  0  0
   35.4200   25.8230   31.0660 C   0  0  0  0  0  0  0  0  0  0  0  0
   35.3060   24.4550   30.9990 N   0  0  0  0  0  0  0  0  0  0  0  0
   36.1420   23.6560   31.6870 C   0  0  0  0  0  0  0  0  0  0  0  0
   37.1050   24.1950   32.4550 N   0  0  0  0  0  0  0  0  0  0  0  0
   37.9920   26.0280   33.1390 H   0  0  0  0  0  0  0  0  0  0  0  0
   34.6890   26.3420   30.4670 H   0  0  0  0  0  0  0  0  0  0  0  0
   36.0020   22.2120   31.5980 C   0  0  0  0  0  0  0  0  0  0  0  0
   34.9890   21.5710   32.2710 C   0  0  0  0  0  0  0  0  0  0  0  0
   34.8030   20.2050   32.2260 C   0  0  0  0  0  0  0  0  0  0  0  0
   35.7180   19.5220   31.4470 C   0  0  0  0  0  0  0  0  0  0  0  0
   36.7550   20.1330   30.7510 C   0  0  0  0  0  0  0  0  0  0  0  0
   36.8450   21.4810   30.8660 N   0  0  0  0  0  0  0  0  0  0  0  0
   34.2970   22.1630   32.8700 H   0  0  0  0  0  0  0  0  0  0  0  0
   34.0140   19.6760   32.7460 H   0  0  0  0  0  0  0  0  0  0  0  0
   35.6350   18.4370   31.3620 H   0  0  0  0  0  0  0  0  0  0  0  0
   37.4510   19.5630   30.1520 H   0  0  0  0  0  0  0  0  0  0  0  0
   36.4740   27.8430   31.8810 C   0  0  0  0  0  3  0  0  0  0  0  0
   35.2450   28.5320   32.4200 C   0  0  0  0  0  2  0  0  0  0  0  0
   35.4650   29.9810   31.9800 C   0  0  0  0  0  2  0  0  0  0  0  0
   36.5880   29.9600   30.9740 C   0  0  0  0  0  2  0  0  0  0  0  0
   36.5750   28.5000   30.5200 C   0  0  0  0  0  2  0  0  0  0  0  0
  1  7  1  0  0  0  0
  2 19  1  0  0  0  0
  2  1  2  0  0  0  0
  3  2  1  0  0  0  0
  4  3  2  0  0  0  0
  4  5  1  0  0  0  0
  5  6  2  0  0  0  0
  6  1  1  0  0  0  0
  8  3  1  0  0  0  0
  9  5  1  0  0  0  0
  9 10  1  0  0  0  0
 10 15  1  0  0  0  0
 11 10  2  0  0  0  0
 11 16  1  0  0  0  0
 12 11  1  0  0  0  0
 13 14  1  0  0  0  0
 13 12  2  0  0  0  0
 14  9  2  0  0  0  0
 17 12  1  0  0  0  0
 18 13  1  0  0  0  0
 19 20  1  0  0  0  0
 21 20  1  0  0  0  0
 22 21  1  0  0  0  0
 23 22  1  0  0  0  0
 23 19  1  0  0  0  0
M  END
>  <minimizedAffinity>
-4.790555

$$$$

 OpenBabel03272504493D

 23 25  0  0  0  0  0  0  0  0999 V2000
   37.2520   24.1350   32.5190 C   0  0  0  0  0  0  0  0  0  0  0  0
   36.3310   23.2580   31.9460 C   0  0  0  0  0  0  0  0  0  0  0  0
   35.3310   23.8130   31.1570 C   0  0  0  0  0  0  0  0  0  0  0  0
   35.2880   25.1740   30.9770 N   0  0  0  0  0  0  0  0  0  0  0  0
   36.2020   25.9780   31.5530 C   0  0  0  0  0  0  0  0  0  0  0  0
   37.1730   25.4480   32.3170 N   0  0  0  0  0  0  0  0  0  0  0  0
   37.9930   23.6300   33.1140 H   0  0  0  0  0  0  0  0  0  0  0  0
   34.5410   23.2890   30.6410 H   0  0  0  0  0  0  0  0  0  0  0  0
   36.1360   27.4150   31.3470 C   0  0  0  0  0  0  0  0  0  0  0  0
   36.8620   28.0050   30.3410 C   0  0  0  0  0  0  0  0  0  0  0  0
   36.8400   29.3630   30.0960 C   0  0  0  0  0  0  0  0  0  0  0  0
   36.0270   30.0920   30.9440 C   0  0  0  0  0  0  0  0  0  0  0  0
   35.2770   29.5320   31.9710 C   0  0  0  0  0  0  0  0  0  0  0  0
   35.3730   28.1870   32.1240 N   0  0  0  0  0  0  0  0  0  0  0  0
   37.4860   27.3790   29.7030 H   0  0  0  0  0  0  0  0  0  0  0  0
   37.4020   29.8530   29.3100 H   0  0  0  0  0  0  0  0  0  0  0  0
   35.9590   31.1720   30.8110 H   0  0  0  0  0  0  0  0  0  0  0  0
   34.6520   30.1360   32.6140 H   0  0  0  0  0  0  0  0  0  0  0  0
   36.3130   21.8090   32.0920 C   0  0  0  0  0  3  0  0  0  0  0  0
   36.6640   21.0310   30.8490 C   0  0  0  0  0  2  0  0  0  0  0  0
   36.2080   19.6160   31.2110 C   0  0  0  0  0  2  0  0  0  0  0  0
   35.3580   19.7410   32.4500 C   0  0  0  0  0  2  0  0  0  0  0  0
   34.9550   21.2160   32.4060 C   0  0  0  0  0  2  0  0  0  0  0  0
  1  7  1  0  0  0  0
  2 19  1  0  0  0  0
  2  1  2  0  0  0  0
  3  2  1  0  0  0  0
  4  3  2  0  0  0  0
  4  5  1  0  0  0  0
  5  6  2  0  0  0  0
  6  1  1  0  0  0  0
  8  3  1  0  0  0  0
  9  5  1  0  0  0  0
  9 14  1  0  0  0  0
 10  9  2  0  0  0  0
 11 10  1  0  0  0  0
 11 12  2  0  0  0  0
 12 13  1  0  0  0  0
 13 14  2  0  0  0  0
 13 18  1  0  0  0  0
 15 10  1  0  0  0  0
 16 11  1  0  0  0  0
 17 12  1  0  0  0  0
 19 23  1  0  0  0  0
 20 21  1  0  0  0  0
 20 19  1  0  0  0  0
 21 22  1  0  0  0  0
 23 22  1  0  0  0  0
M  END
>  <minimizedAffinity>
-4.76634645

$$$$

 OpenBabel03272504493D

 23 25  0  0  0  0  0  0  0  0999 V2000
   37.7190   26.4670   35.6490 C   0  0  0  0  0  0  0  0  0  0  0  0
   38.0180   25.1400   35.3390 C   0  0  0  0  0  0  0  0  0  0  0  0
   38.0030   24.7820   33.9970 C   0  0  0  0  0  0  0  0  0  0  0  0
   37.6990   25.7280   33.0480 N   0  0  0  0  0  0  0  0  0  0  0  0
   37.4170   26.9960   33.4000 C   0  0  0  0  0  0  0  0  0  0  0  0
   37.4300   27.3510   34.6970 N   0  0  0  0  0  0  0  0  0  0  0  0
   37.7520   26.6650   36.7070 H   0  0  0  0  0  0  0  0  0  0  0  0
   38.2080   23.8090   33.5790 H   0  0  0  0  0  0  0  0  0  0  0  0
   37.0990   27.9780   32.3770 C   0  0  0  0  0  0  0  0  0  0  0  0
   36.1440   28.9380   32.6110 C   0  0  0  0  0  0  0  0  0  0  0  0
   35.7980   29.8970   31.6810 C   0  0  0  0  0  0  0  0  0  0  0  0
   36.4890   29.8210   30.4860 C   0  0  0  0  0  0  0  0  0  0  0  0
   37.4610   28.8670   30.2120 C   0  0  0  0  0  0  0  0  0  0  0  0
   37.7230   27.9710   31.1970 N   0  0  0  0  0  0  0  0  0  0  0  0
   35.6310   28.9490   33.5740 H   0  0  0  0  0  0  0  0  0  0  0  0
   35.0500   30.6640   31.8410 H   0  0  0  0  0  0  0  0  0  0  0  0
   36.2690   30.5460   29.7020 H   0  0  0  0  0  0  0  0  0  0  0  0
   37.9800   28.8400   29.2640 H   0  0  0  0  0  0  0  0  0  0  0  0
   38.3490   24.0860   36.2880 C   0  0  0  0  0  3  0  0  0  0  0  0
   38.1030   24.4220   37.7380 C   0  0  0  0  0  2  0  0  0  0  0  0
   38.8670   23.3110   38.4630 C   0  0  0  0  0  2  0  0  0  0  0  0
   39.7360   22.6410   37.4300 C   0  0  0  0  0  2  0  0  0  0  0  0
   39.8160   23.7130   36.3430 C   0  0  0  0  0  2  0  0  0  0  0  0
  1  7  1  0  0  0  0
  2  1  1  0  0  0  0
  2 19  1  0  0  0  0
  3  2  2  0  0  0  0
  4  5  2  0  0  0  0
  4  3  1  0  0  0  0
  5  6  1  0  0  0  0
  6  1  2  0  0  0  0
  8  3  1  0  0  0  0
  9 10  1  0  0  0  0
  9  5  1  0  0  0  0
 10 15  1  0  0  0  0
 11 16  1  0  0  0  0
 11 10  2  0  0  0  0
 12 11  1  0  0  0  0
 13 12  2  0  0  0  0
 13 14  1  0  0  0  0
 14  9  2  0  0  0  0
 17 12  1  0  0  0  0
 18 13  1  0  0  0  0
 19 23  1  0  0  0  0
 19 20  1  0  0  0  0
 20 21  1  0  0  0  0
 22 21  1  0  0  0  0
 23 22  1  0  0  0  0
M  END
>  <minimizedAffinity>
-4.76237488

$$$$

 OpenBabel03272504493D

 23 25  0  0  0  0  0  0  0  0999 V2000
   37.4880   26.4100   35.3860 C   0  0  0  0  0  0  0  0  0  0  0  0
   38.0140   25.1540   35.0820 C   0  0  0  0  0  0  0  0  0  0  0  0
   38.2550   24.8720   33.7430 C   0  0  0  0  0  0  0  0  0  0  0  0
   37.9730   25.8220   32.7910 N   0  0  0  0  0  0  0  0  0  0  0  0
   37.4660   27.0200   33.1360 C   0  0  0  0  0  0  0  0  0  0  0  0
   37.2300   27.3000   34.4300 N   0  0  0  0  0  0  0  0  0  0  0  0
   37.3300   26.5510   36.4410 H   0  0  0  0  0  0  0  0  0  0  0  0
   38.6560   23.9600   33.3300 H   0  0  0  0  0  0  0  0  0  0  0  0
   37.1760   28.0070   32.1100 C   0  0  0  0  0  0  0  0  0  0  0  0
   37.8760   28.0050   30.9280 C   0  0  0  0  0  0  0  0  0  0  0  0
   37.6470   28.9150   29.9170 C   0  0  0  0  0  0  0  0  0  0  0  0
   36.6510   29.8370   30.1820 C   0  0  0  0  0  0  0  0  0  0  0  0
   35.9200   29.8710   31.3630 C   0  0  0  0  0  0  0  0  0  0  0  0
   36.2280   28.9310   32.2910 N   0  0  0  0  0  0  0  0  0  0  0  0
   38.6510   27.2530   30.7750 H   0  0  0  0  0  0  0  0  0  0  0  0
   38.1840   28.9350   28.9760 H   0  0  0  0  0  0  0  0  0  0  0  0
   36.4130   30.5880   29.4280 H   0  0  0  0  0  0  0  0  0  0  0  0
   35.1480   30.6090   31.5330 H   0  0  0  0  0  0  0  0  0  0  0  0
   38.3370   24.1010   36.0350 C   0  0  0  0  0  3  0  0  0  0  0  0
   38.0600   24.4310   37.4800 C   0  0  0  0  0  2  0  0  0  0  0  0
   38.8220   23.3270   38.2170 C   0  0  0  0  0  2  0  0  0  0  0  0
   39.7180   22.6680   37.2000 C   0  0  0  0  0  2  0  0  0  0  0  0
   39.8070   23.7450   36.1170 C   0  0  0  0  0  2  0  0  0  0  0  0
  1  7  1  0  0  0  0
  2  1  1  0  0  0  0
  2 19  1  0  0  0  0
  3  2  2  0  0  0  0
  4  5  2  0  0  0  0
  4  3  1  0  0  0  0
  5  6  1  0  0  0  0
  6  1  2  0  0  0  0
  8  3  1  0  0  0  0
  9 14  1  0  0  0  0
  9  5  1  0  0  0  0
 10  9  2  0  0  0  0
 11 12  2  0  0  0  0
 11 10  1  0  0  0  0
 12 13  1  0  0  0  0
 13 18  1  0  0  0  0
 13 14  2  0  0  0  0
 15 10  1  0  0  0  0
 16 11  1  0  0  0  0
 17 12  1  0  0  0  0
 19 23  1  0  0  0  0
 19 20  1  0  0  0  0
 20 21  1  0  0  0  0
 22 21  1  0  0  0  0
 23 22  1  0  0  0  0
M  END
>  <minimizedAffinity>
-4.71781063

$$$$
