
 OpenBabel03272508453D

 23 25  0  0  0  0  0  0  0  0999 V2000
   35.8830   29.8100   49.0810 C   0  0  0  0  0  0  0  0  0  0  0  0
   36.6390   29.1580   50.0490 C   0  0  0  0  0  0  0  0  0  0  0  0
   37.8020   29.9460   50.0830 C   0  0  0  0  0  0  0  0  0  0  0  0
   37.6900   30.9750   49.1850 C   0  0  0  0  0  0  0  0  0  0  0  0
   36.5210   30.8640   48.5960 O   0  0  0  0  0  0  0  0  0  0  0  0
   36.3340   28.2770   50.5860 H   0  0  0  0  0  0  0  0  0  0  0  0
   38.6320   29.7020   50.7630 H   0  0  0  0  0  0  0  0  0  0  0  0
   38.6770   32.0130   48.9160 C   0  0  0  0  0  3  0  0  0  0  0  0
   38.3230   33.3560   49.5130 C   0  0  0  0  0  2  0  0  0  0  0  0
   39.4240   34.2230   48.9210 C   0  0  0  0  0  2  0  0  0  0  0  0
   39.7840   33.5720   47.5930 C   0  0  0  0  0  2  0  0  0  0  0  0
   38.8060   32.4060   47.4580 C   0  0  0  0  0  2  0  0  0  0  0  0
   34.5400   29.3600   48.6670 C   0  0  0  0  0  0  0  0  0  0  0  0
   33.7850   28.8850   49.5340 O   0  0  0  0  0  0  0  0  0  0  0  0
   32.4330   29.3690   45.6940 C   0  0  0  0  0  0  0  0  0  0  0  0
   33.3280   29.6920   44.6740 C   0  0  0  0  0  0  0  0  0  0  0  0
   34.6550   29.9080   44.9870 C   0  0  0  0  0  0  0  0  0  0  0  0
   35.0170   29.7930   46.2890 N   0  0  0  0  0  0  0  0  0  0  0  0
   34.1390   29.4790   47.2770 C   0  0  0  0  0  0  0  0  0  0  0  0
   32.8550   29.2710   46.9600 N   0  0  0  0  0  0  0  0  0  0  0  0
   31.4130   29.2110   45.3930 H   0  0  0  0  0  0  0  0  0  0  0  0
   33.1030   29.7980   43.6230 H   0  0  0  0  0  0  0  0  0  0  0  0
   35.4800   30.1640   44.3380 H   0  0  0  0  0  0  0  0  0  0  0  0
  1  2  2  0  0  0  0
  2  3  1  0  0  0  0
  2  6  1  0  0  0  0
  3  7  1  0  0  0  0
  4  3  2  0  0  0  0
  5  1  1  0  0  0  0
  5  4  1  0  0  0  0
  8  4  1  0  0  0  0
  8  9  1  0  0  0  0
 10  9  1  0  0  0  0
 11 10  1  0  0  0  0
 12 11  1  0  0  0  0
 12  8  1  0  0  0  0
 13  1  1  0  0  0  0
 13 14  2  0  0  0  0
 15 20  1  0  0  0  0
 16 17  1  0  0  0  0
 16 15  2  0  0  0  0
 17 18  2  0  0  0  0
 18 19  1  0  0  0  0
 19 13  1  0  0  0  0
 20 19  2  0  0  0  0
 21 15  1  0  0  0  0
 22 16  1  0  0  0  0
 23 17  1  0  0  0  0
M  END
>  <minimizedAffinity>
-5.28552294

>  <minimizedRMSD>
1.30051386

$$$$
