
 OpenBabel03272505353D

 31 33  0  0  1  0  0  0  0  0999 V2000
   38.9190   23.1480   37.2590 C   0  0  0  0  0  0  0  0  0  0  0  0
   40.1990   22.6120   37.2980 C   0  0  0  0  0  0  0  0  0  0  0  0
   40.7380   22.1060   36.1120 C   0  0  0  0  0  0  0  0  0  0  0  0
   39.9630   22.1730   34.9790 N   0  0  0  0  0  0  0  0  0  0  0  0
   38.7260   22.7010   34.9840 C   0  0  0  0  0  0  0  0  0  0  0  0
   38.2320   23.1740   36.1140 N   0  0  0  0  0  0  0  0  0  0  0  0
   38.0120   22.7220   33.7570 N   0  0  0  0  0  0  0  0  0  0  0  0
   37.1580   21.5840   33.4230 C   0  0  0  0  0  0  0  0  0  0  0  0
   37.3230   21.1930   31.9640 C   0  0  0  0  0  0  0  0  0  0  0  0
   37.3110   22.3210   31.0820 N   0  0  0  0  0  0  0  0  0  0  0  0
   37.0600   23.5720   31.7440 C   0  0  0  0  0  0  0  0  0  0  0  0
   38.1070   23.8340   32.8290 C   0  0  1  0  0  0  0  0  0  0  0  0
   40.7410   22.5950   38.2210 H   0  0  0  0  0  0  0  0  0  0  0  0
   41.7180   21.6840   36.0900 H   0  0  0  0  0  0  0  0  0  0  0  0
   36.1130   21.8050   33.6540 H   0  0  0  0  0  0  0  0  0  0  0  0
   37.4870   20.7060   34.0170 H   0  0  0  0  0  0  0  0  0  0  0  0
   36.4520   20.5560   31.6850 H   0  0  0  0  0  0  0  0  0  0  0  0
   38.2060   20.5200   31.8110 H   0  0  0  0  0  0  0  0  0  0  0  0
   38.2670   22.4200   30.6250 H   0  0  0  0  0  0  0  0  0  0  0  0
   37.1010   24.3530   30.9520 H   0  0  0  0  0  0  0  0  0  0  0  0
   36.0820   23.5350   32.2650 H   0  0  0  0  0  0  0  0  0  0  0  0
   39.0950   23.8330   32.3350 H   0  0  0  0  0  0  0  0  0  0  0  0
   37.9300   25.1810   33.4540 C   0  0  0  0  0  3  0  0  0  0  0  0
   39.2590   25.9310   33.4350 C   0  0  0  0  0  2  0  0  0  0  0  0
   38.9900   27.1420   32.5790 C   0  0  0  0  0  2  0  0  0  0  0  0
   37.5660   27.4500   32.9210 C   0  0  0  0  0  2  0  0  0  0  0  0
   36.9140   26.0630   32.8220 C   0  0  0  0  0  2  0  0  0  0  0  0
   38.3310   23.6950   38.5270 C   0  0  0  0  0  0  0  0  0  0  0  0
   37.9430   25.0260   38.3190 F   0  0  0  0  0  0  0  0  0  0  0  0
   37.3200   22.8890   38.9110 F   0  0  0  0  0  0  0  0  0  0  0  0
   39.3680   23.7340   39.4640 F   0  0  0  0  0  0  0  0  0  0  0  0
  1  2  1  0  0  0  0
  1 28  1  0  0  0  0
  2 13  1  0  0  0  0
  3  2  2  0  0  0  0
  4  5  2  0  0  0  0
  4  3  1  0  0  0  0
  5  6  1  0  0  0  0
  6  1  2  0  0  0  0
  7  5  1  0  0  0  0
  8 15  1  0  0  0  0
  8  7  1  0  0  0  0
  8 16  1  0  0  0  0
  9  8  1  0  0  0  0
 10 11  1  0  0  0  0
 10  9  1  0  0  0  0
 11 21  1  0  0  0  0
 11 12  1  0  0  0  0
 12 22  1  6  0  0  0
 12 23  1  0  0  0  0
 12  7  1  0  0  0  0
 14  3  1  0  0  0  0
 17  9  1  0  0  0  0
 18  9  1  0  0  0  0
 19 10  1  0  0  0  0
 20 11  1  0  0  0  0
 24 23  1  0  0  0  0
 25 26  1  0  0  0  0
 25 24  1  0  0  0  0
 27 26  1  0  0  0  0
 27 23  1  0  0  0  0
 28 30  1  0  0  0  0
 28 31  1  0  0  0  0
 29 28  1  0  0  0  0
M  END
>  <minimizedAffinity>
-5.83234167

$$$$

 OpenBabel03272505353D

 31 33  0  0  1  0  0  0  0  0999 V2000
   36.8180   20.9670   33.0050 C   0  0  0  0  0  0  0  0  0  0  0  0
   37.7840   20.4010   32.1830 C   0  0  0  0  0  0  0  0  0  0  0  0
   38.9300   21.1500   31.9020 C   0  0  0  0  0  0  0  0  0  0  0  0
   39.0260   22.4040   32.4590 N   0  0  0  0  0  0  0  0  0  0  0  0
   38.0660   22.9150   33.2490 C   0  0  0  0  0  0  0  0  0  0  0  0
   36.9900   22.1920   33.5050 N   0  0  0  0  0  0  0  0  0  0  0  0
   38.2660   24.2190   33.7740 N   0  0  0  0  0  0  0  0  0  0  0  0
   37.7760   25.3650   33.0110 C   0  0  0  0  0  0  0  0  0  0  0  0
   38.8000   26.4870   33.0000 C   0  0  0  0  0  0  0  0  0  0  0  0
   39.3660   26.7350   34.2930 N   0  0  0  0  0  0  0  0  0  0  0  0
   38.7890   25.9370   35.3400 C   0  0  0  0  0  0  0  0  0  0  0  0
   38.9440   24.4450   35.0370 C   0  0  1  0  0  0  0  0  0  0  0  0
   37.6370   19.4180   31.7870 H   0  0  0  0  0  0  0  0  0  0  0  0
   39.7020   20.7600   31.2760 H   0  0  0  0  0  0  0  0  0  0  0  0
   36.8190   25.7100   33.4080 H   0  0  0  0  0  0  0  0  0  0  0  0
   37.6440   25.0570   31.9520 H   0  0  0  0  0  0  0  0  0  0  0  0
   38.2740   27.4200   32.6940 H   0  0  0  0  0  0  0  0  0  0  0  0
   39.5710   26.3390   32.2000 H   0  0  0  0  0  0  0  0  0  0  0  0
   40.4000   26.4900   34.2760 H   0  0  0  0  0  0  0  0  0  0  0  0
   39.3310   26.2140   36.2720 H   0  0  0  0  0  0  0  0  0  0  0  0
   37.6980   26.1260   35.4020 H   0  0  0  0  0  0  0  0  0  0  0  0
   40.0250   24.2450   34.9300 H   0  0  0  0  0  0  0  0  0  0  0  0
   38.4520   23.5980   36.1670 C   0  0  0  0  0  3  0  0  0  0  0  0
   39.5230   22.5810   36.5470 C   0  0  0  0  0  2  0  0  0  0  0  0
   39.8740   22.9250   37.9720 C   0  0  0  0  0  2  0  0  0  0  0  0
   38.5520   23.3760   38.5130 C   0  0  0  0  0  2  0  0  0  0  0  0
   38.0680   24.3240   37.4060 C   0  0  0  0  0  2  0  0  0  0  0  0
   35.5840   20.1700   33.3150 C   0  0  0  0  0  0  0  0  0  0  0  0
   34.5170   20.6530   32.5450 F   0  0  0  0  0  0  0  0  0  0  0  0
   35.8560   18.8650   33.1070 F   0  0  0  0  0  0  0  0  0  0  0  0
   35.2570   20.4420   34.6470 F   0  0  0  0  0  0  0  0  0  0  0  0
  1 28  1  0  0  0  0
  1  6  1  0  0  0  0
  2  1  2  0  0  0  0
  3  2  1  0  0  0  0
  3  4  2  0  0  0  0
  4  5  1  0  0  0  0
  5  6  2  0  0  0  0
  5  7  1  0  0  0  0
  7 12  1  0  0  0  0
  8 15  1  0  0  0  0
  8  7  1  0  0  0  0
  9  8  1  0  0  0  0
  9 10  1  0  0  0  0
 10 11  1  0  0  0  0
 11 21  1  0  0  0  0
 11 20  1  0  0  0  0
 12 22  1  6  0  0  0
 12 11  1  0  0  0  0
 12 23  1  0  0  0  0
 13  2  1  0  0  0  0
 14  3  1  0  0  0  0
 16  8  1  0  0  0  0
 17  9  1  0  0  0  0
 18  9  1  0  0  0  0
 19 10  1  0  0  0  0
 23 24  1  0  0  0  0
 23 27  1  0  0  0  0
 24 25  1  0  0  0  0
 25 26  1  0  0  0  0
 27 26  1  0  0  0  0
 28 31  1  0  0  0  0
 29 28  1  0  0  0  0
 30 28  1  0  0  0  0
M  END
>  <minimizedAffinity>
-5.6933322

$$$$

 OpenBabel03272505353D

 31 33  0  0  1  0  0  0  0  0999 V2000
   37.2050   26.2280   33.5440 C   0  0  0  0  0  0  0  0  0  0  0  0
   37.2790   27.5120   34.0700 C   0  0  0  0  0  0  0  0  0  0  0  0
   37.8060   27.6670   35.3550 C   0  0  0  0  0  0  0  0  0  0  0  0
   38.2180   26.5350   36.0180 N   0  0  0  0  0  0  0  0  0  0  0  0
   38.1280   25.3090   35.4720 C   0  0  0  0  0  0  0  0  0  0  0  0
   37.6280   25.1810   34.2560 N   0  0  0  0  0  0  0  0  0  0  0  0
   38.5850   24.2070   36.2420 N   0  0  0  0  0  0  0  0  0  0  0  0
   37.6340   23.5190   37.1130 C   0  0  0  0  0  0  0  0  0  0  0  0
   38.2610   23.2130   38.4630 C   0  0  0  0  0  0  0  0  0  0  0  0
   39.5820   22.6710   38.3530 N   0  0  0  0  0  0  0  0  0  0  0  0
   40.0050   22.4490   36.9970 C   0  0  0  0  0  0  0  0  0  0  0  0
   39.9610   23.7500   36.1920 C   0  0  1  0  0  0  0  0  0  0  0  0
   36.9370   28.3440   33.4920 H   0  0  0  0  0  0  0  0  0  0  0  0
   37.8850   28.6320   35.8040 H   0  0  0  0  0  0  0  0  0  0  0  0
   37.2650   22.6090   36.6360 H   0  0  0  0  0  0  0  0  0  0  0  0
   36.7810   24.2000   37.3160 H   0  0  0  0  0  0  0  0  0  0  0  0
   37.6330   22.4350   38.9570 H   0  0  0  0  0  0  0  0  0  0  0  0
   38.1980   24.0890   39.1590 H   0  0  0  0  0  0  0  0  0  0  0  0
   40.2800   23.3590   38.7660 H   0  0  0  0  0  0  0  0  0  0  0  0
   41.0440   22.0530   37.0600 H   0  0  0  0  0  0  0  0  0  0  0  0
   39.3060   21.7520   36.4910 H   0  0  0  0  0  0  0  0  0  0  0  0
   40.6210   24.4730   36.7050 H   0  0  0  0  0  0  0  0  0  0  0  0
   40.5040   23.5640   34.8110 C   0  0  0  0  0  3  0  0  0  0  0  0
   41.7230   24.4620   34.6170 C   0  0  0  0  0  2  0  0  0  0  0  0
   42.8560   23.5000   34.3620 C   0  0  0  0  0  2  0  0  0  0  0  0
   42.1680   22.4100   33.6010 C   0  0  0  0  0  2  0  0  0  0  0  0
   40.9110   22.1800   34.4520 C   0  0  0  0  0  2  0  0  0  0  0  0
   36.6410   26.0500   32.1640 C   0  0  0  0  0  0  0  0  0  0  0  0
   35.6600   27.0250   31.9380 F   0  0  0  0  0  0  0  0  0  0  0  0
   37.6590   26.0890   31.2800 F   0  0  0  0  0  0  0  0  0  0  0  0
   35.9770   24.8200   32.1600 F   0  0  0  0  0  0  0  0  0  0  0  0
  1  2  2  0  0  0  0
  1  6  1  0  0  0  0
  2  3  1  0  0  0  0
  3 14  1  0  0  0  0
  3  4  2  0  0  0  0
  5  4  1  0  0  0  0
  5  7  1  0  0  0  0
  6  5  2  0  0  0  0
  7  8  1  0  0  0  0
  8 16  1  0  0  0  0
  8  9  1  0  0  0  0
  9 17  1  0  0  0  0
  9 18  1  0  0  0  0
 10  9  1  0  0  0  0
 10 19  1  0  0  0  0
 11 20  1  0  0  0  0
 11 10  1  0  0  0  0
 12  7  1  0  0  0  0
 12 22  1  1  0  0  0
 12 11  1  0  0  0  0
 13  2  1  0  0  0  0
 15  8  1  0  0  0  0
 21 11  1  0  0  0  0
 23 12  1  0  0  0  0
 24 23  1  0  0  0  0
 25 24  1  0  0  0  0
 26 25  1  0  0  0  0
 26 27  1  0  0  0  0
 27 23  1  0  0  0  0
 28  1  1  0  0  0  0
 29 28  1  0  0  0  0
 30 28  1  0  0  0  0
 31 28  1  0  0  0  0
M  END
>  <minimizedAffinity>
-5.46753263

$$$$

 OpenBabel03272505353D

 31 33  0  0  1  0  0  0  0  0999 V2000
   37.1620   23.2590   31.6350 C   0  0  0  0  0  0  0  0  0  0  0  0
   37.8600   23.7560   30.5420 C   0  0  0  0  0  0  0  0  0  0  0  0
   38.6010   24.9290   30.7120 C   0  0  0  0  0  0  0  0  0  0  0  0
   38.5900   25.5170   31.9540 N   0  0  0  0  0  0  0  0  0  0  0  0
   37.8990   25.0030   32.9870 C   0  0  0  0  0  0  0  0  0  0  0  0
   37.2040   23.8940   32.8090 N   0  0  0  0  0  0  0  0  0  0  0  0
   37.9570   25.6910   34.2280 N   0  0  0  0  0  0  0  0  0  0  0  0
   36.9560   26.7180   34.5080 C   0  0  0  0  0  0  0  0  0  0  0  0
   37.5980   27.9410   35.1410 C   0  0  0  0  0  0  0  0  0  0  0  0
   38.5250   27.6070   36.1810 N   0  0  0  0  0  0  0  0  0  0  0  0
   38.5900   26.2000   36.4690 C   0  0  0  0  0  0  0  0  0  0  0  0
   38.9780   25.4060   35.2190 C   0  0  1  0  0  0  0  0  0  0  0  0
   37.8200   23.2400   29.6060 H   0  0  0  0  0  0  0  0  0  0  0  0
   39.1550   25.3500   29.9030 H   0  0  0  0  0  0  0  0  0  0  0  0
   36.1620   26.3190   35.1430 H   0  0  0  0  0  0  0  0  0  0  0  0
   36.5200   27.0610   33.5470 H   0  0  0  0  0  0  0  0  0  0  0  0
   36.7860   28.5410   35.6130 H   0  0  0  0  0  0  0  0  0  0  0  0
   38.0270   28.6310   34.3700 H   0  0  0  0  0  0  0  0  0  0  0  0
   39.5050   27.8890   35.8820 H   0  0  0  0  0  0  0  0  0  0  0  0
   39.3550   26.0840   37.2690 H   0  0  0  0  0  0  0  0  0  0  0  0
   37.5890   25.8280   36.7690 H   0  0  0  0  0  0  0  0  0  0  0  0
   39.9560   25.7920   34.8790 H   0  0  0  0  0  0  0  0  0  0  0  0
   39.1620   23.9530   35.5220 C   0  0  0  0  0  3  0  0  0  0  0  0
   40.5690   23.5220   35.1200 C   0  0  0  0  0  2  0  0  0  0  0  0
   41.2070   23.0830   36.4140 C   0  0  0  0  0  2  0  0  0  0  0  0
   40.0450   22.4830   37.1420 C   0  0  0  0  0  2  0  0  0  0  0  0
   38.9630   23.5540   36.9400 C   0  0  0  0  0  2  0  0  0  0  0  0
   36.3640   21.9990   31.4650 C   0  0  0  0  0  0  0  0  0  0  0  0
   37.1290   21.0620   30.7560 F   0  0  0  0  0  0  0  0  0  0  0  0
   35.9760   21.5720   32.6840 F   0  0  0  0  0  0  0  0  0  0  0  0
   35.2810   22.3200   30.6410 F   0  0  0  0  0  0  0  0  0  0  0  0
  1  6  1  0  0  0  0
  2  3  1  0  0  0  0
  2  1  2  0  0  0  0
  3  4  2  0  0  0  0
  4  5  1  0  0  0  0
  5  7  1  0  0  0  0
  6  5  2  0  0  0  0
  7  8  1  0  0  0  0
  7 12  1  0  0  0  0
  8  9  1  0  0  0  0
  8 15  1  0  0  0  0
  9 17  1  0  0  0  0
  9 10  1  0  0  0  0
 10 11  1  0  0  0  0
 11 21  1  0  0  0  0
 11 20  1  0  0  0  0
 12 22  1  6  0  0  0
 12 23  1  0  0  0  0
 12 11  1  0  0  0  0
 13  2  1  0  0  0  0
 14  3  1  0  0  0  0
 16  8  1  0  0  0  0
 18  9  1  0  0  0  0
 19 10  1  0  0  0  0
 23 27  1  0  0  0  0
 24 23  1  0  0  0  0
 24 25  1  0  0  0  0
 25 26  1  0  0  0  0
 27 26  1  0  0  0  0
 28  1  1  0  0  0  0
 28 30  1  0  0  0  0
 29 28  1  0  0  0  0
 31 28  1  0  0  0  0
M  END
>  <minimizedAffinity>
-5.36945963

$$$$

 OpenBabel03272505353D

 31 33  0  0  1  0  0  0  0  0999 V2000
   38.0870   23.4530   36.6260 C   0  0  0  0  0  0  0  0  0  0  0  0
   37.7980   22.1890   36.1280 C   0  0  0  0  0  0  0  0  0  0  0  0
   37.6760   22.0390   34.7430 C   0  0  0  0  0  0  0  0  0  0  0  0
   37.8510   23.1570   33.9620 N   0  0  0  0  0  0  0  0  0  0  0  0
   38.1300   24.3630   34.4850 C   0  0  0  0  0  0  0  0  0  0  0  0
   38.2420   24.4870   35.7960 N   0  0  0  0  0  0  0  0  0  0  0  0
   38.2930   25.4510   33.5880 N   0  0  0  0  0  0  0  0  0  0  0  0
   37.1220   26.2510   33.2350 C   0  0  0  0  0  0  0  0  0  0  0  0
   37.1020   26.5540   31.7460 C   0  0  0  0  0  0  0  0  0  0  0  0
   38.3770   26.9770   31.2480 N   0  0  0  0  0  0  0  0  0  0  0  0
   39.3820   27.1100   32.2670 C   0  0  0  0  0  0  0  0  0  0  0  0
   39.5820   25.7870   33.0110 C   0  0  1  0  0  0  0  0  0  0  0  0
   37.6750   21.3670   36.8010 H   0  0  0  0  0  0  0  0  0  0  0  0
   37.4540   21.0890   34.3110 H   0  0  0  0  0  0  0  0  0  0  0  0
   37.0930   27.1710   33.8230 H   0  0  0  0  0  0  0  0  0  0  0  0
   36.2090   25.6540   33.4400 H   0  0  0  0  0  0  0  0  0  0  0  0
   36.3960   27.4010   31.5850 H   0  0  0  0  0  0  0  0  0  0  0  0
   36.6520   25.7150   31.1560 H   0  0  0  0  0  0  0  0  0  0  0  0
   38.7470   26.2480   30.5670 H   0  0  0  0  0  0  0  0  0  0  0  0
   40.3140   27.4180   31.7420 H   0  0  0  0  0  0  0  0  0  0  0  0
   39.0520   27.8440   33.0300 H   0  0  0  0  0  0  0  0  0  0  0  0
   39.8710   25.0310   32.2590 H   0  0  0  0  0  0  0  0  0  0  0  0
   40.7010   25.8730   33.9980 C   0  0  0  0  0  3  0  0  0  0  0  0
   41.6110   24.6570   33.8450 C   0  0  0  0  0  2  0  0  0  0  0  0
   42.9430   25.2390   33.4450 C   0  0  0  0  0  2  0  0  0  0  0  0
   42.9580   26.5270   34.2080 C   0  0  0  0  0  2  0  0  0  0  0  0
   41.5590   27.0840   33.9080 C   0  0  0  0  0  2  0  0  0  0  0  0
   38.2230   23.6250   38.1110 C   0  0  0  0  0  0  0  0  0  0  0  0
   38.0850   24.9830   38.4320 F   0  0  0  0  0  0  0  0  0  0  0  0
   37.3170   22.8290   38.7170 F   0  0  0  0  0  0  0  0  0  0  0  0
   39.5380   23.2800   38.4350 F   0  0  0  0  0  0  0  0  0  0  0  0
  1 28  1  0  0  0  0
  2  1  1  0  0  0  0
  2 13  1  0  0  0  0
  3  2  2  0  0  0  0
  4  5  2  0  0  0  0
  4  3  1  0  0  0  0
  5  6  1  0  0  0  0
  6  1  2  0  0  0  0
  7  5  1  0  0  0  0
  8 16  1  0  0  0  0
  8  7  1  0  0  0  0
  8 15  1  0  0  0  0
  9  8  1  0  0  0  0
 10  9  1  0  0  0  0
 10 11  1  0  0  0  0
 11 12  1  0  0  0  0
 11 21  1  0  0  0  0
 12 22  1  6  0  0  0
 12  7  1  0  0  0  0
 12 23  1  0  0  0  0
 14  3  1  0  0  0  0
 17  9  1  0  0  0  0
 18  9  1  0  0  0  0
 19 10  1  0  0  0  0
 20 11  1  0  0  0  0
 24 23  1  0  0  0  0
 25 24  1  0  0  0  0
 25 26  1  0  0  0  0
 27 23  1  0  0  0  0
 27 26  1  0  0  0  0
 28 29  1  0  0  0  0
 28 31  1  0  0  0  0
 28 30  1  0  0  0  0
M  END
>  <minimizedAffinity>
-5.3076334

$$$$

 OpenBabel03272505353D

 31 33  0  0  1  0  0  0  0  0999 V2000
   37.8790   26.1930   34.7070 C   0  0  0  0  0  0  0  0  0  0  0  0
   37.0300   27.2820   34.5590 C   0  0  0  0  0  0  0  0  0  0  0  0
   36.7080   27.6960   33.2640 C   0  0  0  0  0  0  0  0  0  0  0  0
   37.2570   26.9960   32.2150 N   0  0  0  0  0  0  0  0  0  0  0  0
   38.0760   25.9470   32.4020 C   0  0  0  0  0  0  0  0  0  0  0  0
   38.3690   25.5690   33.6330 N   0  0  0  0  0  0  0  0  0  0  0  0
   38.5860   25.2930   31.2490 N   0  0  0  0  0  0  0  0  0  0  0  0
   39.8540   25.7520   30.6860 C   0  0  0  0  0  0  0  0  0  0  0  0
   39.7800   25.8230   29.1700 C   0  0  0  0  0  0  0  0  0  0  0  0
   39.1680   24.6660   28.5890 N   0  0  0  0  0  0  0  0  0  0  0  0
   38.8330   23.6460   29.5450 C   0  0  0  0  0  0  0  0  0  0  0  0
   37.8850   24.1920   30.6140 C   0  0  1  0  0  0  0  0  0  0  0  0
   36.6430   27.7760   35.4260 H   0  0  0  0  0  0  0  0  0  0  0  0
   36.0600   28.5270   33.0980 H   0  0  0  0  0  0  0  0  0  0  0  0
   40.6740   25.1070   31.0090 H   0  0  0  0  0  0  0  0  0  0  0  0
   40.0440   26.7890   31.0350 H   0  0  0  0  0  0  0  0  0  0  0  0
   40.8240   25.8650   28.7830 H   0  0  0  0  0  0  0  0  0  0  0  0
   39.3260   26.7870   28.8210 H   0  0  0  0  0  0  0  0  0  0  0  0
   38.2510   24.9470   28.1290 H   0  0  0  0  0  0  0  0  0  0  0  0
   38.3520   22.8260   28.9650 H   0  0  0  0  0  0  0  0  0  0  0  0
   39.7460   23.3170   30.0830 H   0  0  0  0  0  0  0  0  0  0  0  0
   36.9850   24.5630   30.0930 H   0  0  0  0  0  0  0  0  0  0  0  0
   37.4350   23.1190   31.5540 C   0  0  0  0  0  3  0  0  0  0  0  0
   35.9110   23.0890   31.6020 C   0  0  0  0  0  2  0  0  0  0  0  0
   35.5500   21.7190   31.0850 C   0  0  0  0  0  2  0  0  0  0  0  0
   36.6770   20.8860   31.6080 C   0  0  0  0  0  2  0  0  0  0  0  0
   37.8970   21.7410   31.2380 C   0  0  0  0  0  2  0  0  0  0  0  0
   38.2300   25.7390   36.0940 C   0  0  0  0  0  0  0  0  0  0  0  0
   39.4060   24.9780   36.0460 F   0  0  0  0  0  0  0  0  0  0  0  0
   38.3180   26.8250   36.8890 F   0  0  0  0  0  0  0  0  0  0  0  0
   37.2160   24.8640   36.4950 F   0  0  0  0  0  0  0  0  0  0  0  0
  1 28  1  0  0  0  0
  2  1  1  0  0  0  0
  2 13  1  0  0  0  0
  3  2  2  0  0  0  0
  4  5  2  0  0  0  0
  4  3  1  0  0  0  0
  5  6  1  0  0  0  0
  6  1  2  0  0  0  0
  7  5  1  0  0  0  0
  8 15  1  0  0  0  0
  8 16  1  0  0  0  0
  8  7  1  0  0  0  0
  9  8  1  0  0  0  0
 10  9  1  0  0  0  0
 10 11  1  0  0  0  0
 11 21  1  0  0  0  0
 11 12  1  0  0  0  0
 12 22  1  6  0  0  0
 12  7  1  0  0  0  0
 12 23  1  0  0  0  0
 14  3  1  0  0  0  0
 17  9  1  0  0  0  0
 18  9  1  0  0  0  0
 19 10  1  0  0  0  0
 20 11  1  0  0  0  0
 23 24  1  0  0  0  0
 25 24  1  0  0  0  0
 25 26  1  0  0  0  0
 27 23  1  0  0  0  0
 27 26  1  0  0  0  0
 28 31  1  0  0  0  0
 28 30  1  0  0  0  0
 29 28  1  0  0  0  0
M  END
>  <minimizedAffinity>
-5.29421234

$$$$

 OpenBabel03272505353D

 31 33  0  0  1  0  0  0  0  0999 V2000
   38.0530   24.3310   36.0790 C   0  0  0  0  0  0  0  0  0  0  0  0
   37.7480   25.6800   35.9460 C   0  0  0  0  0  0  0  0  0  0  0  0
   37.6850   26.2170   34.6570 C   0  0  0  0  0  0  0  0  0  0  0  0
   37.9300   25.3720   33.6010 N   0  0  0  0  0  0  0  0  0  0  0  0
   38.2220   24.0710   33.7730 C   0  0  0  0  0  0  0  0  0  0  0  0
   38.2770   23.5800   34.9980 N   0  0  0  0  0  0  0  0  0  0  0  0
   38.4560   23.2870   32.6130 N   0  0  0  0  0  0  0  0  0  0  0  0
   39.8220   23.1780   32.1040 C   0  0  0  0  0  0  0  0  0  0  0  0
   39.8470   23.3040   30.5900 C   0  0  0  0  0  0  0  0  0  0  0  0
   38.8290   22.5250   29.9500 N   0  0  0  0  0  0  0  0  0  0  0  0
   38.0560   21.7230   30.8590 C   0  0  0  0  0  0  0  0  0  0  0  0
   37.3830   22.5970   31.9200 C   0  0  1  0  0  0  0  0  0  0  0  0
   37.5700   26.2730   36.8180 H   0  0  0  0  0  0  0  0  0  0  0  0
   37.4550   27.2470   34.5020 H   0  0  0  0  0  0  0  0  0  0  0  0
   40.2790   22.2400   32.4270 H   0  0  0  0  0  0  0  0  0  0  0  0
   40.4160   24.0300   32.4940 H   0  0  0  0  0  0  0  0  0  0  0  0
   40.8270   22.9080   30.2350 H   0  0  0  0  0  0  0  0  0  0  0  0
   39.8570   24.3750   30.2620 H   0  0  0  0  0  0  0  0  0  0  0  0
   38.1360   23.1760   29.4750 H   0  0  0  0  0  0  0  0  0  0  0  0
   37.2990   21.1960   30.2370 H   0  0  0  0  0  0  0  0  0  0  0  0
   38.7220   21.0290   31.4110 H   0  0  0  0  0  0  0  0  0  0  0  0
   36.7460   23.3250   31.3860 H   0  0  0  0  0  0  0  0  0  0  0  0
   36.4850   21.7960   32.8070 C   0  0  0  0  0  3  0  0  0  0  0  0
   35.0700   21.7990   32.2370 C   0  0  0  0  0  2  0  0  0  0  0  0
   34.7880   20.3490   31.9340 C   0  0  0  0  0  2  0  0  0  0  0  0
   35.5200   19.6570   33.0400 C   0  0  0  0  0  2  0  0  0  0  0  0
   36.8750   20.3770   33.0190 C   0  0  0  0  0  2  0  0  0  0  0  0
   38.1220   23.7430   37.4590 C   0  0  0  0  0  0  0  0  0  0  0  0
   38.0250   24.7740   38.4030 F   0  0  0  0  0  0  0  0  0  0  0  0
   37.1550   22.8090   37.5730 F   0  0  0  0  0  0  0  0  0  0  0  0
   39.4040   23.2050   37.5990 F   0  0  0  0  0  0  0  0  0  0  0  0
  1 28  1  0  0  0  0
  2  1  1  0  0  0  0
  2 13  1  0  0  0  0
  3  2  2  0  0  0  0
  4  5  2  0  0  0  0
  4  3  1  0  0  0  0
  5  6  1  0  0  0  0
  6  1  2  0  0  0  0
  7  5  1  0  0  0  0
  8 15  1  0  0  0  0
  8 16  1  0  0  0  0
  8  7  1  0  0  0  0
  9  8  1  0  0  0  0
 10  9  1  0  0  0  0
 10 11  1  0  0  0  0
 11 21  1  0  0  0  0
 11 12  1  0  0  0  0
 12 22  1  6  0  0  0
 12  7  1  0  0  0  0
 12 23  1  0  0  0  0
 14  3  1  0  0  0  0
 17  9  1  0  0  0  0
 18  9  1  0  0  0  0
 19 10  1  0  0  0  0
 20 11  1  0  0  0  0
 23 27  1  0  0  0  0
 24 23  1  0  0  0  0
 25 24  1  0  0  0  0
 25 26  1  0  0  0  0
 27 26  1  0  0  0  0
 28 30  1  0  0  0  0
 28 31  1  0  0  0  0
 28 29  1  0  0  0  0
M  END
>  <minimizedAffinity>
-5.28115463

$$$$

 OpenBabel03272505353D

 31 33  0  0  1  0  0  0  0  0999 V2000
   38.4320   24.8680   35.9900 C   0  0  0  0  0  0  0  0  0  0  0  0
   38.1240   26.1970   36.2530 C   0  0  0  0  0  0  0  0  0  0  0  0
   38.0080   27.0730   35.1710 C   0  0  0  0  0  0  0  0  0  0  0  0
   38.2060   26.5610   33.9110 N   0  0  0  0  0  0  0  0  0  0  0  0
   38.5020   25.2670   33.6990 C   0  0  0  0  0  0  0  0  0  0  0  0
   38.6080   24.4520   34.7340 N   0  0  0  0  0  0  0  0  0  0  0  0
   38.6850   24.8420   32.3570 N   0  0  0  0  0  0  0  0  0  0  0  0
   40.0280   24.8930   31.7820 C   0  0  0  0  0  0  0  0  0  0  0  0
   39.9890   25.4390   30.3640 C   0  0  0  0  0  0  0  0  0  0  0  0
   38.9440   24.8610   29.5740 N   0  0  0  0  0  0  0  0  0  0  0  0
   38.2080   23.8290   30.2530 C   0  0  0  0  0  0  0  0  0  0  0  0
   37.5830   24.3640   31.5430 C   0  0  1  0  0  0  0  0  0  0  0  0
   37.9850   26.5200   37.2640 H   0  0  0  0  0  0  0  0  0  0  0  0
   37.7730   28.1030   35.3210 H   0  0  0  0  0  0  0  0  0  0  0  0
   40.4970   23.9070   31.8090 H   0  0  0  0  0  0  0  0  0  0  0  0
   40.6400   25.6080   32.3710 H   0  0  0  0  0  0  0  0  0  0  0  0
   40.9520   25.1690   29.8730 H   0  0  0  0  0  0  0  0  0  0  0  0
   39.9870   26.5600   30.3500 H   0  0  0  0  0  0  0  0  0  0  0  0
   38.2320   25.6130   29.3300 H   0  0  0  0  0  0  0  0  0  0  0  0
   37.4250   23.4900   29.5390 H   0  0  0  0  0  0  0  0  0  0  0  0
   38.8960   23.0140   30.5600 H   0  0  0  0  0  0  0  0  0  0  0  0
   36.9250   25.2060   31.2610 H   0  0  0  0  0  0  0  0  0  0  0  0
   36.7210   23.3370   32.2060 C   0  0  0  0  0  3  0  0  0  0  0  0
   35.4410   23.1460   31.3970 C   0  0  0  0  0  2  0  0  0  0  0  0
   35.4910   21.7040   30.9580 C   0  0  0  0  0  2  0  0  0  0  0  0
   36.1530   21.0490   32.1300 C   0  0  0  0  0  2  0  0  0  0  0  0
   37.3330   21.9950   32.3920 C   0  0  0  0  0  2  0  0  0  0  0  0
   38.5570   23.9180   37.1450 C   0  0  0  0  0  0  0  0  0  0  0  0
   37.5830   22.9170   37.0270 F   0  0  0  0  0  0  0  0  0  0  0  0
   39.8200   23.4450   37.1730 F   0  0  0  0  0  0  0  0  0  0  0  0
   38.2330   24.6440   38.2960 F   0  0  0  0  0  0  0  0  0  0  0  0
  1  2  1  0  0  0  0
  1 28  1  0  0  0  0
  2 13  1  0  0  0  0
  3 14  1  0  0  0  0
  3  2  2  0  0  0  0
  4  3  1  0  0  0  0
  5  4  2  0  0  0  0
  5  6  1  0  0  0  0
  6  1  2  0  0  0  0
  7  5  1  0  0  0  0
  8 15  1  0  0  0  0
  8  7  1  0  0  0  0
  8 16  1  0  0  0  0
  9  8  1  0  0  0  0
 10 11  1  0  0  0  0
 10  9  1  0  0  0  0
 11 21  1  0  0  0  0
 11 12  1  0  0  0  0
 12 22  1  6  0  0  0
 12 23  1  0  0  0  0
 12  7  1  0  0  0  0
 17  9  1  0  0  0  0
 18  9  1  0  0  0  0
 19 10  1  0  0  0  0
 20 11  1  0  0  0  0
 23 27  1  0  0  0  0
 24 23  1  0  0  0  0
 25 24  1  0  0  0  0
 25 26  1  0  0  0  0
 26 27  1  0  0  0  0
 28 30  1  0  0  0  0
 28 31  1  0  0  0  0
 29 28  1  0  0  0  0
M  END
>  <minimizedAffinity>
-5.24405813

$$$$

 OpenBabel03272505353D

 31 33  0  0  1  0  0  0  0  0999 V2000
   37.5910   22.2210   34.3990 C   0  0  0  0  0  0  0  0  0  0  0  0
   37.5260   21.9310   35.7560 C   0  0  0  0  0  0  0  0  0  0  0  0
   38.2890   22.7070   36.6330 C   0  0  0  0  0  0  0  0  0  0  0  0
   39.0590   23.7100   36.0930 N   0  0  0  0  0  0  0  0  0  0  0  0
   39.0930   23.9580   34.7720 C   0  0  0  0  0  0  0  0  0  0  0  0
   38.3650   23.2150   33.9580 N   0  0  0  0  0  0  0  0  0  0  0  0
   39.9200   25.0200   34.3210 N   0  0  0  0  0  0  0  0  0  0  0  0
   41.3060   24.7250   33.9590 C   0  0  0  0  0  0  0  0  0  0  0  0
   42.2450   25.7900   34.5000 C   0  0  0  0  0  0  0  0  0  0  0  0
   41.7630   27.1200   34.2790 N   0  0  0  0  0  0  0  0  0  0  0  0
   40.5440   27.1760   33.5200 C   0  0  0  0  0  0  0  0  0  0  0  0
   39.4330   26.3830   34.2130 C   0  0  1  0  0  0  0  0  0  0  0  0
   36.9030   21.1320   36.1000 H   0  0  0  0  0  0  0  0  0  0  0  0
   38.2740   22.5240   37.6840 H   0  0  0  0  0  0  0  0  0  0  0  0
   41.4070   24.6250   32.8760 H   0  0  0  0  0  0  0  0  0  0  0  0
   41.6050   23.7730   34.4450 H   0  0  0  0  0  0  0  0  0  0  0  0
   43.2090   25.7000   33.9490 H   0  0  0  0  0  0  0  0  0  0  0  0
   42.5270   25.5920   35.5670 H   0  0  0  0  0  0  0  0  0  0  0  0
   41.5440   27.5750   35.2150 H   0  0  0  0  0  0  0  0  0  0  0  0
   40.2770   28.2540   33.4440 H   0  0  0  0  0  0  0  0  0  0  0  0
   40.6920   26.6970   32.5300 H   0  0  0  0  0  0  0  0  0  0  0  0
   39.3000   26.8200   35.2180 H   0  0  0  0  0  0  0  0  0  0  0  0
   38.1270   26.5210   33.4980 C   0  0  0  0  0  3  0  0  0  0  0  0
   37.0430   26.9310   34.4900 C   0  0  0  0  0  2  0  0  0  0  0  0
   36.5790   28.2780   33.9960 C   0  0  0  0  0  2  0  0  0  0  0  0
   36.7000   28.1200   32.5130 C   0  0  0  0  0  2  0  0  0  0  0  0
   38.0980   27.4990   32.3780 C   0  0  0  0  0  2  0  0  0  0  0  0
   36.7740   21.3950   33.4490 C   0  0  0  0  0  0  0  0  0  0  0  0
   36.0600   22.2470   32.5950 F   0  0  0  0  0  0  0  0  0  0  0  0
   37.5990   20.5460   32.8030 F   0  0  0  0  0  0  0  0  0  0  0  0
   35.8180   20.7280   34.2210 F   0  0  0  0  0  0  0  0  0  0  0  0
  1  2  1  0  0  0  0
  2 13  1  0  0  0  0
  2  3  2  0  0  0  0
  3 14  1  0  0  0  0
  4  3  1  0  0  0  0
  5  4  2  0  0  0  0
  6  1  2  0  0  0  0
  6  5  1  0  0  0  0
  7  5  1  0  0  0  0
  8  7  1  0  0  0  0
  8 16  1  0  0  0  0
  8  9  1  0  0  0  0
  9 18  1  0  0  0  0
 10  9  1  0  0  0  0
 10 19  1  0  0  0  0
 11 12  1  0  0  0  0
 11 10  1  0  0  0  0
 12  7  1  0  0  0  0
 12 22  1  1  0  0  0
 15  8  1  0  0  0  0
 17  9  1  0  0  0  0
 20 11  1  0  0  0  0
 21 11  1  0  0  0  0
 23 12  1  0  0  0  0
 23 24  1  0  0  0  0
 25 24  1  0  0  0  0
 26 25  1  0  0  0  0
 27 26  1  0  0  0  0
 27 23  1  0  0  0  0
 28 31  1  0  0  0  0
 28  1  1  0  0  0  0
 29 28  1  0  0  0  0
 30 28  1  0  0  0  0
M  END
>  <minimizedAffinity>
-5.19803381

$$$$
