
 OpenBabel03272504543D

 21 23  0  0  0  0  0  0  0  0999 V2000
   36.6830   21.3640   33.4360 C   0  0  0  0  0  0  0  0  0  0  0  0
   35.6480   20.6120   34.0280 C   0  0  0  0  0  0  0  0  0  0  0  0
   35.5950   20.6700   35.4100 C   0  0  0  0  0  0  0  0  0  0  0  0
   36.4850   21.4040   36.1140 N   0  0  0  0  0  0  0  0  0  0  0  0
   37.4700   22.1180   35.5090 C   0  0  0  0  0  0  0  0  0  0  0  0
   37.5650   22.0930   34.1500 N   0  0  0  0  0  0  0  0  0  0  0  0
   34.9940   20.0640   33.3920 H   0  0  0  0  0  0  0  0  0  0  0  0
   34.8140   20.1040   35.9050 H   0  0  0  0  0  0  0  0  0  0  0  0
   36.7700   21.3540   31.9300 C   0  0  0  0  0  0  0  0  0  0  0  0
   35.5870   21.1150   31.1070 C   0  0  0  0  0  0  0  0  0  0  0  0
   36.0530   22.5350   31.2930 C   0  0  0  0  0  0  0  0  0  0  0  0
   37.7860   21.1500   31.5590 H   0  0  0  0  0  0  0  0  0  0  0  0
   34.5940   20.9260   31.6090 H   0  0  0  0  0  0  0  0  0  0  0  0
   35.6970   20.6230   30.1170 H   0  0  0  0  0  0  0  0  0  0  0  0
   36.6160   23.0140   30.4720 H   0  0  0  0  0  0  0  0  0  0  0  0
   35.5030   23.2300   31.9300 H   0  0  0  0  0  0  0  0  0  0  0  0
   38.4670   22.9370   36.2440 C   0  0  0  0  0  3  0  0  0  0  0  0
   39.8060   22.2580   36.3560 C   0  0  0  0  0  2  0  0  0  0  0  0
   40.3460   22.5190   37.7180 C   0  0  0  0  0  2  0  0  0  0  0  0
   39.3360   23.4050   38.4070 C   0  0  0  0  0  2  0  0  0  0  0  0
   38.0390   23.2560   37.6380 C   0  0  0  0  0  2  0  0  0  0  0  0
  1  2  2  0  0  0  0
  1  6  1  0  0  0  0
  2  3  1  0  0  0  0
  3  8  1  0  0  0  0
  3  4  2  0  0  0  0
  5  4  1  0  0  0  0
  5 17  1  0  0  0  0
  6  5  2  0  0  0  0
  7  2  1  0  0  0  0
  9  1  1  0  0  0  0
 10 11  1  0  0  0  0
 10 13  1  0  0  0  0
 10  9  1  0  0  0  0
 11 16  1  0  0  0  0
 11  9  1  0  0  0  0
 12  9  1  0  0  0  0
 14 10  1  0  0  0  0
 15 11  1  0  0  0  0
 17 18  1  0  0  0  0
 17 21  1  0  0  0  0
 18 19  1  0  0  0  0
 19 20  1  0  0  0  0
 21 20  1  0  0  0  0
M  END
>  <minimizedAffinity>
-4.57687807

$$$$

 OpenBabel03272504543D

 21 23  0  0  0  0  0  0  0  0999 V2000
   36.3260   24.0890   32.0070 C   0  0  0  0  0  0  0  0  0  0  0  0
   35.3730   24.5440   31.0740 C   0  0  0  0  0  0  0  0  0  0  0  0
   35.2430   25.9190   30.9870 C   0  0  0  0  0  0  0  0  0  0  0  0
   35.9930   26.7410   31.7550 N   0  0  0  0  0  0  0  0  0  0  0  0
   36.9040   26.2680   32.6440 C   0  0  0  0  0  0  0  0  0  0  0  0
   37.0680   24.9200   32.7670 N   0  0  0  0  0  0  0  0  0  0  0  0
   34.8290   23.8210   30.5130 H   0  0  0  0  0  0  0  0  0  0  0  0
   34.5190   26.3100   30.2820 H   0  0  0  0  0  0  0  0  0  0  0  0
   36.5230   22.5970   32.1230 C   0  0  0  0  0  0  0  0  0  0  0  0
   35.9860   21.6850   31.1170 C   0  0  0  0  0  0  0  0  0  0  0  0
   37.4470   22.0430   31.0490 C   0  0  0  0  0  0  0  0  0  0  0  0
   36.7300   22.2700   33.1530 H   0  0  0  0  0  0  0  0  0  0  0  0
   35.4060   22.1040   30.2440 H   0  0  0  0  0  0  0  0  0  0  0  0
   35.6820   20.6580   31.4130 H   0  0  0  0  0  0  0  0  0  0  0  0
   38.1850   21.3100   31.4240 H   0  0  0  0  0  0  0  0  0  0  0  0
   37.8280   22.7130   30.2770 H   0  0  0  0  0  0  0  0  0  0  0  0
   37.7470   27.1350   33.5050 C   0  0  0  0  0  3  0  0  0  0  0  0
   39.1890   26.7050   33.5270 C   0  0  0  0  0  2  0  0  0  0  0  0
   39.6960   26.8530   34.9180 C   0  0  0  0  0  2  0  0  0  0  0  0
   38.5540   27.4250   35.7230 C   0  0  0  0  0  2  0  0  0  0  0  0
   37.2930   27.1580   34.9260 C   0  0  0  0  0  2  0  0  0  0  0  0
  1  9  1  0  0  0  0
  1  6  1  0  0  0  0
  2  1  2  0  0  0  0
  3  2  1  0  0  0  0
  3  4  2  0  0  0  0
  4  5  1  0  0  0  0
  5  6  2  0  0  0  0
  5 17  1  0  0  0  0
  7  2  1  0  0  0  0
  8  3  1  0  0  0  0
  9 12  1  0  0  0  0
 10 14  1  0  0  0  0
 10  9  1  0  0  0  0
 11 10  1  0  0  0  0
 11 15  1  0  0  0  0
 11  9  1  0  0  0  0
 13 10  1  0  0  0  0
 16 11  1  0  0  0  0
 17 18  1  0  0  0  0
 17 21  1  0  0  0  0
 18 19  1  0  0  0  0
 19 20  1  0  0  0  0
 21 20  1  0  0  0  0
M  END
>  <minimizedAffinity>
-4.56439686

$$$$

 OpenBabel03272504543D

 21 23  0  0  0  0  0  0  0  0999 V2000
   38.2280   25.2670   35.7540 C   0  0  0  0  0  0  0  0  0  0  0  0
   38.2400   26.6030   36.2020 C   0  0  0  0  0  0  0  0  0  0  0  0
   37.8660   27.5450   35.2590 C   0  0  0  0  0  0  0  0  0  0  0  0
   37.5180   27.1770   34.0050 N   0  0  0  0  0  0  0  0  0  0  0  0
   37.5170   25.8780   33.6080 C   0  0  0  0  0  0  0  0  0  0  0  0
   37.8780   24.9140   34.5000 N   0  0  0  0  0  0  0  0  0  0  0  0
   38.5290   26.7960   37.2080 H   0  0  0  0  0  0  0  0  0  0  0  0
   37.8630   28.5850   35.5630 H   0  0  0  0  0  0  0  0  0  0  0  0
   38.6060   24.1990   36.7520 C   0  0  0  0  0  0  0  0  0  0  0  0
   38.0760   24.2180   38.1120 C   0  0  0  0  0  0  0  0  0  0  0  0
   37.4370   23.2930   37.1100 C   0  0  0  0  0  0  0  0  0  0  0  0
   39.5500   23.6930   36.5020 H   0  0  0  0  0  0  0  0  0  0  0  0
   37.3800   25.0500   38.4230 H   0  0  0  0  0  0  0  0  0  0  0  0
   38.6820   23.7980   38.9430 H   0  0  0  0  0  0  0  0  0  0  0  0
   37.6960   22.2190   37.1470 H   0  0  0  0  0  0  0  0  0  0  0  0
   36.4510   23.5060   36.6940 H   0  0  0  0  0  0  0  0  0  0  0  0
   37.1410   25.4330   32.2420 C   0  0  0  0  0  3  0  0  0  0  0  0
   35.9940   26.2240   31.6700 C   0  0  0  0  0  2  0  0  0  0  0  0
   35.1020   25.2830   30.9380 C   0  0  0  0  0  2  0  0  0  0  0  0
   35.7540   23.9250   31.0360 C   0  0  0  0  0  2  0  0  0  0  0  0
   36.7290   23.9990   32.1930 C   0  0  0  0  0  2  0  0  0  0  0  0
  1  2  1  0  0  0  0
  1  9  1  0  0  0  0
  2  7  1  0  0  0  0
  3  8  1  0  0  0  0
  3  2  2  0  0  0  0
  4  3  1  0  0  0  0
  5  4  2  0  0  0  0
  5  6  1  0  0  0  0
  6  1  2  0  0  0  0
  9 11  1  0  0  0  0
  9 10  1  0  0  0  0
 10 13  1  0  0  0  0
 10 14  1  0  0  0  0
 11 15  1  0  0  0  0
 11 10  1  0  0  0  0
 12  9  1  0  0  0  0
 16 11  1  0  0  0  0
 17  5  1  0  0  0  0
 18 17  1  0  0  0  0
 19 20  1  0  0  0  0
 19 18  1  0  0  0  0
 20 21  1  0  0  0  0
 21 17  1  0  0  0  0
M  END
>  <minimizedAffinity>
-4.45264196

$$$$

 OpenBabel03272504543D

 21 23  0  0  0  0  0  0  0  0999 V2000
   38.4800   24.9590   36.3080 C   0  0  0  0  0  0  0  0  0  0  0  0
   37.8710   25.0730   37.5740 C   0  0  0  0  0  0  0  0  0  0  0  0
   38.1620   24.0510   38.4610 C   0  0  0  0  0  0  0  0  0  0  0  0
   38.9760   23.0310   38.1100 N   0  0  0  0  0  0  0  0  0  0  0  0
   39.5480   22.9540   36.8800 C   0  0  0  0  0  0  0  0  0  0  0  0
   39.2910   23.9360   35.9700 N   0  0  0  0  0  0  0  0  0  0  0  0
   37.2440   25.9130   37.7600 H   0  0  0  0  0  0  0  0  0  0  0  0
   37.7120   24.1000   39.4460 H   0  0  0  0  0  0  0  0  0  0  0  0
   38.2140   26.0610   35.3110 C   0  0  0  0  0  0  0  0  0  0  0  0
   38.1100   27.4540   35.7360 C   0  0  0  0  0  0  0  0  0  0  0  0
   39.4070   26.9870   35.1290 C   0  0  0  0  0  0  0  0  0  0  0  0
   37.7390   25.6980   34.3870 H   0  0  0  0  0  0  0  0  0  0  0  0
   38.2220   27.7070   36.8300 H   0  0  0  0  0  0  0  0  0  0  0  0
   37.4570   28.1530   35.1720 H   0  0  0  0  0  0  0  0  0  0  0  0
   39.6170   27.2480   34.0770 H   0  0  0  0  0  0  0  0  0  0  0  0
   40.2960   26.8370   35.7440 H   0  0  0  0  0  0  0  0  0  0  0  0
   40.4470   21.8530   36.4550 C   0  0  0  0  0  3  0  0  0  0  0  0
   41.4860   21.5190   37.4920 C   0  0  0  0  0  2  0  0  0  0  0  0
   42.7710   21.2480   36.7920 C   0  0  0  0  0  2  0  0  0  0  0  0
   42.4790   21.3740   35.3160 C   0  0  0  0  0  2  0  0  0  0  0  0
   41.1920   22.1640   35.1990 C   0  0  0  0  0  2  0  0  0  0  0  0
  1  2  1  0  0  0  0
  2  7  1  0  0  0  0
  2  3  2  0  0  0  0
  3  8  1  0  0  0  0
  4  3  1  0  0  0  0
  5  4  2  0  0  0  0
  6  1  2  0  0  0  0
  6  5  1  0  0  0  0
  9 10  1  0  0  0  0
  9  1  1  0  0  0  0
 10 13  1  0  0  0  0
 11  9  1  0  0  0  0
 11 10  1  0  0  0  0
 11 16  1  0  0  0  0
 12  9  1  0  0  0  0
 14 10  1  0  0  0  0
 15 11  1  0  0  0  0
 17  5  1  0  0  0  0
 17 18  1  0  0  0  0
 19 18  1  0  0  0  0
 20 19  1  0  0  0  0
 21 20  1  0  0  0  0
 21 17  1  0  0  0  0
M  END
>  <minimizedAffinity>
-4.44645119

$$$$

 OpenBabel03272504543D

 21 23  0  0  0  0  0  0  0  0999 V2000
   37.1280   27.1620   33.9720 C   0  0  0  0  0  0  0  0  0  0  0  0
   36.4430   28.2150   33.3340 C   0  0  0  0  0  0  0  0  0  0  0  0
   35.8740   27.8940   32.1140 C   0  0  0  0  0  0  0  0  0  0  0  0
   35.9840   26.6490   31.5980 N   0  0  0  0  0  0  0  0  0  0  0  0
   36.6520   25.6570   32.2410 C   0  0  0  0  0  0  0  0  0  0  0  0
   37.2310   25.9240   33.4460 N   0  0  0  0  0  0  0  0  0  0  0  0
   36.4090   29.1620   33.8190 H   0  0  0  0  0  0  0  0  0  0  0  0
   35.3390   28.6770   31.5900 H   0  0  0  0  0  0  0  0  0  0  0  0
   37.7470   27.4530   35.3180 C   0  0  0  0  0  0  0  0  0  0  0  0
   38.2460   26.3760   36.1670 C   0  0  0  0  0  0  0  0  0  0  0  0
   39.2400   27.1600   35.3520 C   0  0  0  0  0  0  0  0  0  0  0  0
   37.4360   28.4240   35.7320 H   0  0  0  0  0  0  0  0  0  0  0  0
   38.1580   25.3070   35.8140 H   0  0  0  0  0  0  0  0  0  0  0  0
   38.2230   26.4920   37.2720 H   0  0  0  0  0  0  0  0  0  0  0  0
   39.8390   27.9370   35.8610 H   0  0  0  0  0  0  0  0  0  0  0  0
   39.7170   26.7250   34.4730 H   0  0  0  0  0  0  0  0  0  0  0  0
   36.7960   24.2790   31.7090 C   0  0  0  0  0  3  0  0  0  0  0  0
   35.4730   23.6540   31.3540 C   0  0  0  0  0  2  0  0  0  0  0  0
   35.5080   22.2250   31.7700 C   0  0  0  0  0  2  0  0  0  0  0  0
   36.8880   21.9870   32.3350 C   0  0  0  0  0  2  0  0  0  0  0  0
   37.4540   23.3500   32.6750 C   0  0  0  0  0  2  0  0  0  0  0  0
  1  9  1  0  0  0  0
  2  7  1  0  0  0  0
  2  1  2  0  0  0  0
  3  2  1  0  0  0  0
  4  3  2  0  0  0  0
  4  5  1  0  0  0  0
  5  6  2  0  0  0  0
  6  1  1  0  0  0  0
  8  3  1  0  0  0  0
  9 11  1  0  0  0  0
  9 12  1  0  0  0  0
  9 10  1  0  0  0  0
 10 14  1  0  0  0  0
 11 15  1  0  0  0  0
 11 10  1  0  0  0  0
 13 10  1  0  0  0  0
 16 11  1  0  0  0  0
 17  5  1  0  0  0  0
 17 21  1  0  0  0  0
 18 17  1  0  0  0  0
 18 19  1  0  0  0  0
 19 20  1  0  0  0  0
 20 21  1  0  0  0  0
M  END
>  <minimizedAffinity>
-4.44304276

$$$$

 OpenBabel03272504543D

 21 23  0  0  0  0  0  0  0  0999 V2000
   36.8000   27.8040   34.2340 C   0  0  0  0  0  0  0  0  0  0  0  0
   36.9100   27.6150   32.8410 C   0  0  0  0  0  0  0  0  0  0  0  0
   36.3430   28.6110   32.0650 C   0  0  0  0  0  0  0  0  0  0  0  0
   35.7350   29.6770   32.6320 N   0  0  0  0  0  0  0  0  0  0  0  0
   35.6490   29.8280   33.9790 C   0  0  0  0  0  0  0  0  0  0  0  0
   36.1920   28.8730   34.7860 N   0  0  0  0  0  0  0  0  0  0  0  0
   37.4070   26.7430   32.4880 H   0  0  0  0  0  0  0  0  0  0  0  0
   36.4050   28.5020   30.9890 H   0  0  0  0  0  0  0  0  0  0  0  0
   37.4240   26.7580   35.1260 C   0  0  0  0  0  0  0  0  0  0  0  0
   38.7040   26.1440   34.7860 C   0  0  0  0  0  0  0  0  0  0  0  0
   38.6910   27.2500   35.8090 C   0  0  0  0  0  0  0  0  0  0  0  0
   36.6910   26.2540   35.7730 H   0  0  0  0  0  0  0  0  0  0  0  0
   39.2300   26.4520   33.8360 H   0  0  0  0  0  0  0  0  0  0  0  0
   38.9150   25.1010   35.1040 H   0  0  0  0  0  0  0  0  0  0  0  0
   38.7610   26.9770   36.8770 H   0  0  0  0  0  0  0  0  0  0  0  0
   39.0730   28.2440   35.5690 H   0  0  0  0  0  0  0  0  0  0  0  0
   34.9910   30.9830   34.6400 C   0  0  0  0  0  3  0  0  0  0  0  0
   35.8460   31.5980   35.7160 C   0  0  0  0  0  2  0  0  0  0  0  0
   34.9630   31.9590   36.8590 C   0  0  0  0  0  2  0  0  0  0  0  0
   33.5590   31.5990   36.4350 C   0  0  0  0  0  2  0  0  0  0  0  0
   33.6960   30.6200   35.2860 C   0  0  0  0  0  2  0  0  0  0  0  0
  1  6  1  0  0  0  0
  1  9  1  0  0  0  0
  2  1  2  0  0  0  0
  3  4  2  0  0  0  0
  3  2  1  0  0  0  0
  4  5  1  0  0  0  0
  5 17  1  0  0  0  0
  5  6  2  0  0  0  0
  7  2  1  0  0  0  0
  8  3  1  0  0  0  0
  9 12  1  0  0  0  0
  9 11  1  0  0  0  0
 10 14  1  0  0  0  0
 10  9  1  0  0  0  0
 10 11  1  0  0  0  0
 11 15  1  0  0  0  0
 13 10  1  0  0  0  0
 16 11  1  0  0  0  0
 17 21  1  0  0  0  0
 17 18  1  0  0  0  0
 18 19  1  0  0  0  0
 20 19  1  0  0  0  0
 21 20  1  0  0  0  0
M  END
>  <minimizedAffinity>
-4.42814684

$$$$

 OpenBabel03272504543D

 21 23  0  0  0  0  0  0  0  0999 V2000
   37.4460   25.5560   33.1140 C   0  0  0  0  0  0  0  0  0  0  0  0
   37.3480   26.9010   33.5260 C   0  0  0  0  0  0  0  0  0  0  0  0
   37.5850   27.1230   34.8710 C   0  0  0  0  0  0  0  0  0  0  0  0
   37.8890   26.1020   35.7050 N   0  0  0  0  0  0  0  0  0  0  0  0
   37.9760   24.8180   35.2720 C   0  0  0  0  0  0  0  0  0  0  0  0
   37.7500   24.5480   33.9550 N   0  0  0  0  0  0  0  0  0  0  0  0
   37.1030   27.6360   32.7970 H   0  0  0  0  0  0  0  0  0  0  0  0
   37.5180   28.1430   35.2300 H   0  0  0  0  0  0  0  0  0  0  0  0
   37.2190   25.2630   31.6500 C   0  0  0  0  0  0  0  0  0  0  0  0
   36.9350   23.9080   31.1890 C   0  0  0  0  0  0  0  0  0  0  0  0
   35.7820   24.8630   31.3490 C   0  0  0  0  0  0  0  0  0  0  0  0
   37.6580   26.0240   30.9870 H   0  0  0  0  0  0  0  0  0  0  0  0
   36.8940   23.0650   31.9390 H   0  0  0  0  0  0  0  0  0  0  0  0
   37.2560   23.5950   30.1720 H   0  0  0  0  0  0  0  0  0  0  0  0
   35.3640   25.3380   30.4430 H   0  0  0  0  0  0  0  0  0  0  0  0
   35.0740   24.7600   32.1730 H   0  0  0  0  0  0  0  0  0  0  0  0
   38.3070   23.6700   36.1540 C   0  0  0  0  0  3  0  0  0  0  0  0
   37.7890   23.8480   37.5560 C   0  0  0  0  0  2  0  0  0  0  0  0
   38.8230   23.3440   38.5000 C   0  0  0  0  0  2  0  0  0  0  0  0
   39.9500   22.8150   37.6450 C   0  0  0  0  0  2  0  0  0  0  0  0
   39.7760   23.4370   36.2750 C   0  0  0  0  0  2  0  0  0  0  0  0
  1  2  2  0  0  0  0
  1  6  1  0  0  0  0
  2  3  1  0  0  0  0
  3  8  1  0  0  0  0
  3  4  2  0  0  0  0
  5  4  1  0  0  0  0
  5 17  1  0  0  0  0
  6  5  2  0  0  0  0
  7  2  1  0  0  0  0
  9  1  1  0  0  0  0
 10 11  1  0  0  0  0
 10  9  1  0  0  0  0
 10 13  1  0  0  0  0
 11  9  1  0  0  0  0
 11 16  1  0  0  0  0
 12  9  1  0  0  0  0
 14 10  1  0  0  0  0
 15 11  1  0  0  0  0
 17 21  1  0  0  0  0
 17 18  1  0  0  0  0
 18 19  1  0  0  0  0
 20 19  1  0  0  0  0
 21 20  1  0  0  0  0
M  END
>  <minimizedAffinity>
-4.32891273

$$$$

 OpenBabel03272504543D

 21 23  0  0  0  0  0  0  0  0999 V2000
   38.7070   24.2760   36.3080 C   0  0  0  0  0  0  0  0  0  0  0  0
   39.8570   23.6020   35.8510 C   0  0  0  0  0  0  0  0  0  0  0  0
   40.5030   24.1970   34.7810 C   0  0  0  0  0  0  0  0  0  0  0  0
   40.0400   25.3450   34.2370 N   0  0  0  0  0  0  0  0  0  0  0  0
   38.9280   25.9690   34.7040 C   0  0  0  0  0  0  0  0  0  0  0  0
   38.2560   25.4210   35.7560 N   0  0  0  0  0  0  0  0  0  0  0  0
   40.1440   22.7030   36.3440 H   0  0  0  0  0  0  0  0  0  0  0  0
   41.3910   23.7080   34.3990 H   0  0  0  0  0  0  0  0  0  0  0  0
   37.9780   23.6810   37.4880 C   0  0  0  0  0  0  0  0  0  0  0  0
   38.6970   23.2880   38.6970 C   0  0  0  0  0  0  0  0  0  0  0  0
   37.9660   24.6050   38.6970 C   0  0  0  0  0  0  0  0  0  0  0  0
   37.0120   23.2320   37.2150 H   0  0  0  0  0  0  0  0  0  0  0  0
   39.8160   23.4250   38.7440 H   0  0  0  0  0  0  0  0  0  0  0  0
   38.3150   22.4460   39.3130 H   0  0  0  0  0  0  0  0  0  0  0  0
   36.9890   24.6640   39.2090 H   0  0  0  0  0  0  0  0  0  0  0  0
   38.5090   25.5510   38.6490 H   0  0  0  0  0  0  0  0  0  0  0  0
   38.3880   27.2290   34.1350 C   0  0  0  0  0  3  0  0  0  0  0  0
   37.3140   27.8400   34.9950 C   0  0  0  0  0  2  0  0  0  0  0  0
   36.2490   28.3710   34.1000 C   0  0  0  0  0  2  0  0  0  0  0  0
   36.7210   28.1150   32.6890 C   0  0  0  0  0  2  0  0  0  0  0  0
   37.7880   27.0430   32.7810 C   0  0  0  0  0  2  0  0  0  0  0  0
  1  9  1  0  0  0  0
  2  1  1  0  0  0  0
  2  7  1  0  0  0  0
  3  2  2  0  0  0  0
  4  5  2  0  0  0  0
  4  3  1  0  0  0  0
  5  6  1  0  0  0  0
  6  1  2  0  0  0  0
  8  3  1  0  0  0  0
  9 11  1  0  0  0  0
  9 10  1  0  0  0  0
 10 13  1  0  0  0  0
 10 14  1  0  0  0  0
 11 10  1  0  0  0  0
 11 15  1  0  0  0  0
 12  9  1  0  0  0  0
 16 11  1  0  0  0  0
 17  5  1  0  0  0  0
 17 18  1  0  0  0  0
 19 18  1  0  0  0  0
 20 21  1  0  0  0  0
 20 19  1  0  0  0  0
 21 17  1  0  0  0  0
M  END
>  <minimizedAffinity>
-4.32821894

$$$$

 OpenBabel03272504543D

 21 23  0  0  0  0  0  0  0  0999 V2000
   38.2600   24.7840   35.1180 C   0  0  0  0  0  0  0  0  0  0  0  0
   38.6160   24.3370   36.4070 C   0  0  0  0  0  0  0  0  0  0  0  0
   38.5060   22.9720   36.6080 C   0  0  0  0  0  0  0  0  0  0  0  0
   38.0870   22.1520   35.6180 N   0  0  0  0  0  0  0  0  0  0  0  0
   37.7530   22.6180   34.3870 C   0  0  0  0  0  0  0  0  0  0  0  0
   37.8430   23.9550   34.1400 N   0  0  0  0  0  0  0  0  0  0  0  0
   38.9360   25.0590   37.1210 H   0  0  0  0  0  0  0  0  0  0  0  0
   38.7690   22.5880   37.5860 H   0  0  0  0  0  0  0  0  0  0  0  0
   38.3850   26.2620   34.8400 C   0  0  0  0  0  0  0  0  0  0  0  0
   38.8950   27.1800   35.8540 C   0  0  0  0  0  0  0  0  0  0  0  0
   39.8330   26.7250   34.7660 C   0  0  0  0  0  0  0  0  0  0  0  0
   37.7270   26.6030   34.0250 H   0  0  0  0  0  0  0  0  0  0  0  0
   39.1920   26.7770   36.8650 H   0  0  0  0  0  0  0  0  0  0  0  0
   38.5390   28.2330   35.8710 H   0  0  0  0  0  0  0  0  0  0  0  0
   40.0420   27.4170   33.9310 H   0  0  0  0  0  0  0  0  0  0  0  0
   40.6310   26.0100   34.9730 H   0  0  0  0  0  0  0  0  0  0  0  0
   37.2890   21.7510   33.2750 C   0  0  0  0  0  3  0  0  0  0  0  0
   36.8880   22.5380   32.0550 C   0  0  0  0  0  2  0  0  0  0  0  0
   35.6690   21.9100   31.4780 C   0  0  0  0  0  2  0  0  0  0  0  0
   35.3700   20.7050   32.3380 C   0  0  0  0  0  2  0  0  0  0  0  0
   36.1070   20.9170   33.6440 C   0  0  0  0  0  2  0  0  0  0  0  0
  1  2  1  0  0  0  0
  2  3  2  0  0  0  0
  2  7  1  0  0  0  0
  3  8  1  0  0  0  0
  4  3  1  0  0  0  0
  5  4  2  0  0  0  0
  6  5  1  0  0  0  0
  6  1  2  0  0  0  0
  9  1  1  0  0  0  0
  9 10  1  0  0  0  0
 10 14  1  0  0  0  0
 10 13  1  0  0  0  0
 11  9  1  0  0  0  0
 11 16  1  0  0  0  0
 11 10  1  0  0  0  0
 12  9  1  0  0  0  0
 15 11  1  0  0  0  0
 17 21  1  0  0  0  0
 17  5  1  0  0  0  0
 18 17  1  0  0  0  0
 19 18  1  0  0  0  0
 19 20  1  0  0  0  0
 20 21  1  0  0  0  0
M  END
>  <minimizedAffinity>
-4.3156395

$$$$
