REMARK  Name = 
REMARK  3 active torsions:
REMARK  status: ('A' for Active; 'I' for Inactive)
REMARK    1  A    between atoms: C_2  and  C_12
REMARK    2  A    between atoms: C_6  and  O_16
REMARK    3  A    between atoms: O_16  and  C_24
REMARK                            x       y       z     vdW  Elec       q    Type
REMARK                         _______ _______ _______ _____ _____    ______ ____
ROOT
ATOM      1  C   UNL     1      36.847  30.540  46.903  0.00  0.00    +0.000 A 
ATOM      2  C   UNL     1      37.515  31.032  48.022  0.00  0.00    +0.000 A 
ATOM      3  C   UNL     1      38.507  31.988  47.903  0.00  0.00    +0.000 A 
ATOM      4  C   UNL     1      38.789  32.423  46.605  0.00  0.00    +0.000 A 
ATOM      5  N   UNL     1      39.725  33.359  46.231  0.00  0.00    +0.000 N 
ATOM      6  C   UNL     1      39.651  33.457  44.907  0.00  0.00    +0.000 A 
ATOM      7  N   UNL     1      38.717  32.633  44.426  0.00  0.00    +0.000 NA
ATOM      8  C   UNL     1      38.162  31.972  45.471  0.00  0.00    +0.000 A 
ATOM      9  C   UNL     1      37.164  31.004  45.628  0.00  0.00    +0.000 A 
ATOM     10  H   UNL     1      36.066  29.789  46.979  0.00  0.00    +0.000 HD
ATOM     11  H   UNL     1      39.034  32.379  48.763  0.00  0.00    +0.000 HD
ATOM     12  H   UNL     1      40.367  33.884  46.894  0.00  0.00    +0.000 HD
ATOM     13  H   UNL     1      36.663  30.642  44.743  0.00  0.00    +0.000 HD
ENDROOT
BRANCH   2  16
ATOM     14  C   UNL     1      37.392  30.081  51.665  0.00  0.00    +0.000 A 
ATOM     15  C   UNL     1      37.861  30.631  50.479  0.00  0.00    +0.000 A 
ATOM     16  C   UNL     1      37.133  30.503  49.322  0.00  0.00    +0.000 A 
ATOM     17  N   UNL     1      35.944  29.817  49.398  0.00  0.00    +0.000 NA
ATOM     18  C   UNL     1      35.511  29.293  50.562  0.00  0.00    +0.000 A 
ATOM     19  N   UNL     1      36.219  29.422  51.670  0.00  0.00    +0.000 NA
ATOM     20  H   UNL     1      37.953  30.173  52.584  0.00  0.00    +0.000 HD
ATOM     21  H   UNL     1      38.796  31.168  50.427  0.00  0.00    +0.000 HD
ATOM     22  H   UNL     1      34.550  28.767  50.506  0.00  0.00    +0.000 HD
ENDBRANCH   2  16
BRANCH   6  23
ATOM     23  O   UNL     1      40.458  34.318  44.166  0.00  0.00    +0.000 OA
BRANCH  23  24
ATOM     24  C   UNL     1      40.339  34.388  42.740  0.00  0.00    +0.000 C 
ATOM     25  C   UNL     1      39.023  33.810  42.259  0.00  0.00    +0.000 C 
ATOM     26  C   UNL     1      38.479  34.838  41.274  0.00  0.00    +0.000 C 
ATOM     27  C   UNL     1      38.926  36.124  41.932  0.00  0.00    +0.000 C 
ATOM     28  C   UNL     1      40.332  35.836  42.348  0.00  0.00    +0.000 C 
ENDBRANCH  23  24
ENDBRANCH   6  23
TORSDOF 3
