
 OpenBabel03272509343D

 37 41  0  0  1  0  0  0  0  0999 V2000
   37.4270   31.7220   48.3480 C   0  0  1  0  0  0  0  0  0  0  0  0
   38.6900   32.4600   48.5290 C   0  0  0  0  0  0  0  0  0  0  0  0
   38.7020   31.3540   47.5350 C   0  0  2  0  0  0  0  0  0  0  0  0
   36.6630   32.0900   47.6820 H   0  0  0  0  0  0  0  0  0  0  0  0
   39.2720   32.2530   49.4950 H   0  0  0  0  0  0  0  0  0  0  0  0
   38.5680   33.5170   48.3930 H   0  0  0  0  0  0  0  0  0  0  0  0
   38.8620   30.2920   47.5910 H   0  0  0  0  0  0  0  0  0  0  0  0
   38.8470   31.8950   46.1590 C   0  0  0  0  0  0  0  0  0  0  0  0
   39.7910   32.9280   46.1330 C   0  0  0  0  0  0  0  0  0  0  0  0
   40.1490   33.5320   44.9470 C   0  0  0  0  0  0  0  0  0  0  0  0
   39.5780   33.1250   43.7370 C   0  0  0  0  0  0  0  0  0  0  0  0
   38.6540   32.1080   43.7910 C   0  0  0  0  0  0  0  0  0  0  0  0
   38.0000   31.6120   42.6870 C   0  0  0  0  0  0  0  0  0  0  0  0
   37.0660   30.6020   42.7250 C   0  0  0  0  0  0  0  0  0  0  0  0
   36.7490   30.0360   43.9390 C   0  0  0  0  0  0  0  0  0  0  0  0
   37.3890   30.5140   45.0620 C   0  0  0  0  0  0  0  0  0  0  0  0
   38.3140   31.5230   44.9730 C   0  0  0  0  0  0  0  0  0  0  0  0
   40.4060   33.4460   46.8370 H   0  0  0  0  0  0  0  0  0  0  0  0
   40.8470   34.3300   44.7510 H   0  0  0  0  0  0  0  0  0  0  0  0
   39.7420   33.4870   42.7300 H   0  0  0  0  0  0  0  0  0  0  0  0
   38.2330   32.0460   41.7010 H   0  0  0  0  0  0  0  0  0  0  0  0
   36.5790   30.2500   41.8170 H   0  0  0  0  0  0  0  0  0  0  0  0
   36.0290   29.2400   44.0540 H   0  0  0  0  0  0  0  0  0  0  0  0
   37.1220   30.0480   46.0270 H   0  0  0  0  0  0  0  0  0  0  0  0
   35.3970   29.4810   50.5990 C   0  0  0  0  0  0  0  0  0  0  0  0
   35.7260   30.4670   49.6250 C   0  0  0  0  0  0  0  0  0  0  0  0
   37.0530   30.6960   49.3430 C   0  0  0  0  0  0  0  0  0  0  0  0
   37.9550   29.9490   50.0280 N   0  0  0  0  0  0  0  0  0  0  0  0
   37.6480   29.0200   50.9460 C   0  0  0  0  0  0  0  0  0  0  0  0
   36.3480   28.7790   51.2390 N   0  0  0  0  0  0  0  0  0  0  0  0
   34.3570   29.2970   50.8260 H   0  0  0  0  0  0  0  0  0  0  0  0
   34.9180   30.9930   49.1500 H   0  0  0  0  0  0  0  0  0  0  0  0
   38.8310   28.3240   51.5680 C   0  0  0  0  0  3  0  0  0  0  0  0
   39.2440   27.1270   50.7810 C   0  0  0  0  0  2  0  0  0  0  0  0
   39.3460   25.9550   51.7070 C   0  0  0  0  0  2  0  0  0  0  0  0
   39.1560   26.4830   53.1140 C   0  0  0  0  0  2  0  0  0  0  0  0
   38.5210   27.8520   52.9520 C   0  0  0  0  0  2  0  0  0  0  0  0
  1  4  1  6  0  0  0
  1  2  1  0  0  0  0
  1 27  1  0  0  0  0
  2  5  1  0  0  0  0
  3  7  1  1  0  0  0
  3  1  1  0  0  0  0
  3  2  1  0  0  0  0
  6  2  1  0  0  0  0
  8  3  1  0  0  0  0
  9  8  1  0  0  0  0
  9 18  1  0  0  0  0
 10  9  2  0  0  0  0
 11 12  2  0  0  0  0
 11 10  1  0  0  0  0
 12 17  1  0  0  0  0
 13 14  2  0  0  0  0
 13 12  1  0  0  0  0
 14 15  1  0  0  0  0
 15 23  1  0  0  0  0
 15 16  2  0  0  0  0
 16 24  1  0  0  0  0
 17 16  1  0  0  0  0
 17  8  2  0  0  0  0
 19 10  1  0  0  0  0
 20 11  1  0  0  0  0
 21 13  1  0  0  0  0
 22 14  1  0  0  0  0
 25 31  1  0  0  0  0
 25 30  1  0  0  0  0
 26 25  2  0  0  0  0
 27 26  1  0  0  0  0
 27 28  2  0  0  0  0
 28 29  1  0  0  0  0
 29 30  2  0  0  0  0
 29 33  1  0  0  0  0
 32 26  1  0  0  0  0
 33 37  1  0  0  0  0
 34 33  1  0  0  0  0
 34 35  1  0  0  0  0
 35 36  1  0  0  0  0
 37 36  1  0  0  0  0
M  END
>  <minimizedAffinity>
-1.40692496

>  <minimizedRMSD>
1.42491126

$$$$
