
 OpenBabel03272507103D

 23 25  0  0  0  0  0  0  0  0999 V2000
   35.8230   29.1880   49.6700 C   0  0  0  0  0  0  0  0  0  0  0  0
   34.7920   29.5800   50.4890 C   0  0  0  0  0  0  0  0  0  0  0  0
   33.6100   29.0640   49.9580 C   0  0  0  0  0  0  0  0  0  0  0  0
   34.0110   28.3680   48.8090 C   0  0  0  0  0  0  0  0  0  0  0  0
   35.3080   28.4830   48.7040 O   0  0  0  0  0  0  0  0  0  0  0  0
   34.8440   30.1810   51.3960 H   0  0  0  0  0  0  0  0  0  0  0  0
   32.6280   29.2010   50.3790 H   0  0  0  0  0  0  0  0  0  0  0  0
   33.0480   27.6480   47.9190 C   0  0  0  0  0  0  0  0  0  0  0  0
   33.4930   26.2310   47.6350 C   0  0  0  0  0  0  0  0  0  0  0  0
   32.2290   25.5790   47.1440 C   0  0  0  0  0  0  0  0  0  0  0  0
   31.0690   26.4460   47.6290 C   0  0  0  0  0  0  0  0  0  0  0  0
   31.7170   27.4340   48.6020 C   0  0  0  0  0  0  0  0  0  0  0  0
   37.1990   29.5560   49.9320 C   0  0  0  0  0  0  0  0  0  0  0  0
   37.8250   28.9540   50.8330 O   0  0  0  0  0  0  0  0  0  0  0  0
   37.7820   30.6150   49.1240 C   0  0  0  0  0  0  0  0  0  0  0  0
   38.0650   31.8170   49.7590 C   0  0  0  0  0  0  0  0  0  0  0  0
   38.6200   32.8400   49.0080 C   0  0  0  0  0  0  0  0  0  0  0  0
   38.8610   32.6100   47.6760 N   0  0  0  0  0  0  0  0  0  0  0  0
   38.5800   31.4410   47.0880 C   0  0  0  0  0  0  0  0  0  0  0  0
   38.0420   30.4440   47.8040 N   0  0  0  0  0  0  0  0  0  0  0  0
   37.8930   32.0370   50.7860 H   0  0  0  0  0  0  0  0  0  0  0  0
   38.8680   33.8110   49.4360 H   0  0  0  0  0  0  0  0  0  0  0  0
   38.7680   31.2560   46.0390 H   0  0  0  0  0  0  0  0  0  0  0  0
  1 13  1  0  0  0  0
  1  2  2  0  0  0  0
  2  6  1  0  0  0  0
  3  7  1  0  0  0  0
  3  2  1  0  0  0  0
  4  3  2  0  0  0  0
  5  4  1  0  0  0  0
  5  1  1  0  0  0  0
  8 12  1  0  0  0  0
  8  4  1  0  0  0  0
  9  8  1  0  0  0  0
 10 11  1  0  0  0  0
 10  9  1  0  0  0  0
 11 12  1  0  0  0  0
 13 14  2  0  0  0  0
 15 16  1  0  0  0  0
 15 13  1  0  0  0  0
 16 21  1  0  0  0  0
 17 22  1  0  0  0  0
 17 16  2  0  0  0  0
 18 17  1  0  0  0  0
 19 18  2  0  0  0  0
 19 20  1  0  0  0  0
 20 15  2  0  0  0  0
 23 19  1  0  0  0  0
M  END
>  <minimizedAffinity>
-5.3443079

>  <minimizedRMSD>
1.38634717

$$$$
