
 OpenBabel03262522483D

 21 23  0  0  0  0  0  0  0  0999 V2000
   36.0470   30.1670   48.4420 C   0  0  0  0  0  0  0  0  0  0  0  0
   35.7530   29.1940   49.3110 C   0  0  0  0  0  0  0  0  0  0  0  0
   34.7910   28.2660   49.0300 C   0  0  0  0  0  0  0  0  0  0  0  0
   34.1720   28.4100   47.8190 C   0  0  0  0  0  0  0  0  0  0  0  0
   34.9780   29.8720   47.1080 S   0  0  0  0  0  0  0  0  0  0  0  0
   36.3010   29.1480   50.2700 H   0  0  0  0  0  0  0  0  0  0  0  0
   34.4710   27.4410   49.6510 H   0  0  0  0  0  0  0  0  0  0  0  0
   37.8290   33.0700   49.7320 C   0  0  0  0  0  0  0  0  0  0  0  0
   38.8320   33.2790   48.7610 C   0  0  0  0  0  0  0  0  0  0  0  0
   38.8810   32.4060   47.6580 C   0  0  0  0  0  0  0  0  0  0  0  0
   37.9610   31.4030   47.5830 N   0  0  0  0  0  0  0  0  0  0  0  0
   37.0250   31.2470   48.5360 C   0  0  0  0  0  0  0  0  0  0  0  0
   36.9520   32.0520   49.5870 N   0  0  0  0  0  0  0  0  0  0  0  0
   37.8090   33.7500   50.5700 H   0  0  0  0  0  0  0  0  0  0  0  0
   39.5380   34.0730   48.8480 H   0  0  0  0  0  0  0  0  0  0  0  0
   39.6500   32.5680   46.9160 H   0  0  0  0  0  0  0  0  0  0  0  0
   33.1080   27.6810   47.0940 C   0  0  0  0  0  0  0  0  0  0  0  0
   31.7450   28.1750   47.4910 C   0  0  0  0  0  0  0  0  0  0  0  0
   31.2010   27.1890   48.5060 C   0  0  0  0  0  0  0  0  0  0  0  0
   31.7730   25.8700   47.9760 C   0  0  0  0  0  0  0  0  0  0  0  0
   33.1790   26.2280   47.5350 C   0  0  0  0  0  0  0  0  0  0  0  0
  1 12  1  0  0  0  0
  1  2  2  0  0  0  0
  2  6  1  0  0  0  0
  3  2  1  0  0  0  0
  3  7  1  0  0  0  0
  4  3  2  0  0  0  0
  5  4  1  0  0  0  0
  5  1  1  0  0  0  0
  8 14  1  0  0  0  0
  9 15  1  0  0  0  0
  9  8  2  0  0  0  0
 10  9  1  0  0  0  0
 11 10  2  0  0  0  0
 11 12  1  0  0  0  0
 12 13  2  0  0  0  0
 13  8  1  0  0  0  0
 16 10  1  0  0  0  0
 17 18  1  0  0  0  0
 17 21  1  0  0  0  0
 17  4  1  0  0  0  0
 18 19  1  0  0  0  0
 20 19  1  0  0  0  0
 21 20  1  0  0  0  0
M  END
>  <minimizedAffinity>
-5.10102654

>  <minimizedRMSD>
0.925360322

$$$$
