
 OpenBabel03272510273D

 41 45  0  0  1  0  0  0  0  0999 V2000
   36.2120   30.2020   46.9550 C   0  0  0  0  0  0  0  0  0  0  0  0
   37.0600   30.7470   47.9170 C   0  0  0  0  0  0  0  0  0  0  0  0
   38.0590   31.6590   47.5660 C   0  0  0  0  0  0  0  0  0  0  0  0
   38.1520   31.9850   46.2170 C   0  0  0  0  0  0  0  0  0  0  0  0
   39.0370   32.8470   45.6340 N   0  0  0  0  0  0  0  0  0  0  0  0
   38.7540   32.8480   44.3240 C   0  0  0  0  0  0  0  0  0  0  0  0
   37.7420   32.0280   44.0840 N   0  0  0  0  0  0  0  0  0  0  0  0
   37.3370   31.4710   45.2390 C   0  0  0  0  0  0  0  0  0  0  0  0
   36.3480   30.5590   45.6240 C   0  0  0  0  0  0  0  0  0  0  0  0
   35.4380   29.4940   47.2240 H   0  0  0  0  0  0  0  0  0  0  0  0
   38.7250   32.0900   48.3090 H   0  0  0  0  0  0  0  0  0  0  0  0
   39.7940   33.4020   46.1180 H   0  0  0  0  0  0  0  0  0  0  0  0
   35.7060   30.1540   44.8520 H   0  0  0  0  0  0  0  0  0  0  0  0
   37.4280   30.1110   51.5930 C   0  0  0  0  0  0  0  0  0  0  0  0
   37.7660   30.5680   50.3320 C   0  0  0  0  0  0  0  0  0  0  0  0
   36.8830   30.3460   49.3010 C   0  0  0  0  0  0  0  0  0  0  0  0
   35.7120   29.6770   49.5990 N   0  0  0  0  0  0  0  0  0  0  0  0
   35.4040   29.2410   50.8370 C   0  0  0  0  0  0  0  0  0  0  0  0
   36.2540   29.4580   51.8160 N   0  0  0  0  0  0  0  0  0  0  0  0
   38.1810   30.3290   52.3470 H   0  0  0  0  0  0  0  0  0  0  0  0
   38.6780   31.0910   50.0860 H   0  0  0  0  0  0  0  0  0  0  0  0
   34.4680   28.7250   51.0000 H   0  0  0  0  0  0  0  0  0  0  0  0
   39.4630   33.6220   43.4040 O   0  0  0  0  0  0  0  0  0  0  0  0
   39.7450   31.7900   42.0330 N   0  0  0  0  0  0  0  0  0  0  0  0
   39.3820   33.1990   42.0510 C   0  0  1  0  0  0  0  0  0  0  0  0
   38.0400   33.3860   41.5250 C   0  0  0  0  0  0  0  0  0  0  0  0
   38.0210   32.9730   40.1810 O   0  0  0  0  0  0  0  0  0  0  0  0
   38.4580   31.7000   39.9530 C   0  0  0  0  0  0  0  0  0  0  0  0
   39.7950   31.4620   40.6300 C   0  0  2  0  0  0  0  0  0  0  0  0
   39.0960   31.1320   42.4370 H   0  0  0  0  0  0  0  0  0  0  0  0
   40.1260   33.7230   41.4280 H   0  0  0  0  0  0  0  0  0  0  0  0
   37.8640   34.5030   41.4470 H   0  0  0  0  0  0  0  0  0  0  0  0
   37.1560   32.9740   41.9290 H   0  0  0  0  0  0  0  0  0  0  0  0
   37.6780   31.0110   40.3120 H   0  0  0  0  0  0  0  0  0  0  0  0
   38.6410   31.5990   38.8760 H   0  0  0  0  0  0  0  0  0  0  0  0
   40.4730   32.2250   40.1790 H   0  0  0  0  0  0  0  0  0  0  0  0
   40.3850   30.1380   40.3280 C   0  0  0  0  0  3  0  0  0  0  0  0
   39.3880   29.2130   39.6810 C   0  0  0  0  0  2  0  0  0  0  0  0
   40.2360   27.9360   39.6110 C   0  0  0  0  0  2  0  0  0  0  0  0
   40.7870   27.8900   41.0200 C   0  0  0  0  0  2  0  0  0  0  0  0
   40.8120   29.3400   41.5210 C   0  0  0  0  0  2  0  0  0  0  0  0
  1 10  1  0  0  0  0
  1  2  1  0  0  0  0
  2 16  1  0  0  0  0
  3  2  2  0  0  0  0
  3 11  1  0  0  0  0
  4  3  1  0  0  0  0
  5 12  1  0  0  0  0
  5  4  1  0  0  0  0
  6  5  1  0  0  0  0
  7  6  2  0  0  0  0
  7  8  1  0  0  0  0
  8  9  1  0  0  0  0
  8  4  2  0  0  0  0
  9  1  2  0  0  0  0
 13  9  1  0  0  0  0
 14 19  1  0  0  0  0
 14 20  1  0  0  0  0
 15 14  2  0  0  0  0
 16 17  2  0  0  0  0
 16 15  1  0  0  0  0
 17 18  1  0  0  0  0
 18 22  1  0  0  0  0
 18 19  2  0  0  0  0
 21 15  1  0  0  0  0
 23  6  1  0  0  0  0
 24 25  1  0  0  0  0
 24 30  1  0  0  0  0
 25 31  1  6  0  0  0
 25 23  1  0  0  0  0
 26 33  1  0  0  0  0
 26 25  1  0  0  0  0
 27 26  1  0  0  0  0
 28 27  1  0  0  0  0
 28 34  1  0  0  0  0
 28 29  1  0  0  0  0
 29 36  1  6  0  0  0
 29 24  1  0  0  0  0
 32 26  1  0  0  0  0
 35 28  1  0  0  0  0
 37 29  1  0  0  0  0
 37 41  1  0  0  0  0
 38 37  1  0  0  0  0
 39 38  1  0  0  0  0
 39 40  1  0  0  0  0
 40 41  1  0  0  0  0
M  END
>  <minimizedAffinity>
-5.87834454

>  <minimizedRMSD>
0.370036066

$$$$
