
 OpenBabel03272509383D

 26 28  0  0  1  0  0  0  0  0999 V2000
   35.7730   29.4920   48.9420 C   0  0  0  0  0  0  0  0  0  0  0  0
   35.6310   29.1010   50.2840 C   0  0  0  0  0  0  0  0  0  0  0  0
   36.4640   29.6400   51.2900 C   0  0  0  0  0  0  0  0  0  0  0  0
   37.4500   30.5870   50.9260 C   0  0  0  0  0  0  0  0  0  0  0  0
   37.5560   30.9450   49.5790 C   0  0  0  0  0  0  0  0  0  0  0  0
   36.7320   30.4020   48.6330 C   0  0  0  0  0  0  0  0  0  0  0  0
   34.8730   28.3790   50.5460 H   0  0  0  0  0  0  0  0  0  0  0  0
   36.2870   29.2860   52.2950 H   0  0  0  0  0  0  0  0  0  0  0  0
   38.0470   30.9530   51.7490 H   0  0  0  0  0  0  0  0  0  0  0  0
   38.3490   31.6690   49.4790 H   0  0  0  0  0  0  0  0  0  0  0  0
   37.0350   30.9510   47.3220 C   0  0  0  0  0  3  0  0  0  0  0  0
   37.7670   32.2570   47.5720 C   0  0  0  0  0  2  0  0  0  0  0  0
   38.5470   32.3620   46.2590 C   0  0  0  0  0  2  0  0  0  0  0  0
   39.1770   30.9910   46.2300 C   0  0  0  0  0  2  0  0  0  0  0  0
   38.0780   30.0650   46.6060 C   0  0  0  0  0  2  0  0  0  0  0  0
   34.8900   28.8980   47.9730 C   0  0  1  0  0  3  0  0  0  0  0  0
   34.5930   27.6690   48.2250 O   0  0  0  0  0  1  0  0  0  0  0  0
   32.6960   31.0670   46.0700 C   0  0  0  0  0  0  0  0  0  0  0  0
   33.1240   30.9200   44.7610 C   0  0  0  0  0  0  0  0  0  0  0  0
   34.1710   30.0600   44.5130 C   0  0  0  0  0  0  0  0  0  0  0  0
   34.7790   29.3640   45.5350 N   0  0  0  0  0  0  0  0  0  0  0  0
   34.3310   29.5390   46.7890 C   0  0  0  0  0  0  0  0  0  0  0  0
   33.3230   30.3700   47.0050 N   0  0  0  0  0  0  0  0  0  0  0  0
   31.8830   31.7270   46.3060 H   0  0  0  0  0  0  0  0  0  0  0  0
   32.6300   31.4770   43.9870 H   0  0  0  0  0  0  0  0  0  0  0  0
   34.5300   29.9230   43.5010 H   0  0  0  0  0  0  0  0  0  0  0  0
  1  2  1  0  0  0  0
  2  7  1  0  0  0  0
  2  3  2  0  0  0  0
  3  8  1  0  0  0  0
  4  3  1  0  0  0  0
  4  9  1  0  0  0  0
  5  4  2  0  0  0  0
  6  1  2  0  0  0  0
  6  5  1  0  0  0  0
 10  5  1  0  0  0  0
 11 12  1  0  0  0  0
 11  6  1  0  0  0  0
 13 12  1  0  0  0  0
 14 13  1  0  0  0  0
 14 15  1  0  0  0  0
 15 11  1  0  0  0  0
 16 17  1  1  0  0  0
 16  1  1  0  0  0  0
 18 24  1  0  0  0  0
 18 23  1  0  0  0  0
 19 18  2  0  0  0  0
 20 19  1  0  0  0  0
 20 21  2  0  0  0  0
 21 22  1  0  0  0  0
 22 23  2  0  0  0  0
 22 16  1  0  0  0  0
 25 19  1  0  0  0  0
 26 20  1  0  0  0  0
M  END
>  <minimizedAffinity>
-5.10038233

>  <minimizedRMSD>
1.15779281

$$$$
