
 OpenBabel03272508163D

 27 29  0  0  0  0  0  0  0  0999 V2000
   38.3900   31.2830   47.6180 Cl  0  0  0  0  0  0  0  0  0  0  0  0
   37.1510   30.8590   46.4960 C   0  0  0  0  0  0  0  0  0  0  0  0
   36.0740   30.2700   47.0920 C   0  0  0  0  0  0  0  0  0  0  0  0
   34.9870   29.8760   46.2700 C   0  0  0  0  0  0  0  0  0  0  0  0
   35.0110   30.0770   44.9190 C   0  0  0  0  0  0  0  0  0  0  0  0
   36.1070   30.6710   44.3510 C   0  0  0  0  0  0  0  0  0  0  0  0
   36.1810   30.9460   42.6390 Cl  0  0  0  0  0  0  0  0  0  0  0  0
   37.1520   31.0510   45.1320 C   0  0  0  0  0  0  0  0  0  0  0  0
   34.0920   29.4020   46.6470 H   0  0  0  0  0  0  0  0  0  0  0  0
   34.1980   29.7870   44.2640 H   0  0  0  0  0  0  0  0  0  0  0  0
   36.9010   29.4570   49.2650 C   0  0  0  0  0  0  0  0  0  0  0  0
   35.8250   29.9520   48.5070 C   0  0  0  0  0  0  0  0  0  0  0  0
   34.5860   30.1180   49.1310 C   0  0  0  0  0  0  0  0  0  0  0  0
   34.5110   29.7780   50.4510 N   0  0  0  0  0  0  0  0  0  0  0  0
   35.5690   29.3040   51.1480 C   0  0  0  0  0  0  0  0  0  0  0  0
   36.7830   29.1400   50.5450 N   0  0  0  0  0  0  0  0  0  0  0  0
   37.8620   29.3300   48.7770 H   0  0  0  0  0  0  0  0  0  0  0  0
   33.7830   30.4910   48.5500 H   0  0  0  0  0  0  0  0  0  0  0  0
   35.4660   29.0460   52.1980 H   0  0  0  0  0  0  0  0  0  0  0  0
   38.3720   31.6990   44.6110 C   0  0  0  0  0  0  0  0  0  0  0  0
   38.6010   32.9170   44.4840 O   0  0  0  0  0  0  0  0  0  0  0  0
   39.5320   31.0450   44.1510 O   0  0  0  0  0  0  0  0  0  0  0  0
   39.5760   30.1300   43.1250 C   0  0  0  0  0  0  0  0  0  0  0  0
   39.2390   28.7150   43.5300 C   0  0  0  0  0  0  0  0  0  0  0  0
   39.7580   27.9450   42.3220 C   0  0  0  0  0  0  0  0  0  0  0  0
   41.0060   28.7140   41.8950 C   0  0  0  0  0  0  0  0  0  0  0  0
   41.0060   30.0030   42.6470 C   0  0  0  0  0  0  0  0  0  0  0  0
  2  3  1  0  0  0  0
  2  1  1  0  0  0  0
  3 12  1  0  0  0  0
  4  9  1  0  0  0  0
  4  3  2  0  0  0  0
  5  4  1  0  0  0  0
  6  5  2  0  0  0  0
  6  8  1  0  0  0  0
  7  6  1  0  0  0  0
  8  2  2  0  0  0  0
 10  5  1  0  0  0  0
 11 16  1  0  0  0  0
 12 13  1  0  0  0  0
 12 11  2  0  0  0  0
 13 14  2  0  0  0  0
 14 15  1  0  0  0  0
 15 19  1  0  0  0  0
 16 15  2  0  0  0  0
 17 11  1  0  0  0  0
 18 13  1  0  0  0  0
 20  8  1  0  0  0  0
 21 20  2  0  0  0  0
 22 20  1  0  0  0  0
 23 24  1  0  0  0  0
 23 22  1  0  0  0  0
 25 24  1  0  0  0  0
 26 25  1  0  0  0  0
 26 27  1  0  0  0  0
 27 23  1  0  0  0  0
M  END
>  <minimizedAffinity>
-5.25059509

>  <minimizedRMSD>
6.10494232

$$$$
