
     RDKit          3D

 39 41  0  0  0  0  0  0  0  0999 V2000
   36.7969   31.1834   48.6987 C   0  0  0  0  0  0  0  0  0  0  0  0
   35.8684   30.4740   49.4992 C   0  0  0  0  0  0  0  0  0  0  0  0
   36.3073   30.0633   50.7442 C   0  0  0  0  0  0  0  0  0  0  0  0
   37.5737   30.3455   51.1428 N   0  0  0  0  0  0  0  0  0  0  0  0
   38.4315   31.0297   50.3404 C   0  0  0  0  0  0  0  0  0  0  0  0
   38.0299   31.4467   49.1123 N   0  0  0  0  0  0  0  0  0  0  0  0
   34.4792   30.1618   49.0717 C   0  0  1  0  0  0  0  0  0  0  0  0
   34.2194   30.3385   47.6325 C   0  0  0  0  0  0  0  0  0  0  0  0
   34.4095   29.1352   46.7516 C   0  0  0  0  0  0  0  0  0  0  0  0
   33.9690   27.8523   47.3517 C   0  0  0  0  0  0  0  0  0  0  0  0
   34.2941   27.6478   48.7826 C   0  0  0  0  0  0  0  0  0  0  0  0
   33.9670   28.8698   49.6042 C   0  0  2  0  0  0  0  0  0  0  0  0
   36.5130   31.5292   47.7184 H   0  0  0  0  0  0  0  0  0  0  0  0
   35.7650   29.5242   51.4987 H   0  0  0  0  0  0  0  0  0  0  0  0
   39.4478   31.2754   50.6186 H   0  0  0  0  0  0  0  0  0  0  0  0
   33.8802   30.9572   49.6208 H   0  0  0  0  0  0  0  0  0  0  0  0
   33.0963   30.5186   47.5574 H   0  0  0  0  0  0  0  0  0  0  0  0
   34.6452   31.1941   47.1400 H   0  0  0  0  0  0  0  0  0  0  0  0
   35.4778   29.0290   46.4627 H   0  0  0  0  0  0  0  0  0  0  0  0
   33.8455   29.2996   45.8106 H   0  0  0  0  0  0  0  0  0  0  0  0
   32.8541   27.7860   47.2415 H   0  0  0  0  0  0  0  0  0  0  0  0
   34.3923   27.0155   46.7631 H   0  0  0  0  0  0  0  0  0  0  0  0
   35.3845   27.4682   48.8866 H   0  0  0  0  0  0  0  0  0  0  0  0
   33.7727   26.7953   49.1935 H   0  0  0  0  0  0  0  0  0  0  0  0
   34.2855   28.6187   50.6252 H   0  0  0  0  0  0  0  0  0  0  0  0
   32.4341   29.0069   49.7504 C   0  0  0  0  0  0  0  0  0  0  0  0
   32.0057   28.4408   51.0808 C   0  0  0  0  0  0  0  0  0  0  0  0
   30.5492   28.0119   50.8639 C   0  0  0  0  0  0  0  0  0  0  0  0
   30.6080   27.4295   49.4829 C   0  0  0  0  0  0  0  0  0  0  0  0
   31.7239   28.1473   48.7602 C   0  0  0  0  0  0  0  0  0  0  0  0
   32.1869   30.0766   49.6583 H   0  0  0  0  0  0  0  0  0  0  0  0
   31.9486   29.1931   51.8956 H   0  0  0  0  0  0  0  0  0  0  0  0
   32.5627   27.5298   51.3262 H   0  0  0  0  0  0  0  0  0  0  0  0
   30.3373   27.2204   51.6337 H   0  0  0  0  0  0  0  0  0  0  0  0
   29.8633   28.8559   50.9785 H   0  0  0  0  0  0  0  0  0  0  0  0
   29.6361   27.5352   48.9378 H   0  0  0  0  0  0  0  0  0  0  0  0
   30.8020   26.3275   49.6018 H   0  0  0  0  0  0  0  0  0  0  0  0
   32.3613   27.3600   48.3163 H   0  0  0  0  0  0  0  0  0  0  0  0
   31.2776   28.8113   47.9783 H   0  0  0  0  0  0  0  0  0  0  0  0
  1  6  2  0
  1  2  1  0
  2  3  2  0
  3  4  1  0
  5  4  2  0
  6  5  1  0
  7  2  1  0
  7 12  1  0
  8  7  1  0
  9 10  1  0
  9  8  1  0
 10 11  1  0
 11 12  1  0
  1 13  1  0
  3 14  1  0
  5 15  1  0
  7 16  1  1
  8 17  1  0
  8 18  1  0
  9 19  1  0
  9 20  1  0
 10 21  1  0
 10 22  1  0
 11 23  1  0
 11 24  1  0
 12 25  1  1
 26 27  1  0
 27 28  1  0
 28 29  1  0
 29 30  1  0
 30 26  1  0
 26 31  1  0
 27 32  1  0
 27 33  1  0
 28 34  1  0
 28 35  1  0
 29 36  1  0
 29 37  1  0
 30 38  1  0
 30 39  1  0
 12 26  1  0
M  ISO  8  13  14  14  14  15  14  16  13  17  13  18  13  19  13  20  13
M  ISO  5  21  13  22  13  23  13  24  13  25  13
M  END
>  <DihAtoms>  (1) 
6,11,25,26

>  <DihDeg>  (1) 
-60.33219487180141

$$$$
