
 OpenBabel03272507593D

 28 30  0  0  0  0  0  0  0  0999 V2000
   33.2550   31.4540   36.1480 C   0  0  0  0  0  0  0  0  0  0  0  0
   34.3180   30.9100   35.3850 C   0  0  0  0  0  0  0  0  0  0  0  0
   34.0230   29.9250   34.4540 C   0  0  0  0  0  0  0  0  0  0  0  0
   32.7180   29.5250   34.3160 N   0  0  0  0  0  0  0  0  0  0  0  0
   31.7290   30.0830   35.0790 C   0  0  0  0  0  0  0  0  0  0  0  0
   31.9930   31.0360   35.9840 N   0  0  0  0  0  0  0  0  0  0  0  0
   30.4600   29.5100   34.7600 N   0  0  0  0  0  0  0  0  0  0  0  0
   33.4800   32.2240   36.8770 H   0  0  0  0  0  0  0  0  0  0  0  0
   29.9450   29.0410   35.5570 H   0  0  0  0  0  0  0  0  0  0  0  0
   30.1300   29.5930   33.7680 H   0  0  0  0  0  0  0  0  0  0  0  0
   35.0900   29.3370   33.6460 C   0  0  0  0  0  0  0  0  0  0  0  0
   35.1490   29.8740   32.3780 C   0  0  0  0  0  0  0  0  0  0  0  0
   36.1090   29.4220   31.4890 C   0  0  0  0  0  0  0  0  0  0  0  0
   36.9950   28.4480   31.8650 C   0  0  0  0  0  0  0  0  0  0  0  0
   36.9110   27.9260   33.1530 C   0  0  0  0  0  0  0  0  0  0  0  0
   35.9750   28.3790   33.9920 N   0  0  0  0  0  0  0  0  0  0  0  0
   34.5170   30.6510   31.9340 H   0  0  0  0  0  0  0  0  0  0  0  0
   36.2240   29.7870   30.4790 H   0  0  0  0  0  0  0  0  0  0  0  0
   37.7950   28.0000   31.2780 H   0  0  0  0  0  0  0  0  0  0  0  0
   37.8230   26.8670   33.6580 C   0  0  0  0  0  3  0  0  0  0  0  0
   37.7680   26.6910   35.1530 C   0  0  0  0  0  2  0  0  0  0  0  0
   39.1360   27.0680   35.6660 C   0  0  0  0  0  2  0  0  0  0  0  0
   40.0070   26.5060   34.5360 C   0  0  0  0  0  2  0  0  0  0  0  0
   39.2860   27.1580   33.3490 C   0  0  0  0  0  2  0  0  0  0  0  0
   35.7000   31.4160   35.6150 C   0  0  0  0  0  0  0  0  0  0  0  0
   36.1860   32.0880   34.4890 F   0  0  0  0  0  0  0  0  0  0  0  0
   35.6810   32.2850   36.6630 F   0  0  0  0  0  0  0  0  0  0  0  0
   36.6030   30.4060   35.9050 F   0  0  0  0  0  0  0  0  0  0  0  0
  1  8  1  0  0  0  0
  2 25  1  0  0  0  0
  2  1  2  0  0  0  0
  3  2  1  0  0  0  0
  4  3  2  0  0  0  0
  4  5  1  0  0  0  0
  5  6  2  0  0  0  0
  6  1  1  0  0  0  0
  7  5  1  0  0  0  0
  7  9  1  0  0  0  0
 10  7  1  0  0  0  0
 11 16  1  0  0  0  0
 11  3  1  0  0  0  0
 12 11  2  0  0  0  0
 13 14  2  0  0  0  0
 13 12  1  0  0  0  0
 14 15  1  0  0  0  0
 15 20  1  0  0  0  0
 15 16  2  0  0  0  0
 17 12  1  0  0  0  0
 18 13  1  0  0  0  0
 19 14  1  0  0  0  0
 20 21  1  0  0  0  0
 21 22  1  0  0  0  0
 23 22  1  0  0  0  0
 24 20  1  0  0  0  0
 24 23  1  0  0  0  0
 25 28  1  0  0  0  0
 25 27  1  0  0  0  0
 26 25  1  0  0  0  0
M  END
>  <minimizedAffinity>
-5.76310205

$$$$

 OpenBabel03272507593D

 28 30  0  0  0  0  0  0  0  0999 V2000
   41.0630   23.0040   36.7600 C   0  0  0  0  0  0  0  0  0  0  0  0
   40.4460   23.8970   35.8480 C   0  0  0  0  0  0  0  0  0  0  0  0
   39.1430   24.3010   36.1030 C   0  0  0  0  0  0  0  0  0  0  0  0
   38.5150   23.8180   37.2230 N   0  0  0  0  0  0  0  0  0  0  0  0
   39.1570   22.9580   38.0710 C   0  0  0  0  0  0  0  0  0  0  0  0
   40.4150   22.5550   37.8430 N   0  0  0  0  0  0  0  0  0  0  0  0
   38.3080   22.5940   39.1600 N   0  0  0  0  0  0  0  0  0  0  0  0
   42.0800   22.6850   36.5660 H   0  0  0  0  0  0  0  0  0  0  0  0
   38.1080   21.5600   39.2730 H   0  0  0  0  0  0  0  0  0  0  0  0
   37.9460   23.3680   39.7680 H   0  0  0  0  0  0  0  0  0  0  0  0
   38.4700   25.2210   35.1880 C   0  0  0  0  0  0  0  0  0  0  0  0
   38.3140   26.4810   35.7250 C   0  0  0  0  0  0  0  0  0  0  0  0
   37.6930   27.4690   34.9800 C   0  0  0  0  0  0  0  0  0  0  0  0
   37.2370   27.1990   33.7180 C   0  0  0  0  0  0  0  0  0  0  0  0
   37.4100   25.9170   33.2020 C   0  0  0  0  0  0  0  0  0  0  0  0
   38.0120   24.9810   33.9410 N   0  0  0  0  0  0  0  0  0  0  0  0
   38.6240   26.8470   36.7110 H   0  0  0  0  0  0  0  0  0  0  0  0
   37.5310   28.4800   35.3240 H   0  0  0  0  0  0  0  0  0  0  0  0
   36.7350   27.8710   33.0230 H   0  0  0  0  0  0  0  0  0  0  0  0
   36.9510   25.5220   31.8450 C   0  0  0  0  0  3  0  0  0  0  0  0
   35.8350   26.3830   31.3150 C   0  0  0  0  0  2  0  0  0  0  0  0
   34.6420   25.4700   31.1670 C   0  0  0  0  0  2  0  0  0  0  0  0
   35.3430   24.1900   30.7000 C   0  0  0  0  0  2  0  0  0  0  0  0
   36.4070   24.1000   31.8020 C   0  0  0  0  0  2  0  0  0  0  0  0
   41.2180   24.3600   34.6620 C   0  0  0  0  0  0  0  0  0  0  0  0
   41.2910   25.7550   34.6190 F   0  0  0  0  0  0  0  0  0  0  0  0
   42.4830   23.8620   34.7400 F   0  0  0  0  0  0  0  0  0  0  0  0
   40.6630   23.9470   33.4620 F   0  0  0  0  0  0  0  0  0  0  0  0
  1  6  1  0  0  0  0
  2  3  1  0  0  0  0
  2  1  2  0  0  0  0
  3  4  2  0  0  0  0
  4  5  1  0  0  0  0
  5  7  1  0  0  0  0
  6  5  2  0  0  0  0
  7  9  1  0  0  0  0
  7 10  1  0  0  0  0
  8  1  1  0  0  0  0
 11 12  1  0  0  0  0
 11  3  1  0  0  0  0
 12 17  1  0  0  0  0
 13 18  1  0  0  0  0
 13 12  2  0  0  0  0
 14 13  1  0  0  0  0
 15 14  2  0  0  0  0
 15 16  1  0  0  0  0
 16 11  2  0  0  0  0
 19 14  1  0  0  0  0
 20 15  1  0  0  0  0
 21 20  1  0  0  0  0
 22 21  1  0  0  0  0
 23 22  1  0  0  0  0
 23 24  1  0  0  0  0
 24 20  1  0  0  0  0
 25 27  1  0  0  0  0
 25  2  1  0  0  0  0
 26 25  1  0  0  0  0
 28 25  1  0  0  0  0
M  END
>  <minimizedAffinity>
-5.75938129

$$$$

 OpenBabel03272507593D

 28 30  0  0  0  0  0  0  0  0999 V2000
   36.2840   28.3440   32.3320 C   0  0  0  0  0  0  0  0  0  0  0  0
   37.2340   27.7020   33.1650 C   0  0  0  0  0  0  0  0  0  0  0  0
   38.3650   27.1560   32.5740 C   0  0  0  0  0  0  0  0  0  0  0  0
   38.5100   27.2640   31.2140 N   0  0  0  0  0  0  0  0  0  0  0  0
   37.5620   27.8940   30.4550 C   0  0  0  0  0  0  0  0  0  0  0  0
   36.4630   28.4280   31.0070 N   0  0  0  0  0  0  0  0  0  0  0  0
   37.9290   27.8820   29.0750 N   0  0  0  0  0  0  0  0  0  0  0  0
   35.3990   28.7710   32.7870 H   0  0  0  0  0  0  0  0  0  0  0  0
   37.2450   27.4170   28.4140 H   0  0  0  0  0  0  0  0  0  0  0  0
   38.8400   28.3310   28.8150 H   0  0  0  0  0  0  0  0  0  0  0  0
   39.3700   26.4860   33.3970 C   0  0  0  0  0  0  0  0  0  0  0  0
   40.5390   27.2100   33.4990 C   0  0  0  0  0  0  0  0  0  0  0  0
   41.5900   26.7080   34.2470 C   0  0  0  0  0  0  0  0  0  0  0  0
   41.4710   25.5010   34.8830 C   0  0  0  0  0  0  0  0  0  0  0  0
   40.2780   24.7940   34.7620 C   0  0  0  0  0  0  0  0  0  0  0  0
   39.2780   25.2990   34.0340 N   0  0  0  0  0  0  0  0  0  0  0  0
   40.7820   28.1810   33.0530 H   0  0  0  0  0  0  0  0  0  0  0  0
   42.5380   27.2090   34.3780 H   0  0  0  0  0  0  0  0  0  0  0  0
   42.2080   24.9880   35.5000 H   0  0  0  0  0  0  0  0  0  0  0  0
   40.0490   23.4770   35.4110 C   0  0  0  0  0  3  0  0  0  0  0  0
   38.8430   23.4550   36.3130 C   0  0  0  0  0  2  0  0  0  0  0  0
   39.3710   23.2070   37.7050 C   0  0  0  0  0  2  0  0  0  0  0  0
   40.5090   22.2300   37.3870 C   0  0  0  0  0  2  0  0  0  0  0  0
   41.2120   23.0490   36.2970 C   0  0  0  0  0  2  0  0  0  0  0  0
   36.9790   27.6400   34.6310 C   0  0  0  0  0  0  0  0  0  0  0  0
   38.0850   28.0910   35.3560 F   0  0  0  0  0  0  0  0  0  0  0  0
   35.9140   28.4360   34.9250 F   0  0  0  0  0  0  0  0  0  0  0  0
   36.6990   26.3580   35.0760 F   0  0  0  0  0  0  0  0  0  0  0  0
  1  8  1  0  0  0  0
  1  2  1  0  0  0  0
  2 25  1  0  0  0  0
  3  2  2  0  0  0  0
  3 11  1  0  0  0  0
  4  3  1  0  0  0  0
  5  6  1  0  0  0  0
  5  4  2  0  0  0  0
  6  1  2  0  0  0  0
  7  5  1  0  0  0  0
  9  7  1  0  0  0  0
 10  7  1  0  0  0  0
 11 12  2  0  0  0  0
 11 16  1  0  0  0  0
 12 13  1  0  0  0  0
 13 18  1  0  0  0  0
 13 14  2  0  0  0  0
 14 19  1  0  0  0  0
 15 14  1  0  0  0  0
 15 20  1  0  0  0  0
 16 15  2  0  0  0  0
 17 12  1  0  0  0  0
 20 24  1  0  0  0  0
 20 21  1  0  0  0  0
 21 22  1  0  0  0  0
 23 22  1  0  0  0  0
 24 23  1  0  0  0  0
 25 27  1  0  0  0  0
 25 28  1  0  0  0  0
 25 26  1  0  0  0  0
M  END
>  <minimizedAffinity>
-5.70884228

$$$$

 OpenBabel03272507593D

 28 30  0  0  0  0  0  0  0  0999 V2000
   40.2260   22.6240   37.7720 C   0  0  0  0  0  0  0  0  0  0  0  0
   39.3010   22.8670   36.7260 C   0  0  0  0  0  0  0  0  0  0  0  0
   39.6410   22.4710   35.4410 C   0  0  0  0  0  0  0  0  0  0  0  0
   40.8550   21.8640   35.2420 N   0  0  0  0  0  0  0  0  0  0  0  0
   41.7130   21.6530   36.2870 C   0  0  0  0  0  0  0  0  0  0  0  0
   41.4030   22.0280   37.5370 N   0  0  0  0  0  0  0  0  0  0  0  0
   42.9070   21.0100   35.8400 N   0  0  0  0  0  0  0  0  0  0  0  0
   39.9660   22.9320   38.7770 H   0  0  0  0  0  0  0  0  0  0  0  0
   43.8130   21.5280   36.0200 H   0  0  0  0  0  0  0  0  0  0  0  0
   42.8050   20.0790   35.3690 H   0  0  0  0  0  0  0  0  0  0  0  0
   38.7150   22.7020   34.3340 C   0  0  0  0  0  0  0  0  0  0  0  0
   39.0670   23.7940   33.5690 C   0  0  0  0  0  0  0  0  0  0  0  0
   38.2870   24.1450   32.4810 C   0  0  0  0  0  0  0  0  0  0  0  0
   37.1730   23.4140   32.1630 C   0  0  0  0  0  0  0  0  0  0  0  0
   36.8440   22.3170   32.9540 C   0  0  0  0  0  0  0  0  0  0  0  0
   37.6120   21.9990   34.0000 N   0  0  0  0  0  0  0  0  0  0  0  0
   39.9200   24.4700   33.6950 H   0  0  0  0  0  0  0  0  0  0  0  0
   38.4910   24.9830   31.8310 H   0  0  0  0  0  0  0  0  0  0  0  0
   36.4740   23.5720   31.3440 H   0  0  0  0  0  0  0  0  0  0  0  0
   35.6570   21.4600   32.6960 C   0  0  0  0  0  3  0  0  0  0  0  0
   35.4250   20.4200   33.7600 C   0  0  0  0  0  2  0  0  0  0  0  0
   35.6030   19.0850   33.0800 C   0  0  0  0  0  2  0  0  0  0  0  0
   34.9850   19.3990   31.7130 C   0  0  0  0  0  2  0  0  0  0  0  0
   35.7740   20.6760   31.3960 C   0  0  0  0  0  2  0  0  0  0  0  0
   38.0090   23.5340   37.0510 C   0  0  0  0  0  0  0  0  0  0  0  0
   36.9280   22.6750   36.8340 F   0  0  0  0  0  0  0  0  0  0  0  0
   38.0190   23.8940   38.3640 F   0  0  0  0  0  0  0  0  0  0  0  0
   37.7820   24.6700   36.2900 F   0  0  0  0  0  0  0  0  0  0  0  0
  1  8  1  0  0  0  0
  2 25  1  0  0  0  0
  2  1  2  0  0  0  0
  3  2  1  0  0  0  0
  4  3  2  0  0  0  0
  4  5  1  0  0  0  0
  5  6  2  0  0  0  0
  6  1  1  0  0  0  0
  7  9  1  0  0  0  0
  7  5  1  0  0  0  0
 10  7  1  0  0  0  0
 11  3  1  0  0  0  0
 12 17  1  0  0  0  0
 12 11  2  0  0  0  0
 13 12  1  0  0  0  0
 14 13  2  0  0  0  0
 14 15  1  0  0  0  0
 15 16  2  0  0  0  0
 16 11  1  0  0  0  0
 18 13  1  0  0  0  0
 19 14  1  0  0  0  0
 20 15  1  0  0  0  0
 20 21  1  0  0  0  0
 22 21  1  0  0  0  0
 23 22  1  0  0  0  0
 24 23  1  0  0  0  0
 24 20  1  0  0  0  0
 25 27  1  0  0  0  0
 26 25  1  0  0  0  0
 28 25  1  0  0  0  0
M  END
>  <minimizedAffinity>
-5.65930319

$$$$

 OpenBabel03272507593D

 28 30  0  0  0  0  0  0  0  0999 V2000
   36.9550   27.5210   33.6180 C   0  0  0  0  0  0  0  0  0  0  0  0
   37.7640   26.6020   34.3320 C   0  0  0  0  0  0  0  0  0  0  0  0
   37.9210   25.3240   33.8160 C   0  0  0  0  0  0  0  0  0  0  0  0
   37.2880   25.0100   32.6400 N   0  0  0  0  0  0  0  0  0  0  0  0
   36.5180   25.9360   31.9900 C   0  0  0  0  0  0  0  0  0  0  0  0
   36.3530   27.1760   32.4720 N   0  0  0  0  0  0  0  0  0  0  0  0
   35.9640   25.3830   30.7950 N   0  0  0  0  0  0  0  0  0  0  0  0
   36.8290   28.5200   34.0170 H   0  0  0  0  0  0  0  0  0  0  0  0
   34.9070   25.3810   30.7270 H   0  0  0  0  0  0  0  0  0  0  0  0
   36.6350   25.0220   30.0750 H   0  0  0  0  0  0  0  0  0  0  0  0
   38.7470   24.3460   34.5210 C   0  0  0  0  0  0  0  0  0  0  0  0
   37.9970   23.4580   35.2630 C   0  0  0  0  0  0  0  0  0  0  0  0
   38.6340   22.4670   35.9910 C   0  0  0  0  0  0  0  0  0  0  0  0
   40.0000   22.3680   35.9750 C   0  0  0  0  0  0  0  0  0  0  0  0
   40.7300   23.2790   35.2160 C   0  0  0  0  0  0  0  0  0  0  0  0
   40.0910   24.2260   34.5220 N   0  0  0  0  0  0  0  0  0  0  0  0
   36.9080   23.4090   35.3740 H   0  0  0  0  0  0  0  0  0  0  0  0
   38.1240   21.7330   36.5970 H   0  0  0  0  0  0  0  0  0  0  0  0
   40.6300   21.6470   36.4920 H   0  0  0  0  0  0  0  0  0  0  0  0
   42.2130   23.2570   35.1320 C   0  0  0  0  0  3  0  0  0  0  0  0
   42.8850   22.9600   36.4470 C   0  0  0  0  0  2  0  0  0  0  0  0
   43.6700   24.2000   36.8000 C   0  0  0  0  0  2  0  0  0  0  0  0
   44.1480   24.6170   35.4060 C   0  0  0  0  0  2  0  0  0  0  0  0
   42.7940   24.5930   34.6850 C   0  0  0  0  0  2  0  0  0  0  0  0
   38.4060   27.0450   35.6010 C   0  0  0  0  0  0  0  0  0  0  0  0
   39.7930   27.1450   35.4580 F   0  0  0  0  0  0  0  0  0  0  0  0
   37.9170   28.2710   35.9360 F   0  0  0  0  0  0  0  0  0  0  0  0
   38.1700   26.1800   36.6570 F   0  0  0  0  0  0  0  0  0  0  0  0
  1  8  1  0  0  0  0
  1  2  1  0  0  0  0
  2 25  1  0  0  0  0
  3  2  2  0  0  0  0
  3 11  1  0  0  0  0
  4  3  1  0  0  0  0
  5  6  1  0  0  0  0
  5  4  2  0  0  0  0
  6  1  2  0  0  0  0
  7  5  1  0  0  0  0
  9  7  1  0  0  0  0
 10  7  1  0  0  0  0
 11 16  2  0  0  0  0
 11 12  1  0  0  0  0
 12 17  1  0  0  0  0
 12 13  2  0  0  0  0
 13 18  1  0  0  0  0
 14 13  1  0  0  0  0
 14 19  1  0  0  0  0
 15 14  2  0  0  0  0
 16 15  1  0  0  0  0
 20 15  1  0  0  0  0
 20 21  1  0  0  0  0
 21 22  1  0  0  0  0
 23 22  1  0  0  0  0
 24 20  1  0  0  0  0
 24 23  1  0  0  0  0
 25 27  1  0  0  0  0
 25 28  1  0  0  0  0
 26 25  1  0  0  0  0
M  END
>  <minimizedAffinity>
-5.61250734

$$$$

 OpenBabel03272507593D

 28 30  0  0  0  0  0  0  0  0999 V2000
   40.1350   26.8540   34.9130 C   0  0  0  0  0  0  0  0  0  0  0  0
   39.0370   26.0880   34.4470 C   0  0  0  0  0  0  0  0  0  0  0  0
   39.0050   25.7330   33.1060 C   0  0  0  0  0  0  0  0  0  0  0  0
   40.0350   26.1380   32.2960 N   0  0  0  0  0  0  0  0  0  0  0  0
   41.0720   26.8770   32.7970 C   0  0  0  0  0  0  0  0  0  0  0  0
   41.1220   27.2310   34.0890 N   0  0  0  0  0  0  0  0  0  0  0  0
   42.0190   27.1790   31.7720 N   0  0  0  0  0  0  0  0  0  0  0  0
   40.1660   27.1340   35.9590 H   0  0  0  0  0  0  0  0  0  0  0  0
   42.2000   28.2070   31.5910 H   0  0  0  0  0  0  0  0  0  0  0  0
   42.4650   26.3720   31.2750 H   0  0  0  0  0  0  0  0  0  0  0  0
   37.8910   24.9430   32.5850 C   0  0  0  0  0  0  0  0  0  0  0  0
   36.9050   25.7270   32.0240 C   0  0  0  0  0  0  0  0  0  0  0  0
   35.7800   25.1260   31.4840 C   0  0  0  0  0  0  0  0  0  0  0  0
   35.6460   23.7630   31.5070 C   0  0  0  0  0  0  0  0  0  0  0  0
   36.6580   22.9990   32.0800 C   0  0  0  0  0  0  0  0  0  0  0  0
   37.7340   23.6030   32.5940 N   0  0  0  0  0  0  0  0  0  0  0  0
   36.8690   26.8170   31.9310 H   0  0  0  0  0  0  0  0  0  0  0  0
   34.9630   25.6640   31.0270 H   0  0  0  0  0  0  0  0  0  0  0  0
   34.8250   23.1600   31.1230 H   0  0  0  0  0  0  0  0  0  0  0  0
   36.6090   21.5160   32.1550 C   0  0  0  0  0  3  0  0  0  0  0  0
   35.6220   20.8990   31.1990 C   0  0  0  0  0  2  0  0  0  0  0  0
   34.5770   20.2290   32.0580 C   0  0  0  0  0  2  0  0  0  0  0  0
   35.4630   19.7060   33.1940 C   0  0  0  0  0  2  0  0  0  0  0  0
   36.1950   21.0120   33.5310 C   0  0  0  0  0  2  0  0  0  0  0  0
   37.9710   25.7000   35.4120 C   0  0  0  0  0  0  0  0  0  0  0  0
   37.8110   24.3120   35.4580 F   0  0  0  0  0  0  0  0  0  0  0  0
   38.3210   26.1370   36.6530 F   0  0  0  0  0  0  0  0  0  0  0  0
   36.7350   26.2400   35.0950 F   0  0  0  0  0  0  0  0  0  0  0  0
  1  8  1  0  0  0  0
  2  1  1  0  0  0  0
  2 25  1  0  0  0  0
  3  2  2  0  0  0  0
  4  5  2  0  0  0  0
  4  3  1  0  0  0  0
  5  6  1  0  0  0  0
  6  1  2  0  0  0  0
  7  5  1  0  0  0  0
  9  7  1  0  0  0  0
 10  7  1  0  0  0  0
 11 16  1  0  0  0  0
 11  3  1  0  0  0  0
 12 11  2  0  0  0  0
 13 14  2  0  0  0  0
 13 12  1  0  0  0  0
 14 15  1  0  0  0  0
 15 20  1  0  0  0  0
 15 16  2  0  0  0  0
 17 12  1  0  0  0  0
 18 13  1  0  0  0  0
 19 14  1  0  0  0  0
 20 24  1  0  0  0  0
 21 22  1  0  0  0  0
 21 20  1  0  0  0  0
 22 23  1  0  0  0  0
 23 24  1  0  0  0  0
 25 26  1  0  0  0  0
 25 27  1  0  0  0  0
 28 25  1  0  0  0  0
M  END
>  <minimizedAffinity>
-5.52295589

$$$$

 OpenBabel03272507593D

 28 30  0  0  0  0  0  0  0  0999 V2000
   36.1350   19.5180   30.3980 C   0  0  0  0  0  0  0  0  0  0  0  0
   36.2990   20.4610   31.4440 C   0  0  0  0  0  0  0  0  0  0  0  0
   37.5110   21.1270   31.5450 C   0  0  0  0  0  0  0  0  0  0  0  0
   38.4930   20.8440   30.6300 N   0  0  0  0  0  0  0  0  0  0  0  0
   38.2830   19.9250   29.6390 C   0  0  0  0  0  0  0  0  0  0  0  0
   37.1190   19.2690   29.5240 N   0  0  0  0  0  0  0  0  0  0  0  0
   39.4410   19.7990   28.8130 N   0  0  0  0  0  0  0  0  0  0  0  0
   35.1900   18.9940   30.3140 H   0  0  0  0  0  0  0  0  0  0  0  0
   39.8710   18.8330   28.7540 H   0  0  0  0  0  0  0  0  0  0  0  0
   39.7810   20.6630   28.3260 H   0  0  0  0  0  0  0  0  0  0  0  0
   37.7210   22.1070   32.6100 C   0  0  0  0  0  0  0  0  0  0  0  0
   37.6840   23.4060   32.1470 C   0  0  0  0  0  0  0  0  0  0  0  0
   37.8660   24.4520   33.0350 C   0  0  0  0  0  0  0  0  0  0  0  0
   38.0800   24.2010   34.3640 C   0  0  0  0  0  0  0  0  0  0  0  0
   38.1110   22.8800   34.8010 C   0  0  0  0  0  0  0  0  0  0  0  0
   37.9330   21.8880   33.9240 N   0  0  0  0  0  0  0  0  0  0  0  0
   37.5240   23.7620   31.1240 H   0  0  0  0  0  0  0  0  0  0  0  0
   37.8530   25.4960   32.7570 H   0  0  0  0  0  0  0  0  0  0  0  0
   38.2370   24.9180   35.1690 H   0  0  0  0  0  0  0  0  0  0  0  0
   38.3370   22.5020   36.2200 C   0  0  0  0  0  3  0  0  0  0  0  0
   37.3210   23.0880   37.1660 C   0  0  0  0  0  2  0  0  0  0  0  0
   38.0890   24.0180   38.0730 C   0  0  0  0  0  2  0  0  0  0  0  0
   39.3890   23.2220   38.2310 C   0  0  0  0  0  2  0  0  0  0  0  0
   39.6850   22.9760   36.7450 C   0  0  0  0  0  2  0  0  0  0  0  0
   35.1670   20.6930   32.3850 C   0  0  0  0  0  0  0  0  0  0  0  0
   34.8290   22.0480   32.4440 F   0  0  0  0  0  0  0  0  0  0  0  0
   34.0830   19.9950   31.9490 F   0  0  0  0  0  0  0  0  0  0  0  0
   35.4510   20.2890   33.6800 F   0  0  0  0  0  0  0  0  0  0  0  0
  1  2  1  0  0  0  0
  2  3  2  0  0  0  0
  2 25  1  0  0  0  0
  3 11  1  0  0  0  0
  4  3  1  0  0  0  0
  5  4  2  0  0  0  0
  6  5  1  0  0  0  0
  6  1  2  0  0  0  0
  7  5  1  0  0  0  0
  8  1  1  0  0  0  0
  9  7  1  0  0  0  0
 10  7  1  0  0  0  0
 11 16  1  0  0  0  0
 12 11  2  0  0  0  0
 12 13  1  0  0  0  0
 13 14  2  0  0  0  0
 14 15  1  0  0  0  0
 14 19  1  0  0  0  0
 15 20  1  0  0  0  0
 16 15  2  0  0  0  0
 17 12  1  0  0  0  0
 18 13  1  0  0  0  0
 20 24  1  0  0  0  0
 20 21  1  0  0  0  0
 21 22  1  0  0  0  0
 22 23  1  0  0  0  0
 24 23  1  0  0  0  0
 25 26  1  0  0  0  0
 25 28  1  0  0  0  0
 27 25  1  0  0  0  0
M  END
>  <minimizedAffinity>
-5.48699331

$$$$

 OpenBabel03272507593D

 28 30  0  0  0  0  0  0  0  0999 V2000
   40.1370   22.6150   37.8790 C   0  0  0  0  0  0  0  0  0  0  0  0
   39.3050   23.2420   36.9170 C   0  0  0  0  0  0  0  0  0  0  0  0
   39.6220   23.0910   35.5750 C   0  0  0  0  0  0  0  0  0  0  0  0
   40.7230   22.3430   35.2430 N   0  0  0  0  0  0  0  0  0  0  0  0
   41.4920   21.7580   36.2110 C   0  0  0  0  0  0  0  0  0  0  0  0
   41.2040   21.8930   37.5130 N   0  0  0  0  0  0  0  0  0  0  0  0
   42.5760   21.0350   35.6270 N   0  0  0  0  0  0  0  0  0  0  0  0
   39.8940   22.7310   38.9290 H   0  0  0  0  0  0  0  0  0  0  0  0
   43.5490   21.3340   35.9190 H   0  0  0  0  0  0  0  0  0  0  0  0
   42.3360   20.2640   34.9580 H   0  0  0  0  0  0  0  0  0  0  0  0
   38.7900   23.7210   34.5510 C   0  0  0  0  0  0  0  0  0  0  0  0
   38.1080   22.8000   33.7850 C   0  0  0  0  0  0  0  0  0  0  0  0
   37.2760   23.2390   32.7700 C   0  0  0  0  0  0  0  0  0  0  0  0
   37.1280   24.5790   32.5280 C   0  0  0  0  0  0  0  0  0  0  0  0
   37.8300   25.4840   33.3190 C   0  0  0  0  0  0  0  0  0  0  0  0
   38.6270   25.0350   34.2930 N   0  0  0  0  0  0  0  0  0  0  0  0
   38.1220   21.7070   33.8560 H   0  0  0  0  0  0  0  0  0  0  0  0
   36.7070   22.5880   32.1230 H   0  0  0  0  0  0  0  0  0  0  0  0
   36.5140   25.0650   31.7720 H   0  0  0  0  0  0  0  0  0  0  0  0
   37.7400   26.9570   33.1390 C   0  0  0  0  0  3  0  0  0  0  0  0
   37.5870   27.7120   34.4330 C   0  0  0  0  0  2  0  0  0  0  0  0
   36.2330   28.3750   34.3690 C   0  0  0  0  0  2  0  0  0  0  0  0
   36.1890   28.7450   32.8820 C   0  0  0  0  0  2  0  0  0  0  0  0
   36.5410   27.3710   32.2960 C   0  0  0  0  0  2  0  0  0  0  0  0
   38.1340   24.0330   37.3870 C   0  0  0  0  0  0  0  0  0  0  0  0
   36.9460   23.5640   36.8190 F   0  0  0  0  0  0  0  0  0  0  0  0
   38.0400   23.9190   38.7410 F   0  0  0  0  0  0  0  0  0  0  0  0
   38.2290   25.3790   37.0710 F   0  0  0  0  0  0  0  0  0  0  0  0
  1  8  1  0  0  0  0
  2 25  1  0  0  0  0
  2  1  2  0  0  0  0
  3  2  1  0  0  0  0
  4  3  2  0  0  0  0
  4  5  1  0  0  0  0
  5  6  2  0  0  0  0
  6  1  1  0  0  0  0
  7  9  1  0  0  0  0
  7  5  1  0  0  0  0
 10  7  1  0  0  0  0
 11  3  1  0  0  0  0
 12 17  1  0  0  0  0
 12 11  2  0  0  0  0
 13 12  1  0  0  0  0
 14 13  2  0  0  0  0
 14 15  1  0  0  0  0
 15 16  2  0  0  0  0
 16 11  1  0  0  0  0
 18 13  1  0  0  0  0
 19 14  1  0  0  0  0
 20 15  1  0  0  0  0
 20 21  1  0  0  0  0
 22 21  1  0  0  0  0
 23 22  1  0  0  0  0
 24 23  1  0  0  0  0
 24 20  1  0  0  0  0
 25 27  1  0  0  0  0
 26 25  1  0  0  0  0
 28 25  1  0  0  0  0
M  END
>  <minimizedAffinity>
-5.4772892

$$$$

 OpenBabel03272507593D

 28 30  0  0  0  0  0  0  0  0999 V2000
   36.4380   28.2700   33.6000 C   0  0  0  0  0  0  0  0  0  0  0  0
   36.5830   27.1480   32.7460 C   0  0  0  0  0  0  0  0  0  0  0  0
   37.3270   26.0690   33.1980 C   0  0  0  0  0  0  0  0  0  0  0  0
   37.8880   26.1380   34.4480 N   0  0  0  0  0  0  0  0  0  0  0  0
   37.7180   27.2450   35.2330 C   0  0  0  0  0  0  0  0  0  0  0  0
   37.0020   28.2990   34.8150 N   0  0  0  0  0  0  0  0  0  0  0  0
   38.3890   27.0870   36.4830 N   0  0  0  0  0  0  0  0  0  0  0  0
   35.8580   29.1170   33.2520 H   0  0  0  0  0  0  0  0  0  0  0  0
   39.1280   27.8110   36.7130 H   0  0  0  0  0  0  0  0  0  0  0  0
   38.1080   26.2740   37.0820 H   0  0  0  0  0  0  0  0  0  0  0  0
   37.5000   24.8920   32.3480 C   0  0  0  0  0  0  0  0  0  0  0  0
   38.7170   24.8830   31.7000 C   0  0  0  0  0  0  0  0  0  0  0  0
   39.0330   23.8320   30.8560 C   0  0  0  0  0  0  0  0  0  0  0  0
   38.1440   22.8070   30.6660 C   0  0  0  0  0  0  0  0  0  0  0  0
   36.9240   22.8440   31.3350 C   0  0  0  0  0  0  0  0  0  0  0  0
   36.6430   23.8700   32.1440 N   0  0  0  0  0  0  0  0  0  0  0  0
   39.5240   25.6220   31.7500 H   0  0  0  0  0  0  0  0  0  0  0  0
   39.9610   23.7460   30.3100 H   0  0  0  0  0  0  0  0  0  0  0  0
   38.2570   21.9240   30.0390 H   0  0  0  0  0  0  0  0  0  0  0  0
   35.8930   21.7840   31.1970 C   0  0  0  0  0  3  0  0  0  0  0  0
   35.1050   21.5450   32.4590 C   0  0  0  0  0  2  0  0  0  0  0  0
   35.4250   20.1330   32.8860 C   0  0  0  0  0  2  0  0  0  0  0  0
   35.5120   19.4550   31.5150 C   0  0  0  0  0  2  0  0  0  0  0  0
   36.4900   20.4280   30.8420 C   0  0  0  0  0  2  0  0  0  0  0  0
   35.9320   27.1770   31.4060 C   0  0  0  0  0  0  0  0  0  0  0  0
   34.9140   26.2230   31.3180 F   0  0  0  0  0  0  0  0  0  0  0  0
   35.3890   28.4100   31.2080 F   0  0  0  0  0  0  0  0  0  0  0  0
   36.8170   26.9220   30.3710 F   0  0  0  0  0  0  0  0  0  0  0  0
  1  6  1  0  0  0  0
  2  3  1  0  0  0  0
  2  1  2  0  0  0  0
  3  4  2  0  0  0  0
  4  5  1  0  0  0  0
  5  7  1  0  0  0  0
  6  5  2  0  0  0  0
  7  9  1  0  0  0  0
  7 10  1  0  0  0  0
  8  1  1  0  0  0  0
 11  3  1  0  0  0  0
 12 17  1  0  0  0  0
 12 11  2  0  0  0  0
 13 12  1  0  0  0  0
 14 13  2  0  0  0  0
 14 15  1  0  0  0  0
 15 16  2  0  0  0  0
 16 11  1  0  0  0  0
 18 13  1  0  0  0  0
 19 14  1  0  0  0  0
 20 15  1  0  0  0  0
 20 21  1  0  0  0  0
 21 22  1  0  0  0  0
 23 22  1  0  0  0  0
 24 20  1  0  0  0  0
 24 23  1  0  0  0  0
 25  2  1  0  0  0  0
 26 25  1  0  0  0  0
 27 25  1  0  0  0  0
 28 25  1  0  0  0  0
M  END
>  <minimizedAffinity>
-5.46070623

$$$$
