
 OpenBabel03262520533D

 21 23  0  0  1  0  0  0  0  0999 V2000
   37.2490   26.4880   35.2390 C   0  0  2  0  0  0  0  0  0  0  0  0
   38.4190   26.9200   36.0400 C   0  0  0  0  0  0  0  0  0  0  0  0
   38.2640   25.4870   35.5970 C   0  0  1  0  0  0  0  0  0  0  0  0
   36.2900   26.4850   35.7960 H   0  0  0  0  0  0  0  0  0  0  0  0
   39.1380   27.5820   35.4920 H   0  0  0  0  0  0  0  0  0  0  0  0
   38.3360   27.1780   37.0910 H   0  0  0  0  0  0  0  0  0  0  0  0
   39.0000   25.2010   34.7870 H   0  0  0  0  0  0  0  0  0  0  0  0
   37.4010   26.4500   31.5050 C   0  0  0  0  0  0  0  0  0  0  0  0
   36.8790   27.7120   31.2070 C   0  0  0  0  0  0  0  0  0  0  0  0
   36.4820   28.5760   32.2680 C   0  0  0  0  0  0  0  0  0  0  0  0
   36.6300   28.1290   33.5280 N   0  0  0  0  0  0  0  0  0  0  0  0
   37.1440   26.8920   33.7970 C   0  0  0  0  0  0  0  0  0  0  0  0
   37.5260   26.0580   32.7910 N   0  0  0  0  0  0  0  0  0  0  0  0
   37.6990   25.8020   30.6940 H   0  0  0  0  0  0  0  0  0  0  0  0
   36.7600   28.0700   30.1960 H   0  0  0  0  0  0  0  0  0  0  0  0
   36.0750   29.5580   32.0520 H   0  0  0  0  0  0  0  0  0  0  0  0
   38.0160   24.3720   36.5370 C   0  0  0  0  0  3  0  0  0  0  0  0
   39.0110   23.2470   36.3000 C   0  0  0  0  0  2  0  0  0  0  0  0
   39.6200   22.9880   37.6570 C   0  0  0  0  0  2  0  0  0  0  0  0
   38.4600   23.3350   38.5870 C   0  0  0  0  0  2  0  0  0  0  0  0
   38.0290   24.6770   37.9830 C   0  0  0  0  0  2  0  0  0  0  0  0
  1  3  1  0  0  0  0
  1  4  1  1  0  0  0
  1  2  1  0  0  0  0
  2  6  1  0  0  0  0
  3  7  1  6  0  0  0
  3  2  1  0  0  0  0
  3 17  1  0  0  0  0
  5  2  1  0  0  0  0
  8 13  1  0  0  0  0
  9  8  2  0  0  0  0
  9 10  1  0  0  0  0
 10 11  2  0  0  0  0
 11 12  1  0  0  0  0
 12  1  1  0  0  0  0
 13 12  2  0  0  0  0
 14  8  1  0  0  0  0
 15  9  1  0  0  0  0
 16 10  1  0  0  0  0
 17 21  1  0  0  0  0
 18 17  1  0  0  0  0
 18 19  1  0  0  0  0
 19 20  1  0  0  0  0
 21 20  1  0  0  0  0
M  END
>  <minimizedAffinity>
-4.5821228

$$$$

 OpenBabel03262520533D

 21 23  0  0  1  0  0  0  0  0999 V2000
   37.3600   26.5190   35.1800 C   0  0  2  0  0  0  0  0  0  0  0  0
   38.3650   27.0090   36.1530 C   0  0  0  0  0  0  0  0  0  0  0  0
   38.3830   25.5820   35.6660 C   0  0  1  0  0  0  0  0  0  0  0  0
   36.3330   26.4310   35.5890 H   0  0  0  0  0  0  0  0  0  0  0  0
   39.1050   27.7360   35.7290 H   0  0  0  0  0  0  0  0  0  0  0  0
   38.1110   27.2300   37.1850 H   0  0  0  0  0  0  0  0  0  0  0  0
   39.2500   25.3730   34.9690 H   0  0  0  0  0  0  0  0  0  0  0  0
   36.8570   28.4110   31.9960 C   0  0  0  0  0  0  0  0  0  0  0  0
   37.6750   27.6850   31.1270 C   0  0  0  0  0  0  0  0  0  0  0  0
   38.3900   26.5540   31.6140 C   0  0  0  0  0  0  0  0  0  0  0  0
   38.2430   26.2330   32.9120 N   0  0  0  0  0  0  0  0  0  0  0  0
   37.4370   26.9560   33.7460 C   0  0  0  0  0  0  0  0  0  0  0  0
   36.7490   28.0390   33.2900 N   0  0  0  0  0  0  0  0  0  0  0  0
   36.3180   29.2670   31.6170 H   0  0  0  0  0  0  0  0  0  0  0  0
   37.7930   27.9430   30.0850 H   0  0  0  0  0  0  0  0  0  0  0  0
   39.0290   25.9800   30.9510 H   0  0  0  0  0  0  0  0  0  0  0  0
   38.0850   24.4260   36.5390 C   0  0  0  0  0  3  0  0  0  0  0  0
   39.0880   23.3080   36.3010 C   0  0  0  0  0  2  0  0  0  0  0  0
   39.6250   22.9840   37.6730 C   0  0  0  0  0  2  0  0  0  0  0  0
   38.4200   23.2920   38.5580 C   0  0  0  0  0  2  0  0  0  0  0  0
   38.0240   24.6630   37.9960 C   0  0  0  0  0  2  0  0  0  0  0  0
  1  4  1  1  0  0  0
  1  3  1  0  0  0  0
  1  2  1  0  0  0  0
  2  6  1  0  0  0  0
  3  7  1  6  0  0  0
  3  2  1  0  0  0  0
  3 17  1  0  0  0  0
  5  2  1  0  0  0  0
  8 13  1  0  0  0  0
  9 10  1  0  0  0  0
  9  8  2  0  0  0  0
 10 11  2  0  0  0  0
 11 12  1  0  0  0  0
 12  1  1  0  0  0  0
 13 12  2  0  0  0  0
 14  8  1  0  0  0  0
 15  9  1  0  0  0  0
 16 10  1  0  0  0  0
 17 21  1  0  0  0  0
 18 17  1  0  0  0  0
 18 19  1  0  0  0  0
 19 20  1  0  0  0  0
 21 20  1  0  0  0  0
M  END
>  <minimizedAffinity>
-4.53441477

$$$$

 OpenBabel03262520533D

 21 23  0  0  1  0  0  0  0  0999 V2000
   38.5750   24.8640   33.5750 C   0  0  2  0  0  0  0  0  0  0  0  0
   39.6300   23.8410   33.3790 C   0  0  0  0  0  0  0  0  0  0  0  0
   38.6890   23.7750   34.5560 C   0  0  1  0  0  0  0  0  0  0  0  0
   38.9570   25.8660   33.8570 H   0  0  0  0  0  0  0  0  0  0  0  0
   39.4560   23.1570   32.5080 H   0  0  0  0  0  0  0  0  0  0  0  0
   40.6810   24.0580   33.5340 H   0  0  0  0  0  0  0  0  0  0  0  0
   37.9390   22.9330   34.4650 H   0  0  0  0  0  0  0  0  0  0  0  0
   35.7340   26.0050   31.4300 C   0  0  0  0  0  0  0  0  0  0  0  0
   35.2050   24.7780   31.0210 C   0  0  0  0  0  0  0  0  0  0  0  0
   35.8030   23.5680   31.4740 C   0  0  0  0  0  0  0  0  0  0  0  0
   36.8690   23.6640   32.2880 N   0  0  0  0  0  0  0  0  0  0  0  0
   37.3710   24.8740   32.6780 C   0  0  0  0  0  0  0  0  0  0  0  0
   36.8070   26.0370   32.2510 N   0  0  0  0  0  0  0  0  0  0  0  0
   35.2730   26.9170   31.0810 H   0  0  0  0  0  0  0  0  0  0  0  0
   34.3490   24.7020   30.3670 H   0  0  0  0  0  0  0  0  0  0  0  0
   35.4020   22.6090   31.1640 H   0  0  0  0  0  0  0  0  0  0  0  0
   39.1270   23.9780   35.9540 C   0  0  0  0  0  3  0  0  0  0  0  0
   38.1120   24.8190   36.7120 C   0  0  0  0  0  2  0  0  0  0  0  0
   37.7880   24.0040   37.9410 C   0  0  0  0  0  2  0  0  0  0  0  0
   39.1090   23.2790   38.1870 C   0  0  0  0  0  2  0  0  0  0  0  0
   39.4010   22.7750   36.7680 C   0  0  0  0  0  2  0  0  0  0  0  0
  1  4  1  1  0  0  0
  1  3  1  0  0  0  0
  2  6  1  0  0  0  0
  2  1  1  0  0  0  0
  2  3  1  0  0  0  0
  3  7  1  6  0  0  0
  3 17  1  0  0  0  0
  5  2  1  0  0  0  0
  8 13  1  0  0  0  0
  9  8  2  0  0  0  0
  9 10  1  0  0  0  0
 10 11  2  0  0  0  0
 11 12  1  0  0  0  0
 12  1  1  0  0  0  0
 13 12  2  0  0  0  0
 14  8  1  0  0  0  0
 15  9  1  0  0  0  0
 16 10  1  0  0  0  0
 17 18  1  0  0  0  0
 17 21  1  0  0  0  0
 18 19  1  0  0  0  0
 19 20  1  0  0  0  0
 21 20  1  0  0  0  0
M  END
>  <minimizedAffinity>
-4.29902601

$$$$

 OpenBabel03262520533D

 21 23  0  0  1  0  0  0  0  0999 V2000
   37.5170   24.1160   32.2200 C   0  0  2  0  0  0  0  0  0  0  0  0
   37.0900   23.9380   30.8110 C   0  0  0  0  0  0  0  0  0  0  0  0
   36.3550   23.2600   31.9400 C   0  0  1  0  0  0  0  0  0  0  0  0
   38.4800   23.6270   32.4710 H   0  0  0  0  0  0  0  0  0  0  0  0
   36.6410   24.8530   30.3440 H   0  0  0  0  0  0  0  0  0  0  0  0
   37.6650   23.3500   30.1040 H   0  0  0  0  0  0  0  0  0  0  0  0
   35.3360   23.7130   32.1280 H   0  0  0  0  0  0  0  0  0  0  0  0
   36.5520   27.6600   32.9100 C   0  0  0  0  0  0  0  0  0  0  0  0
   36.8240   27.7460   34.2780 C   0  0  0  0  0  0  0  0  0  0  0  0
   37.3390   26.6090   34.9640 C   0  0  0  0  0  0  0  0  0  0  0  0
   37.5420   25.4870   34.2510 N   0  0  0  0  0  0  0  0  0  0  0  0
   37.2700   25.4240   32.9140 C   0  0  0  0  0  0  0  0  0  0  0  0
   36.7780   26.5050   32.2470 N   0  0  0  0  0  0  0  0  0  0  0  0
   36.1620   28.5280   32.3980 H   0  0  0  0  0  0  0  0  0  0  0  0
   36.6610   28.6470   34.8500 H   0  0  0  0  0  0  0  0  0  0  0  0
   37.5550   26.6610   36.0260 H   0  0  0  0  0  0  0  0  0  0  0  0
   36.3530   21.7940   32.1380 C   0  0  0  0  0  3  0  0  0  0  0  0
   36.7630   21.4500   33.5620 C   0  0  0  0  0  2  0  0  0  0  0  0
   35.6570   20.5570   34.0680 C   0  0  0  0  0  2  0  0  0  0  0  0
   35.2160   19.8550   32.7870 C   0  0  0  0  0  2  0  0  0  0  0  0
   35.1010   21.0640   31.8500 C   0  0  0  0  0  2  0  0  0  0  0  0
  1  4  1  1  0  0  0
  1 12  1  0  0  0  0
  2  3  1  0  0  0  0
  2  1  1  0  0  0  0
  3  7  1  1  0  0  0
  3 17  1  0  0  0  0
  3  1  1  0  0  0  0
  5  2  1  0  0  0  0
  6  2  1  0  0  0  0
  8  9  1  0  0  0  0
  9 15  1  0  0  0  0
  9 10  2  0  0  0  0
 10 16  1  0  0  0  0
 11 10  1  0  0  0  0
 12 11  2  0  0  0  0
 13  8  2  0  0  0  0
 13 12  1  0  0  0  0
 14  8  1  0  0  0  0
 17 18  1  0  0  0  0
 18 19  1  0  0  0  0
 20 19  1  0  0  0  0
 21 17  1  0  0  0  0
 21 20  1  0  0  0  0
M  END
>  <minimizedAffinity>
-4.21772432

$$$$

 OpenBabel03262520533D

 21 23  0  0  1  0  0  0  0  0999 V2000
   38.4100   26.2460   34.8010 C   0  0  2  0  0  0  0  0  0  0  0  0
   38.4730   27.2300   35.9070 C   0  0  0  0  0  0  0  0  0  0  0  0
   37.2770   27.1640   34.9910 C   0  0  1  0  0  0  0  0  0  0  0  0
   39.1130   26.4480   33.9680 H   0  0  0  0  0  0  0  0  0  0  0  0
   38.3970   26.7820   36.9320 H   0  0  0  0  0  0  0  0  0  0  0  0
   39.1350   28.0900   35.8780 H   0  0  0  0  0  0  0  0  0  0  0  0
   36.3620   26.7390   35.5040 H   0  0  0  0  0  0  0  0  0  0  0  0
   38.0980   22.5360   34.4640 C   0  0  0  0  0  0  0  0  0  0  0  0
   37.8070   22.1760   35.7820 C   0  0  0  0  0  0  0  0  0  0  0  0
   37.7100   23.1860   36.7820 C   0  0  0  0  0  0  0  0  0  0  0  0
   37.9080   24.4610   36.4030 N   0  0  0  0  0  0  0  0  0  0  0  0
   38.1900   24.7930   35.1080 C   0  0  0  0  0  0  0  0  0  0  0  0
   38.2850   23.8360   34.1450 N   0  0  0  0  0  0  0  0  0  0  0  0
   38.1690   21.7630   33.7120 H   0  0  0  0  0  0  0  0  0  0  0  0
   37.6490   21.1520   36.0850 H   0  0  0  0  0  0  0  0  0  0  0  0
   37.4850   22.9210   37.8090 H   0  0  0  0  0  0  0  0  0  0  0  0
   36.9280   28.2400   34.0380 C   0  0  0  0  0  3  0  0  0  0  0  0
   36.9460   27.7120   32.6120 C   0  0  0  0  0  2  0  0  0  0  0  0
   35.5970   28.0890   32.0520 C   0  0  0  0  0  2  0  0  0  0  0  0
   35.3000   29.3830   32.8060 C   0  0  0  0  0  2  0  0  0  0  0  0
   35.6410   28.9390   34.2340 C   0  0  0  0  0  2  0  0  0  0  0  0
  1  4  1  6  0  0  0
  1  3  1  0  0  0  0
  1 12  1  0  0  0  0
  1  2  1  0  0  0  0
  2  5  1  0  0  0  0
  3  7  1  1  0  0  0
  3  2  1  0  0  0  0
  6  2  1  0  0  0  0
  8  9  1  0  0  0  0
  9 15  1  0  0  0  0
  9 10  2  0  0  0  0
 10 16  1  0  0  0  0
 11 10  1  0  0  0  0
 12 11  2  0  0  0  0
 13  8  2  0  0  0  0
 13 12  1  0  0  0  0
 14  8  1  0  0  0  0
 17 21  1  0  0  0  0
 17  3  1  0  0  0  0
 18 17  1  0  0  0  0
 19 18  1  0  0  0  0
 19 20  1  0  0  0  0
 20 21  1  0  0  0  0
M  END
>  <minimizedAffinity>
-4.20971107

$$$$

 OpenBabel03262520533D

 21 23  0  0  1  0  0  0  0  0999 V2000
   38.5030   22.7640   36.4150 C   0  0  2  0  0  0  0  0  0  0  0  0
   38.7500   24.2010   36.1430 C   0  0  0  0  0  0  0  0  0  0  0  0
   39.7750   23.1530   35.7890 C   0  0  1  0  0  0  0  0  0  0  0  0
   38.5080   22.4950   37.4900 H   0  0  0  0  0  0  0  0  0  0  0  0
   38.1140   24.6350   35.3280 H   0  0  0  0  0  0  0  0  0  0  0  0
   38.9500   24.9130   36.9370 H   0  0  0  0  0  0  0  0  0  0  0  0
   39.8600   22.9890   34.6720 H   0  0  0  0  0  0  0  0  0  0  0  0
   35.5680   20.7140   35.3410 C   0  0  0  0  0  0  0  0  0  0  0  0
   35.7570   20.6890   33.9570 C   0  0  0  0  0  0  0  0  0  0  0  0
   36.8770   21.3590   33.3880 C   0  0  0  0  0  0  0  0  0  0  0  0
   37.7160   21.9960   34.2250 N   0  0  0  0  0  0  0  0  0  0  0  0
   37.5140   22.0080   35.5760 C   0  0  0  0  0  0  0  0  0  0  0  0
   36.4460   21.3700   36.1300 N   0  0  0  0  0  0  0  0  0  0  0  0
   34.7150   20.2030   35.7630 H   0  0  0  0  0  0  0  0  0  0  0  0
   35.0830   20.1770   33.2850 H   0  0  0  0  0  0  0  0  0  0  0  0
   37.0370   21.3470   32.3150 H   0  0  0  0  0  0  0  0  0  0  0  0
   41.0860   23.0420   36.4650 C   0  0  0  0  0  3  0  0  0  0  0  0
   41.1030   21.8400   37.3960 C   0  0  0  0  0  2  0  0  0  0  0  0
   42.3270   21.0600   36.9830 C   0  0  0  0  0  2  0  0  0  0  0  0
   43.2580   22.1730   36.5090 C   0  0  0  0  0  2  0  0  0  0  0  0
   42.2920   22.9610   35.6160 C   0  0  0  0  0  2  0  0  0  0  0  0
  1  4  1  1  0  0  0
  2  1  1  0  0  0  0
  2  6  1  0  0  0  0
  3  7  1  6  0  0  0
  3  2  1  0  0  0  0
  3  1  1  0  0  0  0
  3 17  1  0  0  0  0
  5  2  1  0  0  0  0
  8 14  1  0  0  0  0
  8 13  1  0  0  0  0
  9  8  2  0  0  0  0
 10  9  1  0  0  0  0
 10 11  2  0  0  0  0
 11 12  1  0  0  0  0
 12 13  2  0  0  0  0
 12  1  1  0  0  0  0
 15  9  1  0  0  0  0
 16 10  1  0  0  0  0
 17 18  1  0  0  0  0
 19 18  1  0  0  0  0
 20 19  1  0  0  0  0
 21 17  1  0  0  0  0
 21 20  1  0  0  0  0
M  END
>  <minimizedAffinity>
-4.17632294

$$$$

 OpenBabel03262520533D

 21 23  0  0  1  0  0  0  0  0999 V2000
   39.0600   23.4090   36.7700 C   0  0  2  0  0  0  0  0  0  0  0  0
   37.9600   22.7060   36.0670 C   0  0  0  0  0  0  0  0  0  0  0  0
   38.5020   24.0160   35.5520 C   0  0  1  0  0  0  0  0  0  0  0  0
   38.7730   23.8420   37.7490 H   0  0  0  0  0  0  0  0  0  0  0  0
   38.2670   21.7550   35.5590 H   0  0  0  0  0  0  0  0  0  0  0  0
   36.9550   22.6550   36.4720 H   0  0  0  0  0  0  0  0  0  0  0  0
   39.1070   23.8920   34.6030 H   0  0  0  0  0  0  0  0  0  0  0  0
   42.0770   21.2600   37.2700 C   0  0  0  0  0  0  0  0  0  0  0  0
   43.0130   21.9340   36.4820 C   0  0  0  0  0  0  0  0  0  0  0  0
   42.6280   23.1170   35.7890 C   0  0  0  0  0  0  0  0  0  0  0  0
   41.3570   23.5360   35.9260 N   0  0  0  0  0  0  0  0  0  0  0  0
   40.4560   22.8620   36.7020 C   0  0  0  0  0  0  0  0  0  0  0  0
   40.8140   21.7310   37.3690 N   0  0  0  0  0  0  0  0  0  0  0  0
   42.3790   20.3640   37.7920 H   0  0  0  0  0  0  0  0  0  0  0  0
   44.0340   21.5980   36.3730 H   0  0  0  0  0  0  0  0  0  0  0  0
   43.3450   23.6510   35.1740 H   0  0  0  0  0  0  0  0  0  0  0  0
   37.7190   25.2710   35.5490 C   0  0  0  0  0  3  0  0  0  0  0  0
   38.3530   26.2940   36.4780 C   0  0  0  0  0  2  0  0  0  0  0  0
   38.5260   27.5250   35.6230 C   0  0  0  0  0  2  0  0  0  0  0  0
   37.3450   27.4040   34.6640 C   0  0  0  0  0  2  0  0  0  0  0  0
   37.4920   25.9350   34.2490 C   0  0  0  0  0  2  0  0  0  0  0  0
  1  4  1  1  0  0  0
  2  6  1  0  0  0  0
  2  1  1  0  0  0  0
  3  7  1  6  0  0  0
  3  2  1  0  0  0  0
  3  1  1  0  0  0  0
  5  2  1  0  0  0  0
  8 13  1  0  0  0  0
  8 14  1  0  0  0  0
  9  8  2  0  0  0  0
 10 11  2  0  0  0  0
 10  9  1  0  0  0  0
 11 12  1  0  0  0  0
 12  1  1  0  0  0  0
 12 13  2  0  0  0  0
 15  9  1  0  0  0  0
 16 10  1  0  0  0  0
 17  3  1  0  0  0  0
 17 18  1  0  0  0  0
 19 18  1  0  0  0  0
 20 19  1  0  0  0  0
 21 20  1  0  0  0  0
 21 17  1  0  0  0  0
M  END
>  <minimizedAffinity>
-4.17488098

$$$$

 OpenBabel03262520533D

 21 23  0  0  1  0  0  0  0  0999 V2000
   39.4850   25.4620   34.7010 C   0  0  2  0  0  0  0  0  0  0  0  0
   40.0910   26.8080   34.8370 C   0  0  0  0  0  0  0  0  0  0  0  0
   38.6340   26.6420   34.4880 C   0  0  1  0  0  0  0  0  0  0  0  0
   39.8260   24.8950   33.8120 H   0  0  0  0  0  0  0  0  0  0  0  0
   40.3690   27.0880   35.8870 H   0  0  0  0  0  0  0  0  0  0  0  0
   40.7860   27.2060   34.1040 H   0  0  0  0  0  0  0  0  0  0  0  0
   37.9480   26.9310   35.3400 H   0  0  0  0  0  0  0  0  0  0  0  0
   39.7630   22.8430   37.3530 C   0  0  0  0  0  0  0  0  0  0  0  0
   38.7110   23.2090   38.1960 C   0  0  0  0  0  0  0  0  0  0  0  0
   37.9050   24.3360   37.8650 C   0  0  0  0  0  0  0  0  0  0  0  0
   38.2000   25.0060   36.7370 N   0  0  0  0  0  0  0  0  0  0  0  0
   39.2340   24.6310   35.9260 C   0  0  0  0  0  0  0  0  0  0  0  0
   40.0100   23.5560   36.2320 N   0  0  0  0  0  0  0  0  0  0  0  0
   40.3690   21.9870   37.6120 H   0  0  0  0  0  0  0  0  0  0  0  0
   38.4740   22.6700   39.1010 H   0  0  0  0  0  0  0  0  0  0  0  0
   37.0840   24.6310   38.5100 H   0  0  0  0  0  0  0  0  0  0  0  0
   38.0690   27.0160   33.1730 C   0  0  0  0  0  3  0  0  0  0  0  0
   37.7530   25.7710   32.3580 C   0  0  0  0  0  2  0  0  0  0  0  0
   36.3100   25.9420   31.9520 C   0  0  0  0  0  2  0  0  0  0  0  0
   36.1970   27.4610   31.8420 C   0  0  0  0  0  2  0  0  0  0  0  0
   36.8640   27.8710   33.1610 C   0  0  0  0  0  2  0  0  0  0  0  0
  1  4  1  6  0  0  0
  1  2  1  0  0  0  0
  1 12  1  0  0  0  0
  2  5  1  0  0  0  0
  3  1  1  0  0  0  0
  3  2  1  0  0  0  0
  3  7  1  1  0  0  0
  6  2  1  0  0  0  0
  8 14  1  0  0  0  0
  8  9  1  0  0  0  0
  9 15  1  0  0  0  0
 10  9  2  0  0  0  0
 10 16  1  0  0  0  0
 11 10  1  0  0  0  0
 12 13  1  0  0  0  0
 12 11  2  0  0  0  0
 13  8  2  0  0  0  0
 17  3  1  0  0  0  0
 18 17  1  0  0  0  0
 19 18  1  0  0  0  0
 20 19  1  0  0  0  0
 20 21  1  0  0  0  0
 21 17  1  0  0  0  0
M  END
>  <minimizedAffinity>
-4.17415905

$$$$

 OpenBabel03262520533D

 21 23  0  0  1  0  0  0  0  0999 V2000
   38.2980   22.9300   33.9680 C   0  0  2  0  0  0  0  0  0  0  0  0
   39.6260   22.2760   34.0580 C   0  0  0  0  0  0  0  0  0  0  0  0
   38.7470   22.4250   35.2740 C   0  0  1  0  0  0  0  0  0  0  0  0
   38.3390   24.0240   33.7870 H   0  0  0  0  0  0  0  0  0  0  0  0
   39.6860   21.2780   33.5510 H   0  0  0  0  0  0  0  0  0  0  0  0
   40.5520   22.8360   33.9830 H   0  0  0  0  0  0  0  0  0  0  0  0
   38.3060   21.4400   35.6130 H   0  0  0  0  0  0  0  0  0  0  0  0
   35.7450   21.8610   31.4560 C   0  0  0  0  0  0  0  0  0  0  0  0
   35.1030   20.8360   32.1550 C   0  0  0  0  0  0  0  0  0  0  0  0
   35.5280   20.5100   33.4750 C   0  0  0  0  0  0  0  0  0  0  0  0
   36.5460   21.2180   33.9960 N   0  0  0  0  0  0  0  0  0  0  0  0
   37.1610   22.2180   33.2960 C   0  0  0  0  0  0  0  0  0  0  0  0
   36.7620   22.5370   32.0340 N   0  0  0  0  0  0  0  0  0  0  0  0
   35.4160   22.1010   30.4560 H   0  0  0  0  0  0  0  0  0  0  0  0
   34.2850   20.2680   31.7360 H   0  0  0  0  0  0  0  0  0  0  0  0
   35.0370   19.7170   34.0290 H   0  0  0  0  0  0  0  0  0  0  0  0
   39.0880   23.3010   36.4160 C   0  0  0  0  0  3  0  0  0  0  0  0
   37.8760   24.1140   36.8420 C   0  0  0  0  0  2  0  0  0  0  0  0
   37.7430   23.8490   38.3210 C   0  0  0  0  0  2  0  0  0  0  0  0
   39.1980   23.6360   38.7290 C   0  0  0  0  0  2  0  0  0  0  0  0
   39.6410   22.6630   37.6290 C   0  0  0  0  0  2  0  0  0  0  0  0
  1  4  1  6  0  0  0
  1  2  1  0  0  0  0
  1  3  1  0  0  0  0
  2  3  1  0  0  0  0
  3  7  1  1  0  0  0
  3 17  1  0  0  0  0
  5  2  1  0  0  0  0
  6  2  1  0  0  0  0
  8 13  2  0  0  0  0
  8  9  1  0  0  0  0
  9 10  2  0  0  0  0
 10 11  1  0  0  0  0
 10 16  1  0  0  0  0
 12  1  1  0  0  0  0
 12 11  2  0  0  0  0
 13 12  1  0  0  0  0
 14  8  1  0  0  0  0
 15  9  1  0  0  0  0
 17 18  1  0  0  0  0
 17 21  1  0  0  0  0
 18 19  1  0  0  0  0
 19 20  1  0  0  0  0
 21 20  1  0  0  0  0
M  END
>  <minimizedAffinity>
-4.13400078

$$$$
