
 OpenBabel03262523343D

 36 40  0  0  1  0  0  0  0  0999 V2000
   36.6530   27.9300   32.0030 C   0  0  0  0  0  0  0  0  0  0  0  0
   35.8330   28.8490   32.6310 C   0  0  0  0  0  0  0  0  0  0  0  0
   35.9400   29.0030   34.0250 C   0  0  0  0  0  0  0  0  0  0  0  0
   36.8570   28.2340   34.7110 N   0  0  0  0  0  0  0  0  0  0  0  0
   37.6280   27.3520   34.0300 C   0  0  0  0  0  0  0  0  0  0  0  0
   37.5430   27.1920   32.7150 N   0  0  0  0  0  0  0  0  0  0  0  0
   36.5570   27.8260   30.9360 H   0  0  0  0  0  0  0  0  0  0  0  0
   35.1330   29.4320   32.0870 H   0  0  0  0  0  0  0  0  0  0  0  0
   33.7490   29.8800   34.5320 C   0  0  0  0  0  0  0  0  0  0  0  0
   35.1320   29.9410   34.7700 C   0  0  0  0  0  0  0  0  0  0  0  0
   35.6200   30.8510   35.6670 C   0  0  0  0  0  0  0  0  0  0  0  0
   34.7390   31.6860   36.3160 C   0  0  0  0  0  0  0  0  0  0  0  0
   34.9960   32.6480   37.2320 N   0  0  0  0  0  0  0  0  0  0  0  0
   33.8290   33.1950   37.5800 C   0  0  0  0  0  0  0  0  0  0  0  0
   32.8430   32.6110   36.9140 N   0  0  0  0  0  0  0  0  0  0  0  0
   33.3740   31.6650   36.1150 C   0  0  0  0  0  0  0  0  0  0  0  0
   32.8910   30.7480   35.2110 C   0  0  0  0  0  0  0  0  0  0  0  0
   33.2720   29.1920   33.8380 H   0  0  0  0  0  0  0  0  0  0  0  0
   36.6720   30.8980   35.8490 H   0  0  0  0  0  0  0  0  0  0  0  0
   35.9220   32.9310   37.6140 H   0  0  0  0  0  0  0  0  0  0  0  0
   33.6890   33.9970   38.2980 H   0  0  0  0  0  0  0  0  0  0  0  0
   31.8090   30.7000   35.0250 H   0  0  0  0  0  0  0  0  0  0  0  0
   38.5860   26.5750   34.7980 C   0  0  0  0  0  0  0  0  0  0  0  0
   39.5940   27.0890   35.3520 O   0  0  0  0  0  0  0  0  0  0  0  0
   38.3770   25.0870   34.9400 C   0  0  1  0  0  0  0  0  0  0  0  0
   39.3310   24.2120   34.1010 C   0  0  0  0  0  0  0  0  0  0  0  0
   39.4070   24.2580   35.5700 C   0  0  2  0  0  0  0  0  0  0  0  0
   37.3080   24.7730   34.8320 H   0  0  0  0  0  0  0  0  0  0  0  0
   40.1280   24.7770   33.5580 H   0  0  0  0  0  0  0  0  0  0  0  0
   38.9310   23.3820   33.5240 H   0  0  0  0  0  0  0  0  0  0  0  0
   40.2510   24.7940   36.0580 H   0  0  0  0  0  0  0  0  0  0  0  0
   38.8750   23.1490   36.4520 C   0  0  0  0  0  3  0  0  0  0  0  0
   39.7380   22.8240   37.6220 C   0  0  0  0  0  2  0  0  0  0  0  0
   39.0990   23.4000   38.8550 C   0  0  0  0  0  2  0  0  0  0  0  0
   37.8880   24.1690   38.4000 C   0  0  0  0  0  2  0  0  0  0  0  0
   37.5420   23.5130   37.0680 C   0  0  0  0  0  2  0  0  0  0  0  0
  1  2  2  0  0  0  0
  1  6  1  0  0  0  0
  2  3  1  0  0  0  0
  3  4  2  0  0  0  0
  3 10  1  0  0  0  0
  5  4  1  0  0  0  0
  5 23  1  0  0  0  0
  6  5  2  0  0  0  0
  7  1  1  0  0  0  0
  8  2  1  0  0  0  0
  9 10  2  0  0  0  0
  9 17  1  0  0  0  0
 10 11  1  0  0  0  0
 11 19  1  0  0  0  0
 11 12  2  0  0  0  0
 12 13  1  0  0  0  0
 13 14  1  0  0  0  0
 13 20  1  0  0  0  0
 14 21  1  0  0  0  0
 15 14  2  0  0  0  0
 16 12  1  0  0  0  0
 16 15  1  0  0  0  0
 17 16  2  0  0  0  0
 18  9  1  0  0  0  0
 22 17  1  0  0  0  0
 23 25  1  0  0  0  0
 23 24  2  0  0  0  0
 25 28  1  1  0  0  0
 25 27  1  0  0  0  0
 26 25  1  0  0  0  0
 26 27  1  0  0  0  0
 27 31  1  1  0  0  0
 27 32  1  0  0  0  0
 29 26  1  0  0  0  0
 30 26  1  0  0  0  0
 32 36  1  0  0  0  0
 32 33  1  0  0  0  0
 33 34  1  0  0  0  0
 35 34  1  0  0  0  0
 36 35  1  0  0  0  0
M  END
>  <minimizedAffinity>
-6.52594757

$$$$

 OpenBabel03262523343D

 36 40  0  0  1  0  0  0  0  0999 V2000
   37.7960   27.8020   31.7370 C   0  0  0  0  0  0  0  0  0  0  0  0
   38.2870   26.8210   32.5780 C   0  0  0  0  0  0  0  0  0  0  0  0
   37.7470   26.7160   33.8730 C   0  0  0  0  0  0  0  0  0  0  0  0
   36.7520   27.5910   34.2530 N   0  0  0  0  0  0  0  0  0  0  0  0
   36.3200   28.5290   33.3750 C   0  0  0  0  0  0  0  0  0  0  0  0
   36.8150   28.6450   32.1490 N   0  0  0  0  0  0  0  0  0  0  0  0
   38.2210   27.8680   30.7500 H   0  0  0  0  0  0  0  0  0  0  0  0
   39.0530   26.1560   32.2690 H   0  0  0  0  0  0  0  0  0  0  0  0
   39.1390   24.8010   34.3480 C   0  0  0  0  0  0  0  0  0  0  0  0
   38.1900   25.7200   34.8230 C   0  0  0  0  0  0  0  0  0  0  0  0
   37.7550   25.6290   36.1170 C   0  0  0  0  0  0  0  0  0  0  0  0
   38.2610   24.6340   36.9210 C   0  0  0  0  0  0  0  0  0  0  0  0
   37.9790   24.3600   38.2160 N   0  0  0  0  0  0  0  0  0  0  0  0
   38.7130   23.3040   38.5740 C   0  0  0  0  0  0  0  0  0  0  0  0
   39.4500   22.9010   37.5490 N   0  0  0  0  0  0  0  0  0  0  0  0
   39.1930   23.7080   36.5010 C   0  0  0  0  0  0  0  0  0  0  0  0
   39.6260   23.8060   35.1990 C   0  0  0  0  0  0  0  0  0  0  0  0
   39.5410   24.7960   33.3380 H   0  0  0  0  0  0  0  0  0  0  0  0
   37.0320   26.3280   36.4790 H   0  0  0  0  0  0  0  0  0  0  0  0
   37.3150   24.8620   38.8420 H   0  0  0  0  0  0  0  0  0  0  0  0
   38.7190   22.8330   39.5520 H   0  0  0  0  0  0  0  0  0  0  0  0
   40.3680   23.0870   34.8270 H   0  0  0  0  0  0  0  0  0  0  0  0
   35.2620   29.4200   33.8210 C   0  0  0  0  0  0  0  0  0  0  0  0
   34.1070   29.4120   33.3180 O   0  0  0  0  0  0  0  0  0  0  0  0
   35.5490   30.4020   34.9300 C   0  0  1  0  0  0  0  0  0  0  0  0
   35.7660   31.8590   34.4700 C   0  0  0  0  0  0  0  0  0  0  0  0
   34.5820   31.4560   35.2470 C   0  0  2  0  0  0  0  0  0  0  0  0
   36.3450   30.0580   35.6380 H   0  0  0  0  0  0  0  0  0  0  0  0
   35.5920   32.0360   33.3810 H   0  0  0  0  0  0  0  0  0  0  0  0
   36.6050   32.4270   34.8650 H   0  0  0  0  0  0  0  0  0  0  0  0
   33.5920   31.3940   34.7420 H   0  0  0  0  0  0  0  0  0  0  0  0
   34.4310   31.7540   36.7230 C   0  0  0  0  0  3  0  0  0  0  0  0
   34.6730   33.1770   37.0910 C   0  0  0  0  0  2  0  0  0  0  0  0
   33.3430   33.8280   37.3580 C   0  0  0  0  0  2  0  0  0  0  0  0
   32.2860   32.8040   37.0440 C   0  0  0  0  0  2  0  0  0  0  0  0
   33.0250   31.4810   37.2090 C   0  0  0  0  0  2  0  0  0  0  0  0
  1  6  2  0  0  0  0
  1  2  1  0  0  0  0
  2  3  2  0  0  0  0
  3  4  1  0  0  0  0
  3 10  1  0  0  0  0
  5 23  1  0  0  0  0
  5  4  2  0  0  0  0
  6  5  1  0  0  0  0
  7  1  1  0  0  0  0
  8  2  1  0  0  0  0
  9 10  2  0  0  0  0
  9 17  1  0  0  0  0
 10 11  1  0  0  0  0
 11 19  1  0  0  0  0
 11 12  2  0  0  0  0
 12 13  1  0  0  0  0
 13 14  1  0  0  0  0
 13 20  1  0  0  0  0
 14 21  1  0  0  0  0
 15 14  2  0  0  0  0
 16 12  1  0  0  0  0
 16 15  1  0  0  0  0
 17 16  2  0  0  0  0
 18  9  1  0  0  0  0
 22 17  1  0  0  0  0
 23 25  1  0  0  0  0
 24 23  2  0  0  0  0
 25 27  1  0  0  0  0
 25 28  1  1  0  0  0
 26 30  1  0  0  0  0
 26 25  1  0  0  0  0
 26 27  1  0  0  0  0
 27 31  1  6  0  0  0
 27 32  1  0  0  0  0
 29 26  1  0  0  0  0
 32 33  1  0  0  0  0
 32 36  1  0  0  0  0
 33 34  1  0  0  0  0
 35 36  1  0  0  0  0
 35 34  1  0  0  0  0
M  END
>  <minimizedAffinity>
-6.39149523

$$$$

 OpenBabel03262523343D

 36 40  0  0  1  0  0  0  0  0999 V2000
   35.3680   25.9780   31.2140 C   0  0  0  0  0  0  0  0  0  0  0  0
   35.3320   24.5970   31.2410 C   0  0  0  0  0  0  0  0  0  0  0  0
   36.4160   23.9070   31.8150 C   0  0  0  0  0  0  0  0  0  0  0  0
   37.4690   24.6340   32.3290 N   0  0  0  0  0  0  0  0  0  0  0  0
   37.4370   25.9880   32.2680 C   0  0  0  0  0  0  0  0  0  0  0  0
   36.4240   26.6570   31.7310 N   0  0  0  0  0  0  0  0  0  0  0  0
   34.5290   26.4880   30.7710 H   0  0  0  0  0  0  0  0  0  0  0  0
   34.5130   24.0540   30.8400 H   0  0  0  0  0  0  0  0  0  0  0  0
   37.7530   21.9040   31.9840 C   0  0  0  0  0  0  0  0  0  0  0  0
   36.4680   22.4660   31.8940 C   0  0  0  0  0  0  0  0  0  0  0  0
   35.3750   21.6440   31.8920 C   0  0  0  0  0  0  0  0  0  0  0  0
   35.5630   20.2830   31.9790 C   0  0  0  0  0  0  0  0  0  0  0  0
   34.6390   19.2950   31.9950 N   0  0  0  0  0  0  0  0  0  0  0  0
   35.2910   18.1350   32.0910 C   0  0  0  0  0  0  0  0  0  0  0  0
   36.5970   18.3560   32.1360 N   0  0  0  0  0  0  0  0  0  0  0  0
   36.8030   19.6860   32.0680 C   0  0  0  0  0  0  0  0  0  0  0  0
   37.8980   20.5180   32.0690 C   0  0  0  0  0  0  0  0  0  0  0  0
   38.6770   22.4770   31.9920 H   0  0  0  0  0  0  0  0  0  0  0  0
   34.3970   22.0700   31.8240 H   0  0  0  0  0  0  0  0  0  0  0  0
   33.6030   19.3930   31.9430 H   0  0  0  0  0  0  0  0  0  0  0  0
   34.8370   17.1490   32.1290 H   0  0  0  0  0  0  0  0  0  0  0  0
   38.9030   20.0790   32.1390 H   0  0  0  0  0  0  0  0  0  0  0  0
   38.5660   26.7060   32.8340 C   0  0  0  0  0  0  0  0  0  0  0  0
   39.2910   27.4810   32.1560 O   0  0  0  0  0  0  0  0  0  0  0  0
   38.8960   26.5200   34.2950 C   0  0  1  0  0  0  0  0  0  0  0  0
   38.0390   27.3550   35.2680 C   0  0  0  0  0  0  0  0  0  0  0  0
   37.9250   25.8900   35.1930 C   0  0  2  0  0  0  0  0  0  0  0  0
   39.9900   26.5960   34.5210 H   0  0  0  0  0  0  0  0  0  0  0  0
   37.2110   27.9310   34.7860 H   0  0  0  0  0  0  0  0  0  0  0  0
   38.5220   27.9010   36.0760 H   0  0  0  0  0  0  0  0  0  0  0  0
   37.0270   25.4350   34.7180 H   0  0  0  0  0  0  0  0  0  0  0  0
   38.5270   24.9670   36.2310 C   0  0  0  0  0  3  0  0  0  0  0  0
   37.5270   24.2230   37.0470 C   0  0  0  0  0  2  0  0  0  0  0  0
   37.4890   22.7990   36.5630 C   0  0  0  0  0  2  0  0  0  0  0  0
   38.4070   22.7190   35.3720 C   0  0  0  0  0  2  0  0  0  0  0  0
   39.3660   23.8820   35.5960 C   0  0  0  0  0  2  0  0  0  0  0  0
  1  2  2  0  0  0  0
  1  6  1  0  0  0  0
  2  3  1  0  0  0  0
  3 10  1  0  0  0  0
  3  4  2  0  0  0  0
  5  4  1  0  0  0  0
  5 23  1  0  0  0  0
  6  5  2  0  0  0  0
  7  1  1  0  0  0  0
  8  2  1  0  0  0  0
  9 18  1  0  0  0  0
  9 17  1  0  0  0  0
 10  9  2  0  0  0  0
 11 10  1  0  0  0  0
 11 12  2  0  0  0  0
 12 13  1  0  0  0  0
 12 16  1  0  0  0  0
 13 14  1  0  0  0  0
 14 21  1  0  0  0  0
 14 15  2  0  0  0  0
 16 17  2  0  0  0  0
 16 15  1  0  0  0  0
 17 22  1  0  0  0  0
 19 11  1  0  0  0  0
 20 13  1  0  0  0  0
 23 25  1  0  0  0  0
 24 23  2  0  0  0  0
 25 28  1  1  0  0  0
 25 27  1  0  0  0  0
 25 26  1  0  0  0  0
 26 30  1  0  0  0  0
 27 31  1  6  0  0  0
 27 26  1  0  0  0  0
 27 32  1  0  0  0  0
 29 26  1  0  0  0  0
 32 33  1  0  0  0  0
 34 33  1  0  0  0  0
 35 36  1  0  0  0  0
 35 34  1  0  0  0  0
 36 32  1  0  0  0  0
M  END
>  <minimizedAffinity>
-6.13902473

$$$$

 OpenBabel03262523343D

 36 40  0  0  1  0  0  0  0  0999 V2000
   37.4280   27.9740   31.4000 C   0  0  0  0  0  0  0  0  0  0  0  0
   36.2450   28.6230   31.6960 C   0  0  0  0  0  0  0  0  0  0  0  0
   35.7920   28.6210   33.0280 C   0  0  0  0  0  0  0  0  0  0  0  0
   36.5440   27.9730   33.9850 N   0  0  0  0  0  0  0  0  0  0  0  0
   37.6950   27.3570   33.6230 C   0  0  0  0  0  0  0  0  0  0  0  0
   38.1400   27.3470   32.3720 N   0  0  0  0  0  0  0  0  0  0  0  0
   37.7600   27.9860   30.3760 H   0  0  0  0  0  0  0  0  0  0  0  0
   35.6790   29.1170   30.9460 H   0  0  0  0  0  0  0  0  0  0  0  0
   34.6450   30.0200   34.6260 C   0  0  0  0  0  0  0  0  0  0  0  0
   34.5710   29.2770   33.4370 C   0  0  0  0  0  0  0  0  0  0  0  0
   33.3880   29.2210   32.7520 C   0  0  0  0  0  0  0  0  0  0  0  0
   32.2980   29.8970   33.2480 C   0  0  0  0  0  0  0  0  0  0  0  0
   31.0450   29.9810   32.7430 N   0  0  0  0  0  0  0  0  0  0  0  0
   30.3280   30.7470   33.5670 C   0  0  0  0  0  0  0  0  0  0  0  0
   31.0850   31.1510   34.5770 N   0  0  0  0  0  0  0  0  0  0  0  0
   32.3200   30.6390   34.4110 C   0  0  0  0  0  0  0  0  0  0  0  0
   33.5130   30.6910   35.0950 C   0  0  0  0  0  0  0  0  0  0  0  0
   35.5390   30.1210   35.2360 H   0  0  0  0  0  0  0  0  0  0  0  0
   33.3310   28.6550   31.8470 H   0  0  0  0  0  0  0  0  0  0  0  0
   30.6800   29.5390   31.8730 H   0  0  0  0  0  0  0  0  0  0  0  0
   29.2820   31.0120   33.4450 H   0  0  0  0  0  0  0  0  0  0  0  0
   33.5710   31.2720   36.0250 H   0  0  0  0  0  0  0  0  0  0  0  0
   38.4560   26.6990   34.6720 C   0  0  0  0  0  0  0  0  0  0  0  0
   39.1770   27.3290   35.4900 O   0  0  0  0  0  0  0  0  0  0  0  0
   38.3900   25.1950   34.7920 C   0  0  1  0  0  0  0  0  0  0  0  0
   39.5570   24.4370   34.1280 C   0  0  0  0  0  0  0  0  0  0  0  0
   39.3870   24.4780   35.5890 C   0  0  2  0  0  0  0  0  0  0  0  0
   37.3930   24.7670   34.5150 H   0  0  0  0  0  0  0  0  0  0  0  0
   40.3650   25.0900   33.7160 H   0  0  0  0  0  0  0  0  0  0  0  0
   39.3490   23.5720   33.5020 H   0  0  0  0  0  0  0  0  0  0  0  0
   40.0780   25.1000   36.2030 H   0  0  0  0  0  0  0  0  0  0  0  0
   38.8430   23.3110   36.3840 C   0  0  0  0  0  3  0  0  0  0  0  0
   39.7310   22.8500   37.4880 C   0  0  0  0  0  2  0  0  0  0  0  0
   39.1530   23.3310   38.7910 C   0  0  0  0  0  2  0  0  0  0  0  0
   37.9560   24.1790   38.4500 C   0  0  0  0  0  2  0  0  0  0  0  0
   37.5450   23.6600   37.0770 C   0  0  0  0  0  2  0  0  0  0  0  0
  1  2  2  0  0  0  0
  1  6  1  0  0  0  0
  2  3  1  0  0  0  0
  3 10  1  0  0  0  0
  3  4  2  0  0  0  0
  5  4  1  0  0  0  0
  5 23  1  0  0  0  0
  6  5  2  0  0  0  0
  7  1  1  0  0  0  0
  8  2  1  0  0  0  0
  9 17  1  0  0  0  0
  9 18  1  0  0  0  0
 10  9  2  0  0  0  0
 11 12  2  0  0  0  0
 11 10  1  0  0  0  0
 12 16  1  0  0  0  0
 13 12  1  0  0  0  0
 13 14  1  0  0  0  0
 14 15  2  0  0  0  0
 16 15  1  0  0  0  0
 16 17  2  0  0  0  0
 17 22  1  0  0  0  0
 19 11  1  0  0  0  0
 20 13  1  0  0  0  0
 21 14  1  0  0  0  0
 23 25  1  0  0  0  0
 23 24  2  0  0  0  0
 25 28  1  6  0  0  0
 25 27  1  0  0  0  0
 26 25  1  0  0  0  0
 26 27  1  0  0  0  0
 27 31  1  1  0  0  0
 27 32  1  0  0  0  0
 29 26  1  0  0  0  0
 30 26  1  0  0  0  0
 32 36  1  0  0  0  0
 32 33  1  0  0  0  0
 33 34  1  0  0  0  0
 35 34  1  0  0  0  0
 36 35  1  0  0  0  0
M  END
>  <minimizedAffinity>
-6.05112171

$$$$

 OpenBabel03262523343D

 36 40  0  0  1  0  0  0  0  0999 V2000
   36.5980   29.5760   30.4970 C   0  0  0  0  0  0  0  0  0  0  0  0
   36.1480   30.2550   31.6130 C   0  0  0  0  0  0  0  0  0  0  0  0
   35.5650   29.5160   32.6590 C   0  0  0  0  0  0  0  0  0  0  0  0
   35.4650   28.1470   32.5320 N   0  0  0  0  0  0  0  0  0  0  0  0
   35.9290   27.5480   31.4080 C   0  0  0  0  0  0  0  0  0  0  0  0
   36.4820   28.2260   30.4100 N   0  0  0  0  0  0  0  0  0  0  0  0
   37.0420   30.1570   29.7070 H   0  0  0  0  0  0  0  0  0  0  0  0
   36.2320   31.3090   31.6940 H   0  0  0  0  0  0  0  0  0  0  0  0
   35.9820   30.9520   34.5540 C   0  0  0  0  0  0  0  0  0  0  0  0
   35.0700   30.1340   33.8680 C   0  0  0  0  0  0  0  0  0  0  0  0
   33.8040   29.9770   34.3620 C   0  0  0  0  0  0  0  0  0  0  0  0
   33.4560   30.6280   35.5240 C   0  0  0  0  0  0  0  0  0  0  0  0
   32.2760   30.6180   36.1850 N   0  0  0  0  0  0  0  0  0  0  0  0
   32.4090   31.3970   37.2610 C   0  0  0  0  0  0  0  0  0  0  0  0
   33.6350   31.9000   37.3020 N   0  0  0  0  0  0  0  0  0  0  0  0
   34.3160   31.4410   36.2340 C   0  0  0  0  0  0  0  0  0  0  0  0
   35.5870   31.5940   35.7310 C   0  0  0  0  0  0  0  0  0  0  0  0
   37.0060   31.1350   34.2380 H   0  0  0  0  0  0  0  0  0  0  0  0
   33.1090   29.3550   33.8410 H   0  0  0  0  0  0  0  0  0  0  0  0
   31.4070   30.1060   35.9260 H   0  0  0  0  0  0  0  0  0  0  0  0
   31.6410   31.6010   38.0010 H   0  0  0  0  0  0  0  0  0  0  0  0
   36.3010   32.2330   36.2680 H   0  0  0  0  0  0  0  0  0  0  0  0
   35.8100   26.1010   31.3290 C   0  0  0  0  0  0  0  0  0  0  0  0
   35.0730   25.5220   30.4880 O   0  0  0  0  0  0  0  0  0  0  0  0
   36.5980   25.2470   32.2930 C   0  0  1  0  0  0  0  0  0  0  0  0
   37.8620   24.5920   31.7000 C   0  0  0  0  0  0  0  0  0  0  0  0
   37.9400   25.6580   32.7110 C   0  0  2  0  0  0  0  0  0  0  0  0
   35.9680   24.5170   32.8610 H   0  0  0  0  0  0  0  0  0  0  0  0
   38.1000   24.8990   30.6520 H   0  0  0  0  0  0  0  0  0  0  0  0
   38.0600   23.5390   31.8890 H   0  0  0  0  0  0  0  0  0  0  0  0
   38.2680   26.6770   32.4060 H   0  0  0  0  0  0  0  0  0  0  0  0
   38.2620   25.3870   34.1650 C   0  0  0  0  0  3  0  0  0  0  0  0
   39.6040   25.8660   34.5980 C   0  0  0  0  0  2  0  0  0  0  0  0
   39.4180   27.1150   35.4150 C   0  0  0  0  0  2  0  0  0  0  0  0
   37.9490   27.4420   35.3820 C   0  0  0  0  0  2  0  0  0  0  0  0
   37.3000   26.0940   35.0930 C   0  0  0  0  0  2  0  0  0  0  0  0
  1  2  1  0  0  0  0
  2  8  1  0  0  0  0
  2  3  2  0  0  0  0
  3 10  1  0  0  0  0
  4  3  1  0  0  0  0
  5  4  2  0  0  0  0
  6  1  2  0  0  0  0
  6  5  1  0  0  0  0
  7  1  1  0  0  0  0
  9 17  1  0  0  0  0
 10 11  1  0  0  0  0
 10  9  2  0  0  0  0
 11 12  2  0  0  0  0
 12 13  1  0  0  0  0
 12 16  1  0  0  0  0
 13 14  1  0  0  0  0
 14 15  2  0  0  0  0
 14 21  1  0  0  0  0
 16 15  1  0  0  0  0
 17 16  2  0  0  0  0
 17 22  1  0  0  0  0
 18  9  1  0  0  0  0
 19 11  1  0  0  0  0
 20 13  1  0  0  0  0
 23  5  1  0  0  0  0
 23 25  1  0  0  0  0
 24 23  2  0  0  0  0
 25 27  1  0  0  0  0
 25 28  1  1  0  0  0
 26 30  1  0  0  0  0
 26 25  1  0  0  0  0
 26 27  1  0  0  0  0
 27 31  1  6  0  0  0
 27 32  1  0  0  0  0
 29 26  1  0  0  0  0
 32 33  1  0  0  0  0
 32 36  1  0  0  0  0
 33 34  1  0  0  0  0
 35 34  1  0  0  0  0
 36 35  1  0  0  0  0
M  END
>  <minimizedAffinity>
-5.98418331

$$$$

 OpenBabel03262523343D

 36 40  0  0  1  0  0  0  0  0999 V2000
   36.4050   28.6910   30.6840 C   0  0  0  0  0  0  0  0  0  0  0  0
   35.8800   29.5010   31.6720 C   0  0  0  0  0  0  0  0  0  0  0  0
   35.6590   28.9500   32.9470 C   0  0  0  0  0  0  0  0  0  0  0  0
   35.9740   27.6250   33.1620 N   0  0  0  0  0  0  0  0  0  0  0  0
   36.4870   26.8890   32.1450 C   0  0  0  0  0  0  0  0  0  0  0  0
   36.7030   27.3910   30.9350 N   0  0  0  0  0  0  0  0  0  0  0  0
   36.5680   29.1310   29.7140 H   0  0  0  0  0  0  0  0  0  0  0  0
   35.6430   30.5200   31.4880 H   0  0  0  0  0  0  0  0  0  0  0  0
   36.0230   30.5730   34.6960 C   0  0  0  0  0  0  0  0  0  0  0  0
   35.1190   29.7170   34.0450 C   0  0  0  0  0  0  0  0  0  0  0  0
   33.8200   29.6640   34.4710 C   0  0  0  0  0  0  0  0  0  0  0  0
   33.4320   30.4530   35.5290 C   0  0  0  0  0  0  0  0  0  0  0  0
   32.2140   30.5610   36.1090 N   0  0  0  0  0  0  0  0  0  0  0  0
   32.3160   31.4510   37.0990 C   0  0  0  0  0  0  0  0  0  0  0  0
   33.5580   31.9090   37.1640 N   0  0  0  0  0  0  0  0  0  0  0  0
   34.2820   31.3080   36.2000 C   0  0  0  0  0  0  0  0  0  0  0  0
   35.5870   31.3560   35.7670 C   0  0  0  0  0  0  0  0  0  0  0  0
   37.0710   30.6810   34.4290 H   0  0  0  0  0  0  0  0  0  0  0  0
   33.1310   29.0130   33.9760 H   0  0  0  0  0  0  0  0  0  0  0  0
   31.3410   30.0560   35.8510 H   0  0  0  0  0  0  0  0  0  0  0  0
   31.5150   31.7650   37.7600 H   0  0  0  0  0  0  0  0  0  0  0  0
   36.2940   32.0250   36.2760 H   0  0  0  0  0  0  0  0  0  0  0  0
   36.8130   25.5010   32.4280 C   0  0  0  0  0  0  0  0  0  0  0  0
   37.4170   25.1410   33.4720 O   0  0  0  0  0  0  0  0  0  0  0  0
   36.4180   24.4380   31.4310 C   0  0  1  0  0  0  0  0  0  0  0  0
   37.5720   23.9010   30.5610 C   0  0  0  0  0  0  0  0  0  0  0  0
   36.9170   23.0690   31.5820 C   0  0  2  0  0  0  0  0  0  0  0  0
   35.5170   24.7060   30.8240 H   0  0  0  0  0  0  0  0  0  0  0  0
   38.5830   24.2920   30.8310 H   0  0  0  0  0  0  0  0  0  0  0  0
   37.4310   23.7950   29.4870 H   0  0  0  0  0  0  0  0  0  0  0  0
   37.4580   22.8350   32.5260 H   0  0  0  0  0  0  0  0  0  0  0  0
   35.9150   21.9880   31.2390 C   0  0  0  0  0  3  0  0  0  0  0  0
   36.5230   20.6970   30.8140 C   0  0  0  0  0  2  0  0  0  0  0  0
   36.4000   19.7200   31.9510 C   0  0  0  0  0  2  0  0  0  0  0  0
   35.8000   20.4730   33.1090 C   0  0  0  0  0  2  0  0  0  0  0  0
   35.0590   21.6180   32.4290 C   0  0  0  0  0  2  0  0  0  0  0  0
  1  6  2  0  0  0  0
  1  2  1  0  0  0  0
  2  3  2  0  0  0  0
  3  4  1  0  0  0  0
  3 10  1  0  0  0  0
  5 23  1  0  0  0  0
  5  4  2  0  0  0  0
  6  5  1  0  0  0  0
  7  1  1  0  0  0  0
  8  2  1  0  0  0  0
  9 17  1  0  0  0  0
 10 11  1  0  0  0  0
 10  9  2  0  0  0  0
 11 12  2  0  0  0  0
 12 13  1  0  0  0  0
 12 16  1  0  0  0  0
 13 14  1  0  0  0  0
 14 15  2  0  0  0  0
 14 21  1  0  0  0  0
 16 15  1  0  0  0  0
 17 16  2  0  0  0  0
 17 22  1  0  0  0  0
 18  9  1  0  0  0  0
 19 11  1  0  0  0  0
 20 13  1  0  0  0  0
 23 24  2  0  0  0  0
 25 28  1  6  0  0  0
 25 27  1  0  0  0  0
 25 23  1  0  0  0  0
 26 29  1  0  0  0  0
 26 25  1  0  0  0  0
 26 27  1  0  0  0  0
 27 31  1  1  0  0  0
 30 26  1  0  0  0  0
 32 27  1  0  0  0  0
 32 36  1  0  0  0  0
 33 32  1  0  0  0  0
 33 34  1  0  0  0  0
 34 35  1  0  0  0  0
 36 35  1  0  0  0  0
M  END
>  <minimizedAffinity>
-5.96315193

$$$$

 OpenBabel03262523343D

 36 40  0  0  1  0  0  0  0  0999 V2000
   38.3880   26.2500   35.8830 C   0  0  0  0  0  0  0  0  0  0  0  0
   37.7320   27.3210   35.3060 C   0  0  0  0  0  0  0  0  0  0  0  0
   37.1700   27.1540   34.0270 C   0  0  0  0  0  0  0  0  0  0  0  0
   37.2940   25.9330   33.4000 N   0  0  0  0  0  0  0  0  0  0  0  0
   37.9520   24.9270   34.0260 C   0  0  0  0  0  0  0  0  0  0  0  0
   38.4890   25.0630   35.2330 N   0  0  0  0  0  0  0  0  0  0  0  0
   38.8110   26.3960   36.8630 H   0  0  0  0  0  0  0  0  0  0  0  0
   37.6460   28.2540   35.8040 H   0  0  0  0  0  0  0  0  0  0  0  0
   36.6730   28.2940   31.9580 C   0  0  0  0  0  0  0  0  0  0  0  0
   36.4610   28.2120   33.3440 C   0  0  0  0  0  0  0  0  0  0  0  0
   35.6190   29.1040   33.9490 C   0  0  0  0  0  0  0  0  0  0  0  0
   34.9990   30.0630   33.1800 C   0  0  0  0  0  0  0  0  0  0  0  0
   34.1370   31.0340   33.5620 N   0  0  0  0  0  0  0  0  0  0  0  0
   33.7990   31.7240   32.4710 C   0  0  0  0  0  0  0  0  0  0  0  0
   34.4180   31.2220   31.4120 N   0  0  0  0  0  0  0  0  0  0  0  0
   35.1760   30.1840   31.8180 C   0  0  0  0  0  0  0  0  0  0  0  0
   36.0240   29.2840   31.2160 C   0  0  0  0  0  0  0  0  0  0  0  0
   37.3220   27.6310   31.3930 H   0  0  0  0  0  0  0  0  0  0  0  0
   35.4580   29.0420   35.0040 H   0  0  0  0  0  0  0  0  0  0  0  0
   33.7860   31.2300   34.5230 H   0  0  0  0  0  0  0  0  0  0  0  0
   33.1200   32.5710   32.4360 H   0  0  0  0  0  0  0  0  0  0  0  0
   36.1900   29.3480   30.1320 H   0  0  0  0  0  0  0  0  0  0  0  0
   38.0450   23.6560   33.3270 C   0  0  0  0  0  0  0  0  0  0  0  0
   38.9800   22.8360   33.5230 O   0  0  0  0  0  0  0  0  0  0  0  0
   36.9820   23.2950   32.3180 C   0  0  1  0  0  0  0  0  0  0  0  0
   37.3970   23.4730   30.8430 C   0  0  0  0  0  0  0  0  0  0  0  0
   37.1700   22.1440   31.4330 C   0  0  2  0  0  0  0  0  0  0  0  0
   35.9830   23.7530   32.5360 H   0  0  0  0  0  0  0  0  0  0  0  0
   38.4660   23.7580   30.6890 H   0  0  0  0  0  0  0  0  0  0  0  0
   36.7200   23.9700   30.1510 H   0  0  0  0  0  0  0  0  0  0  0  0
   38.0410   21.4850   31.6470 H   0  0  0  0  0  0  0  0  0  0  0  0
   35.9180   21.3340   31.1710 C   0  0  0  0  0  3  0  0  0  0  0  0
   36.1700   19.9130   30.8010 C   0  0  0  0  0  2  0  0  0  0  0  0
   35.8480   19.0520   31.9920 C   0  0  0  0  0  2  0  0  0  0  0  0
   35.4970   19.9830   33.1210 C   0  0  0  0  0  2  0  0  0  0  0  0
   35.0410   21.2450   32.3990 C   0  0  0  0  0  2  0  0  0  0  0  0
  1  7  1  0  0  0  0
  2  8  1  0  0  0  0
  2  1  1  0  0  0  0
  3  2  2  0  0  0  0
  4  5  2  0  0  0  0
  4  3  1  0  0  0  0
  5  6  1  0  0  0  0
  6  1  2  0  0  0  0
  9 10  1  0  0  0  0
 10 11  2  0  0  0  0
 10  3  1  0  0  0  0
 11 19  1  0  0  0  0
 12 13  1  0  0  0  0
 12 11  1  0  0  0  0
 13 20  1  0  0  0  0
 14 13  1  0  0  0  0
 15 16  1  0  0  0  0
 15 14  2  0  0  0  0
 16 12  2  0  0  0  0
 17 16  1  0  0  0  0
 17  9  2  0  0  0  0
 18  9  1  0  0  0  0
 21 14  1  0  0  0  0
 22 17  1  0  0  0  0
 23 24  2  0  0  0  0
 23  5  1  0  0  0  0
 25 28  1  1  0  0  0
 25 23  1  0  0  0  0
 26 27  1  0  0  0  0
 26 25  1  0  0  0  0
 27 31  1  1  0  0  0
 27 25  1  0  0  0  0
 29 26  1  0  0  0  0
 30 26  1  0  0  0  0
 32 27  1  0  0  0  0
 32 36  1  0  0  0  0
 33 32  1  0  0  0  0
 33 34  1  0  0  0  0
 34 35  1  0  0  0  0
 36 35  1  0  0  0  0
M  END
>  <minimizedAffinity>
-5.92735672

$$$$

 OpenBabel03262523343D

 36 40  0  0  1  0  0  0  0  0999 V2000
   38.3960   26.5160   36.4150 C   0  0  0  0  0  0  0  0  0  0  0  0
   38.1510   27.3360   35.3300 C   0  0  0  0  0  0  0  0  0  0  0  0
   37.8940   26.7410   34.0820 C   0  0  0  0  0  0  0  0  0  0  0  0
   37.8950   25.3660   33.9870 N   0  0  0  0  0  0  0  0  0  0  0  0
   38.1430   24.6230   35.0940 C   0  0  0  0  0  0  0  0  0  0  0  0
   38.3880   25.1650   36.2810 N   0  0  0  0  0  0  0  0  0  0  0  0
   38.5900   26.9890   37.3620 H   0  0  0  0  0  0  0  0  0  0  0  0
   38.1540   28.3940   35.4210 H   0  0  0  0  0  0  0  0  0  0  0  0
   36.5270   28.3900   32.9680 C   0  0  0  0  0  0  0  0  0  0  0  0
   37.6220   27.5140   32.8910 C   0  0  0  0  0  0  0  0  0  0  0  0
   38.3490   27.4460   31.7340 C   0  0  0  0  0  0  0  0  0  0  0  0
   37.9860   28.2420   30.6720 C   0  0  0  0  0  0  0  0  0  0  0  0
   38.5540   28.3390   29.4480 N   0  0  0  0  0  0  0  0  0  0  0  0
   37.8600   29.2420   28.7510 C   0  0  0  0  0  0  0  0  0  0  0  0
   36.8720   29.7190   29.4940 N   0  0  0  0  0  0  0  0  0  0  0  0
   36.9200   29.1170   30.6990 C   0  0  0  0  0  0  0  0  0  0  0  0
   36.1930   29.1800   31.8650 C   0  0  0  0  0  0  0  0  0  0  0  0
   35.8930   28.5110   33.8430 H   0  0  0  0  0  0  0  0  0  0  0  0
   39.1820   26.7790   31.6750 H   0  0  0  0  0  0  0  0  0  0  0  0
   39.3810   27.8180   29.0880 H   0  0  0  0  0  0  0  0  0  0  0  0
   38.0600   29.5520   27.7300 H   0  0  0  0  0  0  0  0  0  0  0  0
   35.3370   29.8650   31.9250 H   0  0  0  0  0  0  0  0  0  0  0  0
   38.1210   23.1780   34.9430 C   0  0  0  0  0  0  0  0  0  0  0  0
   38.5350   22.3920   35.8360 O   0  0  0  0  0  0  0  0  0  0  0  0
   37.5860   22.5820   33.6630 C   0  0  1  0  0  0  0  0  0  0  0  0
   38.4750   21.4920   33.0310 C   0  0  0  0  0  0  0  0  0  0  0  0
   37.1660   21.1790   33.6260 C   0  0  2  0  0  0  0  0  0  0  0  0
   37.2570   23.3480   32.9160 H   0  0  0  0  0  0  0  0  0  0  0  0
   39.3660   21.2020   33.6410 H   0  0  0  0  0  0  0  0  0  0  0  0
   38.6820   21.5210   31.9630 H   0  0  0  0  0  0  0  0  0  0  0  0
   37.1230   20.6440   34.6010 H   0  0  0  0  0  0  0  0  0  0  0  0
   35.9310   20.9100   32.7930 C   0  0  0  0  0  3  0  0  0  0  0  0
   36.1210   21.1080   31.3290 C   0  0  0  0  0  2  0  0  0  0  0  0
   36.2160   19.7550   30.6780 C   0  0  0  0  0  2  0  0  0  0  0  0
   36.1860   18.7360   31.7860 C   0  0  0  0  0  2  0  0  0  0  0  0
   35.4760   19.4730   32.9150 C   0  0  0  0  0  2  0  0  0  0  0  0
  1  7  1  0  0  0  0
  2  8  1  0  0  0  0
  2  1  2  0  0  0  0
  3  2  1  0  0  0  0
  4  3  2  0  0  0  0
  4  5  1  0  0  0  0
  5  6  2  0  0  0  0
  6  1  1  0  0  0  0
  9 18  1  0  0  0  0
 10  9  1  0  0  0  0
 10  3  1  0  0  0  0
 11 10  2  0  0  0  0
 12 16  2  0  0  0  0
 12 11  1  0  0  0  0
 13 12  1  0  0  0  0
 14 13  1  0  0  0  0
 14 15  2  0  0  0  0
 15 16  1  0  0  0  0
 16 17  1  0  0  0  0
 17 22  1  0  0  0  0
 17  9  2  0  0  0  0
 19 11  1  0  0  0  0
 20 13  1  0  0  0  0
 21 14  1  0  0  0  0
 23  5  1  0  0  0  0
 23 24  2  0  0  0  0
 25 28  1  6  0  0  0
 25 23  1  0  0  0  0
 26 27  1  0  0  0  0
 26 29  1  0  0  0  0
 26 25  1  0  0  0  0
 27 25  1  0  0  0  0
 27 31  1  1  0  0  0
 30 26  1  0  0  0  0
 32 36  1  0  0  0  0
 32 27  1  0  0  0  0
 33 32  1  0  0  0  0
 34 33  1  0  0  0  0
 34 35  1  0  0  0  0
 35 36  1  0  0  0  0
M  END
>  <minimizedAffinity>
-5.84634256

$$$$

 OpenBabel03262523343D

 36 40  0  0  1  0  0  0  0  0999 V2000
   40.2210   25.6680   35.0310 C   0  0  0  0  0  0  0  0  0  0  0  0
   39.4070   26.7370   34.7070 C   0  0  0  0  0  0  0  0  0  0  0  0
   38.2770   26.5020   33.9020 C   0  0  0  0  0  0  0  0  0  0  0  0
   38.0260   25.2170   33.4680 N   0  0  0  0  0  0  0  0  0  0  0  0
   38.8680   24.2170   33.8250 C   0  0  0  0  0  0  0  0  0  0  0  0
   39.9390   24.4180   34.5840 N   0  0  0  0  0  0  0  0  0  0  0  0
   41.0800   25.8670   35.6490 H   0  0  0  0  0  0  0  0  0  0  0  0
   39.6160   27.7190   35.0510 H   0  0  0  0  0  0  0  0  0  0  0  0
   36.5850   28.0970   34.5480 C   0  0  0  0  0  0  0  0  0  0  0  0
   37.3640   27.5520   33.5150 C   0  0  0  0  0  0  0  0  0  0  0  0
   37.2230   28.0330   32.2420 C   0  0  0  0  0  0  0  0  0  0  0  0
   36.3170   29.0420   32.0070 C   0  0  0  0  0  0  0  0  0  0  0  0
   36.0170   29.6630   30.8430 N   0  0  0  0  0  0  0  0  0  0  0  0
   35.0800   30.5770   31.1030 C   0  0  0  0  0  0  0  0  0  0  0  0
   34.7780   30.5560   32.3940 N   0  0  0  0  0  0  0  0  0  0  0  0
   35.5310   29.6090   32.9880 C   0  0  0  0  0  0  0  0  0  0  0  0
   35.6780   29.1210   34.2660 C   0  0  0  0  0  0  0  0  0  0  0  0
   36.6290   27.7790   35.5870 H   0  0  0  0  0  0  0  0  0  0  0  0
   37.8140   27.6180   31.4540 H   0  0  0  0  0  0  0  0  0  0  0  0
   36.4250   29.4810   29.9020 H   0  0  0  0  0  0  0  0  0  0  0  0
   34.6230   31.2470   30.3810 H   0  0  0  0  0  0  0  0  0  0  0  0
   35.0690   29.5470   35.0740 H   0  0  0  0  0  0  0  0  0  0  0  0
   38.5520   22.8800   33.3510 C   0  0  0  0  0  0  0  0  0  0  0  0
   39.1990   21.8600   33.7050 O   0  0  0  0  0  0  0  0  0  0  0  0
   37.4030   22.6960   32.3890 C   0  0  1  0  0  0  0  0  0  0  0  0
   37.7780   22.8100   30.8970 C   0  0  0  0  0  0  0  0  0  0  0  0
   37.3680   21.5320   31.5010 C   0  0  2  0  0  0  0  0  0  0  0  0
   36.5000   23.3060   32.6480 H   0  0  0  0  0  0  0  0  0  0  0  0
   38.8710   22.9220   30.6970 H   0  0  0  0  0  0  0  0  0  0  0  0
   37.1600   23.4100   30.2330 H   0  0  0  0  0  0  0  0  0  0  0  0
   38.1320   20.7420   31.6810 H   0  0  0  0  0  0  0  0  0  0  0  0
   35.9930   20.9330   31.2960 C   0  0  0  0  0  3  0  0  0  0  0  0
   35.9920   19.4630   31.0520 C   0  0  0  0  0  2  0  0  0  0  0  0
   35.5300   18.7760   32.3080 C   0  0  0  0  0  2  0  0  0  0  0  0
   35.3510   19.8480   33.3500 C   0  0  0  0  0  2  0  0  0  0  0  0
   35.1190   21.1040   32.5180 C   0  0  0  0  0  2  0  0  0  0  0  0
  1  7  1  0  0  0  0
  2  1  1  0  0  0  0
  2  8  1  0  0  0  0
  3  2  2  0  0  0  0
  4  5  2  0  0  0  0
  4  3  1  0  0  0  0
  5  6  1  0  0  0  0
  6  1  2  0  0  0  0
  9 18  1  0  0  0  0
 10  3  1  0  0  0  0
 10  9  2  0  0  0  0
 11 10  1  0  0  0  0
 12 11  2  0  0  0  0
 12 16  1  0  0  0  0
 13 14  1  0  0  0  0
 13 12  1  0  0  0  0
 14 15  2  0  0  0  0
 15 16  1  0  0  0  0
 16 17  2  0  0  0  0
 17  9  1  0  0  0  0
 17 22  1  0  0  0  0
 19 11  1  0  0  0  0
 20 13  1  0  0  0  0
 21 14  1  0  0  0  0
 23 24  2  0  0  0  0
 23  5  1  0  0  0  0
 25 28  1  1  0  0  0
 25 23  1  0  0  0  0
 26 27  1  0  0  0  0
 26 25  1  0  0  0  0
 27 31  1  1  0  0  0
 27 25  1  0  0  0  0
 29 26  1  0  0  0  0
 30 26  1  0  0  0  0
 32 27  1  0  0  0  0
 32 36  1  0  0  0  0
 33 32  1  0  0  0  0
 33 34  1  0  0  0  0
 34 35  1  0  0  0  0
 36 35  1  0  0  0  0
M  END
>  <minimizedAffinity>
-5.792696

$$$$
