
 OpenBabel03272508483D

 36 40  0  0  0  0  0  0  0  0999 V2000
   35.5160   29.6250   49.7460 C   0  0  0  0  0  0  0  0  0  0  0  0
   36.5420   29.3220   50.6400 C   0  0  0  0  0  0  0  0  0  0  0  0
   37.6780   29.8430   50.0250 C   0  0  0  0  0  0  0  0  0  0  0  0
   37.3080   30.4160   48.8350 C   0  0  0  0  0  0  0  0  0  0  0  0
   35.9990   30.2680   48.6950 O   0  0  0  0  0  0  0  0  0  0  0  0
   36.4480   28.8050   51.5760 H   0  0  0  0  0  0  0  0  0  0  0  0
   38.6920   29.7980   50.4320 H   0  0  0  0  0  0  0  0  0  0  0  0
   38.5980   32.3820   48.1060 C   0  0  0  0  0  0  0  0  0  0  0  0
   38.1760   31.0770   47.8720 C   0  0  0  0  0  0  0  0  0  0  0  0
   38.5760   30.4010   46.7280 C   0  0  0  0  0  0  0  0  0  0  0  0
   39.4010   31.0140   45.8020 C   0  0  0  0  0  0  0  0  0  0  0  0
   39.9450   30.6270   44.6270 N   0  0  0  0  0  0  0  0  0  0  0  0
   40.6580   31.6450   44.1720 N   0  0  0  0  0  0  0  0  0  0  0  0
   40.5820   32.6780   45.0350 C   0  0  0  0  0  0  0  0  0  0  0  0
   39.7750   32.2990   46.0980 C   0  0  0  0  0  0  0  0  0  0  0  0
   39.4290   33.0340   47.1970 C   0  0  0  0  0  0  0  0  0  0  0  0
   38.2780   32.9100   49.0110 H   0  0  0  0  0  0  0  0  0  0  0  0
   38.2590   29.3850   46.5270 H   0  0  0  0  0  0  0  0  0  0  0  0
   39.7830   29.6820   44.2200 H   0  0  0  0  0  0  0  0  0  0  0  0
   41.0940   33.6230   44.8630 H   0  0  0  0  0  0  0  0  0  0  0  0
   39.7690   34.0480   47.3570 H   0  0  0  0  0  0  0  0  0  0  0  0
   34.1260   29.2730   49.9640 C   0  0  0  0  0  0  0  0  0  0  0  0
   33.5060   29.8380   50.8810 O   0  0  0  0  0  0  0  0  0  0  0  0
   31.5480   27.2100   48.4190 C   0  0  0  0  0  0  0  0  0  0  0  0
   32.2520   26.4230   47.5320 C   0  0  0  0  0  0  0  0  0  0  0  0
   33.6180   26.5750   47.4400 C   0  0  0  0  0  0  0  0  0  0  0  0
   34.2090   27.5000   48.2300 N   0  0  0  0  0  0  0  0  0  0  0  0
   33.5050   28.2630   49.0950 C   0  0  0  0  0  0  0  0  0  0  0  0
   32.1700   28.1130   49.1860 N   0  0  0  0  0  0  0  0  0  0  0  0
   30.4770   27.0850   48.4870 H   0  0  0  0  0  0  0  0  0  0  0  0
   31.7560   25.6840   46.9030 H   0  0  0  0  0  0  0  0  0  0  0  0
   34.3770   25.7580   46.5120 C   0  0  0  0  0  0  0  0  0  0  0  0
   34.2280   24.2590   46.7960 C   0  0  0  0  0  0  0  0  0  0  0  0
   34.7580   23.6270   45.5270 C   0  0  0  0  0  0  0  0  0  0  0  0
   34.8350   24.7130   44.4780 C   0  0  0  0  0  0  0  0  0  0  0  0
   33.9660   25.8020   45.0780 C   0  0  0  0  0  0  0  0  0  0  0  0
  1 22  1  0  0  0  0
  1  2  2  0  0  0  0
  2  6  1  0  0  0  0
  3  7  1  0  0  0  0
  3  2  1  0  0  0  0
  4  3  2  0  0  0  0
  5  4  1  0  0  0  0
  5  1  1  0  0  0  0
  8 17  1  0  0  0  0
  9  8  1  0  0  0  0
  9  4  1  0  0  0  0
 10  9  2  0  0  0  0
 11 15  2  0  0  0  0
 11 10  1  0  0  0  0
 12 11  1  0  0  0  0
 13 12  1  0  0  0  0
 13 14  2  0  0  0  0
 14 15  1  0  0  0  0
 15 16  1  0  0  0  0
 16 21  1  0  0  0  0
 16  8  2  0  0  0  0
 18 10  1  0  0  0  0
 19 12  1  0  0  0  0
 20 14  1  0  0  0  0
 22 23  2  0  0  0  0
 24 30  1  0  0  0  0
 24 29  1  0  0  0  0
 25 24  2  0  0  0  0
 26 25  1  0  0  0  0
 26 27  2  0  0  0  0
 27 28  1  0  0  0  0
 28 29  2  0  0  0  0
 28 22  1  0  0  0  0
 31 25  1  0  0  0  0
 32 33  1  0  0  0  0
 32 26  1  0  0  0  0
 34 33  1  0  0  0  0
 35 36  1  0  0  0  0
 35 34  1  0  0  0  0
 36 32  1  0  0  0  0
M  END
>  <minimizedAffinity>
-6.80696964

>  <minimizedRMSD>
0.387925148

$$$$
