
 OpenBabel03272500163D

 27 29  0  0  0  0  0  0  0  0999 V2000
   38.0610   24.1860   33.8560 Cl  0  0  0  0  0  0  0  0  0  0  0  0
   37.0930   25.1160   32.7420 C   0  0  0  0  0  0  0  0  0  0  0  0
   36.3140   24.4620   31.7790 C   0  0  0  0  0  0  0  0  0  0  0  0
   35.5370   25.1710   30.8680 C   0  0  0  0  0  0  0  0  0  0  0  0
   35.5580   26.5580   30.9400 C   0  0  0  0  0  0  0  0  0  0  0  0
   36.3280   27.2190   31.8910 C   0  0  0  0  0  0  0  0  0  0  0  0
   36.3120   28.9730   31.9290 Cl  0  0  0  0  0  0  0  0  0  0  0  0
   37.1080   26.4820   32.8070 C   0  0  0  0  0  0  0  0  0  0  0  0
   34.9260   24.7030   30.1170 H   0  0  0  0  0  0  0  0  0  0  0  0
   34.9790   27.1590   30.2630 H   0  0  0  0  0  0  0  0  0  0  0  0
   37.2600   20.9910   30.9920 C   0  0  0  0  0  0  0  0  0  0  0  0
   36.2050   20.2760   31.6050 C   0  0  0  0  0  0  0  0  0  0  0  0
   35.1870   20.9840   32.2760 C   0  0  0  0  0  0  0  0  0  0  0  0
   35.2850   22.3430   32.2940 N   0  0  0  0  0  0  0  0  0  0  0  0
   36.2940   23.0110   31.7070 C   0  0  0  0  0  0  0  0  0  0  0  0
   37.2750   22.3510   31.0610 N   0  0  0  0  0  0  0  0  0  0  0  0
   38.0210   20.4500   30.4880 H   0  0  0  0  0  0  0  0  0  0  0  0
   34.4030   20.4390   32.7310 H   0  0  0  0  0  0  0  0  0  0  0  0
   36.2190   18.7820   31.5100 C   0  0  0  0  0  0  0  0  0  0  0  0
   35.0350   18.2520   32.0640 F   0  0  0  0  0  0  0  0  0  0  0  0
   36.2560   18.4200   30.2000 F   0  0  0  0  0  0  0  0  0  0  0  0
   37.2760   18.2190   32.1860 F   0  0  0  0  0  0  0  0  0  0  0  0
   37.8820   27.2730   33.7850 C   0  0  0  0  0  3  0  0  0  0  0  0
   39.3750   27.0630   33.6750 C   0  0  0  0  0  2  0  0  0  0  0  0
   39.8070   26.4620   34.9980 C   0  0  0  0  0  2  0  0  0  0  0  0
   38.7080   26.7360   35.9900 C   0  0  0  0  0  2  0  0  0  0  0  0
   37.4780   27.1290   35.2080 C   0  0  0  0  0  2  0  0  0  0  0  0
  2  8  1  0  0  0  0
  2  1  1  0  0  0  0
  3  2  2  0  0  0  0
  4  5  2  0  0  0  0
  4  3  1  0  0  0  0
  5  6  1  0  0  0  0
  6  7  1  0  0  0  0
  6  8  2  0  0  0  0
  8 23  1  0  0  0  0
  9  4  1  0  0  0  0
 10  5  1  0  0  0  0
 11 16  2  0  0  0  0
 11 12  1  0  0  0  0
 12 13  2  0  0  0  0
 13 14  1  0  0  0  0
 13 18  1  0  0  0  0
 15  3  1  0  0  0  0
 15 14  2  0  0  0  0
 16 15  1  0  0  0  0
 17 11  1  0  0  0  0
 19 12  1  0  0  0  0
 19 20  1  0  0  0  0
 19 22  1  0  0  0  0
 21 19  1  0  0  0  0
 23 27  1  0  0  0  0
 24 23  1  0  0  0  0
 24 25  1  0  0  0  0
 25 26  1  0  0  0  0
 27 26  1  0  0  0  0
M  END
>  <minimizedAffinity>
-5.91746473

$$$$

 OpenBabel03272500163D

 27 29  0  0  0  0  0  0  0  0999 V2000
   35.8360   28.6590   34.1750 Cl  0  0  0  0  0  0  0  0  0  0  0  0
   36.8520   28.3380   32.7940 C   0  0  0  0  0  0  0  0  0  0  0  0
   37.7910   27.3010   32.8430 C   0  0  0  0  0  0  0  0  0  0  0  0
   38.6240   27.0230   31.7640 C   0  0  0  0  0  0  0  0  0  0  0  0
   38.4980   27.8120   30.6270 C   0  0  0  0  0  0  0  0  0  0  0  0
   37.5690   28.8450   30.5660 C   0  0  0  0  0  0  0  0  0  0  0  0
   37.4580   29.8040   29.1020 Cl  0  0  0  0  0  0  0  0  0  0  0  0
   36.7320   29.1100   31.6710 C   0  0  0  0  0  0  0  0  0  0  0  0
   39.3560   26.2350   31.7660 H   0  0  0  0  0  0  0  0  0  0  0  0
   39.1140   27.6450   29.7630 H   0  0  0  0  0  0  0  0  0  0  0  0
   38.2740   26.2840   36.3490 C   0  0  0  0  0  0  0  0  0  0  0  0
   38.1560   24.8780   36.2420 C   0  0  0  0  0  0  0  0  0  0  0  0
   37.9150   24.2970   34.9810 C   0  0  0  0  0  0  0  0  0  0  0  0
   37.8070   25.1440   33.9180 N   0  0  0  0  0  0  0  0  0  0  0  0
   37.9210   26.4790   34.0340 C   0  0  0  0  0  0  0  0  0  0  0  0
   38.1520   27.0520   35.2310 N   0  0  0  0  0  0  0  0  0  0  0  0
   38.4560   26.7120   37.3020 H   0  0  0  0  0  0  0  0  0  0  0  0
   37.8290   23.2450   34.9130 H   0  0  0  0  0  0  0  0  0  0  0  0
   38.2950   24.0640   37.4920 C   0  0  0  0  0  0  0  0  0  0  0  0
   38.1480   24.8910   38.6240 F   0  0  0  0  0  0  0  0  0  0  0  0
   37.3050   23.1350   37.5310 F   0  0  0  0  0  0  0  0  0  0  0  0
   39.5220   23.4520   37.5890 F   0  0  0  0  0  0  0  0  0  0  0  0
   35.7710   30.2200   31.5060 C   0  0  0  0  0  3  0  0  0  0  0  0
   36.2770   31.5350   32.0520 C   0  0  0  0  0  2  0  0  0  0  0  0
   35.3240   31.9150   33.1680 C   0  0  0  0  0  2  0  0  0  0  0  0
   34.0710   31.1030   32.9770 C   0  0  0  0  0  2  0  0  0  0  0  0
   34.3990   29.9780   32.0240 C   0  0  0  0  0  2  0  0  0  0  0  0
  2  3  1  0  0  0  0
  2  1  1  0  0  0  0
  3 15  1  0  0  0  0
  4  9  1  0  0  0  0
  4  3  2  0  0  0  0
  5  4  1  0  0  0  0
  6  5  2  0  0  0  0
  6  8  1  0  0  0  0
  7  6  1  0  0  0  0
  8  2  2  0  0  0  0
 10  5  1  0  0  0  0
 11 17  1  0  0  0  0
 12 11  1  0  0  0  0
 12 19  1  0  0  0  0
 13 12  2  0  0  0  0
 14 15  2  0  0  0  0
 14 13  1  0  0  0  0
 15 16  1  0  0  0  0
 16 11  2  0  0  0  0
 18 13  1  0  0  0  0
 19 21  1  0  0  0  0
 19 22  1  0  0  0  0
 19 20  1  0  0  0  0
 23  8  1  0  0  0  0
 23 27  1  0  0  0  0
 23 24  1  0  0  0  0
 24 25  1  0  0  0  0
 26 25  1  0  0  0  0
 27 26  1  0  0  0  0
M  END
>  <minimizedAffinity>
-5.61921167

$$$$

 OpenBabel03272500163D

 27 29  0  0  0  0  0  0  0  0999 V2000
   37.2980   27.8000   35.1690 Cl  0  0  0  0  0  0  0  0  0  0  0  0
   37.0480   28.1720   33.4840 C   0  0  0  0  0  0  0  0  0  0  0  0
   36.0560   29.0870   33.1090 C   0  0  0  0  0  0  0  0  0  0  0  0
   35.8220   29.4000   31.7730 C   0  0  0  0  0  0  0  0  0  0  0  0
   36.6060   28.7720   30.8140 C   0  0  0  0  0  0  0  0  0  0  0  0
   37.5930   27.8610   31.1730 C   0  0  0  0  0  0  0  0  0  0  0  0
   38.5490   27.1020   29.9130 Cl  0  0  0  0  0  0  0  0  0  0  0  0
   37.8160   27.5580   32.5330 C   0  0  0  0  0  0  0  0  0  0  0  0
   35.0710   30.0980   31.4500 H   0  0  0  0  0  0  0  0  0  0  0  0
   36.4710   28.9730   29.7670 H   0  0  0  0  0  0  0  0  0  0  0  0
   33.1900   29.9740   35.2440 C   0  0  0  0  0  0  0  0  0  0  0  0
   33.7460   31.0120   36.0280 C   0  0  0  0  0  0  0  0  0  0  0  0
   35.0870   31.3950   35.8200 C   0  0  0  0  0  0  0  0  0  0  0  0
   35.7790   30.7260   34.8550 N   0  0  0  0  0  0  0  0  0  0  0  0
   35.2380   29.7420   34.1160 C   0  0  0  0  0  0  0  0  0  0  0  0
   33.9580   29.3630   34.3010 N   0  0  0  0  0  0  0  0  0  0  0  0
   32.1800   29.6930   35.4070 H   0  0  0  0  0  0  0  0  0  0  0  0
   35.4920   32.1720   36.4130 H   0  0  0  0  0  0  0  0  0  0  0  0
   32.8720   31.6620   37.0560 C   0  0  0  0  0  0  0  0  0  0  0  0
   31.7490   32.2460   36.4330 F   0  0  0  0  0  0  0  0  0  0  0  0
   32.4170   30.7150   37.9170 F   0  0  0  0  0  0  0  0  0  0  0  0
   33.5200   32.6580   37.7470 F   0  0  0  0  0  0  0  0  0  0  0  0
   38.8940   26.5870   32.8140 C   0  0  0  0  0  3  0  0  0  0  0  0
   38.3950   25.3080   33.4470 C   0  0  0  0  0  2  0  0  0  0  0  0
   39.0470   25.2400   34.8140 C   0  0  0  0  0  2  0  0  0  0  0  0
   40.2170   26.1880   34.7950 C   0  0  0  0  0  2  0  0  0  0  0  0
   40.0440   27.0990   33.6040 C   0  0  0  0  0  2  0  0  0  0  0  0
  2  1  1  0  0  0  0
  3  2  1  0  0  0  0
  3 15  1  0  0  0  0
  4  3  2  0  0  0  0
  5  6  2  0  0  0  0
  5  4  1  0  0  0  0
  6  8  1  0  0  0  0
  7  6  1  0  0  0  0
  8 23  1  0  0  0  0
  8  2  2  0  0  0  0
  9  4  1  0  0  0  0
 10  5  1  0  0  0  0
 11 17  1  0  0  0  0
 11 12  1  0  0  0  0
 12 19  1  0  0  0  0
 13 12  2  0  0  0  0
 13 18  1  0  0  0  0
 14 13  1  0  0  0  0
 15 16  1  0  0  0  0
 15 14  2  0  0  0  0
 16 11  2  0  0  0  0
 19 22  1  0  0  0  0
 19 21  1  0  0  0  0
 20 19  1  0  0  0  0
 23 24  1  0  0  0  0
 23 27  1  0  0  0  0
 24 25  1  0  0  0  0
 26 25  1  0  0  0  0
 27 26  1  0  0  0  0
M  END
>  <minimizedAffinity>
-5.54000378

$$$$

 OpenBabel03272500163D

 27 29  0  0  0  0  0  0  0  0999 V2000
   36.8530   27.6380   34.6510 Cl  0  0  0  0  0  0  0  0  0  0  0  0
   36.7430   28.3840   33.0790 C   0  0  0  0  0  0  0  0  0  0  0  0
   35.8660   29.4560   32.8740 C   0  0  0  0  0  0  0  0  0  0  0  0
   35.7450   30.0690   31.6300 C   0  0  0  0  0  0  0  0  0  0  0  0
   36.5250   29.5830   30.5890 C   0  0  0  0  0  0  0  0  0  0  0  0
   37.3990   28.5180   30.7800 C   0  0  0  0  0  0  0  0  0  0  0  0
   38.3570   27.9500   29.4240 Cl  0  0  0  0  0  0  0  0  0  0  0  0
   37.5080   27.9110   32.0490 C   0  0  0  0  0  0  0  0  0  0  0  0
   35.0830   30.8940   31.4370 H   0  0  0  0  0  0  0  0  0  0  0  0
   36.4740   30.0150   29.6070 H   0  0  0  0  0  0  0  0  0  0  0  0
   34.7730   31.3920   35.8090 C   0  0  0  0  0  0  0  0  0  0  0  0
   33.4690   30.8780   36.0030 C   0  0  0  0  0  0  0  0  0  0  0  0
   32.9810   29.8810   35.1350 C   0  0  0  0  0  0  0  0  0  0  0  0
   33.8140   29.4650   34.1380 N   0  0  0  0  0  0  0  0  0  0  0  0
   35.0510   29.9630   33.9650 C   0  0  0  0  0  0  0  0  0  0  0  0
   35.5340   30.9160   34.7860 N   0  0  0  0  0  0  0  0  0  0  0  0
   35.1320   32.1420   36.4680 H   0  0  0  0  0  0  0  0  0  0  0  0
   32.0050   29.5040   35.2890 H   0  0  0  0  0  0  0  0  0  0  0  0
   32.6600   31.4250   37.1390 C   0  0  0  0  0  0  0  0  0  0  0  0
   32.4460   30.4210   38.1050 F   0  0  0  0  0  0  0  0  0  0  0  0
   33.3540   32.4280   37.7370 F   0  0  0  0  0  0  0  0  0  0  0  0
   31.4250   31.8770   36.7380 F   0  0  0  0  0  0  0  0  0  0  0  0
   38.4720   26.7960   32.1550 C   0  0  0  0  0  3  0  0  0  0  0  0
   37.8090   25.4440   32.2870 C   0  0  0  0  0  2  0  0  0  0  0  0
   38.2340   24.9050   33.6390 C   0  0  0  0  0  2  0  0  0  0  0  0
   39.4440   25.6910   34.0700 C   0  0  0  0  0  2  0  0  0  0  0  0
   39.5120   26.9290   33.2090 C   0  0  0  0  0  2  0  0  0  0  0  0
  2  1  1  0  0  0  0
  3  2  1  0  0  0  0
  3 15  1  0  0  0  0
  4  3  2  0  0  0  0
  5  6  2  0  0  0  0
  5  4  1  0  0  0  0
  6  8  1  0  0  0  0
  7  6  1  0  0  0  0
  8 23  1  0  0  0  0
  8  2  2  0  0  0  0
  9  4  1  0  0  0  0
 10  5  1  0  0  0  0
 11 12  1  0  0  0  0
 11 17  1  0  0  0  0
 12 19  1  0  0  0  0
 13 18  1  0  0  0  0
 13 12  2  0  0  0  0
 14 13  1  0  0  0  0
 15 14  2  0  0  0  0
 15 16  1  0  0  0  0
 16 11  2  0  0  0  0
 19 21  1  0  0  0  0
 19 20  1  0  0  0  0
 22 19  1  0  0  0  0
 23 24  1  0  0  0  0
 23 27  1  0  0  0  0
 24 25  1  0  0  0  0
 25 26  1  0  0  0  0
 27 26  1  0  0  0  0
M  END
>  <minimizedAffinity>
-5.47341681

$$$$

 OpenBabel03272500163D

 27 29  0  0  0  0  0  0  0  0999 V2000
   37.6330   24.5960   33.7960 Cl  0  0  0  0  0  0  0  0  0  0  0  0
   38.3160   24.9000   32.2200 C   0  0  0  0  0  0  0  0  0  0  0  0
   38.1760   23.9480   31.2030 C   0  0  0  0  0  0  0  0  0  0  0  0
   38.7170   24.1530   29.9360 C   0  0  0  0  0  0  0  0  0  0  0  0
   39.4060   25.3370   29.7090 C   0  0  0  0  0  0  0  0  0  0  0  0
   39.5520   26.2900   30.7120 C   0  0  0  0  0  0  0  0  0  0  0  0
   40.4340   27.7650   30.3620 Cl  0  0  0  0  0  0  0  0  0  0  0  0
   38.9960   26.0640   31.9890 C   0  0  0  0  0  0  0  0  0  0  0  0
   38.6280   23.4450   29.1320 H   0  0  0  0  0  0  0  0  0  0  0  0
   39.8450   25.5500   28.7520 H   0  0  0  0  0  0  0  0  0  0  0  0
   37.4160   20.4890   32.2090 C   0  0  0  0  0  0  0  0  0  0  0  0
   36.0430   20.4050   31.8760 C   0  0  0  0  0  0  0  0  0  0  0  0
   35.3970   21.5240   31.3140 C   0  0  0  0  0  0  0  0  0  0  0  0
   36.1510   22.6440   31.1220 N   0  0  0  0  0  0  0  0  0  0  0  0
   37.4550   22.7100   31.4440 C   0  0  0  0  0  0  0  0  0  0  0  0
   38.0890   21.6500   31.9820 N   0  0  0  0  0  0  0  0  0  0  0  0
   37.8940   19.6410   32.6310 H   0  0  0  0  0  0  0  0  0  0  0  0
   34.3710   21.4500   31.0680 H   0  0  0  0  0  0  0  0  0  0  0  0
   35.3340   19.1120   32.1400 C   0  0  0  0  0  0  0  0  0  0  0  0
   33.9590   19.2500   31.8560 F   0  0  0  0  0  0  0  0  0  0  0  0
   35.8290   18.1560   31.3110 F   0  0  0  0  0  0  0  0  0  0  0  0
   35.4430   18.7070   33.4490 F   0  0  0  0  0  0  0  0  0  0  0  0
   39.1940   27.1390   32.9830 C   0  0  0  0  0  3  0  0  0  0  0  0
   40.3770   26.8990   33.8940 C   0  0  0  0  0  2  0  0  0  0  0  0
   39.8060   26.7830   35.2930 C   0  0  0  0  0  2  0  0  0  0  0  0
   38.4250   27.3820   35.2600 C   0  0  0  0  0  2  0  0  0  0  0  0
   38.0110   27.4890   33.8120 C   0  0  0  0  0  2  0  0  0  0  0  0
  2  1  1  0  0  0  0
  3 15  1  0  0  0  0
  3  2  2  0  0  0  0
  4  3  1  0  0  0  0
  5  4  2  0  0  0  0
  5  6  1  0  0  0  0
  6  8  2  0  0  0  0
  7  6  1  0  0  0  0
  8  2  1  0  0  0  0
  8 23  1  0  0  0  0
  9  4  1  0  0  0  0
 10  5  1  0  0  0  0
 11 17  1  0  0  0  0
 12 19  1  0  0  0  0
 12 11  2  0  0  0  0
 13 12  1  0  0  0  0
 14 13  2  0  0  0  0
 14 15  1  0  0  0  0
 15 16  2  0  0  0  0
 16 11  1  0  0  0  0
 18 13  1  0  0  0  0
 19 22  1  0  0  0  0
 20 19  1  0  0  0  0
 21 19  1  0  0  0  0
 23 27  1  0  0  0  0
 23 24  1  0  0  0  0
 24 25  1  0  0  0  0
 26 25  1  0  0  0  0
 27 26  1  0  0  0  0
M  END
>  <minimizedAffinity>
-5.39711857

$$$$

 OpenBabel03272500163D

 27 29  0  0  0  0  0  0  0  0999 V2000
   35.1740   28.9600   34.2790 Cl  0  0  0  0  0  0  0  0  0  0  0  0
   35.8050   29.8050   32.8890 C   0  0  0  0  0  0  0  0  0  0  0  0
   36.3560   29.0840   31.8230 C   0  0  0  0  0  0  0  0  0  0  0  0
   36.8780   29.7260   30.7040 C   0  0  0  0  0  0  0  0  0  0  0  0
   36.8370   31.1140   30.6740 C   0  0  0  0  0  0  0  0  0  0  0  0
   36.2930   31.8420   31.7270 C   0  0  0  0  0  0  0  0  0  0  0  0
   36.2710   33.5930   31.6290 Cl  0  0  0  0  0  0  0  0  0  0  0  0
   35.7670   31.1720   32.8530 C   0  0  0  0  0  0  0  0  0  0  0  0
   37.3080   29.2050   29.8670 H   0  0  0  0  0  0  0  0  0  0  0  0
   37.2250   31.6640   29.8370 H   0  0  0  0  0  0  0  0  0  0  0  0
   37.4110   25.6370   32.5760 C   0  0  0  0  0  0  0  0  0  0  0  0
   36.4230   24.8950   31.8870 C   0  0  0  0  0  0  0  0  0  0  0  0
   35.4140   25.5760   31.1770 C   0  0  0  0  0  0  0  0  0  0  0  0
   35.4520   26.9380   31.1990 N   0  0  0  0  0  0  0  0  0  0  0  0
   36.3980   27.6320   31.8580 C   0  0  0  0  0  0  0  0  0  0  0  0
   37.3700   26.9980   32.5410 N   0  0  0  0  0  0  0  0  0  0  0  0
   38.1670   25.1160   33.1060 H   0  0  0  0  0  0  0  0  0  0  0  0
   34.6800   25.0100   30.6660 H   0  0  0  0  0  0  0  0  0  0  0  0
   36.4990   23.4000   31.9460 C   0  0  0  0  0  0  0  0  0  0  0  0
   35.2000   22.8500   31.9220 F   0  0  0  0  0  0  0  0  0  0  0  0
   37.1570   22.9440   30.8480 F   0  0  0  0  0  0  0  0  0  0  0  0
   37.1140   22.9470   33.0890 F   0  0  0  0  0  0  0  0  0  0  0  0
   35.2010   32.0310   33.9140 C   0  0  0  0  0  3  0  0  0  0  0  0
   36.1460   32.2490   35.0740 C   0  0  0  0  0  2  0  0  0  0  0  0
   35.4600   31.6450   36.2840 C   0  0  0  0  0  2  0  0  0  0  0  0
   34.0020   31.4980   35.9410 C   0  0  0  0  0  2  0  0  0  0  0  0
   33.8720   31.6260   34.4420 C   0  0  0  0  0  2  0  0  0  0  0  0
  2  1  1  0  0  0  0
  3 15  1  0  0  0  0
  3  2  2  0  0  0  0
  4  3  1  0  0  0  0
  5  4  2  0  0  0  0
  5  6  1  0  0  0  0
  6  8  2  0  0  0  0
  7  6  1  0  0  0  0
  8  2  1  0  0  0  0
  8 23  1  0  0  0  0
  9  4  1  0  0  0  0
 10  5  1  0  0  0  0
 11 17  1  0  0  0  0
 12 19  1  0  0  0  0
 12 11  2  0  0  0  0
 13 14  2  0  0  0  0
 13 12  1  0  0  0  0
 14 15  1  0  0  0  0
 15 16  2  0  0  0  0
 16 11  1  0  0  0  0
 18 13  1  0  0  0  0
 19 22  1  0  0  0  0
 20 19  1  0  0  0  0
 21 19  1  0  0  0  0
 23 27  1  0  0  0  0
 23 24  1  0  0  0  0
 24 25  1  0  0  0  0
 26 25  1  0  0  0  0
 27 26  1  0  0  0  0
M  END
>  <minimizedAffinity>
-5.39488077

$$$$

 OpenBabel03272500163D

 27 29  0  0  0  0  0  0  0  0999 V2000
   34.9570   24.7030   30.9130 Cl  0  0  0  0  0  0  0  0  0  0  0  0
   36.4630   24.1890   31.6260 C   0  0  0  0  0  0  0  0  0  0  0  0
   37.4030   25.1410   32.0380 C   0  0  0  0  0  0  0  0  0  0  0  0
   38.6190   24.7670   32.6020 C   0  0  0  0  0  0  0  0  0  0  0  0
   38.8770   23.4100   32.7440 C   0  0  0  0  0  0  0  0  0  0  0  0
   37.9520   22.4530   32.3380 C   0  0  0  0  0  0  0  0  0  0  0  0
   38.3380   20.7550   32.5450 Cl  0  0  0  0  0  0  0  0  0  0  0  0
   36.7240   22.8540   31.7700 C   0  0  0  0  0  0  0  0  0  0  0  0
   39.3630   25.4710   32.9300 H   0  0  0  0  0  0  0  0  0  0  0  0
   39.7990   23.0610   33.1720 H   0  0  0  0  0  0  0  0  0  0  0  0
   36.3010   28.5810   32.7550 C   0  0  0  0  0  0  0  0  0  0  0  0
   36.6400   29.2320   31.5460 C   0  0  0  0  0  0  0  0  0  0  0  0
   37.2380   28.4930   30.5050 C   0  0  0  0  0  0  0  0  0  0  0  0
   37.4580   27.1670   30.7330 N   0  0  0  0  0  0  0  0  0  0  0  0
   37.1300   26.5610   31.8880 C   0  0  0  0  0  0  0  0  0  0  0  0
   36.5570   27.2510   32.8930 N   0  0  0  0  0  0  0  0  0  0  0  0
   35.8500   29.1450   33.5320 H   0  0  0  0  0  0  0  0  0  0  0  0
   37.4880   28.9910   29.6060 H   0  0  0  0  0  0  0  0  0  0  0  0
   36.3430   30.6960   31.4280 C   0  0  0  0  0  0  0  0  0  0  0  0
   35.1210   30.8860   30.7500 F   0  0  0  0  0  0  0  0  0  0  0  0
   36.2080   31.2230   32.6730 F   0  0  0  0  0  0  0  0  0  0  0  0
   37.3110   31.3770   30.7280 F   0  0  0  0  0  0  0  0  0  0  0  0
   35.8030   21.7650   31.3810 C   0  0  0  0  0  3  0  0  0  0  0  0
   34.9550   21.2640   32.5270 C   0  0  0  0  0  2  0  0  0  0  0  0
   35.3390   19.8100   32.7220 C   0  0  0  0  0  2  0  0  0  0  0  0
   36.0340   19.3620   31.4640 C   0  0  0  0  0  2  0  0  0  0  0  0
   36.4220   20.6020   30.6930 C   0  0  0  0  0  2  0  0  0  0  0  0
  1  2  1  0  0  0  0
  2  8  2  0  0  0  0
  2  3  1  0  0  0  0
  3  4  2  0  0  0  0
  4  5  1  0  0  0  0
  4  9  1  0  0  0  0
  5 10  1  0  0  0  0
  6  7  1  0  0  0  0
  6  5  2  0  0  0  0
  8  6  1  0  0  0  0
 11 16  1  0  0  0  0
 11 17  1  0  0  0  0
 12 11  2  0  0  0  0
 13 14  2  0  0  0  0
 13 12  1  0  0  0  0
 14 15  1  0  0  0  0
 15  3  1  0  0  0  0
 15 16  2  0  0  0  0
 18 13  1  0  0  0  0
 19 12  1  0  0  0  0
 19 21  1  0  0  0  0
 20 19  1  0  0  0  0
 22 19  1  0  0  0  0
 23  8  1  0  0  0  0
 23 24  1  0  0  0  0
 24 25  1  0  0  0  0
 26 25  1  0  0  0  0
 27 23  1  0  0  0  0
 27 26  1  0  0  0  0
M  END
>  <minimizedAffinity>
-5.3758378

$$$$

 OpenBabel03272500163D

 27 29  0  0  0  0  0  0  0  0999 V2000
   41.0550   25.6750   34.0400 Cl  0  0  0  0  0  0  0  0  0  0  0  0
   40.2750   24.6190   35.1880 C   0  0  0  0  0  0  0  0  0  0  0  0
   38.9190   24.7930   35.4880 C   0  0  0  0  0  0  0  0  0  0  0  0
   38.2660   23.9760   36.4060 C   0  0  0  0  0  0  0  0  0  0  0  0
   39.0060   22.9750   37.0230 C   0  0  0  0  0  0  0  0  0  0  0  0
   40.3540   22.7930   36.7350 C   0  0  0  0  0  0  0  0  0  0  0  0
   41.2330   21.5110   37.5480 Cl  0  0  0  0  0  0  0  0  0  0  0  0
   40.9970   23.6320   35.8000 C   0  0  0  0  0  0  0  0  0  0  0  0
   37.2270   24.0800   36.6600 H   0  0  0  0  0  0  0  0  0  0  0  0
   38.5570   22.3140   37.7410 H   0  0  0  0  0  0  0  0  0  0  0  0
   37.1300   27.9580   34.9020 C   0  0  0  0  0  0  0  0  0  0  0  0
   36.6940   27.7810   33.5680 C   0  0  0  0  0  0  0  0  0  0  0  0
   37.0140   26.5880   32.8880 C   0  0  0  0  0  0  0  0  0  0  0  0
   37.7400   25.6600   33.5720 N   0  0  0  0  0  0  0  0  0  0  0  0
   38.1480   25.8410   34.8410 C   0  0  0  0  0  0  0  0  0  0  0  0
   37.8520   26.9740   35.5060 N   0  0  0  0  0  0  0  0  0  0  0  0
   36.8840   28.8590   35.4070 H   0  0  0  0  0  0  0  0  0  0  0  0
   36.6830   26.4670   31.8900 H   0  0  0  0  0  0  0  0  0  0  0  0
   35.9030   28.8830   32.9350 C   0  0  0  0  0  0  0  0  0  0  0  0
   35.5910   29.8660   33.8970 F   0  0  0  0  0  0  0  0  0  0  0  0
   36.6570   29.4760   31.9730 F   0  0  0  0  0  0  0  0  0  0  0  0
   34.7150   28.4420   32.4010 F   0  0  0  0  0  0  0  0  0  0  0  0
   42.4270   23.3520   35.5520 C   0  0  0  0  0  3  0  0  0  0  0  0
   43.3550   24.2290   36.3610 C   0  0  0  0  0  2  0  0  0  0  0  0
   44.1460   25.0380   35.3510 C   0  0  0  0  0  2  0  0  0  0  0  0
   44.0140   24.3400   34.0230 C   0  0  0  0  0  2  0  0  0  0  0  0
   42.8600   23.3730   34.1300 C   0  0  0  0  0  2  0  0  0  0  0  0
  1  2  1  0  0  0  0
  2  3  2  0  0  0  0
  2  8  1  0  0  0  0
  3  4  1  0  0  0  0
  4  9  1  0  0  0  0
  4  5  2  0  0  0  0
  5 10  1  0  0  0  0
  6  5  1  0  0  0  0
  6  7  1  0  0  0  0
  8  6  2  0  0  0  0
 11 17  1  0  0  0  0
 11 16  1  0  0  0  0
 12 11  2  0  0  0  0
 13 12  1  0  0  0  0
 13 14  2  0  0  0  0
 14 15  1  0  0  0  0
 15  3  1  0  0  0  0
 15 16  2  0  0  0  0
 18 13  1  0  0  0  0
 19 12  1  0  0  0  0
 19 20  1  0  0  0  0
 21 19  1  0  0  0  0
 22 19  1  0  0  0  0
 23  8  1  0  0  0  0
 23 24  1  0  0  0  0
 25 24  1  0  0  0  0
 26 27  1  0  0  0  0
 26 25  1  0  0  0  0
 27 23  1  0  0  0  0
M  END
>  <minimizedAffinity>
-5.29373693

$$$$

 OpenBabel03272500163D

 27 29  0  0  0  0  0  0  0  0999 V2000
   36.5400   27.9300   34.0040 Cl  0  0  0  0  0  0  0  0  0  0  0  0
   36.4600   28.9000   32.5560 C   0  0  0  0  0  0  0  0  0  0  0  0
   35.6900   30.0690   32.5400 C   0  0  0  0  0  0  0  0  0  0  0  0
   35.5960   30.8610   31.3990 C   0  0  0  0  0  0  0  0  0  0  0  0
   36.2920   30.4550   30.2680 C   0  0  0  0  0  0  0  0  0  0  0  0
   37.0590   29.2950   30.2720 C   0  0  0  0  0  0  0  0  0  0  0  0
   37.9140   28.8360   28.8100 Cl  0  0  0  0  0  0  0  0  0  0  0  0
   37.1430   28.5060   31.4380 C   0  0  0  0  0  0  0  0  0  0  0  0
   35.0150   31.7650   31.3510 H   0  0  0  0  0  0  0  0  0  0  0  0
   36.2560   31.0260   29.3590 H   0  0  0  0  0  0  0  0  0  0  0  0
   32.9870   30.5400   34.9960 C   0  0  0  0  0  0  0  0  0  0  0  0
   33.6470   31.3140   35.9800 C   0  0  0  0  0  0  0  0  0  0  0  0
   34.9990   31.6650   35.7930 C   0  0  0  0  0  0  0  0  0  0  0  0
   35.6020   31.2270   34.6520 N   0  0  0  0  0  0  0  0  0  0  0  0
   34.9630   30.4910   33.7250 C   0  0  0  0  0  0  0  0  0  0  0  0
   33.6710   30.1460   33.8860 N   0  0  0  0  0  0  0  0  0  0  0  0
   31.9690   30.2810   35.1440 H   0  0  0  0  0  0  0  0  0  0  0  0
   35.4810   32.2450   36.5360 H   0  0  0  0  0  0  0  0  0  0  0  0
   32.8640   31.7300   37.1870 C   0  0  0  0  0  0  0  0  0  0  0  0
   31.5730   32.1490   36.8040 F   0  0  0  0  0  0  0  0  0  0  0  0
   32.7200   30.6610   38.0130 F   0  0  0  0  0  0  0  0  0  0  0  0
   33.4500   32.7740   37.8630 F   0  0  0  0  0  0  0  0  0  0  0  0
   37.9920   27.3000   31.3470 C   0  0  0  0  0  3  0  0  0  0  0  0
   37.2040   26.0110   31.3870 C   0  0  0  0  0  2  0  0  0  0  0  0
   37.6640   25.2830   32.6350 C   0  0  0  0  0  2  0  0  0  0  0  0
   38.9750   25.8960   33.0490 C   0  0  0  0  0  2  0  0  0  0  0  0
   39.1100   27.2130   32.3220 C   0  0  0  0  0  2  0  0  0  0  0  0
  2  1  1  0  0  0  0
  3  2  1  0  0  0  0
  3 15  1  0  0  0  0
  4  3  2  0  0  0  0
  5  6  2  0  0  0  0
  5  4  1  0  0  0  0
  6  8  1  0  0  0  0
  7  6  1  0  0  0  0
  8  2  2  0  0  0  0
  9  4  1  0  0  0  0
 10  5  1  0  0  0  0
 11 17  1  0  0  0  0
 11 12  1  0  0  0  0
 12 19  1  0  0  0  0
 13 12  2  0  0  0  0
 13 18  1  0  0  0  0
 14 13  1  0  0  0  0
 15 16  1  0  0  0  0
 15 14  2  0  0  0  0
 16 11  2  0  0  0  0
 19 22  1  0  0  0  0
 19 21  1  0  0  0  0
 20 19  1  0  0  0  0
 23 24  1  0  0  0  0
 23  8  1  0  0  0  0
 23 27  1  0  0  0  0
 24 25  1  0  0  0  0
 25 26  1  0  0  0  0
 27 26  1  0  0  0  0
M  END
>  <minimizedAffinity>
-5.28450727

$$$$
