
 OpenBabel03272509343D

 37 41  0  0  1  0  0  0  0  0999 V2000
   37.4010   31.7240   48.4070 C   0  0  1  0  0  0  0  0  0  0  0  0
   38.6600   32.4680   48.5930 C   0  0  0  0  0  0  0  0  0  0  0  0
   38.6760   31.3720   47.5880 C   0  0  2  0  0  0  0  0  0  0  0  0
   36.6330   32.0950   47.7470 H   0  0  0  0  0  0  0  0  0  0  0  0
   39.2460   32.2540   49.5550 H   0  0  0  0  0  0  0  0  0  0  0  0
   38.5310   33.5260   48.4680 H   0  0  0  0  0  0  0  0  0  0  0  0
   38.8420   30.3100   47.6330 H   0  0  0  0  0  0  0  0  0  0  0  0
   38.8140   31.9280   46.2170 C   0  0  0  0  0  0  0  0  0  0  0  0
   39.8230   32.8970   46.1780 C   0  0  0  0  0  0  0  0  0  0  0  0
   40.1830   33.4990   44.9910 C   0  0  0  0  0  0  0  0  0  0  0  0
   39.5500   33.1520   43.7930 C   0  0  0  0  0  0  0  0  0  0  0  0
   38.5640   32.1970   43.8600 C   0  0  0  0  0  0  0  0  0  0  0  0
   37.8440   31.7650   42.7700 C   0  0  0  0  0  0  0  0  0  0  0  0
   36.8470   30.8180   42.8200 C   0  0  0  0  0  0  0  0  0  0  0  0
   36.5310   30.2520   44.0340 C   0  0  0  0  0  0  0  0  0  0  0  0
   37.2360   30.6660   45.1440 C   0  0  0  0  0  0  0  0  0  0  0  0
   38.2210   31.6140   45.0430 C   0  0  0  0  0  0  0  0  0  0  0  0
   40.4920   33.3600   46.8710 H   0  0  0  0  0  0  0  0  0  0  0  0
   40.9270   34.2520   44.7860 H   0  0  0  0  0  0  0  0  0  0  0  0
   39.7070   33.5210   42.7880 H   0  0  0  0  0  0  0  0  0  0  0  0
   38.0750   32.2010   41.7840 H   0  0  0  0  0  0  0  0  0  0  0  0
   36.3110   30.5150   41.9220 H   0  0  0  0  0  0  0  0  0  0  0  0
   35.7640   29.5020   44.1600 H   0  0  0  0  0  0  0  0  0  0  0  0
   36.9680   30.2000   46.1090 H   0  0  0  0  0  0  0  0  0  0  0  0
   35.3910   29.4500   50.6420 C   0  0  0  0  0  0  0  0  0  0  0  0
   35.7110   30.4480   49.6780 C   0  0  0  0  0  0  0  0  0  0  0  0
   37.0360   30.6860   49.3930 C   0  0  0  0  0  0  0  0  0  0  0  0
   37.9440   29.9370   50.0670 N   0  0  0  0  0  0  0  0  0  0  0  0
   37.6440   28.9960   50.9770 C   0  0  0  0  0  0  0  0  0  0  0  0
   36.3470   28.7460   51.2720 N   0  0  0  0  0  0  0  0  0  0  0  0
   34.3520   29.2580   50.8710 H   0  0  0  0  0  0  0  0  0  0  0  0
   34.8990   30.9740   49.2110 H   0  0  0  0  0  0  0  0  0  0  0  0
   38.8330   28.3000   51.5870 C   0  0  0  0  0  3  0  0  0  0  0  0
   39.2510   27.1160   50.7830 C   0  0  0  0  0  2  0  0  0  0  0  0
   39.3610   25.9320   51.6940 C   0  0  0  0  0  2  0  0  0  0  0  0
   39.1720   26.4410   53.1080 C   0  0  0  0  0  2  0  0  0  0  0  0
   38.5290   27.8080   52.9650 C   0  0  0  0  0  2  0  0  0  0  0  0
  1  4  1  6  0  0  0
  1  2  1  0  0  0  0
  1 27  1  0  0  0  0
  2  5  1  0  0  0  0
  3  7  1  1  0  0  0
  3  1  1  0  0  0  0
  3  2  1  0  0  0  0
  6  2  1  0  0  0  0
  8  3  1  0  0  0  0
  9  8  1  0  0  0  0
  9 18  1  0  0  0  0
 10  9  2  0  0  0  0
 11 12  2  0  0  0  0
 11 10  1  0  0  0  0
 12 17  1  0  0  0  0
 13 14  2  0  0  0  0
 13 12  1  0  0  0  0
 14 15  1  0  0  0  0
 15 23  1  0  0  0  0
 15 16  2  0  0  0  0
 16 24  1  0  0  0  0
 17 16  1  0  0  0  0
 17  8  2  0  0  0  0
 19 10  1  0  0  0  0
 20 11  1  0  0  0  0
 21 13  1  0  0  0  0
 22 14  1  0  0  0  0
 25 31  1  0  0  0  0
 25 30  1  0  0  0  0
 26 25  2  0  0  0  0
 27 26  1  0  0  0  0
 27 28  2  0  0  0  0
 28 29  1  0  0  0  0
 29 30  2  0  0  0  0
 29 33  1  0  0  0  0
 32 26  1  0  0  0  0
 33 37  1  0  0  0  0
 34 33  1  0  0  0  0
 34 35  1  0  0  0  0
 35 36  1  0  0  0  0
 37 36  1  0  0  0  0
M  END
>  <minimizedAffinity>
-1.43637002

>  <minimizedRMSD>
2.04026842

$$$$
