
 OpenBabel03272508173D

 27 29  0  0  0  0  0  0  0  0999 V2000
   38.1360   26.9370   33.4880 Cl  0  0  0  0  0  0  0  0  0  0  0  0
   37.1560   25.8260   32.6060 C   0  0  0  0  0  0  0  0  0  0  0  0
   36.2390   26.4460   31.8070 C   0  0  0  0  0  0  0  0  0  0  0  0
   35.3730   25.6340   31.0290 C   0  0  0  0  0  0  0  0  0  0  0  0
   35.4480   24.2720   31.0740 C   0  0  0  0  0  0  0  0  0  0  0  0
   36.3800   23.6800   31.8860 C   0  0  0  0  0  0  0  0  0  0  0  0
   36.5100   21.9520   31.9750 Cl  0  0  0  0  0  0  0  0  0  0  0  0
   37.2120   24.4500   32.6330 C   0  0  0  0  0  0  0  0  0  0  0  0
   34.6150   26.0300   30.3680 H   0  0  0  0  0  0  0  0  0  0  0  0
   34.8010   23.6240   30.4930 H   0  0  0  0  0  0  0  0  0  0  0  0
   36.5920   28.5030   30.5000 C   0  0  0  0  0  0  0  0  0  0  0  0
   35.9730   27.8770   31.5970 C   0  0  0  0  0  0  0  0  0  0  0  0
   35.1440   28.6400   32.4230 C   0  0  0  0  0  0  0  0  0  0  0  0
   34.9960   29.9580   32.1000 N   0  0  0  0  0  0  0  0  0  0  0  0
   35.6090   30.5250   31.0350 C   0  0  0  0  0  0  0  0  0  0  0  0
   36.4190   29.7860   30.2230 N   0  0  0  0  0  0  0  0  0  0  0  0
   37.2350   27.9080   29.8600 H   0  0  0  0  0  0  0  0  0  0  0  0
   34.6830   28.1580   33.2460 H   0  0  0  0  0  0  0  0  0  0  0  0
   35.4630   31.5780   30.8130 H   0  0  0  0  0  0  0  0  0  0  0  0
   38.2450   23.9040   33.5350 C   0  0  0  0  0  0  0  0  0  0  0  0
   39.4800   23.8890   33.3690 O   0  0  0  0  0  0  0  0  0  0  0  0
   38.0240   23.2830   34.7800 O   0  0  0  0  0  0  0  0  0  0  0  0
   38.6070   23.6530   35.9700 C   0  0  0  0  0  3  0  0  0  0  0  0
   39.2760   22.5260   36.7180 C   0  0  0  0  0  2  0  0  0  0  0  0
   39.4420   23.1610   38.0940 C   0  0  0  0  0  2  0  0  0  0  0  0
   38.1920   24.0220   38.2620 C   0  0  0  0  0  2  0  0  0  0  0  0
   37.5210   24.0860   36.9300 C   0  0  0  0  0  2  0  0  0  0  0  0
  2  8  1  0  0  0  0
  2  1  1  0  0  0  0
  3  2  2  0  0  0  0
  4  5  2  0  0  0  0
  4  3  1  0  0  0  0
  5  6  1  0  0  0  0
  6  7  1  0  0  0  0
  6  8  2  0  0  0  0
  8 20  1  0  0  0  0
  9  4  1  0  0  0  0
 10  5  1  0  0  0  0
 11 12  1  0  0  0  0
 12  3  1  0  0  0  0
 12 13  2  0  0  0  0
 13 18  1  0  0  0  0
 14 13  1  0  0  0  0
 15 14  2  0  0  0  0
 16 11  2  0  0  0  0
 16 15  1  0  0  0  0
 17 11  1  0  0  0  0
 19 15  1  0  0  0  0
 20 22  1  0  0  0  0
 21 20  2  0  0  0  0
 22 23  1  0  0  0  0
 23 24  1  0  0  0  0
 23 27  1  0  0  0  0
 24 25  1  0  0  0  0
 25 26  1  0  0  0  0
 27 26  1  0  0  0  0
M  END
>  <minimizedAffinity>
-5.54596663

$$$$

 OpenBabel03272508173D

 27 29  0  0  0  0  0  0  0  0999 V2000
   38.5880   26.8740   32.9710 Cl  0  0  0  0  0  0  0  0  0  0  0  0
   37.4200   25.7580   32.3650 C   0  0  0  0  0  0  0  0  0  0  0  0
   36.4390   26.3620   31.6320 C   0  0  0  0  0  0  0  0  0  0  0  0
   35.4190   25.5460   31.0790 C   0  0  0  0  0  0  0  0  0  0  0  0
   35.4120   24.1940   31.2700 C   0  0  0  0  0  0  0  0  0  0  0  0
   36.4110   23.6180   32.0100 C   0  0  0  0  0  0  0  0  0  0  0  0
   36.4420   21.9040   32.2790 Cl  0  0  0  0  0  0  0  0  0  0  0  0
   37.3910   24.3930   32.5430 C   0  0  0  0  0  0  0  0  0  0  0  0
   34.6010   25.9290   30.4860 H   0  0  0  0  0  0  0  0  0  0  0  0
   34.6480   23.5430   30.8620 H   0  0  0  0  0  0  0  0  0  0  0  0
   35.4210   28.5440   32.1490 C   0  0  0  0  0  0  0  0  0  0  0  0
   36.2390   27.7810   31.2970 C   0  0  0  0  0  0  0  0  0  0  0  0
   36.8150   28.4020   30.1860 C   0  0  0  0  0  0  0  0  0  0  0  0
   36.5350   29.7260   30.0070 N   0  0  0  0  0  0  0  0  0  0  0  0
   35.7420   30.4280   30.8490 C   0  0  0  0  0  0  0  0  0  0  0  0
   35.1770   29.8280   31.9360 N   0  0  0  0  0  0  0  0  0  0  0  0
   34.9760   28.0590   33.0110 H   0  0  0  0  0  0  0  0  0  0  0  0
   37.4290   27.8160   29.5520 H   0  0  0  0  0  0  0  0  0  0  0  0
   35.5450   31.4810   30.6700 H   0  0  0  0  0  0  0  0  0  0  0  0
   38.5070   23.8630   33.3520 C   0  0  0  0  0  0  0  0  0  0  0  0
   39.3220   22.9710   33.0460 O   0  0  0  0  0  0  0  0  0  0  0  0
   38.8670   24.2760   34.6500 O   0  0  0  0  0  0  0  0  0  0  0  0
   38.5210   23.6330   35.8150 C   0  0  0  0  0  3  0  0  0  0  0  0
   37.7940   24.4970   36.8170 C   0  0  0  0  0  2  0  0  0  0  0  0
   37.9240   23.6430   38.0720 C   0  0  0  0  0  2  0  0  0  0  0  0
   39.3040   23.0010   37.9480 C   0  0  0  0  0  2  0  0  0  0  0  0
   39.7840   23.2590   36.5580 C   0  0  0  0  0  2  0  0  0  0  0  0
  2  8  1  0  0  0  0
  2  1  1  0  0  0  0
  3  2  2  0  0  0  0
  4  5  2  0  0  0  0
  4  3  1  0  0  0  0
  5  6  1  0  0  0  0
  6  7  1  0  0  0  0
  6  8  2  0  0  0  0
  8 20  1  0  0  0  0
  9  4  1  0  0  0  0
 10  5  1  0  0  0  0
 11 17  1  0  0  0  0
 12  3  1  0  0  0  0
 12 11  2  0  0  0  0
 13 12  1  0  0  0  0
 14 13  2  0  0  0  0
 14 15  1  0  0  0  0
 15 16  2  0  0  0  0
 16 11  1  0  0  0  0
 18 13  1  0  0  0  0
 19 15  1  0  0  0  0
 20 22  1  0  0  0  0
 21 20  2  0  0  0  0
 22 23  1  0  0  0  0
 23 27  1  0  0  0  0
 23 24  1  0  0  0  0
 24 25  1  0  0  0  0
 26 25  1  0  0  0  0
 27 26  1  0  0  0  0
M  END
>  <minimizedAffinity>
-5.36496258

$$$$

 OpenBabel03272508173D

 27 29  0  0  0  0  0  0  0  0999 V2000
   38.6070   21.7310   33.5930 Cl  0  0  0  0  0  0  0  0  0  0  0  0
   37.5240   22.8390   32.8370 C   0  0  0  0  0  0  0  0  0  0  0  0
   36.5030   22.2170   32.1770 C   0  0  0  0  0  0  0  0  0  0  0  0
   35.5450   23.0250   31.5130 C   0  0  0  0  0  0  0  0  0  0  0  0
   35.6340   24.3880   31.5300 C   0  0  0  0  0  0  0  0  0  0  0  0
   36.6700   24.9820   32.2010 C   0  0  0  0  0  0  0  0  0  0  0  0
   36.8230   26.7100   32.2480 Cl  0  0  0  0  0  0  0  0  0  0  0  0
   37.5920   24.2150   32.8380 C   0  0  0  0  0  0  0  0  0  0  0  0
   34.7030   22.6280   30.9650 H   0  0  0  0  0  0  0  0  0  0  0  0
   34.9190   25.0340   31.0330 H   0  0  0  0  0  0  0  0  0  0  0  0
   36.6360   20.1510   30.8430 C   0  0  0  0  0  0  0  0  0  0  0  0
   36.2040   20.7850   32.0210 C   0  0  0  0  0  0  0  0  0  0  0  0
   35.5200   20.0290   32.9760 C   0  0  0  0  0  0  0  0  0  0  0  0
   35.3170   18.7100   32.6880 N   0  0  0  0  0  0  0  0  0  0  0  0
   35.7480   18.1350   31.5420 C   0  0  0  0  0  0  0  0  0  0  0  0
   36.4170   18.8670   30.6050 N   0  0  0  0  0  0  0  0  0  0  0  0
   37.1680   20.7410   30.1030 H   0  0  0  0  0  0  0  0  0  0  0  0
   35.1990   20.5170   33.8600 H   0  0  0  0  0  0  0  0  0  0  0  0
   35.5660   17.0810   31.3520 H   0  0  0  0  0  0  0  0  0  0  0  0
   38.7400   24.7640   33.5870 C   0  0  0  0  0  0  0  0  0  0  0  0
   39.8810   25.0240   33.1600 O   0  0  0  0  0  0  0  0  0  0  0  0
   38.7600   25.1040   34.9540 O   0  0  0  0  0  0  0  0  0  0  0  0
   38.4590   24.2520   35.9910 C   0  0  0  0  0  3  0  0  0  0  0  0
   38.0200   24.9390   37.2610 C   0  0  0  0  0  2  0  0  0  0  0  0
   38.1600   23.7980   38.2610 C   0  0  0  0  0  2  0  0  0  0  0  0
   39.3850   23.0250   37.7800 C   0  0  0  0  0  2  0  0  0  0  0  0
   39.7240   23.5430   36.4210 C   0  0  0  0  0  2  0  0  0  0  0  0
  2  8  1  0  0  0  0
  2  1  1  0  0  0  0
  3  2  2  0  0  0  0
  4  5  2  0  0  0  0
  4  3  1  0  0  0  0
  5  6  1  0  0  0  0
  6  7  1  0  0  0  0
  6  8  2  0  0  0  0
  8 20  1  0  0  0  0
  9  4  1  0  0  0  0
 10  5  1  0  0  0  0
 11 12  1  0  0  0  0
 12  3  1  0  0  0  0
 12 13  2  0  0  0  0
 13 18  1  0  0  0  0
 14 13  1  0  0  0  0
 15 14  2  0  0  0  0
 16 11  2  0  0  0  0
 16 15  1  0  0  0  0
 17 11  1  0  0  0  0
 19 15  1  0  0  0  0
 20 22  1  0  0  0  0
 21 20  2  0  0  0  0
 22 23  1  0  0  0  0
 23 27  1  0  0  0  0
 23 24  1  0  0  0  0
 24 25  1  0  0  0  0
 26 25  1  0  0  0  0
 27 26  1  0  0  0  0
M  END
>  <minimizedAffinity>
-5.29211569

$$$$

 OpenBabel03272508173D

 27 29  0  0  0  0  0  0  0  0999 V2000
   36.4430   27.9740   34.5030 Cl  0  0  0  0  0  0  0  0  0  0  0  0
   36.3250   28.9770   33.1040 C   0  0  0  0  0  0  0  0  0  0  0  0
   35.6990   30.1640   33.3540 C   0  0  0  0  0  0  0  0  0  0  0  0
   35.5420   31.0760   32.2780 C   0  0  0  0  0  0  0  0  0  0  0  0
   36.0010   30.7810   31.0270 C   0  0  0  0  0  0  0  0  0  0  0  0
   36.6250   29.5810   30.8080 C   0  0  0  0  0  0  0  0  0  0  0  0
   37.2240   29.1650   29.2340 Cl  0  0  0  0  0  0  0  0  0  0  0  0
   36.7790   28.7030   31.8330 C   0  0  0  0  0  0  0  0  0  0  0  0
   35.0620   32.0390   32.3750 H   0  0  0  0  0  0  0  0  0  0  0  0
   35.8970   31.4560   30.1840 H   0  0  0  0  0  0  0  0  0  0  0  0
   33.7560   30.4900   34.8310 C   0  0  0  0  0  0  0  0  0  0  0  0
   35.1280   30.6950   34.6010 C   0  0  0  0  0  0  0  0  0  0  0  0
   35.8730   31.3860   35.5610 C   0  0  0  0  0  0  0  0  0  0  0  0
   35.2010   31.8180   36.6680 N   0  0  0  0  0  0  0  0  0  0  0  0
   33.8780   31.6010   36.8540 C   0  0  0  0  0  0  0  0  0  0  0  0
   33.1450   30.9270   35.9210 N   0  0  0  0  0  0  0  0  0  0  0  0
   33.1810   29.9530   34.0840 H   0  0  0  0  0  0  0  0  0  0  0  0
   36.9050   31.5340   35.3770 H   0  0  0  0  0  0  0  0  0  0  0  0
   33.3820   31.9620   37.7500 H   0  0  0  0  0  0  0  0  0  0  0  0
   37.4370   27.3890   31.6950 C   0  0  0  0  0  0  0  0  0  0  0  0
   38.5310   27.0240   32.1670 O   0  0  0  0  0  0  0  0  0  0  0  0
   36.9410   26.2760   30.9870 O   0  0  0  0  0  0  0  0  0  0  0  0
   36.9040   24.9840   31.4580 C   0  0  0  0  0  3  0  0  0  0  0  0
   37.6190   23.9780   30.5900 C   0  0  0  0  0  2  0  0  0  0  0  0
   37.0610   22.6760   31.1500 C   0  0  0  0  0  2  0  0  0  0  0  0
   35.6150   23.0100   31.5070 C   0  0  0  0  0  2  0  0  0  0  0  0
   35.4740   24.4940   31.4210 C   0  0  0  0  0  2  0  0  0  0  0  0
  2  3  1  0  0  0  0
  2  1  1  0  0  0  0
  3 12  1  0  0  0  0
  4  9  1  0  0  0  0
  4  3  2  0  0  0  0
  5  4  1  0  0  0  0
  6  5  2  0  0  0  0
  6  8  1  0  0  0  0
  7  6  1  0  0  0  0
  8  2  2  0  0  0  0
 10  5  1  0  0  0  0
 11 16  1  0  0  0  0
 12 11  2  0  0  0  0
 12 13  1  0  0  0  0
 13 14  2  0  0  0  0
 14 15  1  0  0  0  0
 15 19  1  0  0  0  0
 16 15  2  0  0  0  0
 17 11  1  0  0  0  0
 18 13  1  0  0  0  0
 20  8  1  0  0  0  0
 20 21  2  0  0  0  0
 22 23  1  0  0  0  0
 22 20  1  0  0  0  0
 24 25  1  0  0  0  0
 24 23  1  0  0  0  0
 25 26  1  0  0  0  0
 27 23  1  0  0  0  0
 27 26  1  0  0  0  0
M  END
>  <minimizedAffinity>
-5.27990961

$$$$

 OpenBabel03272508173D

 27 29  0  0  0  0  0  0  0  0999 V2000
   38.8310   22.4670   32.3030 Cl  0  0  0  0  0  0  0  0  0  0  0  0
   37.5050   23.4480   31.7980 C   0  0  0  0  0  0  0  0  0  0  0  0
   36.3510   22.7370   31.6380 C   0  0  0  0  0  0  0  0  0  0  0  0
   35.1880   23.4370   31.2230 C   0  0  0  0  0  0  0  0  0  0  0  0
   35.2150   24.7820   30.9900 C   0  0  0  0  0  0  0  0  0  0  0  0
   36.3900   25.4660   31.1590 C   0  0  0  0  0  0  0  0  0  0  0  0
   36.4710   27.1760   30.8730 Cl  0  0  0  0  0  0  0  0  0  0  0  0
   37.5080   24.8040   31.5550 C   0  0  0  0  0  0  0  0  0  0  0  0
   34.2280   22.9640   31.0690 H   0  0  0  0  0  0  0  0  0  0  0  0
   34.3450   25.3450   30.6720 H   0  0  0  0  0  0  0  0  0  0  0  0
   35.6850   20.8760   33.1050 C   0  0  0  0  0  0  0  0  0  0  0  0
   36.0820   21.3030   31.8260 C   0  0  0  0  0  0  0  0  0  0  0  0
   36.2000   20.3530   30.8080 C   0  0  0  0  0  0  0  0  0  0  0  0
   35.9170   19.0590   31.1380 N   0  0  0  0  0  0  0  0  0  0  0  0
   35.5370   18.6860   32.3820 C   0  0  0  0  0  0  0  0  0  0  0  0
   35.4190   19.6080   33.3800 N   0  0  0  0  0  0  0  0  0  0  0  0
   35.5930   21.6160   33.8930 H   0  0  0  0  0  0  0  0  0  0  0  0
   36.5000   20.6880   29.8490 H   0  0  0  0  0  0  0  0  0  0  0  0
   35.3200   17.6440   32.6010 H   0  0  0  0  0  0  0  0  0  0  0  0
   38.8160   25.4550   31.7650 C   0  0  0  0  0  0  0  0  0  0  0  0
   39.6710   25.7540   30.9100 O   0  0  0  0  0  0  0  0  0  0  0  0
   39.3540   25.8700   33.0000 O   0  0  0  0  0  0  0  0  0  0  0  0
   38.6240   26.1560   34.1310 C   0  0  0  0  0  3  0  0  0  0  0  0
   39.2490   27.1900   35.0360 C   0  0  0  0  0  2  0  0  0  0  0  0
   38.4410   26.9730   36.3090 C   0  0  0  0  0  2  0  0  0  0  0  0
   38.1920   25.4670   36.3440 C   0  0  0  0  0  2  0  0  0  0  0  0
   38.5890   24.9260   35.0110 C   0  0  0  0  0  2  0  0  0  0  0  0
  2  1  1  0  0  0  0
  3  2  1  0  0  0  0
  3 12  1  0  0  0  0
  4  3  2  0  0  0  0
  5  6  2  0  0  0  0
  5  4  1  0  0  0  0
  6  8  1  0  0  0  0
  7  6  1  0  0  0  0
  8 20  1  0  0  0  0
  8  2  2  0  0  0  0
  9  4  1  0  0  0  0
 10  5  1  0  0  0  0
 11 16  1  0  0  0  0
 11 17  1  0  0  0  0
 12 11  2  0  0  0  0
 13 14  2  0  0  0  0
 13 12  1  0  0  0  0
 14 15  1  0  0  0  0
 15 19  1  0  0  0  0
 15 16  2  0  0  0  0
 18 13  1  0  0  0  0
 20 22  1  0  0  0  0
 21 20  2  0  0  0  0
 22 23  1  0  0  0  0
 23 27  1  0  0  0  0
 23 24  1  0  0  0  0
 24 25  1  0  0  0  0
 25 26  1  0  0  0  0
 27 26  1  0  0  0  0
M  END
>  <minimizedAffinity>
-5.19528818

$$$$

 OpenBabel03272508173D

 27 29  0  0  0  0  0  0  0  0999 V2000
   36.2970   28.9940   34.8530 Cl  0  0  0  0  0  0  0  0  0  0  0  0
   36.5530   27.8350   33.6020 C   0  0  0  0  0  0  0  0  0  0  0  0
   35.8710   28.1330   32.4560 C   0  0  0  0  0  0  0  0  0  0  0  0
   36.0030   27.2510   31.3530 C   0  0  0  0  0  0  0  0  0  0  0  0
   36.7870   26.1350   31.4270 C   0  0  0  0  0  0  0  0  0  0  0  0
   37.4580   25.8650   32.5910 C   0  0  0  0  0  0  0  0  0  0  0  0
   38.4640   24.4580   32.7290 Cl  0  0  0  0  0  0  0  0  0  0  0  0
   37.3360   26.7040   33.6520 C   0  0  0  0  0  0  0  0  0  0  0  0
   35.5050   27.3990   30.4050 H   0  0  0  0  0  0  0  0  0  0  0  0
   36.9080   25.4410   30.6020 H   0  0  0  0  0  0  0  0  0  0  0  0
   35.4820   30.2840   31.3240 C   0  0  0  0  0  0  0  0  0  0  0  0
   34.9790   29.2600   32.1450 C   0  0  0  0  0  0  0  0  0  0  0  0
   33.6690   29.3640   32.6200 C   0  0  0  0  0  0  0  0  0  0  0  0
   32.9640   30.4710   32.2450 N   0  0  0  0  0  0  0  0  0  0  0  0
   33.4830   31.4370   31.4510 C   0  0  0  0  0  0  0  0  0  0  0  0
   34.7610   31.3420   30.9840 N   0  0  0  0  0  0  0  0  0  0  0  0
   36.4990   30.2000   30.9560 H   0  0  0  0  0  0  0  0  0  0  0  0
   33.3010   28.5860   33.2380 H   0  0  0  0  0  0  0  0  0  0  0  0
   32.8870   32.3020   31.1760 H   0  0  0  0  0  0  0  0  0  0  0  0
   38.0200   26.4970   34.9430 C   0  0  0  0  0  0  0  0  0  0  0  0
   39.0160   27.0970   35.3910 O   0  0  0  0  0  0  0  0  0  0  0  0
   37.6660   25.5600   35.9340 O   0  0  0  0  0  0  0  0  0  0  0  0
   38.5510   24.8710   36.7320 C   0  0  0  0  0  3  0  0  0  0  0  0
   39.0120   23.5510   36.1630 C   0  0  0  0  0  2  0  0  0  0  0  0
   39.6140   22.9050   37.4050 C   0  0  0  0  0  2  0  0  0  0  0  0
   38.7130   23.3730   38.5460 C   0  0  0  0  0  2  0  0  0  0  0  0
   37.8390   24.4530   37.9990 C   0  0  0  0  0  2  0  0  0  0  0  0
  2  8  1  0  0  0  0
  2  1  1  0  0  0  0
  3  2  2  0  0  0  0
  4  5  2  0  0  0  0
  4  3  1  0  0  0  0
  5  6  1  0  0  0  0
  6  7  1  0  0  0  0
  6  8  2  0  0  0  0
  8 20  1  0  0  0  0
  9  4  1  0  0  0  0
 10  5  1  0  0  0  0
 11 12  1  0  0  0  0
 12  3  1  0  0  0  0
 12 13  2  0  0  0  0
 13 18  1  0  0  0  0
 14 13  1  0  0  0  0
 15 14  2  0  0  0  0
 16 11  2  0  0  0  0
 16 15  1  0  0  0  0
 17 11  1  0  0  0  0
 19 15  1  0  0  0  0
 20 21  2  0  0  0  0
 20 22  1  0  0  0  0
 22 23  1  0  0  0  0
 23 27  1  0  0  0  0
 24 23  1  0  0  0  0
 24 25  1  0  0  0  0
 25 26  1  0  0  0  0
 27 26  1  0  0  0  0
M  END
>  <minimizedAffinity>
-5.19402599

$$$$

 OpenBabel03272508173D

 27 29  0  0  0  0  0  0  0  0999 V2000
   37.0810   25.0230   31.5730 Cl  0  0  0  0  0  0  0  0  0  0  0  0
   37.4820   25.4960   33.1830 C   0  0  0  0  0  0  0  0  0  0  0  0
   37.2970   26.8300   33.4050 C   0  0  0  0  0  0  0  0  0  0  0  0
   37.5940   27.3390   34.6960 C   0  0  0  0  0  0  0  0  0  0  0  0
   38.0510   26.5250   35.6920 C   0  0  0  0  0  0  0  0  0  0  0  0
   38.2250   25.1900   35.4360 C   0  0  0  0  0  0  0  0  0  0  0  0
   38.8040   24.1180   36.6720 Cl  0  0  0  0  0  0  0  0  0  0  0  0
   37.9440   24.6940   34.2040 C   0  0  0  0  0  0  0  0  0  0  0  0
   37.4810   28.3780   34.9700 H   0  0  0  0  0  0  0  0  0  0  0  0
   38.2860   26.8830   36.6880 H   0  0  0  0  0  0  0  0  0  0  0  0
   37.6900   28.3100   31.4770 C   0  0  0  0  0  0  0  0  0  0  0  0
   36.8230   27.8890   32.5010 C   0  0  0  0  0  0  0  0  0  0  0  0
   35.5670   28.4910   32.6060 C   0  0  0  0  0  0  0  0  0  0  0  0
   35.2710   29.4620   31.6920 N   0  0  0  0  0  0  0  0  0  0  0  0
   36.1320   29.8400   30.7200 C   0  0  0  0  0  0  0  0  0  0  0  0
   37.3610   29.2560   30.6110 N   0  0  0  0  0  0  0  0  0  0  0  0
   38.6650   27.8400   31.3980 H   0  0  0  0  0  0  0  0  0  0  0  0
   34.9230   28.1660   33.3810 H   0  0  0  0  0  0  0  0  0  0  0  0
   35.8560   30.6170   30.0120 H   0  0  0  0  0  0  0  0  0  0  0  0
   38.0990   23.2730   33.8360 C   0  0  0  0  0  0  0  0  0  0  0  0
   39.0540   22.7320   33.2450 O   0  0  0  0  0  0  0  0  0  0  0  0
   37.1760   22.2390   34.0900 O   0  0  0  0  0  0  0  0  0  0  0  0
   36.7050   21.3450   33.1570 C   0  0  0  0  0  3  0  0  0  0  0  0
   35.7890   21.9460   32.1180 C   0  0  0  0  0  2  0  0  0  0  0  0
   35.1630   20.6860   31.5340 C   0  0  0  0  0  2  0  0  0  0  0  0
   35.0270   19.7450   32.7290 C   0  0  0  0  0  2  0  0  0  0  0  0
   35.8060   20.3460   33.8510 C   0  0  0  0  0  2  0  0  0  0  0  0
  1  2  1  0  0  0  0
  2  3  2  0  0  0  0
  2  8  1  0  0  0  0
  3  4  1  0  0  0  0
  4  9  1  0  0  0  0
  4  5  2  0  0  0  0
  5 10  1  0  0  0  0
  6  5  1  0  0  0  0
  6  7  1  0  0  0  0
  8  6  2  0  0  0  0
 11 12  1  0  0  0  0
 12 13  2  0  0  0  0
 12  3  1  0  0  0  0
 13 18  1  0  0  0  0
 14 13  1  0  0  0  0
 15 14  2  0  0  0  0
 16 15  1  0  0  0  0
 16 11  2  0  0  0  0
 17 11  1  0  0  0  0
 19 15  1  0  0  0  0
 20 22  1  0  0  0  0
 20  8  1  0  0  0  0
 21 20  2  0  0  0  0
 23 27  1  0  0  0  0
 23 22  1  0  0  0  0
 24 23  1  0  0  0  0
 25 24  1  0  0  0  0
 25 26  1  0  0  0  0
 26 27  1  0  0  0  0
M  END
>  <minimizedAffinity>
-5.18048429

$$$$

 OpenBabel03272508173D

 27 29  0  0  0  0  0  0  0  0999 V2000
   36.3490   27.8510   34.8110 Cl  0  0  0  0  0  0  0  0  0  0  0  0
   36.2200   28.7370   33.3370 C   0  0  0  0  0  0  0  0  0  0  0  0
   35.6430   29.9630   33.5030 C   0  0  0  0  0  0  0  0  0  0  0  0
   35.4820   30.7870   32.3600 C   0  0  0  0  0  0  0  0  0  0  0  0
   35.8910   30.3730   31.1240 C   0  0  0  0  0  0  0  0  0  0  0  0
   36.4660   29.1360   30.9900 C   0  0  0  0  0  0  0  0  0  0  0  0
   36.9990   28.5690   29.4400 Cl  0  0  0  0  0  0  0  0  0  0  0  0
   36.6230   28.3420   32.0810 C   0  0  0  0  0  0  0  0  0  0  0  0
   35.0380   31.7720   32.3890 H   0  0  0  0  0  0  0  0  0  0  0  0
   35.7820   30.9780   30.2310 H   0  0  0  0  0  0  0  0  0  0  0  0
   33.7650   30.4640   35.0150 C   0  0  0  0  0  0  0  0  0  0  0  0
   35.1300   30.6170   34.7180 C   0  0  0  0  0  0  0  0  0  0  0  0
   35.9250   31.3740   35.5830 C   0  0  0  0  0  0  0  0  0  0  0  0
   35.3040   31.9190   36.6700 N   0  0  0  0  0  0  0  0  0  0  0  0
   33.9860   31.7500   36.9230 C   0  0  0  0  0  0  0  0  0  0  0  0
   33.2040   31.0110   36.0830 N   0  0  0  0  0  0  0  0  0  0  0  0
   33.1510   29.8750   34.3420 H   0  0  0  0  0  0  0  0  0  0  0  0
   36.9520   31.4820   35.3480 H   0  0  0  0  0  0  0  0  0  0  0  0
   33.5320   32.2010   37.8000 H   0  0  0  0  0  0  0  0  0  0  0  0
   37.2320   26.9980   32.0350 C   0  0  0  0  0  0  0  0  0  0  0  0
   36.6570   25.8930   32.0470 O   0  0  0  0  0  0  0  0  0  0  0  0
   38.6090   26.7070   31.9660 O   0  0  0  0  0  0  0  0  0  0  0  0
   39.5670   27.1740   32.8370 C   0  0  0  0  0  3  0  0  0  0  0  0
   40.9880   26.9910   32.3640 C   0  0  0  0  0  2  0  0  0  0  0  0
   41.7490   27.2220   33.6640 C   0  0  0  0  0  2  0  0  0  0  0  0
   40.8460   26.6200   34.7390 C   0  0  0  0  0  2  0  0  0  0  0  0
   39.5280   26.3380   34.0960 C   0  0  0  0  0  2  0  0  0  0  0  0
  2  3  1  0  0  0  0
  2  1  1  0  0  0  0
  3 12  1  0  0  0  0
  4  9  1  0  0  0  0
  4  3  2  0  0  0  0
  5  4  1  0  0  0  0
  6  5  2  0  0  0  0
  6  8  1  0  0  0  0
  7  6  1  0  0  0  0
  8  2  2  0  0  0  0
 10  5  1  0  0  0  0
 11 16  1  0  0  0  0
 12 11  2  0  0  0  0
 12 13  1  0  0  0  0
 13 14  2  0  0  0  0
 14 15  1  0  0  0  0
 15 19  1  0  0  0  0
 16 15  2  0  0  0  0
 17 11  1  0  0  0  0
 18 13  1  0  0  0  0
 20 21  2  0  0  0  0
 20  8  1  0  0  0  0
 22 20  1  0  0  0  0
 22 23  1  0  0  0  0
 23 27  1  0  0  0  0
 24 23  1  0  0  0  0
 24 25  1  0  0  0  0
 25 26  1  0  0  0  0
 27 26  1  0  0  0  0
M  END
>  <minimizedAffinity>
-5.11640882

$$$$

 OpenBabel03272508173D

 27 29  0  0  0  0  0  0  0  0999 V2000
   38.8490   22.0810   33.1760 Cl  0  0  0  0  0  0  0  0  0  0  0  0
   38.1950   23.6640   33.3770 C   0  0  0  0  0  0  0  0  0  0  0  0
   38.5220   24.2250   34.5780 C   0  0  0  0  0  0  0  0  0  0  0  0
   38.0410   25.5300   34.8590 C   0  0  0  0  0  0  0  0  0  0  0  0
   37.2720   26.2110   33.9600 C   0  0  0  0  0  0  0  0  0  0  0  0
   36.9610   25.6200   32.7630 C   0  0  0  0  0  0  0  0  0  0  0  0
   35.9870   26.4490   31.5910 Cl  0  0  0  0  0  0  0  0  0  0  0  0
   37.4180   24.3710   32.4870 C   0  0  0  0  0  0  0  0  0  0  0  0
   38.2460   26.0580   35.7800 H   0  0  0  0  0  0  0  0  0  0  0  0
   36.8890   27.2080   34.1450 H   0  0  0  0  0  0  0  0  0  0  0  0
   38.6580   23.3910   36.8910 C   0  0  0  0  0  0  0  0  0  0  0  0
   39.3250   23.6920   35.6900 C   0  0  0  0  0  0  0  0  0  0  0  0
   40.7020   23.4720   35.6150 C   0  0  0  0  0  0  0  0  0  0  0  0
   41.3090   22.9740   36.7320 N   0  0  0  0  0  0  0  0  0  0  0  0
   40.6330   22.6950   37.8700 C   0  0  0  0  0  0  0  0  0  0  0  0
   39.2870   22.9070   37.9510 N   0  0  0  0  0  0  0  0  0  0  0  0
   37.5880   23.5620   36.9460 H   0  0  0  0  0  0  0  0  0  0  0  0
   41.1940   23.7040   34.7050 H   0  0  0  0  0  0  0  0  0  0  0  0
   41.1540   22.2990   38.7370 H   0  0  0  0  0  0  0  0  0  0  0  0
   37.1360   23.6560   31.2270 C   0  0  0  0  0  0  0  0  0  0  0  0
   37.7090   23.7820   30.1270 O   0  0  0  0  0  0  0  0  0  0  0  0
   36.1450   22.6740   31.0270 O   0  0  0  0  0  0  0  0  0  0  0  0
   36.1920   21.3860   31.5090 C   0  0  0  0  0  3  0  0  0  0  0  0
   36.3510   20.3240   30.4480 C   0  0  0  0  0  2  0  0  0  0  0  0
   35.9700   19.0790   31.2380 C   0  0  0  0  0  2  0  0  0  0  0  0
   34.8680   19.5540   32.1810 C   0  0  0  0  0  2  0  0  0  0  0  0
   34.8490   21.0460   32.1170 C   0  0  0  0  0  2  0  0  0  0  0  0
  1  2  1  0  0  0  0
  2  3  1  0  0  0  0
  3  4  2  0  0  0  0
  3 12  1  0  0  0  0
  4  9  1  0  0  0  0
  5 10  1  0  0  0  0
  5  4  1  0  0  0  0
  6  5  2  0  0  0  0
  7  6  1  0  0  0  0
  8  6  1  0  0  0  0
  8  2  2  0  0  0  0
 11 17  1  0  0  0  0
 11 16  1  0  0  0  0
 12 11  2  0  0  0  0
 13 12  1  0  0  0  0
 13 14  2  0  0  0  0
 14 15  1  0  0  0  0
 15 16  2  0  0  0  0
 15 19  1  0  0  0  0
 18 13  1  0  0  0  0
 20  8  1  0  0  0  0
 21 20  2  0  0  0  0
 22 20  1  0  0  0  0
 22 23  1  0  0  0  0
 23 27  1  0  0  0  0
 24 25  1  0  0  0  0
 24 23  1  0  0  0  0
 25 26  1  0  0  0  0
 27 26  1  0  0  0  0
M  END
>  <minimizedAffinity>
-5.11548519

$$$$
