
 OpenBabel03272500203D

 30 32  0  0  0  0  0  0  0  0999 V2000
   37.7060   25.8170   33.4250 C   0  0  0  0  0  0  0  0  0  0  0  0
   38.2880   25.6350   34.6930 C   0  0  0  0  0  0  0  0  0  0  0  0
   38.5810   24.3440   35.1020 C   0  0  0  0  0  0  0  0  0  0  0  0
   38.3020   23.3020   34.2780 N   0  0  0  0  0  0  0  0  0  0  0  0
   37.7490   23.4990   33.0780 C   0  0  0  0  0  0  0  0  0  0  0  0
   37.4490   24.7380   32.6430 N   0  0  0  0  0  0  0  0  0  0  0  0
   37.4740   26.8220   33.0960 H   0  0  0  0  0  0  0  0  0  0  0  0
   35.7050   21.5440   34.1410 Cl  0  0  0  0  0  0  0  0  0  0  0  0
   36.5460   21.3720   32.6130 C   0  0  0  0  0  0  0  0  0  0  0  0
   37.4680   22.3360   32.2260 C   0  0  0  0  0  0  0  0  0  0  0  0
   38.1710   22.2490   31.0130 C   0  0  0  0  0  0  0  0  0  0  0  0
   37.8910   21.1400   30.2170 C   0  0  0  0  0  0  0  0  0  0  0  0
   36.9890   20.1780   30.5750 C   0  0  0  0  0  0  0  0  0  0  0  0
   36.7290   18.8350   29.4890 Cl  0  0  0  0  0  0  0  0  0  0  0  0
   36.3210   20.3060   31.7800 C   0  0  0  0  0  0  0  0  0  0  0  0
   38.8800   22.9850   30.7090 H   0  0  0  0  0  0  0  0  0  0  0  0
   38.4260   21.0580   29.2780 H   0  0  0  0  0  0  0  0  0  0  0  0
   35.3340   19.2700   32.1900 C   0  0  0  0  0  0  0  0  0  0  0  0
   34.0340   19.7220   31.9560 F   0  0  0  0  0  0  0  0  0  0  0  0
   35.4760   18.9100   33.5040 F   0  0  0  0  0  0  0  0  0  0  0  0
   35.5010   18.1350   31.4290 F   0  0  0  0  0  0  0  0  0  0  0  0
   39.1670   24.0390   36.3940 C   0  0  0  0  0  3  0  0  0  0  0  0
   38.2340   23.4800   37.4300 C   0  0  0  0  0  2  0  0  0  0  0  0
   39.2580   23.1160   38.5160 C   0  0  0  0  0  2  0  0  0  0  0  0
   40.4320   22.5630   37.7080 C   0  0  0  0  0  2  0  0  0  0  0  0
   40.1370   22.8570   36.2550 C   0  0  0  0  0  2  0  0  0  0  0  0
   38.5770   26.8200   35.5410 C   0  0  0  0  0  0  0  0  0  0  0  0
   39.9360   27.1190   35.5720 F   0  0  0  0  0  0  0  0  0  0  0  0
   37.9050   27.9180   35.0250 F   0  0  0  0  0  0  0  0  0  0  0  0
   38.1470   26.6560   36.8450 F   0  0  0  0  0  0  0  0  0  0  0  0
  1  2  1  0  0  0  0
  2  3  2  0  0  0  0
  2 27  1  0  0  0  0
  3 22  1  0  0  0  0
  4  3  1  0  0  0  0
  5  4  2  0  0  0  0
  6  5  1  0  0  0  0
  6  1  2  0  0  0  0
  7  1  1  0  0  0  0
  9  8  1  0  0  0  0
 10  9  1  0  0  0  0
 10  5  1  0  0  0  0
 11 10  2  0  0  0  0
 12 13  2  0  0  0  0
 12 11  1  0  0  0  0
 13 15  1  0  0  0  0
 14 13  1  0  0  0  0
 15 18  1  0  0  0  0
 15  9  2  0  0  0  0
 16 11  1  0  0  0  0
 17 12  1  0  0  0  0
 18 20  1  0  0  0  0
 19 18  1  0  0  0  0
 21 18  1  0  0  0  0
 22 23  1  0  0  0  0
 23 24  1  0  0  0  0
 25 24  1  0  0  0  0
 26 22  1  0  0  0  0
 26 25  1  0  0  0  0
 27 28  1  0  0  0  0
 27 30  1  0  0  0  0
 29 27  1  0  0  0  0
M  END
>  <minimizedAffinity>
-6.625669

$$$$

 OpenBabel03272500203D

 30 32  0  0  0  0  0  0  0  0999 V2000
   37.5070   26.0540   33.4730 C   0  0  0  0  0  0  0  0  0  0  0  0
   38.0600   25.8440   34.7500 C   0  0  0  0  0  0  0  0  0  0  0  0
   38.3570   24.5450   35.1320 C   0  0  0  0  0  0  0  0  0  0  0  0
   38.1100   23.5240   34.2730 N   0  0  0  0  0  0  0  0  0  0  0  0
   37.5850   23.7470   33.0660 C   0  0  0  0  0  0  0  0  0  0  0  0
   37.2810   24.9930   32.6570 N   0  0  0  0  0  0  0  0  0  0  0  0
   37.2720   27.0650   33.1650 H   0  0  0  0  0  0  0  0  0  0  0  0
   39.8360   23.0190   31.1860 Cl  0  0  0  0  0  0  0  0  0  0  0  0
   38.3010   22.1790   31.2720 C   0  0  0  0  0  0  0  0  0  0  0  0
   37.3370   22.6030   32.1770 C   0  0  0  0  0  0  0  0  0  0  0  0
   36.0890   21.9680   32.2900 C   0  0  0  0  0  0  0  0  0  0  0  0
   35.8720   20.8850   31.4400 C   0  0  0  0  0  0  0  0  0  0  0  0
   36.8030   20.4480   30.5400 C   0  0  0  0  0  0  0  0  0  0  0  0
   36.4070   19.0780   29.5320 Cl  0  0  0  0  0  0  0  0  0  0  0  0
   38.0180   21.1060   30.4660 C   0  0  0  0  0  0  0  0  0  0  0  0
   35.3450   22.2880   32.9820 H   0  0  0  0  0  0  0  0  0  0  0  0
   34.9130   20.3840   31.5140 H   0  0  0  0  0  0  0  0  0  0  0  0
   39.0460   20.6460   29.4940 C   0  0  0  0  0  0  0  0  0  0  0  0
   40.1120   20.0440   30.1660 F   0  0  0  0  0  0  0  0  0  0  0  0
   39.5070   21.6680   28.7050 F   0  0  0  0  0  0  0  0  0  0  0  0
   38.5120   19.6880   28.6610 F   0  0  0  0  0  0  0  0  0  0  0  0
   38.9150   24.2120   36.4290 C   0  0  0  0  0  3  0  0  0  0  0  0
   37.9680   23.5980   37.4200 C   0  0  0  0  0  2  0  0  0  0  0  0
   38.9700   23.2230   38.5220 C   0  0  0  0  0  2  0  0  0  0  0  0
   40.1780   22.7240   37.7310 C   0  0  0  0  0  2  0  0  0  0  0  0
   39.9160   23.0580   36.2790 C   0  0  0  0  0  2  0  0  0  0  0  0
   38.3150   27.0090   35.6360 C   0  0  0  0  0  0  0  0  0  0  0  0
   39.6480   27.4060   35.6030 F   0  0  0  0  0  0  0  0  0  0  0  0
   37.5360   28.0760   35.2130 F   0  0  0  0  0  0  0  0  0  0  0  0
   37.9770   26.7570   36.9540 F   0  0  0  0  0  0  0  0  0  0  0  0
  1  2  1  0  0  0  0
  2  3  2  0  0  0  0
  2 27  1  0  0  0  0
  3 22  1  0  0  0  0
  4  3  1  0  0  0  0
  5  4  2  0  0  0  0
  6  5  1  0  0  0  0
  6  1  2  0  0  0  0
  7  1  1  0  0  0  0
  8  9  1  0  0  0  0
  9 10  1  0  0  0  0
 10 11  2  0  0  0  0
 10  5  1  0  0  0  0
 11 16  1  0  0  0  0
 12 17  1  0  0  0  0
 12 11  1  0  0  0  0
 13 12  2  0  0  0  0
 14 13  1  0  0  0  0
 15 13  1  0  0  0  0
 15  9  2  0  0  0  0
 18 19  1  0  0  0  0
 18 15  1  0  0  0  0
 20 18  1  0  0  0  0
 21 18  1  0  0  0  0
 22 23  1  0  0  0  0
 23 24  1  0  0  0  0
 25 24  1  0  0  0  0
 26 22  1  0  0  0  0
 26 25  1  0  0  0  0
 27 30  1  0  0  0  0
 28 27  1  0  0  0  0
 29 27  1  0  0  0  0
M  END
>  <minimizedAffinity>
-6.23863745

$$$$

 OpenBabel03272500203D

 30 32  0  0  0  0  0  0  0  0999 V2000
   36.2790   30.5210   31.2770 C   0  0  0  0  0  0  0  0  0  0  0  0
   36.7140   29.2130   30.9900 C   0  0  0  0  0  0  0  0  0  0  0  0
   36.0690   28.1560   31.6120 C   0  0  0  0  0  0  0  0  0  0  0  0
   35.0490   28.4070   32.4700 N   0  0  0  0  0  0  0  0  0  0  0  0
   34.6540   29.6560   32.7280 C   0  0  0  0  0  0  0  0  0  0  0  0
   35.2540   30.7120   32.1450 N   0  0  0  0  0  0  0  0  0  0  0  0
   36.7760   31.3540   30.7960 H   0  0  0  0  0  0  0  0  0  0  0  0
   35.3790   30.9440   35.3630 Cl  0  0  0  0  0  0  0  0  0  0  0  0
   33.7590   30.4550   34.9070 C   0  0  0  0  0  0  0  0  0  0  0  0
   33.5440   29.8710   33.6660 C   0  0  0  0  0  0  0  0  0  0  0  0
   32.2670   29.4590   33.2480 C   0  0  0  0  0  0  0  0  0  0  0  0
   31.2270   29.6710   34.1490 C   0  0  0  0  0  0  0  0  0  0  0  0
   31.4120   30.2430   35.3770 C   0  0  0  0  0  0  0  0  0  0  0  0
   30.0230   30.4530   36.4160 Cl  0  0  0  0  0  0  0  0  0  0  0  0
   32.6880   30.6330   35.7450 C   0  0  0  0  0  0  0  0  0  0  0  0
   32.0940   29.0100   32.2970 H   0  0  0  0  0  0  0  0  0  0  0  0
   30.2350   29.3590   33.8420 H   0  0  0  0  0  0  0  0  0  0  0  0
   32.9120   31.2580   37.0760 C   0  0  0  0  0  0  0  0  0  0  0  0
   32.1240   32.4020   37.2110 F   0  0  0  0  0  0  0  0  0  0  0  0
   34.2300   31.5680   37.2880 F   0  0  0  0  0  0  0  0  0  0  0  0
   32.5250   30.3910   38.0740 F   0  0  0  0  0  0  0  0  0  0  0  0
   36.4430   26.7700   31.4010 C   0  0  0  0  0  3  0  0  0  0  0  0
   36.9240   26.0210   32.6120 C   0  0  0  0  0  2  0  0  0  0  0  0
   37.0020   24.6070   32.0160 C   0  0  0  0  0  2  0  0  0  0  0  0
   35.7610   24.5420   31.1270 C   0  0  0  0  0  2  0  0  0  0  0  0
   35.1950   25.9430   31.0650 C   0  0  0  0  0  2  0  0  0  0  0  0
   37.8300   29.0080   30.0320 C   0  0  0  0  0  0  0  0  0  0  0  0
   37.3990   28.4180   28.8480 F   0  0  0  0  0  0  0  0  0  0  0  0
   38.3890   30.2390   29.7210 F   0  0  0  0  0  0  0  0  0  0  0  0
   38.8420   28.2240   30.5560 F   0  0  0  0  0  0  0  0  0  0  0  0
  1  6  1  0  0  0  0
  2  1  2  0  0  0  0
  2  3  1  0  0  0  0
  3  4  2  0  0  0  0
  4  5  1  0  0  0  0
  5 10  1  0  0  0  0
  6  5  2  0  0  0  0
  7  1  1  0  0  0  0
  9  8  1  0  0  0  0
  9 15  1  0  0  0  0
 10  9  2  0  0  0  0
 11 10  1  0  0  0  0
 11 12  2  0  0  0  0
 12 13  1  0  0  0  0
 13 15  2  0  0  0  0
 13 14  1  0  0  0  0
 15 18  1  0  0  0  0
 16 11  1  0  0  0  0
 17 12  1  0  0  0  0
 18 19  1  0  0  0  0
 18 20  1  0  0  0  0
 18 21  1  0  0  0  0
 22  3  1  0  0  0  0
 22 23  1  0  0  0  0
 24 23  1  0  0  0  0
 25 24  1  0  0  0  0
 26 25  1  0  0  0  0
 26 22  1  0  0  0  0
 27 30  1  0  0  0  0
 27  2  1  0  0  0  0
 28 27  1  0  0  0  0
 29 27  1  0  0  0  0
M  END
>  <minimizedAffinity>
-6.12046766

$$$$

 OpenBabel03272500203D

 30 32  0  0  0  0  0  0  0  0999 V2000
   36.4220   29.1730   30.9840 C   0  0  0  0  0  0  0  0  0  0  0  0
   37.3550   28.2700   31.5260 C   0  0  0  0  0  0  0  0  0  0  0  0
   37.1910   27.8660   32.8410 C   0  0  0  0  0  0  0  0  0  0  0  0
   36.1470   28.3480   33.5630 N   0  0  0  0  0  0  0  0  0  0  0  0
   35.2740   29.2050   33.0280 C   0  0  0  0  0  0  0  0  0  0  0  0
   35.3980   29.6220   31.7530 N   0  0  0  0  0  0  0  0  0  0  0  0
   36.5410   29.4940   29.9570 H   0  0  0  0  0  0  0  0  0  0  0  0
   36.0450   30.8630   35.4340 Cl  0  0  0  0  0  0  0  0  0  0  0  0
   34.3980   30.4670   34.9850 C   0  0  0  0  0  0  0  0  0  0  0  0
   34.1630   29.6960   33.8540 C   0  0  0  0  0  0  0  0  0  0  0  0
   32.8640   29.3480   33.4470 C   0  0  0  0  0  0  0  0  0  0  0  0
   31.8220   29.8230   34.2410 C   0  0  0  0  0  0  0  0  0  0  0  0
   32.0270   30.5830   35.3580 C   0  0  0  0  0  0  0  0  0  0  0  0
   30.6350   31.1160   36.2700 Cl  0  0  0  0  0  0  0  0  0  0  0  0
   33.3250   30.9000   35.7200 C   0  0  0  0  0  0  0  0  0  0  0  0
   32.6750   28.7560   32.5810 H   0  0  0  0  0  0  0  0  0  0  0  0
   30.8140   29.5630   33.9410 H   0  0  0  0  0  0  0  0  0  0  0  0
   33.5710   31.7270   36.9320 C   0  0  0  0  0  0  0  0  0  0  0  0
   33.0220   33.0000   36.7680 F   0  0  0  0  0  0  0  0  0  0  0  0
   34.9040   31.8260   37.2300 F   0  0  0  0  0  0  0  0  0  0  0  0
   32.9430   31.1640   38.0210 F   0  0  0  0  0  0  0  0  0  0  0  0
   38.1000   26.9510   33.5060 C   0  0  0  0  0  3  0  0  0  0  0  0
   38.3380   27.1970   34.9680 C   0  0  0  0  0  2  0  0  0  0  0  0
   39.1470   25.9350   35.3040 C   0  0  0  0  0  2  0  0  0  0  0  0
   38.4420   24.8500   34.4920 C   0  0  0  0  0  2  0  0  0  0  0  0
   37.4650   25.5550   33.5790 C   0  0  0  0  0  2  0  0  0  0  0  0
   38.4680   27.7720   30.6770 C   0  0  0  0  0  0  0  0  0  0  0  0
   38.3040   26.4340   30.3340 F   0  0  0  0  0  0  0  0  0  0  0  0
   38.5100   28.5160   29.5070 F   0  0  0  0  0  0  0  0  0  0  0  0
   39.7020   27.9080   31.2880 F   0  0  0  0  0  0  0  0  0  0  0  0
  1  2  2  0  0  0  0
  1  6  1  0  0  0  0
  2  3  1  0  0  0  0
  3 22  1  0  0  0  0
  3  4  2  0  0  0  0
  5  4  1  0  0  0  0
  5 10  1  0  0  0  0
  6  5  2  0  0  0  0
  7  1  1  0  0  0  0
  9  8  1  0  0  0  0
  9 15  1  0  0  0  0
 10  9  2  0  0  0  0
 11 10  1  0  0  0  0
 11 12  2  0  0  0  0
 12 13  1  0  0  0  0
 13 15  2  0  0  0  0
 13 14  1  0  0  0  0
 15 18  1  0  0  0  0
 16 11  1  0  0  0  0
 17 12  1  0  0  0  0
 18 20  1  0  0  0  0
 18 21  1  0  0  0  0
 19 18  1  0  0  0  0
 22 26  1  0  0  0  0
 22 23  1  0  0  0  0
 23 24  1  0  0  0  0
 25 24  1  0  0  0  0
 26 25  1  0  0  0  0
 27 30  1  0  0  0  0
 27  2  1  0  0  0  0
 28 27  1  0  0  0  0
 29 27  1  0  0  0  0
M  END
>  <minimizedAffinity>
-6.10319281

$$$$

 OpenBabel03272500203D

 30 32  0  0  0  0  0  0  0  0999 V2000
   35.5220   26.3050   30.9010 C   0  0  0  0  0  0  0  0  0  0  0  0
   36.2900   26.9780   31.8700 C   0  0  0  0  0  0  0  0  0  0  0  0
   37.0390   26.2210   32.7570 C   0  0  0  0  0  0  0  0  0  0  0  0
   37.0110   24.8670   32.6680 N   0  0  0  0  0  0  0  0  0  0  0  0
   36.2740   24.2500   31.7400 C   0  0  0  0  0  0  0  0  0  0  0  0
   35.5330   24.9490   30.8600 N   0  0  0  0  0  0  0  0  0  0  0  0
   34.9340   26.8880   30.2040 H   0  0  0  0  0  0  0  0  0  0  0  0
   38.5700   22.9870   30.2350 Cl  0  0  0  0  0  0  0  0  0  0  0  0
   37.2870   22.0930   31.0250 C   0  0  0  0  0  0  0  0  0  0  0  0
   36.2810   22.7820   31.6890 C   0  0  0  0  0  0  0  0  0  0  0  0
   35.2280   22.1170   32.3400 C   0  0  0  0  0  0  0  0  0  0  0  0
   35.2500   20.7250   32.2840 C   0  0  0  0  0  0  0  0  0  0  0  0
   36.2290   20.0240   31.6370 C   0  0  0  0  0  0  0  0  0  0  0  0
   36.1420   18.2790   31.6380 Cl  0  0  0  0  0  0  0  0  0  0  0  0
   37.2460   20.7220   31.0100 C   0  0  0  0  0  0  0  0  0  0  0  0
   34.4520   22.6390   32.8520 H   0  0  0  0  0  0  0  0  0  0  0  0
   34.4440   20.1970   32.7800 H   0  0  0  0  0  0  0  0  0  0  0  0
   38.3210   19.9780   30.3000 C   0  0  0  0  0  0  0  0  0  0  0  0
   38.2330   20.1980   28.9240 F   0  0  0  0  0  0  0  0  0  0  0  0
   38.2820   18.6340   30.5630 F   0  0  0  0  0  0  0  0  0  0  0  0
   39.5550   20.4430   30.6960 F   0  0  0  0  0  0  0  0  0  0  0  0
   37.8540   26.8080   33.8030 C   0  0  0  0  0  3  0  0  0  0  0  0
   37.4830   26.4470   35.2140 C   0  0  0  0  0  2  0  0  0  0  0  0
   38.6730   27.0770   35.9530 C   0  0  0  0  0  2  0  0  0  0  0  0
   39.8520   26.7640   35.0320 C   0  0  0  0  0  2  0  0  0  0  0  0
   39.2690   26.2150   33.7490 C   0  0  0  0  0  2  0  0  0  0  0  0
   36.2830   28.4630   31.9050 C   0  0  0  0  0  0  0  0  0  0  0  0
   37.5380   28.9960   31.6250 F   0  0  0  0  0  0  0  0  0  0  0  0
   35.3920   28.9330   30.9520 F   0  0  0  0  0  0  0  0  0  0  0  0
   35.8710   28.9630   33.1280 F   0  0  0  0  0  0  0  0  0  0  0  0
  1  2  1  0  0  0  0
  2 27  1  0  0  0  0
  2  3  2  0  0  0  0
  3 22  1  0  0  0  0
  4  3  1  0  0  0  0
  5  4  2  0  0  0  0
  6  1  2  0  0  0  0
  6  5  1  0  0  0  0
  7  1  1  0  0  0  0
  8  9  1  0  0  0  0
  9 10  1  0  0  0  0
 10  5  1  0  0  0  0
 10 11  2  0  0  0  0
 11 16  1  0  0  0  0
 12 11  1  0  0  0  0
 12 17  1  0  0  0  0
 13 14  1  0  0  0  0
 13 12  2  0  0  0  0
 15  9  2  0  0  0  0
 15 13  1  0  0  0  0
 18 20  1  0  0  0  0
 18 21  1  0  0  0  0
 18 15  1  0  0  0  0
 19 18  1  0  0  0  0
 22 23  1  0  0  0  0
 23 24  1  0  0  0  0
 25 24  1  0  0  0  0
 26 22  1  0  0  0  0
 26 25  1  0  0  0  0
 27 30  1  0  0  0  0
 28 27  1  0  0  0  0
 29 27  1  0  0  0  0
M  END
>  <minimizedAffinity>
-6.0280242

$$$$

 OpenBabel03272500203D

 30 32  0  0  0  0  0  0  0  0999 V2000
   37.4230   28.2220   31.6340 C   0  0  0  0  0  0  0  0  0  0  0  0
   36.4930   29.1930   32.0510 C   0  0  0  0  0  0  0  0  0  0  0  0
   36.0040   29.1210   33.3460 C   0  0  0  0  0  0  0  0  0  0  0  0
   36.4300   28.1270   34.1660 N   0  0  0  0  0  0  0  0  0  0  0  0
   37.3140   27.2170   33.7480 C   0  0  0  0  0  0  0  0  0  0  0  0
   37.8130   27.2510   32.4980 N   0  0  0  0  0  0  0  0  0  0  0  0
   37.8100   28.2700   30.6240 H   0  0  0  0  0  0  0  0  0  0  0  0
   37.2880   24.3990   32.6580 Cl  0  0  0  0  0  0  0  0  0  0  0  0
   37.7690   24.8310   34.2870 C   0  0  0  0  0  0  0  0  0  0  0  0
   37.7400   26.1620   34.6780 C   0  0  0  0  0  0  0  0  0  0  0  0
   38.1150   26.5670   35.9710 C   0  0  0  0  0  0  0  0  0  0  0  0
   38.5180   25.5550   36.8390 C   0  0  0  0  0  0  0  0  0  0  0  0
   38.5540   24.2370   36.4790 C   0  0  0  0  0  0  0  0  0  0  0  0
   39.0780   23.0640   37.6620 Cl  0  0  0  0  0  0  0  0  0  0  0  0
   38.1760   23.8870   35.1940 C   0  0  0  0  0  0  0  0  0  0  0  0
   38.0960   27.5870   36.2790 H   0  0  0  0  0  0  0  0  0  0  0  0
   38.8100   25.8500   37.8410 H   0  0  0  0  0  0  0  0  0  0  0  0
   38.2080   22.4580   34.7800 C   0  0  0  0  0  0  0  0  0  0  0  0
   37.9240   22.3440   33.4180 F   0  0  0  0  0  0  0  0  0  0  0  0
   37.3380   21.6890   35.5070 F   0  0  0  0  0  0  0  0  0  0  0  0
   39.4720   21.9430   34.9650 F   0  0  0  0  0  0  0  0  0  0  0  0
   35.0320   30.0580   33.8760 C   0  0  0  0  0  3  0  0  0  0  0  0
   33.8300   29.4580   34.5480 C   0  0  0  0  0  2  0  0  0  0  0  0
   33.2030   30.7370   35.1240 C   0  0  0  0  0  2  0  0  0  0  0  0
   34.4200   31.5320   35.5950 C   0  0  0  0  0  2  0  0  0  0  0  0
   35.6410   30.8160   35.0640 C   0  0  0  0  0  2  0  0  0  0  0  0
   36.0760   30.2600   31.1050 C   0  0  0  0  0  0  0  0  0  0  0  0
   36.5480   31.5110   31.4910 F   0  0  0  0  0  0  0  0  0  0  0  0
   36.5900   29.9740   29.8490 F   0  0  0  0  0  0  0  0  0  0  0  0
   34.7020   30.3440   30.9730 F   0  0  0  0  0  0  0  0  0  0  0  0
  1  2  2  0  0  0  0
  1  6  1  0  0  0  0
  2  3  1  0  0  0  0
  3 22  1  0  0  0  0
  3  4  2  0  0  0  0
  5  4  1  0  0  0  0
  5 10  1  0  0  0  0
  6  5  2  0  0  0  0
  7  1  1  0  0  0  0
  8  9  1  0  0  0  0
  9 10  2  0  0  0  0
  9 15  1  0  0  0  0
 10 11  1  0  0  0  0
 11 16  1  0  0  0  0
 11 12  2  0  0  0  0
 12 17  1  0  0  0  0
 13 12  1  0  0  0  0
 13 14  1  0  0  0  0
 15 13  2  0  0  0  0
 18 21  1  0  0  0  0
 18 15  1  0  0  0  0
 18 20  1  0  0  0  0
 19 18  1  0  0  0  0
 22 23  1  0  0  0  0
 22 26  1  0  0  0  0
 23 24  1  0  0  0  0
 24 25  1  0  0  0  0
 26 25  1  0  0  0  0
 27 28  1  0  0  0  0
 27  2  1  0  0  0  0
 29 27  1  0  0  0  0
 30 27  1  0  0  0  0
M  END
>  <minimizedAffinity>
-5.99031067

$$$$

 OpenBabel03272500203D

 30 32  0  0  0  0  0  0  0  0999 V2000
   36.2070   29.0710   31.6820 C   0  0  0  0  0  0  0  0  0  0  0  0
   36.9370   27.9560   32.1350 C   0  0  0  0  0  0  0  0  0  0  0  0
   37.0680   27.7680   33.5020 C   0  0  0  0  0  0  0  0  0  0  0  0
   36.4960   28.6540   34.3560 N   0  0  0  0  0  0  0  0  0  0  0  0
   35.8080   29.7060   33.9030 C   0  0  0  0  0  0  0  0  0  0  0  0
   35.6570   29.9240   32.5820 N   0  0  0  0  0  0  0  0  0  0  0  0
   36.0990   29.2260   30.6160 H   0  0  0  0  0  0  0  0  0  0  0  0
   32.8690   29.3040   34.4820 Cl  0  0  0  0  0  0  0  0  0  0  0  0
   33.8680   30.5440   35.2150 C   0  0  0  0  0  0  0  0  0  0  0  0
   35.2100   30.6340   34.8720 C   0  0  0  0  0  0  0  0  0  0  0  0
   36.0580   31.6070   35.4280 C   0  0  0  0  0  0  0  0  0  0  0  0
   35.4750   32.4780   36.3460 C   0  0  0  0  0  0  0  0  0  0  0  0
   34.1560   32.4100   36.7010 C   0  0  0  0  0  0  0  0  0  0  0  0
   33.5470   33.5630   37.8640 Cl  0  0  0  0  0  0  0  0  0  0  0  0
   33.3610   31.4340   36.1260 C   0  0  0  0  0  0  0  0  0  0  0  0
   37.0890   31.6830   35.1700 H   0  0  0  0  0  0  0  0  0  0  0  0
   36.1150   33.2350   36.7840 H   0  0  0  0  0  0  0  0  0  0  0  0
   31.9230   31.3430   36.4980 C   0  0  0  0  0  0  0  0  0  0  0  0
   31.7110   30.2500   37.3400 F   0  0  0  0  0  0  0  0  0  0  0  0
   31.1090   31.2540   35.4000 F   0  0  0  0  0  0  0  0  0  0  0  0
   31.5470   32.4640   37.2030 F   0  0  0  0  0  0  0  0  0  0  0  0
   37.8110   26.6640   34.0790 C   0  0  0  0  0  3  0  0  0  0  0  0
   39.2150   26.9660   34.5200 C   0  0  0  0  0  2  0  0  0  0  0  0
   39.5410   25.6450   35.2330 C   0  0  0  0  0  2  0  0  0  0  0  0
   38.2340   25.3090   35.9470 C   0  0  0  0  0  2  0  0  0  0  0  0
   37.1940   26.2770   35.4310 C   0  0  0  0  0  2  0  0  0  0  0  0
   37.5290   27.0190   31.1460 C   0  0  0  0  0  0  0  0  0  0  0  0
   37.0160   25.7320   31.2770 F   0  0  0  0  0  0  0  0  0  0  0  0
   37.2380   27.4700   29.8670 F   0  0  0  0  0  0  0  0  0  0  0  0
   38.9060   26.9420   31.2460 F   0  0  0  0  0  0  0  0  0  0  0  0
  1  2  2  0  0  0  0
  1  6  1  0  0  0  0
  2  3  1  0  0  0  0
  3 22  1  0  0  0  0
  3  4  2  0  0  0  0
  5  4  1  0  0  0  0
  5 10  1  0  0  0  0
  6  5  2  0  0  0  0
  7  1  1  0  0  0  0
  8  9  1  0  0  0  0
  9 15  1  0  0  0  0
 10  9  2  0  0  0  0
 10 11  1  0  0  0  0
 11 12  2  0  0  0  0
 12 13  1  0  0  0  0
 12 17  1  0  0  0  0
 13 14  1  0  0  0  0
 15 18  1  0  0  0  0
 15 13  2  0  0  0  0
 16 11  1  0  0  0  0
 18 21  1  0  0  0  0
 18 19  1  0  0  0  0
 20 18  1  0  0  0  0
 22 23  1  0  0  0  0
 22 26  1  0  0  0  0
 23 24  1  0  0  0  0
 24 25  1  0  0  0  0
 26 25  1  0  0  0  0
 27 30  1  0  0  0  0
 27 28  1  0  0  0  0
 27  2  1  0  0  0  0
 29 27  1  0  0  0  0
M  END
>  <minimizedAffinity>
-5.98389053

$$$$

 OpenBabel03272500203D

 30 32  0  0  0  0  0  0  0  0999 V2000
   35.5420   29.6850   31.8170 C   0  0  0  0  0  0  0  0  0  0  0  0
   34.9380   30.6130   32.6860 C   0  0  0  0  0  0  0  0  0  0  0  0
   35.0960   30.4340   34.0510 C   0  0  0  0  0  0  0  0  0  0  0  0
   35.8190   29.3800   34.5070 N   0  0  0  0  0  0  0  0  0  0  0  0
   36.3840   28.5120   33.6640 C   0  0  0  0  0  0  0  0  0  0  0  0
   36.2540   28.6500   32.3310 N   0  0  0  0  0  0  0  0  0  0  0  0
   35.4260   29.8170   30.7490 H   0  0  0  0  0  0  0  0  0  0  0  0
   36.2510   25.9270   32.1050 Cl  0  0  0  0  0  0  0  0  0  0  0  0
   37.1690   26.1530   33.5800 C   0  0  0  0  0  0  0  0  0  0  0  0
   37.1560   27.3890   34.2130 C   0  0  0  0  0  0  0  0  0  0  0  0
   37.8730   27.6280   35.3970 C   0  0  0  0  0  0  0  0  0  0  0  0
   38.6000   26.5520   35.9030 C   0  0  0  0  0  0  0  0  0  0  0  0
   38.6300   25.3260   35.3000 C   0  0  0  0  0  0  0  0  0  0  0  0
   39.5810   24.0590   36.0360 Cl  0  0  0  0  0  0  0  0  0  0  0  0
   37.9070   25.1390   34.1350 C   0  0  0  0  0  0  0  0  0  0  0  0
   37.8670   28.5730   35.8890 H   0  0  0  0  0  0  0  0  0  0  0  0
   39.1590   26.7200   36.8170 H   0  0  0  0  0  0  0  0  0  0  0  0
   37.9250   23.8120   33.4620 C   0  0  0  0  0  0  0  0  0  0  0  0
   39.2090   23.5270   32.9900 F   0  0  0  0  0  0  0  0  0  0  0  0
   37.0220   23.7390   32.4350 F   0  0  0  0  0  0  0  0  0  0  0  0
   37.6080   22.8220   34.3650 F   0  0  0  0  0  0  0  0  0  0  0  0
   34.5050   31.3190   35.0370 C   0  0  0  0  0  3  0  0  0  0  0  0
   33.3930   30.7420   35.8660 C   0  0  0  0  0  2  0  0  0  0  0  0
   33.2150   31.8870   36.8740 C   0  0  0  0  0  2  0  0  0  0  0  0
   34.6510   32.3270   37.1500 C   0  0  0  0  0  2  0  0  0  0  0  0
   35.5260   31.6140   36.1440 C   0  0  0  0  0  2  0  0  0  0  0  0
   34.1680   31.7500   32.1190 C   0  0  0  0  0  0  0  0  0  0  0  0
   34.1930   31.7540   30.7280 F   0  0  0  0  0  0  0  0  0  0  0  0
   32.8460   31.6470   32.5270 F   0  0  0  0  0  0  0  0  0  0  0  0
   34.6340   32.9770   32.5580 F   0  0  0  0  0  0  0  0  0  0  0  0
  1  6  2  0  0  0  0
  1  2  1  0  0  0  0
  2  3  2  0  0  0  0
  3  4  1  0  0  0  0
  3 22  1  0  0  0  0
  5 10  1  0  0  0  0
  5  4  2  0  0  0  0
  6  5  1  0  0  0  0
  7  1  1  0  0  0  0
  8  9  1  0  0  0  0
  9 15  2  0  0  0  0
  9 10  1  0  0  0  0
 10 11  2  0  0  0  0
 11 16  1  0  0  0  0
 11 12  1  0  0  0  0
 12 17  1  0  0  0  0
 13 12  2  0  0  0  0
 13 14  1  0  0  0  0
 15 13  1  0  0  0  0
 18 15  1  0  0  0  0
 18 21  1  0  0  0  0
 19 18  1  0  0  0  0
 20 18  1  0  0  0  0
 22 23  1  0  0  0  0
 22 26  1  0  0  0  0
 23 24  1  0  0  0  0
 24 25  1  0  0  0  0
 26 25  1  0  0  0  0
 27 29  1  0  0  0  0
 27 30  1  0  0  0  0
 27  2  1  0  0  0  0
 28 27  1  0  0  0  0
M  END
>  <minimizedAffinity>
-5.97488022

$$$$

 OpenBabel03272500203D

 30 32  0  0  0  0  0  0  0  0999 V2000
   35.5400   26.2660   31.1290 C   0  0  0  0  0  0  0  0  0  0  0  0
   36.2460   26.9370   32.1440 C   0  0  0  0  0  0  0  0  0  0  0  0
   37.3220   26.2930   32.7330 C   0  0  0  0  0  0  0  0  0  0  0  0
   37.6620   25.0460   32.3180 N   0  0  0  0  0  0  0  0  0  0  0  0
   36.9780   24.4280   31.3520 C   0  0  0  0  0  0  0  0  0  0  0  0
   35.9250   25.0190   30.7550 N   0  0  0  0  0  0  0  0  0  0  0  0
   34.6970   26.7610   30.6630 H   0  0  0  0  0  0  0  0  0  0  0  0
   35.1560   22.1730   32.2050 Cl  0  0  0  0  0  0  0  0  0  0  0  0
   36.6290   21.9660   31.2790 C   0  0  0  0  0  0  0  0  0  0  0  0
   37.3890   23.0780   30.9430 C   0  0  0  0  0  0  0  0  0  0  0  0
   38.5780   22.9720   30.2020 C   0  0  0  0  0  0  0  0  0  0  0  0
   38.9530   21.6850   29.8210 C   0  0  0  0  0  0  0  0  0  0  0  0
   38.2230   20.5740   30.1390 C   0  0  0  0  0  0  0  0  0  0  0  0
   38.8020   19.0160   29.6020 Cl  0  0  0  0  0  0  0  0  0  0  0  0
   37.0580   20.7290   30.8700 C   0  0  0  0  0  0  0  0  0  0  0  0
   39.1670   23.8210   29.9400 H   0  0  0  0  0  0  0  0  0  0  0  0
   39.8680   21.5860   29.2490 H   0  0  0  0  0  0  0  0  0  0  0  0
   36.2480   19.5330   31.2270 C   0  0  0  0  0  0  0  0  0  0  0  0
   34.9240   19.9020   31.4720 F   0  0  0  0  0  0  0  0  0  0  0  0
   36.7570   18.8670   32.3110 F   0  0  0  0  0  0  0  0  0  0  0  0
   36.2240   18.6490   30.1720 F   0  0  0  0  0  0  0  0  0  0  0  0
   38.1100   26.8840   33.7970 C   0  0  0  0  0  3  0  0  0  0  0  0
   37.8040   26.4120   35.1900 C   0  0  0  0  0  2  0  0  0  0  0  0
   38.9550   27.0950   35.9430 C   0  0  0  0  0  2  0  0  0  0  0  0
   40.1340   26.9370   34.9840 C   0  0  0  0  0  2  0  0  0  0  0  0
   39.5680   26.4170   33.6810 C   0  0  0  0  0  2  0  0  0  0  0  0
   35.8270   28.3060   32.5430 C   0  0  0  0  0  0  0  0  0  0  0  0
   34.6610   28.7030   31.8950 F   0  0  0  0  0  0  0  0  0  0  0  0
   35.5880   28.3240   33.9090 F   0  0  0  0  0  0  0  0  0  0  0  0
   36.8010   29.2540   32.2880 F   0  0  0  0  0  0  0  0  0  0  0  0
  1  2  1  0  0  0  0
  2 27  1  0  0  0  0
  2  3  2  0  0  0  0
  3 22  1  0  0  0  0
  4  3  1  0  0  0  0
  5  4  2  0  0  0  0
  6  1  2  0  0  0  0
  6  5  1  0  0  0  0
  7  1  1  0  0  0  0
  9  8  1  0  0  0  0
 10  9  1  0  0  0  0
 10  5  1  0  0  0  0
 11 10  2  0  0  0  0
 12 13  2  0  0  0  0
 12 11  1  0  0  0  0
 13 15  1  0  0  0  0
 14 13  1  0  0  0  0
 15 18  1  0  0  0  0
 15  9  2  0  0  0  0
 16 11  1  0  0  0  0
 17 12  1  0  0  0  0
 18 19  1  0  0  0  0
 18 20  1  0  0  0  0
 21 18  1  0  0  0  0
 22 23  1  0  0  0  0
 23 24  1  0  0  0  0
 25 24  1  0  0  0  0
 26 22  1  0  0  0  0
 26 25  1  0  0  0  0
 27 29  1  0  0  0  0
 28 27  1  0  0  0  0
 30 27  1  0  0  0  0
M  END
>  <minimizedAffinity>
-5.97331429

$$$$
