
 OpenBabel03272507373D

 15 16  0  0  0  0  0  0  0  0999 V2000
   35.9630   26.6740   31.6190 C   0  0  0  0  0  0  0  0  0  0  0  0
   36.9570   26.3820   32.5530 C   0  0  0  0  0  0  0  0  0  0  0  0
   37.2980   25.0620   32.8050 C   0  0  0  0  0  0  0  0  0  0  0  0
   36.6230   24.1080   32.1060 N   0  0  0  0  0  0  0  0  0  0  0  0
   35.6610   24.4030   31.2030 C   0  0  0  0  0  0  0  0  0  0  0  0
   35.3350   25.6790   30.9630 N   0  0  0  0  0  0  0  0  0  0  0  0
   38.0270   24.6990   33.4820 H   0  0  0  0  0  0  0  0  0  0  0  0
   35.1340   23.6260   30.6550 H   0  0  0  0  0  0  0  0  0  0  0  0
   37.7190   27.3960   33.3380 C   0  0  0  0  0  3  0  0  0  0  0  0
   37.1840   27.4820   34.7340 C   0  0  0  0  0  2  0  0  0  0  0  0
   38.3380   27.3810   35.6740 C   0  0  0  0  0  2  0  0  0  0  0  0
   39.4400   26.7620   34.8510 C   0  0  0  0  0  2  0  0  0  0  0  0
   39.1690   27.0880   33.4150 C   0  0  0  0  0  2  0  0  0  0  0  0
   35.7620   28.0350   31.5030 O   0  0  0  0  0  0  0  0  0  0  0  0
   35.3330   28.6060   32.1950 H   0  0  0  0  0  0  0  0  0  0  0  0
  1  2  1  0  0  0  0
  2  3  2  0  0  0  0
  2  9  1  0  0  0  0
  3  7  1  0  0  0  0
  4  3  1  0  0  0  0
  5  4  2  0  0  0  0
  6  5  1  0  0  0  0
  6  1  2  0  0  0  0
  8  5  1  0  0  0  0
  9 13  1  0  0  0  0
  9 10  1  0  0  0  0
 10 11  1  0  0  0  0
 12 11  1  0  0  0  0
 13 12  1  0  0  0  0
 14  1  1  0  0  0  0
 14 15  1  0  0  0  0
M  END
>  <minimizedAffinity>
-4.07299232

$$$$

 OpenBabel03272507373D

 15 16  0  0  0  0  0  0  0  0999 V2000
   37.9540   22.3770   35.0880 C   0  0  0  0  0  0  0  0  0  0  0  0
   38.3160   23.6750   34.7280 C   0  0  0  0  0  0  0  0  0  0  0  0
   37.9820   24.1590   33.4720 C   0  0  0  0  0  0  0  0  0  0  0  0
   37.3020   23.3150   32.6480 N   0  0  0  0  0  0  0  0  0  0  0  0
   36.9560   22.0590   33.0080 C   0  0  0  0  0  0  0  0  0  0  0  0
   37.2810   21.5950   34.2220 N   0  0  0  0  0  0  0  0  0  0  0  0
   38.1920   25.1160   33.0700 H   0  0  0  0  0  0  0  0  0  0  0  0
   36.4140   21.4010   32.3350 H   0  0  0  0  0  0  0  0  0  0  0  0
   39.0590   24.6300   35.6000 C   0  0  0  0  0  3  0  0  0  0  0  0
   39.9970   25.4620   34.7800 C   0  0  0  0  0  2  0  0  0  0  0  0
   39.7740   26.8920   35.1400 C   0  0  0  0  0  2  0  0  0  0  0  0
   38.4110   26.9090   35.7850 C   0  0  0  0  0  2  0  0  0  0  0  0
   38.1590   25.5440   36.3450 C   0  0  0  0  0  2  0  0  0  0  0  0
   38.3700   22.0720   36.3680 O   0  0  0  0  0  0  0  0  0  0  0  0
   39.3160   21.9230   36.6370 H   0  0  0  0  0  0  0  0  0  0  0  0
  1 14  1  0  0  0  0
  2  1  1  0  0  0  0
  2  9  1  0  0  0  0
  3  2  2  0  0  0  0
  4  5  2  0  0  0  0
  4  3  1  0  0  0  0
  5  6  1  0  0  0  0
  6  1  2  0  0  0  0
  7  3  1  0  0  0  0
  8  5  1  0  0  0  0
  9 13  1  0  0  0  0
 10 11  1  0  0  0  0
 10  9  1  0  0  0  0
 11 12  1  0  0  0  0
 12 13  1  0  0  0  0
 14 15  1  0  0  0  0
M  END
>  <minimizedAffinity>
-3.88693643

$$$$

 OpenBabel03272507373D

 15 16  0  0  0  0  0  0  0  0999 V2000
   37.9530   25.0370   34.2400 C   0  0  0  0  0  0  0  0  0  0  0  0
   38.1650   24.8610   35.6070 C   0  0  0  0  0  0  0  0  0  0  0  0
   38.2810   25.9690   36.4330 C   0  0  0  0  0  0  0  0  0  0  0  0
   38.1780   27.1910   35.8420 N   0  0  0  0  0  0  0  0  0  0  0  0
   37.9720   27.3490   34.5150 C   0  0  0  0  0  0  0  0  0  0  0  0
   37.8610   26.2760   33.7210 N   0  0  0  0  0  0  0  0  0  0  0  0
   38.4420   25.9830   37.4800 H   0  0  0  0  0  0  0  0  0  0  0  0
   37.8930   28.3330   34.0620 H   0  0  0  0  0  0  0  0  0  0  0  0
   38.2830   23.5420   36.2930 C   0  0  0  0  0  3  0  0  0  0  0  0
   39.7230   23.1470   36.4160 C   0  0  0  0  0  2  0  0  0  0  0  0
   39.9710   22.7590   37.8350 C   0  0  0  0  0  2  0  0  0  0  0  0
   38.8330   23.3840   38.6000 C   0  0  0  0  0  2  0  0  0  0  0  0
   37.6860   23.5480   37.6520 C   0  0  0  0  0  2  0  0  0  0  0  0
   37.8630   23.8260   33.5820 O   0  0  0  0  0  0  0  0  0  0  0  0
   38.6280   23.2090   33.4230 H   0  0  0  0  0  0  0  0  0  0  0  0
  1  2  1  0  0  0  0
  2  9  1  0  0  0  0
  2  3  2  0  0  0  0
  3  7  1  0  0  0  0
  4  3  1  0  0  0  0
  5  4  2  0  0  0  0
  6  1  2  0  0  0  0
  6  5  1  0  0  0  0
  8  5  1  0  0  0  0
  9 10  1  0  0  0  0
  9 13  1  0  0  0  0
 10 11  1  0  0  0  0
 11 12  1  0  0  0  0
 13 12  1  0  0  0  0
 14  1  1  0  0  0  0
 15 14  1  0  0  0  0
M  END
>  <minimizedAffinity>
-3.86906362

$$$$

 OpenBabel03272507373D

 15 16  0  0  0  0  0  0  0  0999 V2000
   39.2980   23.0060   37.1910 C   0  0  0  0  0  0  0  0  0  0  0  0
   39.3170   23.9790   36.1920 C   0  0  0  0  0  0  0  0  0  0  0  0
   40.4680   24.1730   35.4440 C   0  0  0  0  0  0  0  0  0  0  0  0
   41.5350   23.3820   35.7390 N   0  0  0  0  0  0  0  0  0  0  0  0
   41.5050   22.4430   36.7100 C   0  0  0  0  0  0  0  0  0  0  0  0
   40.3910   22.2570   37.4310 N   0  0  0  0  0  0  0  0  0  0  0  0
   40.6210   24.8710   34.6610 H   0  0  0  0  0  0  0  0  0  0  0  0
   42.3690   21.8210   36.9310 H   0  0  0  0  0  0  0  0  0  0  0  0
   38.1700   24.8650   35.8370 C   0  0  0  0  0  3  0  0  0  0  0  0
   38.3150   26.1960   36.5080 C   0  0  0  0  0  2  0  0  0  0  0  0
   38.1310   27.2530   35.4710 C   0  0  0  0  0  2  0  0  0  0  0  0
   38.3650   26.5410   34.1630 C   0  0  0  0  0  2  0  0  0  0  0  0
   38.0540   25.0920   34.3740 C   0  0  0  0  0  2  0  0  0  0  0  0
   38.0730   22.9560   37.8260 O   0  0  0  0  0  0  0  0  0  0  0  0
   37.7260   23.6540   38.4450 H   0  0  0  0  0  0  0  0  0  0  0  0
  1  6  1  0  0  0  0
  1 14  1  0  0  0  0
  2  1  2  0  0  0  0
  3  4  2  0  0  0  0
  3  2  1  0  0  0  0
  4  5  1  0  0  0  0
  5  8  1  0  0  0  0
  5  6  2  0  0  0  0
  7  3  1  0  0  0  0
  9  2  1  0  0  0  0
  9 10  1  0  0  0  0
 11 10  1  0  0  0  0
 12 13  1  0  0  0  0
 12 11  1  0  0  0  0
 13  9  1  0  0  0  0
 14 15  1  0  0  0  0
M  END
>  <minimizedAffinity>
-3.86748481

$$$$

 OpenBabel03272507373D

 15 16  0  0  0  0  0  0  0  0999 V2000
   42.0180   26.1380   34.5510 C   0  0  0  0  0  0  0  0  0  0  0  0
   40.6400   26.0370   34.7420 C   0  0  0  0  0  0  0  0  0  0  0  0
   40.0860   24.8240   35.1200 C   0  0  0  0  0  0  0  0  0  0  0  0
   40.9440   23.7800   35.2860 N   0  0  0  0  0  0  0  0  0  0  0  0
   42.2770   23.8900   35.0980 C   0  0  0  0  0  0  0  0  0  0  0  0
   42.8100   25.0640   34.7330 N   0  0  0  0  0  0  0  0  0  0  0  0
   39.0640   24.6060   35.2980 H   0  0  0  0  0  0  0  0  0  0  0  0
   42.9460   23.0440   35.2360 H   0  0  0  0  0  0  0  0  0  0  0  0
   39.6680   27.1550   34.5710 C   0  0  0  0  0  3  0  0  0  0  0  0
   38.8740   26.9660   33.3150 C   0  0  0  0  0  2  0  0  0  0  0  0
   37.4300   27.1180   33.6590 C   0  0  0  0  0  2  0  0  0  0  0  0
   37.3760   26.9100   35.1510 C   0  0  0  0  0  2  0  0  0  0  0  0
   38.7190   27.2670   35.7070 C   0  0  0  0  0  2  0  0  0  0  0  0
   42.3850   27.4160   34.1790 O   0  0  0  0  0  0  0  0  0  0  0  0
   42.1940   27.8250   33.2920 H   0  0  0  0  0  0  0  0  0  0  0  0
  1  6  2  0  0  0  0
  1  2  1  0  0  0  0
  2  3  2  0  0  0  0
  3  4  1  0  0  0  0
  3  7  1  0  0  0  0
  5  8  1  0  0  0  0
  5  4  2  0  0  0  0
  6  5  1  0  0  0  0
  9  2  1  0  0  0  0
  9 13  1  0  0  0  0
 10 11  1  0  0  0  0
 10  9  1  0  0  0  0
 11 12  1  0  0  0  0
 12 13  1  0  0  0  0
 14  1  1  0  0  0  0
 15 14  1  0  0  0  0
M  END
>  <minimizedAffinity>
-3.84543586

$$$$

 OpenBabel03272507373D

 15 16  0  0  0  0  0  0  0  0999 V2000
   37.9140   27.3180   35.1160 C   0  0  0  0  0  0  0  0  0  0  0  0
   38.1710   25.9490   35.0480 C   0  0  0  0  0  0  0  0  0  0  0  0
   37.6960   25.2130   33.9730 C   0  0  0  0  0  0  0  0  0  0  0  0
   36.9900   25.8910   33.0260 N   0  0  0  0  0  0  0  0  0  0  0  0
   36.7470   27.2190   33.1030 C   0  0  0  0  0  0  0  0  0  0  0  0
   37.2080   27.9260   34.1430 N   0  0  0  0  0  0  0  0  0  0  0  0
   37.8160   24.1760   33.7940 H   0  0  0  0  0  0  0  0  0  0  0  0
   36.1820   27.7420   32.3370 H   0  0  0  0  0  0  0  0  0  0  0  0
   38.9390   25.1700   36.0610 C   0  0  0  0  0  3  0  0  0  0  0  0
   38.0110   24.5870   37.0820 C   0  0  0  0  0  2  0  0  0  0  0  0
   38.3320   23.1370   37.2180 C   0  0  0  0  0  2  0  0  0  0  0  0
   39.0890   22.8000   35.9580 C   0  0  0  0  0  2  0  0  0  0  0  0
   39.7220   24.0620   35.4590 C   0  0  0  0  0  2  0  0  0  0  0  0
   38.4630   27.8800   36.2520 O   0  0  0  0  0  0  0  0  0  0  0  0
   38.1270   27.7320   37.1770 H   0  0  0  0  0  0  0  0  0  0  0  0
  1 14  1  0  0  0  0
  2  1  1  0  0  0  0
  2  9  1  0  0  0  0
  3  2  2  0  0  0  0
  4  5  2  0  0  0  0
  4  3  1  0  0  0  0
  5  6  1  0  0  0  0
  6  1  2  0  0  0  0
  7  3  1  0  0  0  0
  8  5  1  0  0  0  0
  9 10  1  0  0  0  0
 10 11  1  0  0  0  0
 12 11  1  0  0  0  0
 13 12  1  0  0  0  0
 13  9  1  0  0  0  0
 14 15  1  0  0  0  0
M  END
>  <minimizedAffinity>
-3.83832383

$$$$

 OpenBabel03272507373D

 15 16  0  0  0  0  0  0  0  0999 V2000
   39.8620   23.7140   35.9580 C   0  0  0  0  0  0  0  0  0  0  0  0
   38.9490   24.7680   35.9620 C   0  0  0  0  0  0  0  0  0  0  0  0
   38.0190   24.8680   36.9850 C   0  0  0  0  0  0  0  0  0  0  0  0
   38.0560   23.9060   37.9470 N   0  0  0  0  0  0  0  0  0  0  0  0
   38.9460   22.8890   37.9330 C   0  0  0  0  0  0  0  0  0  0  0  0
   39.8430   22.7950   36.9430 N   0  0  0  0  0  0  0  0  0  0  0  0
   37.2730   25.6100   37.1120 H   0  0  0  0  0  0  0  0  0  0  0  0
   38.9590   22.1300   38.7110 H   0  0  0  0  0  0  0  0  0  0  0  0
   38.8760   25.8420   34.9290 C   0  0  0  0  0  3  0  0  0  0  0  0
   37.5580   25.7890   34.2180 C   0  0  0  0  0  2  0  0  0  0  0  0
   36.9810   27.1650   34.2220 C   0  0  0  0  0  2  0  0  0  0  0  0
   37.7160   27.8770   35.3290 C   0  0  0  0  0  2  0  0  0  0  0  0
   39.0400   27.2010   35.5020 C   0  0  0  0  0  2  0  0  0  0  0  0
   40.7060   23.7790   34.8670 O   0  0  0  0  0  0  0  0  0  0  0  0
   40.4330   23.5970   33.9280 H   0  0  0  0  0  0  0  0  0  0  0  0
  1  2  2  0  0  0  0
  1  6  1  0  0  0  0
  2  3  1  0  0  0  0
  3  7  1  0  0  0  0
  3  4  2  0  0  0  0
  5  4  1  0  0  0  0
  5  8  1  0  0  0  0
  6  5  2  0  0  0  0
  9 13  1  0  0  0  0
  9  2  1  0  0  0  0
 10 11  1  0  0  0  0
 10  9  1  0  0  0  0
 11 12  1  0  0  0  0
 12 13  1  0  0  0  0
 14  1  1  0  0  0  0
 15 14  1  0  0  0  0
M  END
>  <minimizedAffinity>
-3.81956267

$$$$

 OpenBabel03272507373D

 15 16  0  0  0  0  0  0  0  0999 V2000
   39.2210   22.8760   37.3600 C   0  0  0  0  0  0  0  0  0  0  0  0
   40.3390   22.4850   36.6240 C   0  0  0  0  0  0  0  0  0  0  0  0
   40.2070   22.2030   35.2730 C   0  0  0  0  0  0  0  0  0  0  0  0
   38.9620   22.3280   34.7360 N   0  0  0  0  0  0  0  0  0  0  0  0
   37.8860   22.7070   35.4600 C   0  0  0  0  0  0  0  0  0  0  0  0
   38.0170   22.9790   36.7650 N   0  0  0  0  0  0  0  0  0  0  0  0
   40.9650   21.8990   34.5980 H   0  0  0  0  0  0  0  0  0  0  0  0
   36.9000   22.8010   35.0120 H   0  0  0  0  0  0  0  0  0  0  0  0
   41.7170   22.3370   37.1730 C   0  0  0  0  0  3  0  0  0  0  0  0
   42.2030   20.9320   36.9860 C   0  0  0  0  0  2  0  0  0  0  0  0
   43.5570   20.9950   36.3630 C   0  0  0  0  0  2  0  0  0  0  0  0
   43.6300   22.3760   35.7620 C   0  0  0  0  0  2  0  0  0  0  0  0
   42.6920   23.2540   36.5300 C   0  0  0  0  0  2  0  0  0  0  0  0
   39.5430   23.1130   38.6820 O   0  0  0  0  0  0  0  0  0  0  0  0
   39.7800   22.4090   39.3430 H   0  0  0  0  0  0  0  0  0  0  0  0
  1 14  1  0  0  0  0
  2  9  1  0  0  0  0
  2  1  2  0  0  0  0
  3  2  1  0  0  0  0
  4  3  2  0  0  0  0
  4  5  1  0  0  0  0
  5  6  2  0  0  0  0
  6  1  1  0  0  0  0
  7  3  1  0  0  0  0
  8  5  1  0  0  0  0
 10  9  1  0  0  0  0
 11 10  1  0  0  0  0
 12 11  1  0  0  0  0
 12 13  1  0  0  0  0
 13  9  1  0  0  0  0
 14 15  1  0  0  0  0
M  END
>  <minimizedAffinity>
-3.7705276

$$$$

 OpenBabel03272507373D

 15 16  0  0  0  0  0  0  0  0999 V2000
   38.1040   27.5870   35.2670 C   0  0  0  0  0  0  0  0  0  0  0  0
   39.0930   27.1280   34.3970 C   0  0  0  0  0  0  0  0  0  0  0  0
   38.8220   27.0270   33.0410 C   0  0  0  0  0  0  0  0  0  0  0  0
   37.5750   27.3900   32.6330 N   0  0  0  0  0  0  0  0  0  0  0  0
   36.6250   27.8340   33.4860 C   0  0  0  0  0  0  0  0  0  0  0  0
   36.8900   27.9300   34.7950 N   0  0  0  0  0  0  0  0  0  0  0  0
   39.4730   26.6970   32.2730 H   0  0  0  0  0  0  0  0  0  0  0  0
   35.6350   28.1200   33.1400 H   0  0  0  0  0  0  0  0  0  0  0  0
   40.4690   26.7200   34.8030 C   0  0  0  0  0  3  0  0  0  0  0  0
   40.5380   25.2350   34.9850 C   0  0  0  0  0  2  0  0  0  0  0  0
   41.7170   24.7350   34.2190 C   0  0  0  0  0  2  0  0  0  0  0  0
   42.0180   25.8350   33.2330 C   0  0  0  0  0  2  0  0  0  0  0  0
   41.4990   27.1150   33.8100 C   0  0  0  0  0  2  0  0  0  0  0  0
   38.5540   27.6210   36.5720 O   0  0  0  0  0  0  0  0  0  0  0  0
   38.7280   26.8170   37.1320 H   0  0  0  0  0  0  0  0  0  0  0  0
  1 14  1  0  0  0  0
  2  9  1  0  0  0  0
  2  1  2  0  0  0  0
  3  2  1  0  0  0  0
  4  3  2  0  0  0  0
  4  5  1  0  0  0  0
  5  6  2  0  0  0  0
  6  1  1  0  0  0  0
  7  3  1  0  0  0  0
  8  5  1  0  0  0  0
  9 10  1  0  0  0  0
 11 10  1  0  0  0  0
 12 13  1  0  0  0  0
 12 11  1  0  0  0  0
 13  9  1  0  0  0  0
 14 15  1  0  0  0  0
M  END
>  <minimizedAffinity>
-3.77000594

$$$$
