
 OpenBabel03272510343D

 24 26  0  0  0  0  0  0  0  0999 V2000
   35.5980   30.0270   48.0400 C   0  0  0  0  0  0  0  0  0  0  0  0
   34.6740   30.2780   47.0500 C   0  0  0  0  0  0  0  0  0  0  0  0
   33.5520   29.4670   46.9450 C   0  0  0  0  0  0  0  0  0  0  0  0
   33.3840   28.4330   47.8280 C   0  0  0  0  0  0  0  0  0  0  0  0
   34.3110   28.1750   48.8280 C   0  0  0  0  0  0  0  0  0  0  0  0
   35.4540   28.9750   48.9590 C   0  0  0  0  0  0  0  0  0  0  0  0
   34.7920   31.0920   46.3450 H   0  0  0  0  0  0  0  0  0  0  0  0
   32.8190   29.6440   46.1820 H   0  0  0  0  0  0  0  0  0  0  0  0
   32.4830   27.8180   47.7080 H   0  0  0  0  0  0  0  0  0  0  0  0
   34.1000   27.3410   49.4770 H   0  0  0  0  0  0  0  0  0  0  0  0
   37.7320   32.8110   49.0570 C   0  0  0  0  0  0  0  0  0  0  0  0
   38.8960   32.6520   48.3100 C   0  0  0  0  0  0  0  0  0  0  0  0
   38.9450   31.5400   47.4190 C   0  0  0  0  0  0  0  0  0  0  0  0
   37.8730   30.7100   47.3500 N   0  0  0  0  0  0  0  0  0  0  0  0
   36.7590   30.9080   48.1000 C   0  0  0  0  0  0  0  0  0  0  0  0
   36.7260   31.9570   48.9320 N   0  0  0  0  0  0  0  0  0  0  0  0
   37.7520   33.6690   49.7130 H   0  0  0  0  0  0  0  0  0  0  0  0
   39.7950   33.2560   48.2980 H   0  0  0  0  0  0  0  0  0  0  0  0
   39.7690   31.2880   46.7820 H   0  0  0  0  0  0  0  0  0  0  0  0
   36.4320   28.7020   50.0170 C   0  0  0  0  0  3  0  0  0  0  0  0
   37.7640   29.3480   49.8450 C   0  0  0  0  0  2  0  0  0  0  0  0
   38.1470   29.9710   51.1900 C   0  0  0  0  0  2  0  0  0  0  0  0
   36.7970   30.3700   51.7320 C   0  0  0  0  0  2  0  0  0  0  0  0
   35.9310   29.2090   51.3600 C   0  0  0  0  0  2  0  0  0  0  0  0
  1 15  1  0  0  0  0
  1  6  1  0  0  0  0
  2  1  2  0  0  0  0
  3  2  1  0  0  0  0
  3  4  2  0  0  0  0
  4  5  1  0  0  0  0
  5  6  2  0  0  0  0
  5 10  1  0  0  0  0
  6 20  1  0  0  0  0
  7  2  1  0  0  0  0
  8  3  1  0  0  0  0
  9  4  1  0  0  0  0
 11 17  1  0  0  0  0
 12 11  2  0  0  0  0
 13 12  1  0  0  0  0
 14 13  2  0  0  0  0
 14 15  1  0  0  0  0
 15 16  2  0  0  0  0
 16 11  1  0  0  0  0
 18 12  1  0  0  0  0
 19 13  1  0  0  0  0
 20 24  1  0  0  0  0
 21 20  1  0  0  0  0
 21 22  1  0  0  0  0
 22 23  1  0  0  0  0
 24 23  1  0  0  0  0
M  END
>  <minimizedAffinity>
-5.07271004

>  <minimizedRMSD>
1.0080961

$$$$
