
 OpenBabel03272506223D

 24 26  0  0  0  0  0  0  0  0999 V2000
   35.4690   25.9780   30.9710 C   0  0  0  0  0  0  0  0  0  0  0  0
   36.1670   26.8720   31.8360 C   0  0  0  0  0  0  0  0  0  0  0  0
   37.0560   26.3110   32.7690 C   0  0  0  0  0  0  0  0  0  0  0  0
   37.2000   24.9620   32.7950 N   0  0  0  0  0  0  0  0  0  0  0  0
   36.5210   24.1310   31.9570 C   0  0  0  0  0  0  0  0  0  0  0  0
   35.6690   24.6480   31.0610 N   0  0  0  0  0  0  0  0  0  0  0  0
   34.7630   26.2960   30.2180 H   0  0  0  0  0  0  0  0  0  0  0  0
   36.7160   23.0710   32.0690 H   0  0  0  0  0  0  0  0  0  0  0  0
   35.8890   28.2800   31.6680 C   0  0  0  0  0  0  0  0  0  0  0  0
   36.5700   28.9420   30.6790 C   0  0  0  0  0  0  0  0  0  0  0  0
   36.4160   30.2780   30.3830 C   0  0  0  0  0  0  0  0  0  0  0  0
   35.5070   31.0320   31.1330 C   0  0  0  0  0  0  0  0  0  0  0  0
   34.8110   30.3650   32.1430 C   0  0  0  0  0  0  0  0  0  0  0  0
   34.9780   29.0270   32.4240 C   0  0  0  0  0  0  0  0  0  0  0  0
   37.3310   28.5340   29.9930 H   0  0  0  0  0  0  0  0  0  0  0  0
   36.9080   30.8540   29.6320 H   0  0  0  0  0  0  0  0  0  0  0  0
   35.2990   32.0790   30.9970 H   0  0  0  0  0  0  0  0  0  0  0  0
   34.0840   30.8330   32.7910 H   0  0  0  0  0  0  0  0  0  0  0  0
   34.4470   28.4960   33.2030 H   0  0  0  0  0  0  0  0  0  0  0  0
   37.8180   27.1680   33.6630 C   0  0  0  0  0  3  0  0  0  0  0  0
   39.2700   26.7340   33.6160 C   0  0  0  0  0  2  0  0  0  0  0  0
   39.7710   26.8620   35.0150 C   0  0  0  0  0  2  0  0  0  0  0  0
   38.5980   27.2840   35.8930 C   0  0  0  0  0  2  0  0  0  0  0  0
   37.3630   26.9310   35.0870 C   0  0  0  0  0  2  0  0  0  0  0  0
  1  6  2  0  0  0  0
  1  2  1  0  0  0  0
  2  3  2  0  0  0  0
  3  4  1  0  0  0  0
  3 20  1  0  0  0  0
  5  8  1  0  0  0  0
  5  4  2  0  0  0  0
  6  5  1  0  0  0  0
  7  1  1  0  0  0  0
  9  2  1  0  0  0  0
  9 14  1  0  0  0  0
 10  9  2  0  0  0  0
 11 10  1  0  0  0  0
 11 12  2  0  0  0  0
 12 13  1  0  0  0  0
 13 14  2  0  0  0  0
 13 18  1  0  0  0  0
 14 19  1  0  0  0  0
 15 10  1  0  0  0  0
 16 11  1  0  0  0  0
 17 12  1  0  0  0  0
 20 24  1  0  0  0  0
 21 20  1  0  0  0  0
 21 22  1  0  0  0  0
 22 23  1  0  0  0  0
 24 23  1  0  0  0  0
M  END
>  <minimizedAffinity>
-5.06826115

$$$$

 OpenBabel03272506223D

 24 26  0  0  0  0  0  0  0  0999 V2000
   36.0270   29.7810   31.8510 C   0  0  0  0  0  0  0  0  0  0  0  0
   36.0230   29.1860   33.1470 C   0  0  0  0  0  0  0  0  0  0  0  0
   36.7540   27.9980   33.3190 C   0  0  0  0  0  0  0  0  0  0  0  0
   37.4180   27.4870   32.2510 N   0  0  0  0  0  0  0  0  0  0  0  0
   37.4050   28.0770   31.0240 C   0  0  0  0  0  0  0  0  0  0  0  0
   36.7130   29.2090   30.8420 N   0  0  0  0  0  0  0  0  0  0  0  0
   35.5000   30.6910   31.6040 H   0  0  0  0  0  0  0  0  0  0  0  0
   37.9720   27.5780   30.2460 H   0  0  0  0  0  0  0  0  0  0  0  0
   35.2590   29.8670   34.1670 C   0  0  0  0  0  0  0  0  0  0  0  0
   33.9430   29.5070   34.3130 C   0  0  0  0  0  0  0  0  0  0  0  0
   33.0820   30.0510   35.2410 C   0  0  0  0  0  0  0  0  0  0  0  0
   33.5630   31.0410   36.1040 C   0  0  0  0  0  0  0  0  0  0  0  0
   34.9000   31.4140   35.9600 C   0  0  0  0  0  0  0  0  0  0  0  0
   35.7470   30.8590   35.0260 C   0  0  0  0  0  0  0  0  0  0  0  0
   33.3770   28.7630   33.7290 H   0  0  0  0  0  0  0  0  0  0  0  0
   32.0550   29.8190   35.4100 H   0  0  0  0  0  0  0  0  0  0  0  0
   32.9900   31.5390   36.8670 H   0  0  0  0  0  0  0  0  0  0  0  0
   35.3900   32.1660   36.5630 H   0  0  0  0  0  0  0  0  0  0  0  0
   36.7850   31.1370   34.9020 H   0  0  0  0  0  0  0  0  0  0  0  0
   36.8130   27.3540   34.6210 C   0  0  0  0  0  3  0  0  0  0  0  0
   37.9210   28.0050   35.4250 C   0  0  0  0  0  2  0  0  0  0  0  0
   38.5660   26.8960   36.1860 C   0  0  0  0  0  2  0  0  0  0  0  0
   37.9000   25.5920   35.7650 C   0  0  0  0  0  2  0  0  0  0  0  0
   37.2270   25.9090   34.4440 C   0  0  0  0  0  2  0  0  0  0  0  0
  1  2  1  0  0  0  0
  2  3  2  0  0  0  0
  2  9  1  0  0  0  0
  3 20  1  0  0  0  0
  4  3  1  0  0  0  0
  5  4  2  0  0  0  0
  6  5  1  0  0  0  0
  6  1  2  0  0  0  0
  7  1  1  0  0  0  0
  8  5  1  0  0  0  0
  9 10  2  0  0  0  0
  9 14  1  0  0  0  0
 10 11  1  0  0  0  0
 11 16  1  0  0  0  0
 11 12  2  0  0  0  0
 12 17  1  0  0  0  0
 13 12  1  0  0  0  0
 13 18  1  0  0  0  0
 14 13  2  0  0  0  0
 15 10  1  0  0  0  0
 19 14  1  0  0  0  0
 20 21  1  0  0  0  0
 21 22  1  0  0  0  0
 23 22  1  0  0  0  0
 24 20  1  0  0  0  0
 24 23  1  0  0  0  0
M  END
>  <minimizedAffinity>
-4.87385321

$$$$

 OpenBabel03272506223D

 24 26  0  0  0  0  0  0  0  0999 V2000
   35.7310   31.5520   35.8250 C   0  0  0  0  0  0  0  0  0  0  0  0
   34.9210   30.6370   35.0890 C   0  0  0  0  0  0  0  0  0  0  0  0
   33.5680   30.5300   35.4510 C   0  0  0  0  0  0  0  0  0  0  0  0
   33.1090   31.2960   36.4730 N   0  0  0  0  0  0  0  0  0  0  0  0
   33.9050   32.1620   37.1600 C   0  0  0  0  0  0  0  0  0  0  0  0
   35.1970   32.2770   36.8290 N   0  0  0  0  0  0  0  0  0  0  0  0
   36.7820   31.7150   35.6350 H   0  0  0  0  0  0  0  0  0  0  0  0
   33.4290   32.7220   37.9580 H   0  0  0  0  0  0  0  0  0  0  0  0
   35.5780   29.9010   34.0320 C   0  0  0  0  0  0  0  0  0  0  0  0
   36.1190   28.6840   34.3570 C   0  0  0  0  0  0  0  0  0  0  0  0
   36.7680   27.8550   33.4690 C   0  0  0  0  0  0  0  0  0  0  0  0
   36.8960   28.2650   32.1380 C   0  0  0  0  0  0  0  0  0  0  0  0
   36.3490   29.5040   31.8000 C   0  0  0  0  0  0  0  0  0  0  0  0
   35.7030   30.3200   32.7020 C   0  0  0  0  0  0  0  0  0  0  0  0
   36.1340   28.1920   35.3440 H   0  0  0  0  0  0  0  0  0  0  0  0
   37.2090   26.9010   33.6500 H   0  0  0  0  0  0  0  0  0  0  0  0
   37.3800   27.7080   31.3540 H   0  0  0  0  0  0  0  0  0  0  0  0
   36.3830   29.9340   30.8090 H   0  0  0  0  0  0  0  0  0  0  0  0
   35.2740   31.2820   32.4570 H   0  0  0  0  0  0  0  0  0  0  0  0
   32.6820   29.6350   34.7240 C   0  0  0  0  0  3  0  0  0  0  0  0
   31.6210   30.4720   34.0350 C   0  0  0  0  0  2  0  0  0  0  0  0
   30.3590   29.6850   34.1440 C   0  0  0  0  0  2  0  0  0  0  0  0
   30.6570   28.4380   34.9690 C   0  0  0  0  0  2  0  0  0  0  0  0
   31.9390   28.7600   35.7110 C   0  0  0  0  0  2  0  0  0  0  0  0
  1  6  1  0  0  0  0
  2  3  1  0  0  0  0
  2  1  2  0  0  0  0
  3  4  2  0  0  0  0
  4  5  1  0  0  0  0
  5  8  1  0  0  0  0
  6  5  2  0  0  0  0
  7  1  1  0  0  0  0
  9 10  1  0  0  0  0
  9  2  1  0  0  0  0
 10 15  1  0  0  0  0
 11 16  1  0  0  0  0
 11 10  2  0  0  0  0
 12 11  1  0  0  0  0
 13 12  2  0  0  0  0
 13 14  1  0  0  0  0
 14  9  2  0  0  0  0
 17 12  1  0  0  0  0
 18 13  1  0  0  0  0
 19 14  1  0  0  0  0
 20  3  1  0  0  0  0
 20 24  1  0  0  0  0
 21 22  1  0  0  0  0
 21 20  1  0  0  0  0
 22 23  1  0  0  0  0
 23 24  1  0  0  0  0
M  END
>  <minimizedAffinity>
-4.7994442

$$$$

 OpenBabel03272506223D

 24 26  0  0  0  0  0  0  0  0999 V2000
   40.7900   27.0520   34.1260 C   0  0  0  0  0  0  0  0  0  0  0  0
   39.5540   26.3810   34.3620 C   0  0  0  0  0  0  0  0  0  0  0  0
   39.6120   25.0750   34.8790 C   0  0  0  0  0  0  0  0  0  0  0  0
   40.8300   24.5300   35.1230 N   0  0  0  0  0  0  0  0  0  0  0  0
   41.9960   25.1940   34.8880 C   0  0  0  0  0  0  0  0  0  0  0  0
   41.9600   26.4390   34.3960 N   0  0  0  0  0  0  0  0  0  0  0  0
   40.8650   28.0550   33.7310 H   0  0  0  0  0  0  0  0  0  0  0  0
   42.9090   24.6580   35.1210 H   0  0  0  0  0  0  0  0  0  0  0  0
   38.3500   27.1140   34.0430 C   0  0  0  0  0  0  0  0  0  0  0  0
   38.0130   27.2230   32.7180 C   0  0  0  0  0  0  0  0  0  0  0  0
   36.8970   27.8780   32.2460 C   0  0  0  0  0  0  0  0  0  0  0  0
   36.0350   28.4830   33.1660 C   0  0  0  0  0  0  0  0  0  0  0  0
   36.3720   28.3780   34.5160 C   0  0  0  0  0  0  0  0  0  0  0  0
   37.4920   27.7180   34.9700 C   0  0  0  0  0  0  0  0  0  0  0  0
   38.5620   26.8300   31.8460 H   0  0  0  0  0  0  0  0  0  0  0  0
   36.5750   28.0000   31.2360 H   0  0  0  0  0  0  0  0  0  0  0  0
   35.1350   29.0210   32.9210 H   0  0  0  0  0  0  0  0  0  0  0  0
   35.7900   28.8020   35.3230 H   0  0  0  0  0  0  0  0  0  0  0  0
   37.7680   27.6280   36.0120 H   0  0  0  0  0  0  0  0  0  0  0  0
   38.3880   24.3440   35.1660 C   0  0  0  0  0  3  0  0  0  0  0  0
   38.1060   24.4530   36.6520 C   0  0  0  0  0  2  0  0  0  0  0  0
   37.5730   23.1200   37.0560 C   0  0  0  0  0  2  0  0  0  0  0  0
   37.6250   22.2080   35.8360 C   0  0  0  0  0  2  0  0  0  0  0  0
   38.6130   22.8710   34.8960 C   0  0  0  0  0  2  0  0  0  0  0  0
  1  2  2  0  0  0  0
  1  6  1  0  0  0  0
  2  3  1  0  0  0  0
  3  4  2  0  0  0  0
  3 20  1  0  0  0  0
  5  8  1  0  0  0  0
  5  4  1  0  0  0  0
  6  5  2  0  0  0  0
  7  1  1  0  0  0  0
  9  2  1  0  0  0  0
  9 14  1  0  0  0  0
 10  9  2  0  0  0  0
 11 10  1  0  0  0  0
 11 12  2  0  0  0  0
 12 13  1  0  0  0  0
 13 14  2  0  0  0  0
 13 18  1  0  0  0  0
 14 19  1  0  0  0  0
 15 10  1  0  0  0  0
 16 11  1  0  0  0  0
 17 12  1  0  0  0  0
 20 21  1  0  0  0  0
 21 22  1  0  0  0  0
 23 22  1  0  0  0  0
 24 20  1  0  0  0  0
 24 23  1  0  0  0  0
M  END
>  <minimizedAffinity>
-4.72385216

$$$$

 OpenBabel03272506223D

 24 26  0  0  0  0  0  0  0  0999 V2000
   37.0810   24.5500   32.2540 C   0  0  0  0  0  0  0  0  0  0  0  0
   37.3590   25.9470   32.3290 C   0  0  0  0  0  0  0  0  0  0  0  0
   36.4480   26.8240   31.7150 C   0  0  0  0  0  0  0  0  0  0  0  0
   35.3650   26.2980   31.0900 N   0  0  0  0  0  0  0  0  0  0  0  0
   35.1240   24.9580   31.0330 C   0  0  0  0  0  0  0  0  0  0  0  0
   35.9810   24.1080   31.6130 N   0  0  0  0  0  0  0  0  0  0  0  0
   37.7100   23.7860   32.6880 H   0  0  0  0  0  0  0  0  0  0  0  0
   34.2270   24.6530   30.5060 H   0  0  0  0  0  0  0  0  0  0  0  0
   38.5610   26.3290   33.0350 C   0  0  0  0  0  0  0  0  0  0  0  0
   39.6980   26.5050   32.2900 C   0  0  0  0  0  0  0  0  0  0  0  0
   40.9210   26.8770   32.8040 C   0  0  0  0  0  0  0  0  0  0  0  0
   41.0310   27.0930   34.1810 C   0  0  0  0  0  0  0  0  0  0  0  0
   39.8780   26.9140   34.9470 C   0  0  0  0  0  0  0  0  0  0  0  0
   38.6630   26.5430   34.4150 C   0  0  0  0  0  0  0  0  0  0  0  0
   39.8210   26.3730   31.2020 H   0  0  0  0  0  0  0  0  0  0  0  0
   41.8400   27.0330   32.2870 H   0  0  0  0  0  0  0  0  0  0  0  0
   41.9280   27.3860   34.7000 H   0  0  0  0  0  0  0  0  0  0  0  0
   39.8330   27.0490   36.0190 H   0  0  0  0  0  0  0  0  0  0  0  0
   37.7610   26.4000   34.9940 H   0  0  0  0  0  0  0  0  0  0  0  0
   36.6580   28.2610   31.7770 C   0  0  0  0  0  3  0  0  0  0  0  0
   35.3440   28.9190   32.1520 C   0  0  0  0  0  2  0  0  0  0  0  0
   35.2830   30.1750   31.3490 C   0  0  0  0  0  2  0  0  0  0  0  0
   36.5090   30.2100   30.4450 C   0  0  0  0  0  2  0  0  0  0  0  0
   36.9960   28.7750   30.3930 C   0  0  0  0  0  2  0  0  0  0  0  0
  1  2  1  0  0  0  0
  1  7  1  0  0  0  0
  2  9  1  0  0  0  0
  3 20  1  0  0  0  0
  3  2  2  0  0  0  0
  4  3  1  0  0  0  0
  5  4  2  0  0  0  0
  5  6  1  0  0  0  0
  6  1  2  0  0  0  0
  8  5  1  0  0  0  0
  9 14  1  0  0  0  0
 10 11  1  0  0  0  0
 10  9  2  0  0  0  0
 11 12  2  0  0  0  0
 12 17  1  0  0  0  0
 12 13  1  0  0  0  0
 13 18  1  0  0  0  0
 14 13  2  0  0  0  0
 14 19  1  0  0  0  0
 15 10  1  0  0  0  0
 16 11  1  0  0  0  0
 20 21  1  0  0  0  0
 22 21  1  0  0  0  0
 23 22  1  0  0  0  0
 24 23  1  0  0  0  0
 24 20  1  0  0  0  0
M  END
>  <minimizedAffinity>
-4.63275576

$$$$

 OpenBabel03272506223D

 24 26  0  0  0  0  0  0  0  0999 V2000
   40.5870   26.5160   34.5650 C   0  0  0  0  0  0  0  0  0  0  0  0
   39.4660   25.6400   34.4720 C   0  0  0  0  0  0  0  0  0  0  0  0
   38.7810   25.5880   33.2460 C   0  0  0  0  0  0  0  0  0  0  0  0
   39.2210   26.3680   32.2260 N   0  0  0  0  0  0  0  0  0  0  0  0
   40.2960   27.1970   32.3430 C   0  0  0  0  0  0  0  0  0  0  0  0
   40.9590   27.2590   33.5040 N   0  0  0  0  0  0  0  0  0  0  0  0
   41.1850   26.6370   35.4570 H   0  0  0  0  0  0  0  0  0  0  0  0
   40.5550   27.7730   31.4610 H   0  0  0  0  0  0  0  0  0  0  0  0
   39.1380   24.8830   35.6600 C   0  0  0  0  0  0  0  0  0  0  0  0
   39.8850   23.7630   35.9170 C   0  0  0  0  0  0  0  0  0  0  0  0
   39.7090   22.9380   37.0070 C   0  0  0  0  0  0  0  0  0  0  0  0
   38.7030   23.2480   37.9270 C   0  0  0  0  0  0  0  0  0  0  0  0
   37.9370   24.3870   37.6710 C   0  0  0  0  0  0  0  0  0  0  0  0
   38.1270   25.2000   36.5760 C   0  0  0  0  0  0  0  0  0  0  0  0
   40.7080   23.3460   35.3130 H   0  0  0  0  0  0  0  0  0  0  0  0
   40.2510   22.0580   37.2690 H   0  0  0  0  0  0  0  0  0  0  0  0
   38.4690   22.6850   38.8140 H   0  0  0  0  0  0  0  0  0  0  0  0
   37.1310   24.7320   38.3030 H   0  0  0  0  0  0  0  0  0  0  0  0
   37.5430   26.0840   36.3630 H   0  0  0  0  0  0  0  0  0  0  0  0
   37.6460   24.6960   33.0760 C   0  0  0  0  0  3  0  0  0  0  0  0
   38.1110   23.4730   32.3090 C   0  0  0  0  0  2  0  0  0  0  0  0
   36.9860   23.1250   31.3920 C   0  0  0  0  0  2  0  0  0  0  0  0
   35.9060   24.1870   31.5560 C   0  0  0  0  0  2  0  0  0  0  0  0
   36.6130   25.3670   32.1950 C   0  0  0  0  0  2  0  0  0  0  0  0
  1  7  1  0  0  0  0
  2  1  1  0  0  0  0
  2  9  1  0  0  0  0
  3  2  2  0  0  0  0
  4  5  2  0  0  0  0
  4  3  1  0  0  0  0
  5  6  1  0  0  0  0
  6  1  2  0  0  0  0
  8  5  1  0  0  0  0
  9 10  2  0  0  0  0
  9 14  1  0  0  0  0
 10 11  1  0  0  0  0
 11 16  1  0  0  0  0
 11 12  2  0  0  0  0
 12 17  1  0  0  0  0
 13 12  1  0  0  0  0
 13 18  1  0  0  0  0
 14 13  2  0  0  0  0
 15 10  1  0  0  0  0
 19 14  1  0  0  0  0
 20  3  1  0  0  0  0
 21 20  1  0  0  0  0
 22 23  1  0  0  0  0
 22 21  1  0  0  0  0
 23 24  1  0  0  0  0
 24 20  1  0  0  0  0
M  END
>  <minimizedAffinity>
-4.6172843

$$$$

 OpenBabel03272506223D

 24 26  0  0  0  0  0  0  0  0999 V2000
   37.7490   22.8690   33.8110 C   0  0  0  0  0  0  0  0  0  0  0  0
   38.6350   23.7760   34.4640 C   0  0  0  0  0  0  0  0  0  0  0  0
   39.2660   24.7510   33.6720 C   0  0  0  0  0  0  0  0  0  0  0  0
   39.0000   24.7750   32.3420 N   0  0  0  0  0  0  0  0  0  0  0  0
   38.1490   23.8950   31.7440 C   0  0  0  0  0  0  0  0  0  0  0  0
   37.5390   22.9600   32.4830 N   0  0  0  0  0  0  0  0  0  0  0  0
   37.2120   22.0810   34.3180 H   0  0  0  0  0  0  0  0  0  0  0  0
   38.0130   24.0100   30.6740 H   0  0  0  0  0  0  0  0  0  0  0  0
   38.8010   23.6020   35.8890 C   0  0  0  0  0  0  0  0  0  0  0  0
   37.8800   24.2060   36.7070 C   0  0  0  0  0  0  0  0  0  0  0  0
   37.8890   24.1330   38.0820 C   0  0  0  0  0  0  0  0  0  0  0  0
   38.8990   23.3960   38.7090 C   0  0  0  0  0  0  0  0  0  0  0  0
   39.8410   22.7800   37.8830 C   0  0  0  0  0  0  0  0  0  0  0  0
   39.8160   22.8640   36.5090 C   0  0  0  0  0  0  0  0  0  0  0  0
   37.0230   24.8340   36.4120 H   0  0  0  0  0  0  0  0  0  0  0  0
   37.2080   24.5730   38.7760 H   0  0  0  0  0  0  0  0  0  0  0  0
   39.0120   23.2650   39.7710 H   0  0  0  0  0  0  0  0  0  0  0  0
   40.6690   22.1860   38.2430 H   0  0  0  0  0  0  0  0  0  0  0  0
   40.5380   22.3930   35.8550 H   0  0  0  0  0  0  0  0  0  0  0  0
   40.1610   25.7220   34.2790 C   0  0  0  0  0  3  0  0  0  0  0  0
   40.1150   26.9930   33.4530 C   0  0  0  0  0  2  0  0  0  0  0  0
   41.5150   27.5090   33.4360 C   0  0  0  0  0  2  0  0  0  0  0  0
   42.3920   26.5010   34.1700 C   0  0  0  0  0  2  0  0  0  0  0  0
   41.5850   25.2180   34.1800 C   0  0  0  0  0  2  0  0  0  0  0  0
  1  7  1  0  0  0  0
  1  2  1  0  0  0  0
  2  9  1  0  0  0  0
  3 20  1  0  0  0  0
  3  2  2  0  0  0  0
  4  3  1  0  0  0  0
  5  4  2  0  0  0  0
  5  6  1  0  0  0  0
  6  1  2  0  0  0  0
  8  5  1  0  0  0  0
  9 14  2  0  0  0  0
  9 10  1  0  0  0  0
 10 11  2  0  0  0  0
 11 12  1  0  0  0  0
 11 16  1  0  0  0  0
 12 17  1  0  0  0  0
 13 18  1  0  0  0  0
 13 12  2  0  0  0  0
 14 13  1  0  0  0  0
 15 10  1  0  0  0  0
 19 14  1  0  0  0  0
 21 20  1  0  0  0  0
 22 21  1  0  0  0  0
 22 23  1  0  0  0  0
 23 24  1  0  0  0  0
 24 20  1  0  0  0  0
M  END
>  <minimizedAffinity>
-4.59196568

$$$$

 OpenBabel03272506223D

 24 26  0  0  0  0  0  0  0  0999 V2000
   37.5920   26.9980   35.3290 C   0  0  0  0  0  0  0  0  0  0  0  0
   37.8560   25.6990   34.8040 C   0  0  0  0  0  0  0  0  0  0  0  0
   37.4750   25.4460   33.4740 C   0  0  0  0  0  0  0  0  0  0  0  0
   36.8830   26.4430   32.7700 N   0  0  0  0  0  0  0  0  0  0  0  0
   36.6430   27.6760   33.2970 C   0  0  0  0  0  0  0  0  0  0  0  0
   36.9980   27.9350   34.5620 N   0  0  0  0  0  0  0  0  0  0  0  0
   37.8400   27.3030   36.3350 H   0  0  0  0  0  0  0  0  0  0  0  0
   36.1630   28.3930   32.6400 H   0  0  0  0  0  0  0  0  0  0  0  0
   38.4930   24.7590   35.6980 C   0  0  0  0  0  0  0  0  0  0  0  0
   37.7830   24.3600   36.8010 C   0  0  0  0  0  0  0  0  0  0  0  0
   38.2400   23.4660   37.7440 C   0  0  0  0  0  0  0  0  0  0  0  0
   39.5160   22.9160   37.5840 C   0  0  0  0  0  0  0  0  0  0  0  0
   40.2460   23.3180   36.4640 C   0  0  0  0  0  0  0  0  0  0  0  0
   39.7720   24.2130   35.5310 C   0  0  0  0  0  0  0  0  0  0  0  0
   36.7760   24.6840   37.1100 H   0  0  0  0  0  0  0  0  0  0  0  0
   37.7450   23.1120   38.6200 H   0  0  0  0  0  0  0  0  0  0  0  0
   39.9820   22.2100   38.2500 H   0  0  0  0  0  0  0  0  0  0  0  0
   41.2410   22.9680   36.2280 H   0  0  0  0  0  0  0  0  0  0  0  0
   40.3240   24.5350   34.6590 H   0  0  0  0  0  0  0  0  0  0  0  0
   37.7390   24.1500   32.8690 C   0  0  0  0  0  3  0  0  0  0  0  0
   38.8840   24.3070   31.8880 C   0  0  0  0  0  2  0  0  0  0  0  0
   38.5390   23.4320   30.7300 C   0  0  0  0  0  2  0  0  0  0  0  0
   37.1610   22.8360   30.9900 C   0  0  0  0  0  2  0  0  0  0  0  0
   36.5410   23.7340   32.0420 C   0  0  0  0  0  2  0  0  0  0  0  0
  1  7  1  0  0  0  0
  2  1  1  0  0  0  0
  2  9  1  0  0  0  0
  3  2  2  0  0  0  0
  4  5  2  0  0  0  0
  4  3  1  0  0  0  0
  5  6  1  0  0  0  0
  6  1  2  0  0  0  0
  8  5  1  0  0  0  0
  9 10  1  0  0  0  0
 10 15  1  0  0  0  0
 10 11  2  0  0  0  0
 11 16  1  0  0  0  0
 12 11  1  0  0  0  0
 12 17  1  0  0  0  0
 13 12  2  0  0  0  0
 14  9  2  0  0  0  0
 14 13  1  0  0  0  0
 18 13  1  0  0  0  0
 19 14  1  0  0  0  0
 20  3  1  0  0  0  0
 21 20  1  0  0  0  0
 22 23  1  0  0  0  0
 22 21  1  0  0  0  0
 23 24  1  0  0  0  0
 24 20  1  0  0  0  0
M  END
>  <minimizedAffinity>
-4.57989931

$$$$

 OpenBabel03272506223D

 24 26  0  0  0  0  0  0  0  0999 V2000
   35.4140   24.4910   31.0480 C   0  0  0  0  0  0  0  0  0  0  0  0
   36.2980   23.6710   31.8100 C   0  0  0  0  0  0  0  0  0  0  0  0
   37.2220   24.3180   32.6490 C   0  0  0  0  0  0  0  0  0  0  0  0
   37.2220   25.6750   32.6860 N   0  0  0  0  0  0  0  0  0  0  0  0
   36.3660   26.4330   31.9460 C   0  0  0  0  0  0  0  0  0  0  0  0
   35.4790   25.8340   31.1420 N   0  0  0  0  0  0  0  0  0  0  0  0
   34.6650   24.1030   30.3720 H   0  0  0  0  0  0  0  0  0  0  0  0
   36.4580   27.5080   32.0570 H   0  0  0  0  0  0  0  0  0  0  0  0
   36.1570   22.2420   31.6450 C   0  0  0  0  0  0  0  0  0  0  0  0
   35.1120   21.6350   32.2930 C   0  0  0  0  0  0  0  0  0  0  0  0
   34.8320   20.2870   32.2330 C   0  0  0  0  0  0  0  0  0  0  0  0
   35.6600   19.4630   31.4640 C   0  0  0  0  0  0  0  0  0  0  0  0
   36.7270   20.0740   30.8030 C   0  0  0  0  0  0  0  0  0  0  0  0
   36.9910   21.4240   30.8740 C   0  0  0  0  0  0  0  0  0  0  0  0
   34.3610   22.1020   32.9510 H   0  0  0  0  0  0  0  0  0  0  0  0
   34.0410   19.7510   32.7060 H   0  0  0  0  0  0  0  0  0  0  0  0
   35.5450   18.4000   31.3380 H   0  0  0  0  0  0  0  0  0  0  0  0
   37.4380   19.5490   30.1800 H   0  0  0  0  0  0  0  0  0  0  0  0
   37.8130   21.9130   30.3690 H   0  0  0  0  0  0  0  0  0  0  0  0
   38.1350   23.5420   33.4720 C   0  0  0  0  0  3  0  0  0  0  0  0
   38.2580   24.2250   34.8200 C   0  0  0  0  0  2  0  0  0  0  0  0
   39.6900   24.0790   35.2120 C   0  0  0  0  0  2  0  0  0  0  0  0
   40.4200   23.3930   34.0630 C   0  0  0  0  0  2  0  0  0  0  0  0
   39.5180   23.5850   32.8590 C   0  0  0  0  0  2  0  0  0  0  0  0
  1  6  2  0  0  0  0
  1  2  1  0  0  0  0
  2  3  2  0  0  0  0
  3  4  1  0  0  0  0
  3 20  1  0  0  0  0
  5  8  1  0  0  0  0
  5  4  2  0  0  0  0
  6  5  1  0  0  0  0
  7  1  1  0  0  0  0
  9  2  1  0  0  0  0
  9 10  1  0  0  0  0
 10 15  1  0  0  0  0
 11 10  2  0  0  0  0
 11 16  1  0  0  0  0
 12 11  1  0  0  0  0
 13 14  1  0  0  0  0
 13 12  2  0  0  0  0
 14  9  2  0  0  0  0
 17 12  1  0  0  0  0
 18 13  1  0  0  0  0
 19 14  1  0  0  0  0
 20 21  1  0  0  0  0
 21 22  1  0  0  0  0
 23 22  1  0  0  0  0
 24 20  1  0  0  0  0
 24 23  1  0  0  0  0
M  END
>  <minimizedAffinity>
-4.56448269

$$$$
