
 OpenBabel03272510343D

 24 26  0  0  0  0  0  0  0  0999 V2000
   36.9620   30.7640   46.1380 C   0  0  0  0  0  0  0  0  0  0  0  0
   36.1930   30.3780   45.0640 C   0  0  0  0  0  0  0  0  0  0  0  0
   34.9240   29.8610   45.2870 C   0  0  0  0  0  0  0  0  0  0  0  0
   34.4600   29.7440   46.5710 C   0  0  0  0  0  0  0  0  0  0  0  0
   35.2310   30.1310   47.6580 C   0  0  0  0  0  0  0  0  0  0  0  0
   36.5160   30.6560   47.4660 C   0  0  0  0  0  0  0  0  0  0  0  0
   36.5440   30.4640   44.0430 H   0  0  0  0  0  0  0  0  0  0  0  0
   34.3050   29.5530   44.4650 H   0  0  0  0  0  0  0  0  0  0  0  0
   33.4520   29.3300   46.7000 H   0  0  0  0  0  0  0  0  0  0  0  0
   34.7880   30.0040   48.6320 H   0  0  0  0  0  0  0  0  0  0  0  0
   39.5640   33.1610   45.2300 C   0  0  0  0  0  0  0  0  0  0  0  0
   40.7450   32.4270   45.2670 C   0  0  0  0  0  0  0  0  0  0  0  0
   40.6400   31.0490   45.6180 C   0  0  0  0  0  0  0  0  0  0  0  0
   39.4130   30.5380   45.8940 N   0  0  0  0  0  0  0  0  0  0  0  0
   38.2880   31.2960   45.8440 C   0  0  0  0  0  0  0  0  0  0  0  0
   38.4020   32.5880   45.5120 N   0  0  0  0  0  0  0  0  0  0  0  0
   39.7050   34.1960   44.9570 H   0  0  0  0  0  0  0  0  0  0  0  0
   41.7610   32.7460   45.0660 H   0  0  0  0  0  0  0  0  0  0  0  0
   41.4580   30.3610   45.6890 H   0  0  0  0  0  0  0  0  0  0  0  0
   37.3280   31.0670   48.6150 C   0  0  0  0  0  3  0  0  0  0  0  0
   36.5750   31.6660   49.7530 C   0  0  0  0  0  2  0  0  0  0  0  0
   37.0940   31.0110   51.0380 C   0  0  0  0  0  2  0  0  0  0  0  0
   37.4270   29.6230   50.5540 C   0  0  0  0  0  2  0  0  0  0  0  0
   38.0530   29.8740   49.2180 C   0  0  0  0  0  2  0  0  0  0  0  0
  1  6  1  0  0  0  0
  2  3  1  0  0  0  0
  2  1  2  0  0  0  0
  3  4  2  0  0  0  0
  4  9  1  0  0  0  0
  4  5  1  0  0  0  0
  5 10  1  0  0  0  0
  6  5  2  0  0  0  0
  6 20  1  0  0  0  0
  7  2  1  0  0  0  0
  8  3  1  0  0  0  0
 11 12  2  0  0  0  0
 11 16  1  0  0  0  0
 12 13  1  0  0  0  0
 13 19  1  0  0  0  0
 13 14  2  0  0  0  0
 15 14  1  0  0  0  0
 15  1  1  0  0  0  0
 16 15  2  0  0  0  0
 17 11  1  0  0  0  0
 18 12  1  0  0  0  0
 20 24  1  0  0  0  0
 20 21  1  0  0  0  0
 21 22  1  0  0  0  0
 23 22  1  0  0  0  0
 24 23  1  0  0  0  0
M  END
>  <minimizedAffinity>
-5.65931129

>  <minimizedRMSD>
2.97651005

$$$$
