
     RDKit          3D

 36 38  0  0  0  0  0  0  0  0999 V2000
   36.8039   32.1812   50.1292 Cl  0  0  0  0  0  0  0  0  0  0  0  0
   37.5431   31.9276   48.5907 C   0  0  0  0  0  0  0  0  0  0  0  0
   36.9608   30.9159   47.8830 C   0  0  0  0  0  0  0  0  0  0  0  0
   37.4829   30.6131   46.5994 C   0  0  0  0  0  0  0  0  0  0  0  0
   38.5372   31.3087   46.0797 C   0  0  0  0  0  0  0  0  0  0  0  0
   39.0995   32.3190   46.8160 C   0  0  0  0  0  0  0  0  0  0  0  0
   40.4401   33.2293   46.1961 Cl  0  0  0  0  0  0  0  0  0  0  0  0
   38.6045   32.6147   48.0464 C   0  0  0  0  0  0  0  0  0  0  0  0
   36.0313   29.0928   49.2525 C   0  0  0  0  0  0  0  0  0  0  0  0
   35.8331   30.0385   48.2300 C   0  0  0  0  0  0  0  0  0  0  0  0
   34.5862   30.0949   47.6016 C   0  0  0  0  0  0  0  0  0  0  0  0
   33.6379   29.2134   48.0340 N   0  0  0  0  0  0  0  0  0  0  0  0
   33.8659   28.3169   49.0217 C   0  0  0  0  0  0  0  0  0  0  0  0
   35.0806   28.2556   49.6402 N   0  0  0  0  0  0  0  0  0  0  0  0
   39.1428   33.6843   48.9099 C   0  0  0  0  0  0  0  0  0  0  0  0
   39.2712   34.8949   48.6448 O   0  0  0  0  0  0  0  0  0  0  0  0
   39.6232   33.5322   50.2259 O   0  0  0  0  0  0  0  0  0  0  0  0
   37.0922   29.8322   45.9627 H   0  0  0  0  0  0  0  0  0  0  0  0
   38.9589   31.1018   45.1028 H   0  0  0  0  0  0  0  0  0  0  0  0
   36.9996   29.0519   49.7376 H   0  0  0  0  0  0  0  0  0  0  0  0
   34.4490   30.8110   46.8332 H   0  0  0  0  0  0  0  0  0  0  0  0
   33.0834   27.6329   49.3359 H   0  0  0  0  0  0  0  0  0  0  0  0
   40.1213   34.5435   51.0141 C   0  0  0  0  0  0  0  0  0  0  0  0
   41.3609   35.2114   50.4703 C   0  0  0  0  0  0  0  0  0  0  0  0
   41.8496   35.9491   51.7100 C   0  0  0  0  0  0  0  0  0  0  0  0
   41.5047   35.0120   52.8652 C   0  0  0  0  0  0  0  0  0  0  0  0
   40.6114   33.9498   52.3161 C   0  0  0  0  0  0  0  0  0  0  0  0
   39.3920   35.3451   51.1991 H   0  0  0  0  0  0  0  0  0  0  0  0
   41.1281   35.9778   49.6946 H   0  0  0  0  0  0  0  0  0  0  0  0
   42.1126   34.5341   50.0754 H   0  0  0  0  0  0  0  0  0  0  0  0
   41.2578   36.8869   51.8527 H   0  0  0  0  0  0  0  0  0  0  0  0
   42.9087   36.1975   51.6597 H   0  0  0  0  0  0  0  0  0  0  0  0
   42.4507   34.5858   53.3046 H   0  0  0  0  0  0  0  0  0  0  0  0
   40.9863   35.5519   53.6899 H   0  0  0  0  0  0  0  0  0  0  0  0
   39.7368   33.7757   52.9794 H   0  0  0  0  0  0  0  0  0  0  0  0
   41.1202   33.0027   52.1140 H   0  0  0  0  0  0  0  0  0  0  0  0
  2  1  1  0
  3 10  1  0
  3  2  2  0
  4  3  1  0
  5  4  2  0
  5  6  1  0
  6  8  2  0
  7  6  1  0
  8  2  1  0
  8 15  1  0
  9 14  2  0
 10  9  1  0
 11 12  1  0
 11 10  2  0
 12 13  2  0
 13 14  1  0
 15 17  1  0
 16 15  2  0
  4 18  1  0
  5 19  1  0
  9 20  1  0
 11 21  1  0
 13 22  1  0
 23 24  1  0
 24 25  1  0
 25 26  1  0
 26 27  1  0
 27 23  1  0
 23 28  1  0
 24 29  1  0
 24 30  1  0
 25 31  1  0
 25 32  1  0
 26 33  1  0
 26 34  1  0
 27 35  1  0
 27 36  1  0
 17 23  1  0
M  ISO  5  18  14  19  14  20  14  21  14  22  14
M  END
>  <DihAtoms>  (1) 
14,16,22,23

>  <DihDeg>  (1) 
-122.22984835029013

$$$$
