
 OpenBabel03272507343D

 32 35  0  0  1  0  0  0  0  0999 V2000
   35.8180   29.1180   49.7930 C   0  0  0  0  0  0  0  0  0  0  0  0
   34.7870   29.6270   50.5490 C   0  0  0  0  0  0  0  0  0  0  0  0
   33.5970   29.0790   50.0550 C   0  0  0  0  0  0  0  0  0  0  0  0
   33.9830   28.2610   49.0170 C   0  0  0  0  0  0  0  0  0  0  0  0
   35.2920   28.3140   48.8990 O   0  0  0  0  0  0  0  0  0  0  0  0
   34.8500   30.3310   51.3890 H   0  0  0  0  0  0  0  0  0  0  0  0
   32.5860   29.2550   50.4080 H   0  0  0  0  0  0  0  0  0  0  0  0
   37.2090   29.4750   50.0310 C   0  0  0  0  0  0  0  0  0  0  0  0
   37.8460   28.8760   50.9040 O   0  0  0  0  0  0  0  0  0  0  0  0
   37.7580   30.5220   49.2160 C   0  0  0  0  0  0  0  0  0  0  0  0
   38.1010   31.7040   49.8540 C   0  0  0  0  0  0  0  0  0  0  0  0
   38.6360   32.7450   49.0890 C   0  0  0  0  0  0  0  0  0  0  0  0
   38.7970   32.5410   47.7380 N   0  0  0  0  0  0  0  0  0  0  0  0
   38.4540   31.3850   47.1570 C   0  0  0  0  0  0  0  0  0  0  0  0
   37.9400   30.3820   47.8830 N   0  0  0  0  0  0  0  0  0  0  0  0
   37.9850   31.8950   50.9230 H   0  0  0  0  0  0  0  0  0  0  0  0
   38.9100   33.6710   49.5600 H   0  0  0  0  0  0  0  0  0  0  0  0
   38.5920   31.2510   46.0860 H   0  0  0  0  0  0  0  0  0  0  0  0
   33.0920   27.4570   48.1820 C   0  0  0  0  0  0  0  0  0  0  0  0
   31.8510   27.4250   48.4740 O   0  0  0  0  0  0  0  0  0  0  0  0
   33.6390   26.6890   47.0140 C   0  0  1  0  0  0  0  0  0  0  0  0
   33.7670   25.1660   47.3880 C   0  0  0  0  0  0  0  0  0  0  0  0
   32.8330   25.6640   46.3490 C   0  0  2  0  0  0  0  0  0  0  0  0
   34.6600   27.0200   46.7320 H   0  0  0  0  0  0  0  0  0  0  0  0
   33.2990   24.8380   48.3270 H   0  0  0  0  0  0  0  0  0  0  0  0
   34.6810   24.6420   47.1340 H   0  0  0  0  0  0  0  0  0  0  0  0
   31.7540   25.6410   46.5540 H   0  0  0  0  0  0  0  0  0  0  0  0
   33.1830   25.4410   44.8770 C   0  0  0  0  0  3  0  0  0  0  0  0
   32.6590   24.1100   44.3860 C   0  0  0  0  0  2  0  0  0  0  0  0
   33.5590   23.9130   43.1580 C   0  0  0  0  0  2  0  0  0  0  0  0
   34.9220   24.0890   43.8390 C   0  0  0  0  0  2  0  0  0  0  0  0
   34.6790   25.3070   44.7070 C   0  0  0  0  0  2  0  0  0  0  0  0
  1  8  1  0  0  0  0
  1  2  2  0  0  0  0
  2  6  1  0  0  0  0
  3  7  1  0  0  0  0
  3  2  1  0  0  0  0
  4  3  2  0  0  0  0
  5  4  1  0  0  0  0
  5  1  1  0  0  0  0
  8  9  2  0  0  0  0
 10 11  1  0  0  0  0
 10  8  1  0  0  0  0
 11 16  1  0  0  0  0
 12 17  1  0  0  0  0
 12 11  2  0  0  0  0
 13 12  1  0  0  0  0
 14 13  2  0  0  0  0
 14 15  1  0  0  0  0
 15 10  2  0  0  0  0
 18 14  1  0  0  0  0
 19 20  2  0  0  0  0
 19  4  1  0  0  0  0
 21 24  1  6  0  0  0
 21 22  1  0  0  0  0
 21 19  1  0  0  0  0
 22 25  1  0  0  0  0
 23 27  1  1  0  0  0
 23 21  1  0  0  0  0
 23 22  1  0  0  0  0
 26 22  1  0  0  0  0
 28 23  1  0  0  0  0
 29 28  1  0  0  0  0
 30 31  1  0  0  0  0
 30 29  1  0  0  0  0
 31 32  1  0  0  0  0
 32 28  1  0  0  0  0
M  END
>  <minimizedAffinity>
-4.96742582

>  <minimizedRMSD>
0.252287745

$$$$
