REMARK  Name = 
REMARK  3 active torsions:
REMARK  status: ('A' for Active; 'I' for Inactive)
REMARK    1  A    between atoms: N_1  and  C_7
REMARK    2  A    between atoms: C_6  and  O_13
REMARK    3  A    between atoms: O_13  and  C_26
REMARK                            x       y       z     vdW  Elec       q    Type
REMARK                         _______ _______ _______ _____ _____    ______ ____
ROOT
ATOM      1  N   UNL     1      35.975  29.640  48.862  0.00  0.00    +0.000 N 
ATOM      2  C   UNL     1      36.569  28.861  49.928  0.00  0.00    +0.000 C 
ATOM      3  C   UNL     1      37.044  29.575  51.114  0.00  0.00    +0.000 C 
ATOM      4  C   UNL     1      37.423  30.985  50.984  0.00  0.00    +0.000 C 
ATOM      5  C   UNL     1      36.816  31.686  49.794  0.00  0.00    +0.000 C 
ATOM      6  C   UNL     1      36.842  30.752  48.579  0.00  0.00    +0.000 C 
ATOM      7  H   UNL     1      37.427  28.316  49.439  0.00  0.00    +0.000 HD
ATOM      8  H   UNL     1      35.836  28.069  50.196  0.00  0.00    +0.000 HD
ATOM      9  H   UNL     1      36.256  29.477  51.910  0.00  0.00    +0.000 HD
ATOM     10  H   UNL     1      37.916  29.016  51.541  0.00  0.00    +0.000 HD
ATOM     11  H   UNL     1      37.087  31.572  51.889  0.00  0.00    +0.000 HD
ATOM     12  H   UNL     1      38.533  31.119  50.971  0.00  0.00    +0.000 HD
ATOM     13  H   UNL     1      37.409  32.595  49.535  0.00  0.00    +0.000 HD
ATOM     14  H   UNL     1      35.765  31.946  49.989  0.00  0.00    +0.000 HD
ATOM     15  H   UNL     1      36.515  31.319  47.705  0.00  0.00    +0.000 HD
ENDROOT
BRANCH   1  16
ATOM     16  C   UNL     1      34.735  29.332  48.217  0.00  0.00    +0.000 A 
ATOM     17  C   UNL     1      34.246  30.005  47.101  0.00  0.00    +0.000 A 
ATOM     18  C   UNL     1      33.032  29.615  46.565  0.00  0.00    +0.000 A 
ATOM     19  N   UNL     1      32.373  28.582  47.164  0.00  0.00    +0.000 NA
ATOM     20  C   UNL     1      32.879  27.954  48.246  0.00  0.00    +0.000 A 
ATOM     21  N   UNL     1      34.054  28.334  48.762  0.00  0.00    +0.000 NA
ATOM     22  H   UNL     1      34.828  30.800  46.697  0.00  0.00    +0.000 HD
ATOM     23  H   UNL     1      32.647  30.134  45.698  0.00  0.00    +0.000 HD
ATOM     24  H   UNL     1      32.312  27.141  48.680  0.00  0.00    +0.000 HD
ENDBRANCH   1  16
BRANCH   6  25
ATOM     25  O   UNL     1      38.182  30.335  48.469  0.00  0.00    +0.000 OA
BRANCH  25  26
ATOM     26  C   UNL     1      38.652  30.793  47.261  0.00  0.00    +0.000 C 
ATOM     27  C   UNL     1      40.062  31.358  47.342  0.00  0.00    +0.000 C 
ATOM     28  C   UNL     1      40.429  31.457  45.864  0.00  0.00    +0.000 C 
ATOM     29  C   UNL     1      39.567  30.475  45.136  0.00  0.00    +0.000 C 
ATOM     30  C   UNL     1      38.842  29.720  46.235  0.00  0.00    +0.000 C 
ENDBRANCH  25  26
ENDBRANCH   6  25
TORSDOF 3
