
 OpenBabel03272502433D

 24 26  0  0  0  0  0  0  0  0999 V2000
   38.0490   33.0690   49.6080 C   0  0  0  0  0  0  0  0  0  0  0  0
   38.9540   33.2480   48.5620 C   0  0  0  0  0  0  0  0  0  0  0  0
   38.8330   32.3860   47.4430 C   0  0  0  0  0  0  0  0  0  0  0  0
   37.8490   31.4630   47.4880 N   0  0  0  0  0  0  0  0  0  0  0  0
   36.9910   31.3170   48.5170 C   0  0  0  0  0  0  0  0  0  0  0  0
   37.1070   32.1340   49.5740 N   0  0  0  0  0  0  0  0  0  0  0  0
   38.2080   33.7610   50.4160 H   0  0  0  0  0  0  0  0  0  0  0  0
   39.7500   33.9770   48.4990 H   0  0  0  0  0  0  0  0  0  0  0  0
   37.2950   29.1530   50.5170 Cl  0  0  0  0  0  0  0  0  0  0  0  0
   36.0140   29.2300   49.3490 C   0  0  0  0  0  0  0  0  0  0  0  0
   35.9560   30.2760   48.4580 C   0  0  0  0  0  0  0  0  0  0  0  0
   34.9700   30.3880   47.5160 C   0  0  0  0  0  0  0  0  0  0  0  0
   33.9830   29.4110   47.4470 C   0  0  0  0  0  0  0  0  0  0  0  0
   34.0060   28.3500   48.3190 C   0  0  0  0  0  0  0  0  0  0  0  0
   32.8160   27.0540   48.3310 Cl  0  0  0  0  0  0  0  0  0  0  0  0
   35.0220   28.2930   49.2420 C   0  0  0  0  0  0  0  0  0  0  0  0
   34.9570   31.2190   46.8390 H   0  0  0  0  0  0  0  0  0  0  0  0
   33.1790   29.4410   46.7280 H   0  0  0  0  0  0  0  0  0  0  0  0
   35.0680   27.4590   49.9530 H   0  0  0  0  0  0  0  0  0  0  0  0
   39.6960   32.4180   46.2380 C   0  0  0  0  0  0  0  0  0  0  0  0
   38.7940   32.7110   45.0450 C   0  0  0  0  0  0  0  0  0  0  0  0
   39.6550   32.2720   43.8660 C   0  0  0  0  0  0  0  0  0  0  0  0
   40.6660   31.3120   44.4130 C   0  0  0  0  0  0  0  0  0  0  0  0
   40.2550   31.0790   45.8530 C   0  0  0  0  0  0  0  0  0  0  0  0
  1  7  1  0  0  0  0
  2  1  2  0  0  0  0
  3  4  2  0  0  0  0
  3  2  1  0  0  0  0
  4  5  1  0  0  0  0
  5  6  2  0  0  0  0
  6  1  1  0  0  0  0
  8  2  1  0  0  0  0
 10  9  1  0  0  0  0
 11  5  1  0  0  0  0
 11 10  2  0  0  0  0
 12 11  1  0  0  0  0
 13 12  2  0  0  0  0
 13 14  1  0  0  0  0
 14 15  1  0  0  0  0
 14 16  2  0  0  0  0
 16 10  1  0  0  0  0
 16 19  1  0  0  0  0
 17 12  1  0  0  0  0
 18 13  1  0  0  0  0
 20  3  1  0  0  0  0
 21 20  1  0  0  0  0
 22 23  1  0  0  0  0
 22 21  1  0  0  0  0
 23 24  1  0  0  0  0
 24 20  1  0  0  0  0
M  END
>  <minimizedAffinity>
-6.94471073

>  <minimizedRMSD>
0.487611085

$$$$
