
 OpenBabel03272501333D

 23 25  0  0  1  0  0  0  0  0999 V2000
   36.8930   31.1910   46.6710 C   0  0  2  0  0  0  0  0  0  0  0  0
   37.5570   29.8770   46.1410 C   0  0  0  0  0  0  0  0  0  0  0  0
   37.5550   31.2190   45.4140 C   0  0  2  0  0  0  0  0  0  0  0  0
   35.7820   30.9900   46.7950 H   0  0  0  0  0  0  0  0  0  0  0  0
   36.8480   29.1110   45.8430 H   0  0  0  0  0  0  0  0  0  0  0  0
   38.4470   29.5180   46.6460 H   0  0  0  0  0  0  0  0  0  0  0  0
   36.8390   31.2020   44.5240 H   0  0  0  0  0  0  0  0  0  0  0  0
   38.9150   31.6040   45.0240 C   0  0  0  0  0  0  0  0  0  0  0  0
   40.0320   30.8850   45.7340 C   0  0  0  0  0  0  0  0  0  0  0  0
   41.2250   31.7010   45.2700 C   0  0  0  0  0  0  0  0  0  0  0  0
   40.6860   33.1310   45.3940 C   0  0  0  0  0  0  0  0  0  0  0  0
   39.2460   33.0480   44.9190 C   0  0  0  0  0  0  0  0  0  0  0  0
   37.4520   31.5690   47.9900 C   0  0  0  0  0  0  0  0  0  0  0  0
   38.2860   32.5310   47.9810 O   0  0  0  0  0  0  0  0  0  0  0  0
   37.5420   30.1510   51.4430 C   0  0  0  0  0  0  0  0  0  0  0  0
   37.8950   30.8440   50.3000 C   0  0  0  0  0  0  0  0  0  0  0  0
   37.0710   30.8730   49.1830 C   0  0  0  0  0  0  0  0  0  0  0  0
   35.9270   30.2030   49.2690 N   0  0  0  0  0  0  0  0  0  0  0  0
   35.5860   29.5210   50.4000 C   0  0  0  0  0  0  0  0  0  0  0  0
   36.3660   29.4890   51.4670 N   0  0  0  0  0  0  0  0  0  0  0  0
   38.1960   30.1360   52.3070 H   0  0  0  0  0  0  0  0  0  0  0  0
   38.8360   31.3670   50.2960 H   0  0  0  0  0  0  0  0  0  0  0  0
   34.6420   28.9730   50.4610 H   0  0  0  0  0  0  0  0  0  0  0  0
  1  4  1  6  0  0  0
  1 13  1  0  0  0  0
  2  6  1  0  0  0  0
  2  1  1  0  0  0  0
  3  7  1  6  0  0  0
  3  2  1  0  0  0  0
  3  1  1  0  0  0  0
  5  2  1  0  0  0  0
  8  3  1  0  0  0  0
  8  9  1  0  0  0  0
 10 11  1  0  0  0  0
 10  9  1  0  0  0  0
 12  8  1  0  0  0  0
 12 11  1  0  0  0  0
 13 17  1  0  0  0  0
 14 13  2  0  0  0  0
 15 20  1  0  0  0  0
 15 21  1  0  0  0  0
 16 15  2  0  0  0  0
 17 18  2  0  0  0  0
 17 16  1  0  0  0  0
 18 19  1  0  0  0  0
 19 23  1  0  0  0  0
 19 20  2  0  0  0  0
 22 16  1  0  0  0  0
M  END
>  <minimizedAffinity>
-4.446805

>  <minimizedRMSD>
2.0809989

$$$$
