
 OpenBabel03272509093D

 36 39  0  0  0  0  0  0  0  0999 V2000
   35.1970   28.5100   48.9940 C   0  0  0  0  0  3  0  0  0  0  0  0
   33.9580   28.6470   49.3350 C   0  0  0  0  0  3  0  0  0  0  0  0
   37.3800   30.1330   51.4310 C   0  0  0  0  0  0  0  0  0  0  0  0
   38.1160   31.0130   50.6230 C   0  0  0  0  0  0  0  0  0  0  0  0
   37.8370   31.0270   49.2340 C   0  0  0  0  0  0  0  0  0  0  0  0
   36.8660   30.1800   48.7660 N   0  0  0  0  0  0  0  0  0  0  0  0
   36.1990   29.3570   49.6150 C   0  0  0  0  0  0  0  0  0  0  0  0
   36.4570   29.3390   50.9260 N   0  0  0  0  0  0  0  0  0  0  0  0
   37.6690   30.2030   52.4590 H   0  0  0  0  0  0  0  0  0  0  0  0
   38.8910   31.7050   50.9270 H   0  0  0  0  0  0  0  0  0  0  0  0
   38.5360   31.8990   48.2950 C   0  0  0  0  0  0  0  0  0  0  0  0
   38.8750   31.4960   47.0280 C   0  0  0  0  0  0  0  0  0  0  0  0
   39.5260   32.5690   46.4080 C   0  0  0  0  0  0  0  0  0  0  0  0
   39.5550   33.5750   47.3210 N   0  0  0  0  0  0  0  0  0  0  0  0
   38.9610   33.1700   48.4490 N   0  0  0  0  0  0  0  0  0  0  0  0
   38.6780   30.5150   46.5700 H   0  0  0  0  0  0  0  0  0  0  0  0
   39.9040   32.5410   45.4100 H   0  0  0  0  0  0  0  0  0  0  0  0
   39.9990   34.4900   47.0760 H   0  0  0  0  0  0  0  0  0  0  0  0
   32.7990   27.8940   48.8290 C   0  0  0  0  0  0  0  0  0  0  0  0
   32.6480   27.0440   49.5460 H   0  0  0  0  0  0  0  0  0  0  0  0
   31.8690   28.4590   48.8090 H   0  0  0  0  0  0  0  0  0  0  0  0
   33.0620   27.2140   47.5230 C   0  0  0  0  0  0  0  0  0  0  0  0
   33.6430   25.9520   47.4210 C   0  0  0  0  0  0  0  0  0  0  0  0
   33.8630   25.3700   46.1950 C   0  0  0  0  0  0  0  0  0  0  0  0
   33.5100   26.0270   45.0330 C   0  0  0  0  0  0  0  0  0  0  0  0
   32.9430   27.2600   45.1310 C   0  0  0  0  0  0  0  0  0  0  0  0
   32.7150   27.8580   46.3540 C   0  0  0  0  0  0  0  0  0  0  0  0
   33.8800   25.5260   48.3940 H   0  0  0  0  0  0  0  0  0  0  0  0
   34.3180   24.3960   46.3080 H   0  0  0  0  0  0  0  0  0  0  0  0
   33.7310   25.4720   44.1440 H   0  0  0  0  0  0  0  0  0  0  0  0
   32.6880   27.7250   44.1880 H   0  0  0  0  0  0  0  0  0  0  0  0
   32.0950   29.1890   46.3030 C   0  0  0  0  0  3  0  0  0  0  0  0
   31.1030   29.1990   45.1670 C   0  0  0  0  0  2  0  0  0  0  0  0
   31.8120   29.9420   44.0580 C   0  0  0  0  0  2  0  0  0  0  0  0
   32.7740   30.8790   44.7160 C   0  0  0  0  0  2  0  0  0  0  0  0
   33.0350   30.3250   46.0900 C   0  0  0  0  0  2  0  0  0  0  0  0
  1  2  2  0  0  0  0
  1  7  1  0  0  0  0
  3  9  1  0  0  0  0
  4 10  1  0  0  0  0
  4  3  2  0  0  0  0
  5  4  1  0  0  0  0
  6  5  2  0  0  0  0
  6  7  1  0  0  0  0
  7  8  2  0  0  0  0
  8  3  1  0  0  0  0
 11 15  2  0  0  0  0
 11  5  1  0  0  0  0
 12 11  1  0  0  0  0
 13 12  2  0  0  0  0
 13 14  1  0  0  0  0
 14 15  1  0  0  0  0
 16 12  1  0  0  0  0
 17 13  1  0  0  0  0
 18 14  1  0  0  0  0
 19  2  1  0  0  0  0
 19 20  1  0  0  0  0
 21 19  1  0  0  0  0
 22 19  1  0  0  0  0
 23 22  1  0  0  0  0
 23 28  1  0  0  0  0
 24 29  1  0  0  0  0
 24 23  2  0  0  0  0
 25 26  2  0  0  0  0
 25 24  1  0  0  0  0
 26 27  1  0  0  0  0
 27 22  2  0  0  0  0
 30 25  1  0  0  0  0
 31 26  1  0  0  0  0
 32 27  1  0  0  0  0
 33 32  1  0  0  0  0
 34 35  1  0  0  0  0
 34 33  1  0  0  0  0
 35 36  1  0  0  0  0
 36 32  1  0  0  0  0
M  END
>  <minimizedAffinity>
-6.31039572

>  <minimizedRMSD>
1.35704732

$$$$
