
 OpenBabel03272510273D

 41 45  0  0  1  0  0  0  0  0999 V2000
   36.2560   30.1660   46.9330 C   0  0  0  0  0  0  0  0  0  0  0  0
   37.0750   30.7400   47.9030 C   0  0  0  0  0  0  0  0  0  0  0  0
   38.0530   31.6780   47.5590 C   0  0  0  0  0  0  0  0  0  0  0  0
   38.1560   31.9970   46.2090 C   0  0  0  0  0  0  0  0  0  0  0  0
   39.0230   32.8800   45.6310 N   0  0  0  0  0  0  0  0  0  0  0  0
   38.7580   32.8640   44.3180 C   0  0  0  0  0  0  0  0  0  0  0  0
   37.7720   32.0150   44.0710 N   0  0  0  0  0  0  0  0  0  0  0  0
   37.3680   31.4550   45.2230 C   0  0  0  0  0  0  0  0  0  0  0  0
   36.3990   30.5180   45.6020 C   0  0  0  0  0  0  0  0  0  0  0  0
   35.4980   29.4390   47.1980 H   0  0  0  0  0  0  0  0  0  0  0  0
   38.6980   32.1320   48.3080 H   0  0  0  0  0  0  0  0  0  0  0  0
   39.7590   33.4590   46.1220 H   0  0  0  0  0  0  0  0  0  0  0  0
   35.7790   30.0910   44.8240 H   0  0  0  0  0  0  0  0  0  0  0  0
   37.4240   30.1160   51.5830 C   0  0  0  0  0  0  0  0  0  0  0  0
   37.7690   30.5690   50.3220 C   0  0  0  0  0  0  0  0  0  0  0  0
   36.8910   30.3440   49.2870 C   0  0  0  0  0  0  0  0  0  0  0  0
   35.7190   29.6760   49.5810 N   0  0  0  0  0  0  0  0  0  0  0  0
   35.4040   29.2440   50.8180 C   0  0  0  0  0  0  0  0  0  0  0  0
   36.2490   29.4630   51.8010 N   0  0  0  0  0  0  0  0  0  0  0  0
   38.1740   30.3360   52.3400 H   0  0  0  0  0  0  0  0  0  0  0  0
   38.6830   31.0920   50.0790 H   0  0  0  0  0  0  0  0  0  0  0  0
   34.4670   28.7280   50.9780 H   0  0  0  0  0  0  0  0  0  0  0  0
   39.4570   33.6520   43.4020 O   0  0  0  0  0  0  0  0  0  0  0  0
   39.7520   31.8850   41.9500 N   0  0  0  0  0  0  0  0  0  0  0  0
   39.3280   33.2740   42.0400 C   0  0  1  0  0  0  0  0  0  0  0  0
   37.9530   33.4170   41.5880 C   0  0  0  0  0  0  0  0  0  0  0  0
   37.8850   33.0530   40.2310 O   0  0  0  0  0  0  0  0  0  0  0  0
   38.3670   31.8110   39.9330 C   0  0  0  0  0  0  0  0  0  0  0  0
   39.7460   31.6110   40.5340 C   0  0  2  0  0  0  0  0  0  0  0  0
   39.1540   31.1830   42.3590 H   0  0  0  0  0  0  0  0  0  0  0  0
   40.0150   33.8550   41.4010 H   0  0  0  0  0  0  0  0  0  0  0  0
   37.7240   34.5270   41.5600 H   0  0  0  0  0  0  0  0  0  0  0  0
   37.1100   32.9500   42.0180 H   0  0  0  0  0  0  0  0  0  0  0  0
   37.6380   31.0730   40.3030 H   0  0  0  0  0  0  0  0  0  0  0  0
   38.5000   31.7570   38.8450 H   0  0  0  0  0  0  0  0  0  0  0  0
   40.3650   32.4210   40.0800 H   0  0  0  0  0  0  0  0  0  0  0  0
   40.3790   30.3280   40.1540 C   0  0  0  0  0  3  0  0  0  0  0  0
   41.1300   29.7100   41.3040 C   0  0  0  0  0  2  0  0  0  0  0  0
   41.7480   28.5040   40.5840 C   0  0  0  0  0  2  0  0  0  0  0  0
   42.3060   29.1740   39.3480 C   0  0  0  0  0  2  0  0  0  0  0  0
   41.4460   30.4230   39.1100 C   0  0  0  0  0  2  0  0  0  0  0  0
  1 10  1  0  0  0  0
  1  2  1  0  0  0  0
  2 16  1  0  0  0  0
  3  2  2  0  0  0  0
  3 11  1  0  0  0  0
  4  3  1  0  0  0  0
  5 12  1  0  0  0  0
  5  4  1  0  0  0  0
  6  5  1  0  0  0  0
  7  6  2  0  0  0  0
  7  8  1  0  0  0  0
  8  9  1  0  0  0  0
  8  4  2  0  0  0  0
  9  1  2  0  0  0  0
 13  9  1  0  0  0  0
 14 19  1  0  0  0  0
 14 20  1  0  0  0  0
 15 14  2  0  0  0  0
 16 17  2  0  0  0  0
 16 15  1  0  0  0  0
 17 18  1  0  0  0  0
 18 22  1  0  0  0  0
 18 19  2  0  0  0  0
 21 15  1  0  0  0  0
 23  6  1  0  0  0  0
 24 25  1  0  0  0  0
 24 30  1  0  0  0  0
 25 31  1  6  0  0  0
 25 23  1  0  0  0  0
 26 33  1  0  0  0  0
 26 25  1  0  0  0  0
 27 26  1  0  0  0  0
 28 27  1  0  0  0  0
 28 34  1  0  0  0  0
 28 29  1  0  0  0  0
 29 36  1  6  0  0  0
 29 24  1  0  0  0  0
 32 26  1  0  0  0  0
 35 28  1  0  0  0  0
 37 29  1  0  0  0  0
 37 38  1  0  0  0  0
 39 38  1  0  0  0  0
 40 39  1  0  0  0  0
 41 40  1  0  0  0  0
 41 37  1  0  0  0  0
M  END
>  <minimizedAffinity>
-6.01252937

>  <minimizedRMSD>
0.299240291

$$$$
