
 OpenBabel03272510273D

 41 45  0  0  1  0  0  0  0  0999 V2000
   36.2050   30.1800   46.9920 C   0  0  0  0  0  0  0  0  0  0  0  0
   37.0490   30.7290   47.9550 C   0  0  0  0  0  0  0  0  0  0  0  0
   38.0460   31.6440   47.6040 C   0  0  0  0  0  0  0  0  0  0  0  0
   38.1410   31.9690   46.2550 C   0  0  0  0  0  0  0  0  0  0  0  0
   39.0230   32.8330   45.6720 N   0  0  0  0  0  0  0  0  0  0  0  0
   38.7420   32.8310   44.3610 C   0  0  0  0  0  0  0  0  0  0  0  0
   37.7320   32.0080   44.1220 N   0  0  0  0  0  0  0  0  0  0  0  0
   37.3280   31.4510   45.2760 C   0  0  0  0  0  0  0  0  0  0  0  0
   36.3410   30.5370   45.6610 C   0  0  0  0  0  0  0  0  0  0  0  0
   35.4320   29.4710   47.2610 H   0  0  0  0  0  0  0  0  0  0  0  0
   38.7100   32.0780   48.3480 H   0  0  0  0  0  0  0  0  0  0  0  0
   39.7780   33.3900   46.1570 H   0  0  0  0  0  0  0  0  0  0  0  0
   35.7010   30.1290   44.8880 H   0  0  0  0  0  0  0  0  0  0  0  0
   37.4170   30.0920   51.6300 C   0  0  0  0  0  0  0  0  0  0  0  0
   37.7570   30.5470   50.3690 C   0  0  0  0  0  0  0  0  0  0  0  0
   36.8710   30.3290   49.3380 C   0  0  0  0  0  0  0  0  0  0  0  0
   35.6980   29.6650   49.6380 N   0  0  0  0  0  0  0  0  0  0  0  0
   35.3890   29.2310   50.8750 C   0  0  0  0  0  0  0  0  0  0  0  0
   36.2410   29.4430   51.8540 N   0  0  0  0  0  0  0  0  0  0  0  0
   38.1720   30.3060   52.3840 H   0  0  0  0  0  0  0  0  0  0  0  0
   38.6710   31.0670   50.1220 H   0  0  0  0  0  0  0  0  0  0  0  0
   34.4510   28.7180   51.0400 H   0  0  0  0  0  0  0  0  0  0  0  0
   39.4500   33.6070   43.4420 O   0  0  0  0  0  0  0  0  0  0  0  0
   39.8620   31.7300   42.1670 N   0  0  0  0  0  0  0  0  0  0  0  0
   39.4550   33.1260   42.1060 C   0  0  1  0  0  0  0  0  0  0  0  0
   38.1380   33.2460   41.5030 C   0  0  0  0  0  0  0  0  0  0  0  0
   38.2030   32.7790   40.1790 O   0  0  0  0  0  0  0  0  0  0  0  0
   38.6920   31.5130   40.0280 C   0  0  0  0  0  0  0  0  0  0  0  0
   39.9980   31.3470   40.7830 C   0  0  2  0  0  0  0  0  0  0  0  0
   39.2130   31.0680   42.5640 H   0  0  0  0  0  0  0  0  0  0  0  0
   40.2140   33.6490   41.5010 H   0  0  0  0  0  0  0  0  0  0  0  0
   37.9320   34.3530   41.3680 H   0  0  0  0  0  0  0  0  0  0  0  0
   37.2460   32.8220   41.8780 H   0  0  0  0  0  0  0  0  0  0  0  0
   37.9160   30.8130   40.3750 H   0  0  0  0  0  0  0  0  0  0  0  0
   38.9360   31.3730   38.9670 H   0  0  0  0  0  0  0  0  0  0  0  0
   40.6740   32.1130   40.3360 H   0  0  0  0  0  0  0  0  0  0  0  0
   40.6440   30.0330   40.5700 C   0  0  0  0  0  3  0  0  0  0  0  0
   41.8960   30.1500   39.7400 C   0  0  0  0  0  2  0  0  0  0  0  0
   42.2480   28.6630   39.6000 C   0  0  0  0  0  2  0  0  0  0  0  0
   40.9030   28.0950   39.2020 C   0  0  0  0  0  2  0  0  0  0  0  0
   39.8460   29.0450   39.7790 C   0  0  0  0  0  2  0  0  0  0  0  0
  1 10  1  0  0  0  0
  1  2  1  0  0  0  0
  2 16  1  0  0  0  0
  3  2  2  0  0  0  0
  3 11  1  0  0  0  0
  4  3  1  0  0  0  0
  5 12  1  0  0  0  0
  5  4  1  0  0  0  0
  6  5  1  0  0  0  0
  7  6  2  0  0  0  0
  7  8  1  0  0  0  0
  8  9  1  0  0  0  0
  8  4  2  0  0  0  0
  9  1  2  0  0  0  0
 13  9  1  0  0  0  0
 14 19  1  0  0  0  0
 14 20  1  0  0  0  0
 15 14  2  0  0  0  0
 16 17  2  0  0  0  0
 16 15  1  0  0  0  0
 17 18  1  0  0  0  0
 18 22  1  0  0  0  0
 18 19  2  0  0  0  0
 21 15  1  0  0  0  0
 23  6  1  0  0  0  0
 24 30  1  0  0  0  0
 25 31  1  6  0  0  0
 25 24  1  0  0  0  0
 25 23  1  0  0  0  0
 26 33  1  0  0  0  0
 26 25  1  0  0  0  0
 27 26  1  0  0  0  0
 28 27  1  0  0  0  0
 28 34  1  0  0  0  0
 28 29  1  0  0  0  0
 29 36  1  6  0  0  0
 29 24  1  0  0  0  0
 32 26  1  0  0  0  0
 35 28  1  0  0  0  0
 37 29  1  0  0  0  0
 38 37  1  0  0  0  0
 39 38  1  0  0  0  0
 40 39  1  0  0  0  0
 40 41  1  0  0  0  0
 41 37  1  0  0  0  0
M  END
>  <minimizedAffinity>
-5.94715118

>  <minimizedRMSD>
0.585305214

$$$$
