
 OpenBabel03272506193D

 30 32  0  0  0  0  0  0  0  0999 V2000
   35.5330   30.3160   49.7880 C   0  0  0  0  0  0  0  0  0  0  0  0
   36.4810   31.2090   49.0110 C   0  0  0  0  0  0  0  0  0  0  0  0
   37.9230   30.8280   49.1790 C   0  0  0  0  0  0  0  0  0  0  0  0
   38.3260   30.8020   50.6290 C   0  0  0  0  0  0  0  0  0  0  0  0
   37.3410   30.0860   51.5080 C   0  0  0  0  0  0  0  0  0  0  0  0
   36.2380   29.4010   50.7290 C   0  0  0  0  0  0  0  0  0  0  0  0
   34.7850   30.9660   50.2850 H   0  0  0  0  0  0  0  0  0  0  0  0
   36.3880   32.2470   49.3900 H   0  0  0  0  0  0  0  0  0  0  0  0
   36.2420   31.2270   47.9320 H   0  0  0  0  0  0  0  0  0  0  0  0
   38.0780   29.8200   48.7130 H   0  0  0  0  0  0  0  0  0  0  0  0
   38.5260   31.5650   48.6440 H   0  0  0  0  0  0  0  0  0  0  0  0
   38.3410   31.8740   50.9560 H   0  0  0  0  0  0  0  0  0  0  0  0
   39.3510   30.4150   50.7070 H   0  0  0  0  0  0  0  0  0  0  0  0
   36.8410   30.7670   52.2270 H   0  0  0  0  0  0  0  0  0  0  0  0
   37.8660   29.3060   52.0940 H   0  0  0  0  0  0  0  0  0  0  0  0
   35.5400   28.9910   51.4670 H   0  0  0  0  0  0  0  0  0  0  0  0
   36.7350   28.5950   50.1230 H   0  0  0  0  0  0  0  0  0  0  0  0
   34.7540   29.4680   48.8330 C   0  0  0  0  0  0  0  0  0  0  0  0
   34.2110   30.1420   47.7240 C   0  0  0  0  0  0  0  0  0  0  0  0
   33.4670   29.3560   46.8260 C   0  0  0  0  0  0  0  0  0  0  0  0
   33.3070   28.0070   47.0610 N   0  0  0  0  0  0  0  0  0  0  0  0
   33.8630   27.4090   48.1600 C   0  0  0  0  0  0  0  0  0  0  0  0
   34.5690   28.1390   49.0210 N   0  0  0  0  0  0  0  0  0  0  0  0
   34.2960   31.1770   47.4890 H   0  0  0  0  0  0  0  0  0  0  0  0
   33.7540   26.3700   48.3630 H   0  0  0  0  0  0  0  0  0  0  0  0
   32.8260   29.8640   45.6210 C   0  0  0  0  0  3  0  0  0  0  0  0
   31.3220   30.1100   45.8040 C   0  0  0  0  0  2  0  0  0  0  0  0
   31.0320   30.6200   44.3860 C   0  0  0  0  0  2  0  0  0  0  0  0
   31.7810   29.6130   43.5470 C   0  0  0  0  0  2  0  0  0  0  0  0
   32.8040   28.9440   44.4460 C   0  0  0  0  0  2  0  0  0  0  0  0
  1  7  1  0  0  0  0
  1  6  1  0  0  0  0
  2  3  1  0  0  0  0
  2  8  1  0  0  0  0
  2  1  1  0  0  0  0
  3  4  1  0  0  0  0
  4 13  1  0  0  0  0
  4 12  1  0  0  0  0
  4  5  1  0  0  0  0
  5 15  1  0  0  0  0
  5 14  1  0  0  0  0
  6 16  1  0  0  0  0
  6  5  1  0  0  0  0
  9  2  1  0  0  0  0
 10  3  1  0  0  0  0
 11  3  1  0  0  0  0
 17  6  1  0  0  0  0
 18 23  1  0  0  0  0
 18  1  1  0  0  0  0
 19 18  2  0  0  0  0
 20 21  2  0  0  0  0
 20 19  1  0  0  0  0
 21 22  1  0  0  0  0
 22 25  1  0  0  0  0
 22 23  2  0  0  0  0
 24 19  1  0  0  0  0
 26 27  1  0  0  0  0
 26 20  1  0  0  0  0
 28 27  1  0  0  0  0
 29 28  1  0  0  0  0
 29 30  1  0  0  0  0
 30 26  1  0  0  0  0
M  END
>  <minimizedAffinity>
-5.08954859

>  <minimizedRMSD>
0.128632754

$$$$
