
 OpenBabel03272503523D

 24 26  0  0  0  0  0  0  0  0999 V2000
   36.2410   26.2410   31.7440 C   0  0  0  0  0  0  0  0  0  0  0  0
   35.4600   25.3810   30.9790 C   0  0  0  0  0  0  0  0  0  0  0  0
   35.5850   23.9960   31.1190 C   0  0  0  0  0  0  0  0  0  0  0  0
   36.5030   23.5330   32.0380 C   0  0  0  0  0  0  0  0  0  0  0  0
   37.2810   24.3690   32.8010 C   0  0  0  0  0  0  0  0  0  0  0  0
   37.1260   25.7370   32.6300 C   0  0  0  0  0  0  0  0  0  0  0  0
   34.7350   25.7780   30.2520 H   0  0  0  0  0  0  0  0  0  0  0  0
   34.9430   23.3990   30.4890 H   0  0  0  0  0  0  0  0  0  0  0  0
   36.5290   22.4530   32.0780 H   0  0  0  0  0  0  0  0  0  0  0  0
   37.9210   23.8420   33.4510 H   0  0  0  0  0  0  0  0  0  0  0  0
   36.3780   29.7800   30.4050 C   0  0  0  0  0  0  0  0  0  0  0  0
   36.6890   28.3980   30.5270 C   0  0  0  0  0  0  0  0  0  0  0  0
   36.0210   27.6620   31.5180 C   0  0  0  0  0  0  0  0  0  0  0  0
   35.1330   28.3120   32.2850 N   0  0  0  0  0  0  0  0  0  0  0  0
   34.8570   29.6330   32.1450 C   0  0  0  0  0  0  0  0  0  0  0  0
   35.4810   30.3490   31.2080 N   0  0  0  0  0  0  0  0  0  0  0  0
   36.9120   30.3180   29.6310 H   0  0  0  0  0  0  0  0  0  0  0  0
   37.3930   27.8840   29.9210 H   0  0  0  0  0  0  0  0  0  0  0  0
   34.1120   30.0050   32.8460 H   0  0  0  0  0  0  0  0  0  0  0  0
   37.9690   26.6170   33.4720 C   0  0  0  0  0  3  0  0  0  0  0  0
   39.2610   25.9190   33.9250 C   0  0  0  0  0  2  0  0  0  0  0  0
   39.7880   26.9470   34.8950 C   0  0  0  0  0  2  0  0  0  0  0  0
   38.5480   27.3490   35.6790 C   0  0  0  0  0  2  0  0  0  0  0  0
   37.3570   26.7780   34.8890 C   0  0  0  0  0  2  0  0  0  0  0  0
  1  6  1  0  0  0  0
  2  3  1  0  0  0  0
  2  1  2  0  0  0  0
  3  4  2  0  0  0  0
  4  9  1  0  0  0  0
  4  5  1  0  0  0  0
  5 10  1  0  0  0  0
  6  5  2  0  0  0  0
  6 20  1  0  0  0  0
  7  2  1  0  0  0  0
  8  3  1  0  0  0  0
 11 12  2  0  0  0  0
 11 16  1  0  0  0  0
 12 13  1  0  0  0  0
 13  1  1  0  0  0  0
 13 14  2  0  0  0  0
 15 14  1  0  0  0  0
 15 19  1  0  0  0  0
 16 15  2  0  0  0  0
 17 11  1  0  0  0  0
 18 12  1  0  0  0  0
 20 21  1  0  0  0  0
 20 24  1  0  0  0  0
 21 22  1  0  0  0  0
 22 23  1  0  0  0  0
 24 23  1  0  0  0  0
M  END
>  <minimizedAffinity>
-5.02055693

$$$$

 OpenBabel03272503523D

 24 26  0  0  0  0  0  0  0  0999 V2000
   34.9200   30.6450   35.1340 C   0  0  0  0  0  0  0  0  0  0  0  0
   35.6950   31.6310   35.7350 C   0  0  0  0  0  0  0  0  0  0  0  0
   35.1650   32.4270   36.7540 C   0  0  0  0  0  0  0  0  0  0  0  0
   33.8580   32.1900   37.1260 C   0  0  0  0  0  0  0  0  0  0  0  0
   33.0800   31.2210   36.5420 C   0  0  0  0  0  0  0  0  0  0  0  0
   33.6450   30.4530   35.5350 C   0  0  0  0  0  0  0  0  0  0  0  0
   36.7360   31.7990   35.4180 H   0  0  0  0  0  0  0  0  0  0  0  0
   35.8300   33.1690   37.1690 H   0  0  0  0  0  0  0  0  0  0  0  0
   33.5350   32.8510   37.9190 H   0  0  0  0  0  0  0  0  0  0  0  0
   32.1110   31.1780   36.9550 H   0  0  0  0  0  0  0  0  0  0  0  0
   36.3460   29.4570   31.8340 C   0  0  0  0  0  0  0  0  0  0  0  0
   35.6690   30.3010   32.7560 C   0  0  0  0  0  0  0  0  0  0  0  0
   35.5800   29.8740   34.0890 C   0  0  0  0  0  0  0  0  0  0  0  0
   36.1390   28.6970   34.4060 N   0  0  0  0  0  0  0  0  0  0  0  0
   36.7800   27.9120   33.5040 C   0  0  0  0  0  0  0  0  0  0  0  0
   36.8760   28.3010   32.2320 N   0  0  0  0  0  0  0  0  0  0  0  0
   36.3970   29.8160   30.8130 H   0  0  0  0  0  0  0  0  0  0  0  0
   35.2260   31.2320   32.5040 H   0  0  0  0  0  0  0  0  0  0  0  0
   37.1770   26.9900   33.9250 H   0  0  0  0  0  0  0  0  0  0  0  0
   32.7900   29.4080   34.9280 C   0  0  0  0  0  3  0  0  0  0  0  0
   31.6860   30.0080   34.0410 C   0  0  0  0  0  2  0  0  0  0  0  0
   30.8850   28.7640   33.7440 C   0  0  0  0  0  2  0  0  0  0  0  0
   30.8070   28.0730   35.0970 C   0  0  0  0  0  2  0  0  0  0  0  0
   31.8390   28.7890   35.9860 C   0  0  0  0  0  2  0  0  0  0  0  0
  1  6  2  0  0  0  0
  1  2  1  0  0  0  0
  2  3  2  0  0  0  0
  3  4  1  0  0  0  0
  3  8  1  0  0  0  0
  4  9  1  0  0  0  0
  5 10  1  0  0  0  0
  5  4  2  0  0  0  0
  6  5  1  0  0  0  0
  7  2  1  0  0  0  0
 11 16  2  0  0  0  0
 11 12  1  0  0  0  0
 12 13  2  0  0  0  0
 13 14  1  0  0  0  0
 13  1  1  0  0  0  0
 15 19  1  0  0  0  0
 15 14  2  0  0  0  0
 16 15  1  0  0  0  0
 17 11  1  0  0  0  0
 18 12  1  0  0  0  0
 20  6  1  0  0  0  0
 20 24  1  0  0  0  0
 21 20  1  0  0  0  0
 22 21  1  0  0  0  0
 22 23  1  0  0  0  0
 23 24  1  0  0  0  0
M  END
>  <minimizedAffinity>
-4.85125685

$$$$

 OpenBabel03272503523D

 24 26  0  0  0  0  0  0  0  0999 V2000
   39.9580   25.1140   34.9190 C   0  0  0  0  0  0  0  0  0  0  0  0
   41.3040   24.8170   35.1040 C   0  0  0  0  0  0  0  0  0  0  0  0
   42.2930   25.6940   34.6500 C   0  0  0  0  0  0  0  0  0  0  0  0
   41.8750   26.8470   34.0200 C   0  0  0  0  0  0  0  0  0  0  0  0
   40.5500   27.1550   33.8290 C   0  0  0  0  0  0  0  0  0  0  0  0
   39.6010   26.2580   34.2950 C   0  0  0  0  0  0  0  0  0  0  0  0
   41.6090   23.8880   35.6100 H   0  0  0  0  0  0  0  0  0  0  0  0
   43.3130   25.3900   34.8330 H   0  0  0  0  0  0  0  0  0  0  0  0
   42.7070   27.4630   33.7050 H   0  0  0  0  0  0  0  0  0  0  0  0
   40.4180   28.0770   33.3360 H   0  0  0  0  0  0  0  0  0  0  0  0
   37.5150   23.2050   37.0910 C   0  0  0  0  0  0  0  0  0  0  0  0
   38.4230   24.2280   36.7060 C   0  0  0  0  0  0  0  0  0  0  0  0
   39.0180   24.1320   35.4380 C   0  0  0  0  0  0  0  0  0  0  0  0
   38.6900   23.0790   34.6750 N   0  0  0  0  0  0  0  0  0  0  0  0
   37.8190   22.1170   35.0700 C   0  0  0  0  0  0  0  0  0  0  0  0
   37.2440   22.1910   36.2700 N   0  0  0  0  0  0  0  0  0  0  0  0
   37.0740   23.3090   38.0760 H   0  0  0  0  0  0  0  0  0  0  0  0
   38.6830   25.0600   37.3110 H   0  0  0  0  0  0  0  0  0  0  0  0
   37.6640   21.3320   34.3310 H   0  0  0  0  0  0  0  0  0  0  0  0
   38.1800   26.6170   34.0870 C   0  0  0  0  0  3  0  0  0  0  0  0
   37.9820   27.4910   32.8370 C   0  0  0  0  0  2  0  0  0  0  0  0
   36.5260   27.8530   32.9990 C   0  0  0  0  0  2  0  0  0  0  0  0
   36.4170   28.1920   34.4770 C   0  0  0  0  0  2  0  0  0  0  0  0
   37.7230   27.6850   35.1150 C   0  0  0  0  0  2  0  0  0  0  0  0
  1  2  1  0  0  0  0
  1 13  1  0  0  0  0
  2  7  1  0  0  0  0
  3  8  1  0  0  0  0
  3  2  2  0  0  0  0
  4  3  1  0  0  0  0
  5  4  2  0  0  0  0
  5  6  1  0  0  0  0
  6  1  2  0  0  0  0
  9  4  1  0  0  0  0
 10  5  1  0  0  0  0
 11 17  1  0  0  0  0
 12 11  1  0  0  0  0
 12 18  1  0  0  0  0
 13 12  2  0  0  0  0
 14 15  2  0  0  0  0
 14 13  1  0  0  0  0
 15 16  1  0  0  0  0
 16 11  2  0  0  0  0
 19 15  1  0  0  0  0
 20  6  1  0  0  0  0
 20 24  1  0  0  0  0
 21 22  1  0  0  0  0
 21 20  1  0  0  0  0
 22 23  1  0  0  0  0
 23 24  1  0  0  0  0
M  END
>  <minimizedAffinity>
-4.8312521

$$$$

 OpenBabel03272503523D

 24 26  0  0  0  0  0  0  0  0999 V2000
   36.0790   29.0400   32.9390 C   0  0  0  0  0  0  0  0  0  0  0  0
   35.9790   29.5930   31.6670 C   0  0  0  0  0  0  0  0  0  0  0  0
   36.7160   29.0640   30.6030 C   0  0  0  0  0  0  0  0  0  0  0  0
   37.5310   27.9850   30.8730 C   0  0  0  0  0  0  0  0  0  0  0  0
   37.6410   27.4270   32.1240 C   0  0  0  0  0  0  0  0  0  0  0  0
   36.8930   27.9830   33.1500 C   0  0  0  0  0  0  0  0  0  0  0  0
   35.3210   30.4550   31.4790 H   0  0  0  0  0  0  0  0  0  0  0  0
   36.5820   29.5500   29.6490 H   0  0  0  0  0  0  0  0  0  0  0  0
   38.0600   27.6440   29.9930 H   0  0  0  0  0  0  0  0  0  0  0  0
   38.3040   26.6090   32.1430 H   0  0  0  0  0  0  0  0  0  0  0  0
   34.8270   31.2280   35.7630 C   0  0  0  0  0  0  0  0  0  0  0  0
   35.7280   30.6930   34.8030 C   0  0  0  0  0  0  0  0  0  0  0  0
   35.2620   29.6690   33.9660 C   0  0  0  0  0  0  0  0  0  0  0  0
   33.9940   29.2610   34.1270 N   0  0  0  0  0  0  0  0  0  0  0  0
   33.1550   29.7910   35.0520 C   0  0  0  0  0  0  0  0  0  0  0  0
   33.5810   30.7660   35.8570 N   0  0  0  0  0  0  0  0  0  0  0  0
   35.2190   32.0170   36.3930 H   0  0  0  0  0  0  0  0  0  0  0  0
   36.7320   31.0150   34.6770 H   0  0  0  0  0  0  0  0  0  0  0  0
   32.1610   29.3480   35.0520 H   0  0  0  0  0  0  0  0  0  0  0  0
   37.0200   27.3580   34.4870 C   0  0  0  0  0  3  0  0  0  0  0  0
   38.3380   27.7400   35.1800 C   0  0  0  0  0  2  0  0  0  0  0  0
   38.2780   26.8250   36.3780 C   0  0  0  0  0  2  0  0  0  0  0  0
   37.8150   25.5050   35.7810 C   0  0  0  0  0  2  0  0  0  0  0  0
   37.3280   25.8420   34.3610 C   0  0  0  0  0  2  0  0  0  0  0  0
  1  6  1  0  0  0  0
  1 13  1  0  0  0  0
  2  1  2  0  0  0  0
  3  4  2  0  0  0  0
  3  2  1  0  0  0  0
  4  5  1  0  0  0  0
  5 10  1  0  0  0  0
  5  6  2  0  0  0  0
  6 20  1  0  0  0  0
  7  2  1  0  0  0  0
  8  3  1  0  0  0  0
  9  4  1  0  0  0  0
 11 16  1  0  0  0  0
 11 17  1  0  0  0  0
 12 11  2  0  0  0  0
 13 14  2  0  0  0  0
 13 12  1  0  0  0  0
 14 15  1  0  0  0  0
 15 19  1  0  0  0  0
 15 16  2  0  0  0  0
 18 12  1  0  0  0  0
 20 21  1  0  0  0  0
 21 22  1  0  0  0  0
 23 22  1  0  0  0  0
 24 20  1  0  0  0  0
 24 23  1  0  0  0  0
M  END
>  <minimizedAffinity>
-4.77132273

$$$$

 OpenBabel03272503523D

 24 26  0  0  0  0  0  0  0  0999 V2000
   39.3690   23.9440   35.9730 C   0  0  0  0  0  0  0  0  0  0  0  0
   38.2330   24.5340   36.5170 C   0  0  0  0  0  0  0  0  0  0  0  0
   37.8690   24.2840   37.8430 C   0  0  0  0  0  0  0  0  0  0  0  0
   38.6790   23.4390   38.5720 C   0  0  0  0  0  0  0  0  0  0  0  0
   39.8040   22.8480   38.0500 C   0  0  0  0  0  0  0  0  0  0  0  0
   40.1280   23.1230   36.7300 C   0  0  0  0  0  0  0  0  0  0  0  0
   37.6050   25.2050   35.9110 H   0  0  0  0  0  0  0  0  0  0  0  0
   36.9750   24.7810   38.1880 H   0  0  0  0  0  0  0  0  0  0  0  0
   38.3200   23.3050   39.5840 H   0  0  0  0  0  0  0  0  0  0  0  0
   40.3010   22.2390   38.7510 H   0  0  0  0  0  0  0  0  0  0  0  0
   40.6360   25.6040   32.8150 C   0  0  0  0  0  0  0  0  0  0  0  0
   40.4270   25.3880   34.2040 C   0  0  0  0  0  0  0  0  0  0  0  0
   39.6530   24.2820   34.5860 C   0  0  0  0  0  0  0  0  0  0  0  0
   39.1600   23.5010   33.6140 N   0  0  0  0  0  0  0  0  0  0  0  0
   39.3760   23.7310   32.2940 C   0  0  0  0  0  0  0  0  0  0  0  0
   40.1090   24.7770   31.9120 N   0  0  0  0  0  0  0  0  0  0  0  0
   41.2380   26.4660   32.5550 H   0  0  0  0  0  0  0  0  0  0  0  0
   40.8170   26.0070   34.9730 H   0  0  0  0  0  0  0  0  0  0  0  0
   38.9050   23.0030   31.6360 H   0  0  0  0  0  0  0  0  0  0  0  0
   41.3510   22.4830   36.1930 C   0  0  0  0  0  3  0  0  0  0  0  0
   41.7860   21.2720   37.0350 C   0  0  0  0  0  2  0  0  0  0  0  0
   43.1170   20.9710   36.3910 C   0  0  0  0  0  2  0  0  0  0  0  0
   43.7430   22.3480   36.2330 C   0  0  0  0  0  2  0  0  0  0  0  0
   42.6030   23.3500   36.4850 C   0  0  0  0  0  2  0  0  0  0  0  0
  1  2  2  0  0  0  0
  1  6  1  0  0  0  0
  2  3  1  0  0  0  0
  3  8  1  0  0  0  0
  3  4  2  0  0  0  0
  4  9  1  0  0  0  0
  5  4  1  0  0  0  0
  5 10  1  0  0  0  0
  6  5  2  0  0  0  0
  7  2  1  0  0  0  0
 11 12  1  0  0  0  0
 12 13  2  0  0  0  0
 12 18  1  0  0  0  0
 13  1  1  0  0  0  0
 14 13  1  0  0  0  0
 15 14  2  0  0  0  0
 16 15  1  0  0  0  0
 16 11  2  0  0  0  0
 17 11  1  0  0  0  0
 19 15  1  0  0  0  0
 20 24  1  0  0  0  0
 20  6  1  0  0  0  0
 20 21  1  0  0  0  0
 22 21  1  0  0  0  0
 23 22  1  0  0  0  0
 23 24  1  0  0  0  0
M  END
>  <minimizedAffinity>
-4.69415903

$$$$

 OpenBabel03272503523D

 24 26  0  0  0  0  0  0  0  0999 V2000
   39.9560   23.4920   36.4560 C   0  0  0  0  0  0  0  0  0  0  0  0
   39.7230   22.8660   37.6760 C   0  0  0  0  0  0  0  0  0  0  0  0
   38.6690   23.2800   38.4960 C   0  0  0  0  0  0  0  0  0  0  0  0
   37.8850   24.3200   38.0420 C   0  0  0  0  0  0  0  0  0  0  0  0
   38.1020   24.9480   36.8400 C   0  0  0  0  0  0  0  0  0  0  0  0
   39.1590   24.5070   36.0580 C   0  0  0  0  0  0  0  0  0  0  0  0
   40.3650   22.0380   38.0140 H   0  0  0  0  0  0  0  0  0  0  0  0
   38.5560   22.7430   39.4260 H   0  0  0  0  0  0  0  0  0  0  0  0
   37.0970   24.5700   38.7400 H   0  0  0  0  0  0  0  0  0  0  0  0
   37.4040   25.7160   36.6550 H   0  0  0  0  0  0  0  0  0  0  0  0
   43.3950   22.8550   35.0080 C   0  0  0  0  0  0  0  0  0  0  0  0
   42.3890   23.4510   35.8160 C   0  0  0  0  0  0  0  0  0  0  0  0
   41.0760   22.9740   35.6850 C   0  0  0  0  0  0  0  0  0  0  0  0
   40.8570   21.9850   34.8060 N   0  0  0  0  0  0  0  0  0  0  0  0
   41.8390   21.4340   34.0480 C   0  0  0  0  0  0  0  0  0  0  0  0
   43.0920   21.8750   34.1580 N   0  0  0  0  0  0  0  0  0  0  0  0
   44.3970   23.2470   35.1340 H   0  0  0  0  0  0  0  0  0  0  0  0
   42.5630   24.2350   36.5110 H   0  0  0  0  0  0  0  0  0  0  0  0
   41.4930   20.6430   33.3850 H   0  0  0  0  0  0  0  0  0  0  0  0
   39.3660   25.1930   34.7620 C   0  0  0  0  0  3  0  0  0  0  0  0
   40.0860   26.5410   34.9310 C   0  0  0  0  0  2  0  0  0  0  0  0
   39.9720   27.0770   33.5250 C   0  0  0  0  0  2  0  0  0  0  0  0
   38.5320   26.7590   33.1510 C   0  0  0  0  0  2  0  0  0  0  0  0
   38.0330   25.7790   34.2270 C   0  0  0  0  0  2  0  0  0  0  0  0
  1  2  1  0  0  0  0
  2  7  1  0  0  0  0
  2  3  2  0  0  0  0
  3  8  1  0  0  0  0
  4  3  1  0  0  0  0
  4  9  1  0  0  0  0
  5  4  2  0  0  0  0
  6  1  2  0  0  0  0
  6  5  1  0  0  0  0
 10  5  1  0  0  0  0
 11 17  1  0  0  0  0
 11 12  1  0  0  0  0
 12 18  1  0  0  0  0
 13 12  2  0  0  0  0
 13  1  1  0  0  0  0
 14 13  1  0  0  0  0
 15 16  1  0  0  0  0
 15 14  2  0  0  0  0
 16 11  2  0  0  0  0
 19 15  1  0  0  0  0
 20 21  1  0  0  0  0
 20  6  1  0  0  0  0
 22 21  1  0  0  0  0
 23 22  1  0  0  0  0
 23 24  1  0  0  0  0
 24 20  1  0  0  0  0
M  END
>  <minimizedAffinity>
-4.6636405

$$$$

 OpenBabel03272503523D

 24 26  0  0  0  0  0  0  0  0999 V2000
   38.9630   25.6160   33.8260 C   0  0  0  0  0  0  0  0  0  0  0  0
   40.1850   26.2450   34.0390 C   0  0  0  0  0  0  0  0  0  0  0  0
   40.7000   27.1320   33.0900 C   0  0  0  0  0  0  0  0  0  0  0  0
   39.9500   27.3490   31.9530 C   0  0  0  0  0  0  0  0  0  0  0  0
   38.7420   26.7350   31.7280 C   0  0  0  0  0  0  0  0  0  0  0  0
   38.2670   25.8620   32.6950 C   0  0  0  0  0  0  0  0  0  0  0  0
   40.7630   26.0540   34.9550 H   0  0  0  0  0  0  0  0  0  0  0  0
   41.6530   27.5790   33.3300 H   0  0  0  0  0  0  0  0  0  0  0  0
   40.4260   28.0480   31.2780 H   0  0  0  0  0  0  0  0  0  0  0  0
   38.3080   27.0220   30.8110 H   0  0  0  0  0  0  0  0  0  0  0  0
   37.5270   24.1820   37.0220 C   0  0  0  0  0  0  0  0  0  0  0  0
   37.9170   25.1620   36.0700 C   0  0  0  0  0  0  0  0  0  0  0  0
   38.5230   24.7190   34.8850 C   0  0  0  0  0  0  0  0  0  0  0  0
   38.6950   23.3980   34.7290 N   0  0  0  0  0  0  0  0  0  0  0  0
   38.3120   22.4840   35.6570 C   0  0  0  0  0  0  0  0  0  0  0  0
   37.7340   22.8870   36.7890 N   0  0  0  0  0  0  0  0  0  0  0  0
   37.0620   24.5590   37.9260 H   0  0  0  0  0  0  0  0  0  0  0  0
   37.7810   26.2080   36.1930 H   0  0  0  0  0  0  0  0  0  0  0  0
   38.5240   21.4540   35.3750 H   0  0  0  0  0  0  0  0  0  0  0  0
   36.9580   25.2210   32.4350 C   0  0  0  0  0  3  0  0  0  0  0  0
   37.0790   24.0350   31.4630 C   0  0  0  0  0  2  0  0  0  0  0  0
   35.6180   23.7310   31.2390 C   0  0  0  0  0  2  0  0  0  0  0  0
   35.0030   25.1100   31.0520 C   0  0  0  0  0  2  0  0  0  0  0  0
   36.0820   26.1070   31.5110 C   0  0  0  0  0  2  0  0  0  0  0  0
  1  2  1  0  0  0  0
  1 13  1  0  0  0  0
  2  7  1  0  0  0  0
  3  8  1  0  0  0  0
  3  2  2  0  0  0  0
  4  3  1  0  0  0  0
  5  4  2  0  0  0  0
  5  6  1  0  0  0  0
  6  1  2  0  0  0  0
  9  4  1  0  0  0  0
 10  5  1  0  0  0  0
 11 17  1  0  0  0  0
 12 18  1  0  0  0  0
 12 11  2  0  0  0  0
 13 12  1  0  0  0  0
 14 13  2  0  0  0  0
 14 15  1  0  0  0  0
 15 16  2  0  0  0  0
 16 11  1  0  0  0  0
 19 15  1  0  0  0  0
 20  6  1  0  0  0  0
 21 20  1  0  0  0  0
 22 21  1  0  0  0  0
 23 22  1  0  0  0  0
 23 24  1  0  0  0  0
 24 20  1  0  0  0  0
M  END
>  <minimizedAffinity>
-4.64151001

$$$$

 OpenBabel03272503523D

 24 26  0  0  0  0  0  0  0  0999 V2000
   37.3900   23.4920   32.8710 C   0  0  0  0  0  0  0  0  0  0  0  0
   37.3140   24.8750   32.7440 C   0  0  0  0  0  0  0  0  0  0  0  0
   36.3870   25.4570   31.8750 C   0  0  0  0  0  0  0  0  0  0  0  0
   35.5660   24.6070   31.1640 C   0  0  0  0  0  0  0  0  0  0  0  0
   35.6290   23.2390   31.2780 C   0  0  0  0  0  0  0  0  0  0  0  0
   36.5630   22.7030   32.1510 C   0  0  0  0  0  0  0  0  0  0  0  0
   37.9820   25.5290   33.3240 H   0  0  0  0  0  0  0  0  0  0  0  0
   36.3910   26.5350   31.8340 H   0  0  0  0  0  0  0  0  0  0  0  0
   34.8830   25.1450   30.5200 H   0  0  0  0  0  0  0  0  0  0  0  0
   34.9250   22.7510   30.6650 H   0  0  0  0  0  0  0  0  0  0  0  0
   40.5830   22.2130   34.4530 C   0  0  0  0  0  0  0  0  0  0  0  0
   39.7030   22.6780   33.4390 C   0  0  0  0  0  0  0  0  0  0  0  0
   38.3880   22.9990   33.8090 C   0  0  0  0  0  0  0  0  0  0  0  0
   38.0480   22.8440   35.0970 N   0  0  0  0  0  0  0  0  0  0  0  0
   38.9110   22.3970   36.0450 C   0  0  0  0  0  0  0  0  0  0  0  0
   40.1640   22.0880   35.7120 N   0  0  0  0  0  0  0  0  0  0  0  0
   41.5900   21.9740   34.1330 H   0  0  0  0  0  0  0  0  0  0  0  0
   39.9720   22.8000   32.4190 H   0  0  0  0  0  0  0  0  0  0  0  0
   38.4760   22.3290   37.0410 H   0  0  0  0  0  0  0  0  0  0  0  0
   36.6050   21.2270   32.2650 C   0  0  0  0  0  3  0  0  0  0  0  0
   36.0660   20.5350   31.0020 C   0  0  0  0  0  2  0  0  0  0  0  0
   36.0410   19.1040   31.4790 C   0  0  0  0  0  2  0  0  0  0  0  0
   35.4550   19.2160   32.8780 C   0  0  0  0  0  2  0  0  0  0  0  0
   35.4980   20.7150   33.2240 C   0  0  0  0  0  2  0  0  0  0  0  0
  1 13  1  0  0  0  0
  2  1  1  0  0  0  0
  2  7  1  0  0  0  0
  3  2  2  0  0  0  0
  4  5  2  0  0  0  0
  4  3  1  0  0  0  0
  5  6  1  0  0  0  0
  6 20  1  0  0  0  0
  6  1  2  0  0  0  0
  8  3  1  0  0  0  0
  9  4  1  0  0  0  0
 10  5  1  0  0  0  0
 11 16  1  0  0  0  0
 12 13  1  0  0  0  0
 12 11  2  0  0  0  0
 13 14  2  0  0  0  0
 14 15  1  0  0  0  0
 15 19  1  0  0  0  0
 16 15  2  0  0  0  0
 17 11  1  0  0  0  0
 18 12  1  0  0  0  0
 20 24  1  0  0  0  0
 21 22  1  0  0  0  0
 21 20  1  0  0  0  0
 22 23  1  0  0  0  0
 23 24  1  0  0  0  0
M  END
>  <minimizedAffinity>
-4.63757467

$$$$

 OpenBabel03272503523D

 24 26  0  0  0  0  0  0  0  0999 V2000
   37.1740   27.9460   32.8160 C   0  0  0  0  0  0  0  0  0  0  0  0
   37.9330   27.7000   31.6770 C   0  0  0  0  0  0  0  0  0  0  0  0
   37.6600   28.3740   30.4840 C   0  0  0  0  0  0  0  0  0  0  0  0
   36.6190   29.2790   30.4920 C   0  0  0  0  0  0  0  0  0  0  0  0
   35.8600   29.5320   31.6080 C   0  0  0  0  0  0  0  0  0  0  0  0
   36.1650   28.8420   32.7720 C   0  0  0  0  0  0  0  0  0  0  0  0
   38.7590   26.9720   31.6980 H   0  0  0  0  0  0  0  0  0  0  0  0
   38.2950   28.1270   29.6460 H   0  0  0  0  0  0  0  0  0  0  0  0
   36.4820   29.7510   29.5280 H   0  0  0  0  0  0  0  0  0  0  0  0
   35.1130   30.2550   31.4330 H   0  0  0  0  0  0  0  0  0  0  0  0
   38.3640   26.9390   36.2660 C   0  0  0  0  0  0  0  0  0  0  0  0
   38.0340   27.7890   35.1760 C   0  0  0  0  0  0  0  0  0  0  0  0
   37.5530   27.1910   34.0020 C   0  0  0  0  0  0  0  0  0  0  0  0
   37.4370   25.8550   33.9860 N   0  0  0  0  0  0  0  0  0  0  0  0
   37.7590   25.0680   35.0430 C   0  0  0  0  0  0  0  0  0  0  0  0
   38.2170   25.6190   36.1680 N   0  0  0  0  0  0  0  0  0  0  0  0
   38.7320   27.4340   37.1570 H   0  0  0  0  0  0  0  0  0  0  0  0
   38.1280   28.8470   35.1890 H   0  0  0  0  0  0  0  0  0  0  0  0
   37.6060   24.0050   34.8650 H   0  0  0  0  0  0  0  0  0  0  0  0
   35.3390   29.1400   33.9640 C   0  0  0  0  0  3  0  0  0  0  0  0
   33.8620   29.3670   33.6020 C   0  0  0  0  0  2  0  0  0  0  0  0
   33.3350   29.8360   34.9360 C   0  0  0  0  0  2  0  0  0  0  0  0
   34.4040   30.8100   35.4060 C   0  0  0  0  0  2  0  0  0  0  0  0
   35.6100   30.5780   34.4790 C   0  0  0  0  0  2  0  0  0  0  0  0
  1 13  1  0  0  0  0
  2  7  1  0  0  0  0
  2  1  2  0  0  0  0
  3  4  2  0  0  0  0
  3  2  1  0  0  0  0
  4  5  1  0  0  0  0
  5  6  2  0  0  0  0
  6  1  1  0  0  0  0
  6 20  1  0  0  0  0
  8  3  1  0  0  0  0
  9  4  1  0  0  0  0
 10  5  1  0  0  0  0
 11 17  1  0  0  0  0
 12 18  1  0  0  0  0
 12 11  2  0  0  0  0
 13 12  1  0  0  0  0
 14 13  2  0  0  0  0
 14 15  1  0  0  0  0
 15 16  2  0  0  0  0
 16 11  1  0  0  0  0
 19 15  1  0  0  0  0
 20 24  1  0  0  0  0
 21 20  1  0  0  0  0
 21 22  1  0  0  0  0
 22 23  1  0  0  0  0
 24 23  1  0  0  0  0
M  END
>  <minimizedAffinity>
-4.62499666

$$$$
