
     RDKit          3D

 32 34  0  0  0  0  0  0  0  0999 V2000
   35.1870   30.4376   48.9880 C   0  0  0  0  0  0  0  0  0  0  0  0
   34.3361   30.1873   49.8592 O   0  0  0  0  0  0  0  0  0  0  0  0
   33.3199   30.0835   45.8787 C   0  0  0  0  0  0  0  0  0  0  0  0
   34.3238   30.0058   44.9142 C   0  0  0  0  0  0  0  0  0  0  0  0
   35.6450   30.0731   45.3115 C   0  0  0  0  0  0  0  0  0  0  0  0
   35.8915   30.2130   46.6380 N   0  0  0  0  0  0  0  0  0  0  0  0
   34.9080   30.2878   47.5708 C   0  0  0  0  0  0  0  0  0  0  0  0
   33.6319   30.2214   47.1727 N   0  0  0  0  0  0  0  0  0  0  0  0
   36.5177   30.9007   49.4248 C   0  0  0  0  0  0  0  0  0  0  0  0
   37.3075   30.2021   50.3324 C   0  0  0  0  0  0  0  0  0  0  0  0
   38.4417   31.0250   50.4195 C   0  0  0  0  0  0  0  0  0  0  0  0
   38.2863   32.1172   49.6049 C   0  0  0  0  0  0  0  0  0  0  0  0
   37.1146   32.0114   49.0192 O   0  0  0  0  0  0  0  0  0  0  0  0
   32.3100   30.0257   45.5129 H   0  0  0  0  0  0  0  0  0  0  0  0
   34.1927   29.8947   43.8480 H   0  0  0  0  0  0  0  0  0  0  0  0
   36.5436   30.0307   44.7144 H   0  0  0  0  0  0  0  0  0  0  0  0
   37.0378   29.2720   50.8009 H   0  0  0  0  0  0  0  0  0  0  0  0
   39.2877   30.7577   51.0713 H   0  0  0  0  0  0  0  0  0  0  0  0
   39.2344   33.2058   49.4109 C   0  0  0  0  0  0  0  0  0  0  0  0
   39.2331   33.7673   48.0062 C   0  0  0  0  0  0  0  0  0  0  0  0
   40.4119   34.7267   48.0899 C   0  0  0  0  0  0  0  0  0  0  0  0
   41.3505   34.1268   49.1280 C   0  0  0  0  0  0  0  0  0  0  0  0
   40.6921   32.8073   49.5266 C   0  0  0  0  0  0  0  0  0  0  0  0
   39.0655   34.0256   50.1307 H   0  0  0  0  0  0  0  0  0  0  0  0
   39.5237   32.9721   47.2879 H   0  0  0  0  0  0  0  0  0  0  0  0
   38.2859   34.2798   47.7549 H   0  0  0  0  0  0  0  0  0  0  0  0
   40.0082   35.7127   48.4296 H   0  0  0  0  0  0  0  0  0  0  0  0
   40.9185   34.8629   47.1268 H   0  0  0  0  0  0  0  0  0  0  0  0
   41.2979   34.7702   50.0335 H   0  0  0  0  0  0  0  0  0  0  0  0
   42.3784   33.9830   48.7484 H   0  0  0  0  0  0  0  0  0  0  0  0
   40.9812   32.4594   50.5235 H   0  0  0  0  0  0  0  0  0  0  0  0
   40.9698   32.0713   48.7194 H   0  0  0  0  0  0  0  0  0  0  0  0
  1  9  1  0
  1  2  2  0
  3  8  2  0
  4  5  2  0
  4  3  1  0
  5  6  1  0
  6  7  2  0
  7  1  1  0
  8  7  1  0
  9 10  2  0
 10 11  1  0
 12 11  2  0
 13  9  1  0
 13 12  1  0
  3 14  1  0
  4 15  1  0
  5 16  1  0
 10 17  1  0
 11 18  1  0
 19 20  1  0
 20 21  1  0
 21 22  1  0
 22 23  1  0
 23 19  1  0
 19 24  1  0
 20 25  1  0
 20 26  1  0
 21 27  1  0
 21 28  1  0
 22 29  1  0
 22 30  1  0
 23 31  1  0
 23 32  1  0
 12 19  1  0
M  ISO  5  14  14  15  14  16  14  17  14  18  14
M  END
>  <DihAtoms>  (1) 
10,11,18,19

>  <DihDeg>  (1) 
55.91064516267047

$$$$
