
 OpenBabel03272504513D

 38 41  0  0  1  0  0  0  0  0999 V2000
   36.4320   28.8250   32.7250 N   0  0  0  0  0  0  0  0  0  0  0  0
   36.7240   28.6440   31.3150 C   0  0  0  0  0  0  0  0  0  0  0  0
   36.3110   29.7940   30.4590 C   0  0  0  0  0  0  0  0  0  0  0  0
   36.4570   31.1060   31.2020 C   0  0  0  0  0  0  0  0  0  0  0  0
   35.4750   31.0600   32.3370 C   0  0  0  0  0  0  0  0  0  0  0  0
   35.7080   29.9190   33.2790 C   0  0  1  0  0  0  0  0  0  0  0  0
   36.1520   27.7560   30.9790 H   0  0  0  0  0  0  0  0  0  0  0  0
   37.8060   28.3770   31.1780 H   0  0  0  0  0  0  0  0  0  0  0  0
   35.3170   29.6640   30.0060 H   0  0  0  0  0  0  0  0  0  0  0  0
   37.0260   29.8560   29.6010 H   0  0  0  0  0  0  0  0  0  0  0  0
   36.2900   31.9490   30.5370 H   0  0  0  0  0  0  0  0  0  0  0  0
   37.4950   31.0980   31.6320 H   0  0  0  0  0  0  0  0  0  0  0  0
   34.4860   30.8930   31.8490 H   0  0  0  0  0  0  0  0  0  0  0  0
   35.4770   32.0100   32.9210 H   0  0  0  0  0  0  0  0  0  0  0  0
   36.2830   30.3280   34.1350 H   0  0  0  0  0  0  0  0  0  0  0  0
   37.3480   28.1290   34.8840 C   0  0  0  0  0  0  0  0  0  0  0  0
   36.9170   27.8110   33.5920 C   0  0  0  0  0  0  0  0  0  0  0  0
   36.9890   26.4870   33.1950 C   0  0  0  0  0  0  0  0  0  0  0  0
   37.4700   25.5600   34.0710 N   0  0  0  0  0  0  0  0  0  0  0  0
   37.8760   25.8850   35.3020 C   0  0  0  0  0  0  0  0  0  0  0  0
   37.8120   27.1780   35.7060 N   0  0  0  0  0  0  0  0  0  0  0  0
   37.3210   29.1430   35.2620 H   0  0  0  0  0  0  0  0  0  0  0  0
   36.6820   26.1120   32.2330 H   0  0  0  0  0  0  0  0  0  0  0  0
   38.3740   24.8750   36.2070 C   0  0  0  0  0  0  0  0  0  0  0  0
   37.8500   24.7230   37.4520 C   0  0  0  0  0  0  0  0  0  0  0  0
   38.2540   23.7960   38.3760 C   0  0  0  0  0  0  0  0  0  0  0  0
   39.2810   22.9860   37.9310 C   0  0  0  0  0  0  0  0  0  0  0  0
   39.8680   23.0890   36.6600 C   0  0  0  0  0  0  0  0  0  0  0  0
   39.3700   24.0610   35.8300 N   0  0  0  0  0  0  0  0  0  0  0  0
   37.0330   25.4070   37.7310 H   0  0  0  0  0  0  0  0  0  0  0  0
   37.8410   23.6700   39.3660 H   0  0  0  0  0  0  0  0  0  0  0  0
   39.6910   22.2100   38.5720 H   0  0  0  0  0  0  0  0  0  0  0  0
   40.6710   22.4290   36.3620 H   0  0  0  0  0  0  0  0  0  0  0  0
   34.4280   29.3700   33.8520 C   0  0  0  0  0  3  0  0  0  0  0  0
   33.8810   30.1290   35.0160 C   0  0  0  0  0  2  0  0  0  0  0  0
   32.5820   29.3540   35.2500 C   0  0  0  0  0  2  0  0  0  0  0  0
   32.1080   28.9950   33.8650 C   0  0  0  0  0  2  0  0  0  0  0  0
   33.2460   29.4180   32.9170 C   0  0  0  0  0  2  0  0  0  0  0  0
  1  6  1  0  0  0  0
  1 17  1  0  0  0  0
  2  1  1  0  0  0  0
  3  4  1  0  0  0  0
  3  2  1  0  0  0  0
  4 12  1  0  0  0  0
  4  5  1  0  0  0  0
  5 14  1  0  0  0  0
  5  6  1  0  0  0  0
  6 34  1  0  0  0  0
  6 15  1  1  0  0  0
  7  2  1  0  0  0  0
  8  2  1  0  0  0  0
  9  3  1  0  0  0  0
 10  3  1  0  0  0  0
 11  4  1  0  0  0  0
 13  5  1  0  0  0  0
 16 22  1  0  0  0  0
 16 21  1  0  0  0  0
 17 16  2  0  0  0  0
 18 17  1  0  0  0  0
 18 19  2  0  0  0  0
 19 20  1  0  0  0  0
 20 21  2  0  0  0  0
 20 24  1  0  0  0  0
 23 18  1  0  0  0  0
 24 25  1  0  0  0  0
 25 30  1  0  0  0  0
 25 26  2  0  0  0  0
 26 31  1  0  0  0  0
 27 26  1  0  0  0  0
 27 32  1  0  0  0  0
 28 27  2  0  0  0  0
 29 24  2  0  0  0  0
 29 28  1  0  0  0  0
 33 28  1  0  0  0  0
 34 35  1  0  0  0  0
 35 36  1  0  0  0  0
 37 36  1  0  0  0  0
 38 34  1  0  0  0  0
 38 37  1  0  0  0  0
M  END
>  <minimizedAffinity>
-5.68164349

$$$$

 OpenBabel03272504513D

 38 41  0  0  1  0  0  0  0  0999 V2000
   37.0810   22.1440   30.9920 N   0  0  0  0  0  0  0  0  0  0  0  0
   38.3120   21.7640   30.3230 C   0  0  0  0  0  0  0  0  0  0  0  0
   38.4870   20.2900   30.1700 C   0  0  0  0  0  0  0  0  0  0  0  0
   37.1540   19.6020   29.9650 C   0  0  0  0  0  0  0  0  0  0  0  0
   36.3780   19.7970   31.2360 C   0  0  0  0  0  0  0  0  0  0  0  0
   36.1530   21.2380   31.5800 C   0  0  1  0  0  0  0  0  0  0  0  0
   39.1470   22.1360   30.9490 H   0  0  0  0  0  0  0  0  0  0  0  0
   38.4010   22.3080   29.3440 H   0  0  0  0  0  0  0  0  0  0  0  0
   39.0870   19.8390   30.9730 H   0  0  0  0  0  0  0  0  0  0  0  0
   39.0630   20.1100   29.2280 H   0  0  0  0  0  0  0  0  0  0  0  0
   37.2920   18.5540   29.7160 H   0  0  0  0  0  0  0  0  0  0  0  0
   36.6380   20.1730   29.1460 H   0  0  0  0  0  0  0  0  0  0  0  0
   37.0260   19.3610   32.0330 H   0  0  0  0  0  0  0  0  0  0  0  0
   35.3900   19.2820   31.1980 H   0  0  0  0  0  0  0  0  0  0  0  0
   35.1340   21.4920   31.2240 H   0  0  0  0  0  0  0  0  0  0  0  0
   37.8660   24.4560   31.1350 C   0  0  0  0  0  0  0  0  0  0  0  0
   36.8140   23.5380   31.0500 C   0  0  0  0  0  0  0  0  0  0  0  0
   35.5230   24.0330   31.0320 C   0  0  0  0  0  0  0  0  0  0  0  0
   35.3320   25.3810   31.0970 N   0  0  0  0  0  0  0  0  0  0  0  0
   36.3490   26.2430   31.1760 C   0  0  0  0  0  0  0  0  0  0  0  0
   37.6220   25.7730   31.1950 N   0  0  0  0  0  0  0  0  0  0  0  0
   38.9010   24.1420   31.1540 H   0  0  0  0  0  0  0  0  0  0  0  0
   34.6310   23.4330   30.9610 H   0  0  0  0  0  0  0  0  0  0  0  0
   36.1110   27.6660   31.2360 C   0  0  0  0  0  0  0  0  0  0  0  0
   36.7010   28.5190   30.3560 C   0  0  0  0  0  0  0  0  0  0  0  0
   36.5340   29.8770   30.3330 C   0  0  0  0  0  0  0  0  0  0  0  0
   35.6810   30.3450   31.3140 C   0  0  0  0  0  0  0  0  0  0  0  0
   35.0390   29.5220   32.2540 C   0  0  0  0  0  0  0  0  0  0  0  0
   35.2930   28.1770   32.1670 N   0  0  0  0  0  0  0  0  0  0  0  0
   37.3670   28.0680   29.6040 H   0  0  0  0  0  0  0  0  0  0  0  0
   37.0000   30.5590   29.6370 H   0  0  0  0  0  0  0  0  0  0  0  0
   35.4660   31.4070   31.4020 H   0  0  0  0  0  0  0  0  0  0  0  0
   34.3810   29.9390   33.0030 H   0  0  0  0  0  0  0  0  0  0  0  0
   36.1590   21.4860   33.0660 C   0  0  0  0  0  3  0  0  0  0  0  0
   35.5340   20.4080   33.8880 C   0  0  0  0  0  2  0  0  0  0  0  0
   35.8040   20.9560   35.2920 C   0  0  0  0  0  2  0  0  0  0  0  0
   37.1640   21.5950   35.1870 C   0  0  0  0  0  2  0  0  0  0  0  0
   37.5290   21.5460   33.6910 C   0  0  0  0  0  2  0  0  0  0  0  0
  1 17  1  0  0  0  0
  1  6  1  0  0  0  0
  2  7  1  0  0  0  0
  2  1  1  0  0  0  0
  3  2  1  0  0  0  0
  3  9  1  0  0  0  0
  4  3  1  0  0  0  0
  4  5  1  0  0  0  0
  5  6  1  0  0  0  0
  5 13  1  0  0  0  0
  6 15  1  6  0  0  0
  6 34  1  0  0  0  0
  8  2  1  0  0  0  0
 10  3  1  0  0  0  0
 11  4  1  0  0  0  0
 12  4  1  0  0  0  0
 14  5  1  0  0  0  0
 16 22  1  0  0  0  0
 16 21  1  0  0  0  0
 17 16  2  0  0  0  0
 18 17  1  0  0  0  0
 18 19  2  0  0  0  0
 19 20  1  0  0  0  0
 20 21  2  0  0  0  0
 20 24  1  0  0  0  0
 23 18  1  0  0  0  0
 24 29  1  0  0  0  0
 25 24  2  0  0  0  0
 26 25  1  0  0  0  0
 26 27  2  0  0  0  0
 27 32  1  0  0  0  0
 27 28  1  0  0  0  0
 28 33  1  0  0  0  0
 29 28  2  0  0  0  0
 30 25  1  0  0  0  0
 31 26  1  0  0  0  0
 34 38  1  0  0  0  0
 34 35  1  0  0  0  0
 35 36  1  0  0  0  0
 37 36  1  0  0  0  0
 38 37  1  0  0  0  0
M  END
>  <minimizedAffinity>
-5.54056215

$$$$

 OpenBabel03272504513D

 38 41  0  0  1  0  0  0  0  0999 V2000
   38.7970   22.8140   35.7180 N   0  0  0  0  0  0  0  0  0  0  0  0
   39.8540   22.2540   36.5410 C   0  0  0  0  0  0  0  0  0  0  0  0
   39.9610   22.8760   37.8930 C   0  0  0  0  0  0  0  0  0  0  0  0
   38.6000   23.2880   38.4120 C   0  0  0  0  0  0  0  0  0  0  0  0
   38.1090   24.3720   37.4960 C   0  0  0  0  0  0  0  0  0  0  0  0
   37.9920   23.9350   36.0670 C   0  0  1  0  0  0  0  0  0  0  0  0
   40.8090   22.4420   36.0110 H   0  0  0  0  0  0  0  0  0  0  0  0
   39.7500   21.1370   36.5920 H   0  0  0  0  0  0  0  0  0  0  0  0
   40.7040   23.6850   37.9410 H   0  0  0  0  0  0  0  0  0  0  0  0
   40.3250   22.0910   38.6020 H   0  0  0  0  0  0  0  0  0  0  0  0
   38.6610   23.6110   39.4470 H   0  0  0  0  0  0  0  0  0  0  0  0
   37.9380   22.3890   38.2820 H   0  0  0  0  0  0  0  0  0  0  0  0
   38.8980   25.1590   37.5400 H   0  0  0  0  0  0  0  0  0  0  0  0
   37.1230   24.7750   37.8260 H   0  0  0  0  0  0  0  0  0  0  0  0
   36.9270   23.6710   35.9040 H   0  0  0  0  0  0  0  0  0  0  0  0
   39.6500   21.9150   33.6090 C   0  0  0  0  0  0  0  0  0  0  0  0
   38.5790   22.1700   34.4710 C   0  0  0  0  0  0  0  0  0  0  0  0
   37.3150   21.7830   34.0630 C   0  0  0  0  0  0  0  0  0  0  0  0
   37.1690   21.1750   32.8520 N   0  0  0  0  0  0  0  0  0  0  0  0
   38.2060   20.9380   32.0430 C   0  0  0  0  0  0  0  0  0  0  0  0
   39.4520   21.3120   32.4290 N   0  0  0  0  0  0  0  0  0  0  0  0
   40.6660   22.1900   33.8610 H   0  0  0  0  0  0  0  0  0  0  0  0
   36.4120   21.9150   34.6360 H   0  0  0  0  0  0  0  0  0  0  0  0
   38.0170   20.2850   30.7690 C   0  0  0  0  0  0  0  0  0  0  0  0
   36.9120   19.5330   30.5180 C   0  0  0  0  0  0  0  0  0  0  0  0
   36.6450   18.8810   29.3440 C   0  0  0  0  0  0  0  0  0  0  0  0
   37.6250   19.0500   28.3840 C   0  0  0  0  0  0  0  0  0  0  0  0
   38.7890   19.8120   28.5760 C   0  0  0  0  0  0  0  0  0  0  0  0
   38.9340   20.4140   29.8000 N   0  0  0  0  0  0  0  0  0  0  0  0
   36.1770   19.4480   31.3340 H   0  0  0  0  0  0  0  0  0  0  0  0
   35.7700   18.2820   29.1390 H   0  0  0  0  0  0  0  0  0  0  0  0
   37.5300   18.5820   27.4080 H   0  0  0  0  0  0  0  0  0  0  0  0
   39.5250   19.9110   27.7910 H   0  0  0  0  0  0  0  0  0  0  0  0
   38.3100   25.0410   35.0950 C   0  0  0  0  0  3  0  0  0  0  0  0
   37.4180   26.2340   35.1830 C   0  0  0  0  0  2  0  0  0  0  0  0
   38.0860   27.1410   34.1470 C   0  0  0  0  0  2  0  0  0  0  0  0
   39.5600   26.8690   34.3100 C   0  0  0  0  0  2  0  0  0  0  0  0
   39.6550   25.6910   35.2980 C   0  0  0  0  0  2  0  0  0  0  0  0
  1  6  1  0  0  0  0
  1  2  1  0  0  0  0
  2  8  1  0  0  0  0
  2  3  1  0  0  0  0
  3  9  1  0  0  0  0
  3  4  1  0  0  0  0
  3 10  1  0  0  0  0
  4 11  1  0  0  0  0
  5 13  1  0  0  0  0
  5 14  1  0  0  0  0
  5  4  1  0  0  0  0
  6 15  1  6  0  0  0
  6  5  1  0  0  0  0
  7  2  1  0  0  0  0
 12  4  1  0  0  0  0
 16 22  1  0  0  0  0
 16 17  1  0  0  0  0
 17  1  1  0  0  0  0
 18 17  2  0  0  0  0
 18 23  1  0  0  0  0
 19 18  1  0  0  0  0
 20 21  1  0  0  0  0
 20 19  2  0  0  0  0
 21 16  2  0  0  0  0
 24 20  1  0  0  0  0
 25 24  1  0  0  0  0
 25 30  1  0  0  0  0
 26 25  2  0  0  0  0
 27 28  2  0  0  0  0
 27 26  1  0  0  0  0
 28 29  1  0  0  0  0
 29 24  2  0  0  0  0
 31 26  1  0  0  0  0
 32 27  1  0  0  0  0
 33 28  1  0  0  0  0
 34 35  1  0  0  0  0
 34 38  1  0  0  0  0
 34  6  1  0  0  0  0
 36 37  1  0  0  0  0
 36 35  1  0  0  0  0
 37 38  1  0  0  0  0
M  END
>  <minimizedAffinity>
-5.51152611

$$$$

 OpenBabel03272504513D

 38 41  0  0  1  0  0  0  0  0999 V2000
   41.3510   24.1670   35.2660 N   0  0  0  0  0  0  0  0  0  0  0  0
   42.6920   24.6250   35.5820 C   0  0  0  0  0  0  0  0  0  0  0  0
   43.4750   23.6710   36.4200 C   0  0  0  0  0  0  0  0  0  0  0  0
   43.1160   22.2370   36.0920 C   0  0  0  0  0  0  0  0  0  0  0  0
   41.6800   22.0590   36.4940 C   0  0  0  0  0  0  0  0  0  0  0  0
   40.7440   22.9870   35.7820 C   0  0  1  0  0  0  0  0  0  0  0  0
   42.5830   25.5650   36.1600 H   0  0  0  0  0  0  0  0  0  0  0  0
   43.2330   24.9100   34.6400 H   0  0  0  0  0  0  0  0  0  0  0  0
   43.4230   23.8940   37.4960 H   0  0  0  0  0  0  0  0  0  0  0  0
   44.5540   23.7790   36.1430 H   0  0  0  0  0  0  0  0  0  0  0  0
   43.7820   21.5440   36.5990 H   0  0  0  0  0  0  0  0  0  0  0  0
   43.1830   22.1540   34.9730 H   0  0  0  0  0  0  0  0  0  0  0  0
   41.6550   22.3240   37.5770 H   0  0  0  0  0  0  0  0  0  0  0  0
   41.3350   21.0110   36.3300 H   0  0  0  0  0  0  0  0  0  0  0  0
   40.3100   22.4130   34.9390 H   0  0  0  0  0  0  0  0  0  0  0  0
   40.4760   26.3560   34.6140 C   0  0  0  0  0  0  0  0  0  0  0  0
   40.6140   24.9860   34.3700 C   0  0  0  0  0  0  0  0  0  0  0  0
   40.0060   24.4660   33.2410 C   0  0  0  0  0  0  0  0  0  0  0  0
   39.3070   25.3030   32.4230 N   0  0  0  0  0  0  0  0  0  0  0  0
   39.1870   26.6100   32.6730 C   0  0  0  0  0  0  0  0  0  0  0  0
   39.7780   27.1340   33.7760 N   0  0  0  0  0  0  0  0  0  0  0  0
   40.9230   26.8320   35.4760 H   0  0  0  0  0  0  0  0  0  0  0  0
   40.0440   23.4320   32.9380 H   0  0  0  0  0  0  0  0  0  0  0  0
   38.4450   27.4690   31.7800 C   0  0  0  0  0  0  0  0  0  0  0  0
   37.2060   27.9240   32.1070 C   0  0  0  0  0  0  0  0  0  0  0  0
   36.4290   28.7420   31.3300 C   0  0  0  0  0  0  0  0  0  0  0  0
   37.0240   29.0900   30.1320 C   0  0  0  0  0  0  0  0  0  0  0  0
   38.2980   28.6570   29.7320 C   0  0  0  0  0  0  0  0  0  0  0  0
   38.9700   27.8400   30.6050 N   0  0  0  0  0  0  0  0  0  0  0  0
   36.8020   27.6010   33.0800 H   0  0  0  0  0  0  0  0  0  0  0  0
   35.4450   29.1060   31.5840 H   0  0  0  0  0  0  0  0  0  0  0  0
   36.5080   29.7360   29.4260 H   0  0  0  0  0  0  0  0  0  0  0  0
   38.7170   28.9590   28.7830 H   0  0  0  0  0  0  0  0  0  0  0  0
   39.5860   23.4150   36.6460 C   0  0  0  0  0  3  0  0  0  0  0  0
   38.2730   22.8010   36.2910 C   0  0  0  0  0  2  0  0  0  0  0  0
   37.3990   23.3840   37.4040 C   0  0  0  0  0  2  0  0  0  0  0  0
   38.2990   23.4060   38.6120 C   0  0  0  0  0  2  0  0  0  0  0  0
   39.6940   23.0090   38.0940 C   0  0  0  0  0  2  0  0  0  0  0  0
  1  2  1  0  0  0  0
  1  6  1  0  0  0  0
  2  7  1  0  0  0  0
  2  3  1  0  0  0  0
  3  9  1  0  0  0  0
  4  3  1  0  0  0  0
  4  5  1  0  0  0  0
  4 11  1  0  0  0  0
  5 13  1  0  0  0  0
  6 15  1  6  0  0  0
  6  5  1  0  0  0  0
  6 34  1  0  0  0  0
  8  2  1  0  0  0  0
 10  3  1  0  0  0  0
 12  4  1  0  0  0  0
 14  5  1  0  0  0  0
 16 22  1  0  0  0  0
 17 16  1  0  0  0  0
 17  1  1  0  0  0  0
 18 17  2  0  0  0  0
 19 20  2  0  0  0  0
 19 18  1  0  0  0  0
 20 21  1  0  0  0  0
 21 16  2  0  0  0  0
 23 18  1  0  0  0  0
 24 25  1  0  0  0  0
 24 20  1  0  0  0  0
 25 30  1  0  0  0  0
 26 31  1  0  0  0  0
 26 25  2  0  0  0  0
 27 26  1  0  0  0  0
 28 27  2  0  0  0  0
 28 29  1  0  0  0  0
 29 24  2  0  0  0  0
 32 27  1  0  0  0  0
 33 28  1  0  0  0  0
 34 38  1  0  0  0  0
 35 34  1  0  0  0  0
 35 36  1  0  0  0  0
 36 37  1  0  0  0  0
 38 37  1  0  0  0  0
M  END
>  <minimizedAffinity>
-5.48259306

$$$$

 OpenBabel03272504513D

 38 41  0  0  1  0  0  0  0  0999 V2000
   38.3540   24.3220   35.6590 N   0  0  0  0  0  0  0  0  0  0  0  0
   38.1340   24.7470   37.0290 C   0  0  0  0  0  0  0  0  0  0  0  0
   38.5250   23.7300   38.0490 C   0  0  0  0  0  0  0  0  0  0  0  0
   39.7210   22.9250   37.5840 C   0  0  0  0  0  0  0  0  0  0  0  0
   39.2660   22.1510   36.3800 C   0  0  0  0  0  0  0  0  0  0  0  0
   38.7810   23.0230   35.2610 C   0  0  1  0  0  0  0  0  0  0  0  0
   37.0460   24.9290   37.1400 H   0  0  0  0  0  0  0  0  0  0  0  0
   38.6270   25.7410   37.2070 H   0  0  0  0  0  0  0  0  0  0  0  0
   37.6850   23.1030   38.3800 H   0  0  0  0  0  0  0  0  0  0  0  0
   38.8710   24.2770   38.9620 H   0  0  0  0  0  0  0  0  0  0  0  0
   40.0900   22.2840   38.3790 H   0  0  0  0  0  0  0  0  0  0  0  0
   40.4850   23.6790   37.2520 H   0  0  0  0  0  0  0  0  0  0  0  0
   38.3960   21.5540   36.7390 H   0  0  0  0  0  0  0  0  0  0  0  0
   40.0730   21.4880   35.9890 H   0  0  0  0  0  0  0  0  0  0  0  0
   39.6270   23.1280   34.5530 H   0  0  0  0  0  0  0  0  0  0  0  0
   38.8410   25.2940   33.4680 C   0  0  0  0  0  0  0  0  0  0  0  0
   38.1110   25.3020   34.6610 C   0  0  0  0  0  0  0  0  0  0  0  0
   37.1620   26.2940   34.8310 C   0  0  0  0  0  0  0  0  0  0  0  0
   36.9790   27.2110   33.8390 N   0  0  0  0  0  0  0  0  0  0  0  0
   37.6860   27.1850   32.7050 C   0  0  0  0  0  0  0  0  0  0  0  0
   38.6210   26.2190   32.5230 N   0  0  0  0  0  0  0  0  0  0  0  0
   39.5990   24.5490   33.2650 H   0  0  0  0  0  0  0  0  0  0  0  0
   36.5310   26.4050   35.6970 H   0  0  0  0  0  0  0  0  0  0  0  0
   37.4620   28.1680   31.6710 C   0  0  0  0  0  0  0  0  0  0  0  0
   36.5480   29.1630   31.8280 C   0  0  0  0  0  0  0  0  0  0  0  0
   36.2690   30.1380   30.9080 C   0  0  0  0  0  0  0  0  0  0  0  0
   37.0200   30.0360   29.7520 C   0  0  0  0  0  0  0  0  0  0  0  0
   37.9790   29.0360   29.5240 C   0  0  0  0  0  0  0  0  0  0  0  0
   38.1610   28.1190   30.5290 N   0  0  0  0  0  0  0  0  0  0  0  0
   35.9910   29.1750   32.7780 H   0  0  0  0  0  0  0  0  0  0  0  0
   35.5450   30.9300   31.0270 H   0  0  0  0  0  0  0  0  0  0  0  0
   36.8920   30.7520   28.9440 H   0  0  0  0  0  0  0  0  0  0  0  0
   38.5390   29.0020   28.6010 H   0  0  0  0  0  0  0  0  0  0  0  0
   37.6530   22.3940   34.4860 C   0  0  0  0  0  3  0  0  0  0  0  0
   38.0760   21.5310   33.3440 C   0  0  0  0  0  2  0  0  0  0  0  0
   36.7110   21.0180   32.8790 C   0  0  0  0  0  2  0  0  0  0  0  0
   35.9300   20.8310   34.1540 C   0  0  0  0  0  2  0  0  0  0  0  0
   36.8150   21.4150   35.2700 C   0  0  0  0  0  2  0  0  0  0  0  0
  1  2  1  0  0  0  0
  2  7  1  0  0  0  0
  2  8  1  0  0  0  0
  2  3  1  0  0  0  0
  3  9  1  0  0  0  0
  3 10  1  0  0  0  0
  4  3  1  0  0  0  0
  4 11  1  0  0  0  0
  5 13  1  0  0  0  0
  5  4  1  0  0  0  0
  6 15  1  6  0  0  0
  6  1  1  0  0  0  0
  6  5  1  0  0  0  0
 12  4  1  0  0  0  0
 14  5  1  0  0  0  0
 16 17  1  0  0  0  0
 17 18  2  0  0  0  0
 17  1  1  0  0  0  0
 18 23  1  0  0  0  0
 19 18  1  0  0  0  0
 20 19  2  0  0  0  0
 21 20  1  0  0  0  0
 21 16  2  0  0  0  0
 22 16  1  0  0  0  0
 24 25  1  0  0  0  0
 24 20  1  0  0  0  0
 25 30  1  0  0  0  0
 26 31  1  0  0  0  0
 26 25  2  0  0  0  0
 27 26  1  0  0  0  0
 28 27  2  0  0  0  0
 28 29  1  0  0  0  0
 29 24  2  0  0  0  0
 32 27  1  0  0  0  0
 33 28  1  0  0  0  0
 34  6  1  0  0  0  0
 34 38  1  0  0  0  0
 35 34  1  0  0  0  0
 36 35  1  0  0  0  0
 36 37  1  0  0  0  0
 37 38  1  0  0  0  0
M  END
>  <minimizedAffinity>
-5.4418664

$$$$

 OpenBabel03272504513D

 38 41  0  0  1  0  0  0  0  0999 V2000
   36.2470   27.5170   31.8910 N   0  0  0  0  0  0  0  0  0  0  0  0
   36.2920   28.0750   33.2300 C   0  0  0  0  0  0  0  0  0  0  0  0
   36.2050   29.5640   33.2690 C   0  0  0  0  0  0  0  0  0  0  0  0
   35.3250   30.0870   32.1530 C   0  0  0  0  0  0  0  0  0  0  0  0
   36.0240   29.7460   30.8680 C   0  0  0  0  0  0  0  0  0  0  0  0
   36.2470   28.2750   30.6860 C   0  0  1  0  0  0  0  0  0  0  0  0
   37.2690   27.7870   33.6670 H   0  0  0  0  0  0  0  0  0  0  0  0
   35.5150   27.5860   33.8770 H   0  0  0  0  0  0  0  0  0  0  0  0
   37.1880   30.0550   33.3080 H   0  0  0  0  0  0  0  0  0  0  0  0
   35.6870   29.8520   34.2170 H   0  0  0  0  0  0  0  0  0  0  0  0
   35.1500   31.1530   32.2640 H   0  0  0  0  0  0  0  0  0  0  0  0
   34.3750   29.4890   32.2080 H   0  0  0  0  0  0  0  0  0  0  0  0
   37.0260   30.2280   30.9550 H   0  0  0  0  0  0  0  0  0  0  0  0
   35.4680   30.1330   29.9830 H   0  0  0  0  0  0  0  0  0  0  0  0
   35.4270   27.9090   30.0360 H   0  0  0  0  0  0  0  0  0  0  0  0
   35.2200   25.4630   31.0500 C   0  0  0  0  0  0  0  0  0  0  0  0
   36.2030   26.1000   31.8140 C   0  0  0  0  0  0  0  0  0  0  0  0
   37.1140   25.3060   32.4860 C   0  0  0  0  0  0  0  0  0  0  0  0
   37.0170   23.9500   32.3770 N   0  0  0  0  0  0  0  0  0  0  0  0
   36.0700   23.3600   31.6420 C   0  0  0  0  0  0  0  0  0  0  0  0
   35.1690   24.1250   30.9760 N   0  0  0  0  0  0  0  0  0  0  0  0
   34.4740   26.0190   30.4980 H   0  0  0  0  0  0  0  0  0  0  0  0
   37.9220   25.6730   33.0980 H   0  0  0  0  0  0  0  0  0  0  0  0
   36.0000   21.9210   31.5420 C   0  0  0  0  0  0  0  0  0  0  0  0
   35.0060   21.2190   32.1510 C   0  0  0  0  0  0  0  0  0  0  0  0
   34.8560   19.8590   32.1110 C   0  0  0  0  0  0  0  0  0  0  0  0
   35.8320   19.2180   31.3710 C   0  0  0  0  0  0  0  0  0  0  0  0
   36.8840   19.8800   30.7180 C   0  0  0  0  0  0  0  0  0  0  0  0
   36.9180   21.2460   30.8390 N   0  0  0  0  0  0  0  0  0  0  0  0
   34.2670   21.8040   32.7200 H   0  0  0  0  0  0  0  0  0  0  0  0
   34.0700   19.2960   32.5920 H   0  0  0  0  0  0  0  0  0  0  0  0
   35.8230   18.1370   31.2630 H   0  0  0  0  0  0  0  0  0  0  0  0
   37.6230   19.3300   30.1530 H   0  0  0  0  0  0  0  0  0  0  0  0
   37.5330   27.9710   29.9610 C   0  0  0  0  0  3  0  0  0  0  0  0
   37.7550   28.7600   28.7140 C   0  0  0  0  0  2  0  0  0  0  0  0
   39.1490   28.2580   28.3280 C   0  0  0  0  0  2  0  0  0  0  0  0
   39.8580   28.0810   29.6460 C   0  0  0  0  0  2  0  0  0  0  0  0
   38.7860   28.3130   30.7260 C   0  0  0  0  0  2  0  0  0  0  0  0
  1  2  1  0  0  0  0
  2  3  1  0  0  0  0
  2  7  1  0  0  0  0
  2  8  1  0  0  0  0
  3  9  1  0  0  0  0
  3 10  1  0  0  0  0
  4 12  1  0  0  0  0
  4 11  1  0  0  0  0
  4  3  1  0  0  0  0
  5 13  1  0  0  0  0
  5  4  1  0  0  0  0
  6 15  1  6  0  0  0
  6  5  1  0  0  0  0
  6  1  1  0  0  0  0
 14  5  1  0  0  0  0
 16 17  1  0  0  0  0
 17  1  1  0  0  0  0
 17 18  2  0  0  0  0
 18 23  1  0  0  0  0
 19 18  1  0  0  0  0
 20 19  2  0  0  0  0
 21 16  2  0  0  0  0
 21 20  1  0  0  0  0
 22 16  1  0  0  0  0
 24 20  1  0  0  0  0
 24 25  1  0  0  0  0
 25 30  1  0  0  0  0
 26 25  2  0  0  0  0
 26 31  1  0  0  0  0
 27 26  1  0  0  0  0
 28 29  1  0  0  0  0
 28 27  2  0  0  0  0
 29 24  2  0  0  0  0
 32 27  1  0  0  0  0
 33 28  1  0  0  0  0
 34  6  1  0  0  0  0
 34 38  1  0  0  0  0
 35 34  1  0  0  0  0
 36 35  1  0  0  0  0
 36 37  1  0  0  0  0
 37 38  1  0  0  0  0
M  END
>  <minimizedAffinity>
-5.38702393

$$$$

 OpenBabel03272504513D

 38 41  0  0  1  0  0  0  0  0999 V2000
   39.2930   24.6870   34.2490 N   0  0  0  0  0  0  0  0  0  0  0  0
   40.5590   24.8950   33.5700 C   0  0  0  0  0  0  0  0  0  0  0  0
   41.3930   23.6630   33.4540 C   0  0  0  0  0  0  0  0  0  0  0  0
   40.5250   22.4330   33.2890 C   0  0  0  0  0  0  0  0  0  0  0  0
   39.7500   22.2890   34.5670 C   0  0  0  0  0  0  0  0  0  0  0  0
   38.8870   23.4750   34.8750 C   0  0  1  0  0  0  0  0  0  0  0  0
   41.1310   25.6290   34.1720 H   0  0  0  0  0  0  0  0  0  0  0  0
   40.3860   25.3890   32.5750 H   0  0  0  0  0  0  0  0  0  0  0  0
   42.1340   23.5640   34.2590 H   0  0  0  0  0  0  0  0  0  0  0  0
   41.9850   23.7390   32.5070 H   0  0  0  0  0  0  0  0  0  0  0  0
   41.1300   21.5580   33.0660 H   0  0  0  0  0  0  0  0  0  0  0  0
   39.8030   22.6770   32.4630 H   0  0  0  0  0  0  0  0  0  0  0  0
   40.5270   22.2250   35.3640 H   0  0  0  0  0  0  0  0  0  0  0  0
   39.1090   21.3770   34.5590 H   0  0  0  0  0  0  0  0  0  0  0  0
   37.8650   23.2210   34.5290 H   0  0  0  0  0  0  0  0  0  0  0  0
   38.5600   26.7960   35.2480 C   0  0  0  0  0  0  0  0  0  0  0  0
   38.4150   25.8030   34.2730 C   0  0  0  0  0  0  0  0  0  0  0  0
   37.3930   25.9460   33.3520 C   0  0  0  0  0  0  0  0  0  0  0  0
   36.5790   27.0370   33.4320 N   0  0  0  0  0  0  0  0  0  0  0  0
   36.7340   27.9760   34.3700 C   0  0  0  0  0  0  0  0  0  0  0  0
   37.7320   27.8500   35.2810 N   0  0  0  0  0  0  0  0  0  0  0  0
   39.3360   26.7510   36.0000 H   0  0  0  0  0  0  0  0  0  0  0  0
   37.1820   25.2580   32.5500 H   0  0  0  0  0  0  0  0  0  0  0  0
   35.8580   29.1230   34.4220 C   0  0  0  0  0  0  0  0  0  0  0  0
   36.1040   30.1610   35.2640 C   0  0  0  0  0  0  0  0  0  0  0  0
   35.3350   31.2880   35.3810 C   0  0  0  0  0  0  0  0  0  0  0  0
   34.2380   31.2970   34.5400 C   0  0  0  0  0  0  0  0  0  0  0  0
   33.9260   30.2590   33.6460 C   0  0  0  0  0  0  0  0  0  0  0  0
   34.7800   29.1860   33.6290 N   0  0  0  0  0  0  0  0  0  0  0  0
   36.9980   30.0790   35.9020 H   0  0  0  0  0  0  0  0  0  0  0  0
   35.5240   32.1160   36.0480 H   0  0  0  0  0  0  0  0  0  0  0  0
   33.5490   32.1370   34.5370 H   0  0  0  0  0  0  0  0  0  0  0  0
   33.0540   30.3160   33.0100 H   0  0  0  0  0  0  0  0  0  0  0  0
   38.7810   23.7440   36.3540 C   0  0  0  0  0  3  0  0  0  0  0  0
   37.4640   23.3980   36.9650 C   0  0  0  0  0  2  0  0  0  0  0  0
   37.7620   23.7120   38.4330 C   0  0  0  0  0  2  0  0  0  0  0  0
   39.1950   23.2850   38.6210 C   0  0  0  0  0  2  0  0  0  0  0  0
   39.7040   22.9200   37.2140 C   0  0  0  0  0  2  0  0  0  0  0  0
  1 17  1  0  0  0  0
  1  6  1  0  0  0  0
  2  7  1  0  0  0  0
  2  1  1  0  0  0  0
  3  2  1  0  0  0  0
  3  9  1  0  0  0  0
  4  3  1  0  0  0  0
  4  5  1  0  0  0  0
  5  6  1  0  0  0  0
  5 13  1  0  0  0  0
  6 15  1  6  0  0  0
  6 34  1  0  0  0  0
  8  2  1  0  0  0  0
 10  3  1  0  0  0  0
 11  4  1  0  0  0  0
 12  4  1  0  0  0  0
 14  5  1  0  0  0  0
 16 21  1  0  0  0  0
 16 22  1  0  0  0  0
 17 16  2  0  0  0  0
 18 19  2  0  0  0  0
 18 17  1  0  0  0  0
 19 20  1  0  0  0  0
 20 24  1  0  0  0  0
 20 21  2  0  0  0  0
 23 18  1  0  0  0  0
 24 25  1  0  0  0  0
 25 26  2  0  0  0  0
 25 30  1  0  0  0  0
 26 31  1  0  0  0  0
 27 26  1  0  0  0  0
 28 27  2  0  0  0  0
 29 28  1  0  0  0  0
 29 24  2  0  0  0  0
 32 27  1  0  0  0  0
 33 28  1  0  0  0  0
 34 35  1  0  0  0  0
 34 38  1  0  0  0  0
 35 36  1  0  0  0  0
 36 37  1  0  0  0  0
 38 37  1  0  0  0  0
M  END
>  <minimizedAffinity>
-5.26394653

$$$$

 OpenBabel03272504513D

 38 41  0  0  1  0  0  0  0  0999 V2000
   38.4490   24.2900   35.4280 N   0  0  0  0  0  0  0  0  0  0  0  0
   38.1950   24.7240   36.7900 C   0  0  0  0  0  0  0  0  0  0  0  0
   38.5520   23.7090   37.8240 C   0  0  0  0  0  0  0  0  0  0  0  0
   39.7540   22.8940   37.3950 C   0  0  0  0  0  0  0  0  0  0  0  0
   39.3270   22.1180   36.1830 C   0  0  0  0  0  0  0  0  0  0  0  0
   38.8780   22.9870   35.0480 C   0  0  1  0  0  0  0  0  0  0  0  0
   37.1060   24.9130   36.8700 H   0  0  0  0  0  0  0  0  0  0  0  0
   38.6900   25.7150   36.9760 H   0  0  0  0  0  0  0  0  0  0  0  0
   37.6990   23.0890   38.1360 H   0  0  0  0  0  0  0  0  0  0  0  0
   38.8760   24.2580   38.7440 H   0  0  0  0  0  0  0  0  0  0  0  0
   40.0970   22.2540   38.2030 H   0  0  0  0  0  0  0  0  0  0  0  0
   40.5330   23.6410   37.0810 H   0  0  0  0  0  0  0  0  0  0  0  0
   38.4440   21.5270   36.5220 H   0  0  0  0  0  0  0  0  0  0  0  0
   40.1400   21.4470   35.8170 H   0  0  0  0  0  0  0  0  0  0  0  0
   39.7440   23.0830   34.3620 H   0  0  0  0  0  0  0  0  0  0  0  0
   37.1750   26.1690   34.5170 C   0  0  0  0  0  0  0  0  0  0  0  0
   38.2400   25.2680   34.4190 C   0  0  0  0  0  0  0  0  0  0  0  0
   39.0660   25.3610   33.3130 C   0  0  0  0  0  0  0  0  0  0  0  0
   38.8100   26.3170   32.3760 N   0  0  0  0  0  0  0  0  0  0  0  0
   37.7870   27.1700   32.4880 C   0  0  0  0  0  0  0  0  0  0  0  0
   36.9690   27.0910   33.5670 N   0  0  0  0  0  0  0  0  0  0  0  0
   36.4890   26.1560   35.3530 H   0  0  0  0  0  0  0  0  0  0  0  0
   39.9220   24.7340   33.1260 H   0  0  0  0  0  0  0  0  0  0  0  0
   37.5490   28.1760   31.4800 C   0  0  0  0  0  0  0  0  0  0  0  0
   38.0890   28.0710   30.2360 C   0  0  0  0  0  0  0  0  0  0  0  0
   37.9170   28.9700   29.2180 C   0  0  0  0  0  0  0  0  0  0  0  0
   37.1160   30.0430   29.5580 C   0  0  0  0  0  0  0  0  0  0  0  0
   36.5270   30.2130   30.8220 C   0  0  0  0  0  0  0  0  0  0  0  0
   36.7790   29.2380   31.7530 N   0  0  0  0  0  0  0  0  0  0  0  0
   38.7160   27.1860   30.0440 H   0  0  0  0  0  0  0  0  0  0  0  0
   38.3440   28.8930   28.2290 H   0  0  0  0  0  0  0  0  0  0  0  0
   36.9030   30.8260   28.8360 H   0  0  0  0  0  0  0  0  0  0  0  0
   35.9070   31.0730   31.0370 H   0  0  0  0  0  0  0  0  0  0  0  0
   37.7670   22.3610   34.2450 C   0  0  0  0  0  3  0  0  0  0  0  0
   38.2140   21.4170   33.1800 C   0  0  0  0  0  2  0  0  0  0  0  0
   36.8540   20.9360   32.6660 C   0  0  0  0  0  2  0  0  0  0  0  0
   35.9970   20.8550   33.9030 C   0  0  0  0  0  2  0  0  0  0  0  0
   36.8450   21.4660   35.0330 C   0  0  0  0  0  2  0  0  0  0  0  0
  1  2  1  0  0  0  0
  2  7  1  0  0  0  0
  2  8  1  0  0  0  0
  2  3  1  0  0  0  0
  3  9  1  0  0  0  0
  3 10  1  0  0  0  0
  4  3  1  0  0  0  0
  4 11  1  0  0  0  0
  5 13  1  0  0  0  0
  5  4  1  0  0  0  0
  6 15  1  6  0  0  0
  6  1  1  0  0  0  0
  6  5  1  0  0  0  0
 12  4  1  0  0  0  0
 14  5  1  0  0  0  0
 16 22  1  0  0  0  0
 17 16  1  0  0  0  0
 17  1  1  0  0  0  0
 18 17  2  0  0  0  0
 19 20  2  0  0  0  0
 19 18  1  0  0  0  0
 20 21  1  0  0  0  0
 21 16  2  0  0  0  0
 23 18  1  0  0  0  0
 24 29  1  0  0  0  0
 24 20  1  0  0  0  0
 25 24  2  0  0  0  0
 26 27  2  0  0  0  0
 26 25  1  0  0  0  0
 27 28  1  0  0  0  0
 28 33  1  0  0  0  0
 28 29  2  0  0  0  0
 30 25  1  0  0  0  0
 31 26  1  0  0  0  0
 32 27  1  0  0  0  0
 34 38  1  0  0  0  0
 34  6  1  0  0  0  0
 35 34  1  0  0  0  0
 36 35  1  0  0  0  0
 36 37  1  0  0  0  0
 37 38  1  0  0  0  0
M  END
>  <minimizedAffinity>
-5.2578721

$$$$

 OpenBabel03272504513D

 38 41  0  0  1  0  0  0  0  0999 V2000
   37.9230   26.2800   31.0220 N   0  0  0  0  0  0  0  0  0  0  0  0
   36.8670   27.1960   30.6300 C   0  0  0  0  0  0  0  0  0  0  0  0
   37.3450   28.5760   30.3240 C   0  0  0  0  0  0  0  0  0  0  0  0
   38.7280   28.5480   29.7070 C   0  0  0  0  0  0  0  0  0  0  0  0
   39.6520   28.0140   30.7630 C   0  0  0  0  0  0  0  0  0  0  0  0
   39.2840   26.6400   31.2350 C   0  0  1  0  0  0  0  0  0  0  0  0
   36.1670   27.2680   31.4860 H   0  0  0  0  0  0  0  0  0  0  0  0
   36.2690   26.7550   29.7870 H   0  0  0  0  0  0  0  0  0  0  0  0
   37.2690   29.2610   31.1800 H   0  0  0  0  0  0  0  0  0  0  0  0
   36.6760   29.0030   29.5360 H   0  0  0  0  0  0  0  0  0  0  0  0
   39.0170   29.5350   29.3580 H   0  0  0  0  0  0  0  0  0  0  0  0
   38.6740   27.7980   28.8720 H   0  0  0  0  0  0  0  0  0  0  0  0
   39.5250   28.7090   31.6270 H   0  0  0  0  0  0  0  0  0  0  0  0
   40.7100   27.9980   30.4140 H   0  0  0  0  0  0  0  0  0  0  0  0
   39.9290   25.9310   30.6780 H   0  0  0  0  0  0  0  0  0  0  0  0
   38.2210   23.8980   30.5560 C   0  0  0  0  0  0  0  0  0  0  0  0
   37.5310   24.9280   31.2040 C   0  0  0  0  0  0  0  0  0  0  0  0
   36.4630   24.5810   32.0110 C   0  0  0  0  0  0  0  0  0  0  0  0
   36.1320   23.2650   32.1400 N   0  0  0  0  0  0  0  0  0  0  0  0
   36.8040   22.2950   31.5140 C   0  0  0  0  0  0  0  0  0  0  0  0
   37.8540   22.6190   30.7180 N   0  0  0  0  0  0  0  0  0  0  0  0
   39.0660   24.0940   29.9090 H   0  0  0  0  0  0  0  0  0  0  0  0
   35.8570   25.2760   32.5690 H   0  0  0  0  0  0  0  0  0  0  0  0
   36.4310   20.9100   31.6780 C   0  0  0  0  0  0  0  0  0  0  0  0
   35.7220   20.4940   32.7620 C   0  0  0  0  0  0  0  0  0  0  0  0
   35.3220   19.2060   33.0020 C   0  0  0  0  0  0  0  0  0  0  0  0
   35.7070   18.3170   32.0170 C   0  0  0  0  0  0  0  0  0  0  0  0
   36.4390   18.6780   30.8740 C   0  0  0  0  0  0  0  0  0  0  0  0
   36.7770   20.0020   30.7560 N   0  0  0  0  0  0  0  0  0  0  0  0
   35.4530   21.2640   33.5010 H   0  0  0  0  0  0  0  0  0  0  0  0
   34.7590   18.8700   33.8600 H   0  0  0  0  0  0  0  0  0  0  0  0
   35.4490   17.2630   32.0910 H   0  0  0  0  0  0  0  0  0  0  0  0
   36.7150   17.9410   30.1340 H   0  0  0  0  0  0  0  0  0  0  0  0
   39.5830   26.4310   32.6970 C   0  0  0  0  0  3  0  0  0  0  0  0
   40.9250   26.9110   33.1410 C   0  0  0  0  0  2  0  0  0  0  0  0
   40.8270   26.6210   34.6400 C   0  0  0  0  0  2  0  0  0  0  0  0
   39.3920   26.9270   34.9850 C   0  0  0  0  0  2  0  0  0  0  0  0
   38.6930   27.1990   33.6400 C   0  0  0  0  0  2  0  0  0  0  0  0
  1 17  1  0  0  0  0
  1  6  1  0  0  0  0
  2  1  1  0  0  0  0
  2  7  1  0  0  0  0
  3  2  1  0  0  0  0
  3  9  1  0  0  0  0
  4  3  1  0  0  0  0
  4  5  1  0  0  0  0
  5  6  1  0  0  0  0
  5 13  1  0  0  0  0
  6 15  1  6  0  0  0
  6 34  1  0  0  0  0
  8  2  1  0  0  0  0
 10  3  1  0  0  0  0
 11  4  1  0  0  0  0
 12  4  1  0  0  0  0
 14  5  1  0  0  0  0
 16 21  2  0  0  0  0
 16 17  1  0  0  0  0
 17 18  2  0  0  0  0
 18 19  1  0  0  0  0
 18 23  1  0  0  0  0
 20 24  1  0  0  0  0
 20 19  2  0  0  0  0
 21 20  1  0  0  0  0
 22 16  1  0  0  0  0
 24 25  1  0  0  0  0
 25 26  2  0  0  0  0
 25 30  1  0  0  0  0
 26 31  1  0  0  0  0
 27 32  1  0  0  0  0
 27 26  1  0  0  0  0
 28 27  2  0  0  0  0
 29 28  1  0  0  0  0
 29 24  2  0  0  0  0
 33 28  1  0  0  0  0
 34 35  1  0  0  0  0
 34 38  1  0  0  0  0
 35 36  1  0  0  0  0
 36 37  1  0  0  0  0
 38 37  1  0  0  0  0
M  END
>  <minimizedAffinity>
-5.1690979

$$$$
