
 OpenBabel03272510273D

 41 45  0  0  1  0  0  0  0  0999 V2000
   36.2260   30.2030   46.9190 C   0  0  0  0  0  0  0  0  0  0  0  0
   37.0770   30.7500   47.8770 C   0  0  0  0  0  0  0  0  0  0  0  0
   38.0790   31.6560   47.5200 C   0  0  0  0  0  0  0  0  0  0  0  0
   38.1720   31.9740   46.1680 C   0  0  0  0  0  0  0  0  0  0  0  0
   39.0580   32.8300   45.5790 N   0  0  0  0  0  0  0  0  0  0  0  0
   38.7730   32.8240   44.2690 C   0  0  0  0  0  0  0  0  0  0  0  0
   37.7580   32.0080   44.0360 N   0  0  0  0  0  0  0  0  0  0  0  0
   37.3530   31.4590   45.1940 C   0  0  0  0  0  0  0  0  0  0  0  0
   36.3610   30.5520   45.5860 C   0  0  0  0  0  0  0  0  0  0  0  0
   35.4490   29.5000   47.1940 H   0  0  0  0  0  0  0  0  0  0  0  0
   38.7490   32.0890   48.2590 H   0  0  0  0  0  0  0  0  0  0  0  0
   39.8190   33.3850   46.0590 H   0  0  0  0  0  0  0  0  0  0  0  0
   35.7160   30.1460   44.8170 H   0  0  0  0  0  0  0  0  0  0  0  0
   37.4460   30.1390   51.5570 C   0  0  0  0  0  0  0  0  0  0  0  0
   37.7830   30.5890   50.2940 C   0  0  0  0  0  0  0  0  0  0  0  0
   36.9010   30.3570   49.2630 C   0  0  0  0  0  0  0  0  0  0  0  0
   35.7320   29.6860   49.5650 N   0  0  0  0  0  0  0  0  0  0  0  0
   35.4250   29.2570   50.8050 C   0  0  0  0  0  0  0  0  0  0  0  0
   36.2740   29.4830   51.7830 N   0  0  0  0  0  0  0  0  0  0  0  0
   38.1980   30.3640   52.3100 H   0  0  0  0  0  0  0  0  0  0  0  0
   38.6930   31.1140   50.0440 H   0  0  0  0  0  0  0  0  0  0  0  0
   34.4910   28.7380   50.9710 H   0  0  0  0  0  0  0  0  0  0  0  0
   39.4840   33.5910   43.3450 O   0  0  0  0  0  0  0  0  0  0  0  0
   39.6510   31.8020   41.8990 N   0  0  0  0  0  0  0  0  0  0  0  0
   39.3250   33.2170   41.9840 C   0  0  1  0  0  0  0  0  0  0  0  0
   37.9630   33.4530   41.5340 C   0  0  0  0  0  0  0  0  0  0  0  0
   37.8660   33.0890   40.1800 O   0  0  0  0  0  0  0  0  0  0  0  0
   38.2590   31.8150   39.8860 C   0  0  0  0  0  0  0  0  0  0  0  0
   39.6230   31.5230   40.4850 C   0  0  2  0  0  0  0  0  0  0  0  0
   39.0070   31.1450   42.3130 H   0  0  0  0  0  0  0  0  0  0  0  0
   40.0490   33.7460   41.3420 H   0  0  0  0  0  0  0  0  0  0  0  0
   37.8110   34.5770   41.5020 H   0  0  0  0  0  0  0  0  0  0  0  0
   37.0900   33.0480   41.9680 H   0  0  0  0  0  0  0  0  0  0  0  0
   37.4820   31.1320   40.2600 H   0  0  0  0  0  0  0  0  0  0  0  0
   38.3860   31.7470   38.7980 H   0  0  0  0  0  0  0  0  0  0  0  0
   40.2960   32.2850   40.0260 H   0  0  0  0  0  0  0  0  0  0  0  0
   40.1640   30.1970   40.1090 C   0  0  0  0  0  3  0  0  0  0  0  0
   40.1040   29.2210   41.2550 C   0  0  0  0  0  2  0  0  0  0  0  0
   40.8210   28.0270   40.6090 C   0  0  0  0  0  2  0  0  0  0  0  0
   42.0330   28.7170   40.0210 C   0  0  0  0  0  2  0  0  0  0  0  0
   41.6200   30.1710   39.7640 C   0  0  0  0  0  2  0  0  0  0  0  0
  1 10  1  0  0  0  0
  1  2  1  0  0  0  0
  2 16  1  0  0  0  0
  3  2  2  0  0  0  0
  3 11  1  0  0  0  0
  4  3  1  0  0  0  0
  5 12  1  0  0  0  0
  5  4  1  0  0  0  0
  6  5  1  0  0  0  0
  7  6  2  0  0  0  0
  7  8  1  0  0  0  0
  8  9  1  0  0  0  0
  8  4  2  0  0  0  0
  9  1  2  0  0  0  0
 13  9  1  0  0  0  0
 14 19  1  0  0  0  0
 14 20  1  0  0  0  0
 15 14  2  0  0  0  0
 16 17  2  0  0  0  0
 16 15  1  0  0  0  0
 17 18  1  0  0  0  0
 18 22  1  0  0  0  0
 18 19  2  0  0  0  0
 21 15  1  0  0  0  0
 23  6  1  0  0  0  0
 24 25  1  0  0  0  0
 24 30  1  0  0  0  0
 25 31  1  6  0  0  0
 25 23  1  0  0  0  0
 26 33  1  0  0  0  0
 26 25  1  0  0  0  0
 27 26  1  0  0  0  0
 28 27  1  0  0  0  0
 28 34  1  0  0  0  0
 28 29  1  0  0  0  0
 29 36  1  6  0  0  0
 29 24  1  0  0  0  0
 32 26  1  0  0  0  0
 35 28  1  0  0  0  0
 37 29  1  0  0  0  0
 37 38  1  0  0  0  0
 39 38  1  0  0  0  0
 40 39  1  0  0  0  0
 41 40  1  0  0  0  0
 41 37  1  0  0  0  0
M  END
>  <minimizedAffinity>
-6.03360653

>  <minimizedRMSD>
0.776326478

$$$$
