
     RDKit          3D

 46 50  0  0  0  0  0  0  0  0999 V2000
   37.5557   32.0650   48.5004 C   0  0  1  0  0  0  0  0  0  0  0  0
   38.7923   32.7943   48.8360 C   0  0  0  0  0  0  0  0  0  0  0  0
   38.9320   31.6362   47.9154 C   0  0  2  0  0  0  0  0  0  0  0  0
   39.2994   32.0986   46.5522 C   0  0  0  0  0  0  0  0  0  0  0  0
   39.7546   33.4220   46.5875 C   0  0  0  0  0  0  0  0  0  0  0  0
   40.2245   34.0410   45.4480 C   0  0  0  0  0  0  0  0  0  0  0  0
   40.2586   33.3600   44.2267 C   0  0  0  0  0  0  0  0  0  0  0  0
   39.8069   32.0616   44.2211 C   0  0  0  0  0  0  0  0  0  0  0  0
   39.7683   31.2732   43.0950 C   0  0  0  0  0  0  0  0  0  0  0  0
   39.3086   29.9746   43.0690 C   0  0  0  0  0  0  0  0  0  0  0  0
   38.8533   29.4100   44.2384 C   0  0  0  0  0  0  0  0  0  0  0  0
   38.8802   30.1785   45.3824 C   0  0  0  0  0  0  0  0  0  0  0  0
   39.3468   31.4672   45.3573 C   0  0  0  0  0  0  0  0  0  0  0  0
   35.2949   29.5759   50.2031 C   0  0  0  0  0  0  0  0  0  0  0  0
   35.8006   30.4905   49.2364 C   0  0  0  0  0  0  0  0  0  0  0  0
   37.0114   31.1004   49.4775 C   0  0  0  0  0  0  0  0  0  0  0  0
   37.6335   30.7721   50.6373 N   0  0  0  0  0  0  0  0  0  0  0  0
   37.1583   29.9100   51.5496 C   0  0  0  0  0  0  0  0  0  0  0  0
   35.9689   29.3000   51.3318 N   0  0  0  0  0  0  0  0  0  0  0  0
   36.9124   32.4074   47.7062 H   0  0  0  0  0  0  0  0  0  0  0  0
   39.2136   32.6318   49.8899 H   0  0  0  0  0  0  0  0  0  0  0  0
   38.7160   33.8441   48.6286 H   0  0  0  0  0  0  0  0  0  0  0  0
   39.0576   30.5765   48.0505 H   0  0  0  0  0  0  0  0  0  0  0  0
   39.8791   34.1887   47.3213 H   0  0  0  0  0  0  0  0  0  0  0  0
   40.6055   35.0390   45.3008 H   0  0  0  0  0  0  0  0  0  0  0  0
   40.5912   33.6918   43.2518 H   0  0  0  0  0  0  0  0  0  0  0  0
   40.1270   31.6992   42.1442 H   0  0  0  0  0  0  0  0  0  0  0  0
   39.3017   29.3983   42.1464 H   0  0  0  0  0  0  0  0  0  0  0  0
   38.4777   28.3993   44.3033 H   0  0  0  0  0  0  0  0  0  0  0  0
   38.5096   29.7075   46.3101 H   0  0  0  0  0  0  0  0  0  0  0  0
   34.3447   29.0941   50.0198 H   0  0  0  0  0  0  0  0  0  0  0  0
   35.2116   30.6667   48.3545 H   0  0  0  0  0  0  0  0  0  0  0  0
   38.0375   29.7132   52.7571 C   0  0  0  0  0  0  0  0  0  0  0  0
   38.2713   30.9943   53.4846 C   0  0  0  0  0  0  0  0  0  0  0  0
   39.7449   31.1667   53.6916 C   0  0  0  0  0  0  0  0  0  0  0  0
   40.4099   29.8861   53.2327 C   0  0  0  0  0  0  0  0  0  0  0  0
   39.3788   29.1761   52.3743 C   0  0  0  0  0  0  0  0  0  0  0  0
   37.5467   28.9817   53.4432 H   0  0  0  0  0  0  0  0  0  0  0  0
   37.8240   31.8759   52.9763 H   0  0  0  0  0  0  0  0  0  0  0  0
   37.8073   30.9534   54.5054 H   0  0  0  0  0  0  0  0  0  0  0  0
   40.0128   31.3834   54.7581 H   0  0  0  0  0  0  0  0  0  0  0  0
   40.1368   32.0390   53.1058 H   0  0  0  0  0  0  0  0  0  0  0  0
   40.6689   29.2833   54.1317 H   0  0  0  0  0  0  0  0  0  0  0  0
   41.3599   30.0827   52.6979 H   0  0  0  0  0  0  0  0  0  0  0  0
   39.5999   29.3105   51.2958 H   0  0  0  0  0  0  0  0  0  0  0  0
   39.4468   28.0947   52.6145 H   0  0  0  0  0  0  0  0  0  0  0  0
  1  2  1  0
  1 16  1  0
  3  1  1  0
  3  2  1  0
  4  5  2  0
  4  3  1  0
  6  5  1  0
  7  6  2  0
  8  7  1  0
  8 13  2  0
  9  8  1  0
 10  9  2  0
 10 11  1  0
 11 12  2  0
 13 12  1  0
 13  4  1  0
 14 19  2  0
 15 16  2  0
 15 14  1  0
 16 17  1  0
 17 18  2  0
 19 18  1  0
  1 20  1  6
  2 21  1  0
  2 22  1  0
  3 23  1  1
  5 24  1  0
  6 25  1  0
  7 26  1  0
  9 27  1  0
 10 28  1  0
 11 29  1  0
 12 30  1  0
 14 31  1  0
 15 32  1  0
 33 34  1  0
 34 35  1  0
 35 36  1  0
 36 37  1  0
 37 33  1  0
 33 38  1  0
 34 39  1  0
 34 40  1  0
 35 41  1  0
 35 42  1  0
 36 43  1  0
 36 44  1  0
 37 45  1  0
 37 46  1  0
 18 33  1  0
M  ISO  8  20  13  21  13  22  13  23  13  24  14  25  14  26  14  27  14
M  ISO  5  28  14  29  14  30  14  31  14  32  14
M  END
>  <DihAtoms>  (1) 
16,17,32,33

>  <DihDeg>  (1) 
59.147588644057464

$$$$
