
 OpenBabel03272506323D

 36 38  0  0  1  0  0  0  0  0999 V2000
   35.3880   30.3540   48.5700 C   0  0  1  0  0  0  0  0  0  0  0  0
   34.8730   30.4840   49.9170 C   0  0  0  0  0  0  0  0  0  0  0  0
   35.5530   29.6600   50.9930 C   0  0  0  0  0  0  0  0  0  0  0  0
   37.0300   29.5350   50.8630 C   0  0  0  0  0  0  0  0  0  0  0  0
   37.5920   29.4380   49.4970 C   0  0  0  0  0  0  0  0  0  0  0  0
   36.8960   30.3350   48.5290 C   0  0  2  0  0  0  0  0  0  0  0  0
   35.1440   31.3010   47.9930 H   0  0  0  0  0  0  0  0  0  0  0  0
   33.8040   30.3750   50.0770 H   0  0  0  0  0  0  0  0  0  0  0  0
   35.0980   31.5450   50.2390 H   0  0  0  0  0  0  0  0  0  0  0  0
   35.3460   30.1170   51.9860 H   0  0  0  0  0  0  0  0  0  0  0  0
   35.0710   28.6540   51.0390 H   0  0  0  0  0  0  0  0  0  0  0  0
   37.3010   28.5680   51.3810 H   0  0  0  0  0  0  0  0  0  0  0  0
   37.5450   30.3290   51.4410 H   0  0  0  0  0  0  0  0  0  0  0  0
   38.6450   29.7670   49.5330 H   0  0  0  0  0  0  0  0  0  0  0  0
   37.5980   28.3990   49.0780 H   0  0  0  0  0  0  0  0  0  0  0  0
   37.3070   30.1460   47.5430 H   0  0  0  0  0  0  0  0  0  0  0  0
   34.3610   28.0340   48.2350 C   0  0  0  0  0  0  0  0  0  0  0  0
   34.7940   29.2980   47.7310 C   0  0  0  0  0  0  0  0  0  0  0  0
   34.6200   29.4760   46.3730 C   0  0  0  0  0  0  0  0  0  0  0  0
   34.0670   28.4870   45.6020 N   0  0  0  0  0  0  0  0  0  0  0  0
   33.6830   27.3230   46.1390 C   0  0  0  0  0  0  0  0  0  0  0  0
   33.8320   27.0960   47.4690 N   0  0  0  0  0  0  0  0  0  0  0  0
   34.4860   27.8640   49.2970 H   0  0  0  0  0  0  0  0  0  0  0  0
   34.9030   30.3780   45.8790 H   0  0  0  0  0  0  0  0  0  0  0  0
   33.2470   26.5410   45.5330 H   0  0  0  0  0  0  0  0  0  0  0  0
   37.3180   31.7540   48.9250 C   0  0  0  0  0  0  0  0  0  0  0  0
   36.6350   32.5160   48.4920 H   0  0  0  0  0  0  0  0  0  0  0  0
   37.3070   31.8710   50.0280 H   0  0  0  0  0  0  0  0  0  0  0  0
   38.7000   32.0950   48.4380 C   0  0  0  0  0  0  0  0  0  0  0  0
   39.0610   32.9740   49.0210 H   0  0  0  0  0  0  0  0  0  0  0  0
   39.3490   31.2340   48.7060 H   0  0  0  0  0  0  0  0  0  0  0  0
   38.8650   32.3870   47.0070 C   0  0  0  0  0  3  0  0  0  0  0  0
   39.4820   31.1280   46.3710 C   0  0  0  0  0  2  0  0  0  0  0  0
   40.5720   31.5850   45.4600 C   0  0  0  0  0  2  0  0  0  0  0  0
   40.2550   33.0640   45.2470 C   0  0  0  0  0  2  0  0  0  0  0  0
   39.8960   33.4380   46.6910 C   0  0  0  0  0  2  0  0  0  0  0  0
  1  7  1  6  0  0  0
  1  2  1  0  0  0  0
  2  8  1  0  0  0  0
  2  9  1  0  0  0  0
  2  3  1  0  0  0  0
  3 11  1  0  0  0  0
  3 10  1  0  0  0  0
  4  3  1  0  0  0  0
  4 12  1  0  0  0  0
  4 13  1  0  0  0  0
  5 14  1  0  0  0  0
  5  4  1  0  0  0  0
  6 16  1  6  0  0  0
  6  1  1  0  0  0  0
  6 26  1  0  0  0  0
  6  5  1  0  0  0  0
 15  5  1  0  0  0  0
 17 23  1  0  0  0  0
 18 17  1  0  0  0  0
 18  1  1  0  0  0  0
 19 18  2  0  0  0  0
 20 21  2  0  0  0  0
 20 19  1  0  0  0  0
 21 22  1  0  0  0  0
 22 17  2  0  0  0  0
 24 19  1  0  0  0  0
 25 21  1  0  0  0  0
 26 28  1  0  0  0  0
 27 26  1  0  0  0  0
 29 31  1  0  0  0  0
 29 26  1  0  0  0  0
 29 30  1  0  0  0  0
 32 29  1  0  0  0  0
 33 32  1  0  0  0  0
 34 33  1  0  0  0  0
 35 34  1  0  0  0  0
 35 36  1  0  0  0  0
 36 32  1  0  0  0  0
M  END
>  <minimizedAffinity>
-5.97244978

>  <minimizedRMSD>
1.2886517

$$$$
