
 OpenBabel03272510303D

 24 26  0  0  0  0  0  0  0  0999 V2000
   37.1510   31.2870   49.2530 C   0  0  0  0  0  0  0  0  0  0  0  0
   37.3900   32.5370   49.8270 C   0  0  0  0  0  0  0  0  0  0  0  0
   38.3320   33.3290   49.1700 C   0  0  0  0  0  0  0  0  0  0  0  0
   38.9470   32.8670   48.0470 N   0  0  0  0  0  0  0  0  0  0  0  0
   38.6720   31.6330   47.5320 C   0  0  0  0  0  0  0  0  0  0  0  0
   37.7470   30.8210   48.1550 N   0  0  0  0  0  0  0  0  0  0  0  0
   36.8770   32.8670   50.7210 H   0  0  0  0  0  0  0  0  0  0  0  0
   38.5760   34.3150   49.5490 H   0  0  0  0  0  0  0  0  0  0  0  0
   36.1120   30.4280   49.9050 C   0  0  0  0  0  0  0  0  0  0  0  0
   36.0310   29.0010   49.6970 C   0  0  0  0  0  0  0  0  0  0  0  0
   36.6780   29.4880   50.9730 C   0  0  0  0  0  0  0  0  0  0  0  0
   35.2560   31.0720   50.2650 H   0  0  0  0  0  0  0  0  0  0  0  0
   36.7420   28.5630   48.9630 H   0  0  0  0  0  0  0  0  0  0  0  0
   35.0620   28.4750   49.7200 H   0  0  0  0  0  0  0  0  0  0  0  0
   36.0680   29.3840   51.8660 H   0  0  0  0  0  0  0  0  0  0  0  0
   37.7560   29.4560   51.1110 H   0  0  0  0  0  0  0  0  0  0  0  0
   39.2970   31.1260   46.3210 C   0  0  0  0  0  0  0  0  0  0  0  0
   39.8570   31.8930   45.7690 H   0  0  0  0  0  0  0  0  0  0  0  0
   40.0130   30.3280   46.6130 H   0  0  0  0  0  0  0  0  0  0  0  0
   38.3290   30.5120   45.3410 C   0  0  0  0  0  3  0  0  0  0  0  0
   39.1800   29.7870   44.2940 C   0  0  0  0  0  2  0  0  0  0  0  0
   38.4000   29.8390   43.0020 C   0  0  0  0  0  2  0  0  0  0  0  0
   37.2470   30.7960   43.2490 C   0  0  0  0  0  2  0  0  0  0  0  0
   37.6010   31.5370   44.5220 C   0  0  0  0  0  2  0  0  0  0  0  0
  1  2  1  0  0  0  0
  1  9  1  0  0  0  0
  2  7  1  0  0  0  0
  3  8  1  0  0  0  0
  3  2  2  0  0  0  0
  4  3  1  0  0  0  0
  5  4  2  0  0  0  0
  5  6  1  0  0  0  0
  6  1  2  0  0  0  0
  9 12  1  0  0  0  0
  9 11  1  0  0  0  0
 10 14  1  0  0  0  0
 10  9  1  0  0  0  0
 10 11  1  0  0  0  0
 11 16  1  0  0  0  0
 11 15  1  0  0  0  0
 13 10  1  0  0  0  0
 17 19  1  0  0  0  0
 17  5  1  0  0  0  0
 18 17  1  0  0  0  0
 20 17  1  0  0  0  0
 21 20  1  0  0  0  0
 22 23  1  0  0  0  0
 22 21  1  0  0  0  0
 23 24  1  0  0  0  0
 24 20  1  0  0  0  0
M  END
>  <minimizedAffinity>
-5.10965633

>  <minimizedRMSD>
1.46490729

$$$$
