
 OpenBabel03272506303D

 30 32  0  0  1  0  0  0  0  0999 V2000
   33.8660   29.5560   48.6220 C   0  0  1  0  0  0  0  0  0  0  0  0
   33.8980   30.1200   47.2620 C   0  0  0  0  0  0  0  0  0  0  0  0
   34.4380   29.2390   46.1690 C   0  0  0  0  0  0  0  0  0  0  0  0
   34.0610   27.8090   46.2840 C   0  0  0  0  0  0  0  0  0  0  0  0
   34.0970   27.2250   47.6450 C   0  0  0  0  0  0  0  0  0  0  0  0
   33.4360   28.1310   48.6530 C   0  0  2  0  0  0  0  0  0  0  0  0
   33.0590   30.1130   49.1970 H   0  0  0  0  0  0  0  0  0  0  0  0
   32.8030   30.2320   46.9640 H   0  0  0  0  0  0  0  0  0  0  0  0
   34.2960   31.1100   47.1310 H   0  0  0  0  0  0  0  0  0  0  0  0
   35.5470   29.2990   46.1330 H   0  0  0  0  0  0  0  0  0  0  0  0
   34.0710   29.6270   45.1970 H   0  0  0  0  0  0  0  0  0  0  0  0
   33.0160   27.6960   45.8920 H   0  0  0  0  0  0  0  0  0  0  0  0
   34.7120   27.2100   45.6170 H   0  0  0  0  0  0  0  0  0  0  0  0
   35.1550   27.1030   47.9620 H   0  0  0  0  0  0  0  0  0  0  0  0
   33.6240   26.2540   47.6770 H   0  0  0  0  0  0  0  0  0  0  0  0
   33.5600   27.6210   49.6180 H   0  0  0  0  0  0  0  0  0  0  0  0
   36.0990   30.7300   49.0560 C   0  0  0  0  0  0  0  0  0  0  0  0
   35.0740   29.8320   49.4420 C   0  0  0  0  0  0  0  0  0  0  0  0
   35.2350   29.1920   50.6570 C   0  0  0  0  0  0  0  0  0  0  0  0
   36.3350   29.4410   51.4130 N   0  0  0  0  0  0  0  0  0  0  0  0
   37.2930   30.3120   51.0010 C   0  0  0  0  0  0  0  0  0  0  0  0
   37.1640   30.9560   49.8130 N   0  0  0  0  0  0  0  0  0  0  0  0
   36.0300   31.2590   48.1180 H   0  0  0  0  0  0  0  0  0  0  0  0
   34.5790   28.4860   51.1310 H   0  0  0  0  0  0  0  0  0  0  0  0
   38.1840   30.5380   51.5730 H   0  0  0  0  0  0  0  0  0  0  0  0
   31.9030   28.1080   48.4510 C   0  0  0  0  0  3  0  0  0  0  0  0
   31.2230   28.4980   49.7400 C   0  0  0  0  0  2  0  0  0  0  0  0
   29.8450   27.8280   49.6630 C   0  0  0  0  0  2  0  0  0  0  0  0
   30.1880   26.5000   49.0560 C   0  0  0  0  0  2  0  0  0  0  0  0
   31.4180   26.7190   48.2060 C   0  0  0  0  0  2  0  0  0  0  0  0
  1  6  1  0  0  0  0
  1  7  1  1  0  0  0
  1 18  1  0  0  0  0
  2  1  1  0  0  0  0
  3  4  1  0  0  0  0
  3  2  1  0  0  0  0
  4  5  1  0  0  0  0
  5 15  1  0  0  0  0
  5 14  1  0  0  0  0
  5  6  1  0  0  0  0
  6 16  1  1  0  0  0
  8  2  1  0  0  0  0
  9  2  1  0  0  0  0
 10  3  1  0  0  0  0
 11  3  1  0  0  0  0
 12  4  1  0  0  0  0
 13  4  1  0  0  0  0
 17 18  2  0  0  0  0
 17 22  1  0  0  0  0
 18 19  1  0  0  0  0
 19 24  1  0  0  0  0
 19 20  2  0  0  0  0
 21 20  1  0  0  0  0
 21 25  1  0  0  0  0
 22 21  2  0  0  0  0
 23 17  1  0  0  0  0
 26  6  1  0  0  0  0
 26 27  1  0  0  0  0
 28 27  1  0  0  0  0
 29 28  1  0  0  0  0
 30 26  1  0  0  0  0
 30 29  1  0  0  0  0
M  END
>  <minimizedAffinity>
-4.16464186

>  <minimizedRMSD>
1.25430751

$$$$
