REMARK  Name = 
REMARK  3 active torsions:
REMARK  status: ('A' for Active; 'I' for Inactive)
REMARK    1  A    between atoms: C_1  and  C_7
REMARK    2  A    between atoms: C_5  and  C_10
REMARK    3  A    between atoms: C_10  and  C_20
REMARK                            x       y       z     vdW  Elec       q    Type
REMARK                         _______ _______ _______ _____ _____    ______ ____
ROOT
ATOM      1  C   UNL     1      37.375  31.360  49.208  0.00  0.00    +0.000 A 
ATOM      2  C   UNL     1      37.704  32.658  49.604  0.00  0.00    +0.000 A 
ATOM      3  C   UNL     1      38.586  33.336  48.763  0.00  0.00    +0.000 A 
ATOM      4  N   UNL     1      39.065  32.728  47.644  0.00  0.00    +0.000 NA
ATOM      5  C   UNL     1      38.707  31.454  47.308  0.00  0.00    +0.000 A 
ATOM      6  N   UNL     1      37.837  30.751  48.116  0.00  0.00    +0.000 NA
ATOM      7  H   UNL     1      37.299  33.105  50.502  0.00  0.00    +0.000 HD
ATOM      8  H   UNL     1      38.893  34.349  48.997  0.00  0.00    +0.000 HD
ENDROOT
BRANCH   1   9
ATOM      9  C   UNL     1      36.393  30.618  50.062  0.00  0.00    +0.000 C 
ATOM     10  C   UNL     1      36.265  29.179  50.040  0.00  0.00    +0.000 C 
ATOM     11  C   UNL     1      37.050  29.796  51.175  0.00  0.00    +0.000 C 
ATOM     12  H   UNL     1      35.591  31.327  50.425  0.00  0.00    +0.000 HD
ATOM     13  H   UNL     1      36.888  28.635  49.297  0.00  0.00    +0.000 HD
ATOM     14  H   UNL     1      35.294  28.690  50.225  0.00  0.00    +0.000 HD
ATOM     15  H   UNL     1      36.534  29.819  52.131  0.00  0.00    +0.000 HD
ATOM     16  H   UNL     1      38.136  29.747  51.207  0.00  0.00    +0.000 HD
ENDBRANCH   1   9
BRANCH   5  17
ATOM     17  C   UNL     1      39.185  30.791  46.106  0.00  0.00    +0.000 C 
ATOM     18  H   UNL     1      38.937  31.333  45.184  0.00  0.00    +0.000 HD
ATOM     19  H   UNL     1      40.292  30.720  46.170  0.00  0.00    +0.000 HD
BRANCH  17  20
ATOM     20  C   UNL     1      38.664  29.386  45.931  0.00  0.00    +0.000 C 
ATOM     21  C   UNL     1      39.747  28.618  45.168  0.00  0.00    +0.000 C 
ATOM     22  C   UNL     1      39.029  27.569  44.351  0.00  0.00    +0.000 C 
ATOM     23  C   UNL     1      37.551  27.902  44.452  0.00  0.00    +0.000 C 
ATOM     24  C   UNL     1      37.489  29.313  45.000  0.00  0.00    +0.000 C 
ENDBRANCH  17  20
ENDBRANCH   5  17
TORSDOF 3
