
 OpenBabel03272510273D

 41 45  0  0  1  0  0  0  0  0999 V2000
   36.2590   30.1750   46.9220 C   0  0  0  0  0  0  0  0  0  0  0  0
   37.0820   30.7460   47.8900 C   0  0  0  0  0  0  0  0  0  0  0  0
   38.0630   31.6810   47.5440 C   0  0  0  0  0  0  0  0  0  0  0  0
   38.1640   32.0000   46.1940 C   0  0  0  0  0  0  0  0  0  0  0  0
   39.0330   32.8790   45.6150 N   0  0  0  0  0  0  0  0  0  0  0  0
   38.7640   32.8650   44.3020 C   0  0  0  0  0  0  0  0  0  0  0  0
   37.7750   32.0200   44.0570 N   0  0  0  0  0  0  0  0  0  0  0  0
   37.3710   31.4610   45.2100 C   0  0  0  0  0  0  0  0  0  0  0  0
   36.4000   30.5280   45.5910 C   0  0  0  0  0  0  0  0  0  0  0  0
   35.4980   29.4510   47.1880 H   0  0  0  0  0  0  0  0  0  0  0  0
   38.7110   32.1320   48.2920 H   0  0  0  0  0  0  0  0  0  0  0  0
   39.7720   33.4560   46.1040 H   0  0  0  0  0  0  0  0  0  0  0  0
   35.7760   30.1030   44.8140 H   0  0  0  0  0  0  0  0  0  0  0  0
   37.4360   30.1230   51.5700 C   0  0  0  0  0  0  0  0  0  0  0  0
   37.7790   30.5760   50.3090 C   0  0  0  0  0  0  0  0  0  0  0  0
   36.9000   30.3500   49.2740 C   0  0  0  0  0  0  0  0  0  0  0  0
   35.7280   29.6820   49.5700 N   0  0  0  0  0  0  0  0  0  0  0  0
   35.4150   29.2500   50.8080 C   0  0  0  0  0  0  0  0  0  0  0  0
   36.2610   29.4700   51.7900 N   0  0  0  0  0  0  0  0  0  0  0  0
   38.1860   30.3430   52.3260 H   0  0  0  0  0  0  0  0  0  0  0  0
   38.6920   31.0990   50.0640 H   0  0  0  0  0  0  0  0  0  0  0  0
   34.4780   28.7340   50.9690 H   0  0  0  0  0  0  0  0  0  0  0  0
   39.4650   33.6510   43.3850 O   0  0  0  0  0  0  0  0  0  0  0  0
   39.7230   31.8870   41.9220 N   0  0  0  0  0  0  0  0  0  0  0  0
   39.3210   33.2810   42.0220 C   0  0  1  0  0  0  0  0  0  0  0  0
   37.9460   33.4480   41.5790 C   0  0  0  0  0  0  0  0  0  0  0  0
   37.8630   33.0920   40.2220 O   0  0  0  0  0  0  0  0  0  0  0  0
   38.3240   31.8430   39.9140 C   0  0  0  0  0  0  0  0  0  0  0  0
   39.7030   31.6190   40.5060 C   0  0  2  0  0  0  0  0  0  0  0  0
   39.1170   31.1920   42.3320 H   0  0  0  0  0  0  0  0  0  0  0  0
   40.0130   33.8540   41.3820 H   0  0  0  0  0  0  0  0  0  0  0  0
   37.7340   34.5620   41.5590 H   0  0  0  0  0  0  0  0  0  0  0  0
   37.0980   32.9920   42.0130 H   0  0  0  0  0  0  0  0  0  0  0  0
   37.5850   31.1160   40.2850 H   0  0  0  0  0  0  0  0  0  0  0  0
   38.4490   31.7930   38.8250 H   0  0  0  0  0  0  0  0  0  0  0  0
   40.3320   32.4210   40.0520 H   0  0  0  0  0  0  0  0  0  0  0  0
   40.3130   30.3280   40.1150 C   0  0  0  0  0  3  0  0  0  0  0  0
   40.8830   29.5950   41.3020 C   0  0  0  0  0  2  0  0  0  0  0  0
   41.5260   28.4040   40.5790 C   0  0  0  0  0  2  0  0  0  0  0  0
   42.2660   29.1190   39.4690 C   0  0  0  0  0  2  0  0  0  0  0  0
   41.5070   30.4270   39.2180 C   0  0  0  0  0  2  0  0  0  0  0  0
  1 10  1  0  0  0  0
  1  2  1  0  0  0  0
  2 16  1  0  0  0  0
  3  2  2  0  0  0  0
  3 11  1  0  0  0  0
  4  3  1  0  0  0  0
  5 12  1  0  0  0  0
  5  4  1  0  0  0  0
  6  5  1  0  0  0  0
  7  6  2  0  0  0  0
  7  8  1  0  0  0  0
  8  9  1  0  0  0  0
  8  4  2  0  0  0  0
  9  1  2  0  0  0  0
 13  9  1  0  0  0  0
 14 19  1  0  0  0  0
 14 20  1  0  0  0  0
 15 14  2  0  0  0  0
 16 17  2  0  0  0  0
 16 15  1  0  0  0  0
 17 18  1  0  0  0  0
 18 22  1  0  0  0  0
 18 19  2  0  0  0  0
 21 15  1  0  0  0  0
 23  6  1  0  0  0  0
 24 25  1  0  0  0  0
 24 30  1  0  0  0  0
 25 31  1  6  0  0  0
 25 23  1  0  0  0  0
 26 33  1  0  0  0  0
 26 25  1  0  0  0  0
 27 26  1  0  0  0  0
 28 27  1  0  0  0  0
 28 34  1  0  0  0  0
 28 29  1  0  0  0  0
 29 36  1  6  0  0  0
 29 24  1  0  0  0  0
 32 26  1  0  0  0  0
 35 28  1  0  0  0  0
 37 29  1  0  0  0  0
 37 38  1  0  0  0  0
 39 38  1  0  0  0  0
 40 39  1  0  0  0  0
 41 40  1  0  0  0  0
 41 37  1  0  0  0  0
M  END
>  <minimizedAffinity>
-5.99790144

>  <minimizedRMSD>
0.239982769

$$$$
