
 OpenBabel03262522493D

 21 23  0  0  0  0  0  0  0  0999 V2000
   37.6250   26.8660   33.8710 C   0  0  0  0  0  0  0  0  0  0  0  0
   37.9210   27.1230   35.1490 C   0  0  0  0  0  0  0  0  0  0  0  0
   38.1940   26.1110   36.0260 C   0  0  0  0  0  0  0  0  0  0  0  0
   38.1430   24.8490   35.5000 C   0  0  0  0  0  0  0  0  0  0  0  0
   37.7030   25.1360   33.7640 S   0  0  0  0  0  0  0  0  0  0  0  0
   37.9410   28.1720   35.4950 H   0  0  0  0  0  0  0  0  0  0  0  0
   38.4450   26.1980   37.0740 H   0  0  0  0  0  0  0  0  0  0  0  0
   35.9520   29.4930   31.9830 C   0  0  0  0  0  0  0  0  0  0  0  0
   36.6700   29.5120   30.7680 C   0  0  0  0  0  0  0  0  0  0  0  0
   37.7360   28.6060   30.6130 C   0  0  0  0  0  0  0  0  0  0  0  0
   38.0220   27.7580   31.6400 N   0  0  0  0  0  0  0  0  0  0  0  0
   37.3050   27.7800   32.7790 C   0  0  0  0  0  0  0  0  0  0  0  0
   36.2960   28.6210   32.9560 N   0  0  0  0  0  0  0  0  0  0  0  0
   35.1390   30.1960   32.0830 H   0  0  0  0  0  0  0  0  0  0  0  0
   36.4230   30.1880   29.9830 H   0  0  0  0  0  0  0  0  0  0  0  0
   38.2850   28.6230   29.6820 H   0  0  0  0  0  0  0  0  0  0  0  0
   38.3550   23.4850   36.0320 C   0  0  0  0  0  3  0  0  0  0  0  0
   37.6170   23.2860   37.3260 C   0  0  0  0  0  2  0  0  0  0  0  0
   38.6300   23.4660   38.4400 C   0  0  0  0  0  2  0  0  0  0  0  0
   39.8860   22.8700   37.7980 C   0  0  0  0  0  2  0  0  0  0  0  0
   39.8330   23.3560   36.3620 C   0  0  0  0  0  2  0  0  0  0  0  0
  1  2  2  0  0  0  0
  2  6  1  0  0  0  0
  2  3  1  0  0  0  0
  3  7  1  0  0  0  0
  4  3  2  0  0  0  0
  4 17  1  0  0  0  0
  5  1  1  0  0  0  0
  5  4  1  0  0  0  0
  8 14  1  0  0  0  0
  8 13  1  0  0  0  0
  9  8  2  0  0  0  0
 10  9  1  0  0  0  0
 10 11  2  0  0  0  0
 11 12  1  0  0  0  0
 12 13  2  0  0  0  0
 12  1  1  0  0  0  0
 15  9  1  0  0  0  0
 16 10  1  0  0  0  0
 17 21  1  0  0  0  0
 17 18  1  0  0  0  0
 18 19  1  0  0  0  0
 20 19  1  0  0  0  0
 21 20  1  0  0  0  0
M  END
>  <minimizedAffinity>
-4.76414347

$$$$

 OpenBabel03262522493D

 21 23  0  0  0  0  0  0  0  0999 V2000
   35.9790   23.4890   31.5770 C   0  0  0  0  0  0  0  0  0  0  0  0
   35.2020   24.4030   30.9860 C   0  0  0  0  0  0  0  0  0  0  0  0
   35.4340   25.7390   31.1570 C   0  0  0  0  0  0  0  0  0  0  0  0
   36.4970   26.0530   31.9580 C   0  0  0  0  0  0  0  0  0  0  0  0
   37.1430   24.4310   32.4520 S   0  0  0  0  0  0  0  0  0  0  0  0
   34.3620   24.0660   30.3530 H   0  0  0  0  0  0  0  0  0  0  0  0
   34.8770   26.5630   30.7330 H   0  0  0  0  0  0  0  0  0  0  0  0
   36.8310   20.0480   30.7400 C   0  0  0  0  0  0  0  0  0  0  0  0
   35.8380   19.3060   31.4150 C   0  0  0  0  0  0  0  0  0  0  0  0
   34.8730   20.0110   32.1590 C   0  0  0  0  0  0  0  0  0  0  0  0
   34.9460   21.3710   32.1930 N   0  0  0  0  0  0  0  0  0  0  0  0
   35.9140   22.0310   31.5310 C   0  0  0  0  0  0  0  0  0  0  0  0
   36.8370   21.3970   30.8210 N   0  0  0  0  0  0  0  0  0  0  0  0
   37.5620   19.4880   30.1760 H   0  0  0  0  0  0  0  0  0  0  0  0
   35.8080   18.2410   31.3710 H   0  0  0  0  0  0  0  0  0  0  0  0
   34.1140   19.4400   32.6760 H   0  0  0  0  0  0  0  0  0  0  0  0
   37.1210   27.3110   32.4240 C   0  0  0  0  0  3  0  0  0  0  0  0
   37.8840   27.0980   33.7010 C   0  0  0  0  0  2  0  0  0  0  0  0
   36.9890   27.5690   34.8300 C   0  0  0  0  0  2  0  0  0  0  0  0
   36.2760   28.7530   34.1690 C   0  0  0  0  0  2  0  0  0  0  0  0
   35.9930   28.2730   32.7590 C   0  0  0  0  0  2  0  0  0  0  0  0
  1  5  1  0  0  0  0
  2  3  1  0  0  0  0
  2  1  2  0  0  0  0
  3  4  2  0  0  0  0
  4 17  1  0  0  0  0
  4  5  1  0  0  0  0
  6  2  1  0  0  0  0
  7  3  1  0  0  0  0
  8 13  2  0  0  0  0
  8  9  1  0  0  0  0
  9 10  2  0  0  0  0
 10 11  1  0  0  0  0
 10 16  1  0  0  0  0
 12  1  1  0  0  0  0
 12 11  2  0  0  0  0
 13 12  1  0  0  0  0
 14  8  1  0  0  0  0
 15  9  1  0  0  0  0
 17 21  1  0  0  0  0
 17 18  1  0  0  0  0
 18 19  1  0  0  0  0
 20 19  1  0  0  0  0
 21 20  1  0  0  0  0
M  END
>  <minimizedAffinity>
-4.65058184

$$$$

 OpenBabel03262522493D

 21 23  0  0  0  0  0  0  0  0999 V2000
   37.1840   24.4280   32.8450 C   0  0  0  0  0  0  0  0  0  0  0  0
   36.2600   24.6850   31.9140 C   0  0  0  0  0  0  0  0  0  0  0  0
   35.6680   23.6730   31.2110 C   0  0  0  0  0  0  0  0  0  0  0  0
   36.0860   22.4120   31.5330 C   0  0  0  0  0  0  0  0  0  0  0  0
   37.3190   22.6980   32.8330 S   0  0  0  0  0  0  0  0  0  0  0  0
   35.9770   25.7340   31.7130 H   0  0  0  0  0  0  0  0  0  0  0  0
   34.9140   23.7600   30.4410 H   0  0  0  0  0  0  0  0  0  0  0  0
   37.9110   27.2410   35.0410 C   0  0  0  0  0  0  0  0  0  0  0  0
   39.2860   27.0780   35.3150 C   0  0  0  0  0  0  0  0  0  0  0  0
   39.9550   25.9860   34.7300 C   0  0  0  0  0  0  0  0  0  0  0  0
   39.2430   25.1420   33.9310 N   0  0  0  0  0  0  0  0  0  0  0  0
   37.9320   25.3420   33.7020 C   0  0  0  0  0  0  0  0  0  0  0  0
   37.2740   26.3600   34.2380 N   0  0  0  0  0  0  0  0  0  0  0  0
   37.4160   28.0840   35.5000 H   0  0  0  0  0  0  0  0  0  0  0  0
   39.8150   27.7560   35.9440 H   0  0  0  0  0  0  0  0  0  0  0  0
   41.0080   25.8640   34.9400 H   0  0  0  0  0  0  0  0  0  0  0  0
   35.7530   21.0470   31.0680 C   0  0  0  0  0  3  0  0  0  0  0  0
   34.7210   20.4090   31.9540 C   0  0  0  0  0  2  0  0  0  0  0  0
   35.4660   19.4910   32.9030 C   0  0  0  0  0  2  0  0  0  0  0  0
   36.5940   18.9830   32.0000 C   0  0  0  0  0  2  0  0  0  0  0  0
   37.0110   20.2060   31.2070 C   0  0  0  0  0  2  0  0  0  0  0  0
  1 12  1  0  0  0  0
  2  1  2  0  0  0  0
  3  4  2  0  0  0  0
  3  2  1  0  0  0  0
  4  5  1  0  0  0  0
  5  1  1  0  0  0  0
  6  2  1  0  0  0  0
  7  3  1  0  0  0  0
  8  9  1  0  0  0  0
  8 14  1  0  0  0  0
  9 15  1  0  0  0  0
 10 16  1  0  0  0  0
 10  9  2  0  0  0  0
 11 10  1  0  0  0  0
 12 11  2  0  0  0  0
 12 13  1  0  0  0  0
 13  8  2  0  0  0  0
 17 21  1  0  0  0  0
 17  4  1  0  0  0  0
 17 18  1  0  0  0  0
 18 19  1  0  0  0  0
 20 19  1  0  0  0  0
 21 20  1  0  0  0  0
M  END
>  <minimizedAffinity>
-4.63183403

$$$$

 OpenBabel03262522493D

 21 23  0  0  0  0  0  0  0  0999 V2000
   35.6720   29.0570   34.0770 C   0  0  0  0  0  0  0  0  0  0  0  0
   36.5820   28.1250   34.3790 C   0  0  0  0  0  0  0  0  0  0  0  0
   36.9280   27.1600   33.4750 C   0  0  0  0  0  0  0  0  0  0  0  0
   36.2840   27.2270   32.2700 C   0  0  0  0  0  0  0  0  0  0  0  0
   35.1970   28.6670   32.4540 S   0  0  0  0  0  0  0  0  0  0  0  0
   37.0570   28.1420   35.3760 H   0  0  0  0  0  0  0  0  0  0  0  0
   37.6450   26.3620   33.6070 H   0  0  0  0  0  0  0  0  0  0  0  0
   33.3120   31.3410   35.6520 C   0  0  0  0  0  0  0  0  0  0  0  0
   34.1540   32.2200   36.3650 C   0  0  0  0  0  0  0  0  0  0  0  0
   35.5450   32.0120   36.2930 C   0  0  0  0  0  0  0  0  0  0  0  0
   36.0080   30.9740   35.5400 N   0  0  0  0  0  0  0  0  0  0  0  0
   35.1610   30.1650   34.8780 C   0  0  0  0  0  0  0  0  0  0  0  0
   33.8470   30.3340   34.9260 N   0  0  0  0  0  0  0  0  0  0  0  0
   32.2490   31.5170   35.7210 H   0  0  0  0  0  0  0  0  0  0  0  0
   33.7620   33.0230   36.9460 H   0  0  0  0  0  0  0  0  0  0  0  0
   36.1880   32.6870   36.8400 H   0  0  0  0  0  0  0  0  0  0  0  0
   36.3190   26.4360   31.0200 C   0  0  0  0  0  3  0  0  0  0  0  0
   35.0910   25.5800   30.8850 C   0  0  0  0  0  2  0  0  0  0  0  0
   35.4800   24.1840   31.3310 C   0  0  0  0  0  2  0  0  0  0  0  0
   36.9260   24.1040   30.8320 C   0  0  0  0  0  2  0  0  0  0  0  0
   37.4940   25.4780   31.1280 C   0  0  0  0  0  2  0  0  0  0  0  0
  1  2  2  0  0  0  0
  1 12  1  0  0  0  0
  2  6  1  0  0  0  0
  3  7  1  0  0  0  0
  3  2  1  0  0  0  0
  4  5  1  0  0  0  0
  4  3  2  0  0  0  0
  5  1  1  0  0  0  0
  8 14  1  0  0  0  0
  8  9  1  0  0  0  0
  9 15  1  0  0  0  0
 10  9  2  0  0  0  0
 10 16  1  0  0  0  0
 11 10  1  0  0  0  0
 12 13  1  0  0  0  0
 12 11  2  0  0  0  0
 13  8  2  0  0  0  0
 17 21  1  0  0  0  0
 17  4  1  0  0  0  0
 18 17  1  0  0  0  0
 18 19  1  0  0  0  0
 20 21  1  0  0  0  0
 20 19  1  0  0  0  0
M  END
>  <minimizedAffinity>
-4.59365654

$$$$

 OpenBabel03262522493D

 21 23  0  0  0  0  0  0  0  0999 V2000
   37.8670   25.7840   35.0630 C   0  0  0  0  0  0  0  0  0  0  0  0
   37.5160   27.0490   35.3160 C   0  0  0  0  0  0  0  0  0  0  0  0
   36.9500   27.8300   34.3470 C   0  0  0  0  0  0  0  0  0  0  0  0
   36.7770   27.2240   33.1330 C   0  0  0  0  0  0  0  0  0  0  0  0
   37.4280   25.5530   33.4000 S   0  0  0  0  0  0  0  0  0  0  0  0
   37.6900   27.4630   36.3250 H   0  0  0  0  0  0  0  0  0  0  0  0
   36.6280   28.8580   34.4350 H   0  0  0  0  0  0  0  0  0  0  0  0
   38.4110   23.6450   37.9600 C   0  0  0  0  0  0  0  0  0  0  0  0
   39.5740   22.9280   37.6070 C   0  0  0  0  0  0  0  0  0  0  0  0
   40.1650   23.1950   36.3580 C   0  0  0  0  0  0  0  0  0  0  0  0
   39.5860   24.1300   35.5530 N   0  0  0  0  0  0  0  0  0  0  0  0
   38.4760   24.7860   35.9370 C   0  0  0  0  0  0  0  0  0  0  0  0
   37.8960   24.5570   37.1070 N   0  0  0  0  0  0  0  0  0  0  0  0
   37.9730   23.4250   38.9220 H   0  0  0  0  0  0  0  0  0  0  0  0
   40.0030   22.2020   38.2590 H   0  0  0  0  0  0  0  0  0  0  0  0
   41.0560   22.6450   36.0900 H   0  0  0  0  0  0  0  0  0  0  0  0
   36.2280   27.6430   31.8240 C   0  0  0  0  0  3  0  0  0  0  0  0
   37.2210   27.4110   30.7200 C   0  0  0  0  0  2  0  0  0  0  0  0
   37.8830   28.7460   30.4400 C   0  0  0  0  0  2  0  0  0  0  0  0
   36.7170   29.7110   30.6740 C   0  0  0  0  0  2  0  0  0  0  0  0
   36.0080   29.1450   31.8890 C   0  0  0  0  0  2  0  0  0  0  0  0
  1  2  2  0  0  0  0
  1 12  1  0  0  0  0
  2  6  1  0  0  0  0
  3  7  1  0  0  0  0
  3  2  1  0  0  0  0
  4  5  1  0  0  0  0
  4  3  2  0  0  0  0
  5  1  1  0  0  0  0
  8 14  1  0  0  0  0
  9  8  1  0  0  0  0
  9 15  1  0  0  0  0
 10  9  2  0  0  0  0
 11 12  2  0  0  0  0
 11 10  1  0  0  0  0
 12 13  1  0  0  0  0
 13  8  2  0  0  0  0
 16 10  1  0  0  0  0
 17 21  1  0  0  0  0
 17  4  1  0  0  0  0
 18 17  1  0  0  0  0
 19 20  1  0  0  0  0
 19 18  1  0  0  0  0
 20 21  1  0  0  0  0
M  END
>  <minimizedAffinity>
-4.57762671

$$$$

 OpenBabel03262522493D

 21 23  0  0  0  0  0  0  0  0999 V2000
   37.9090   25.5190   34.8870 C   0  0  0  0  0  0  0  0  0  0  0  0
   37.5390   25.3110   33.6190 C   0  0  0  0  0  0  0  0  0  0  0  0
   36.9780   26.3120   32.8770 C   0  0  0  0  0  0  0  0  0  0  0  0
   36.8340   27.5100   33.5210 C   0  0  0  0  0  0  0  0  0  0  0  0
   37.5000   27.1800   35.1750 S   0  0  0  0  0  0  0  0  0  0  0  0
   37.6910   24.3120   33.1730 H   0  0  0  0  0  0  0  0  0  0  0  0
   36.6430   26.2610   31.8500 H   0  0  0  0  0  0  0  0  0  0  0  0
   40.2730   23.1650   36.3510 C   0  0  0  0  0  0  0  0  0  0  0  0
   39.7020   22.8910   37.6120 C   0  0  0  0  0  0  0  0  0  0  0  0
   38.4920   23.5280   37.9460 C   0  0  0  0  0  0  0  0  0  0  0  0
   37.9340   24.3780   37.0380 N   0  0  0  0  0  0  0  0  0  0  0  0
   38.5190   24.6050   35.8490 C   0  0  0  0  0  0  0  0  0  0  0  0
   39.6580   24.0200   35.5040 N   0  0  0  0  0  0  0  0  0  0  0  0
   41.2000   22.6670   36.1140 H   0  0  0  0  0  0  0  0  0  0  0  0
   40.1630   22.2210   38.3010 H   0  0  0  0  0  0  0  0  0  0  0  0
   38.0570   23.3160   38.9130 H   0  0  0  0  0  0  0  0  0  0  0  0
   36.3010   28.8400   33.1500 C   0  0  0  0  0  3  0  0  0  0  0  0
   35.7710   29.5660   34.3540 C   0  0  0  0  0  2  0  0  0  0  0  0
   34.2660   29.3830   34.3490 C   0  0  0  0  0  2  0  0  0  0  0  0
   33.9700   29.4010   32.8460 C   0  0  0  0  0  2  0  0  0  0  0  0
   35.1080   28.6060   32.2370 C   0  0  0  0  0  2  0  0  0  0  0  0
  1  5  1  0  0  0  0
  1 12  1  0  0  0  0
  2  1  2  0  0  0  0
  3  4  2  0  0  0  0
  3  2  1  0  0  0  0
  4  5  1  0  0  0  0
  6  2  1  0  0  0  0
  7  3  1  0  0  0  0
  8  9  1  0  0  0  0
  9 10  2  0  0  0  0
  9 15  1  0  0  0  0
 10 16  1  0  0  0  0
 11 10  1  0  0  0  0
 12 11  2  0  0  0  0
 13 12  1  0  0  0  0
 13  8  2  0  0  0  0
 14  8  1  0  0  0  0
 17  4  1  0  0  0  0
 17 18  1  0  0  0  0
 19 18  1  0  0  0  0
 20 19  1  0  0  0  0
 21 20  1  0  0  0  0
 21 17  1  0  0  0  0
M  END
>  <minimizedAffinity>
-4.45376205

$$$$

 OpenBabel03262522493D

 21 23  0  0  0  0  0  0  0  0999 V2000
   37.6380   27.1620   34.0280 C   0  0  0  0  0  0  0  0  0  0  0  0
   37.8910   27.6540   35.2450 C   0  0  0  0  0  0  0  0  0  0  0  0
   38.3120   26.8410   36.2600 C   0  0  0  0  0  0  0  0  0  0  0  0
   38.4500   25.5200   35.9350 C   0  0  0  0  0  0  0  0  0  0  0  0
   37.9740   25.4670   34.1850 S   0  0  0  0  0  0  0  0  0  0  0  0
   37.7550   28.7360   35.4260 H   0  0  0  0  0  0  0  0  0  0  0  0
   38.5460   27.1250   37.2770 H   0  0  0  0  0  0  0  0  0  0  0  0
   37.5250   28.2500   30.5540 C   0  0  0  0  0  0  0  0  0  0  0  0
   36.3840   29.0810   30.5230 C   0  0  0  0  0  0  0  0  0  0  0  0
   35.6590   29.2590   31.7170 C   0  0  0  0  0  0  0  0  0  0  0  0
   36.0930   28.6210   32.8410 N   0  0  0  0  0  0  0  0  0  0  0  0
   37.1870   27.8390   32.8170 C   0  0  0  0  0  0  0  0  0  0  0  0
   37.8910   27.6510   31.7090 N   0  0  0  0  0  0  0  0  0  0  0  0
   38.0660   28.1260   29.6290 H   0  0  0  0  0  0  0  0  0  0  0  0
   36.0700   29.5660   29.6280 H   0  0  0  0  0  0  0  0  0  0  0  0
   34.7860   29.8960   31.6900 H   0  0  0  0  0  0  0  0  0  0  0  0
   38.8620   24.3000   36.6640 C   0  0  0  0  0  3  0  0  0  0  0  0
   38.2950   23.0660   36.0220 C   0  0  0  0  0  2  0  0  0  0  0  0
   37.0720   22.6750   36.8280 C   0  0  0  0  0  2  0  0  0  0  0  0
   37.5130   23.0650   38.2430 C   0  0  0  0  0  2  0  0  0  0  0  0
   38.2470   24.3780   38.0520 C   0  0  0  0  0  2  0  0  0  0  0  0
  1  5  1  0  0  0  0
  1  2  2  0  0  0  0
  2  6  1  0  0  0  0
  2  3  1  0  0  0  0
  3  7  1  0  0  0  0
  4  3  2  0  0  0  0
  4 17  1  0  0  0  0
  5  4  1  0  0  0  0
  8 13  1  0  0  0  0
  9  8  2  0  0  0  0
  9 10  1  0  0  0  0
 10 11  2  0  0  0  0
 12 11  1  0  0  0  0
 12  1  1  0  0  0  0
 13 12  2  0  0  0  0
 14  8  1  0  0  0  0
 15  9  1  0  0  0  0
 16 10  1  0  0  0  0
 17 21  1  0  0  0  0
 18 17  1  0  0  0  0
 18 19  1  0  0  0  0
 19 20  1  0  0  0  0
 21 20  1  0  0  0  0
M  END
>  <minimizedAffinity>
-4.42256069

$$$$

 OpenBabel03262522493D

 21 23  0  0  0  0  0  0  0  0999 V2000
   36.5550   25.2880   31.8340 C   0  0  0  0  0  0  0  0  0  0  0  0
   37.4690   24.4790   32.3810 C   0  0  0  0  0  0  0  0  0  0  0  0
   37.3590   23.1210   32.2760 C   0  0  0  0  0  0  0  0  0  0  0  0
   36.2680   22.6720   31.5830 C   0  0  0  0  0  0  0  0  0  0  0  0
   35.4210   24.2010   31.0970 S   0  0  0  0  0  0  0  0  0  0  0  0
   38.3220   24.9220   32.9250 H   0  0  0  0  0  0  0  0  0  0  0  0
   38.0310   22.3730   32.6730 H   0  0  0  0  0  0  0  0  0  0  0  0
   36.3350   28.7130   33.0520 C   0  0  0  0  0  0  0  0  0  0  0  0
   36.3350   29.4710   31.8610 C   0  0  0  0  0  0  0  0  0  0  0  0
   36.4100   28.7810   30.6360 C   0  0  0  0  0  0  0  0  0  0  0  0
   36.4810   27.4200   30.6600 N   0  0  0  0  0  0  0  0  0  0  0  0
   36.4780   26.7460   31.8250 C   0  0  0  0  0  0  0  0  0  0  0  0
   36.4080   27.3650   32.9950 N   0  0  0  0  0  0  0  0  0  0  0  0
   36.2780   29.2610   33.9810 H   0  0  0  0  0  0  0  0  0  0  0  0
   36.2790   30.5350   31.8740 H   0  0  0  0  0  0  0  0  0  0  0  0
   36.4100   29.3630   29.7250 H   0  0  0  0  0  0  0  0  0  0  0  0
   35.7370   21.3410   31.2150 C   0  0  0  0  0  3  0  0  0  0  0  0
   34.7860   20.8290   32.2590 C   0  0  0  0  0  2  0  0  0  0  0  0
   35.5660   19.8570   33.1230 C   0  0  0  0  0  2  0  0  0  0  0  0
   36.4960   19.2190   32.0870 C   0  0  0  0  0  2  0  0  0  0  0  0
   36.9130   20.3770   31.2020 C   0  0  0  0  0  2  0  0  0  0  0  0
  1  2  2  0  0  0  0
  2  6  1  0  0  0  0
  3  2  1  0  0  0  0
  3  7  1  0  0  0  0
  4  3  2  0  0  0  0
  5  4  1  0  0  0  0
  5  1  1  0  0  0  0
  8 14  1  0  0  0  0
  9 15  1  0  0  0  0
  9  8  2  0  0  0  0
 10 11  2  0  0  0  0
 10  9  1  0  0  0  0
 11 12  1  0  0  0  0
 12  1  1  0  0  0  0
 12 13  2  0  0  0  0
 13  8  1  0  0  0  0
 16 10  1  0  0  0  0
 17  4  1  0  0  0  0
 17 18  1  0  0  0  0
 18 19  1  0  0  0  0
 20 19  1  0  0  0  0
 21 17  1  0  0  0  0
 21 20  1  0  0  0  0
M  END
>  <minimizedAffinity>
-4.39514971

$$$$

 OpenBabel03262522493D

 21 23  0  0  0  0  0  0  0  0999 V2000
   35.9180   26.4460   31.5230 C   0  0  0  0  0  0  0  0  0  0  0  0
   34.9730   25.6770   30.9730 C   0  0  0  0  0  0  0  0  0  0  0  0
   35.1050   24.3170   30.9350 C   0  0  0  0  0  0  0  0  0  0  0  0
   36.2520   23.8240   31.4930 C   0  0  0  0  0  0  0  0  0  0  0  0
   37.1190   25.3130   32.0580 S   0  0  0  0  0  0  0  0  0  0  0  0
   34.0740   26.1560   30.5440 H   0  0  0  0  0  0  0  0  0  0  0  0
   34.4110   23.6000   30.5200 H   0  0  0  0  0  0  0  0  0  0  0  0
   36.3790   29.9570   30.6730 C   0  0  0  0  0  0  0  0  0  0  0  0
   36.1070   30.6140   31.8930 C   0  0  0  0  0  0  0  0  0  0  0  0
   35.7650   29.8270   33.0090 C   0  0  0  0  0  0  0  0  0  0  0  0
   35.7120   28.4730   32.8560 N   0  0  0  0  0  0  0  0  0  0  0  0
   35.9800   27.8970   31.6710 C   0  0  0  0  0  0  0  0  0  0  0  0
   36.3050   28.6100   30.6010 N   0  0  0  0  0  0  0  0  0  0  0  0
   36.6380   30.5790   29.8300 H   0  0  0  0  0  0  0  0  0  0  0  0
   36.1560   31.6750   31.9800 H   0  0  0  0  0  0  0  0  0  0  0  0
   35.5570   30.3310   33.9420 H   0  0  0  0  0  0  0  0  0  0  0  0
   36.8250   22.4730   31.6840 C   0  0  0  0  0  3  0  0  0  0  0  0
   35.8840   21.4090   31.1930 C   0  0  0  0  0  2  0  0  0  0  0  0
   35.1670   20.8630   32.4120 C   0  0  0  0  0  2  0  0  0  0  0  0
   36.2750   20.9370   33.4670 C   0  0  0  0  0  2  0  0  0  0  0  0
   36.9680   22.2550   33.1820 C   0  0  0  0  0  2  0  0  0  0  0  0
  1 12  1  0  0  0  0
  1  5  1  0  0  0  0
  2  1  2  0  0  0  0
  3  2  1  0  0  0  0
  3  4  2  0  0  0  0
  4 17  1  0  0  0  0
  4  5  1  0  0  0  0
  6  2  1  0  0  0  0
  7  3  1  0  0  0  0
  8  9  1  0  0  0  0
  9 15  1  0  0  0  0
  9 10  2  0  0  0  0
 10 16  1  0  0  0  0
 11 10  1  0  0  0  0
 12 11  2  0  0  0  0
 13  8  2  0  0  0  0
 13 12  1  0  0  0  0
 14  8  1  0  0  0  0
 17 21  1  0  0  0  0
 18 17  1  0  0  0  0
 18 19  1  0  0  0  0
 19 20  1  0  0  0  0
 21 20  1  0  0  0  0
M  END
>  <minimizedAffinity>
-4.38078165

$$$$
