
 OpenBabel03272508283D

 34 37  0  0  1  0  0  0  0  0999 V2000
   33.8480   28.8810   47.2460 C   0  0  2  0  0  0  0  0  0  0  0  0
   34.5620   28.1250   48.3580 C   0  0  2  0  0  0  0  0  0  0  0  0
   33.6440   27.9860   49.3540 O   0  0  0  0  0  0  0  0  0  0  0  0
   32.3770   28.0580   48.8500 C   0  0  0  0  0  0  0  0  0  0  0  0
   32.4720   28.2220   47.3490 C   0  0  1  0  0  0  0  0  0  0  0  0
   33.7950   29.9560   47.4380 H   0  0  0  0  0  0  0  0  0  0  0  0
   34.8560   27.1250   47.9830 H   0  0  0  0  0  0  0  0  0  0  0  0
   31.8580   27.0860   49.0450 H   0  0  0  0  0  0  0  0  0  0  0  0
   31.7240   28.8240   49.3120 H   0  0  0  0  0  0  0  0  0  0  0  0
   32.5410   27.2290   46.8420 H   0  0  0  0  0  0  0  0  0  0  0  0
   35.6290   30.3860   49.0290 C   0  0  1  0  0  0  0  0  0  0  0  0
   35.7240   28.9660   48.7850 C   0  0  1  0  0  0  0  0  0  0  0  0
   35.8890   29.4210   50.1960 C   0  0  0  0  0  0  0  0  0  0  0  0
   34.7280   30.9860   49.2500 H   0  0  0  0  0  0  0  0  0  0  0  0
   36.6850   28.6240   48.3050 H   0  0  0  0  0  0  0  0  0  0  0  0
   36.8980   29.4210   50.6650 H   0  0  0  0  0  0  0  0  0  0  0  0
   35.0940   29.2430   50.9400 H   0  0  0  0  0  0  0  0  0  0  0  0
   36.8140   31.3070   48.7890 C   0  0  0  0  0  0  0  0  0  0  0  0
   37.0570   32.3030   49.7360 C   0  0  0  0  0  0  0  0  0  0  0  0
   38.1340   33.1330   49.4580 C   0  0  0  0  0  0  0  0  0  0  0  0
   38.8840   32.9540   48.3180 N   0  0  0  0  0  0  0  0  0  0  0  0
   38.6100   31.9770   47.4310 C   0  0  0  0  0  0  0  0  0  0  0  0
   37.5620   31.1400   47.6680 N   0  0  0  0  0  0  0  0  0  0  0  0
   36.4530   32.4160   50.6140 H   0  0  0  0  0  0  0  0  0  0  0  0
   38.4040   33.9400   50.1380 H   0  0  0  0  0  0  0  0  0  0  0  0
   39.2300   31.8780   46.5520 H   0  0  0  0  0  0  0  0  0  0  0  0
   34.4040   28.6850   45.9970 O   0  0  0  0  0  0  0  0  0  0  0  0
   34.2000   27.7280   45.7570 H   0  0  0  0  0  0  0  0  0  0  0  0
   31.4810   29.0050   46.8310 O   0  0  0  0  0  0  0  0  0  0  0  0
   30.2150   28.4930   46.9320 C   0  0  0  0  0  3  0  0  0  0  0  0
   30.0590   27.2410   46.0660 C   0  0  0  0  0  2  0  0  0  0  0  0
   29.3590   27.7690   44.8170 C   0  0  0  0  0  2  0  0  0  0  0  0
   28.3200   28.6790   45.4860 C   0  0  0  0  0  2  0  0  0  0  0  0
   29.2440   29.5170   46.3740 C   0  0  0  0  0  2  0  0  0  0  0  0
  1  5  1  0  0  0  0
  1  6  1  1  0  0  0
  1  2  1  0  0  0  0
  2  7  1  6  0  0  0
  2 12  1  0  0  0  0
  2  3  1  0  0  0  0
  4  8  1  0  0  0  0
  4  9  1  0  0  0  0
  4  3  1  0  0  0  0
  5 10  1  6  0  0  0
  5  4  1  0  0  0  0
 11 14  1  6  0  0  0
 11 13  1  0  0  0  0
 12 15  1  6  0  0  0
 12 11  1  0  0  0  0
 12 13  1  0  0  0  0
 13 16  1  0  0  0  0
 13 17  1  0  0  0  0
 18 11  1  0  0  0  0
 18 19  1  0  0  0  0
 19 24  1  0  0  0  0
 20 19  2  0  0  0  0
 20 25  1  0  0  0  0
 21 20  1  0  0  0  0
 22 23  1  0  0  0  0
 22 21  2  0  0  0  0
 23 18  2  0  0  0  0
 26 22  1  0  0  0  0
 27  1  1  0  0  0  0
 28 27  1  0  0  0  0
 29 30  1  0  0  0  0
 29  5  1  0  0  0  0
 31 30  1  0  0  0  0
 32 33  1  0  0  0  0
 32 31  1  0  0  0  0
 33 34  1  0  0  0  0
 34 30  1  0  0  0  0
M  END
>  <minimizedAffinity>
-4.95056772

>  <minimizedRMSD>
1.06723082

$$$$
