
     RDKit          3D

 35 37  0  0  0  0  0  0  0  0999 V2000
   34.9563   28.8007   48.6790 C   0  0  0  0  0  0  0  0  0  0  0  0
   34.6121   27.8515   49.4808 O   0  0  0  0  0  0  0  0  0  0  0  0
   33.0318   30.5891   46.1815 C   0  0  0  0  0  0  0  0  0  0  0  0
   32.8194   29.6532   45.1821 C   0  0  0  0  0  0  0  0  0  0  0  0
   33.3284   28.3854   45.3612 C   0  0  0  0  0  0  0  0  0  0  0  0
   34.0295   28.0532   46.4995 N   0  0  0  0  0  0  0  0  0  0  0  0
   34.2118   28.9932   47.4404 C   0  0  0  0  0  0  0  0  0  0  0  0
   33.7135   30.2046   47.2487 N   0  0  0  0  0  0  0  0  0  0  0  0
   36.0794   29.5731   49.1423 C   0  0  0  0  0  0  0  0  0  0  0  0
   36.2694   29.6865   50.5297 C   0  0  0  0  0  0  0  0  0  0  0  0
   37.3498   30.4263   51.0568 C   0  0  0  0  0  0  0  0  0  0  0  0
   38.2463   31.0575   50.1637 C   0  0  0  0  0  0  0  0  0  0  0  0
   38.0189   30.9180   48.7916 C   0  0  0  0  0  0  0  0  0  0  0  0
   36.9613   30.1929   48.3176 C   0  0  0  0  0  0  0  0  0  0  0  0
   32.6516   31.5871   46.0814 H   0  0  0  0  0  0  0  0  0  0  0  0
   32.2693   29.9427   44.3062 H   0  0  0  0  0  0  0  0  0  0  0  0
   33.1786   27.6312   44.5981 H   0  0  0  0  0  0  0  0  0  0  0  0
   35.5761   29.1987   51.1988 H   0  0  0  0  0  0  0  0  0  0  0  0
   37.4222   30.4623   52.1352 H   0  0  0  0  0  0  0  0  0  0  0  0
   39.0475   31.6052   50.6411 H   0  0  0  0  0  0  0  0  0  0  0  0
   38.7874   31.4576   48.2609 H   0  0  0  0  0  0  0  0  0  0  0  0
   36.9397   30.2178   46.8652 C   0  0  0  0  0  0  0  0  0  0  0  0
   37.7565   31.4305   46.4526 C   0  0  0  0  0  0  0  0  0  0  0  0
   38.1810   30.9821   45.0528 C   0  0  0  0  0  0  0  0  0  0  0  0
   38.7360   29.6169   45.3822 C   0  0  0  0  0  0  0  0  0  0  0  0
   37.7366   29.0193   46.3044 C   0  0  0  0  0  0  0  0  0  0  0  0
   36.0048   30.1690   46.3461 H   0  0  0  0  0  0  0  0  0  0  0  0
   37.2385   32.3749   46.4466 H   0  0  0  0  0  0  0  0  0  0  0  0
   38.7056   31.4519   47.0415 H   0  0  0  0  0  0  0  0  0  0  0  0
   37.2835   30.9235   44.4052 H   0  0  0  0  0  0  0  0  0  0  0  0
   38.9430   31.6667   44.6641 H   0  0  0  0  0  0  0  0  0  0  0  0
   39.7191   29.7850   45.8848 H   0  0  0  0  0  0  0  0  0  0  0  0
   38.9141   28.9895   44.4984 H   0  0  0  0  0  0  0  0  0  0  0  0
   38.1528   28.4050   47.1288 H   0  0  0  0  0  0  0  0  0  0  0  0
   37.0962   28.3249   45.7296 H   0  0  0  0  0  0  0  0  0  0  0  0
  1  9  1  0
  1  2  2  0
  3  8  2  0
  4  5  2  0
  4  3  1  0
  5  6  1  0
  6  7  2  0
  7  1  1  0
  8  7  1  0
  9 10  2  0
 10 11  1  0
 12 11  2  0
 13 12  1  0
 14 13  2  0
 14  9  1  0
  3 15  1  0
  4 16  1  0
  5 17  1  0
 10 18  1  0
 11 19  1  0
 12 20  1  0
 13 21  1  0
 22 23  1  0
 23 24  1  0
 24 25  1  0
 25 26  1  0
 26 22  1  0
 22 27  1  0
 23 28  1  0
 23 29  1  0
 24 30  1  0
 24 31  1  0
 25 32  1  0
 25 33  1  0
 26 34  1  0
 26 35  1  0
 14 22  1  0
M  ISO  7  15  14  16  14  17  14  18  14  19  14  20  14  21  14
M  END
>  <DihAtoms>  (1) 
12,13,21,22

>  <DihDeg>  (1) 
-65.7632648142285

$$$$
