REMARK  Name = 
REMARK  4 active torsions:
REMARK  status: ('A' for Active; 'I' for Inactive)
REMARK    1  A    between atoms: C_2  and  C_12
REMARK    2  A    between atoms: C_6  and  O_16
REMARK    3  A    between atoms: O_16  and  C_18
REMARK    4  A    between atoms: C_22  and  C_37
REMARK                            x       y       z     vdW  Elec       q    Type
REMARK                         _______ _______ _______ _____ _____    ______ ____
ROOT
ATOM      1  C   UNL     1      36.227  30.187  46.859  0.00  0.00    +0.000 A 
ATOM      2  C   UNL     1      37.082  30.747  47.806  0.00  0.00    +0.000 A 
ATOM      3  C   UNL     1      38.074  31.659  47.434  0.00  0.00    +0.000 A 
ATOM      4  C   UNL     1      38.153  31.968  46.080  0.00  0.00    +0.000 A 
ATOM      5  N   UNL     1      39.028  32.826  45.477  0.00  0.00    +0.000 N 
ATOM      6  C   UNL     1      38.732  32.809  44.170  0.00  0.00    +0.000 A 
ATOM      7  N   UNL     1      37.721  31.983  43.951  0.00  0.00    +0.000 NA
ATOM      8  C   UNL     1      37.330  31.439  45.116  0.00  0.00    +0.000 A 
ATOM      9  C   UNL     1      36.348  30.528  45.523  0.00  0.00    +0.000 A 
ATOM     10  H   UNL     1      35.458  29.480  47.145  0.00  0.00    +0.000 HD
ATOM     11  H   UNL     1      38.746  32.102  48.165  0.00  0.00    +0.000 HD
ATOM     12  H   UNL     1      39.788  33.390  45.947  0.00  0.00    +0.000 HD
ATOM     13  H   UNL     1      35.700  30.111  44.762  0.00  0.00    +0.000 HD
ENDROOT
BRANCH   2  16
ATOM     14  C   UNL     1      37.493  30.151  51.484  0.00  0.00    +0.000 A 
ATOM     15  C   UNL     1      37.818  30.591  50.214  0.00  0.00    +0.000 A 
ATOM     16  C   UNL     1      36.920  30.363  49.196  0.00  0.00    +0.000 A 
ATOM     17  N   UNL     1      35.749  29.705  49.517  0.00  0.00    +0.000 NA
ATOM     18  C   UNL     1      35.454  29.285  50.763  0.00  0.00    +0.000 A 
ATOM     19  N   UNL     1      36.318  29.507  51.729  0.00  0.00    +0.000 NA
ATOM     20  H   UNL     1      38.257  30.372  52.226  0.00  0.00    +0.000 HD
ATOM     21  H   UNL     1      38.730  31.106  49.950  0.00  0.00    +0.000 HD
ATOM     22  H   UNL     1      34.517  28.776  50.944  0.00  0.00    +0.000 HD
ENDBRANCH   2  16
BRANCH   6  23
ATOM     23  O   UNL     1      39.429  33.575  43.234  0.00  0.00    +0.000 OA
BRANCH  23  25
ATOM     24  N   UNL     1      39.568  31.839  41.722  0.00  0.00    +0.000 NA
ATOM     25  C   UNL     1      39.202  33.239  41.873  0.00  0.00    +0.000 C 
ATOM     26  C   UNL     1      37.809  33.443  41.511  0.00  0.00    +0.000 C 
ATOM     27  O   UNL     1      37.644  33.119  40.153  0.00  0.00    +0.000 OA
ATOM     28  C   UNL     1      38.060  31.869  39.794  0.00  0.00    +0.000 C 
ATOM     29  C   UNL     1      39.465  31.604  40.303  0.00  0.00    +0.000 C 
ATOM     30  H   UNL     1      38.971  31.148  42.150  0.00  0.00    +0.000 HD
ATOM     31  H   UNL     1      39.870  33.812  41.208  0.00  0.00    +0.000 HD
ATOM     32  H   UNL     1      37.620  34.561  41.526  0.00  0.00    +0.000 HD
ATOM     33  H   UNL     1      36.977  32.995  41.981  0.00  0.00    +0.000 HD
ATOM     34  H   UNL     1      37.328  31.148  40.190  0.00  0.00    +0.000 HD
ATOM     35  H   UNL     1      38.124  31.840  38.699  0.00  0.00    +0.000 HD
ATOM     36  H   UNL     1      40.085  32.403  39.832  0.00  0.00    +0.000 HD
BRANCH  29  37
ATOM     37  C   UNL     1      40.025  30.310  39.852  0.00  0.00    +0.000 C 
ATOM     38  C   UNL     1      41.492  30.190  40.175  0.00  0.00    +0.000 C 
ATOM     39  C   UNL     1      41.791  28.845  39.498  0.00  0.00    +0.000 C 
ATOM     40  C   UNL     1      41.138  29.061  38.150  0.00  0.00    +0.000 C 
ATOM     41  C   UNL     1      40.021  30.089  38.372  0.00  0.00    +0.000 C 
ENDBRANCH  29  37
ENDBRANCH  23  25
ENDBRANCH   6  23
TORSDOF 4
