
 OpenBabel03272507343D

 32 35  0  0  1  0  0  0  0  0999 V2000
   35.8730   29.2150   49.7900 C   0  0  0  0  0  0  0  0  0  0  0  0
   34.8180   29.6430   50.5630 C   0  0  0  0  0  0  0  0  0  0  0  0
   33.6580   29.0420   50.0570 C   0  0  0  0  0  0  0  0  0  0  0  0
   34.0860   28.2770   48.9950 C   0  0  0  0  0  0  0  0  0  0  0  0
   35.3890   28.4090   48.8730 O   0  0  0  0  0  0  0  0  0  0  0  0
   34.8440   30.3250   51.4210 H   0  0  0  0  0  0  0  0  0  0  0  0
   32.6410   29.1510   50.4170 H   0  0  0  0  0  0  0  0  0  0  0  0
   37.2420   29.6440   50.0330 C   0  0  0  0  0  0  0  0  0  0  0  0
   37.8650   29.1640   50.9870 O   0  0  0  0  0  0  0  0  0  0  0  0
   37.7880   30.6170   49.1290 C   0  0  0  0  0  0  0  0  0  0  0  0
   38.1610   31.8390   49.6670 C   0  0  0  0  0  0  0  0  0  0  0  0
   38.6940   32.8090   48.8130 C   0  0  0  0  0  0  0  0  0  0  0  0
   38.8220   32.5000   47.4790 N   0  0  0  0  0  0  0  0  0  0  0  0
   38.4500   31.3080   46.9960 C   0  0  0  0  0  0  0  0  0  0  0  0
   37.9390   30.3720   47.8070 N   0  0  0  0  0  0  0  0  0  0  0  0
   38.0710   32.1130   50.7200 H   0  0  0  0  0  0  0  0  0  0  0  0
   38.9910   33.7650   49.2050 H   0  0  0  0  0  0  0  0  0  0  0  0
   38.5630   31.0910   45.9350 H   0  0  0  0  0  0  0  0  0  0  0  0
   33.2380   27.4490   48.1390 C   0  0  0  0  0  0  0  0  0  0  0  0
   31.9820   27.4320   48.3620 O   0  0  0  0  0  0  0  0  0  0  0  0
   33.8450   26.6370   47.0310 C   0  0  1  0  0  0  0  0  0  0  0  0
   33.7460   25.1050   47.3740 C   0  0  0  0  0  0  0  0  0  0  0  0
   33.0230   25.7240   46.2360 C   0  0  2  0  0  0  0  0  0  0  0  0
   34.9260   26.8500   46.8960 H   0  0  0  0  0  0  0  0  0  0  0  0
   33.1210   24.8220   48.2330 H   0  0  0  0  0  0  0  0  0  0  0  0
   34.6190   24.4800   47.2280 H   0  0  0  0  0  0  0  0  0  0  0  0
   31.9310   25.8250   46.2960 H   0  0  0  0  0  0  0  0  0  0  0  0
   33.5400   25.4810   44.8170 C   0  0  0  0  0  3  0  0  0  0  0  0
   34.8780   24.7760   44.8350 C   0  0  0  0  0  2  0  0  0  0  0  0
   35.3810   25.1360   43.4320 C   0  0  0  0  0  2  0  0  0  0  0  0
   35.2240   26.6600   43.5120 C   0  0  0  0  0  2  0  0  0  0  0  0
   33.8520   26.7960   44.1410 C   0  0  0  0  0  2  0  0  0  0  0  0
  1  8  1  0  0  0  0
  1  2  2  0  0  0  0
  2  6  1  0  0  0  0
  3  7  1  0  0  0  0
  3  2  1  0  0  0  0
  4  3  2  0  0  0  0
  5  4  1  0  0  0  0
  5  1  1  0  0  0  0
  8  9  2  0  0  0  0
 10 11  1  0  0  0  0
 10  8  1  0  0  0  0
 11 16  1  0  0  0  0
 12 17  1  0  0  0  0
 12 11  2  0  0  0  0
 13 12  1  0  0  0  0
 14 13  2  0  0  0  0
 14 15  1  0  0  0  0
 15 10  2  0  0  0  0
 18 14  1  0  0  0  0
 19 20  2  0  0  0  0
 19  4  1  0  0  0  0
 21 24  1  6  0  0  0
 21 22  1  0  0  0  0
 21 19  1  0  0  0  0
 22 25  1  0  0  0  0
 23 27  1  1  0  0  0
 23 21  1  0  0  0  0
 23 22  1  0  0  0  0
 26 22  1  0  0  0  0
 28 29  1  0  0  0  0
 28 23  1  0  0  0  0
 30 31  1  0  0  0  0
 30 29  1  0  0  0  0
 31 32  1  0  0  0  0
 32 28  1  0  0  0  0
M  END
>  <minimizedAffinity>
-5.15688324

>  <minimizedRMSD>
0.337008446

$$$$
