
     RDKit          3D

 24 25  0  0  0  0  0  0  0  0999 V2000
   37.2955   29.9883   51.1839 C   0  0  0  0  0  0  0  0  0  0  0  0
   37.9357   30.9082   50.3546 C   0  0  0  0  0  0  0  0  0  0  0  0
   37.2831   31.3928   49.2320 C   0  0  0  0  0  0  0  0  0  0  0  0
   36.0240   30.9279   49.0029 N   0  0  0  0  0  0  0  0  0  0  0  0
   35.4131   30.0357   49.8142 C   0  0  0  0  0  0  0  0  0  0  0  0
   36.0466   29.5699   50.8977 N   0  0  0  0  0  0  0  0  0  0  0  0
   38.0960   29.6211   52.2467 O   0  0  0  0  0  0  0  0  0  0  0  0
   37.6473   32.0887   48.5214 H   0  0  0  0  0  0  0  0  0  0  0  0
   34.4073   29.6766   49.6142 H   0  0  0  0  0  0  0  0  0  0  0  0
   38.9073   29.0487   52.1749 H   0  0  0  0  0  0  0  0  0  0  0  0
   39.3118   31.4416   50.5701 C   0  0  0  0  0  0  0  0  0  0  0  0
   40.0801   31.4328   49.2836 C   0  0  0  0  0  0  0  0  0  0  0  0
   40.6850   32.7852   49.1026 C   0  0  0  0  0  0  0  0  0  0  0  0
   39.8795   33.6815   50.0095 C   0  0  0  0  0  0  0  0  0  0  0  0
   39.3118   32.8279   51.1010 C   0  0  0  0  0  0  0  0  0  0  0  0
   39.7941   30.7026   51.2688 H   0  0  0  0  0  0  0  0  0  0  0  0
   40.8645   30.6447   49.2686 H   0  0  0  0  0  0  0  0  0  0  0  0
   39.3899   31.2353   48.4201 H   0  0  0  0  0  0  0  0  0  0  0  0
   40.5935   33.1719   48.0703 H   0  0  0  0  0  0  0  0  0  0  0  0
   41.7282   32.7225   49.4705 H   0  0  0  0  0  0  0  0  0  0  0  0
   40.5460   34.4937   50.4088 H   0  0  0  0  0  0  0  0  0  0  0  0
   39.1145   34.2156   49.4196 H   0  0  0  0  0  0  0  0  0  0  0  0
   40.0127   32.8670   51.9736 H   0  0  0  0  0  0  0  0  0  0  0  0
   38.3475   33.1845   51.5034 H   0  0  0  0  0  0  0  0  0  0  0  0
  1  7  1  0
  2  1  2  0
  3  2  1  0
  4  3  2  0
  4  5  1  0
  5  6  2  0
  6  1  1  0
  3  8  1  0
  5  9  1  0
  7 10  1  0
 11 12  1  0
 12 13  1  0
 13 14  1  0
 14 15  1  0
 15 11  1  0
 11 16  1  0
 12 17  1  0
 12 18  1  0
 13 19  1  0
 13 20  1  0
 14 21  1  0
 14 22  1  0
 15 23  1  0
 15 24  1  0
  2 11  1  0
M  ISO  3   8  14   9  14  10   3
M  END
>  <DihAtoms>  (1) 
0,1,10,11

>  <DihDeg>  (1) 
90.00071310431238

$$$$
