
 OpenBabel03272509093D

 36 39  0  0  0  0  0  0  0  0999 V2000
   35.1980   28.5100   48.9930 C   0  0  0  0  0  0  0  0  0  0  0  0
   33.9580   28.6460   49.3340 C   0  0  0  0  0  0  0  0  0  0  0  0
   37.3800   30.1330   51.4310 C   0  0  0  0  0  0  0  0  0  0  0  0
   38.1160   31.0130   50.6230 C   0  0  0  0  0  0  0  0  0  0  0  0
   37.8370   31.0270   49.2340 C   0  0  0  0  0  0  0  0  0  0  0  0
   36.8670   30.1800   48.7660 N   0  0  0  0  0  0  0  0  0  0  0  0
   36.1990   29.3570   49.6150 C   0  0  0  0  0  0  0  0  0  0  0  0
   36.4560   29.3390   50.9250 N   0  0  0  0  0  0  0  0  0  0  0  0
   37.6680   30.2030   52.4590 H   0  0  0  0  0  0  0  0  0  0  0  0
   38.8900   31.7050   50.9270 H   0  0  0  0  0  0  0  0  0  0  0  0
   38.5360   31.8990   48.2950 C   0  0  0  0  0  0  0  0  0  0  0  0
   38.8750   31.4970   47.0280 C   0  0  0  0  0  0  0  0  0  0  0  0
   39.5260   32.5690   46.4090 C   0  0  0  0  0  0  0  0  0  0  0  0
   39.5550   33.5760   47.3210 N   0  0  0  0  0  0  0  0  0  0  0  0
   38.9610   33.1700   48.4500 N   0  0  0  0  0  0  0  0  0  0  0  0
   38.6780   30.5160   46.5710 H   0  0  0  0  0  0  0  0  0  0  0  0
   39.9040   32.5420   45.4110 H   0  0  0  0  0  0  0  0  0  0  0  0
   40.0000   34.4900   47.0770 H   0  0  0  0  0  0  0  0  0  0  0  0
   32.8000   27.8920   48.8280 C   0  0  0  0  0  0  0  0  0  0  0  0
   32.6490   27.0420   49.5440 H   0  0  0  0  0  0  0  0  0  0  0  0
   31.8690   28.4570   48.8080 H   0  0  0  0  0  0  0  0  0  0  0  0
   33.0630   27.2130   47.5210 C   0  0  0  0  0  0  0  0  0  0  0  0
   33.6450   25.9510   47.4190 C   0  0  0  0  0  0  0  0  0  0  0  0
   33.8650   25.3700   46.1920 C   0  0  0  0  0  0  0  0  0  0  0  0
   33.5120   26.0280   45.0310 C   0  0  0  0  0  0  0  0  0  0  0  0
   32.9440   27.2600   45.1290 C   0  0  0  0  0  0  0  0  0  0  0  0
   32.7160   27.8580   46.3530 C   0  0  0  0  0  0  0  0  0  0  0  0
   33.8820   25.5250   48.3920 H   0  0  0  0  0  0  0  0  0  0  0  0
   34.3210   24.3960   46.3050 H   0  0  0  0  0  0  0  0  0  0  0  0
   33.7330   25.4730   44.1410 H   0  0  0  0  0  0  0  0  0  0  0  0
   32.6890   27.7250   44.1860 H   0  0  0  0  0  0  0  0  0  0  0  0
   32.0950   29.1880   46.3030 C   0  0  0  0  0  0  0  0  0  0  0  0
   31.1040   29.1980   45.1660 C   0  0  0  0  0  0  0  0  0  0  0  0
   31.8130   29.9420   44.0570 C   0  0  0  0  0  0  0  0  0  0  0  0
   32.7740   30.8790   44.7170 C   0  0  0  0  0  0  0  0  0  0  0  0
   33.0350   30.3250   46.0910 C   0  0  0  0  0  0  0  0  0  0  0  0
  1  2  2  0  0  0  0
  1  7  1  0  0  0  0
  3  9  1  0  0  0  0
  4 10  1  0  0  0  0
  4  3  2  0  0  0  0
  5  4  1  0  0  0  0
  6  5  2  0  0  0  0
  6  7  1  0  0  0  0
  7  8  2  0  0  0  0
  8  3  1  0  0  0  0
 11 15  2  0  0  0  0
 11  5  1  0  0  0  0
 12 11  1  0  0  0  0
 13 12  2  0  0  0  0
 13 14  1  0  0  0  0
 14 15  1  0  0  0  0
 16 12  1  0  0  0  0
 17 13  1  0  0  0  0
 18 14  1  0  0  0  0
 19  2  1  0  0  0  0
 19 20  1  0  0  0  0
 21 19  1  0  0  0  0
 22 19  1  0  0  0  0
 23 22  1  0  0  0  0
 23 28  1  0  0  0  0
 24 29  1  0  0  0  0
 24 23  2  0  0  0  0
 25 26  2  0  0  0  0
 25 24  1  0  0  0  0
 26 27  1  0  0  0  0
 27 22  2  0  0  0  0
 30 25  1  0  0  0  0
 31 26  1  0  0  0  0
 32 27  1  0  0  0  0
 33 32  1  0  0  0  0
 34 35  1  0  0  0  0
 34 33  1  0  0  0  0
 35 36  1  0  0  0  0
 36 32  1  0  0  0  0
M  END
>  <minimizedAffinity>
-6.31069374

>  <minimizedRMSD>
1.31945658

$$$$
