
     RDKit          3D

 28 29  0  0  0  0  0  0  0  0999 V2000
   37.3781   30.1228   51.1012 C   0  0  0  0  0  0  0  0  0  0  0  0
   38.2293   30.8916   50.2652 C   0  0  0  0  0  0  0  0  0  0  0  0
   37.6869   31.4389   49.0976 C   0  0  0  0  0  0  0  0  0  0  0  0
   36.3606   31.2028   48.8238 N   0  0  0  0  0  0  0  0  0  0  0  0
   35.5932   30.4662   49.6488 C   0  0  0  0  0  0  0  0  0  0  0  0
   36.1000   29.9404   50.7633 N   0  0  0  0  0  0  0  0  0  0  0  0
   33.9095   28.8410   49.2054 C   0  0  0  0  0  0  0  0  0  0  0  0
   34.6899   27.8473   49.3193 O   0  0  0  0  0  0  0  0  0  0  0  0
   34.2102   30.2327   49.3424 N   0  0  0  0  0  0  0  0  0  0  0  0
   38.0734   29.6651   52.1981 O   0  0  0  0  0  0  0  0  0  0  0  0
   39.2766   31.1015   50.4430 H   0  0  0  0  0  0  0  0  0  0  0  0
   38.2426   32.0356   48.3965 H   0  0  0  0  0  0  0  0  0  0  0  0
   32.9246   28.4548   48.9756 H   0  0  0  0  0  0  0  0  0  0  0  0
   33.4229   30.8772   49.2087 H   0  0  0  0  0  0  0  0  0  0  0  0
   37.6096   28.8848   53.2461 C   0  0  0  0  0  0  0  0  0  0  0  0
   38.5686   27.7134   53.3606 C   0  0  0  0  0  0  0  0  0  0  0  0
   39.8572   28.4773   53.6007 C   0  0  0  0  0  0  0  0  0  0  0  0
   39.4574   29.6717   54.4193 C   0  0  0  0  0  0  0  0  0  0  0  0
   37.9425   29.6106   54.5555 C   0  0  0  0  0  0  0  0  0  0  0  0
   36.5537   28.5890   53.2045 H   0  0  0  0  0  0  0  0  0  0  0  0
   38.3147   27.0504   54.2081 H   0  0  0  0  0  0  0  0  0  0  0  0
   38.6481   27.1667   52.3990 H   0  0  0  0  0  0  0  0  0  0  0  0
   40.1726   28.8659   52.5956 H   0  0  0  0  0  0  0  0  0  0  0  0
   40.6399   27.8641   54.0769 H   0  0  0  0  0  0  0  0  0  0  0  0
   39.6615   30.6453   53.8900 H   0  0  0  0  0  0  0  0  0  0  0  0
   39.9865   29.6699   55.3712 H   0  0  0  0  0  0  0  0  0  0  0  0
   37.4765   30.6036   54.6121 H   0  0  0  0  0  0  0  0  0  0  0  0
   37.7553   28.9444   55.4072 H   0  0  0  0  0  0  0  0  0  0  0  0
  1 10  1  0
  2  1  2  0
  3  2  1  0
  4  3  2  0
  4  5  1  0
  5  6  2  0
  6  1  1  0
  7  8  2  0
  7  9  1  0
  9  5  1  0
  2 11  1  0
  3 12  1  0
  7 13  1  0
  9 14  1  0
 15 16  1  0
 16 17  1  0
 17 18  1  0
 18 19  1  0
 19 15  1  0
 15 20  1  0
 16 21  1  0
 16 22  1  0
 17 23  1  0
 17 24  1  0
 18 25  1  0
 18 26  1  0
 19 27  1  0
 19 28  1  0
 10 15  1  0
M  ISO  3  11  14  12  14  13   6
M  END
>  <DihAtoms>  (1) 
0,9,14,15

>  <DihDeg>  (1) 
127.83331743360215

$$$$
