
 OpenBabel03272505203D

 44 47  0  0  1  0  0  0  0  0999 V2000
   37.0010   30.1320   50.1190 C   0  0  0  0  0  0  0  0  0  0  0  0
   37.9280   30.6920   49.2090 C   0  0  0  0  0  0  0  0  0  0  0  0
   37.7190   30.6080   47.8400 C   0  0  0  0  0  0  0  0  0  0  0  0
   36.5720   29.9540   47.5220 N   0  0  0  0  0  0  0  0  0  0  0  0
   35.6920   29.4230   48.3620 C   0  0  0  0  0  0  0  0  0  0  0  0
   35.9130   29.5140   49.6790 N   0  0  0  0  0  0  0  0  0  0  0  0
   34.5310   28.7660   47.8460 N   0  0  0  0  0  0  0  0  0  0  0  0
   33.9070   27.6830   48.5850 C   0  0  0  0  0  0  0  0  0  0  0  0
   34.0120   26.4690   47.6500 C   0  0  0  0  0  0  0  0  0  0  0  0
   33.2080   26.7750   46.4270 C   0  0  0  0  0  0  0  0  0  0  0  0
   33.7680   27.9750   45.7020 C   0  0  0  0  0  0  0  0  0  0  0  0
   33.9640   29.1720   46.5790 C   0  0  1  0  0  0  0  0  0  0  0  0
   37.1830   30.2080   51.1910 H   0  0  0  0  0  0  0  0  0  0  0  0
   38.7810   31.1720   49.6810 H   0  0  0  0  0  0  0  0  0  0  0  0
   34.4800   27.5060   49.5250 H   0  0  0  0  0  0  0  0  0  0  0  0
   32.8430   27.8480   48.7710 H   0  0  0  0  0  0  0  0  0  0  0  0
   35.0520   26.2780   47.3560 H   0  0  0  0  0  0  0  0  0  0  0  0
   33.5210   25.6400   48.1950 H   0  0  0  0  0  0  0  0  0  0  0  0
   33.2590   25.9250   45.7120 H   0  0  0  0  0  0  0  0  0  0  0  0
   32.1650   26.9790   46.7000 H   0  0  0  0  0  0  0  0  0  0  0  0
   33.0340   28.2670   44.9170 H   0  0  0  0  0  0  0  0  0  0  0  0
   34.7030   27.7140   45.1640 H   0  0  0  0  0  0  0  0  0  0  0  0
   34.7390   29.7940   46.0400 H   0  0  0  0  0  0  0  0  0  0  0  0
   39.1350   32.4650   47.2450 C   0  0  0  0  0  0  0  0  0  0  0  0
   38.7120   31.2050   46.9870 C   0  0  0  0  0  0  0  0  0  0  0  0
   39.2670   30.5600   45.9010 C   0  0  0  0  0  0  0  0  0  0  0  0
   40.1870   31.1190   45.1120 C   0  0  0  0  0  0  0  0  0  0  0  0
   40.6460   32.4110   45.3480 C   0  0  0  0  0  0  0  0  0  0  0  0
   40.0990   33.0590   46.4230 C   0  0  0  0  0  0  0  0  0  0  0  0
   38.9210   29.5410   45.6970 H   0  0  0  0  0  0  0  0  0  0  0  0
   40.5820   30.5590   44.2760 H   0  0  0  0  0  0  0  0  0  0  0  0
   41.3920   32.8600   44.7040 H   0  0  0  0  0  0  0  0  0  0  0  0
   40.4870   34.0670   46.5700 H   0  0  0  0  0  0  0  0  0  0  0  0
   39.5220   34.2490   48.7870 N   0  0  0  0  0  0  0  0  0  0  0  0
   38.7060   33.3230   48.3100 C   0  0  0  0  0  0  0  0  0  0  0  0
   37.6440   33.6260   49.1620 N   0  0  0  0  0  0  0  0  0  0  0  0
   39.2030   34.8710   49.5640 H   0  0  0  0  0  0  0  0  0  0  0  0
   37.5510   33.2380   50.1440 H   0  0  0  0  0  0  0  0  0  0  0  0
   36.9090   34.2730   48.7950 H   0  0  0  0  0  0  0  0  0  0  0  0
   32.7620   30.0500   46.6940 C   0  0  0  0  0  0  0  0  0  0  0  0
   32.8100   31.0800   45.5860 C   0  0  0  0  0  0  0  0  0  0  0  0
   31.3950   31.2190   45.0790 C   0  0  0  0  0  0  0  0  0  0  0  0
   30.6180   30.0430   45.5790 C   0  0  0  0  0  0  0  0  0  0  0  0
   31.5420   29.2160   46.4230 C   0  0  0  0  0  0  0  0  0  0  0  0
  1 13  1  0  0  0  0
  2 14  1  0  0  0  0
  2  1  2  0  0  0  0
  3  2  1  0  0  0  0
  4  3  2  0  0  0  0
  4  5  1  0  0  0  0
  5  6  2  0  0  0  0
  6  1  1  0  0  0  0
  7  5  1  0  0  0  0
  7  8  1  0  0  0  0
  8 16  1  0  0  0  0
  8 15  1  0  0  0  0
  9 18  1  0  0  0  0
  9  8  1  0  0  0  0
 10 20  1  0  0  0  0
 10  9  1  0  0  0  0
 11 10  1  0  0  0  0
 11 12  1  0  0  0  0
 12 23  1  6  0  0  0
 12 40  1  0  0  0  0
 12  7  1  0  0  0  0
 17  9  1  0  0  0  0
 19 10  1  0  0  0  0
 21 11  1  0  0  0  0
 22 11  1  0  0  0  0
 24 35  1  0  0  0  0
 25 24  1  0  0  0  0
 25  3  1  0  0  0  0
 26 25  2  0  0  0  0
 27 28  2  0  0  0  0
 27 26  1  0  0  0  0
 28 29  1  0  0  0  0
 29 33  1  0  0  0  0
 29 24  2  0  0  0  0
 30 26  1  0  0  0  0
 31 27  1  0  0  0  0
 32 28  1  0  0  0  0
 34 37  1  0  0  0  0
 35 34  2  0  0  0  0
 35 36  1  0  0  0  0
 36 38  1  0  0  0  0
 39 36  1  0  0  0  0
 41 40  1  0  0  0  0
 42 43  1  0  0  0  0
 42 41  1  0  0  0  0
 43 44  1  0  0  0  0
 44 40  1  0  0  0  0
M  END
>  <minimizedAffinity>
-6.75350618

>  <minimizedRMSD>
1.73990035

$$$$
