
 OpenBabel03272501453D

 30 33  0  0  0  0  0  0  0  0999 V2000
   37.7740   27.7260   35.1790 C   0  0  0  0  0  0  0  0  0  0  0  0
   37.0360   27.5260   33.9970 C   0  0  0  0  0  0  0  0  0  0  0  0
   37.1330   26.2780   33.3660 C   0  0  0  0  0  0  0  0  0  0  0  0
   37.9300   25.3390   33.9300 N   0  0  0  0  0  0  0  0  0  0  0  0
   38.6310   25.5630   35.0760 C   0  0  0  0  0  0  0  0  0  0  0  0
   38.5440   26.7540   35.6850 N   0  0  0  0  0  0  0  0  0  0  0  0
   37.8250   28.6120   35.7960 H   0  0  0  0  0  0  0  0  0  0  0  0
   36.5640   26.1690   32.4810 H   0  0  0  0  0  0  0  0  0  0  0  0
   35.6410   29.4330   34.5330 C   0  0  0  0  0  0  0  0  0  0  0  0
   36.2420   28.6580   33.5630 C   0  0  0  0  0  0  0  0  0  0  0  0
   36.0320   29.0260   32.2420 C   0  0  0  0  0  0  0  0  0  0  0  0
   35.2410   30.1430   31.9540 C   0  0  0  0  0  0  0  0  0  0  0  0
   34.8770   30.7130   30.8030 N   0  0  0  0  0  0  0  0  0  0  0  0
   34.1060   31.7700   31.0460 C   0  0  0  0  0  0  0  0  0  0  0  0
   33.9650   31.8890   32.3820 N   0  0  0  0  0  0  0  0  0  0  0  0
   34.6650   30.8850   32.9430 C   0  0  0  0  0  0  0  0  0  0  0  0
   34.8650   30.5300   34.2480 C   0  0  0  0  0  0  0  0  0  0  0  0
   35.7100   29.2690   35.6210 H   0  0  0  0  0  0  0  0  0  0  0  0
   36.4900   28.4340   31.4830 H   0  0  0  0  0  0  0  0  0  0  0  0
   35.1410   30.4030   29.8380 H   0  0  0  0  0  0  0  0  0  0  0  0
   33.6180   32.4850   30.3850 H   0  0  0  0  0  0  0  0  0  0  0  0
   34.3810   31.1580   35.0060 H   0  0  0  0  0  0  0  0  0  0  0  0
   39.4770   24.4620   35.6120 C   0  0  0  0  0  0  0  0  0  0  0  0
   39.9500   23.9270   34.7650 H   0  0  0  0  0  0  0  0  0  0  0  0
   40.2340   24.9160   36.2830 H   0  0  0  0  0  0  0  0  0  0  0  0
   38.6910   23.4580   36.3850 C   0  0  0  0  0  3  0  0  0  0  0  0
   39.6010   22.9520   37.5000 C   0  0  0  0  0  2  0  0  0  0  0  0
   38.8940   23.2170   38.7980 C   0  0  0  0  0  2  0  0  0  0  0  0
   38.0330   24.4060   38.4820 C   0  0  0  0  0  2  0  0  0  0  0  0
   37.4990   24.0230   37.1040 C   0  0  0  0  0  2  0  0  0  0  0  0
  1  6  1  0  0  0  0
  1  7  1  0  0  0  0
  2  1  2  0  0  0  0
  3  4  2  0  0  0  0
  3  2  1  0  0  0  0
  4  5  1  0  0  0  0
  5 23  1  0  0  0  0
  5  6  2  0  0  0  0
  8  3  1  0  0  0  0
  9 18  1  0  0  0  0
 10  2  1  0  0  0  0
 10  9  2  0  0  0  0
 11 10  1  0  0  0  0
 12 11  2  0  0  0  0
 12 16  1  0  0  0  0
 13 14  1  0  0  0  0
 13 12  1  0  0  0  0
 14 15  2  0  0  0  0
 15 16  1  0  0  0  0
 16 17  2  0  0  0  0
 17  9  1  0  0  0  0
 17 22  1  0  0  0  0
 19 11  1  0  0  0  0
 20 13  1  0  0  0  0
 21 14  1  0  0  0  0
 23 25  1  0  0  0  0
 23 26  1  0  0  0  0
 24 23  1  0  0  0  0
 26 30  1  0  0  0  0
 26 27  1  0  0  0  0
 27 28  1  0  0  0  0
 29 28  1  0  0  0  0
 30 29  1  0  0  0  0
M  END
>  <minimizedAffinity>
-5.78034258

$$$$

 OpenBabel03272501453D

 30 33  0  0  0  0  0  0  0  0999 V2000
   37.1530   26.3400   33.4130 C   0  0  0  0  0  0  0  0  0  0  0  0
   37.0420   27.5870   34.0570 C   0  0  0  0  0  0  0  0  0  0  0  0
   37.7670   27.7810   35.2420 C   0  0  0  0  0  0  0  0  0  0  0  0
   38.5300   26.7590   35.6950 N   0  0  0  0  0  0  0  0  0  0  0  0
   38.6180   25.5640   35.0470 C   0  0  0  0  0  0  0  0  0  0  0  0
   37.9280   25.3710   33.9150 N   0  0  0  0  0  0  0  0  0  0  0  0
   36.6730   26.0120   32.5020 H   0  0  0  0  0  0  0  0  0  0  0  0
   37.6550   28.7300   35.6950 H   0  0  0  0  0  0  0  0  0  0  0  0
   36.3890   28.8070   32.0680 C   0  0  0  0  0  0  0  0  0  0  0  0
   36.1730   28.5470   33.4060 C   0  0  0  0  0  0  0  0  0  0  0  0
   35.1380   29.2340   34.0220 C   0  0  0  0  0  0  0  0  0  0  0  0
   34.3710   30.1390   33.2800 C   0  0  0  0  0  0  0  0  0  0  0  0
   33.3390   30.9200   33.6050 N   0  0  0  0  0  0  0  0  0  0  0  0
   32.9440   31.6130   32.5400 C   0  0  0  0  0  0  0  0  0  0  0  0
   33.7360   31.2760   31.5020 N   0  0  0  0  0  0  0  0  0  0  0  0
   34.6170   30.3660   31.9570 C   0  0  0  0  0  0  0  0  0  0  0  0
   35.6360   29.6950   31.3410 C   0  0  0  0  0  0  0  0  0  0  0  0
   37.1720   28.3460   31.4410 H   0  0  0  0  0  0  0  0  0  0  0  0
   34.9610   29.0430   35.0550 H   0  0  0  0  0  0  0  0  0  0  0  0
   32.8850   31.0000   34.5450 H   0  0  0  0  0  0  0  0  0  0  0  0
   32.1490   32.3450   32.4000 H   0  0  0  0  0  0  0  0  0  0  0  0
   35.7930   29.9120   30.2770 H   0  0  0  0  0  0  0  0  0  0  0  0
   39.4880   24.5070   35.6320 C   0  0  0  0  0  0  0  0  0  0  0  0
   40.0190   23.9830   34.8110 H   0  0  0  0  0  0  0  0  0  0  0  0
   40.1970   25.0000   36.3270 H   0  0  0  0  0  0  0  0  0  0  0  0
   38.7150   23.4770   36.3840 C   0  0  0  0  0  3  0  0  0  0  0  0
   39.6180   22.9880   37.5120 C   0  0  0  0  0  2  0  0  0  0  0  0
   38.8810   23.2250   38.7990 C   0  0  0  0  0  2  0  0  0  0  0  0
   37.9960   24.3940   38.4750 C   0  0  0  0  0  2  0  0  0  0  0  0
   37.4960   24.0070   37.0860 C   0  0  0  0  0  2  0  0  0  0  0  0
  1  6  2  0  0  0  0
  1  2  1  0  0  0  0
  2  3  2  0  0  0  0
  3  8  1  0  0  0  0
  3  4  1  0  0  0  0
  5 23  1  0  0  0  0
  5  4  2  0  0  0  0
  6  5  1  0  0  0  0
  7  1  1  0  0  0  0
  9 10  1  0  0  0  0
 10 11  2  0  0  0  0
 10  2  1  0  0  0  0
 11 19  1  0  0  0  0
 12 13  1  0  0  0  0
 12 11  1  0  0  0  0
 13 20  1  0  0  0  0
 14 13  1  0  0  0  0
 15 16  1  0  0  0  0
 15 14  2  0  0  0  0
 16 12  2  0  0  0  0
 17 16  1  0  0  0  0
 17  9  2  0  0  0  0
 18  9  1  0  0  0  0
 21 14  1  0  0  0  0
 22 17  1  0  0  0  0
 23 25  1  0  0  0  0
 23 26  1  0  0  0  0
 24 23  1  0  0  0  0
 26 30  1  0  0  0  0
 26 27  1  0  0  0  0
 27 28  1  0  0  0  0
 29 28  1  0  0  0  0
 30 29  1  0  0  0  0
M  END
>  <minimizedAffinity>
-5.61746836

$$$$

 OpenBabel03272501453D

 30 33  0  0  0  0  0  0  0  0999 V2000
   37.7380   27.6970   35.1730 C   0  0  0  0  0  0  0  0  0  0  0  0
   37.0060   27.4680   33.9920 C   0  0  0  0  0  0  0  0  0  0  0  0
   37.1290   26.2140   33.3760 C   0  0  0  0  0  0  0  0  0  0  0  0
   37.9430   25.2990   33.9530 N   0  0  0  0  0  0  0  0  0  0  0  0
   38.6370   25.5510   35.0970 C   0  0  0  0  0  0  0  0  0  0  0  0
   38.5250   26.7470   35.6920 N   0  0  0  0  0  0  0  0  0  0  0  0
   37.7690   28.5920   35.7790 H   0  0  0  0  0  0  0  0  0  0  0  0
   36.5650   26.0840   32.4910 H   0  0  0  0  0  0  0  0  0  0  0  0
   36.1160   28.8140   32.1840 C   0  0  0  0  0  0  0  0  0  0  0  0
   36.1910   28.5790   33.5410 C   0  0  0  0  0  0  0  0  0  0  0  0
   35.4780   29.4330   34.3690 C   0  0  0  0  0  0  0  0  0  0  0  0
   34.7280   30.4720   33.8080 C   0  0  0  0  0  0  0  0  0  0  0  0
   33.9640   31.4230   34.3500 N   0  0  0  0  0  0  0  0  0  0  0  0
   33.4520   32.1920   33.3920 C   0  0  0  0  0  0  0  0  0  0  0  0
   33.8910   31.7310   32.2040 N   0  0  0  0  0  0  0  0  0  0  0  0
   34.6800   30.6700   32.4590 C   0  0  0  0  0  0  0  0  0  0  0  0
   35.3790   29.8340   31.6350 C   0  0  0  0  0  0  0  0  0  0  0  0
   36.6260   28.2280   31.4000 H   0  0  0  0  0  0  0  0  0  0  0  0
   35.5280   29.2630   35.4200 H   0  0  0  0  0  0  0  0  0  0  0  0
   33.7760   31.5710   35.3700 H   0  0  0  0  0  0  0  0  0  0  0  0
   32.7910   33.0570   33.4270 H   0  0  0  0  0  0  0  0  0  0  0  0
   35.3080   30.0350   30.5580 H   0  0  0  0  0  0  0  0  0  0  0  0
   39.5040   24.4730   35.6490 C   0  0  0  0  0  0  0  0  0  0  0  0
   40.0030   23.9490   34.8100 H   0  0  0  0  0  0  0  0  0  0  0  0
   40.2390   24.9480   36.3300 H   0  0  0  0  0  0  0  0  0  0  0  0
   38.7330   23.4500   36.4120 C   0  0  0  0  0  3  0  0  0  0  0  0
   39.6380   22.9740   37.5440 C   0  0  0  0  0  2  0  0  0  0  0  0
   38.9010   23.2230   38.8290 C   0  0  0  0  0  2  0  0  0  0  0  0
   38.0130   24.3860   38.4940 C   0  0  0  0  0  2  0  0  0  0  0  0
   37.5140   23.9840   37.1090 C   0  0  0  0  0  2  0  0  0  0  0  0
  1  6  1  0  0  0  0
  1  7  1  0  0  0  0
  2  1  2  0  0  0  0
  3  4  2  0  0  0  0
  3  2  1  0  0  0  0
  4  5  1  0  0  0  0
  5 23  1  0  0  0  0
  5  6  2  0  0  0  0
  8  3  1  0  0  0  0
  9 10  1  0  0  0  0
 10  2  1  0  0  0  0
 10 11  2  0  0  0  0
 11 19  1  0  0  0  0
 12 13  1  0  0  0  0
 12 11  1  0  0  0  0
 13 20  1  0  0  0  0
 14 21  1  0  0  0  0
 14 13  1  0  0  0  0
 15 16  1  0  0  0  0
 15 14  2  0  0  0  0
 16 12  2  0  0  0  0
 17  9  2  0  0  0  0
 17 16  1  0  0  0  0
 18  9  1  0  0  0  0
 22 17  1  0  0  0  0
 23 25  1  0  0  0  0
 23 26  1  0  0  0  0
 24 23  1  0  0  0  0
 26 30  1  0  0  0  0
 26 27  1  0  0  0  0
 27 28  1  0  0  0  0
 29 28  1  0  0  0  0
 30 29  1  0  0  0  0
M  END
>  <minimizedAffinity>
-5.59303093

$$$$

 OpenBabel03272501453D

 30 33  0  0  0  0  0  0  0  0999 V2000
   37.7030   25.5170   34.1400 C   0  0  0  0  0  0  0  0  0  0  0  0
   38.3380   25.7870   35.3670 C   0  0  0  0  0  0  0  0  0  0  0  0
   38.1920   27.0700   35.9130 C   0  0  0  0  0  0  0  0  0  0  0  0
   37.4500   27.9730   35.2290 N   0  0  0  0  0  0  0  0  0  0  0  0
   36.8460   27.6800   34.0430 C   0  0  0  0  0  0  0  0  0  0  0  0
   36.9810   26.4560   33.5140 N   0  0  0  0  0  0  0  0  0  0  0  0
   37.7050   24.5970   33.5720 H   0  0  0  0  0  0  0  0  0  0  0  0
   38.6860   27.2330   36.8350 H   0  0  0  0  0  0  0  0  0  0  0  0
   38.5960   24.1040   37.0910 C   0  0  0  0  0  0  0  0  0  0  0  0
   39.0830   24.6820   35.9370 C   0  0  0  0  0  0  0  0  0  0  0  0
   40.2560   24.1570   35.4140 C   0  0  0  0  0  0  0  0  0  0  0  0
   40.8820   23.0870   36.0630 C   0  0  0  0  0  0  0  0  0  0  0  0
   41.9930   22.3990   35.7930 N   0  0  0  0  0  0  0  0  0  0  0  0
   42.1790   21.4590   36.7170 C   0  0  0  0  0  0  0  0  0  0  0  0
   41.1670   21.5380   37.6050 N   0  0  0  0  0  0  0  0  0  0  0  0
   40.3660   22.5420   37.2030 C   0  0  0  0  0  0  0  0  0  0  0  0
   39.2120   23.0540   37.7260 C   0  0  0  0  0  0  0  0  0  0  0  0
   37.6820   24.4090   37.6270 H   0  0  0  0  0  0  0  0  0  0  0  0
   40.6430   24.5950   34.5230 H   0  0  0  0  0  0  0  0  0  0  0  0
   42.6440   22.5490   34.9860 H   0  0  0  0  0  0  0  0  0  0  0  0
   42.9560   20.7070   36.8460 H   0  0  0  0  0  0  0  0  0  0  0  0
   38.8380   22.5820   38.6430 H   0  0  0  0  0  0  0  0  0  0  0  0
   36.0510   28.7460   33.3740 C   0  0  0  0  0  0  0  0  0  0  0  0
   36.7170   29.3230   32.7020 H   0  0  0  0  0  0  0  0  0  0  0  0
   35.2320   28.2520   32.8130 H   0  0  0  0  0  0  0  0  0  0  0  0
   35.4560   29.7120   34.3420 C   0  0  0  0  0  3  0  0  0  0  0  0
   35.5760   31.0950   33.7100 C   0  0  0  0  0  2  0  0  0  0  0  0
   34.1870   31.6620   33.6280 C   0  0  0  0  0  2  0  0  0  0  0  0
   33.3230   30.4370   33.5330 C   0  0  0  0  0  2  0  0  0  0  0  0
   33.9820   29.5330   34.5710 C   0  0  0  0  0  2  0  0  0  0  0  0
  1  2  1  0  0  0  0
  2  3  2  0  0  0  0
  2 10  1  0  0  0  0
  3  8  1  0  0  0  0
  4  3  1  0  0  0  0
  5  4  2  0  0  0  0
  6  5  1  0  0  0  0
  6  1  2  0  0  0  0
  7  1  1  0  0  0  0
  9 18  1  0  0  0  0
  9 17  1  0  0  0  0
 10  9  2  0  0  0  0
 11 10  1  0  0  0  0
 11 12  2  0  0  0  0
 12 16  1  0  0  0  0
 13 12  1  0  0  0  0
 13 14  1  0  0  0  0
 14 21  1  0  0  0  0
 14 15  2  0  0  0  0
 16 15  1  0  0  0  0
 16 17  2  0  0  0  0
 17 22  1  0  0  0  0
 19 11  1  0  0  0  0
 20 13  1  0  0  0  0
 23  5  1  0  0  0  0
 23 26  1  0  0  0  0
 24 23  1  0  0  0  0
 25 23  1  0  0  0  0
 26 30  1  0  0  0  0
 27 26  1  0  0  0  0
 28 27  1  0  0  0  0
 29 28  1  0  0  0  0
 29 30  1  0  0  0  0
M  END
>  <minimizedAffinity>
-5.42839909

$$$$

 OpenBabel03272501453D

 30 33  0  0  0  0  0  0  0  0999 V2000
   35.8210   25.6930   31.1410 C   0  0  0  0  0  0  0  0  0  0  0  0
   36.5130   26.2960   32.2090 C   0  0  0  0  0  0  0  0  0  0  0  0
   37.3770   25.4940   32.9670 C   0  0  0  0  0  0  0  0  0  0  0  0
   37.4950   24.1880   32.6290 N   0  0  0  0  0  0  0  0  0  0  0  0
   36.8120   23.6340   31.5890 C   0  0  0  0  0  0  0  0  0  0  0  0
   35.9830   24.3940   30.8590 N   0  0  0  0  0  0  0  0  0  0  0  0
   35.1190   26.1470   30.4560 H   0  0  0  0  0  0  0  0  0  0  0  0
   37.8770   25.9850   33.7600 H   0  0  0  0  0  0  0  0  0  0  0  0
   36.1720   28.5080   31.2800 C   0  0  0  0  0  0  0  0  0  0  0  0
   36.2470   27.7080   32.4020 C   0  0  0  0  0  0  0  0  0  0  0  0
   36.0650   28.3260   33.6300 C   0  0  0  0  0  0  0  0  0  0  0  0
   35.8170   29.7010   33.6810 C   0  0  0  0  0  0  0  0  0  0  0  0
   35.6080   30.5390   34.6990 N   0  0  0  0  0  0  0  0  0  0  0  0
   35.4160   31.7720   34.2370 C   0  0  0  0  0  0  0  0  0  0  0  0
   35.5000   31.7350   32.8920 N   0  0  0  0  0  0  0  0  0  0  0  0
   35.7480   30.4570   32.5470 C   0  0  0  0  0  0  0  0  0  0  0  0
   35.9270   29.8580   31.3320 C   0  0  0  0  0  0  0  0  0  0  0  0
   36.2960   28.1680   30.2380 H   0  0  0  0  0  0  0  0  0  0  0  0
   36.1220   27.7190   34.5040 H   0  0  0  0  0  0  0  0  0  0  0  0
   35.5930   30.2970   35.7180 H   0  0  0  0  0  0  0  0  0  0  0  0
   35.2190   32.7180   34.7410 H   0  0  0  0  0  0  0  0  0  0  0  0
   35.8620   30.5090   30.4510 H   0  0  0  0  0  0  0  0  0  0  0  0
   37.0150   22.1880   31.3020 C   0  0  0  0  0  0  0  0  0  0  0  0
   37.5090   22.0830   30.3160 H   0  0  0  0  0  0  0  0  0  0  0  0
   37.6370   21.7670   32.1170 H   0  0  0  0  0  0  0  0  0  0  0  0
   35.7330   21.4300   31.2360 C   0  0  0  0  0  3  0  0  0  0  0  0
   36.0940   19.9860   30.9000 C   0  0  0  0  0  2  0  0  0  0  0  0
   35.5360   19.1270   31.9990 C   0  0  0  0  0  2  0  0  0  0  0  0
   35.5220   20.0520   33.1820 C   0  0  0  0  0  2  0  0  0  0  0  0
   34.9990   21.3360   32.5430 C   0  0  0  0  0  2  0  0  0  0  0  0
  1  2  1  0  0  0  0
  2 10  1  0  0  0  0
  2  3  2  0  0  0  0
  3  8  1  0  0  0  0
  4  3  1  0  0  0  0
  5  4  2  0  0  0  0
  6  1  2  0  0  0  0
  6  5  1  0  0  0  0
  7  1  1  0  0  0  0
  9 17  2  0  0  0  0
  9 10  1  0  0  0  0
 10 11  2  0  0  0  0
 11 12  1  0  0  0  0
 11 19  1  0  0  0  0
 12 13  1  0  0  0  0
 13 20  1  0  0  0  0
 14 13  1  0  0  0  0
 14 21  1  0  0  0  0
 15 14  2  0  0  0  0
 16 15  1  0  0  0  0
 16 12  2  0  0  0  0
 17 16  1  0  0  0  0
 18  9  1  0  0  0  0
 22 17  1  0  0  0  0
 23  5  1  0  0  0  0
 23 25  1  0  0  0  0
 24 23  1  0  0  0  0
 26 23  1  0  0  0  0
 26 30  1  0  0  0  0
 27 26  1  0  0  0  0
 27 28  1  0  0  0  0
 28 29  1  0  0  0  0
 30 29  1  0  0  0  0
M  END
>  <minimizedAffinity>
-5.36991549

$$$$

 OpenBabel03272501453D

 30 33  0  0  0  0  0  0  0  0999 V2000
   37.1600   24.6980   32.3990 C   0  0  0  0  0  0  0  0  0  0  0  0
   36.1610   24.0440   31.6540 C   0  0  0  0  0  0  0  0  0  0  0  0
   35.2020   24.8350   31.0060 C   0  0  0  0  0  0  0  0  0  0  0  0
   35.2930   26.1800   31.1350 N   0  0  0  0  0  0  0  0  0  0  0  0
   36.2740   26.7830   31.8630 C   0  0  0  0  0  0  0  0  0  0  0  0
   37.1940   26.0340   32.4860 N   0  0  0  0  0  0  0  0  0  0  0  0
   37.9730   24.2590   32.9620 H   0  0  0  0  0  0  0  0  0  0  0  0
   34.4680   24.3050   30.4580 H   0  0  0  0  0  0  0  0  0  0  0  0
   37.3310   22.0190   31.0200 C   0  0  0  0  0  0  0  0  0  0  0  0
   36.2430   22.5970   31.6410 C   0  0  0  0  0  0  0  0  0  0  0  0
   35.3090   21.7390   32.2040 C   0  0  0  0  0  0  0  0  0  0  0  0
   35.5050   20.3570   32.1220 C   0  0  0  0  0  0  0  0  0  0  0  0
   34.7870   19.3200   32.5610 N   0  0  0  0  0  0  0  0  0  0  0  0
   35.3920   18.1810   32.2340 C   0  0  0  0  0  0  0  0  0  0  0  0
   36.5250   18.4820   31.5690 N   0  0  0  0  0  0  0  0  0  0  0  0
   36.5960   19.8250   31.4990 C   0  0  0  0  0  0  0  0  0  0  0  0
   37.5210   20.6620   30.9410 C   0  0  0  0  0  0  0  0  0  0  0  0
   38.1540   22.5640   30.5260 H   0  0  0  0  0  0  0  0  0  0  0  0
   34.4640   22.1730   32.6860 H   0  0  0  0  0  0  0  0  0  0  0  0
   33.8820   19.3620   33.0860 H   0  0  0  0  0  0  0  0  0  0  0  0
   35.1280   17.1380   32.4100 H   0  0  0  0  0  0  0  0  0  0  0  0
   38.3800   20.1860   30.4520 H   0  0  0  0  0  0  0  0  0  0  0  0
   36.2840   28.2700   31.9380 C   0  0  0  0  0  0  0  0  0  0  0  0
   37.2330   28.6000   32.4040 H   0  0  0  0  0  0  0  0  0  0  0  0
   36.1760   28.6600   30.9060 H   0  0  0  0  0  0  0  0  0  0  0  0
   35.1720   28.8090   32.7740 C   0  0  0  0  0  3  0  0  0  0  0  0
   35.7250   28.9720   34.1860 C   0  0  0  0  0  2  0  0  0  0  0  0
   35.5450   30.4150   34.5650 C   0  0  0  0  0  2  0  0  0  0  0  0
   35.5780   31.1220   33.2410 C   0  0  0  0  0  2  0  0  0  0  0  0
   34.7200   30.1890   32.3890 C   0  0  0  0  0  2  0  0  0  0  0  0
  1  6  1  0  0  0  0
  1  7  1  0  0  0  0
  2  1  2  0  0  0  0
  3  4  2  0  0  0  0
  3  2  1  0  0  0  0
  4  5  1  0  0  0  0
  5 23  1  0  0  0  0
  5  6  2  0  0  0  0
  8  3  1  0  0  0  0
  9 10  1  0  0  0  0
 10  2  1  0  0  0  0
 10 11  2  0  0  0  0
 11 19  1  0  0  0  0
 12 11  1  0  0  0  0
 12 13  1  0  0  0  0
 13 20  1  0  0  0  0
 14 21  1  0  0  0  0
 14 13  1  0  0  0  0
 15 14  2  0  0  0  0
 16 15  1  0  0  0  0
 16 12  2  0  0  0  0
 17  9  2  0  0  0  0
 17 16  1  0  0  0  0
 18  9  1  0  0  0  0
 22 17  1  0  0  0  0
 23 24  1  0  0  0  0
 23 26  1  0  0  0  0
 25 23  1  0  0  0  0
 26 27  1  0  0  0  0
 27 28  1  0  0  0  0
 29 28  1  0  0  0  0
 30 26  1  0  0  0  0
 30 29  1  0  0  0  0
M  END
>  <minimizedAffinity>
-5.36428452

$$$$

 OpenBabel03272501453D

 30 33  0  0  0  0  0  0  0  0999 V2000
   35.8110   25.5920   31.0810 C   0  0  0  0  0  0  0  0  0  0  0  0
   36.5040   26.3120   32.0720 C   0  0  0  0  0  0  0  0  0  0  0  0
   37.3790   25.6030   32.9070 C   0  0  0  0  0  0  0  0  0  0  0  0
   37.5050   24.2700   32.7120 N   0  0  0  0  0  0  0  0  0  0  0  0
   36.8210   23.6010   31.7420 C   0  0  0  0  0  0  0  0  0  0  0  0
   35.9820   24.2710   30.9400 N   0  0  0  0  0  0  0  0  0  0  0  0
   35.1010   25.9640   30.3540 H   0  0  0  0  0  0  0  0  0  0  0  0
   37.8790   26.1810   33.6390 H   0  0  0  0  0  0  0  0  0  0  0  0
   36.0500   28.3210   33.3490 C   0  0  0  0  0  0  0  0  0  0  0  0
   36.2280   27.7350   32.1130 C   0  0  0  0  0  0  0  0  0  0  0  0
   36.1240   28.5600   31.0030 C   0  0  0  0  0  0  0  0  0  0  0  0
   35.8520   29.9210   31.1770 C   0  0  0  0  0  0  0  0  0  0  0  0
   35.7000   30.9250   30.3110 N   0  0  0  0  0  0  0  0  0  0  0  0
   35.4470   32.0540   30.9680 C   0  0  0  0  0  0  0  0  0  0  0  0
   35.4340   31.7780   32.2880 N   0  0  0  0  0  0  0  0  0  0  0  0
   35.6830   30.4620   32.4180 C   0  0  0  0  0  0  0  0  0  0  0  0
   35.7830   29.6570   33.5180 C   0  0  0  0  0  0  0  0  0  0  0  0
   36.0990   27.8010   34.3210 H   0  0  0  0  0  0  0  0  0  0  0  0
   36.2590   28.1190   30.0420 H   0  0  0  0  0  0  0  0  0  0  0  0
   35.7630   30.8680   29.2670 H   0  0  0  0  0  0  0  0  0  0  0  0
   35.2650   33.0720   30.6260 H   0  0  0  0  0  0  0  0  0  0  0  0
   35.6400   30.1390   34.4930 H   0  0  0  0  0  0  0  0  0  0  0  0
   37.0340   22.1340   31.6110 C   0  0  0  0  0  0  0  0  0  0  0  0
   37.6740   21.9410   30.7280 H   0  0  0  0  0  0  0  0  0  0  0  0
   37.5110   21.7780   32.5470 H   0  0  0  0  0  0  0  0  0  0  0  0
   35.7610   21.3840   31.4060 C   0  0  0  0  0  3  0  0  0  0  0  0
   36.1450   19.9980   30.8990 C   0  0  0  0  0  2  0  0  0  0  0  0
   35.5600   19.0010   31.8590 C   0  0  0  0  0  2  0  0  0  0  0  0
   35.5010   19.7650   33.1510 C   0  0  0  0  0  2  0  0  0  0  0  0
   34.9870   21.1190   32.6660 C   0  0  0  0  0  2  0  0  0  0  0  0
  1  2  1  0  0  0  0
  2 10  1  0  0  0  0
  2  3  2  0  0  0  0
  3  8  1  0  0  0  0
  4  3  1  0  0  0  0
  5  4  2  0  0  0  0
  6  1  2  0  0  0  0
  6  5  1  0  0  0  0
  7  1  1  0  0  0  0
  9 17  1  0  0  0  0
  9 18  1  0  0  0  0
 10  9  2  0  0  0  0
 11 12  2  0  0  0  0
 11 10  1  0  0  0  0
 12 16  1  0  0  0  0
 13 14  1  0  0  0  0
 13 12  1  0  0  0  0
 14 15  2  0  0  0  0
 15 16  1  0  0  0  0
 16 17  2  0  0  0  0
 17 22  1  0  0  0  0
 19 11  1  0  0  0  0
 20 13  1  0  0  0  0
 21 14  1  0  0  0  0
 23  5  1  0  0  0  0
 23 25  1  0  0  0  0
 24 23  1  0  0  0  0
 26 23  1  0  0  0  0
 26 30  1  0  0  0  0
 27 26  1  0  0  0  0
 27 28  1  0  0  0  0
 28 29  1  0  0  0  0
 30 29  1  0  0  0  0
M  END
>  <minimizedAffinity>
-5.3600421

$$$$

 OpenBabel03272501453D

 30 33  0  0  0  0  0  0  0  0999 V2000
   37.2790   24.3730   32.6140 C   0  0  0  0  0  0  0  0  0  0  0  0
   36.2560   23.8940   31.7740 C   0  0  0  0  0  0  0  0  0  0  0  0
   35.4210   24.8360   31.1540 C   0  0  0  0  0  0  0  0  0  0  0  0
   35.6480   26.1470   31.3990 N   0  0  0  0  0  0  0  0  0  0  0  0
   36.6490   26.5790   32.2170 C   0  0  0  0  0  0  0  0  0  0  0  0
   37.4500   25.6860   32.8140 N   0  0  0  0  0  0  0  0  0  0  0  0
   38.0100   23.8040   33.1720 H   0  0  0  0  0  0  0  0  0  0  0  0
   34.6650   24.4350   30.5330 H   0  0  0  0  0  0  0  0  0  0  0  0
   35.1570   21.7980   32.2920 C   0  0  0  0  0  0  0  0  0  0  0  0
   36.1840   22.4520   31.6440 C   0  0  0  0  0  0  0  0  0  0  0  0
   37.0710   21.6720   30.9180 C   0  0  0  0  0  0  0  0  0  0  0  0
   36.8920   20.2850   30.8730 C   0  0  0  0  0  0  0  0  0  0  0  0
   37.5760   19.3100   30.2690 N   0  0  0  0  0  0  0  0  0  0  0  0
   37.0080   18.1340   30.5250 C   0  0  0  0  0  0  0  0  0  0  0  0
   35.9340   18.3490   31.3120 N   0  0  0  0  0  0  0  0  0  0  0  0
   35.8620   19.6760   31.5270 C   0  0  0  0  0  0  0  0  0  0  0  0
   34.9830   20.4370   32.2460 C   0  0  0  0  0  0  0  0  0  0  0  0
   34.3760   22.2760   32.9080 H   0  0  0  0  0  0  0  0  0  0  0  0
   37.8690   22.1650   30.4130 H   0  0  0  0  0  0  0  0  0  0  0  0
   38.4320   19.4190   29.6760 H   0  0  0  0  0  0  0  0  0  0  0  0
   37.2630   17.1200   30.2210 H   0  0  0  0  0  0  0  0  0  0  0  0
   34.1720   19.9000   32.7540 H   0  0  0  0  0  0  0  0  0  0  0  0
   36.8130   28.0450   32.4180 C   0  0  0  0  0  0  0  0  0  0  0  0
   37.4150   28.2180   33.3310 H   0  0  0  0  0  0  0  0  0  0  0  0
   37.3100   28.4550   31.5160 H   0  0  0  0  0  0  0  0  0  0  0  0
   35.5110   28.7480   32.6090 C   0  0  0  0  0  3  0  0  0  0  0  0
   35.5070   29.2820   34.0380 C   0  0  0  0  0  2  0  0  0  0  0  0
   35.3010   30.7680   33.9510 C   0  0  0  0  0  2  0  0  0  0  0  0
   35.8760   31.1140   32.6070 C   0  0  0  0  0  2  0  0  0  0  0  0
   35.3340   29.9700   31.7530 C   0  0  0  0  0  2  0  0  0  0  0  0
  1  6  1  0  0  0  0
  1  7  1  0  0  0  0
  2  1  2  0  0  0  0
  3  4  2  0  0  0  0
  3  2  1  0  0  0  0
  4  5  1  0  0  0  0
  5 23  1  0  0  0  0
  5  6  2  0  0  0  0
  8  3  1  0  0  0  0
  9 18  1  0  0  0  0
 10  2  1  0  0  0  0
 10  9  2  0  0  0  0
 11 10  1  0  0  0  0
 12 11  2  0  0  0  0
 12 16  1  0  0  0  0
 13 14  1  0  0  0  0
 13 12  1  0  0  0  0
 14 15  2  0  0  0  0
 15 16  1  0  0  0  0
 16 17  2  0  0  0  0
 17  9  1  0  0  0  0
 17 22  1  0  0  0  0
 19 11  1  0  0  0  0
 20 13  1  0  0  0  0
 21 14  1  0  0  0  0
 23 26  1  0  0  0  0
 23 24  1  0  0  0  0
 25 23  1  0  0  0  0
 26 27  1  0  0  0  0
 28 27  1  0  0  0  0
 29 28  1  0  0  0  0
 30 29  1  0  0  0  0
 30 26  1  0  0  0  0
M  END
>  <minimizedAffinity>
-5.26692677

$$$$

 OpenBabel03272501453D

 30 33  0  0  0  0  0  0  0  0999 V2000
   35.7360   27.3190   31.4680 C   0  0  0  0  0  0  0  0  0  0  0  0
   36.3070   27.6070   32.7230 C   0  0  0  0  0  0  0  0  0  0  0  0
   37.0320   26.5910   33.3620 C   0  0  0  0  0  0  0  0  0  0  0  0
   37.1400   25.3950   32.7360 N   0  0  0  0  0  0  0  0  0  0  0  0
   36.5770   25.1490   31.5200 C   0  0  0  0  0  0  0  0  0  0  0  0
   35.8820   26.1150   30.9020 N   0  0  0  0  0  0  0  0  0  0  0  0
   35.1490   27.9700   30.8340 H   0  0  0  0  0  0  0  0  0  0  0  0
   37.4430   26.8470   34.3030 H   0  0  0  0  0  0  0  0  0  0  0  0
   35.9370   29.9620   32.2900 C   0  0  0  0  0  0  0  0  0  0  0  0
   36.0750   28.9500   33.2170 C   0  0  0  0  0  0  0  0  0  0  0  0
   35.9850   29.3030   34.5550 C   0  0  0  0  0  0  0  0  0  0  0  0
   35.7600   30.6390   34.9020 C   0  0  0  0  0  0  0  0  0  0  0  0
   35.6320   31.2510   36.0810 N   0  0  0  0  0  0  0  0  0  0  0  0
   35.4270   32.5530   35.8950 C   0  0  0  0  0  0  0  0  0  0  0  0
   35.4220   32.7910   34.5680 N   0  0  0  0  0  0  0  0  0  0  0  0
   35.6270   31.6110   33.9540 C   0  0  0  0  0  0  0  0  0  0  0  0
   35.7160   31.2730   32.6330 C   0  0  0  0  0  0  0  0  0  0  0  0
   35.9870   29.8420   31.1940 H   0  0  0  0  0  0  0  0  0  0  0  0
   36.0900   28.5300   35.2810 H   0  0  0  0  0  0  0  0  0  0  0  0
   35.6810   30.8060   37.0280 H   0  0  0  0  0  0  0  0  0  0  0  0
   35.2780   33.3760   36.5930 H   0  0  0  0  0  0  0  0  0  0  0  0
   35.6030   32.0900   31.9090 H   0  0  0  0  0  0  0  0  0  0  0  0
   36.7580   23.7990   30.9190 C   0  0  0  0  0  0  0  0  0  0  0  0
   35.9320   23.6100   30.2050 H   0  0  0  0  0  0  0  0  0  0  0  0
   37.7450   23.7840   30.4160 H   0  0  0  0  0  0  0  0  0  0  0  0
   36.7210   22.7080   31.9360 C   0  0  0  0  0  3  0  0  0  0  0  0
   35.2700   22.2470   32.0300 C   0  0  0  0  0  2  0  0  0  0  0  0
   35.2560   20.7760   31.7250 C   0  0  0  0  0  2  0  0  0  0  0  0
   36.4510   20.6010   30.8320 C   0  0  0  0  0  2  0  0  0  0  0  0
   37.4810   21.4720   31.5470 C   0  0  0  0  0  2  0  0  0  0  0  0
  1  2  1  0  0  0  0
  2 10  1  0  0  0  0
  2  3  2  0  0  0  0
  3  8  1  0  0  0  0
  4  3  1  0  0  0  0
  5  4  2  0  0  0  0
  6  1  2  0  0  0  0
  6  5  1  0  0  0  0
  7  1  1  0  0  0  0
  9 17  2  0  0  0  0
  9 10  1  0  0  0  0
 10 11  2  0  0  0  0
 11 12  1  0  0  0  0
 11 19  1  0  0  0  0
 12 13  1  0  0  0  0
 13 20  1  0  0  0  0
 14 13  1  0  0  0  0
 14 21  1  0  0  0  0
 15 14  2  0  0  0  0
 16 15  1  0  0  0  0
 16 12  2  0  0  0  0
 17 16  1  0  0  0  0
 18  9  1  0  0  0  0
 22 17  1  0  0  0  0
 23  5  1  0  0  0  0
 23 26  1  0  0  0  0
 24 23  1  0  0  0  0
 25 23  1  0  0  0  0
 26 27  1  0  0  0  0
 28 27  1  0  0  0  0
 29 30  1  0  0  0  0
 29 28  1  0  0  0  0
 30 26  1  0  0  0  0
M  END
>  <minimizedAffinity>
-5.24438047

$$$$
