
 OpenBabel03262523503D

 17 18  0  0  0  0  0  0  0  0999 V2000
   37.7310   26.3080   34.8330 C   0  0  0  0  0  0  0  0  0  0  0  0
   37.2190   27.5960   34.6600 C   0  0  0  0  0  0  0  0  0  0  0  0
   36.5800   27.9000   33.4530 C   0  0  0  0  0  0  0  0  0  0  0  0
   36.5000   26.9140   32.5210 N   0  0  0  0  0  0  0  0  0  0  0  0
   37.0020   25.6840   32.7130 C   0  0  0  0  0  0  0  0  0  0  0  0
   37.6150   25.3750   33.8600 N   0  0  0  0  0  0  0  0  0  0  0  0
   37.2920   28.3760   35.4200 H   0  0  0  0  0  0  0  0  0  0  0  0
   36.1790   28.8710   33.2880 H   0  0  0  0  0  0  0  0  0  0  0  0
   36.8730   24.9850   31.8900 H   0  0  0  0  0  0  0  0  0  0  0  0
   38.4080   25.9980   36.1220 C   0  0  0  0  0  0  0  0  0  0  0  0
   38.0020   26.7410   36.8400 H   0  0  0  0  0  0  0  0  0  0  0  0
   39.4840   26.1540   36.0500 H   0  0  0  0  0  0  0  0  0  0  0  0
   38.0720   24.5930   36.6220 C   0  0  0  0  0  3  0  0  0  0  0  0
   39.2650   23.6830   36.4210 C   0  0  0  0  0  2  0  0  0  0  0  0
   39.5530   23.0310   37.7390 C   0  0  0  0  0  2  0  0  0  0  0  0
   38.2400   23.1900   38.4790 C   0  0  0  0  0  2  0  0  0  0  0  0
   37.9040   24.6470   38.1410 C   0  0  0  0  0  2  0  0  0  0  0  0
  1 10  1  0  0  0  0
  2  1  1  0  0  0  0
  2  7  1  0  0  0  0
  3  2  2  0  0  0  0
  4  5  2  0  0  0  0
  4  3  1  0  0  0  0
  5  6  1  0  0  0  0
  6  1  2  0  0  0  0
  8  3  1  0  0  0  0
  9  5  1  0  0  0  0
 10 13  1  0  0  0  0
 10 11  1  0  0  0  0
 12 10  1  0  0  0  0
 13 17  1  0  0  0  0
 14 13  1  0  0  0  0
 14 15  1  0  0  0  0
 15 16  1  0  0  0  0
 17 16  1  0  0  0  0
M  END
>  <minimizedAffinity>
-3.98450017

$$$$

 OpenBabel03262523503D

 17 18  0  0  0  0  0  0  0  0999 V2000
   36.4730   23.7750   31.0630 C   0  0  0  0  0  0  0  0  0  0  0  0
   35.2900   24.5160   31.0950 C   0  0  0  0  0  0  0  0  0  0  0  0
   35.3810   25.9120   31.0940 C   0  0  0  0  0  0  0  0  0  0  0  0
   36.6250   26.4580   31.0610 N   0  0  0  0  0  0  0  0  0  0  0  0
   37.7460   25.7220   31.0300 C   0  0  0  0  0  0  0  0  0  0  0  0
   37.6780   24.3870   31.0310 N   0  0  0  0  0  0  0  0  0  0  0  0
   34.2980   24.0610   31.1210 H   0  0  0  0  0  0  0  0  0  0  0  0
   34.5000   26.5080   31.1180 H   0  0  0  0  0  0  0  0  0  0  0  0
   38.6800   26.2790   31.0060 H   0  0  0  0  0  0  0  0  0  0  0  0
   36.3600   22.2900   31.0650 C   0  0  0  0  0  0  0  0  0  0  0  0
   37.4050   21.9280   31.1590 H   0  0  0  0  0  0  0  0  0  0  0  0
   35.9610   21.9240   30.1200 H   0  0  0  0  0  0  0  0  0  0  0  0
   35.5500   21.7790   32.2570 C   0  0  0  0  0  3  0  0  0  0  0  0
   34.9050   20.4550   31.9040 C   0  0  0  0  0  2  0  0  0  0  0  0
   35.2770   19.4810   32.9790 C   0  0  0  0  0  2  0  0  0  0  0  0
   35.6690   20.3890   34.1270 C   0  0  0  0  0  2  0  0  0  0  0  0
   36.5200   21.4260   33.3850 C   0  0  0  0  0  2  0  0  0  0  0  0
  1 10  1  0  0  0  0
  1  2  1  0  0  0  0
  2  7  1  0  0  0  0
  3  2  2  0  0  0  0
  3  8  1  0  0  0  0
  4  3  1  0  0  0  0
  5  6  1  0  0  0  0
  5  4  2  0  0  0  0
  6  1  2  0  0  0  0
  9  5  1  0  0  0  0
 10 11  1  0  0  0  0
 10 13  1  0  0  0  0
 12 10  1  0  0  0  0
 13 17  1  0  0  0  0
 14 13  1  0  0  0  0
 14 15  1  0  0  0  0
 15 16  1  0  0  0  0
 17 16  1  0  0  0  0
M  END
>  <minimizedAffinity>
-3.90541172

$$$$

 OpenBabel03262523503D

 17 18  0  0  0  0  0  0  0  0999 V2000
   38.4710   24.6250   36.4400 C   0  0  0  0  0  0  0  0  0  0  0  0
   38.0110   24.3880   37.7370 C   0  0  0  0  0  0  0  0  0  0  0  0
   38.6590   23.4140   38.5040 C   0  0  0  0  0  0  0  0  0  0  0  0
   39.7020   22.7570   37.9300 N   0  0  0  0  0  0  0  0  0  0  0  0
   40.1220   23.0040   36.6810 C   0  0  0  0  0  0  0  0  0  0  0  0
   39.5160   23.9310   35.9340 N   0  0  0  0  0  0  0  0  0  0  0  0
   37.1720   24.9260   38.1830 H   0  0  0  0  0  0  0  0  0  0  0  0
   38.3350   23.2080   39.4960 H   0  0  0  0  0  0  0  0  0  0  0  0
   40.9670   22.4100   36.3380 H   0  0  0  0  0  0  0  0  0  0  0  0
   37.7710   25.6640   35.6350 C   0  0  0  0  0  0  0  0  0  0  0  0
   38.0010   26.6210   36.1490 H   0  0  0  0  0  0  0  0  0  0  0  0
   36.6920   25.5200   35.6590 H   0  0  0  0  0  0  0  0  0  0  0  0
   38.3010   25.7320   34.2030 C   0  0  0  0  0  3  0  0  0  0  0  0
   37.1620   26.0370   33.2530 C   0  0  0  0  0  2  0  0  0  0  0  0
   37.5760   27.2190   32.4300 C   0  0  0  0  0  2  0  0  0  0  0  0
   39.0840   27.2130   32.5780 C   0  0  0  0  0  2  0  0  0  0  0  0
   39.2160   26.9520   34.0830 C   0  0  0  0  0  2  0  0  0  0  0  0
  1  2  1  0  0  0  0
  2  7  1  0  0  0  0
  2  3  2  0  0  0  0
  3  8  1  0  0  0  0
  4  3  1  0  0  0  0
  5  4  2  0  0  0  0
  6  1  2  0  0  0  0
  6  5  1  0  0  0  0
  9  5  1  0  0  0  0
 10 12  1  0  0  0  0
 10 11  1  0  0  0  0
 10  1  1  0  0  0  0
 13 10  1  0  0  0  0
 14 13  1  0  0  0  0
 15 16  1  0  0  0  0
 15 14  1  0  0  0  0
 16 17  1  0  0  0  0
 17 13  1  0  0  0  0
M  END
>  <minimizedAffinity>
-3.75040936

$$$$

 OpenBabel03262523503D

 17 18  0  0  0  0  0  0  0  0999 V2000
   37.8990   24.9400   35.5260 C   0  0  0  0  0  0  0  0  0  0  0  0
   38.0610   24.7780   36.9030 C   0  0  0  0  0  0  0  0  0  0  0  0
   38.5620   23.5590   37.3740 C   0  0  0  0  0  0  0  0  0  0  0  0
   38.8600   22.6070   36.4510 N   0  0  0  0  0  0  0  0  0  0  0  0
   38.6940   22.7900   35.1320 C   0  0  0  0  0  0  0  0  0  0  0  0
   38.2170   23.9470   34.6650 N   0  0  0  0  0  0  0  0  0  0  0  0
   37.8170   25.5540   37.6310 H   0  0  0  0  0  0  0  0  0  0  0  0
   38.6980   23.4010   38.4170 H   0  0  0  0  0  0  0  0  0  0  0  0
   38.9700   21.9500   34.4980 H   0  0  0  0  0  0  0  0  0  0  0  0
   37.3650   26.2420   35.0400 C   0  0  0  0  0  0  0  0  0  0  0  0
   36.9240   26.7200   35.9390 H   0  0  0  0  0  0  0  0  0  0  0  0
   36.5680   26.0940   34.3120 H   0  0  0  0  0  0  0  0  0  0  0  0
   38.4700   27.1460   34.4920 C   0  0  0  0  0  3  0  0  0  0  0  0
   39.7430   26.9310   35.2840 C   0  0  0  0  0  2  0  0  0  0  0  0
   40.8330   26.6360   34.3000 C   0  0  0  0  0  2  0  0  0  0  0  0
   40.2700   27.1910   33.0070 C   0  0  0  0  0  2  0  0  0  0  0  0
   38.8300   26.6700   33.0840 C   0  0  0  0  0  2  0  0  0  0  0  0
  1  2  1  0  0  0  0
  2  3  2  0  0  0  0
  2  7  1  0  0  0  0
  3  8  1  0  0  0  0
  4  3  1  0  0  0  0
  5  4  2  0  0  0  0
  6  5  1  0  0  0  0
  6  1  2  0  0  0  0
  9  5  1  0  0  0  0
 10  1  1  0  0  0  0
 10 11  1  0  0  0  0
 12 10  1  0  0  0  0
 13 10  1  0  0  0  0
 13 14  1  0  0  0  0
 15 14  1  0  0  0  0
 16 17  1  0  0  0  0
 16 15  1  0  0  0  0
 17 13  1  0  0  0  0
M  END
>  <minimizedAffinity>
-3.62516212

$$$$

 OpenBabel03262523503D

 17 18  0  0  0  0  0  0  0  0999 V2000
   38.1030   27.0320   34.5970 C   0  0  0  0  0  0  0  0  0  0  0  0
   38.6980   26.9570   33.3360 C   0  0  0  0  0  0  0  0  0  0  0  0
   38.0410   27.5560   32.2550 C   0  0  0  0  0  0  0  0  0  0  0  0
   36.8580   28.1770   32.5080 N   0  0  0  0  0  0  0  0  0  0  0  0
   36.3090   28.2330   33.7300 C   0  0  0  0  0  0  0  0  0  0  0  0
   36.9220   27.6660   34.7740 N   0  0  0  0  0  0  0  0  0  0  0  0
   39.6490   26.4550   33.1510 H   0  0  0  0  0  0  0  0  0  0  0  0
   38.4660   27.5190   31.2810 H   0  0  0  0  0  0  0  0  0  0  0  0
   35.3590   28.7590   33.8000 H   0  0  0  0  0  0  0  0  0  0  0  0
   38.8130   26.3890   35.7370 C   0  0  0  0  0  0  0  0  0  0  0  0
   38.5950   27.0400   36.6090 H   0  0  0  0  0  0  0  0  0  0  0  0
   39.8900   26.3870   35.5790 H   0  0  0  0  0  0  0  0  0  0  0  0
   38.2810   24.9840   36.0240 C   0  0  0  0  0  3  0  0  0  0  0  0
   39.4050   23.9780   35.8910 C   0  0  0  0  0  2  0  0  0  0  0  0
   39.4310   23.1730   37.1540 C   0  0  0  0  0  2  0  0  0  0  0  0
   38.0410   23.3960   37.7160 C   0  0  0  0  0  2  0  0  0  0  0  0
   37.8910   24.9070   37.5000 C   0  0  0  0  0  2  0  0  0  0  0  0
  1  6  1  0  0  0  0
  1 10  1  0  0  0  0
  2  1  2  0  0  0  0
  3  4  2  0  0  0  0
  3  2  1  0  0  0  0
  4  5  1  0  0  0  0
  5  9  1  0  0  0  0
  5  6  2  0  0  0  0
  7  2  1  0  0  0  0
  8  3  1  0  0  0  0
 10 13  1  0  0  0  0
 10 11  1  0  0  0  0
 12 10  1  0  0  0  0
 13 17  1  0  0  0  0
 14 13  1  0  0  0  0
 14 15  1  0  0  0  0
 15 16  1  0  0  0  0
 17 16  1  0  0  0  0
M  END
>  <minimizedAffinity>
-3.59228945

$$$$

 OpenBabel03262523503D

 17 18  0  0  0  0  0  0  0  0999 V2000
   37.9050   22.6440   34.7280 C   0  0  0  0  0  0  0  0  0  0  0  0
   38.2170   23.9640   34.3960 C   0  0  0  0  0  0  0  0  0  0  0  0
   38.2530   24.9170   35.4200 C   0  0  0  0  0  0  0  0  0  0  0  0
   37.9780   24.4900   36.6810 N   0  0  0  0  0  0  0  0  0  0  0  0
   37.6800   23.2140   36.9720 C   0  0  0  0  0  0  0  0  0  0  0  0
   37.6420   22.2910   36.0070 N   0  0  0  0  0  0  0  0  0  0  0  0
   38.4360   24.2900   33.3770 H   0  0  0  0  0  0  0  0  0  0  0  0
   38.4880   25.9310   35.2030 H   0  0  0  0  0  0  0  0  0  0  0  0
   37.4800   23.0000   38.0200 H   0  0  0  0  0  0  0  0  0  0  0  0
   37.8700   21.6420   33.6270 C   0  0  0  0  0  0  0  0  0  0  0  0
   37.9610   20.6610   34.1360 H   0  0  0  0  0  0  0  0  0  0  0  0
   38.7260   21.7580   32.9630 H   0  0  0  0  0  0  0  0  0  0  0  0
   36.5490   21.6810   32.8590 C   0  0  0  0  0  3  0  0  0  0  0  0
   36.7800   21.2520   31.4250 C   0  0  0  0  0  2  0  0  0  0  0  0
   35.8030   20.1570   31.1270 C   0  0  0  0  0  2  0  0  0  0  0  0
   34.7450   20.3590   32.1930 C   0  0  0  0  0  2  0  0  0  0  0  0
   35.6290   20.5970   33.4230 C   0  0  0  0  0  2  0  0  0  0  0  0
  1  6  1  0  0  0  0
  2  1  2  0  0  0  0
  2  3  1  0  0  0  0
  3  4  2  0  0  0  0
  4  5  1  0  0  0  0
  5  9  1  0  0  0  0
  6  5  2  0  0  0  0
  7  2  1  0  0  0  0
  8  3  1  0  0  0  0
 10 11  1  0  0  0  0
 10  1  1  0  0  0  0
 12 10  1  0  0  0  0
 13 17  1  0  0  0  0
 13 10  1  0  0  0  0
 14 13  1  0  0  0  0
 15 14  1  0  0  0  0
 15 16  1  0  0  0  0
 16 17  1  0  0  0  0
M  END
>  <minimizedAffinity>
-3.58228731

$$$$

 OpenBabel03262523503D

 17 18  0  0  0  0  0  0  0  0999 V2000
   35.8070   29.1330   33.2270 C   0  0  0  0  0  0  0  0  0  0  0  0
   35.6060   30.0070   32.1570 C   0  0  0  0  0  0  0  0  0  0  0  0
   36.3600   29.8180   30.9940 C   0  0  0  0  0  0  0  0  0  0  0  0
   37.2460   28.7870   30.9830 N   0  0  0  0  0  0  0  0  0  0  0  0
   37.4190   27.9610   32.0270 C   0  0  0  0  0  0  0  0  0  0  0  0
   36.7070   28.1270   33.1460 N   0  0  0  0  0  0  0  0  0  0  0  0
   34.8890   30.8300   32.1820 H   0  0  0  0  0  0  0  0  0  0  0  0
   36.2320   30.4650   30.1600 H   0  0  0  0  0  0  0  0  0  0  0  0
   38.1590   27.1750   31.8930 H   0  0  0  0  0  0  0  0  0  0  0  0
   34.9970   29.3470   34.4580 C   0  0  0  0  0  0  0  0  0  0  0  0
   35.5670   28.8390   35.2630 H   0  0  0  0  0  0  0  0  0  0  0  0
   34.0240   28.8630   34.3790 H   0  0  0  0  0  0  0  0  0  0  0  0
   34.8640   30.8300   34.8060 C   0  0  0  0  0  3  0  0  0  0  0  0
   33.6280   31.0460   35.6520 C   0  0  0  0  0  2  0  0  0  0  0  0
   34.0540   31.7940   36.8780 C   0  0  0  0  0  2  0  0  0  0  0  0
   35.3710   32.4080   36.4480 C   0  0  0  0  0  2  0  0  0  0  0  0
   36.0170   31.2140   35.7340 C   0  0  0  0  0  2  0  0  0  0  0  0
  1 10  1  0  0  0  0
  2  7  1  0  0  0  0
  2  1  2  0  0  0  0
  3  2  1  0  0  0  0
  4  3  2  0  0  0  0
  4  5  1  0  0  0  0
  5  6  2  0  0  0  0
  6  1  1  0  0  0  0
  8  3  1  0  0  0  0
  9  5  1  0  0  0  0
 10 13  1  0  0  0  0
 10 11  1  0  0  0  0
 12 10  1  0  0  0  0
 13 14  1  0  0  0  0
 13 17  1  0  0  0  0
 14 15  1  0  0  0  0
 16 15  1  0  0  0  0
 17 16  1  0  0  0  0
M  END
>  <minimizedAffinity>
-3.58101463

$$$$

 OpenBabel03262523503D

 17 18  0  0  0  0  0  0  0  0999 V2000
   38.9850   25.6090   35.5030 C   0  0  0  0  0  0  0  0  0  0  0  0
   38.0610   25.0630   36.3960 C   0  0  0  0  0  0  0  0  0  0  0  0
   38.3310   23.8050   36.9450 C   0  0  0  0  0  0  0  0  0  0  0  0
   39.4850   23.1920   36.5690 N   0  0  0  0  0  0  0  0  0  0  0  0
   40.3560   23.7400   35.7070 C   0  0  0  0  0  0  0  0  0  0  0  0
   40.1140   24.9410   35.1730 N   0  0  0  0  0  0  0  0  0  0  0  0
   37.1390   25.5690   36.6890 H   0  0  0  0  0  0  0  0  0  0  0  0
   37.6490   23.3600   37.6290 H   0  0  0  0  0  0  0  0  0  0  0  0
   41.2420   23.1490   35.4870 H   0  0  0  0  0  0  0  0  0  0  0  0
   38.6840   26.9490   34.9270 C   0  0  0  0  0  0  0  0  0  0  0  0
   39.5650   27.1900   34.2970 H   0  0  0  0  0  0  0  0  0  0  0  0
   38.6120   27.7060   35.7080 H   0  0  0  0  0  0  0  0  0  0  0  0
   37.4360   26.9250   34.0450 C   0  0  0  0  0  3  0  0  0  0  0  0
   36.4780   28.0110   34.4880 C   0  0  0  0  0  2  0  0  0  0  0  0
   36.1350   28.8220   33.2760 C   0  0  0  0  0  2  0  0  0  0  0  0
   36.4860   27.8820   32.1410 C   0  0  0  0  0  2  0  0  0  0  0  0
   37.8360   27.3440   32.6300 C   0  0  0  0  0  2  0  0  0  0  0  0
  1  2  1  0  0  0  0
  2  7  1  0  0  0  0
  2  3  2  0  0  0  0
  3  8  1  0  0  0  0
  4  3  1  0  0  0  0
  5  4  2  0  0  0  0
  6  1  2  0  0  0  0
  6  5  1  0  0  0  0
  9  5  1  0  0  0  0
 10  1  1  0  0  0  0
 10 12  1  0  0  0  0
 11 10  1  0  0  0  0
 13 14  1  0  0  0  0
 13 10  1  0  0  0  0
 15 14  1  0  0  0  0
 16 17  1  0  0  0  0
 16 15  1  0  0  0  0
 17 13  1  0  0  0  0
M  END
>  <minimizedAffinity>
-3.5722537

$$$$

 OpenBabel03262523503D

 17 18  0  0  0  0  0  0  0  0999 V2000
   38.8500   24.7340   34.8050 C   0  0  0  0  0  0  0  0  0  0  0  0
   38.0200   25.8570   34.8210 C   0  0  0  0  0  0  0  0  0  0  0  0
   38.6130   27.1230   34.7740 C   0  0  0  0  0  0  0  0  0  0  0  0
   39.9700   27.1760   34.7160 N   0  0  0  0  0  0  0  0  0  0  0  0
   40.7450   26.0810   34.7030 C   0  0  0  0  0  0  0  0  0  0  0  0
   40.1950   24.8640   34.7470 N   0  0  0  0  0  0  0  0  0  0  0  0
   36.9310   25.7960   34.8660 H   0  0  0  0  0  0  0  0  0  0  0  0
   38.0100   27.9990   34.7830 H   0  0  0  0  0  0  0  0  0  0  0  0
   41.8170   26.2580   34.6560 H   0  0  0  0  0  0  0  0  0  0  0  0
   38.2040   23.3940   34.8560 C   0  0  0  0  0  0  0  0  0  0  0  0
   38.8030   22.7660   34.1640 H   0  0  0  0  0  0  0  0  0  0  0  0
   37.1840   23.4340   34.4770 H   0  0  0  0  0  0  0  0  0  0  0  0
   38.2640   22.7820   36.2560 C   0  0  0  0  0  3  0  0  0  0  0  0
   39.6400   22.1950   36.4960 C   0  0  0  0  0  2  0  0  0  0  0  0
   40.1490   22.7710   37.7820 C   0  0  0  0  0  2  0  0  0  0  0  0
   38.8770   23.2390   38.4600 C   0  0  0  0  0  2  0  0  0  0  0  0
   38.1630   23.9110   37.2820 C   0  0  0  0  0  2  0  0  0  0  0  0
  1  2  1  0  0  0  0
  1 10  1  0  0  0  0
  2  7  1  0  0  0  0
  3  8  1  0  0  0  0
  3  2  2  0  0  0  0
  4  3  1  0  0  0  0
  5  4  2  0  0  0  0
  5  6  1  0  0  0  0
  6  1  2  0  0  0  0
  9  5  1  0  0  0  0
 10 13  1  0  0  0  0
 11 10  1  0  0  0  0
 12 10  1  0  0  0  0
 13 14  1  0  0  0  0
 13 17  1  0  0  0  0
 14 15  1  0  0  0  0
 15 16  1  0  0  0  0
 17 16  1  0  0  0  0
M  END
>  <minimizedAffinity>
-3.55895925

$$$$
