
     RDKit          3D

 39 41  0  0  0  0  0  0  0  0999 V2000
   35.9746   29.6399   48.8616 N   0  0  0  0  0  0  0  0  0  0  0  0
   36.5690   28.8611   49.9278 C   0  0  0  0  0  0  0  0  0  0  0  0
   37.0441   29.5748   51.1143 C   0  0  0  0  0  0  0  0  0  0  0  0
   37.4230   30.9855   50.9841 C   0  0  0  0  0  0  0  0  0  0  0  0
   36.8155   31.6856   49.7937 C   0  0  0  0  0  0  0  0  0  0  0  0
   36.8415   30.7521   48.5793 C   0  0  1  0  0  0  0  0  0  0  0  0
   34.7351   29.3319   48.2172 C   0  0  0  0  0  0  0  0  0  0  0  0
   34.2463   30.0045   47.1012 C   0  0  0  0  0  0  0  0  0  0  0  0
   33.0324   29.6146   46.5653 C   0  0  0  0  0  0  0  0  0  0  0  0
   32.3729   28.5825   47.1642 N   0  0  0  0  0  0  0  0  0  0  0  0
   32.8791   27.9537   48.2465 C   0  0  0  0  0  0  0  0  0  0  0  0
   34.0543   28.3344   48.7619 N   0  0  0  0  0  0  0  0  0  0  0  0
   38.1821   30.3355   48.4690 O   0  0  0  0  0  0  0  0  0  0  0  0
   37.4274   28.3160   49.4393 H   0  0  0  0  0  0  0  0  0  0  0  0
   35.8356   28.0693   50.1963 H   0  0  0  0  0  0  0  0  0  0  0  0
   36.2560   29.4766   51.9103 H   0  0  0  0  0  0  0  0  0  0  0  0
   37.9161   29.0158   51.5414 H   0  0  0  0  0  0  0  0  0  0  0  0
   37.0875   31.5723   51.8895 H   0  0  0  0  0  0  0  0  0  0  0  0
   38.5333   31.1193   50.9706 H   0  0  0  0  0  0  0  0  0  0  0  0
   37.4086   32.5947   49.5354 H   0  0  0  0  0  0  0  0  0  0  0  0
   35.7646   31.9459   49.9888 H   0  0  0  0  0  0  0  0  0  0  0  0
   36.5146   31.3187   47.7045 H   0  0  0  0  0  0  0  0  0  0  0  0
   34.8276   30.7996   46.6974 H   0  0  0  0  0  0  0  0  0  0  0  0
   32.6470   30.1335   45.6977 H   0  0  0  0  0  0  0  0  0  0  0  0
   32.3118   27.1408   48.6804 H   0  0  0  0  0  0  0  0  0  0  0  0
   38.6522   30.7927   47.2605 C   0  0  0  0  0  0  0  0  0  0  0  0
   39.6745   29.8629   46.6258 C   0  0  0  0  0  0  0  0  0  0  0  0
   39.7486   30.4236   45.2087 C   0  0  0  0  0  0  0  0  0  0  0  0
   38.4629   31.1464   44.9605 C   0  0  0  0  0  0  0  0  0  0  0  0
   37.6154   30.8424   46.1827 C   0  0  0  0  0  0  0  0  0  0  0  0
   39.0979   31.7989   47.3572 H   0  0  0  0  0  0  0  0  0  0  0  0
   40.6183   29.9394   47.1747 H   0  0  0  0  0  0  0  0  0  0  0  0
   39.2499   28.8397   46.6030 H   0  0  0  0  0  0  0  0  0  0  0  0
   39.9657   29.6474   44.4669 H   0  0  0  0  0  0  0  0  0  0  0  0
   40.6226   31.1351   45.2351 H   0  0  0  0  0  0  0  0  0  0  0  0
   38.6749   32.2472   44.9892 H   0  0  0  0  0  0  0  0  0  0  0  0
   37.9538   30.8514   44.0233 H   0  0  0  0  0  0  0  0  0  0  0  0
   36.8999   31.6792   46.2970 H   0  0  0  0  0  0  0  0  0  0  0  0
   37.1233   29.8719   45.9983 H   0  0  0  0  0  0  0  0  0  0  0  0
  1  2  1  0
  2  3  1  0
  4  3  1  0
  5  4  1  0
  6  1  1  0
  6  5  1  0
  7 12  1  0
  7  1  1  0
  8  7  2  0
  9  8  1  0
  9 10  2  0
 10 11  1  0
 11 12  2  0
 13  6  1  0
  2 14  1  0
  2 15  1  0
  3 16  1  0
  3 17  1  0
  4 18  1  0
  4 19  1  0
  5 20  1  0
  5 21  1  0
  6 22  1  6
  8 23  1  0
  9 24  1  0
 11 25  1  0
 26 27  1  0
 27 28  1  0
 28 29  1  0
 29 30  1  0
 30 26  1  0
 26 31  1  0
 27 32  1  0
 27 33  1  0
 28 34  1  0
 28 35  1  0
 29 36  1  0
 29 37  1  0
 30 38  1  0
 30 39  1  0
 13 26  1  0
M  ISO  8  14  13  15  13  16  13  17  13  18  13  19  13  20  13  21  13
M  ISO  4  22  13  23  14  24  14  25  14
M  END
>  <DihAtoms>  (1) 
5,12,25,26

>  <DihDeg>  (1) 
122.92070111152344

$$$$
