REMARK  Name = 
REMARK  3 active torsions:
REMARK  status: ('A' for Active; 'I' for Inactive)
REMARK    1  A    between atoms: N_1  and  C_6
REMARK    2  A    between atoms: C_4  and  C_14
REMARK    3  A    between atoms: C_18  and  C_32
REMARK                            x       y       z     vdW  Elec       q    Type
REMARK                         _______ _______ _______ _____ _____    ______ ____
ROOT
ATOM      1  N   UNL     1      33.548  29.873  46.499  0.00  0.00    +0.000 N 
ATOM      2  C   UNL     1      34.780  29.786  45.729  0.00  0.00    +0.000 C 
ATOM      3  C   UNL     1      35.838  30.105  46.744  0.00  0.00    +0.000 C 
ATOM      4  C   UNL     1      35.037  30.547  48.049  0.00  0.00    +0.000 C 
ATOM      5  C   UNL     1      33.867  29.672  47.930  0.00  0.00    +0.000 C 
ATOM      6  H   UNL     1      34.799  30.599  44.981  0.00  0.00    +0.000 HD
ATOM      7  H   UNL     1      34.963  28.797  45.291  0.00  0.00    +0.000 HD
ATOM      8  H   UNL     1      36.409  29.234  47.093  0.00  0.00    +0.000 HD
ATOM      9  H   UNL     1      36.496  30.937  46.509  0.00  0.00    +0.000 HD
ATOM     10  H   UNL     1      34.886  31.606  47.807  0.00  0.00    +0.000 HD
ATOM     11  H   UNL     1      34.180  28.606  48.070  0.00  0.00    +0.000 HD
ATOM     12  H   UNL     1      33.002  29.928  48.546  0.00  0.00    +0.000 HD
ENDROOT
BRANCH   4  15
ATOM     13  F   UNL     1      37.366  32.100  48.475  0.00  0.00    +0.000 F 
ATOM     14  C   UNL     1      36.976  31.152  49.343  0.00  0.00    +0.000 A 
ATOM     15  C   UNL     1      35.898  30.317  49.209  0.00  0.00    +0.000 A 
ATOM     16  C   UNL     1      35.654  29.390  50.235  0.00  0.00    +0.000 A 
ATOM     17  C   UNL     1      36.450  29.299  51.350  0.00  0.00    +0.000 A 
ATOM     18  C   UNL     1      37.544  30.169  51.453  0.00  0.00    +0.000 A 
ATOM     19  C   UNL     1      37.806  31.107  50.429  0.00  0.00    +0.000 A 
ATOM     20  H   UNL     1      34.787  28.774  50.043  0.00  0.00    +0.000 HD
ATOM     21  H   UNL     1      36.206  28.575  52.089  0.00  0.00    +0.000 HD
ATOM     22  H   UNL     1      38.097  30.012  52.359  0.00  0.00    +0.000 HD
BRANCH  19  23
ATOM     23  C   UNL     1      38.962  31.968  50.673  0.00  0.00    +0.000 A 
ATOM     24  C   UNL     1      39.972  31.505  51.657  0.00  0.00    +0.000 A 
ATOM     25  H   UNL     1      40.155  30.740  52.264  0.00  0.00    +0.000 HD
ATOM     26  S   UNL     1      41.174  32.787  51.693  0.00  0.00    +0.000 S 
ATOM     27  C   UNL     1      40.221  33.815  50.400  0.00  0.00    +0.000 A 
ATOM     28  H   UNL     1      40.152  34.875  49.697  0.00  0.00    +0.000 HD
ATOM     29  N   UNL     1      39.052  33.117  50.025  0.00  0.00    +0.000 NA
ENDBRANCH  19  23
ENDBRANCH   4  15
BRANCH   1  30
ATOM     30  C   UNL     1      32.252  30.114  46.011  0.00  0.00    +0.000 A 
ATOM     31  C   UNL     1      32.111  31.243  45.190  0.00  0.00    +0.000 A 
ATOM     32  C   UNL     1      30.845  31.553  44.666  0.00  0.00    +0.000 A 
ATOM     33  N   UNL     1      29.813  30.700  45.010  0.00  0.00    +0.000 NA
ATOM     34  C   UNL     1      29.995  29.625  45.803  0.00  0.00    +0.000 A 
ATOM     35  N   UNL     1      31.213  29.345  46.294  0.00  0.00    +0.000 NA
ATOM     36  H   UNL     1      32.876  31.921  44.904  0.00  0.00    +0.000 HD
ATOM     37  H   UNL     1      30.690  32.408  44.033  0.00  0.00    +0.000 HD
ATOM     38  H   UNL     1      29.168  28.989  46.045  0.00  0.00    +0.000 HD
ENDBRANCH   1  30
TORSDOF 3
