REMARK  Name = 
REMARK  2 active torsions:
REMARK  status: ('A' for Active; 'I' for Inactive)
REMARK    1  A    between atoms: C_5  and  S_7
REMARK    2  A    between atoms: S_7  and  C_11
REMARK                            x       y       z     vdW  Elec       q    Type
REMARK                         _______ _______ _______ _____ _____    ______ ____
ROOT
ATOM      1  C   UNL     1      37.264  30.178  51.412  0.00  0.00    +0.000 A 
ATOM      2  C   UNL     1      38.125  30.764  50.466  0.00  0.00    +0.000 A 
ATOM      3  C   UNL     1      37.846  30.549  49.114  0.00  0.00    +0.000 A 
ATOM      4  N   UNL     1      36.764  29.789  48.791  0.00  0.00    +0.000 NA
ATOM      5  C   UNL     1      35.961  29.243  49.730  0.00  0.00    +0.000 A 
ATOM      6  N   UNL     1      36.196  29.427  51.032  0.00  0.00    +0.000 NA
ATOM      7  H   UNL     1      37.432  30.312  52.484  0.00  0.00    +0.000 HD
ATOM      8  H   UNL     1      38.948  31.344  50.809  0.00  0.00    +0.000 HD
ATOM      9  H   UNL     1      38.495  30.990  48.364  0.00  0.00    +0.000 HD
ENDROOT
BRANCH   5  10
ATOM     10  S   UNL     1      34.545  28.249  49.290  0.00  0.00    +0.000 S 
BRANCH  10  11
ATOM     11  C   UNL     1      34.404  28.123  47.492  0.00  0.00    +0.000 A 
ATOM     12  C   UNL     1      33.516  27.081  47.015  0.00  0.00    +0.000 A 
ATOM     13  H   UNL     1      32.931  26.377  47.523  0.00  0.00    +0.000 HD
ATOM     14  S   UNL     1      33.707  27.349  45.149  0.00  0.00    +0.000 S 
ATOM     15  C   UNL     1      34.922  28.782  45.418  0.00  0.00    +0.000 A 
ATOM     16  H   UNL     1      35.372  29.334  44.605  0.00  0.00    +0.000 HD
ATOM     17  N   UNL     1      35.020  28.872  46.601  0.00  0.00    +0.000 NA
ENDBRANCH  10  11
ENDBRANCH   5  10
TORSDOF 2
