REMARK  Name = 
REMARK  6 active torsions:
REMARK  status: ('A' for Active; 'I' for Inactive)
REMARK    1  A    between atoms: C_3  and  C_9
REMARK    2  A    between atoms: C_5  and  O_14
REMARK    3  A    between atoms: O_14  and  C_15
REMARK    4  A    between atoms: C_15  and  C_16
REMARK    5  A    between atoms: C_16  and  C_17
REMARK    6  A    between atoms: C_21  and  C_35
REMARK                            x       y       z     vdW  Elec       q    Type
REMARK                         _______ _______ _______ _____ _____    ______ ____
ROOT
ATOM      1  C   UNL     1      34.456  28.652  48.155  0.00  0.00    +0.000 C 
ATOM      2  H   UNL     1      35.341  28.711  47.483  0.00  0.00    +0.000 HD
ATOM      3  H   UNL     1      33.970  29.647  48.147  0.00  0.00    +0.000 HD
ENDROOT
BRANCH   1   4
ATOM      4  C   UNL     1      33.562  27.543  47.708  0.00  0.00    +0.000 C 
ATOM      5  H   UNL     1      33.711  26.619  48.281  0.00  0.00    +0.000 HD
ATOM      6  H   UNL     1      33.804  27.278  46.638  0.00  0.00    +0.000 HD
BRANCH   4   7
ATOM      7  C   UNL     1      32.130  27.909  47.695  0.00  0.00    +0.000 A 
ATOM      8  C   UNL     1      31.352  27.520  48.774  0.00  0.00    +0.000 A 
ATOM      9  C   UNL     1      30.020  27.798  48.877  0.00  0.00    +0.000 A 
ATOM     10  N   UNL     1      29.440  28.478  47.889  0.00  0.00    +0.000 NA
ATOM     11  C   UNL     1      30.191  28.864  46.827  0.00  0.00    +0.000 A 
ATOM     12  N   UNL     1      31.517  28.597  46.705  0.00  0.00    +0.000 NA
ATOM     13  H   UNL     1      31.820  26.962  49.590  0.00  0.00    +0.000 HD
ATOM     14  H   UNL     1      29.437  27.481  49.733  0.00  0.00    +0.000 HD
BRANCH  11  15
ATOM     15  C   UNL     1      29.530  29.617  45.739  0.00  0.00    +0.000 A 
ATOM     16  C   UNL     1      30.055  30.845  45.144  0.00  0.00    +0.000 A 
ATOM     17  H   UNL     1      30.957  31.222  45.506  0.00  0.00    +0.000 HD
ATOM     18  S   UNL     1      28.654  31.126  43.891  0.00  0.00    +0.000 S 
ATOM     19  C   UNL     1      27.722  29.582  44.440  0.00  0.00    +0.000 A 
ATOM     20  H   UNL     1      26.788  29.378  43.918  0.00  0.00    +0.000 HD
ATOM     21  N   UNL     1      28.391  29.076  45.336  0.00  0.00    +0.000 NA
ENDBRANCH  11  15
ENDBRANCH   4   7
ENDBRANCH   1   4
BRANCH   1  22
ATOM     22  O   UNL     1      35.003  28.364  49.443  0.00  0.00    +0.000 OA
BRANCH  22  27
ATOM     23  C   UNL     1      37.334  30.180  51.516  0.00  0.00    +0.000 A 
ATOM     24  C   UNL     1      38.067  30.864  50.521  0.00  0.00    +0.000 A 
ATOM     25  C   UNL     1      37.711  30.655  49.192  0.00  0.00    +0.000 A 
ATOM     26  N   UNL     1      36.666  29.792  48.981  0.00  0.00    +0.000 NA
ATOM     27  C   UNL     1      35.986  29.157  49.931  0.00  0.00    +0.000 A 
ATOM     28  N   UNL     1      36.334  29.361  51.208  0.00  0.00    +0.000 NA
ATOM     29  H   UNL     1      37.651  30.378  52.522  0.00  0.00    +0.000 HD
ATOM     30  H   UNL     1      38.884  31.537  50.710  0.00  0.00    +0.000 HD
BRANCH  25  33
ATOM     31  F   UNL     1      38.939  33.262  48.999  0.00  0.00    +0.000 F 
ATOM     32  C   UNL     1      38.918  32.478  47.936  0.00  0.00    +0.000 A 
ATOM     33  C   UNL     1      38.335  31.257  48.051  0.00  0.00    +0.000 A 
ATOM     34  C   UNL     1      38.369  30.512  46.867  0.00  0.00    +0.000 A 
ATOM     35  C   UNL     1      38.942  30.985  45.706  0.00  0.00    +0.000 A 
ATOM     36  C   UNL     1      39.519  32.231  45.647  0.00  0.00    +0.000 A 
ATOM     37  C   UNL     1      39.496  32.974  46.790  0.00  0.00    +0.000 A 
ATOM     38  H   UNL     1      37.932  29.514  46.834  0.00  0.00    +0.000 HD
ATOM     39  H   UNL     1      38.936  30.354  44.816  0.00  0.00    +0.000 HD
ATOM     40  H   UNL     1      39.944  32.535  44.716  0.00  0.00    +0.000 HD
ATOM     41  H   UNL     1      39.946  33.957  46.762  0.00  0.00    +0.000 HD
ENDBRANCH  25  33
ENDBRANCH  22  27
ENDBRANCH   1  22
TORSDOF 6
