REMARK  Name = 
REMARK  4 active torsions:
REMARK  status: ('A' for Active; 'I' for Inactive)
REMARK    1  A    between atoms: O_1  and  C_2
REMARK    2  A    between atoms: O_1  and  C_13
REMARK    3  A    between atoms: N_16  and  C_17
REMARK    4  A    between atoms: C_17  and  C_29
REMARK                            x       y       z     vdW  Elec       q    Type
REMARK                         _______ _______ _______ _____ _____    ______ ____
ROOT
ATOM      1  O   UNL     1      35.484  28.673  50.053  0.00  0.00    +0.000 OA
ATOM      2  C   UNL     1      35.263  29.048  48.895  0.00  0.00    +0.000 C 
ATOM      3  C   UNL     1      35.920  30.208  48.333  0.00  0.00    +0.000 C 
ATOM      4  C   UNL     1      35.457  30.122  46.843  0.00  0.00    +0.000 C 
ATOM      5  C   UNL     1      34.163  29.378  46.928  0.00  0.00    +0.000 C 
ATOM      6  N   UNL     1      34.353  28.400  47.982  0.00  0.00    +0.000 N 
ATOM      7  H   UNL     1      35.566  31.148  48.750  0.00  0.00    +0.000 HD
ATOM      8  H   UNL     1      36.215  29.645  46.224  0.00  0.00    +0.000 HD
ATOM      9  H   UNL     1      35.255  31.166  46.550  0.00  0.00    +0.000 HD
ATOM     10  H   UNL     1      34.050  28.800  45.977  0.00  0.00    +0.000 HD
ATOM     11  H   UNL     1      33.302  30.009  47.142  0.00  0.00    +0.000 HD
ENDROOT
BRANCH   6  12
ATOM     12  C   UNL     1      33.758  27.091  48.063  0.00  0.00    +0.000 C 
ATOM     13  H   UNL     1      33.651  26.843  49.154  0.00  0.00    +0.000 HD
ATOM     14  H   UNL     1      32.740  27.146  47.679  0.00  0.00    +0.000 HD
BRANCH  12  15
ATOM     15  C   UNL     1      34.602  26.035  47.397  0.00  0.00    +0.000 A 
ATOM     16  C   UNL     1      34.134  24.648  47.381  0.00  0.00    +0.000 A 
ATOM     17  H   UNL     1      33.290  24.330  47.776  0.00  0.00    +0.000 HD
ATOM     18  S   UNL     1      35.499  23.849  46.485  0.00  0.00    +0.000 S 
ATOM     19  C   UNL     1      36.462  25.475  46.280  0.00  0.00    +0.000 A 
ATOM     20  H   UNL     1      37.465  25.788  45.797  0.00  0.00    +0.000 HD
ATOM     21  N   UNL     1      35.748  26.471  46.860  0.00  0.00    +0.000 NA
ENDBRANCH  12  15
ENDBRANCH   6  12
BRANCH   3  22
ATOM     22  O   UNL     1      37.342  30.119  48.297  0.00  0.00    +0.000 OA
BRANCH  22  23
ATOM     23  C   UNL     1      38.063  31.308  48.224  0.00  0.00    +0.000 A 
ATOM     24  C   UNL     1      38.215  32.017  49.401  0.00  0.00    +0.000 A 
ATOM     25  C   UNL     1      38.928  33.205  49.360  0.00  0.00    +0.000 A 
ATOM     26  N   UNL     1      39.445  33.621  48.170  0.00  0.00    +0.000 NA
ATOM     27  C   UNL     1      39.287  32.920  47.037  0.00  0.00    +0.000 A 
ATOM     28  N   UNL     1      38.604  31.784  47.082  0.00  0.00    +0.000 NA
ATOM     29  C   UNL     1      40.764  32.469  45.239  0.00  0.00    +0.000 C 
ATOM     30  O   UNL     1      41.128  31.341  45.687  0.00  0.00    +0.000 OA
ATOM     31  N   UNL     1      39.839  33.388  45.810  0.00  0.00    +0.000 N 
ATOM     32  H   UNL     1      37.793  31.661  50.331  0.00  0.00    +0.000 HD
ATOM     33  H   UNL     1      39.043  33.751  50.276  0.00  0.00    +0.000 HD
ATOM     34  H   UNL     1      41.278  32.661  44.306  0.00  0.00    +0.000 HD
ATOM     35  H   UNL     1      39.699  34.244  45.268  0.00  0.00    +0.000 HD
ENDBRANCH  22  23
ENDBRANCH   3  22
TORSDOF 4
