
 OpenBabel03272510243D

 30 33  0  0  0  0  0  0  0  0999 V2000
   36.1430   30.1780   46.8760 C   0  0  0  0  0  0  0  0  0  0  0  0
   37.0200   30.7230   47.7930 C   0  0  0  0  0  0  0  0  0  0  0  0
   37.9990   31.5930   47.3730 C   0  0  0  0  0  0  0  0  0  0  0  0
   38.0480   31.8830   46.0090 C   0  0  0  0  0  0  0  0  0  0  0  0
   38.9340   32.7180   45.3730 N   0  0  0  0  0  0  0  0  0  0  0  0
   38.6050   32.6870   44.0860 C   0  0  0  0  0  0  0  0  0  0  0  0
   37.5620   31.8810   43.8710 N   0  0  0  0  0  0  0  0  0  0  0  0
   37.1820   31.3550   45.0620 C   0  0  0  0  0  0  0  0  0  0  0  0
   36.2080   30.4800   45.5250 C   0  0  0  0  0  0  0  0  0  0  0  0
   35.3540   29.4880   47.1570 H   0  0  0  0  0  0  0  0  0  0  0  0
   38.6910   32.0290   48.0560 H   0  0  0  0  0  0  0  0  0  0  0  0
   39.7190   33.2730   45.8150 H   0  0  0  0  0  0  0  0  0  0  0  0
   35.5440   30.0760   44.7870 H   0  0  0  0  0  0  0  0  0  0  0  0
   37.5370   30.1920   51.4750 C   0  0  0  0  0  0  0  0  0  0  0  0
   37.8090   30.6100   50.1770 C   0  0  0  0  0  0  0  0  0  0  0  0
   36.8700   30.3460   49.1860 C   0  0  0  0  0  0  0  0  0  0  0  0
   35.7180   29.6830   49.5390 N   0  0  0  0  0  0  0  0  0  0  0  0
   35.4860   29.2900   50.8150 C   0  0  0  0  0  0  0  0  0  0  0  0
   36.3820   29.5410   51.7680 N   0  0  0  0  0  0  0  0  0  0  0  0
   38.3380   30.4540   52.1530 H   0  0  0  0  0  0  0  0  0  0  0  0
   38.6950   31.1300   49.8650 H   0  0  0  0  0  0  0  0  0  0  0  0
   34.5720   28.7750   51.0430 H   0  0  0  0  0  0  0  0  0  0  0  0
   39.2880   33.4170   43.1170 O   0  0  0  0  0  0  0  0  0  0  0  0
   38.9900   33.2550   41.7700 C   0  0  0  0  0  0  0  0  0  0  0  0
   39.4990   32.0610   41.1470 C   0  0  0  0  0  0  0  0  0  0  0  0
   40.0780   31.2660   41.5590 H   0  0  0  0  0  0  0  0  0  0  0  0
   38.8660   32.2660   39.3750 S   0  0  0  0  0  0  0  0  0  0  0  0
   38.0540   33.9120   39.8540 C   0  0  0  0  0  0  0  0  0  0  0  0
   37.4140   34.7400   39.3020 H   0  0  0  0  0  0  0  0  0  0  0  0
   38.2930   34.0510   40.9550 N   0  0  0  0  0  0  0  0  0  0  0  0
  1 10  1  0  0  0  0
  1  2  1  0  0  0  0
  2 16  1  0  0  0  0
  3  2  2  0  0  0  0
  3 11  1  0  0  0  0
  4  3  1  0  0  0  0
  5 12  1  0  0  0  0
  5  4  1  0  0  0  0
  6  5  1  0  0  0  0
  7  6  2  0  0  0  0
  7  8  1  0  0  0  0
  8  9  1  0  0  0  0
  8  4  2  0  0  0  0
  9  1  2  0  0  0  0
 13  9  1  0  0  0  0
 14 19  1  0  0  0  0
 14 20  1  0  0  0  0
 15 14  2  0  0  0  0
 16 17  2  0  0  0  0
 16 15  1  0  0  0  0
 17 18  1  0  0  0  0
 18 22  1  0  0  0  0
 18 19  2  0  0  0  0
 21 15  1  0  0  0  0
 23  6  1  0  0  0  0
 24 23  1  0  0  0  0
 25 26  1  0  0  0  0
 25 24  2  0  0  0  0
 27 28  1  0  0  0  0
 27 25  1  0  0  0  0
 28 30  2  0  0  0  0
 29 28  1  0  0  0  0
 30 24  1  0  0  0  0
M  END
>  <minimizedAffinity>
-5.52053833

>  <minimizedRMSD>
1.46613848

$$$$
