
 OpenBabel03272509473D

 23 24  0  0  0  0  0  0  0  0999 V2000
   33.7560   28.6540   48.8790 C   0  0  0  0  0  0  0  0  0  0  0  0
   33.0020   29.3410   49.3490 H   0  0  0  0  0  0  0  0  0  0  0  0
   34.1970   29.2180   48.0180 H   0  0  0  0  0  0  0  0  0  0  0  0
   33.0070   27.4860   48.2810 C   0  0  0  0  0  0  0  0  0  0  0  0
   33.3330   26.5590   48.7700 H   0  0  0  0  0  0  0  0  0  0  0  0
   33.1970   27.3980   47.2060 H   0  0  0  0  0  0  0  0  0  0  0  0
   31.5520   27.7530   48.5710 C   0  0  0  0  0  0  0  0  0  0  0  0
   30.8130   28.1060   47.3650 C   0  0  0  0  0  0  0  0  0  0  0  0
   31.0770   28.2160   46.3290 H   0  0  0  0  0  0  0  0  0  0  0  0
   29.0970   28.3760   47.9890 S   0  0  0  0  0  0  0  0  0  0  0  0
   29.6690   27.9700   49.7550 C   0  0  0  0  0  0  0  0  0  0  0  0
   29.3670   27.8430   50.9500 H   0  0  0  0  0  0  0  0  0  0  0  0
   30.7690   27.7520   49.6320 N   0  0  0  0  0  0  0  0  0  0  0  0
   34.7190   28.1990   49.7980 O   0  0  0  0  0  0  0  0  0  0  0  0
   37.2830   30.2300   51.3800 C   0  0  0  0  0  0  0  0  0  0  0  0
   37.9670   30.6690   50.2330 C   0  0  0  0  0  0  0  0  0  0  0  0
   37.5170   30.2480   48.9860 C   0  0  0  0  0  0  0  0  0  0  0  0
   36.4260   29.4270   48.9590 N   0  0  0  0  0  0  0  0  0  0  0  0
   35.7950   29.0270   50.0860 C   0  0  0  0  0  0  0  0  0  0  0  0
   36.2350   29.4370   51.2800 N   0  0  0  0  0  0  0  0  0  0  0  0
   37.6060   30.5390   52.3690 H   0  0  0  0  0  0  0  0  0  0  0  0
   38.8320   31.3260   50.3220 H   0  0  0  0  0  0  0  0  0  0  0  0
   38.0120   30.5610   48.0750 H   0  0  0  0  0  0  0  0  0  0  0  0
  1  2  1  0  0  0  0
  1 14  1  0  0  0  0
  3  1  1  0  0  0  0
  4  7  1  0  0  0  0
  4  5  1  0  0  0  0
  4  1  1  0  0  0  0
  6  4  1  0  0  0  0
  7 13  1  0  0  0  0
  8 10  1  0  0  0  0
  8  7  2  0  0  0  0
  9  8  1  0  0  0  0
 10 11  1  0  0  0  0
 11 12  1  0  0  0  0
 13 11  2  0  0  0  0
 14 19  1  0  0  0  0
 15 21  1  0  0  0  0
 16 22  1  0  0  0  0
 16 15  2  0  0  0  0
 17 16  1  0  0  0  0
 18 17  2  0  0  0  0
 18 19  1  0  0  0  0
 19 20  2  0  0  0  0
 20 15  1  0  0  0  0
 23 17  1  0  0  0  0
M  END
>  <minimizedAffinity>
-4.22905445

>  <minimizedRMSD>
2.65635395

$$$$
