
 OpenBabel03262521463D

 28 29  0  0  0  0  0  0  0  0999 V2000
   36.9530   29.2350   50.6360 C   0  0  0  0  0  0  0  0  0  0  0  0
   37.4800   28.3200   50.9820 H   0  0  0  0  0  0  0  0  0  0  0  0
   36.7550   29.0890   49.5410 H   0  0  0  0  0  0  0  0  0  0  0  0
   37.7290   30.4920   50.8410 C   0  0  0  0  0  0  0  0  0  0  0  0
   37.2420   31.1730   51.5780 H   0  0  0  0  0  0  0  0  0  0  0  0
   38.6940   30.1880   51.3440 H   0  0  0  0  0  0  0  0  0  0  0  0
   38.1070   31.1860   49.6210 C   0  0  0  0  0  0  0  0  0  0  0  0
   38.5330   32.4970   49.6060 C   0  0  0  0  0  0  0  0  0  0  0  0
   38.8750   33.0830   48.3780 C   0  0  0  0  0  0  0  0  0  0  0  0
   38.7640   32.3050   47.2500 N   0  0  0  0  0  0  0  0  0  0  0  0
   38.3400   31.0170   47.3030 C   0  0  0  0  0  0  0  0  0  0  0  0
   38.0140   30.4740   48.5090 N   0  0  0  0  0  0  0  0  0  0  0  0
   38.6050   33.0720   50.5180 H   0  0  0  0  0  0  0  0  0  0  0  0
   39.2160   34.1090   48.3070 H   0  0  0  0  0  0  0  0  0  0  0  0
   38.2740   30.4550   46.3730 H   0  0  0  0  0  0  0  0  0  0  0  0
   35.7100   29.3850   51.2590 O   0  0  0  0  0  0  0  0  0  0  0  0
   34.6970   30.5990   49.1940 O   0  0  0  0  0  0  0  0  0  0  0  0
   34.4580   29.4100   50.1370 P   0  0  2  0  0  0  0  0  0  0  0  0
   32.9770   29.7050   50.8640 O   0  0  0  0  0  0  0  0  0  0  0  0
   32.8170   29.2180   51.6920 H   0  0  0  0  0  0  0  0  0  0  0  0
   34.3680   27.9750   49.2800 O   0  0  0  0  0  0  0  0  0  0  0  0
   33.4540   27.8680   48.2110 C   0  0  0  0  0  0  0  0  0  0  0  0
   33.7910   27.8800   46.8170 C   0  0  0  0  0  0  0  0  0  0  0  0
   34.7590   27.9700   46.5380 H   0  0  0  0  0  0  0  0  0  0  0  0
   32.1590   27.7070   46.0770 S   0  0  0  0  0  0  0  0  0  0  0  0
   31.2780   27.6470   47.7810 C   0  0  0  0  0  0  0  0  0  0  0  0
   30.1690   27.5400   47.9350 H   0  0  0  0  0  0  0  0  0  0  0  0
   32.2480   27.7580   48.7350 N   0  0  0  0  0  0  0  0  0  0  0  0
  1  4  1  0  0  0  0
  1  2  1  0  0  0  0
  1 16  1  0  0  0  0
  3  1  1  0  0  0  0
  4  6  1  0  0  0  0
  4  5  1  0  0  0  0
  7  4  1  0  0  0  0
  8  7  1  0  0  0  0
  8 13  1  0  0  0  0
  9  8  2  0  0  0  0
 10 11  2  0  0  0  0
 10  9  1  0  0  0  0
 11 12  1  0  0  0  0
 12  7  2  0  0  0  0
 14  9  1  0  0  0  0
 15 11  1  0  0  0  0
 18 17  2  6  0  0  0
 18 19  1  0  0  0  0
 18 16  1  0  0  0  0
 19 20  1  0  0  0  0
 21 18  1  0  0  0  0
 22 28  1  0  0  0  0
 22 21  1  0  0  0  0
 23 22  2  0  0  0  0
 24 23  1  0  0  0  0
 25 23  1  0  0  0  0
 25 26  1  0  0  0  0
 26 27  1  0  0  0  0
 26 28  2  0  0  0  0
M  END
>  <minimizedAffinity>
-5.0636158

>  <minimizedRMSD>
0.21532321

$$$$
