
 OpenBabel03272509353D

 45 49  0  0  1  0  0  0  0  0999 V2000
   36.1090   30.2170   44.4060 C   0  0  1  0  0  0  0  0  0  0  0  0
   37.0230   31.1200   45.1570 C   0  0  0  0  0  0  0  0  0  0  0  0
   37.5390   29.7810   44.9620 C   0  0  2  0  0  0  0  0  0  0  0  0
   36.0820   30.1060   43.3330 H   0  0  0  0  0  0  0  0  0  0  0  0
   37.1620   32.0370   44.5880 H   0  0  0  0  0  0  0  0  0  0  0  0
   36.6230   31.4040   46.2010 H   0  0  0  0  0  0  0  0  0  0  0  0
   37.3880   28.8940   45.5660 H   0  0  0  0  0  0  0  0  0  0  0  0
   38.6610   29.7660   43.9650 C   0  0  0  0  0  0  0  0  0  0  0  0
   39.4600   30.9100   44.1300 C   0  0  0  0  0  0  0  0  0  0  0  0
   40.6090   31.0540   43.3940 C   0  0  0  0  0  0  0  0  0  0  0  0
   41.0130   30.0800   42.4710 C   0  0  0  0  0  0  0  0  0  0  0  0
   40.1990   28.9640   42.3360 C   0  0  0  0  0  0  0  0  0  0  0  0
   40.4680   27.9450   41.4650 C   0  0  0  0  0  0  0  0  0  0  0  0
   39.6670   26.8420   41.3120 C   0  0  0  0  0  0  0  0  0  0  0  0
   38.5240   26.7450   42.0750 C   0  0  0  0  0  0  0  0  0  0  0  0
   38.2420   27.7670   42.9570 C   0  0  0  0  0  0  0  0  0  0  0  0
   39.0770   28.8610   43.0780 C   0  0  0  0  0  0  0  0  0  0  0  0
   39.4430   31.7930   44.7360 H   0  0  0  0  0  0  0  0  0  0  0  0
   41.3370   31.8500   43.3840 H   0  0  0  0  0  0  0  0  0  0  0  0
   41.8890   30.0710   41.8330 H   0  0  0  0  0  0  0  0  0  0  0  0
   41.3600   27.9780   40.8420 H   0  0  0  0  0  0  0  0  0  0  0  0
   39.9210   26.0550   40.6070 H   0  0  0  0  0  0  0  0  0  0  0  0
   37.8490   25.9080   42.0080 H   0  0  0  0  0  0  0  0  0  0  0  0
   37.3210   27.6720   43.5610 H   0  0  0  0  0  0  0  0  0  0  0  0
   32.9820   28.2960   45.2760 C   0  0  0  0  0  0  0  0  0  0  0  0
   34.0390   28.8820   44.5120 C   0  0  0  0  0  0  0  0  0  0  0  0
   35.0050   29.5850   45.1720 C   0  0  0  0  0  0  0  0  0  0  0  0
   34.8770   29.6710   46.5430 N   0  0  0  0  0  0  0  0  0  0  0  0
   33.8830   29.1160   47.2420 C   0  0  0  0  0  0  0  0  0  0  0  0
   32.9200   28.4200   46.6200 N   0  0  0  0  0  0  0  0  0  0  0  0
   32.2590   27.7570   44.6800 H   0  0  0  0  0  0  0  0  0  0  0  0
   34.0850   28.7830   43.4530 H   0  0  0  0  0  0  0  0  0  0  0  0
   33.8900   29.2960   48.7350 C   0  0  0  0  0  0  0  0  0  0  0  0
   33.8540   30.3430   49.0220 H   0  0  0  0  0  0  0  0  0  0  0  0
   33.0190   28.7110   49.1320 H   0  0  0  0  0  0  0  0  0  0  0  0
   35.1580   28.6060   49.2640 C   0  0  0  0  0  0  0  0  0  0  0  0
   35.5630   27.9950   48.4040 H   0  0  0  0  0  0  0  0  0  0  0  0
   34.9070   27.8770   50.0310 H   0  0  0  0  0  0  0  0  0  0  0  0
   36.1710   29.6240   49.6760 C   0  0  0  0  0  0  0  0  0  0  0  0
   37.5060   29.2510   50.1110 C   0  0  0  0  0  0  0  0  0  0  0  0
   37.8100   28.2330   50.1490 H   0  0  0  0  0  0  0  0  0  0  0  0
   38.2160   30.8780   50.4610 S   0  0  0  0  0  0  0  0  0  0  0  0
   36.6100   31.7980   49.9690 C   0  0  0  0  0  0  0  0  0  0  0  0
   36.4650   32.8880   49.9900 H   0  0  0  0  0  0  0  0  0  0  0  0
   35.7880   30.8820   49.6280 N   0  0  0  0  0  0  0  0  0  0  0  0
  1  4  1  6  0  0  0
  1  3  1  0  0  0  0
  1  2  1  0  0  0  0
  1 27  1  0  0  0  0
  2  6  1  0  0  0  0
  3  2  1  0  0  0  0
  3  7  1  1  0  0  0
  5  2  1  0  0  0  0
  8  9  1  0  0  0  0
  8  3  1  0  0  0  0
  9 18  1  0  0  0  0
 10  9  2  0  0  0  0
 11 10  1  0  0  0  0
 12 11  2  0  0  0  0
 12 17  1  0  0  0  0
 13 12  1  0  0  0  0
 14 13  2  0  0  0  0
 14 15  1  0  0  0  0
 15 16  2  0  0  0  0
 16 17  1  0  0  0  0
 16 24  1  0  0  0  0
 17  8  2  0  0  0  0
 19 10  1  0  0  0  0
 20 11  1  0  0  0  0
 21 13  1  0  0  0  0
 22 14  1  0  0  0  0
 23 15  1  0  0  0  0
 25 30  1  0  0  0  0
 26 27  1  0  0  0  0
 26 25  2  0  0  0  0
 27 28  2  0  0  0  0
 28 29  1  0  0  0  0
 29 33  1  0  0  0  0
 30 29  2  0  0  0  0
 31 25  1  0  0  0  0
 32 26  1  0  0  0  0
 33 34  1  0  0  0  0
 33 35  1  0  0  0  0
 33 36  1  0  0  0  0
 36 39  1  0  0  0  0
 36 38  1  0  0  0  0
 37 36  1  0  0  0  0
 39 40  2  0  0  0  0
 40 41  1  0  0  0  0
 40 42  1  0  0  0  0
 43 44  1  0  0  0  0
 43 42  1  0  0  0  0
 45 39  1  0  0  0  0
 45 43  2  0  0  0  0
M  END
>  <minimizedAffinity>
-4.85532856

>  <minimizedRMSD>
3.52155542

$$$$
