
     RDKit          3D

 37 40  0  0  0  0  0  0  0  0999 V2000
   35.4958   28.9142   49.1582 C   0  0  0  0  0  0  0  0  0  0  0  0
   35.4249   30.1055   48.3970 C   0  0  0  0  0  0  0  0  0  0  0  0
   34.3227   30.2649   47.5419 C   0  0  0  0  0  0  0  0  0  0  0  0
   33.3904   29.2797   47.4879 N   0  0  0  0  0  0  0  0  0  0  0  0
   33.4993   28.1558   48.2343 C   0  0  0  0  0  0  0  0  0  0  0  0
   34.5543   27.9632   49.0774 N   0  0  0  0  0  0  0  0  0  0  0  0
   36.4610   31.0545   48.5386 N   0  0  0  0  0  0  0  0  0  0  0  0
   36.6312   31.7566   49.6541 C   0  0  0  0  0  0  0  0  0  0  0  0
   37.6790   32.6790   49.7232 C   0  0  0  0  0  0  0  0  0  0  0  0
   38.4498   32.7769   48.6127 C   0  0  0  0  0  0  0  0  0  0  0  0
   39.4067   33.6162   48.6696 O   0  0  0  0  0  0  0  0  0  0  0  0
   38.3116   32.0945   47.4823 N   0  0  0  0  0  0  0  0  0  0  0  0
   37.2852   31.2107   47.4542 C   0  0  0  0  0  0  0  0  0  0  0  0
   37.1342   30.5453   46.3795 O   0  0  0  0  0  0  0  0  0  0  0  0
   32.5285   27.1359   48.1707 O   0  0  0  0  0  0  0  0  0  0  0  0
   31.2084   27.5567   48.2554 C   0  0  0  0  0  0  0  0  0  0  0  0
   30.7604   27.7391   49.5540 C   0  0  0  0  0  0  0  0  0  0  0  0
   29.4867   28.1547   49.8453 C   0  0  0  0  0  0  0  0  0  0  0  0
   28.6289   28.3971   48.7862 C   0  0  0  0  0  0  0  0  0  0  0  0
   29.0766   28.2150   47.5052 C   0  0  0  0  0  0  0  0  0  0  0  0
   30.3635   27.7937   47.1973 C   0  0  0  0  0  0  0  0  0  0  0  0
   36.3439   28.7803   49.8232 H   0  0  0  0  0  0  0  0  0  0  0  0
   34.2626   31.1663   46.9619 H   0  0  0  0  0  0  0  0  0  0  0  0
   35.9456   31.5839   50.4706 H   0  0  0  0  0  0  0  0  0  0  0  0
   37.8213   33.2520   50.6280 H   0  0  0  0  0  0  0  0  0  0  0  0
   38.9270   32.1962   46.6428 H   0  0  0  0  0  0  0  0  0  0  0  0
   31.3818   27.5669   50.4232 H   0  0  0  0  0  0  0  0  0  0  0  0
   29.1373   28.2965   50.8560 H   0  0  0  0  0  0  0  0  0  0  0  0
   27.6295   28.7221   48.9557 H   0  0  0  0  0  0  0  0  0  0  0  0
   28.3843   28.4121   46.6915 H   0  0  0  0  0  0  0  0  0  0  0  0
   30.8088   27.6135   45.8159 C   0  0  0  0  0  0  0  0  0  0  0  0
   32.1462   27.5980   45.4472 C   0  0  0  0  0  0  0  0  0  0  0  0
   33.0994   27.6973   45.9307 H   0  0  0  0  0  0  0  0  0  0  0  0
   32.0745   27.3035   43.6282 S   0  0  0  0  0  0  0  0  0  0  0  0
   30.1687   27.2506   43.6913 C   0  0  0  0  0  0  0  0  0  0  0  0
   29.5549   27.0913   42.8260 H   0  0  0  0  0  0  0  0  0  0  0  0
   29.9532   27.4273   44.8346 N   0  0  0  0  0  0  0  0  0  0  0  0
  2  7  1  0
  2  1  2  0
  3  2  1  0
  4  3  2  0
  4  5  1  0
  5  6  2  0
  6  1  1  0
  7  8  1  0
  8  9  2  0
 10 11  2  0
 10  9  1  0
 12 10  1  0
 13 12  1  0
 13  7  1  0
 14 13  2  0
 15  5  1  0
 15 16  1  0
 16 17  2  0
 17 18  1  0
 19 18  2  0
 20 19  1  0
 21 20  2  0
 21 16  1  0
  1 22  1  0
  3 23  1  0
  8 24  1  0
  9 25  1  0
 12 26  1  0
 17 27  1  0
 18 28  1  0
 19 29  1  0
 20 30  1  0
 31 32  2  0
 32 33  1  0
 32 34  1  0
 34 35  1  0
 35 36  1  0
 35 37  2  0
 37 31  1  0
 21 31  1  0
M  ISO  8  22  14  23  14  24  14  25  14  26   9  27  14  28  14  29  14
M  ISO  3  30  14  33  15  36  16
M  END
>  <DihAtoms>  (1) 
19,20,30,31

>  <DihDeg>  (1) 
-170.2956544793437

$$$$
