
 OpenBabel03272509353D

 45 49  0  0  1  0  0  0  0  0999 V2000
   37.5480   32.1100   48.3410 C   0  0  1  0  0  0  0  0  0  0  0  0
   38.9320   32.6430   48.4510 C   0  0  0  0  0  0  0  0  0  0  0  0
   38.7710   31.6120   47.4480 C   0  0  2  0  0  0  0  0  0  0  0  0
   36.7710   32.5130   47.7080 H   0  0  0  0  0  0  0  0  0  0  0  0
   38.9010   33.7280   48.3810 H   0  0  0  0  0  0  0  0  0  0  0  0
   39.4490   32.3630   49.4440 H   0  0  0  0  0  0  0  0  0  0  0  0
   38.8260   30.5350   47.5570 H   0  0  0  0  0  0  0  0  0  0  0  0
   38.8540   32.1790   46.0600 C   0  0  0  0  0  0  0  0  0  0  0  0
   39.9270   33.0820   45.9780 C   0  0  0  0  0  0  0  0  0  0  0  0
   40.2580   33.6440   44.7710 C   0  0  0  0  0  0  0  0  0  0  0  0
   39.5470   33.3360   43.6020 C   0  0  0  0  0  0  0  0  0  0  0  0
   38.4940   32.4400   43.7230 C   0  0  0  0  0  0  0  0  0  0  0  0
   37.7120   32.0630   42.6660 C   0  0  0  0  0  0  0  0  0  0  0  0
   36.6610   31.1870   42.7720 C   0  0  0  0  0  0  0  0  0  0  0  0
   36.3690   30.6500   44.0080 C   0  0  0  0  0  0  0  0  0  0  0  0
   37.1520   31.0250   45.0800 C   0  0  0  0  0  0  0  0  0  0  0  0
   38.2010   31.9110   44.9280 C   0  0  0  0  0  0  0  0  0  0  0  0
   40.6500   33.4970   46.6500 H   0  0  0  0  0  0  0  0  0  0  0  0
   41.0360   34.3460   44.5170 H   0  0  0  0  0  0  0  0  0  0  0  0
   39.7040   33.7060   42.5960 H   0  0  0  0  0  0  0  0  0  0  0  0
   37.9050   32.4600   41.6720 H   0  0  0  0  0  0  0  0  0  0  0  0
   36.0660   30.9150   41.9040 H   0  0  0  0  0  0  0  0  0  0  0  0
   35.5600   29.9570   44.1650 H   0  0  0  0  0  0  0  0  0  0  0  0
   36.9040   30.5840   46.0620 H   0  0  0  0  0  0  0  0  0  0  0  0
   37.2530   30.1080   51.5230 C   0  0  0  0  0  0  0  0  0  0  0  0
   37.6590   31.1170   50.5940 C   0  0  0  0  0  0  0  0  0  0  0  0
   37.1370   31.0850   49.3330 C   0  0  0  0  0  0  0  0  0  0  0  0
   36.2480   30.0660   49.0590 N   0  0  0  0  0  0  0  0  0  0  0  0
   35.8790   29.1320   49.9390 C   0  0  0  0  0  0  0  0  0  0  0  0
   36.3750   29.1380   51.1850 N   0  0  0  0  0  0  0  0  0  0  0  0
   37.7100   30.2030   52.4980 H   0  0  0  0  0  0  0  0  0  0  0  0
   38.3500   31.8790   50.8640 H   0  0  0  0  0  0  0  0  0  0  0  0
   34.8930   28.0910   49.4850 C   0  0  0  0  0  0  0  0  0  0  0  0
   35.2720   27.5010   48.6550 H   0  0  0  0  0  0  0  0  0  0  0  0
   34.6540   27.4640   50.3850 H   0  0  0  0  0  0  0  0  0  0  0  0
   33.5990   28.8310   49.1100 C   0  0  0  0  0  0  0  0  0  0  0  0
   33.8440   29.9330   49.1620 H   0  0  0  0  0  0  0  0  0  0  0  0
   32.8350   28.6790   49.8700 H   0  0  0  0  0  0  0  0  0  0  0  0
   33.1800   28.4760   47.7210 C   0  0  0  0  0  0  0  0  0  0  0  0
   31.8410   28.0020   47.4180 C   0  0  0  0  0  0  0  0  0  0  0  0
   31.1080   27.8910   48.1810 H   0  0  0  0  0  0  0  0  0  0  0  0
   31.9650   27.7560   45.6300 S   0  0  0  0  0  0  0  0  0  0  0  0
   33.7920   28.3280   45.5750 C   0  0  0  0  0  0  0  0  0  0  0  0
   34.4180   28.3830   44.6730 H   0  0  0  0  0  0  0  0  0  0  0  0
   34.0910   28.6160   46.7830 N   0  0  0  0  0  0  0  0  0  0  0  0
  1  4  1  6  0  0  0
  1  2  1  0  0  0  0
  1 27  1  0  0  0  0
  2  6  1  0  0  0  0
  3  7  1  1  0  0  0
  3  1  1  0  0  0  0
  3  2  1  0  0  0  0
  5  2  1  0  0  0  0
  8  3  1  0  0  0  0
  9  8  1  0  0  0  0
  9 18  1  0  0  0  0
 10  9  2  0  0  0  0
 11 12  2  0  0  0  0
 11 10  1  0  0  0  0
 12 17  1  0  0  0  0
 13 14  2  0  0  0  0
 13 12  1  0  0  0  0
 14 15  1  0  0  0  0
 15 23  1  0  0  0  0
 15 16  2  0  0  0  0
 16 24  1  0  0  0  0
 17 16  1  0  0  0  0
 17  8  2  0  0  0  0
 19 10  1  0  0  0  0
 20 11  1  0  0  0  0
 21 13  1  0  0  0  0
 22 14  1  0  0  0  0
 25 31  1  0  0  0  0
 26 32  1  0  0  0  0
 26 25  2  0  0  0  0
 27 26  1  0  0  0  0
 28 27  2  0  0  0  0
 28 29  1  0  0  0  0
 29 30  2  0  0  0  0
 30 25  1  0  0  0  0
 33 29  1  0  0  0  0
 33 35  1  0  0  0  0
 34 33  1  0  0  0  0
 36 37  1  0  0  0  0
 36 33  1  0  0  0  0
 36 38  1  0  0  0  0
 39 36  1  0  0  0  0
 40 39  2  0  0  0  0
 40 41  1  0  0  0  0
 42 40  1  0  0  0  0
 43 42  1  0  0  0  0
 43 45  2  0  0  0  0
 44 43  1  0  0  0  0
 45 39  1  0  0  0  0
M  END
>  <minimizedAffinity>
-6.40397167

>  <minimizedRMSD>
4.79245377

$$$$
