
 OpenBabel03272509353D

 45 49  0  0  1  0  0  0  0  0999 V2000
   35.9610   30.1690   44.2780 C   0  0  1  0  0  0  0  0  0  0  0  0
   36.7770   31.2110   44.9580 C   0  0  0  0  0  0  0  0  0  0  0  0
   37.4970   29.9880   44.6690 C   0  0  2  0  0  0  0  0  0  0  0  0
   35.8400   30.0680   43.2100 H   0  0  0  0  0  0  0  0  0  0  0  0
   36.6910   32.1450   44.4060 H   0  0  0  0  0  0  0  0  0  0  0  0
   36.4480   31.4070   46.0460 H   0  0  0  0  0  0  0  0  0  0  0  0
   37.5700   29.0810   45.2570 H   0  0  0  0  0  0  0  0  0  0  0  0
   38.4910   30.1860   43.5600 C   0  0  0  0  0  0  0  0  0  0  0  0
   38.8210   31.5480   43.4550 C   0  0  0  0  0  0  0  0  0  0  0  0
   39.7940   31.9490   42.5760 C   0  0  0  0  0  0  0  0  0  0  0  0
   40.4790   31.0260   41.7710 C   0  0  0  0  0  0  0  0  0  0  0  0
   40.1250   29.6910   41.9040 C   0  0  0  0  0  0  0  0  0  0  0  0
   40.7030   28.6900   41.1730 C   0  0  0  0  0  0  0  0  0  0  0  0
   40.3570   27.3670   41.2850 C   0  0  0  0  0  0  0  0  0  0  0  0
   39.3720   27.0160   42.1830 C   0  0  0  0  0  0  0  0  0  0  0  0
   38.7820   28.0180   42.9260 C   0  0  0  0  0  0  0  0  0  0  0  0
   39.1620   29.3380   42.7800 C   0  0  0  0  0  0  0  0  0  0  0  0
   38.5130   32.4630   43.9170 H   0  0  0  0  0  0  0  0  0  0  0  0
   40.1780   32.9330   42.3580 H   0  0  0  0  0  0  0  0  0  0  0  0
   41.2610   31.2100   41.0430 H   0  0  0  0  0  0  0  0  0  0  0  0
   41.4850   28.9200   40.4520 H   0  0  0  0  0  0  0  0  0  0  0  0
   40.8440   26.6050   40.6830 H   0  0  0  0  0  0  0  0  0  0  0  0
   39.0490   25.9980   42.3250 H   0  0  0  0  0  0  0  0  0  0  0  0
   37.9950   27.7170   43.6410 H   0  0  0  0  0  0  0  0  0  0  0  0
   33.5580   27.5050   45.4410 C   0  0  0  0  0  0  0  0  0  0  0  0
   34.4150   28.2760   44.5930 C   0  0  0  0  0  0  0  0  0  0  0  0
   35.0750   29.3410   45.1330 C   0  0  0  0  0  0  0  0  0  0  0  0
   34.8560   29.5860   46.4730 N   0  0  0  0  0  0  0  0  0  0  0  0
   34.0530   28.8560   47.2520 C   0  0  0  0  0  0  0  0  0  0  0  0
   33.3910   27.8030   46.7480 N   0  0  0  0  0  0  0  0  0  0  0  0
   33.0730   26.6800   44.9380 H   0  0  0  0  0  0  0  0  0  0  0  0
   34.5440   28.0370   43.5640 H   0  0  0  0  0  0  0  0  0  0  0  0
   33.9260   29.2510   48.6970 C   0  0  0  0  0  0  0  0  0  0  0  0
   33.9240   30.3300   48.8280 H   0  0  0  0  0  0  0  0  0  0  0  0
   32.9880   28.7690   49.0790 H   0  0  0  0  0  0  0  0  0  0  0  0
   35.0950   28.5910   49.4470 C   0  0  0  0  0  0  0  0  0  0  0  0
   35.5230   27.8210   48.7400 H   0  0  0  0  0  0  0  0  0  0  0  0
   34.7300   28.0180   50.2970 H   0  0  0  0  0  0  0  0  0  0  0  0
   36.1400   29.6060   49.7770 C   0  0  0  0  0  0  0  0  0  0  0  0
   37.4560   29.2250   50.2620 C   0  0  0  0  0  0  0  0  0  0  0  0
   37.7220   28.2050   50.3970 H   0  0  0  0  0  0  0  0  0  0  0  0
   38.2230   30.8510   50.4690 S   0  0  0  0  0  0  0  0  0  0  0  0
   36.6580   31.7790   49.8740 C   0  0  0  0  0  0  0  0  0  0  0  0
   36.5540   32.8710   49.7930 H   0  0  0  0  0  0  0  0  0  0  0  0
   35.8060   30.8660   49.6080 N   0  0  0  0  0  0  0  0  0  0  0  0
  1  4  1  6  0  0  0
  1  3  1  0  0  0  0
  1  2  1  0  0  0  0
  1 27  1  0  0  0  0
  2  6  1  0  0  0  0
  3  2  1  0  0  0  0
  3  7  1  1  0  0  0
  5  2  1  0  0  0  0
  8  3  1  0  0  0  0
  9  8  1  0  0  0  0
  9 18  1  0  0  0  0
 10  9  2  0  0  0  0
 11 12  2  0  0  0  0
 11 10  1  0  0  0  0
 12 17  1  0  0  0  0
 13 14  2  0  0  0  0
 13 12  1  0  0  0  0
 14 15  1  0  0  0  0
 15 23  1  0  0  0  0
 15 16  2  0  0  0  0
 16 24  1  0  0  0  0
 17 16  1  0  0  0  0
 17  8  2  0  0  0  0
 19 10  1  0  0  0  0
 20 11  1  0  0  0  0
 21 13  1  0  0  0  0
 22 14  1  0  0  0  0
 25 30  1  0  0  0  0
 26 27  1  0  0  0  0
 26 25  2  0  0  0  0
 27 28  2  0  0  0  0
 28 29  1  0  0  0  0
 29 33  1  0  0  0  0
 30 29  2  0  0  0  0
 31 25  1  0  0  0  0
 32 26  1  0  0  0  0
 33 34  1  0  0  0  0
 33 35  1  0  0  0  0
 33 36  1  0  0  0  0
 36 39  1  0  0  0  0
 36 38  1  0  0  0  0
 37 36  1  0  0  0  0
 39 40  2  0  0  0  0
 40 41  1  0  0  0  0
 40 42  1  0  0  0  0
 43 42  1  0  0  0  0
 44 43  1  0  0  0  0
 45 39  1  0  0  0  0
 45 43  2  0  0  0  0
M  END
>  <minimizedAffinity>
-4.8508935

>  <minimizedRMSD>
3.46167016

$$$$
