
 OpenBabel03272506433D

 30 32  0  0  1  0  0  0  0  0999 V2000
   32.2830   28.1530   47.6540 C   0  0  2  0  0  0  0  0  0  0  0  0
   33.5700   28.1600   48.4640 C   0  0  1  0  0  0  0  0  0  0  0  0
   34.1510   26.9190   48.3410 O   0  0  0  0  0  0  0  0  0  0  0  0
   33.4630   26.1980   47.3940 C   0  0  0  0  0  0  0  0  0  0  0  0
   32.6800   27.2120   46.5580 C   0  0  1  0  0  0  0  0  0  0  0  0
   31.4390   27.7210   48.2360 H   0  0  0  0  0  0  0  0  0  0  0  0
   33.3460   28.4720   49.4910 H   0  0  0  0  0  0  0  0  0  0  0  0
   32.8010   25.4200   47.8210 H   0  0  0  0  0  0  0  0  0  0  0  0
   34.2070   25.7620   46.6890 H   0  0  0  0  0  0  0  0  0  0  0  0
   33.3260   27.6720   45.8090 H   0  0  0  0  0  0  0  0  0  0  0  0
   31.9730   29.4190   47.1870 O   0  0  0  0  0  0  0  0  0  0  0  0
   31.7400   29.9910   47.9430 H   0  0  0  0  0  0  0  0  0  0  0  0
   34.6690   29.3650   47.6310 S   0  0  0  0  0  0  0  0  0  0  0  0
   37.3030   29.4010   50.5810 C   0  0  0  0  0  0  0  0  0  0  0  0
   37.8410   30.6840   50.5830 C   0  0  0  0  0  0  0  0  0  0  0  0
   37.3670   31.5890   49.6230 C   0  0  0  0  0  0  0  0  0  0  0  0
   36.4190   31.1530   48.7620 N   0  0  0  0  0  0  0  0  0  0  0  0
   35.9150   29.9080   48.7800 C   0  0  0  0  0  0  0  0  0  0  0  0
   36.3600   29.0220   49.6980 N   0  0  0  0  0  0  0  0  0  0  0  0
   37.6910   28.7250   51.3360 H   0  0  0  0  0  0  0  0  0  0  0  0
   38.6010   31.0260   51.2780 H   0  0  0  0  0  0  0  0  0  0  0  0
   37.7130   32.6070   49.5350 H   0  0  0  0  0  0  0  0  0  0  0  0
   31.5990   26.5790   45.9530 O   0  0  0  0  0  0  0  0  0  0  0  0
   31.0450   27.2360   44.8440 C   0  0  0  0  0  0  0  0  0  0  0  0
   31.0880   26.3720   43.6900 C   0  0  0  0  0  0  0  0  0  0  0  0
   31.4150   25.3950   43.4520 H   0  0  0  0  0  0  0  0  0  0  0  0
   30.3050   27.4470   42.3370 S   0  0  0  0  0  0  0  0  0  0  0  0
   30.0850   28.8360   43.6150 C   0  0  0  0  0  0  0  0  0  0  0  0
   29.6900   29.9910   43.8660 H   0  0  0  0  0  0  0  0  0  0  0  0
   30.5060   28.4080   44.5710 N   0  0  0  0  0  0  0  0  0  0  0  0
  1  6  1  1  0  0  0
  1  2  1  0  0  0  0
  2  7  1  1  0  0  0
  3  2  1  0  0  0  0
  4  8  1  0  0  0  0
  4  3  1  0  0  0  0
  5 10  1  6  0  0  0
  5  4  1  0  0  0  0
  5  1  1  0  0  0  0
  9  4  1  0  0  0  0
 11  1  1  0  0  0  0
 11 12  1  0  0  0  0
 13  2  1  0  0  0  0
 13 18  1  0  0  0  0
 14 15  1  0  0  0  0
 14 20  1  0  0  0  0
 15 21  1  0  0  0  0
 16 15  2  0  0  0  0
 17 18  2  0  0  0  0
 17 16  1  0  0  0  0
 18 19  1  0  0  0  0
 19 14  2  0  0  0  0
 22 16  1  0  0  0  0
 23  5  1  0  0  0  0
 24 23  1  0  0  0  0
 25 24  2  0  0  0  0
 26 25  1  0  0  0  0
 27 28  1  0  0  0  0
 27 25  1  0  0  0  0
 28 29  1  0  0  0  0
 28 30  2  0  0  0  0
 30 24  1  0  0  0  0
M  END
>  <minimizedAffinity>
-3.75012469

>  <minimizedRMSD>
1.09067106

$$$$
