
 OpenBabel03272506433D

 30 32  0  0  1  0  0  0  0  0999 V2000
   32.4050   28.3300   47.5990 C   0  0  2  0  0  0  0  0  0  0  0  0
   33.6860   28.3430   48.4190 C   0  0  1  0  0  0  0  0  0  0  0  0
   34.2510   27.0910   48.3340 O   0  0  0  0  0  0  0  0  0  0  0  0
   33.5610   26.3530   47.4030 C   0  0  0  0  0  0  0  0  0  0  0  0
   32.7980   27.3540   46.5330 C   0  0  1  0  0  0  0  0  0  0  0  0
   31.5510   27.9260   48.1860 H   0  0  0  0  0  0  0  0  0  0  0  0
   33.4580   28.6860   49.4350 H   0  0  0  0  0  0  0  0  0  0  0  0
   32.8860   25.5960   47.8460 H   0  0  0  0  0  0  0  0  0  0  0  0
   34.3050   25.8880   46.7160 H   0  0  0  0  0  0  0  0  0  0  0  0
   33.4560   27.7840   45.7760 H   0  0  0  0  0  0  0  0  0  0  0  0
   32.1150   29.5870   47.0940 O   0  0  0  0  0  0  0  0  0  0  0  0
   31.8860   30.1830   47.8320 H   0  0  0  0  0  0  0  0  0  0  0  0
   34.8080   29.5100   47.5610 S   0  0  0  0  0  0  0  0  0  0  0  0
   37.4740   29.5080   50.4810 C   0  0  0  0  0  0  0  0  0  0  0  0
   38.0440   30.7770   50.4650 C   0  0  0  0  0  0  0  0  0  0  0  0
   37.5810   31.6850   49.5020 C   0  0  0  0  0  0  0  0  0  0  0  0
   36.6130   31.2640   48.6550 N   0  0  0  0  0  0  0  0  0  0  0  0
   36.0800   30.0330   48.6910 C   0  0  0  0  0  0  0  0  0  0  0  0
   36.5120   29.1440   49.6120 N   0  0  0  0  0  0  0  0  0  0  0  0
   37.8550   28.8300   51.2390 H   0  0  0  0  0  0  0  0  0  0  0  0
   38.8190   31.1060   51.1490 H   0  0  0  0  0  0  0  0  0  0  0  0
   37.9520   32.6930   49.4000 H   0  0  0  0  0  0  0  0  0  0  0  0
   31.7130   26.7180   45.9380 O   0  0  0  0  0  0  0  0  0  0  0  0
   31.1250   27.3920   44.8570 C   0  0  0  0  0  0  0  0  0  0  0  0
   31.3940   26.6820   43.6300 C   0  0  0  0  0  0  0  0  0  0  0  0
   31.9030   25.8070   43.3250 H   0  0  0  0  0  0  0  0  0  0  0  0
   30.5230   27.7530   42.3290 S   0  0  0  0  0  0  0  0  0  0  0  0
   29.9790   28.9340   43.7150 C   0  0  0  0  0  0  0  0  0  0  0  0
   29.3710   29.9710   44.0460 H   0  0  0  0  0  0  0  0  0  0  0  0
   30.4060   28.4800   44.6570 N   0  0  0  0  0  0  0  0  0  0  0  0
  1  6  1  1  0  0  0
  1  2  1  0  0  0  0
  2  7  1  1  0  0  0
  3  2  1  0  0  0  0
  4  8  1  0  0  0  0
  4  3  1  0  0  0  0
  5 10  1  6  0  0  0
  5  4  1  0  0  0  0
  5  1  1  0  0  0  0
  9  4  1  0  0  0  0
 11  1  1  0  0  0  0
 11 12  1  0  0  0  0
 13  2  1  0  0  0  0
 13 18  1  0  0  0  0
 14 20  1  0  0  0  0
 15 14  1  0  0  0  0
 15 21  1  0  0  0  0
 16 15  2  0  0  0  0
 17 18  2  0  0  0  0
 17 16  1  0  0  0  0
 18 19  1  0  0  0  0
 19 14  2  0  0  0  0
 22 16  1  0  0  0  0
 23  5  1  0  0  0  0
 24 23  1  0  0  0  0
 25 24  2  0  0  0  0
 26 25  1  0  0  0  0
 27 25  1  0  0  0  0
 27 28  1  0  0  0  0
 28 29  1  0  0  0  0
 28 30  2  0  0  0  0
 30 24  1  0  0  0  0
M  END
>  <minimizedAffinity>
-3.75883937

>  <minimizedRMSD>
1.12574542

$$$$
