
 OpenBabel03272505493D

 38 42  0  0  0  0  0  0  0  0999 V2000
   38.4280   24.5530   35.4090 C   0  0  0  0  0  0  0  0  0  0  0  0
   38.6000   25.4600   36.4110 C   0  0  0  0  0  0  0  0  0  0  0  0
   38.2540   26.7950   36.2190 C   0  0  0  0  0  0  0  0  0  0  0  0
   37.7330   27.1700   34.9880 C   0  0  0  0  0  0  0  0  0  0  0  0
   37.5590   26.2370   33.9650 C   0  0  0  0  0  0  0  0  0  0  0  0
   37.9180   24.9630   34.2260 N   0  0  0  0  0  0  0  0  0  0  0  0
   39.0030   25.1850   37.3700 H   0  0  0  0  0  0  0  0  0  0  0  0
   38.3810   27.5340   36.9990 H   0  0  0  0  0  0  0  0  0  0  0  0
   37.4440   28.1830   34.7700 H   0  0  0  0  0  0  0  0  0  0  0  0
   38.7980   23.1030   35.5990 C   0  0  0  0  0  0  0  0  0  0  0  0
   40.2190   22.7260   35.4910 C   0  0  0  0  0  0  0  0  0  0  0  0
   39.5390   22.7380   36.8440 C   0  0  0  0  0  0  0  0  0  0  0  0
   40.4630   21.7110   35.0690 H   0  0  0  0  0  0  0  0  0  0  0  0
   40.9610   23.5010   35.2380 H   0  0  0  0  0  0  0  0  0  0  0  0
   39.8770   23.5810   37.4910 H   0  0  0  0  0  0  0  0  0  0  0  0
   39.3840   21.7680   37.3210 H   0  0  0  0  0  0  0  0  0  0  0  0
   36.5940   21.0150   33.4800 C   0  0  0  0  0  0  0  0  0  0  0  0
   35.6510   20.5330   34.4180 C   0  0  0  0  0  0  0  0  0  0  0  0
   35.7810   20.9290   35.7640 C   0  0  0  0  0  0  0  0  0  0  0  0
   36.8040   21.7540   36.0970 N   0  0  0  0  0  0  0  0  0  0  0  0
   37.6970   22.2010   35.1690 C   0  0  0  0  0  0  0  0  0  0  0  0
   37.5940   21.8370   33.8800 N   0  0  0  0  0  0  0  0  0  0  0  0
   36.5070   20.7180   32.4420 H   0  0  0  0  0  0  0  0  0  0  0  0
   34.8440   19.8760   34.1200 H   0  0  0  0  0  0  0  0  0  0  0  0
   35.0690   20.5730   36.4960 H   0  0  0  0  0  0  0  0  0  0  0  0
   37.0180   26.5670   32.6550 C   0  0  0  0  0  0  0  0  0  0  0  0
   36.0860   25.9540   31.8880 N   0  0  0  0  0  0  0  0  0  0  0  0
   35.9240   26.6530   30.7360 C   0  0  0  0  0  0  0  0  0  0  0  0
   36.7600   27.7110   30.7810 N   0  0  0  0  0  0  0  0  0  0  0  0
   37.4270   27.6690   31.9390 N   0  0  0  0  0  0  0  0  0  0  0  0
   35.3060   26.5190   29.8810 H   0  0  0  0  0  0  0  0  0  0  0  0
   37.0690   28.8090   29.9070 C   0  0  0  0  0  0  0  0  0  0  0  0
   36.6520   29.9930   30.5360 C   0  0  0  0  0  0  0  0  0  0  0  0
   36.1780   30.4330   31.4380 H   0  0  0  0  0  0  0  0  0  0  0  0
   37.1070   31.3630   29.3030 S   0  0  0  0  0  0  0  0  0  0  0  0
   37.7940   29.9910   28.1480 C   0  0  0  0  0  0  0  0  0  0  0  0
   38.3460   29.6150   27.0700 H   0  0  0  0  0  0  0  0  0  0  0  0
   37.6060   29.0540   28.7320 N   0  0  0  0  0  0  0  0  0  0  0  0
  1 10  1  0  0  0  0
  1  2  1  0  0  0  0
  2  7  1  0  0  0  0
  3  2  2  0  0  0  0
  3  8  1  0  0  0  0
  4  3  1  0  0  0  0
  5  6  1  0  0  0  0
  5  4  2  0  0  0  0
  6  1  2  0  0  0  0
  9  4  1  0  0  0  0
 10 12  1  0  0  0  0
 11 10  1  0  0  0  0
 11 12  1  0  0  0  0
 12 16  1  0  0  0  0
 12 15  1  0  0  0  0
 13 11  1  0  0  0  0
 14 11  1  0  0  0  0
 17 22  2  0  0  0  0
 17 18  1  0  0  0  0
 18 19  2  0  0  0  0
 19 20  1  0  0  0  0
 19 25  1  0  0  0  0
 21 10  1  0  0  0  0
 21 20  2  0  0  0  0
 22 21  1  0  0  0  0
 23 17  1  0  0  0  0
 24 18  1  0  0  0  0
 26  5  1  0  0  0  0
 27 26  1  0  0  0  0
 28 29  1  0  0  0  0
 28 27  2  0  0  0  0
 29 30  1  0  0  0  0
 30 26  2  0  0  0  0
 31 28  1  0  0  0  0
 32 33  2  0  0  0  0
 32 29  1  0  0  0  0
 33 34  1  0  0  0  0
 35 33  1  0  0  0  0
 36 38  2  0  0  0  0
 36 35  1  0  0  0  0
 37 36  1  0  0  0  0
 38 32  1  0  0  0  0
M  END
>  <minimizedAffinity>
-5.88398266

$$$$

 OpenBabel03272505493D

 38 42  0  0  0  0  0  0  0  0999 V2000
   39.0100   24.4600   35.6700 C   0  0  0  0  0  0  0  0  0  0  0  0
   40.3300   24.5370   35.3400 C   0  0  0  0  0  0  0  0  0  0  0  0
   40.7800   25.5200   34.4620 C   0  0  0  0  0  0  0  0  0  0  0  0
   39.8520   26.4110   33.9390 C   0  0  0  0  0  0  0  0  0  0  0  0
   38.5010   26.3270   34.2800 C   0  0  0  0  0  0  0  0  0  0  0  0
   38.1420   25.3470   35.1360 N   0  0  0  0  0  0  0  0  0  0  0  0
   41.0620   23.8550   35.7360 H   0  0  0  0  0  0  0  0  0  0  0  0
   41.8220   25.6030   34.1850 H   0  0  0  0  0  0  0  0  0  0  0  0
   40.1280   27.1950   33.2570 H   0  0  0  0  0  0  0  0  0  0  0  0
   38.5060   23.4020   36.6180 C   0  0  0  0  0  0  0  0  0  0  0  0
   39.3850   22.9780   37.7230 C   0  0  0  0  0  0  0  0  0  0  0  0
   38.1650   23.8280   38.0090 C   0  0  0  0  0  0  0  0  0  0  0  0
   39.3290   21.9040   38.0570 H   0  0  0  0  0  0  0  0  0  0  0  0
   40.3940   23.4150   37.8030 H   0  0  0  0  0  0  0  0  0  0  0  0
   38.4230   24.8750   38.2900 H   0  0  0  0  0  0  0  0  0  0  0  0
   37.3520   23.3450   38.5570 H   0  0  0  0  0  0  0  0  0  0  0  0
   36.8750   21.3410   34.0100 C   0  0  0  0  0  0  0  0  0  0  0  0
   35.8160   20.7380   34.7290 C   0  0  0  0  0  0  0  0  0  0  0  0
   35.6730   21.0440   36.0980 C   0  0  0  0  0  0  0  0  0  0  0  0
   36.5580   21.9030   36.6610 N   0  0  0  0  0  0  0  0  0  0  0  0
   37.5680   22.4670   35.9410 C   0  0  0  0  0  0  0  0  0  0  0  0
   37.7250   22.1910   34.6360 N   0  0  0  0  0  0  0  0  0  0  0  0
   36.9960   21.1150   32.9590 H   0  0  0  0  0  0  0  0  0  0  0  0
   35.1240   20.0560   34.2490 H   0  0  0  0  0  0  0  0  0  0  0  0
   34.8690   20.5940   36.6630 H   0  0  0  0  0  0  0  0  0  0  0  0
   37.4810   27.2290   33.7670 C   0  0  0  0  0  0  0  0  0  0  0  0
   37.0820   27.5070   32.5030 N   0  0  0  0  0  0  0  0  0  0  0  0
   36.0850   28.4280   32.5410 C   0  0  0  0  0  0  0  0  0  0  0  0
   35.8590   28.7300   33.8360 N   0  0  0  0  0  0  0  0  0  0  0  0
   36.6990   28.0090   34.5870 N   0  0  0  0  0  0  0  0  0  0  0  0
   35.5060   28.9090   31.7900 H   0  0  0  0  0  0  0  0  0  0  0  0
   34.9640   29.6040   34.5430 C   0  0  0  0  0  0  0  0  0  0  0  0
   35.7270   30.6340   35.1160 C   0  0  0  0  0  0  0  0  0  0  0  0
   36.7470   31.0540   35.2480 H   0  0  0  0  0  0  0  0  0  0  0  0
   34.4530   31.7170   36.0150 S   0  0  0  0  0  0  0  0  0  0  0  0
   33.1000   30.4990   35.4020 C   0  0  0  0  0  0  0  0  0  0  0  0
   31.8910   30.1240   35.3260 H   0  0  0  0  0  0  0  0  0  0  0  0
   33.6860   29.7450   34.8190 N   0  0  0  0  0  0  0  0  0  0  0  0
  1 10  1  0  0  0  0
  2  1  1  0  0  0  0
  2  7  1  0  0  0  0
  3  2  2  0  0  0  0
  4  5  2  0  0  0  0
  4  3  1  0  0  0  0
  5  6  1  0  0  0  0
  6  1  2  0  0  0  0
  8  3  1  0  0  0  0
  9  4  1  0  0  0  0
 10 11  1  0  0  0  0
 10 12  1  0  0  0  0
 11 14  1  0  0  0  0
 11 12  1  0  0  0  0
 11 13  1  0  0  0  0
 12 15  1  0  0  0  0
 12 16  1  0  0  0  0
 17 22  2  0  0  0  0
 17 18  1  0  0  0  0
 18 19  2  0  0  0  0
 19 20  1  0  0  0  0
 19 25  1  0  0  0  0
 21 10  1  0  0  0  0
 21 20  2  0  0  0  0
 22 21  1  0  0  0  0
 23 17  1  0  0  0  0
 24 18  1  0  0  0  0
 26  5  1  0  0  0  0
 26 30  2  0  0  0  0
 27 28  2  0  0  0  0
 27 26  1  0  0  0  0
 28 29  1  0  0  0  0
 29 32  1  0  0  0  0
 29 30  1  0  0  0  0
 31 28  1  0  0  0  0
 32 38  1  0  0  0  0
 32 33  2  0  0  0  0
 33 34  1  0  0  0  0
 33 35  1  0  0  0  0
 36 35  1  0  0  0  0
 37 36  1  0  0  0  0
 38 36  2  0  0  0  0
M  END
>  <minimizedAffinity>
-5.87717009

$$$$

 OpenBabel03272505493D

 38 42  0  0  0  0  0  0  0  0999 V2000
   35.8060   29.4800   33.1570 C   0  0  0  0  0  0  0  0  0  0  0  0
   36.1590   29.9990   31.9470 C   0  0  0  0  0  0  0  0  0  0  0  0
   36.9460   29.2610   31.0680 C   0  0  0  0  0  0  0  0  0  0  0  0
   37.3570   27.9930   31.4570 C   0  0  0  0  0  0  0  0  0  0  0  0
   36.9940   27.4670   32.6970 C   0  0  0  0  0  0  0  0  0  0  0  0
   36.2300   28.2420   33.4950 N   0  0  0  0  0  0  0  0  0  0  0  0
   35.8490   30.9800   31.6310 H   0  0  0  0  0  0  0  0  0  0  0  0
   37.2390   29.6500   30.1020 H   0  0  0  0  0  0  0  0  0  0  0  0
   37.9660   27.3680   30.8280 H   0  0  0  0  0  0  0  0  0  0  0  0
   34.9550   30.2660   34.1230 C   0  0  0  0  0  0  0  0  0  0  0  0
   35.6220   30.9420   35.2500 C   0  0  0  0  0  0  0  0  0  0  0  0
   35.0750   31.7550   34.0950 C   0  0  0  0  0  0  0  0  0  0  0  0
   35.0590   31.0240   36.2210 H   0  0  0  0  0  0  0  0  0  0  0  0
   36.7110   30.8250   35.3770 H   0  0  0  0  0  0  0  0  0  0  0  0
   35.8770   32.1810   33.4480 H   0  0  0  0  0  0  0  0  0  0  0  0
   34.2120   32.3890   34.3090 H   0  0  0  0  0  0  0  0  0  0  0  0
   31.6640   28.8360   33.2100 C   0  0  0  0  0  0  0  0  0  0  0  0
   31.0650   28.6400   34.4770 C   0  0  0  0  0  0  0  0  0  0  0  0
   31.7940   29.0000   35.6280 C   0  0  0  0  0  0  0  0  0  0  0  0
   33.0370   29.5180   35.4670 N   0  0  0  0  0  0  0  0  0  0  0  0
   33.5870   29.6930   34.2320 C   0  0  0  0  0  0  0  0  0  0  0  0
   32.9110   29.3580   33.1210 N   0  0  0  0  0  0  0  0  0  0  0  0
   31.1150   28.5640   32.3180 H   0  0  0  0  0  0  0  0  0  0  0  0
   30.0690   28.2250   34.5720 H   0  0  0  0  0  0  0  0  0  0  0  0
   31.3530   28.8590   36.6050 H   0  0  0  0  0  0  0  0  0  0  0  0
   37.3920   26.1460   33.1610 C   0  0  0  0  0  0  0  0  0  0  0  0
   37.6040   24.9870   32.4960 N   0  0  0  0  0  0  0  0  0  0  0  0
   37.9630   24.0220   33.3800 C   0  0  0  0  0  0  0  0  0  0  0  0
   37.9760   24.5800   34.6080 N   0  0  0  0  0  0  0  0  0  0  0  0
   37.6310   25.8670   34.4870 N   0  0  0  0  0  0  0  0  0  0  0  0
   38.2130   22.9940   33.2780 H   0  0  0  0  0  0  0  0  0  0  0  0
   38.2630   24.1210   35.9390 C   0  0  0  0  0  0  0  0  0  0  0  0
   39.4830   23.4250   35.9030 C   0  0  0  0  0  0  0  0  0  0  0  0
   40.3230   23.0820   35.2630 H   0  0  0  0  0  0  0  0  0  0  0  0
   39.7580   22.8700   37.6980 S   0  0  0  0  0  0  0  0  0  0  0  0
   38.0980   23.7300   38.1380 C   0  0  0  0  0  0  0  0  0  0  0  0
   37.2030   24.0630   38.9720 H   0  0  0  0  0  0  0  0  0  0  0  0
   37.7600   24.1430   37.1530 N   0  0  0  0  0  0  0  0  0  0  0  0
  1  6  1  0  0  0  0
  1 10  1  0  0  0  0
  2  1  2  0  0  0  0
  3  4  2  0  0  0  0
  3  2  1  0  0  0  0
  4  5  1  0  0  0  0
  5 26  1  0  0  0  0
  5  6  2  0  0  0  0
  7  2  1  0  0  0  0
  8  3  1  0  0  0  0
  9  4  1  0  0  0  0
 10 21  1  0  0  0  0
 10 11  1  0  0  0  0
 11 14  1  0  0  0  0
 11 13  1  0  0  0  0
 12 10  1  0  0  0  0
 12 16  1  0  0  0  0
 12 11  1  0  0  0  0
 15 12  1  0  0  0  0
 17 18  1  0  0  0  0
 18 24  1  0  0  0  0
 18 19  2  0  0  0  0
 19 25  1  0  0  0  0
 20 19  1  0  0  0  0
 21 20  2  0  0  0  0
 22 17  2  0  0  0  0
 22 21  1  0  0  0  0
 23 17  1  0  0  0  0
 26 30  2  0  0  0  0
 27 26  1  0  0  0  0
 27 28  2  0  0  0  0
 28 29  1  0  0  0  0
 29 32  1  0  0  0  0
 30 29  1  0  0  0  0
 31 28  1  0  0  0  0
 32 38  1  0  0  0  0
 33 32  2  0  0  0  0
 33 35  1  0  0  0  0
 34 33  1  0  0  0  0
 35 36  1  0  0  0  0
 36 37  1  0  0  0  0
 38 36  2  0  0  0  0
M  END
>  <minimizedAffinity>
-5.8175559

$$$$

 OpenBabel03272505493D

 38 42  0  0  0  0  0  0  0  0999 V2000
   36.9650   25.8700   32.9190 C   0  0  0  0  0  0  0  0  0  0  0  0
   36.7810   27.1960   33.1750 C   0  0  0  0  0  0  0  0  0  0  0  0
   37.1290   27.7270   34.4150 C   0  0  0  0  0  0  0  0  0  0  0  0
   37.6610   26.8740   35.3710 C   0  0  0  0  0  0  0  0  0  0  0  0
   37.8460   25.5180   35.1040 C   0  0  0  0  0  0  0  0  0  0  0  0
   37.4860   25.0760   33.8810 N   0  0  0  0  0  0  0  0  0  0  0  0
   36.3700   27.8700   32.4450 H   0  0  0  0  0  0  0  0  0  0  0  0
   36.9940   28.7760   34.6430 H   0  0  0  0  0  0  0  0  0  0  0  0
   37.9520   27.2160   36.3490 H   0  0  0  0  0  0  0  0  0  0  0  0
   36.5940   25.2770   31.5830 C   0  0  0  0  0  0  0  0  0  0  0  0
   35.4360   24.3670   31.5210 C   0  0  0  0  0  0  0  0  0  0  0  0
   35.3360   25.7610   30.9390 C   0  0  0  0  0  0  0  0  0  0  0  0
   35.4700   23.5220   30.7770 H   0  0  0  0  0  0  0  0  0  0  0  0
   34.9000   24.1170   32.4510 H   0  0  0  0  0  0  0  0  0  0  0  0
   34.6900   26.4380   31.5460 H   0  0  0  0  0  0  0  0  0  0  0  0
   35.2570   25.8320   29.8510 H   0  0  0  0  0  0  0  0  0  0  0  0
   39.6660   26.0240   29.6560 C   0  0  0  0  0  0  0  0  0  0  0  0
   39.9790   24.7620   29.0980 C   0  0  0  0  0  0  0  0  0  0  0  0
   39.1350   23.6710   29.3870 C   0  0  0  0  0  0  0  0  0  0  0  0
   38.0620   23.8830   30.1880 N   0  0  0  0  0  0  0  0  0  0  0  0
   37.7870   25.1110   30.7120 C   0  0  0  0  0  0  0  0  0  0  0  0
   38.5770   26.1660   30.4500 N   0  0  0  0  0  0  0  0  0  0  0  0
   40.3050   26.8710   29.4420 H   0  0  0  0  0  0  0  0  0  0  0  0
   40.8440   24.6260   28.4600 H   0  0  0  0  0  0  0  0  0  0  0  0
   39.3580   22.7000   28.9690 H   0  0  0  0  0  0  0  0  0  0  0  0
   38.4000   24.5730   36.0630 C   0  0  0  0  0  0  0  0  0  0  0  0
   38.0390   24.2680   37.3320 N   0  0  0  0  0  0  0  0  0  0  0  0
   38.8740   23.3130   37.8170 C   0  0  0  0  0  0  0  0  0  0  0  0
   39.7630   23.0190   36.8460 N   0  0  0  0  0  0  0  0  0  0  0  0
   39.4850   23.7770   35.7800 N   0  0  0  0  0  0  0  0  0  0  0  0
   38.9400   22.8040   38.7480 H   0  0  0  0  0  0  0  0  0  0  0  0
   40.8780   22.1210   36.7160 C   0  0  0  0  0  0  0  0  0  0  0  0
   41.2440   22.0800   35.3610 C   0  0  0  0  0  0  0  0  0  0  0  0
   41.0250   22.4600   34.3400 H   0  0  0  0  0  0  0  0  0  0  0  0
   42.7110   20.8750   35.3090 S   0  0  0  0  0  0  0  0  0  0  0  0
   42.5110   20.6710   37.2080 C   0  0  0  0  0  0  0  0  0  0  0  0
   42.8620   20.1650   38.3170 H   0  0  0  0  0  0  0  0  0  0  0  0
   41.6460   21.3420   37.4440 N   0  0  0  0  0  0  0  0  0  0  0  0
  1  2  2  0  0  0  0
  1  6  1  0  0  0  0
  2  3  1  0  0  0  0
  3  8  1  0  0  0  0
  3  4  2  0  0  0  0
  4  9  1  0  0  0  0
  5  4  1  0  0  0  0
  5 26  1  0  0  0  0
  6  5  2  0  0  0  0
  7  2  1  0  0  0  0
 10  1  1  0  0  0  0
 11 10  1  0  0  0  0
 11 14  1  0  0  0  0
 12 11  1  0  0  0  0
 12 15  1  0  0  0  0
 12 10  1  0  0  0  0
 13 11  1  0  0  0  0
 16 12  1  0  0  0  0
 17 22  1  0  0  0  0
 18 19  1  0  0  0  0
 18 17  2  0  0  0  0
 19 20  2  0  0  0  0
 20 21  1  0  0  0  0
 21 10  1  0  0  0  0
 22 21  2  0  0  0  0
 23 17  1  0  0  0  0
 24 18  1  0  0  0  0
 25 19  1  0  0  0  0
 26 27  1  0  0  0  0
 27 28  2  0  0  0  0
 28 31  1  0  0  0  0
 29 28  1  0  0  0  0
 30 26  2  0  0  0  0
 30 29  1  0  0  0  0
 32 29  1  0  0  0  0
 32 38  1  0  0  0  0
 33 32  2  0  0  0  0
 34 33  1  0  0  0  0
 35 33  1  0  0  0  0
 35 36  1  0  0  0  0
 36 38  2  0  0  0  0
 36 37  1  0  0  0  0
M  END
>  <minimizedAffinity>
-5.75239992

$$$$

 OpenBabel03272505493D

 38 42  0  0  0  0  0  0  0  0999 V2000
   38.5860   25.0240   33.6930 C   0  0  0  0  0  0  0  0  0  0  0  0
   38.1110   23.9430   33.0140 C   0  0  0  0  0  0  0  0  0  0  0  0
   37.0080   24.0690   32.1740 C   0  0  0  0  0  0  0  0  0  0  0  0
   36.4120   25.3170   32.0510 C   0  0  0  0  0  0  0  0  0  0  0  0
   36.9020   26.4200   32.7500 C   0  0  0  0  0  0  0  0  0  0  0  0
   37.9740   26.2200   33.5440 N   0  0  0  0  0  0  0  0  0  0  0  0
   38.5620   22.9700   33.0980 H   0  0  0  0  0  0  0  0  0  0  0  0
   36.6120   23.2260   31.6230 H   0  0  0  0  0  0  0  0  0  0  0  0
   35.5580   25.4870   31.4210 H   0  0  0  0  0  0  0  0  0  0  0  0
   39.7800   24.9070   34.6080 C   0  0  0  0  0  0  0  0  0  0  0  0
   41.1060   24.6890   34.0000 C   0  0  0  0  0  0  0  0  0  0  0  0
   40.7620   26.0330   34.6080 C   0  0  0  0  0  0  0  0  0  0  0  0
   41.8490   24.0650   34.5700 H   0  0  0  0  0  0  0  0  0  0  0  0
   41.1820   24.5820   32.9060 H   0  0  0  0  0  0  0  0  0  0  0  0
   40.6120   26.8290   33.8420 H   0  0  0  0  0  0  0  0  0  0  0  0
   41.2960   26.3070   35.5210 H   0  0  0  0  0  0  0  0  0  0  0  0
   37.9710   24.2800   37.7770 C   0  0  0  0  0  0  0  0  0  0  0  0
   38.7370   23.2380   38.3530 C   0  0  0  0  0  0  0  0  0  0  0  0
   39.8630   22.7640   37.6510 C   0  0  0  0  0  0  0  0  0  0  0  0
   40.1600   23.3290   36.4540 N   0  0  0  0  0  0  0  0  0  0  0  0
   39.4010   24.3300   35.9240 C   0  0  0  0  0  0  0  0  0  0  0  0
   38.3240   24.7980   36.5760 N   0  0  0  0  0  0  0  0  0  0  0  0
   37.1040   24.6530   38.3050 H   0  0  0  0  0  0  0  0  0  0  0  0
   38.4740   22.8090   39.3130 H   0  0  0  0  0  0  0  0  0  0  0  0
   40.4610   21.9710   38.0760 H   0  0  0  0  0  0  0  0  0  0  0  0
   36.3230   27.7530   32.6630 C   0  0  0  0  0  0  0  0  0  0  0  0
   35.8670   28.4670   31.6070 N   0  0  0  0  0  0  0  0  0  0  0  0
   35.4180   29.6720   32.0410 C   0  0  0  0  0  0  0  0  0  0  0  0
   35.5950   29.7140   33.3780 N   0  0  0  0  0  0  0  0  0  0  0  0
   36.1420   28.5570   33.7650 N   0  0  0  0  0  0  0  0  0  0  0  0
   34.9910   30.5130   31.5500 H   0  0  0  0  0  0  0  0  0  0  0  0
   35.3360   30.6750   34.4150 C   0  0  0  0  0  0  0  0  0  0  0  0
   34.1860   31.3970   34.0590 C   0  0  0  0  0  0  0  0  0  0  0  0
   33.3880   31.5330   33.2990 H   0  0  0  0  0  0  0  0  0  0  0  0
   33.9440   32.6240   35.4870 S   0  0  0  0  0  0  0  0  0  0  0  0
   35.5130   31.8720   36.2990 C   0  0  0  0  0  0  0  0  0  0  0  0
   36.3650   31.8170   37.2370 H   0  0  0  0  0  0  0  0  0  0  0  0
   35.8220   31.0840   35.5660 N   0  0  0  0  0  0  0  0  0  0  0  0
  1 10  1  0  0  0  0
  2  7  1  0  0  0  0
  2  1  2  0  0  0  0
  3  2  1  0  0  0  0
  4  3  2  0  0  0  0
  4  5  1  0  0  0  0
  5  6  2  0  0  0  0
  6  1  1  0  0  0  0
  8  3  1  0  0  0  0
  9  4  1  0  0  0  0
 10 12  1  0  0  0  0
 10 21  1  0  0  0  0
 11 13  1  0  0  0  0
 11 10  1  0  0  0  0
 11 12  1  0  0  0  0
 12 16  1  0  0  0  0
 14 11  1  0  0  0  0
 15 12  1  0  0  0  0
 17 23  1  0  0  0  0
 17 18  1  0  0  0  0
 18 24  1  0  0  0  0
 19 25  1  0  0  0  0
 19 18  2  0  0  0  0
 20 19  1  0  0  0  0
 21 20  2  0  0  0  0
 21 22  1  0  0  0  0
 22 17  2  0  0  0  0
 26  5  1  0  0  0  0
 26 30  2  0  0  0  0
 27 28  2  0  0  0  0
 27 26  1  0  0  0  0
 28 29  1  0  0  0  0
 29 30  1  0  0  0  0
 29 32  1  0  0  0  0
 31 28  1  0  0  0  0
 32 38  1  0  0  0  0
 33 32  2  0  0  0  0
 33 35  1  0  0  0  0
 34 33  1  0  0  0  0
 35 36  1  0  0  0  0
 36 37  1  0  0  0  0
 38 36  2  0  0  0  0
M  END
>  <minimizedAffinity>
-5.64923477

$$$$

 OpenBabel03272505493D

 38 42  0  0  0  0  0  0  0  0999 V2000
   36.9910   26.5150   32.8920 C   0  0  0  0  0  0  0  0  0  0  0  0
   36.7090   27.7650   33.3560 C   0  0  0  0  0  0  0  0  0  0  0  0
   36.9500   28.0920   34.6880 C   0  0  0  0  0  0  0  0  0  0  0  0
   37.4810   27.1160   35.5200 C   0  0  0  0  0  0  0  0  0  0  0  0
   37.7670   25.8380   35.0390 C   0  0  0  0  0  0  0  0  0  0  0  0
   37.5060   25.5960   33.7380 N   0  0  0  0  0  0  0  0  0  0  0  0
   36.2970   28.5320   32.7240 H   0  0  0  0  0  0  0  0  0  0  0  0
   36.7360   29.0770   35.0810 H   0  0  0  0  0  0  0  0  0  0  0  0
   37.6930   27.2980   36.5590 H   0  0  0  0  0  0  0  0  0  0  0  0
   36.7350   26.1440   31.4530 C   0  0  0  0  0  0  0  0  0  0  0  0
   36.4230   24.7370   31.1400 C   0  0  0  0  0  0  0  0  0  0  0  0
   35.3350   25.7880   31.0700 C   0  0  0  0  0  0  0  0  0  0  0  0
   36.7770   24.3260   30.1540 H   0  0  0  0  0  0  0  0  0  0  0  0
   36.4230   23.9950   31.9550 H   0  0  0  0  0  0  0  0  0  0  0  0
   34.5960   25.7020   31.9010 H   0  0  0  0  0  0  0  0  0  0  0  0
   34.9500   26.0270   30.0770 H   0  0  0  0  0  0  0  0  0  0  0  0
   39.5070   27.5890   29.4690 C   0  0  0  0  0  0  0  0  0  0  0  0
   38.8640   28.6550   28.7960 C   0  0  0  0  0  0  0  0  0  0  0  0
   37.4910   28.8670   29.0290 C   0  0  0  0  0  0  0  0  0  0  0  0
   36.8490   28.0370   29.8890 N   0  0  0  0  0  0  0  0  0  0  0  0
   37.4960   27.0180   30.5220 C   0  0  0  0  0  0  0  0  0  0  0  0
   38.8050   26.7970   30.3150 N   0  0  0  0  0  0  0  0  0  0  0  0
   40.5620   27.4150   29.2980 H   0  0  0  0  0  0  0  0  0  0  0  0
   39.4060   29.3010   28.1150 H   0  0  0  0  0  0  0  0  0  0  0  0
   36.9830   29.6770   28.5260 H   0  0  0  0  0  0  0  0  0  0  0  0
   38.3250   24.7720   35.8600 C   0  0  0  0  0  0  0  0  0  0  0  0
   37.9680   24.2950   37.0760 N   0  0  0  0  0  0  0  0  0  0  0  0
   38.8050   23.2850   37.4240 C   0  0  0  0  0  0  0  0  0  0  0  0
   39.6930   23.1290   36.4200 N   0  0  0  0  0  0  0  0  0  0  0  0
   39.4110   24.0240   35.4680 N   0  0  0  0  0  0  0  0  0  0  0  0
   38.8740   22.6540   38.2770 H   0  0  0  0  0  0  0  0  0  0  0  0
   40.8090   22.2590   36.1670 C   0  0  0  0  0  0  0  0  0  0  0  0
   41.1910   21.6780   37.3870 C   0  0  0  0  0  0  0  0  0  0  0  0
   40.9830   21.6130   38.4760 H   0  0  0  0  0  0  0  0  0  0  0  0
   42.6580   20.5620   36.9340 S   0  0  0  0  0  0  0  0  0  0  0  0
   42.4380   21.1400   35.1150 C   0  0  0  0  0  0  0  0  0  0  0  0
   42.7770   21.1250   33.8930 H   0  0  0  0  0  0  0  0  0  0  0  0
   41.5710   21.8440   35.1790 N   0  0  0  0  0  0  0  0  0  0  0  0
  1  2  2  0  0  0  0
  1  6  1  0  0  0  0
  2  3  1  0  0  0  0
  3  8  1  0  0  0  0
  3  4  2  0  0  0  0
  4  9  1  0  0  0  0
  5  4  1  0  0  0  0
  5 26  1  0  0  0  0
  6  5  2  0  0  0  0
  7  2  1  0  0  0  0
 10  1  1  0  0  0  0
 11 10  1  0  0  0  0
 11 14  1  0  0  0  0
 12 11  1  0  0  0  0
 12 10  1  0  0  0  0
 12 15  1  0  0  0  0
 13 11  1  0  0  0  0
 16 12  1  0  0  0  0
 17 22  1  0  0  0  0
 18 19  1  0  0  0  0
 18 17  2  0  0  0  0
 19 20  2  0  0  0  0
 20 21  1  0  0  0  0
 21 10  1  0  0  0  0
 22 21  2  0  0  0  0
 23 17  1  0  0  0  0
 24 18  1  0  0  0  0
 25 19  1  0  0  0  0
 26 27  1  0  0  0  0
 27 28  2  0  0  0  0
 28 31  1  0  0  0  0
 29 28  1  0  0  0  0
 30 26  2  0  0  0  0
 30 29  1  0  0  0  0
 32 29  1  0  0  0  0
 32 33  2  0  0  0  0
 33 34  1  0  0  0  0
 35 33  1  0  0  0  0
 36 38  2  0  0  0  0
 36 35  1  0  0  0  0
 37 36  1  0  0  0  0
 38 32  1  0  0  0  0
M  END
>  <minimizedAffinity>
-5.58210373

$$$$

 OpenBabel03272505493D

 38 42  0  0  0  0  0  0  0  0999 V2000
   38.2400   24.3800   35.3290 C   0  0  0  0  0  0  0  0  0  0  0  0
   38.4900   25.2260   36.3680 C   0  0  0  0  0  0  0  0  0  0  0  0
   38.2580   26.5920   36.2350 C   0  0  0  0  0  0  0  0  0  0  0  0
   37.7680   27.0620   35.0240 C   0  0  0  0  0  0  0  0  0  0  0  0
   37.5140   26.1930   33.9630 C   0  0  0  0  0  0  0  0  0  0  0  0
   37.7640   24.8820   34.1680 N   0  0  0  0  0  0  0  0  0  0  0  0
   38.8690   24.8770   37.3120 H   0  0  0  0  0  0  0  0  0  0  0  0
   38.4480   27.2840   37.0450 H   0  0  0  0  0  0  0  0  0  0  0  0
   37.5660   28.1050   34.8510 H   0  0  0  0  0  0  0  0  0  0  0  0
   38.4860   22.8980   35.4550 C   0  0  0  0  0  0  0  0  0  0  0  0
   37.3730   22.0410   35.9040 C   0  0  0  0  0  0  0  0  0  0  0  0
   37.8240   22.0020   34.4590 C   0  0  0  0  0  0  0  0  0  0  0  0
   37.6240   21.1360   36.5250 H   0  0  0  0  0  0  0  0  0  0  0  0
   36.4110   22.5090   36.1710 H   0  0  0  0  0  0  0  0  0  0  0  0
   37.0920   22.4780   33.7650 H   0  0  0  0  0  0  0  0  0  0  0  0
   38.3100   21.0830   34.1240 H   0  0  0  0  0  0  0  0  0  0  0  0
   41.4960   21.7820   37.2980 C   0  0  0  0  0  0  0  0  0  0  0  0
   42.5330   22.0930   36.3870 C   0  0  0  0  0  0  0  0  0  0  0  0
   42.1900   22.6810   35.1530 C   0  0  0  0  0  0  0  0  0  0  0  0
   40.8800   22.9210   34.8970 N   0  0  0  0  0  0  0  0  0  0  0  0
   39.9040   22.6090   35.7960 C   0  0  0  0  0  0  0  0  0  0  0  0
   40.2070   22.0480   36.9780 N   0  0  0  0  0  0  0  0  0  0  0  0
   41.7460   21.3300   38.2490 H   0  0  0  0  0  0  0  0  0  0  0  0
   43.5710   21.8890   36.6220 H   0  0  0  0  0  0  0  0  0  0  0  0
   42.9680   22.9270   34.4440 H   0  0  0  0  0  0  0  0  0  0  0  0
   37.0010   26.6230   32.6710 C   0  0  0  0  0  0  0  0  0  0  0  0
   36.2310   25.9900   31.7550 N   0  0  0  0  0  0  0  0  0  0  0  0
   36.0190   26.8180   30.7000 C   0  0  0  0  0  0  0  0  0  0  0  0
   36.6600   27.9760   30.9570 N   0  0  0  0  0  0  0  0  0  0  0  0
   37.2580   27.8690   32.1480 N   0  0  0  0  0  0  0  0  0  0  0  0
   35.4820   26.7160   29.7880 H   0  0  0  0  0  0  0  0  0  0  0  0
   36.8300   29.2280   30.2690 C   0  0  0  0  0  0  0  0  0  0  0  0
   37.5350   28.9760   29.0810 C   0  0  0  0  0  0  0  0  0  0  0  0
   38.0200   28.2020   28.4500 H   0  0  0  0  0  0  0  0  0  0  0  0
   37.6990   30.6830   28.2650 S   0  0  0  0  0  0  0  0  0  0  0  0
   36.7400   31.4070   29.7630 C   0  0  0  0  0  0  0  0  0  0  0  0
   36.2230   32.3810   30.3900 H   0  0  0  0  0  0  0  0  0  0  0  0
   36.5420   30.5040   30.3950 N   0  0  0  0  0  0  0  0  0  0  0  0
  1 10  1  0  0  0  0
  1  2  1  0  0  0  0
  2  7  1  0  0  0  0
  3  2  2  0  0  0  0
  3  8  1  0  0  0  0
  4  3  1  0  0  0  0
  5  6  1  0  0  0  0
  5  4  2  0  0  0  0
  6  1  2  0  0  0  0
  9  4  1  0  0  0  0
 10 21  1  0  0  0  0
 10 11  1  0  0  0  0
 11 14  1  0  0  0  0
 11 13  1  0  0  0  0
 12 10  1  0  0  0  0
 12 11  1  0  0  0  0
 15 12  1  0  0  0  0
 16 12  1  0  0  0  0
 17 23  1  0  0  0  0
 18 24  1  0  0  0  0
 18 17  2  0  0  0  0
 19 18  1  0  0  0  0
 20 19  2  0  0  0  0
 20 21  1  0  0  0  0
 21 22  2  0  0  0  0
 22 17  1  0  0  0  0
 25 19  1  0  0  0  0
 26  5  1  0  0  0  0
 27 26  1  0  0  0  0
 28 29  1  0  0  0  0
 28 27  2  0  0  0  0
 29 30  1  0  0  0  0
 30 26  2  0  0  0  0
 31 28  1  0  0  0  0
 32 38  1  0  0  0  0
 32 29  1  0  0  0  0
 33 32  2  0  0  0  0
 34 33  1  0  0  0  0
 35 33  1  0  0  0  0
 35 36  1  0  0  0  0
 36 37  1  0  0  0  0
 36 38  2  0  0  0  0
M  END
>  <minimizedAffinity>
-5.4792819

$$$$

 OpenBabel03272505493D

 38 42  0  0  0  0  0  0  0  0999 V2000
   35.5840   29.3050   32.0420 C   0  0  0  0  0  0  0  0  0  0  0  0
   36.0780   29.7690   30.8590 C   0  0  0  0  0  0  0  0  0  0  0  0
   36.9990   29.0150   30.1370 C   0  0  0  0  0  0  0  0  0  0  0  0
   37.3970   27.7890   30.6540 C   0  0  0  0  0  0  0  0  0  0  0  0
   36.8890   27.3200   31.8660 C   0  0  0  0  0  0  0  0  0  0  0  0
   36.0000   28.1070   32.5080 N   0  0  0  0  0  0  0  0  0  0  0  0
   35.7800   30.7160   30.4450 H   0  0  0  0  0  0  0  0  0  0  0  0
   37.4050   29.3600   29.1960 H   0  0  0  0  0  0  0  0  0  0  0  0
   38.1040   27.1550   30.1500 H   0  0  0  0  0  0  0  0  0  0  0  0
   34.5860   30.1080   32.8370 C   0  0  0  0  0  0  0  0  0  0  0  0
   33.2840   30.4150   32.2170 C   0  0  0  0  0  0  0  0  0  0  0  0
   33.3700   29.3980   33.3360 C   0  0  0  0  0  0  0  0  0  0  0  0
   32.7960   31.3950   32.4770 H   0  0  0  0  0  0  0  0  0  0  0  0
   33.0920   30.0840   31.1830 H   0  0  0  0  0  0  0  0  0  0  0  0
   33.2200   28.3510   32.9810 H   0  0  0  0  0  0  0  0  0  0  0  0
   32.9100   29.6780   34.2860 H   0  0  0  0  0  0  0  0  0  0  0  0
   36.0280   31.5490   35.9280 C   0  0  0  0  0  0  0  0  0  0  0  0
   36.5180   32.7960   35.4720 C   0  0  0  0  0  0  0  0  0  0  0  0
   36.3490   33.1290   34.1130 C   0  0  0  0  0  0  0  0  0  0  0  0
   35.7240   32.2370   33.3060 N   0  0  0  0  0  0  0  0  0  0  0  0
   35.2630   31.0430   33.7740 C   0  0  0  0  0  0  0  0  0  0  0  0
   35.4130   30.7040   35.0660 N   0  0  0  0  0  0  0  0  0  0  0  0
   36.1510   31.2810   36.9690 H   0  0  0  0  0  0  0  0  0  0  0  0
   37.0130   33.4880   36.1440 H   0  0  0  0  0  0  0  0  0  0  0  0
   36.7160   34.0770   33.7470 H   0  0  0  0  0  0  0  0  0  0  0  0
   37.2650   26.0450   32.4590 C   0  0  0  0  0  0  0  0  0  0  0  0
   37.4430   24.8180   31.9140 N   0  0  0  0  0  0  0  0  0  0  0  0
   37.7940   23.9420   32.8890 C   0  0  0  0  0  0  0  0  0  0  0  0
   37.8370   24.6230   34.0520 N   0  0  0  0  0  0  0  0  0  0  0  0
   37.5190   25.8980   33.8030 N   0  0  0  0  0  0  0  0  0  0  0  0
   38.0200   22.9030   32.8900 H   0  0  0  0  0  0  0  0  0  0  0  0
   38.1340   24.2960   35.4200 C   0  0  0  0  0  0  0  0  0  0  0  0
   39.1960   23.3770   35.4250 C   0  0  0  0  0  0  0  0  0  0  0  0
   39.9060   22.7950   34.8000 H   0  0  0  0  0  0  0  0  0  0  0  0
   39.4990   23.0220   37.2650 S   0  0  0  0  0  0  0  0  0  0  0  0
   38.0670   24.2400   37.6570 C   0  0  0  0  0  0  0  0  0  0  0  0
   37.3160   24.8490   38.4780 H   0  0  0  0  0  0  0  0  0  0  0  0
   37.7380   24.5770   36.6420 N   0  0  0  0  0  0  0  0  0  0  0  0
  1  6  1  0  0  0  0
  1 10  1  0  0  0  0
  2  1  2  0  0  0  0
  3  4  2  0  0  0  0
  3  2  1  0  0  0  0
  4  5  1  0  0  0  0
  5 26  1  0  0  0  0
  5  6  2  0  0  0  0
  7  2  1  0  0  0  0
  8  3  1  0  0  0  0
  9  4  1  0  0  0  0
 10 12  1  0  0  0  0
 10 21  1  0  0  0  0
 11 13  1  0  0  0  0
 11 10  1  0  0  0  0
 11 12  1  0  0  0  0
 12 16  1  0  0  0  0
 14 11  1  0  0  0  0
 15 12  1  0  0  0  0
 17 23  1  0  0  0  0
 18 17  1  0  0  0  0
 18 24  1  0  0  0  0
 19 18  2  0  0  0  0
 20 21  2  0  0  0  0
 20 19  1  0  0  0  0
 21 22  1  0  0  0  0
 22 17  2  0  0  0  0
 25 19  1  0  0  0  0
 26 30  2  0  0  0  0
 27 26  1  0  0  0  0
 27 28  2  0  0  0  0
 28 31  1  0  0  0  0
 28 29  1  0  0  0  0
 29 32  1  0  0  0  0
 30 29  1  0  0  0  0
 32 33  2  0  0  0  0
 32 38  1  0  0  0  0
 33 35  1  0  0  0  0
 34 33  1  0  0  0  0
 35 36  1  0  0  0  0
 36 37  1  0  0  0  0
 38 36  2  0  0  0  0
M  END
>  <minimizedAffinity>
-5.46797466

$$$$

 OpenBabel03272505493D

 38 42  0  0  0  0  0  0  0  0999 V2000
   36.2850   28.3960   33.7380 C   0  0  0  0  0  0  0  0  0  0  0  0
   36.8690   28.3470   34.9680 C   0  0  0  0  0  0  0  0  0  0  0  0
   37.6400   27.2490   35.3380 C   0  0  0  0  0  0  0  0  0  0  0  0
   37.7950   26.2150   34.4250 C   0  0  0  0  0  0  0  0  0  0  0  0
   37.1950   26.2700   33.1670 C   0  0  0  0  0  0  0  0  0  0  0  0
   36.4620   27.3660   32.8800 N   0  0  0  0  0  0  0  0  0  0  0  0
   36.7580   29.1400   35.6870 H   0  0  0  0  0  0  0  0  0  0  0  0
   38.1140   27.1870   36.3090 H   0  0  0  0  0  0  0  0  0  0  0  0
   38.3780   25.3370   34.6430 H   0  0  0  0  0  0  0  0  0  0  0  0
   35.4450   29.5770   33.3200 C   0  0  0  0  0  0  0  0  0  0  0  0
   36.0200   30.5360   32.3580 C   0  0  0  0  0  0  0  0  0  0  0  0
   34.9210   29.5900   31.9210 C   0  0  0  0  0  0  0  0  0  0  0  0
   35.7280   31.6180   32.4580 H   0  0  0  0  0  0  0  0  0  0  0  0
   37.0520   30.3850   32.0030 H   0  0  0  0  0  0  0  0  0  0  0  0
   35.2880   28.7860   31.2410 H   0  0  0  0  0  0  0  0  0  0  0  0
   33.9520   30.0390   31.6920 H   0  0  0  0  0  0  0  0  0  0  0  0
   32.5260   29.6740   35.5950 C   0  0  0  0  0  0  0  0  0  0  0  0
   32.8230   30.7930   36.4090 C   0  0  0  0  0  0  0  0  0  0  0  0
   34.0180   31.5000   36.1690 C   0  0  0  0  0  0  0  0  0  0  0  0
   34.8280   31.0750   35.1680 N   0  0  0  0  0  0  0  0  0  0  0  0
   34.5150   29.9920   34.4020 C   0  0  0  0  0  0  0  0  0  0  0  0
   33.3810   29.3020   34.6120 N   0  0  0  0  0  0  0  0  0  0  0  0
   31.6120   29.1210   35.7690 H   0  0  0  0  0  0  0  0  0  0  0  0
   32.1540   31.1080   37.2010 H   0  0  0  0  0  0  0  0  0  0  0  0
   34.2610   32.3590   36.7800 H   0  0  0  0  0  0  0  0  0  0  0  0
   37.3200   25.2200   32.1660 C   0  0  0  0  0  0  0  0  0  0  0  0
   37.9510   25.1920   30.9680 N   0  0  0  0  0  0  0  0  0  0  0  0
   37.7770   23.9720   30.4000 C   0  0  0  0  0  0  0  0  0  0  0  0
   37.0330   23.2300   31.2460 N   0  0  0  0  0  0  0  0  0  0  0  0
   36.7510   23.9770   32.3190 N   0  0  0  0  0  0  0  0  0  0  0  0
   38.0990   23.5410   29.4820 H   0  0  0  0  0  0  0  0  0  0  0  0
   36.5100   21.8920   31.2450 C   0  0  0  0  0  0  0  0  0  0  0  0
   35.4330   21.8480   32.1450 C   0  0  0  0  0  0  0  0  0  0  0  0
   34.8140   22.4280   32.8630 H   0  0  0  0  0  0  0  0  0  0  0  0
   34.8270   20.0510   32.0630 S   0  0  0  0  0  0  0  0  0  0  0  0
   36.2140   19.7230   30.7760 C   0  0  0  0  0  0  0  0  0  0  0  0
   36.8430   18.9540   29.9870 H   0  0  0  0  0  0  0  0  0  0  0  0
   36.7130   20.7210   30.6840 N   0  0  0  0  0  0  0  0  0  0  0  0
  1  2  1  0  0  0  0
  2  3  2  0  0  0  0
  2  7  1  0  0  0  0
  3  8  1  0  0  0  0
  4  9  1  0  0  0  0
  4  3  1  0  0  0  0
  5  4  2  0  0  0  0
  6  5  1  0  0  0  0
  6  1  2  0  0  0  0
 10  1  1  0  0  0  0
 10 21  1  0  0  0  0
 11 13  1  0  0  0  0
 11 10  1  0  0  0  0
 12 11  1  0  0  0  0
 12 10  1  0  0  0  0
 14 11  1  0  0  0  0
 15 12  1  0  0  0  0
 16 12  1  0  0  0  0
 17 23  1  0  0  0  0
 17 18  1  0  0  0  0
 18 24  1  0  0  0  0
 19 18  2  0  0  0  0
 19 25  1  0  0  0  0
 20 19  1  0  0  0  0
 21 22  1  0  0  0  0
 21 20  2  0  0  0  0
 22 17  2  0  0  0  0
 26 30  2  0  0  0  0
 26  5  1  0  0  0  0
 27 26  1  0  0  0  0
 28 27  2  0  0  0  0
 28 29  1  0  0  0  0
 29 30  1  0  0  0  0
 31 28  1  0  0  0  0
 32 29  1  0  0  0  0
 32 33  2  0  0  0  0
 33 34  1  0  0  0  0
 35 33  1  0  0  0  0
 36 35  1  0  0  0  0
 37 36  1  0  0  0  0
 38 36  2  0  0  0  0
 38 32  1  0  0  0  0
M  END
>  <minimizedAffinity>
-5.44541693

$$$$
