
 OpenBabel03272505493D

 38 42  0  0  0  0  0  0  0  0999 V2000
   36.3430   30.4050   45.9770 C   0  0  0  0  0  0  0  0  0  0  0  0
   36.8910   30.7610   47.1730 C   0  0  0  0  0  0  0  0  0  0  0  0
   36.2240   30.4840   48.3630 C   0  0  0  0  0  0  0  0  0  0  0  0
   34.9950   29.8410   48.2950 C   0  0  0  0  0  0  0  0  0  0  0  0
   34.4380   29.4800   47.0680 C   0  0  0  0  0  0  0  0  0  0  0  0
   35.1440   29.7820   45.9580 N   0  0  0  0  0  0  0  0  0  0  0  0
   37.8420   31.2600   47.2420 H   0  0  0  0  0  0  0  0  0  0  0  0
   36.6380   30.7550   49.3250 H   0  0  0  0  0  0  0  0  0  0  0  0
   34.4250   29.5960   49.1740 H   0  0  0  0  0  0  0  0  0  0  0  0
   37.0510   30.6980   44.6780 C   0  0  0  0  0  0  0  0  0  0  0  0
   36.7990   29.8070   43.5300 C   0  0  0  0  0  0  0  0  0  0  0  0
   36.2250   31.2090   43.5420 C   0  0  0  0  0  0  0  0  0  0  0  0
   37.6450   29.6270   42.8100 H   0  0  0  0  0  0  0  0  0  0  0  0
   36.1360   28.9370   43.6630 H   0  0  0  0  0  0  0  0  0  0  0  0
   35.1200   31.2220   43.6920 H   0  0  0  0  0  0  0  0  0  0  0  0
   36.6440   31.9140   42.8210 H   0  0  0  0  0  0  0  0  0  0  0  0
   39.6880   33.2780   44.9830 C   0  0  0  0  0  0  0  0  0  0  0  0
   40.8160   32.5060   45.3490 C   0  0  0  0  0  0  0  0  0  0  0  0
   40.6610   31.1120   45.4860 C   0  0  0  0  0  0  0  0  0  0  0  0
   39.4360   30.5760   45.2610 N   0  0  0  0  0  0  0  0  0  0  0  0
   38.3680   31.3470   44.9110 C   0  0  0  0  0  0  0  0  0  0  0  0
   38.4920   32.6780   44.7740 N   0  0  0  0  0  0  0  0  0  0  0  0
   39.7930   34.3500   44.8740 H   0  0  0  0  0  0  0  0  0  0  0  0
   41.7830   32.9650   45.5210 H   0  0  0  0  0  0  0  0  0  0  0  0
   41.5120   30.5060   45.7640 H   0  0  0  0  0  0  0  0  0  0  0  0
   33.1560   28.8040   46.9310 C   0  0  0  0  0  0  0  0  0  0  0  0
   32.5480   28.2420   45.8590 N   0  0  0  0  0  0  0  0  0  0  0  0
   31.3490   27.7340   46.2420 C   0  0  0  0  0  0  0  0  0  0  0  0
   31.2040   27.9790   47.5600 N   0  0  0  0  0  0  0  0  0  0  0  0
   32.2930   28.6270   47.9870 N   0  0  0  0  0  0  0  0  0  0  0  0
   30.5740   27.2220   45.7240 H   0  0  0  0  0  0  0  0  0  0  0  0
   30.1950   27.7100   48.5480 C   0  0  0  0  0  0  0  0  0  0  0  0
   28.9800   28.2360   48.0790 C   0  0  0  0  0  0  0  0  0  0  0  0
   28.4750   28.7780   47.2520 H   0  0  0  0  0  0  0  0  0  0  0  0
   27.7330   27.8260   49.4510 S   0  0  0  0  0  0  0  0  0  0  0  0
   29.1750   26.9960   50.4090 C   0  0  0  0  0  0  0  0  0  0  0  0
   29.6310   26.3730   51.4140 H   0  0  0  0  0  0  0  0  0  0  0  0
   30.0490   27.1430   49.7230 N   0  0  0  0  0  0  0  0  0  0  0  0
  1  2  1  0  0  0  0
  2  7  1  0  0  0  0
  2  3  2  0  0  0  0
  3  8  1  0  0  0  0
  4  3  1  0  0  0  0
  4  9  1  0  0  0  0
  5  4  2  0  0  0  0
  6  1  2  0  0  0  0
  6  5  1  0  0  0  0
 10 21  1  0  0  0  0
 10  1  1  0  0  0  0
 11 12  1  0  0  0  0
 11 14  1  0  0  0  0
 11 10  1  0  0  0  0
 12 15  1  0  0  0  0
 12 10  1  0  0  0  0
 13 11  1  0  0  0  0
 16 12  1  0  0  0  0
 17 18  1  0  0  0  0
 18 19  2  0  0  0  0
 18 24  1  0  0  0  0
 19 25  1  0  0  0  0
 20 19  1  0  0  0  0
 21 20  2  0  0  0  0
 22 21  1  0  0  0  0
 22 17  2  0  0  0  0
 23 17  1  0  0  0  0
 26  5  1  0  0  0  0
 26 30  2  0  0  0  0
 27 28  2  0  0  0  0
 27 26  1  0  0  0  0
 28 29  1  0  0  0  0
 29 30  1  0  0  0  0
 29 32  1  0  0  0  0
 31 28  1  0  0  0  0
 32 38  1  0  0  0  0
 33 32  2  0  0  0  0
 33 35  1  0  0  0  0
 34 33  1  0  0  0  0
 35 36  1  0  0  0  0
 36 37  1  0  0  0  0
 38 36  2  0  0  0  0
M  END
>  <minimizedAffinity>
-5.67687559

>  <minimizedRMSD>
0.993630946

$$$$
