
     RDKit          3D

 27 29  0  0  0  0  0  0  0  0999 V2000
   38.4144   30.6061   46.7890 Cl  0  0  0  0  0  0  0  0  0  0  0  0
   38.8356   32.0502   47.6900 C   0  0  0  0  0  0  0  0  0  0  0  0
   38.3330   32.2044   48.9545 C   0  0  0  0  0  0  0  0  0  0  0  0
   38.7021   33.3675   49.6105 C   0  0  0  0  0  0  0  0  0  0  0  0
   39.5338   34.2902   48.9806 C   0  0  0  0  0  0  0  0  0  0  0  0
   40.0097   34.0842   47.7089 C   0  0  0  0  0  0  0  0  0  0  0  0
   39.6469   32.9257   47.0455 C   0  0  0  0  0  0  0  0  0  0  0  0
   37.9333   30.4113   50.6484 C   0  0  0  0  0  0  0  0  0  0  0  0
   37.4653   31.2406   49.6152 C   0  0  0  0  0  0  0  0  0  0  0  0
   36.1400   31.1025   49.2502 C   0  0  0  0  0  0  0  0  0  0  0  0
   35.3776   30.1904   49.8980 N   0  0  0  0  0  0  0  0  0  0  0  0
   35.8556   29.4099   50.8848 C   0  0  0  0  0  0  0  0  0  0  0  0
   37.1347   29.5243   51.2565 N   0  0  0  0  0  0  0  0  0  0  0  0
   40.1391   32.7427   45.7699 O   0  0  0  0  0  0  0  0  0  0  0  0
   38.3650   33.5936   50.6109 H   0  0  0  0  0  0  0  0  0  0  0  0
   39.8063   35.1920   49.5183 H   0  0  0  0  0  0  0  0  0  0  0  0
   40.6577   34.8314   47.2533 H   0  0  0  0  0  0  0  0  0  0  0  0
   38.9704   30.4930   50.9611 H   0  0  0  0  0  0  0  0  0  0  0  0
   35.7641   31.7350   48.4550 H   0  0  0  0  0  0  0  0  0  0  0  0
   35.1870   28.7136   51.3463 H   0  0  0  0  0  0  0  0  0  0  0  0
   40.9355   31.5978   45.5615 C   0  0  0  0  0  0  0  0  0  0  0  0
   41.5976   31.2676   46.7194 C   0  0  0  0  0  0  0  0  0  0  0  0
   41.7192   31.5806   47.7318 H   0  0  0  0  0  0  0  0  0  0  0  0
   42.5607   29.7579   46.1991 S   0  0  0  0  0  0  0  0  0  0  0  0
   41.8289   29.8930   44.4274 C   0  0  0  0  0  0  0  0  0  0  0  0
   41.8089   29.4131   43.3436 H   0  0  0  0  0  0  0  0  0  0  0  0
   41.1791   30.8008   44.5412 N   0  0  0  0  0  0  0  0  0  0  0  0
  1  2  1  0
  2  3  2  0
  3  4  1  0
  3  9  1  0
  5  4  2  0
  6  5  1  0
  7  2  1  0
  7  6  2  0
  8 13  2  0
  9  8  1  0
 10  9  2  0
 10 11  1  0
 11 12  2  0
 12 13  1  0
 14  7  1  0
  4 15  1  0
  5 16  1  0
  6 17  1  0
  8 18  1  0
 10 19  1  0
 12 20  1  0
 21 22  2  0
 22 23  1  0
 22 24  1  0
 24 25  1  0
 25 26  1  0
 25 27  2  0
 27 21  1  0
 14 21  1  0
M  ISO  8  15  14  16  14  17  14  18  14  19  14  20  14  23  15  26  16
M  END
>  <DihAtoms>  (1) 
6,13,20,21

>  <DihDeg>  (1) 
179.99622601700776

$$$$
