
 OpenBabel03262521463D

 28 29  0  0  0  0  0  0  0  0999 V2000
   36.9470   29.2330   50.6500 C   0  0  0  0  0  0  0  0  0  0  0  0
   37.4700   28.3200   51.0060 H   0  0  0  0  0  0  0  0  0  0  0  0
   36.7500   29.0780   49.5570 H   0  0  0  0  0  0  0  0  0  0  0  0
   37.7270   30.4890   50.8460 C   0  0  0  0  0  0  0  0  0  0  0  0
   37.2430   31.1750   51.5820 H   0  0  0  0  0  0  0  0  0  0  0  0
   38.6920   30.1860   51.3470 H   0  0  0  0  0  0  0  0  0  0  0  0
   38.1000   31.1760   49.6210 C   0  0  0  0  0  0  0  0  0  0  0  0
   38.5330   32.4850   49.5980 C   0  0  0  0  0  0  0  0  0  0  0  0
   38.8720   33.0640   48.3650 C   0  0  0  0  0  0  0  0  0  0  0  0
   38.7500   32.2820   47.2420 N   0  0  0  0  0  0  0  0  0  0  0  0
   38.3200   30.9970   47.3020 C   0  0  0  0  0  0  0  0  0  0  0  0
   37.9980   30.4600   48.5130 N   0  0  0  0  0  0  0  0  0  0  0  0
   38.6140   33.0640   50.5070 H   0  0  0  0  0  0  0  0  0  0  0  0
   39.2180   34.0880   48.2880 H   0  0  0  0  0  0  0  0  0  0  0  0
   38.2450   30.4310   46.3750 H   0  0  0  0  0  0  0  0  0  0  0  0
   35.7030   29.3930   51.2700 O   0  0  0  0  0  0  0  0  0  0  0  0
   34.6880   30.5950   49.2000 O   0  0  0  0  0  0  0  0  0  0  0  0
   34.4520   29.4080   50.1460 P   0  0  2  0  0  0  0  0  0  0  0  0
   32.9700   29.6980   50.8700 O   0  0  0  0  0  0  0  0  0  0  0  0
   32.8100   29.2130   51.7000 H   0  0  0  0  0  0  0  0  0  0  0  0
   34.3700   27.9700   49.2940 O   0  0  0  0  0  0  0  0  0  0  0  0
   33.4330   27.8420   48.2470 C   0  0  0  0  0  0  0  0  0  0  0  0
   32.0550   27.4800   48.3950 C   0  0  0  0  0  0  0  0  0  0  0  0
   31.6840   27.2920   49.3170 H   0  0  0  0  0  0  0  0  0  0  0  0
   31.5120   27.5210   46.6780 S   0  0  0  0  0  0  0  0  0  0  0  0
   33.2480   28.0240   46.0320 C   0  0  0  0  0  0  0  0  0  0  0  0
   33.5140   28.2020   44.9540 H   0  0  0  0  0  0  0  0  0  0  0  0
   34.0660   28.1180   47.1200 N   0  0  0  0  0  0  0  0  0  0  0  0
  1  4  1  0  0  0  0
  1  2  1  0  0  0  0
  1 16  1  0  0  0  0
  3  1  1  0  0  0  0
  4  6  1  0  0  0  0
  4  5  1  0  0  0  0
  7  4  1  0  0  0  0
  8  7  1  0  0  0  0
  8 13  1  0  0  0  0
  9  8  2  0  0  0  0
 10 11  2  0  0  0  0
 10  9  1  0  0  0  0
 11 12  1  0  0  0  0
 12  7  2  0  0  0  0
 14  9  1  0  0  0  0
 15 11  1  0  0  0  0
 18 17  2  6  0  0  0
 18 19  1  0  0  0  0
 18 16  1  0  0  0  0
 19 20  1  0  0  0  0
 21 18  1  0  0  0  0
 22 23  2  0  0  0  0
 22 21  1  0  0  0  0
 23 24  1  0  0  0  0
 25 23  1  0  0  0  0
 26 25  1  0  0  0  0
 26 28  2  0  0  0  0
 27 26  1  0  0  0  0
 28 22  1  0  0  0  0
M  END
>  <minimizedAffinity>
-5.00767565

>  <minimizedRMSD>
0.102187999

$$$$
