
 OpenBabel03262521463D

 28 29  0  0  0  0  0  0  0  0999 V2000
   36.9640   29.2550   50.6270 C   0  0  0  0  0  0  0  0  0  0  0  0
   37.4910   28.3430   50.9790 H   0  0  0  0  0  0  0  0  0  0  0  0
   36.7700   29.1050   49.5330 H   0  0  0  0  0  0  0  0  0  0  0  0
   37.7380   30.5150   50.8290 C   0  0  0  0  0  0  0  0  0  0  0  0
   37.2480   31.1970   51.5640 H   0  0  0  0  0  0  0  0  0  0  0  0
   38.7020   30.2140   51.3360 H   0  0  0  0  0  0  0  0  0  0  0  0
   38.1160   31.2050   49.6080 C   0  0  0  0  0  0  0  0  0  0  0  0
   38.5380   32.5180   49.5890 C   0  0  0  0  0  0  0  0  0  0  0  0
   38.8820   33.1000   48.3590 C   0  0  0  0  0  0  0  0  0  0  0  0
   38.7750   32.3170   47.2350 N   0  0  0  0  0  0  0  0  0  0  0  0
   38.3560   31.0290   47.2910 C   0  0  0  0  0  0  0  0  0  0  0  0
   38.0290   30.4890   48.4990 N   0  0  0  0  0  0  0  0  0  0  0  0
   38.6050   33.0970   50.4990 H   0  0  0  0  0  0  0  0  0  0  0  0
   39.2190   34.1270   48.2860 H   0  0  0  0  0  0  0  0  0  0  0  0
   38.2940   30.4620   46.3630 H   0  0  0  0  0  0  0  0  0  0  0  0
   35.7190   29.4070   51.2470 O   0  0  0  0  0  0  0  0  0  0  0  0
   34.6980   30.5420   49.1410 O   0  0  0  0  0  0  0  0  0  0  0  0
   34.4670   29.3840   50.1240 P   0  0  2  0  0  0  0  0  0  0  0  0
   32.9840   29.6940   50.8410 O   0  0  0  0  0  0  0  0  0  0  0  0
   32.8270   29.2340   51.6860 H   0  0  0  0  0  0  0  0  0  0  0  0
   34.3870   27.9200   49.3180 O   0  0  0  0  0  0  0  0  0  0  0  0
   33.4540   27.7610   48.2710 C   0  0  0  0  0  0  0  0  0  0  0  0
   33.7730   27.5640   46.8870 C   0  0  0  0  0  0  0  0  0  0  0  0
   34.7410   27.5310   46.5980 H   0  0  0  0  0  0  0  0  0  0  0  0
   32.1230   27.4460   46.1770 S   0  0  0  0  0  0  0  0  0  0  0  0
   31.2610   27.6830   47.8760 C   0  0  0  0  0  0  0  0  0  0  0  0
   30.1500   27.6970   48.0440 H   0  0  0  0  0  0  0  0  0  0  0  0
   32.2490   27.8270   48.8070 N   0  0  0  0  0  0  0  0  0  0  0  0
  1  4  1  0  0  0  0
  1  2  1  0  0  0  0
  1 16  1  0  0  0  0
  3  1  1  0  0  0  0
  4  6  1  0  0  0  0
  4  5  1  0  0  0  0
  7  4  1  0  0  0  0
  8  7  1  0  0  0  0
  8 13  1  0  0  0  0
  9  8  2  0  0  0  0
 10 11  2  0  0  0  0
 10  9  1  0  0  0  0
 11 12  1  0  0  0  0
 12  7  2  0  0  0  0
 14  9  1  0  0  0  0
 15 11  1  0  0  0  0
 18 17  2  6  0  0  0
 18 19  1  0  0  0  0
 18 16  1  0  0  0  0
 19 20  1  0  0  0  0
 21 18  1  0  0  0  0
 22 28  1  0  0  0  0
 22 21  1  0  0  0  0
 23 22  2  0  0  0  0
 24 23  1  0  0  0  0
 25 23  1  0  0  0  0
 25 26  1  0  0  0  0
 26 27  1  0  0  0  0
 26 28  2  0  0  0  0
M  END
>  <minimizedAffinity>
-5.06271172

>  <minimizedRMSD>
0.815538406

$$$$
