
 OpenBabel03262521353D

 35 38  0  0  1  0  0  0  0  0999 V2000
   38.4920   31.5100   45.3670 C   0  0  1  0  0  0  0  0  0  0  0  0
   38.8500   32.4740   46.4120 C   0  0  2  0  0  0  0  0  0  0  0  0
   40.3220   32.8080   46.0680 C   0  0  0  0  0  0  0  0  0  0  0  0
   40.8000   31.5850   45.6930 O   0  0  0  0  0  0  0  0  0  0  0  0
   39.8340   30.8740   45.0180 C   0  0  0  0  0  0  0  0  0  0  0  0
   38.0610   32.0250   44.4840 H   0  0  0  0  0  0  0  0  0  0  0  0
   38.3200   33.4420   46.2830 H   0  0  0  0  0  0  0  0  0  0  0  0
   40.3830   33.5490   45.2520 H   0  0  0  0  0  0  0  0  0  0  0  0
   40.8540   33.1240   46.9890 H   0  0  0  0  0  0  0  0  0  0  0  0
   39.9940   31.0160   43.9320 H   0  0  0  0  0  0  0  0  0  0  0  0
   39.8530   29.7830   45.1890 H   0  0  0  0  0  0  0  0  0  0  0  0
   37.5880   32.3840   48.6860 C   0  0  1  0  0  0  0  0  0  0  0  0
   38.8050   33.1330   48.8530 C   0  0  0  0  0  0  0  0  0  0  0  0
   38.7930   31.9720   47.8380 C   0  0  2  0  0  0  0  0  0  0  0  0
   36.7530   32.8220   48.0700 H   0  0  0  0  0  0  0  0  0  0  0  0
   39.4470   32.9160   49.7520 H   0  0  0  0  0  0  0  0  0  0  0  0
   38.9210   34.1570   48.5030 H   0  0  0  0  0  0  0  0  0  0  0  0
   39.3290   31.0510   48.0690 H   0  0  0  0  0  0  0  0  0  0  0  0
   35.5720   29.7030   50.3490 C   0  0  0  0  0  0  0  0  0  0  0  0
   35.9490   30.6800   49.4350 C   0  0  0  0  0  0  0  0  0  0  0  0
   37.1570   31.3280   49.6220 C   0  0  0  0  0  0  0  0  0  0  0  0
   37.9210   30.9660   50.7110 N   0  0  0  0  0  0  0  0  0  0  0  0
   37.5390   30.0140   51.5900 C   0  0  0  0  0  0  0  0  0  0  0  0
   36.3430   29.3680   51.4110 N   0  0  0  0  0  0  0  0  0  0  0  0
   34.6230   29.2050   50.1870 H   0  0  0  0  0  0  0  0  0  0  0  0
   35.3750   30.9900   48.5800 H   0  0  0  0  0  0  0  0  0  0  0  0
   38.2330   29.8290   52.3990 H   0  0  0  0  0  0  0  0  0  0  0  0
   37.5950   30.5200   45.7640 O   0  0  0  0  0  0  0  0  0  0  0  0
   36.2830   30.4370   45.2570 C   0  0  0  0  0  0  0  0  0  0  0  0
   35.9890   30.8400   43.9520 C   0  0  0  0  0  0  0  0  0  0  0  0
   36.5900   31.2330   43.1820 H   0  0  0  0  0  0  0  0  0  0  0  0
   34.1810   30.5270   43.8170 S   0  0  0  0  0  0  0  0  0  0  0  0
   34.1360   29.8870   45.6060 C   0  0  0  0  0  0  0  0  0  0  0  0
   33.2590   29.5230   46.1390 H   0  0  0  0  0  0  0  0  0  0  0  0
   35.2640   29.9850   45.9630 N   0  0  0  0  0  0  0  0  0  0  0  0
  1  6  1  6  0  0  0
  1 28  1  0  0  0  0
  1  2  1  0  0  0  0
  2  7  1  6  0  0  0
  2 14  1  0  0  0  0
  3  2  1  0  0  0  0
  3  9  1  0  0  0  0
  4  3  1  0  0  0  0
  5 11  1  0  0  0  0
  5  1  1  0  0  0  0
  5  4  1  0  0  0  0
  8  3  1  0  0  0  0
 10  5  1  0  0  0  0
 12 15  1  6  0  0  0
 12 13  1  0  0  0  0
 12 21  1  0  0  0  0
 13 16  1  0  0  0  0
 14 18  1  1  0  0  0
 14 12  1  0  0  0  0
 14 13  1  0  0  0  0
 17 13  1  0  0  0  0
 19 24  1  0  0  0  0
 20 21  1  0  0  0  0
 20 19  2  0  0  0  0
 21 22  2  0  0  0  0
 22 23  1  0  0  0  0
 23 27  1  0  0  0  0
 24 23  2  0  0  0  0
 25 19  1  0  0  0  0
 26 20  1  0  0  0  0
 29 28  1  0  0  0  0
 29 35  1  0  0  0  0
 30 29  2  0  0  0  0
 31 30  1  0  0  0  0
 32 30  1  0  0  0  0
 32 33  1  0  0  0  0
 33 35  2  0  0  0  0
 33 34  1  0  0  0  0
M  END
>  <minimizedAffinity>
-5.39904881

>  <minimizedRMSD>
0.90648526

$$$$
