
 OpenBabel03272509543D

 41 44  0  0  0  0  0  0  0  0999 V2000
   34.2130   28.8510   48.0740 C   0  0  0  0  0  0  0  0  0  0  0  0
   35.1100   29.0260   47.4400 H   0  0  0  0  0  0  0  0  0  0  0  0
   33.6900   29.8220   48.1770 H   0  0  0  0  0  0  0  0  0  0  0  0
   33.3730   27.7770   47.4680 C   0  0  0  0  0  0  0  0  0  0  0  0
   33.7000   26.7690   47.7540 H   0  0  0  0  0  0  0  0  0  0  0  0
   33.4680   27.8190   46.3440 H   0  0  0  0  0  0  0  0  0  0  0  0
   31.9280   27.9380   47.7340 C   0  0  0  0  0  0  0  0  0  0  0  0
   31.3960   27.2910   48.8380 C   0  0  0  0  0  0  0  0  0  0  0  0
   30.0790   27.3630   49.1870 C   0  0  0  0  0  0  0  0  0  0  0  0
   29.2640   28.0920   48.4260 N   0  0  0  0  0  0  0  0  0  0  0  0
   29.7730   28.7300   47.3410 C   0  0  0  0  0  0  0  0  0  0  0  0
   31.0800   28.6710   46.9770 N   0  0  0  0  0  0  0  0  0  0  0  0
   32.0570   26.6910   49.4690 H   0  0  0  0  0  0  0  0  0  0  0  0
   29.6910   26.8470   50.0570 H   0  0  0  0  0  0  0  0  0  0  0  0
   28.8530   29.5340   46.5070 C   0  0  0  0  0  0  0  0  0  0  0  0
   27.4160   29.6600   46.7420 C   0  0  0  0  0  0  0  0  0  0  0  0
   27.0030   29.1490   47.5510 H   0  0  0  0  0  0  0  0  0  0  0  0
   27.0320   30.8140   45.2820 S   0  0  0  0  0  0  0  0  0  0  0  0
   28.8290   30.8590   44.7160 C   0  0  0  0  0  0  0  0  0  0  0  0
   29.0370   31.4640   43.8360 H   0  0  0  0  0  0  0  0  0  0  0  0
   29.4550   30.1510   45.5010 N   0  0  0  0  0  0  0  0  0  0  0  0
   34.7410   28.4230   49.3310 O   0  0  0  0  0  0  0  0  0  0  0  0
   37.1000   29.9730   51.5810 C   0  0  0  0  0  0  0  0  0  0  0  0
   37.8870   30.6930   50.6540 C   0  0  0  0  0  0  0  0  0  0  0  0
   37.5540   30.5980   49.3060 C   0  0  0  0  0  0  0  0  0  0  0  0
   36.4770   29.8020   49.0100 N   0  0  0  0  0  0  0  0  0  0  0  0
   35.7460   29.1320   49.8970 C   0  0  0  0  0  0  0  0  0  0  0  0
   36.0720   29.2260   51.1920 N   0  0  0  0  0  0  0  0  0  0  0  0
   37.4010   30.0820   52.6050 H   0  0  0  0  0  0  0  0  0  0  0  0
   38.7280   31.3120   50.9090 H   0  0  0  0  0  0  0  0  0  0  0  0
   38.7780   33.2140   49.2920 F   0  0  0  0  0  0  0  0  0  0  0  0
   38.8140   32.4790   48.1950 C   0  0  0  0  0  0  0  0  0  0  0  0
   38.2310   31.2520   48.2260 C   0  0  0  0  0  0  0  0  0  0  0  0
   38.3280   30.5610   47.0130 C   0  0  0  0  0  0  0  0  0  0  0  0
   38.9570   31.0870   45.9050 C   0  0  0  0  0  0  0  0  0  0  0  0
   39.5300   32.3360   45.9310 C   0  0  0  0  0  0  0  0  0  0  0  0
   39.4460   33.0270   47.1030 C   0  0  0  0  0  0  0  0  0  0  0  0
   37.8980   29.5650   46.9140 H   0  0  0  0  0  0  0  0  0  0  0  0
   38.9980   30.4970   44.9880 H   0  0  0  0  0  0  0  0  0  0  0  0
   40.0000   32.6820   45.0370 H   0  0  0  0  0  0  0  0  0  0  0  0
   39.8920   34.0110   47.1410 H   0  0  0  0  0  0  0  0  0  0  0  0
  1  3  1  0  0  0  0
  1 22  1  0  0  0  0
  2  1  1  0  0  0  0
  4  7  1  0  0  0  0
  4  5  1  0  0  0  0
  4  1  1  0  0  0  0
  6  4  1  0  0  0  0
  7  8  1  0  0  0  0
  8  9  2  0  0  0  0
  8 13  1  0  0  0  0
  9 14  1  0  0  0  0
 10  9  1  0  0  0  0
 11 10  2  0  0  0  0
 12 11  1  0  0  0  0
 12  7  2  0  0  0  0
 15 16  2  0  0  0  0
 15 11  1  0  0  0  0
 16 17  1  0  0  0  0
 18 16  1  0  0  0  0
 19 18  1  0  0  0  0
 19 21  2  0  0  0  0
 20 19  1  0  0  0  0
 21 15  1  0  0  0  0
 22 27  1  0  0  0  0
 23 29  1  0  0  0  0
 24 30  1  0  0  0  0
 24 23  2  0  0  0  0
 25 24  1  0  0  0  0
 26 25  2  0  0  0  0
 26 27  1  0  0  0  0
 27 28  2  0  0  0  0
 28 23  1  0  0  0  0
 32 33  1  0  0  0  0
 32 31  1  0  0  0  0
 33 25  1  0  0  0  0
 34 33  2  0  0  0  0
 35 36  2  0  0  0  0
 35 34  1  0  0  0  0
 36 37  1  0  0  0  0
 37 41  1  0  0  0  0
 37 32  2  0  0  0  0
 38 34  1  0  0  0  0
 39 35  1  0  0  0  0
 40 36  1  0  0  0  0
M  END
>  <minimizedAffinity>
-6.5702939

>  <minimizedRMSD>
0.760216415

$$$$
