
 OpenBabel03272509473D

 23 24  0  0  0  0  0  0  0  0999 V2000
   34.1990   28.4050   48.4780 C   0  0  0  0  0  0  0  0  0  0  0  0
   33.2660   29.0310   48.4420 H   0  0  0  0  0  0  0  0  0  0  0  0
   34.9070   28.8600   47.7390 H   0  0  0  0  0  0  0  0  0  0  0  0
   33.8560   27.0330   47.9460 C   0  0  0  0  0  0  0  0  0  0  0  0
   33.0590   26.5960   48.5600 H   0  0  0  0  0  0  0  0  0  0  0  0
   34.7230   26.3650   47.9740 H   0  0  0  0  0  0  0  0  0  0  0  0
   33.3720   27.2600   46.5360 C   0  0  0  0  0  0  0  0  0  0  0  0
   31.9720   27.6640   46.4970 C   0  0  0  0  0  0  0  0  0  0  0  0
   31.2200   27.8330   47.2450 H   0  0  0  0  0  0  0  0  0  0  0  0
   31.6450   27.8700   44.6930 S   0  0  0  0  0  0  0  0  0  0  0  0
   33.4390   27.3790   44.3050 C   0  0  0  0  0  0  0  0  0  0  0  0
   34.3090   27.1830   43.4440 H   0  0  0  0  0  0  0  0  0  0  0  0
   33.8860   27.1880   45.3230 N   0  0  0  0  0  0  0  0  0  0  0  0
   34.7350   28.3070   49.7740 O   0  0  0  0  0  0  0  0  0  0  0  0
   37.3410   30.2240   51.4290 C   0  0  0  0  0  0  0  0  0  0  0  0
   38.0550   30.6610   50.3000 C   0  0  0  0  0  0  0  0  0  0  0  0
   37.6100   30.2770   49.0390 C   0  0  0  0  0  0  0  0  0  0  0  0
   36.4930   29.4930   48.9820 N   0  0  0  0  0  0  0  0  0  0  0  0
   35.8330   29.0930   50.0920 C   0  0  0  0  0  0  0  0  0  0  0  0
   36.2700   29.4670   51.3000 N   0  0  0  0  0  0  0  0  0  0  0  0
   37.6600   30.5030   52.4280 H   0  0  0  0  0  0  0  0  0  0  0  0
   38.9400   31.2870   50.4130 H   0  0  0  0  0  0  0  0  0  0  0  0
   38.1280   30.5900   48.1410 H   0  0  0  0  0  0  0  0  0  0  0  0
  1 14  1  0  0  0  0
  2  1  1  0  0  0  0
  3  1  1  0  0  0  0
  4  6  1  0  0  0  0
  4  1  1  0  0  0  0
  4  5  1  0  0  0  0
  7  4  1  0  0  0  0
  8  7  2  0  0  0  0
  8  9  1  0  0  0  0
 10  8  1  0  0  0  0
 11 10  1  0  0  0  0
 11 13  2  0  0  0  0
 12 11  1  0  0  0  0
 13  7  1  0  0  0  0
 14 19  1  0  0  0  0
 15 21  1  0  0  0  0
 16 22  1  0  0  0  0
 16 15  2  0  0  0  0
 17 16  1  0  0  0  0
 18 17  2  0  0  0  0
 18 19  1  0  0  0  0
 19 20  2  0  0  0  0
 20 15  1  0  0  0  0
 23 17  1  0  0  0  0
M  END
>  <minimizedAffinity>
-3.58485794

>  <minimizedRMSD>
0.278612316

$$$$
