
 OpenBabel03272507593D

 30 32  0  0  0  0  0  0  0  0999 V2000
   39.5090   24.7820   34.8400 C   0  0  0  0  0  0  0  0  0  0  0  0
   40.1690   25.9960   34.8700 C   0  0  0  0  0  0  0  0  0  0  0  0
   39.7720   27.0360   34.0530 C   0  0  0  0  0  0  0  0  0  0  0  0
   38.6970   26.8460   33.1980 C   0  0  0  0  0  0  0  0  0  0  0  0
   38.0460   25.6330   33.1760 C   0  0  0  0  0  0  0  0  0  0  0  0
   38.4840   24.6670   33.9960 N   0  0  0  0  0  0  0  0  0  0  0  0
   41.0140   26.2450   35.5020 H   0  0  0  0  0  0  0  0  0  0  0  0
   40.2370   27.9920   34.0280 H   0  0  0  0  0  0  0  0  0  0  0  0
   38.2970   27.5760   32.5200 H   0  0  0  0  0  0  0  0  0  0  0  0
   39.9530   22.5930   37.8580 C   0  0  0  0  0  0  0  0  0  0  0  0
   39.4000   23.5640   36.9610 C   0  0  0  0  0  0  0  0  0  0  0  0
   40.0560   23.8060   35.7640 C   0  0  0  0  0  0  0  0  0  0  0  0
   41.1970   23.1100   35.4930 N   0  0  0  0  0  0  0  0  0  0  0  0
   41.6940   22.1970   36.3660 C   0  0  0  0  0  0  0  0  0  0  0  0
   41.0830   21.9350   37.5400 N   0  0  0  0  0  0  0  0  0  0  0  0
   42.8860   21.6010   35.8630 N   0  0  0  0  0  0  0  0  0  0  0  0
   39.5010   22.3500   38.7950 H   0  0  0  0  0  0  0  0  0  0  0  0
   43.5610   22.1210   36.4950 H   0  0  0  0  0  0  0  0  0  0  0  0
   42.7540   20.8830   35.0810 H   0  0  0  0  0  0  0  0  0  0  0  0
   38.1460   24.2640   37.3780 C   0  0  0  0  0  0  0  0  0  0  0  0
   37.0500   23.7800   36.6830 F   0  0  0  0  0  0  0  0  0  0  0  0
   37.9560   24.0130   38.7200 F   0  0  0  0  0  0  0  0  0  0  0  0
   38.2050   25.6250   37.2040 F   0  0  0  0  0  0  0  0  0  0  0  0
   36.8930   25.3430   32.3040 C   0  0  0  0  0  0  0  0  0  0  0  0
   36.0920   26.3790   31.7190 C   0  0  0  0  0  0  0  0  0  0  0  0
   36.2730   27.5080   31.8450 H   0  0  0  0  0  0  0  0  0  0  0  0
   34.8050   25.3440   30.7950 S   0  0  0  0  0  0  0  0  0  0  0  0
   35.6180   23.7400   31.3910 C   0  0  0  0  0  0  0  0  0  0  0  0
   35.0900   22.8780   31.0160 H   0  0  0  0  0  0  0  0  0  0  0  0
   36.5340   24.1140   32.0500 N   0  0  0  0  0  0  0  0  0  0  0  0
  1  2  1  0  0  0  0
  1 12  1  0  0  0  0
  2  7  1  0  0  0  0
  3  2  2  0  0  0  0
  4  3  1  0  0  0  0
  5  4  2  0  0  0  0
  5  6  1  0  0  0  0
  6  1  2  0  0  0  0
  8  3  1  0  0  0  0
  9  4  1  0  0  0  0
 10 17  1  0  0  0  0
 11 20  1  0  0  0  0
 11 10  2  0  0  0  0
 12 11  1  0  0  0  0
 13 12  2  0  0  0  0
 13 14  1  0  0  0  0
 14 15  2  0  0  0  0
 15 10  1  0  0  0  0
 16 14  1  0  0  0  0
 16 18  1  0  0  0  0
 19 16  1  0  0  0  0
 20 22  1  0  0  0  0
 21 20  1  0  0  0  0
 23 20  1  0  0  0  0
 24  5  1  0  0  0  0
 25 26  1  0  0  0  0
 25 24  2  0  0  0  0
 27 28  1  0  0  0  0
 27 25  1  0  0  0  0
 28 30  2  0  0  0  0
 29 28  1  0  0  0  0
 30 24  1  0  0  0  0
M  END
>  <minimizedAffinity>
-5.67930269

$$$$

 OpenBabel03272507593D

 30 32  0  0  0  0  0  0  0  0999 V2000
   37.7640   26.3830   32.9680 C   0  0  0  0  0  0  0  0  0  0  0  0
   38.8540   26.5140   32.1280 C   0  0  0  0  0  0  0  0  0  0  0  0
   38.8960   27.5170   31.1780 C   0  0  0  0  0  0  0  0  0  0  0  0
   37.8270   28.3930   31.0790 C   0  0  0  0  0  0  0  0  0  0  0  0
   36.7460   28.2540   31.9210 C   0  0  0  0  0  0  0  0  0  0  0  0
   36.7710   27.2590   32.8190 N   0  0  0  0  0  0  0  0  0  0  0  0
   39.7370   25.8850   32.1290 H   0  0  0  0  0  0  0  0  0  0  0  0
   39.7030   27.6710   30.5030 H   0  0  0  0  0  0  0  0  0  0  0  0
   37.7460   29.2080   30.3850 H   0  0  0  0  0  0  0  0  0  0  0  0
   38.2380   24.4520   36.1540 C   0  0  0  0  0  0  0  0  0  0  0  0
   38.1230   25.5530   35.2440 C   0  0  0  0  0  0  0  0  0  0  0  0
   37.8890   25.2820   33.9040 C   0  0  0  0  0  0  0  0  0  0  0  0
   37.7790   23.9790   33.5120 N   0  0  0  0  0  0  0  0  0  0  0  0
   37.8940   22.9600   34.4020 C   0  0  0  0  0  0  0  0  0  0  0  0
   38.1210   23.1860   35.7120 N   0  0  0  0  0  0  0  0  0  0  0  0
   37.7400   21.6980   33.7580 N   0  0  0  0  0  0  0  0  0  0  0  0
   38.4120   24.5830   37.2000 H   0  0  0  0  0  0  0  0  0  0  0  0
   38.7640   21.4240   33.7760 H   0  0  0  0  0  0  0  0  0  0  0  0
   36.7400   21.4350   33.4810 H   0  0  0  0  0  0  0  0  0  0  0  0
   38.2690   26.9330   35.7990 C   0  0  0  0  0  0  0  0  0  0  0  0
   37.1730   27.7180   35.4790 F   0  0  0  0  0  0  0  0  0  0  0  0
   38.3420   26.8260   37.1710 F   0  0  0  0  0  0  0  0  0  0  0  0
   39.4030   27.5730   35.3610 F   0  0  0  0  0  0  0  0  0  0  0  0
   35.5690   29.1400   31.8890 C   0  0  0  0  0  0  0  0  0  0  0  0
   35.5130   30.3140   31.0670 C   0  0  0  0  0  0  0  0  0  0  0  0
   36.3430   30.6620   30.3500 H   0  0  0  0  0  0  0  0  0  0  0  0
   33.8060   30.9850   31.5330 S   0  0  0  0  0  0  0  0  0  0  0  0
   33.5310   29.5450   32.7340 C   0  0  0  0  0  0  0  0  0  0  0  0
   32.5700   29.6230   33.2160 H   0  0  0  0  0  0  0  0  0  0  0  0
   34.5280   28.9050   32.6420 N   0  0  0  0  0  0  0  0  0  0  0  0
  1 12  1  0  0  0  0
  2  7  1  0  0  0  0
  2  1  2  0  0  0  0
  3  2  1  0  0  0  0
  4  3  2  0  0  0  0
  4  5  1  0  0  0  0
  5  6  2  0  0  0  0
  6  1  1  0  0  0  0
  8  3  1  0  0  0  0
  9  4  1  0  0  0  0
 10 17  1  0  0  0  0
 11 20  1  0  0  0  0
 11 10  2  0  0  0  0
 12 11  1  0  0  0  0
 13 12  2  0  0  0  0
 13 14  1  0  0  0  0
 14 15  2  0  0  0  0
 15 10  1  0  0  0  0
 16 18  1  0  0  0  0
 16 14  1  0  0  0  0
 19 16  1  0  0  0  0
 20 22  1  0  0  0  0
 21 20  1  0  0  0  0
 23 20  1  0  0  0  0
 24  5  1  0  0  0  0
 24 30  1  0  0  0  0
 25 27  1  0  0  0  0
 25 24  2  0  0  0  0
 26 25  1  0  0  0  0
 27 28  1  0  0  0  0
 28 29  1  0  0  0  0
 30 28  2  0  0  0  0
M  END
>  <minimizedAffinity>
-5.33146858

$$$$

 OpenBabel03272507593D

 30 32  0  0  0  0  0  0  0  0999 V2000
   39.6530   26.5980   33.3060 C   0  0  0  0  0  0  0  0  0  0  0  0
   40.7910   27.3770   33.2320 C   0  0  0  0  0  0  0  0  0  0  0  0
   41.9310   27.0310   33.9300 C   0  0  0  0  0  0  0  0  0  0  0  0
   41.9190   25.8840   34.7100 C   0  0  0  0  0  0  0  0  0  0  0  0
   40.7790   25.1140   34.7770 C   0  0  0  0  0  0  0  0  0  0  0  0
   39.7090   25.5090   34.0740 N   0  0  0  0  0  0  0  0  0  0  0  0
   40.9030   28.2850   32.6490 H   0  0  0  0  0  0  0  0  0  0  0  0
   42.8370   27.5870   33.9150 H   0  0  0  0  0  0  0  0  0  0  0  0
   42.7390   25.5140   35.2940 H   0  0  0  0  0  0  0  0  0  0  0  0
   36.3100   28.0070   32.3340 C   0  0  0  0  0  0  0  0  0  0  0  0
   37.3830   27.5030   33.1390 C   0  0  0  0  0  0  0  0  0  0  0  0
   38.5530   27.1060   32.5080 C   0  0  0  0  0  0  0  0  0  0  0  0
   38.6300   27.2140   31.1500 N   0  0  0  0  0  0  0  0  0  0  0  0
   37.5930   27.6960   30.4180 C   0  0  0  0  0  0  0  0  0  0  0  0
   36.4410   28.0910   30.9970 N   0  0  0  0  0  0  0  0  0  0  0  0
   37.9120   27.7160   29.0290 N   0  0  0  0  0  0  0  0  0  0  0  0
   35.3820   28.3350   32.7490 H   0  0  0  0  0  0  0  0  0  0  0  0
   37.3190   26.8800   28.7540 H   0  0  0  0  0  0  0  0  0  0  0  0
   38.5820   28.4880   28.7150 H   0  0  0  0  0  0  0  0  0  0  0  0
   37.1700   27.4290   34.6170 C   0  0  0  0  0  0  0  0  0  0  0  0
   38.2520   27.9560   35.3030 F   0  0  0  0  0  0  0  0  0  0  0  0
   36.0560   28.1830   34.9150 F   0  0  0  0  0  0  0  0  0  0  0  0
   36.9520   26.1500   35.0670 F   0  0  0  0  0  0  0  0  0  0  0  0
   40.6760   23.8800   35.5760 C   0  0  0  0  0  0  0  0  0  0  0  0
   41.8220   23.2460   36.1630 C   0  0  0  0  0  0  0  0  0  0  0  0
   42.9030   23.6350   36.0940 H   0  0  0  0  0  0  0  0  0  0  0  0
   41.0100   21.7430   36.9750 S   0  0  0  0  0  0  0  0  0  0  0  0
   39.3040   22.2860   36.3550 C   0  0  0  0  0  0  0  0  0  0  0  0
   38.5410   21.5910   36.6660 H   0  0  0  0  0  0  0  0  0  0  0  0
   39.5260   23.2910   35.7600 N   0  0  0  0  0  0  0  0  0  0  0  0
  1  6  1  0  0  0  0
  2  1  2  0  0  0  0
  2  3  1  0  0  0  0
  3  4  2  0  0  0  0
  4  5  1  0  0  0  0
  4  9  1  0  0  0  0
  5 24  1  0  0  0  0
  6  5  2  0  0  0  0
  7  2  1  0  0  0  0
  8  3  1  0  0  0  0
 10 17  1  0  0  0  0
 10 11  1  0  0  0  0
 11 20  1  0  0  0  0
 12 11  2  0  0  0  0
 12  1  1  0  0  0  0
 13 12  1  0  0  0  0
 14 15  1  0  0  0  0
 14 13  2  0  0  0  0
 15 10  2  0  0  0  0
 16 14  1  0  0  0  0
 18 16  1  0  0  0  0
 19 16  1  0  0  0  0
 20 22  1  0  0  0  0
 20 23  1  0  0  0  0
 20 21  1  0  0  0  0
 24 30  1  0  0  0  0
 24 25  2  0  0  0  0
 25 27  1  0  0  0  0
 26 25  1  0  0  0  0
 28 29  1  0  0  0  0
 28 27  1  0  0  0  0
 30 28  2  0  0  0  0
M  END
>  <minimizedAffinity>
-5.23694515

$$$$

 OpenBabel03272507593D

 30 32  0  0  0  0  0  0  0  0999 V2000
   35.1370   29.9290   32.9520 C   0  0  0  0  0  0  0  0  0  0  0  0
   35.6950   30.9000   32.1440 C   0  0  0  0  0  0  0  0  0  0  0  0
   36.4680   30.5520   31.0540 C   0  0  0  0  0  0  0  0  0  0  0  0
   36.6760   29.2100   30.7790 C   0  0  0  0  0  0  0  0  0  0  0  0
   36.1150   28.2490   31.5910 C   0  0  0  0  0  0  0  0  0  0  0  0
   35.3760   28.6570   32.6320 N   0  0  0  0  0  0  0  0  0  0  0  0
   35.5890   31.9720   32.2710 H   0  0  0  0  0  0  0  0  0  0  0  0
   36.9260   31.2500   30.3940 H   0  0  0  0  0  0  0  0  0  0  0  0
   37.2550   28.8180   29.9630 H   0  0  0  0  0  0  0  0  0  0  0  0
   32.2140   30.9810   35.0630 C   0  0  0  0  0  0  0  0  0  0  0  0
   32.9700   30.4450   33.9700 C   0  0  0  0  0  0  0  0  0  0  0  0
   34.3540   30.4710   34.0470 C   0  0  0  0  0  0  0  0  0  0  0  0
   34.9350   31.0040   35.1610 N   0  0  0  0  0  0  0  0  0  0  0  0
   34.1880   31.5040   36.1790 C   0  0  0  0  0  0  0  0  0  0  0  0
   32.8400   31.4960   36.1380 N   0  0  0  0  0  0  0  0  0  0  0  0
   35.0170   32.0000   37.2270 N   0  0  0  0  0  0  0  0  0  0  0  0
   31.1460   30.9910   35.0770 H   0  0  0  0  0  0  0  0  0  0  0  0
   34.8730   33.0310   37.0210 H   0  0  0  0  0  0  0  0  0  0  0  0
   35.4840   31.2600   37.8410 H   0  0  0  0  0  0  0  0  0  0  0  0
   32.2130   29.8940   32.8040 C   0  0  0  0  0  0  0  0  0  0  0  0
   32.3980   28.5270   32.6900 F   0  0  0  0  0  0  0  0  0  0  0  0
   30.8740   30.1360   33.0250 F   0  0  0  0  0  0  0  0  0  0  0  0
   32.5600   30.4800   31.6110 F   0  0  0  0  0  0  0  0  0  0  0  0
   36.2800   26.8010   31.3730 C   0  0  0  0  0  0  0  0  0  0  0  0
   37.5690   26.1770   31.2960 C   0  0  0  0  0  0  0  0  0  0  0  0
   38.5770   26.7190   31.4170 H   0  0  0  0  0  0  0  0  0  0  0  0
   37.0690   24.3820   30.9660 S   0  0  0  0  0  0  0  0  0  0  0  0
   35.2340   24.8520   31.0010 C   0  0  0  0  0  0  0  0  0  0  0  0
   34.6110   23.9880   30.8310 H   0  0  0  0  0  0  0  0  0  0  0  0
   35.2450   26.0220   31.2090 N   0  0  0  0  0  0  0  0  0  0  0  0
  1 12  1  0  0  0  0
  2  7  1  0  0  0  0
  2  1  2  0  0  0  0
  3  2  1  0  0  0  0
  4  3  2  0  0  0  0
  4  5  1  0  0  0  0
  5  6  2  0  0  0  0
  6  1  1  0  0  0  0
  8  3  1  0  0  0  0
  9  4  1  0  0  0  0
 10 17  1  0  0  0  0
 10 15  1  0  0  0  0
 11 12  1  0  0  0  0
 11 10  2  0  0  0  0
 12 13  2  0  0  0  0
 13 14  1  0  0  0  0
 14 16  1  0  0  0  0
 15 14  2  0  0  0  0
 16 19  1  0  0  0  0
 18 16  1  0  0  0  0
 20 22  1  0  0  0  0
 20 11  1  0  0  0  0
 21 20  1  0  0  0  0
 23 20  1  0  0  0  0
 24  5  1  0  0  0  0
 25 24  2  0  0  0  0
 25 26  1  0  0  0  0
 27 28  1  0  0  0  0
 27 25  1  0  0  0  0
 28 30  2  0  0  0  0
 29 28  1  0  0  0  0
 30 24  1  0  0  0  0
M  END
>  <minimizedAffinity>
-5.22865152

$$$$

 OpenBabel03272507593D

 30 32  0  0  0  0  0  0  0  0999 V2000
   34.5970   29.9090   34.4670 C   0  0  0  0  0  0  0  0  0  0  0  0
   34.2840   30.1500   33.1430 C   0  0  0  0  0  0  0  0  0  0  0  0
   34.9400   29.4810   32.1290 C   0  0  0  0  0  0  0  0  0  0  0  0
   35.9210   28.5580   32.4580 C   0  0  0  0  0  0  0  0  0  0  0  0
   36.2250   28.3250   33.7810 C   0  0  0  0  0  0  0  0  0  0  0  0
   35.5490   29.0100   34.7130 N   0  0  0  0  0  0  0  0  0  0  0  0
   33.5330   30.8460   32.7830 H   0  0  0  0  0  0  0  0  0  0  0  0
   34.7460   29.6210   31.0920 H   0  0  0  0  0  0  0  0  0  0  0  0
   36.4960   27.9780   31.7620 H   0  0  0  0  0  0  0  0  0  0  0  0
   33.5650   32.6050   36.8690 C   0  0  0  0  0  0  0  0  0  0  0  0
   34.3600   31.8390   35.9560 C   0  0  0  0  0  0  0  0  0  0  0  0
   33.8090   30.6950   35.3980 C   0  0  0  0  0  0  0  0  0  0  0  0
   32.5350   30.3500   35.7430 N   0  0  0  0  0  0  0  0  0  0  0  0
   31.8090   31.0990   36.6120 C   0  0  0  0  0  0  0  0  0  0  0  0
   32.3130   32.2170   37.1740 N   0  0  0  0  0  0  0  0  0  0  0  0
   30.5130   30.5420   36.8120 N   0  0  0  0  0  0  0  0  0  0  0  0
   33.9190   33.4990   37.3340 H   0  0  0  0  0  0  0  0  0  0  0  0
   30.6960   30.1460   37.7790 H   0  0  0  0  0  0  0  0  0  0  0  0
   29.8190   30.6770   36.0090 H   0  0  0  0  0  0  0  0  0  0  0  0
   35.7450   32.3210   35.6650 C   0  0  0  0  0  0  0  0  0  0  0  0
   35.9150   32.5620   34.3120 F   0  0  0  0  0  0  0  0  0  0  0  0
   35.9260   33.5050   36.3450 F   0  0  0  0  0  0  0  0  0  0  0  0
   36.7180   31.4420   36.0750 F   0  0  0  0  0  0  0  0  0  0  0  0
   37.2490   27.3610   34.2230 C   0  0  0  0  0  0  0  0  0  0  0  0
   37.4490   26.0990   33.5720 C   0  0  0  0  0  0  0  0  0  0  0  0
   36.8660   25.7280   32.6520 H   0  0  0  0  0  0  0  0  0  0  0  0
   38.8300   25.3700   34.6410 S   0  0  0  0  0  0  0  0  0  0  0  0
   38.8460   26.9170   35.7350 C   0  0  0  0  0  0  0  0  0  0  0  0
   39.5830   26.8300   36.5160 H   0  0  0  0  0  0  0  0  0  0  0  0
   38.0060   27.6100   35.2580 N   0  0  0  0  0  0  0  0  0  0  0  0
  1  6  1  0  0  0  0
  1 12  1  0  0  0  0
  2  1  2  0  0  0  0
  3  4  2  0  0  0  0
  3  2  1  0  0  0  0
  4  5  1  0  0  0  0
  5 24  1  0  0  0  0
  5  6  2  0  0  0  0
  7  2  1  0  0  0  0
  8  3  1  0  0  0  0
  9  4  1  0  0  0  0
 10 15  1  0  0  0  0
 10 17  1  0  0  0  0
 11 10  2  0  0  0  0
 12 13  2  0  0  0  0
 12 11  1  0  0  0  0
 13 14  1  0  0  0  0
 14 16  1  0  0  0  0
 14 15  2  0  0  0  0
 16 18  1  0  0  0  0
 19 16  1  0  0  0  0
 20 11  1  0  0  0  0
 20 23  1  0  0  0  0
 20 22  1  0  0  0  0
 21 20  1  0  0  0  0
 24 30  1  0  0  0  0
 25 24  2  0  0  0  0
 25 27  1  0  0  0  0
 26 25  1  0  0  0  0
 27 28  1  0  0  0  0
 28 29  1  0  0  0  0
 30 28  2  0  0  0  0
M  END
>  <minimizedAffinity>
-5.20767164

$$$$

 OpenBabel03272507593D

 30 32  0  0  0  0  0  0  0  0999 V2000
   38.7920   24.3050   35.0670 C   0  0  0  0  0  0  0  0  0  0  0  0
   38.0460   24.5860   36.1960 C   0  0  0  0  0  0  0  0  0  0  0  0
   38.3270   23.9700   37.4000 C   0  0  0  0  0  0  0  0  0  0  0  0
   39.3730   23.0630   37.4620 C   0  0  0  0  0  0  0  0  0  0  0  0
   40.1110   22.7900   36.3310 C   0  0  0  0  0  0  0  0  0  0  0  0
   39.7830   23.4230   35.1970 N   0  0  0  0  0  0  0  0  0  0  0  0
   37.2140   25.2800   36.2520 H   0  0  0  0  0  0  0  0  0  0  0  0
   37.7910   24.1430   38.3020 H   0  0  0  0  0  0  0  0  0  0  0  0
   39.6860   22.5250   38.3360 H   0  0  0  0  0  0  0  0  0  0  0  0
   38.6080   26.9040   32.3630 C   0  0  0  0  0  0  0  0  0  0  0  0
   39.0440   26.1930   33.5280 C   0  0  0  0  0  0  0  0  0  0  0  0
   38.3620   25.0420   33.8940 C   0  0  0  0  0  0  0  0  0  0  0  0
   37.3060   24.6390   33.1300 N   0  0  0  0  0  0  0  0  0  0  0  0
   36.9190   25.3380   32.0320 C   0  0  0  0  0  0  0  0  0  0  0  0
   37.5590   26.4610   31.6460 N   0  0  0  0  0  0  0  0  0  0  0  0
   35.8000   24.7210   31.3990 N   0  0  0  0  0  0  0  0  0  0  0  0
   39.0860   27.7940   32.0170 H   0  0  0  0  0  0  0  0  0  0  0  0
   35.0730   25.4200   31.7260 H   0  0  0  0  0  0  0  0  0  0  0  0
   36.0110   23.8320   30.8440 H   0  0  0  0  0  0  0  0  0  0  0  0
   40.2110   26.7420   34.2830 C   0  0  0  0  0  0  0  0  0  0  0  0
   41.2040   25.7880   34.4300 F   0  0  0  0  0  0  0  0  0  0  0  0
   40.7220   27.7930   33.5530 F   0  0  0  0  0  0  0  0  0  0  0  0
   39.8740   27.2130   35.5280 F   0  0  0  0  0  0  0  0  0  0  0  0
   41.2400   21.8430   36.3050 C   0  0  0  0  0  0  0  0  0  0  0  0
   41.9130   21.4820   35.0910 C   0  0  0  0  0  0  0  0  0  0  0  0
   41.6660   21.8990   34.0470 H   0  0  0  0  0  0  0  0  0  0  0  0
   43.1790   20.2400   35.7500 S   0  0  0  0  0  0  0  0  0  0  0  0
   42.5350   20.4700   37.5170 C   0  0  0  0  0  0  0  0  0  0  0  0
   43.0830   19.8520   38.2110 H   0  0  0  0  0  0  0  0  0  0  0  0
   41.6600   21.2650   37.3990 N   0  0  0  0  0  0  0  0  0  0  0  0
  1  6  2  0  0  0  0
  1  2  1  0  0  0  0
  2  7  1  0  0  0  0
  2  3  2  0  0  0  0
  3  4  1  0  0  0  0
  3  8  1  0  0  0  0
  4  9  1  0  0  0  0
  5  4  2  0  0  0  0
  6  5  1  0  0  0  0
 10 11  1  0  0  0  0
 11 12  2  0  0  0  0
 11 20  1  0  0  0  0
 12  1  1  0  0  0  0
 13 12  1  0  0  0  0
 14 13  2  0  0  0  0
 15 14  1  0  0  0  0
 15 10  2  0  0  0  0
 16 18  1  0  0  0  0
 16 14  1  0  0  0  0
 17 10  1  0  0  0  0
 19 16  1  0  0  0  0
 20 21  1  0  0  0  0
 20 23  1  0  0  0  0
 22 20  1  0  0  0  0
 24  5  1  0  0  0  0
 24 30  1  0  0  0  0
 25 27  1  0  0  0  0
 25 24  2  0  0  0  0
 26 25  1  0  0  0  0
 27 28  1  0  0  0  0
 28 29  1  0  0  0  0
 30 28  2  0  0  0  0
M  END
>  <minimizedAffinity>
-5.15913486

$$$$

 OpenBabel03272507593D

 30 32  0  0  0  0  0  0  0  0999 V2000
   37.3520   24.9980   32.5690 C   0  0  0  0  0  0  0  0  0  0  0  0
   36.5410   25.8340   31.8270 C   0  0  0  0  0  0  0  0  0  0  0  0
   35.4960   25.3240   31.0810 C   0  0  0  0  0  0  0  0  0  0  0  0
   35.2700   23.9560   31.0880 C   0  0  0  0  0  0  0  0  0  0  0  0
   36.0850   23.1320   31.8320 C   0  0  0  0  0  0  0  0  0  0  0  0
   37.0800   23.6940   32.5320 N   0  0  0  0  0  0  0  0  0  0  0  0
   36.6310   26.9120   31.7590 H   0  0  0  0  0  0  0  0  0  0  0  0
   34.8360   25.9130   30.4890 H   0  0  0  0  0  0  0  0  0  0  0  0
   34.4930   23.4450   30.5520 H   0  0  0  0  0  0  0  0  0  0  0  0
   40.6980   26.4230   33.5050 C   0  0  0  0  0  0  0  0  0  0  0  0
   39.6830   25.7190   32.7790 C   0  0  0  0  0  0  0  0  0  0  0  0
   38.3950   25.7010   33.2930 C   0  0  0  0  0  0  0  0  0  0  0  0
   38.1520   26.3540   34.4660 N   0  0  0  0  0  0  0  0  0  0  0  0
   39.1380   27.0110   35.1290 C   0  0  0  0  0  0  0  0  0  0  0  0
   40.4020   27.0490   34.6590 N   0  0  0  0  0  0  0  0  0  0  0  0
   38.6410   27.6140   36.3210 N   0  0  0  0  0  0  0  0  0  0  0  0
   41.7100   26.4850   33.1700 H   0  0  0  0  0  0  0  0  0  0  0  0
   39.0680   26.9180   36.9980 H   0  0  0  0  0  0  0  0  0  0  0  0
   38.0510   28.4950   36.1860 H   0  0  0  0  0  0  0  0  0  0  0  0
   40.0800   25.0390   31.5080 C   0  0  0  0  0  0  0  0  0  0  0  0
   39.3510   25.5230   30.4350 F   0  0  0  0  0  0  0  0  0  0  0  0
   41.4130   25.3130   31.2880 F   0  0  0  0  0  0  0  0  0  0  0  0
   39.9280   23.6750   31.5570 F   0  0  0  0  0  0  0  0  0  0  0  0
   35.9180   21.6690   31.9010 C   0  0  0  0  0  0  0  0  0  0  0  0
   35.4540   21.0030   33.0840 C   0  0  0  0  0  0  0  0  0  0  0  0
   35.1500   21.5260   34.0640 H   0  0  0  0  0  0  0  0  0  0  0  0
   35.5200   19.1990   32.5180 S   0  0  0  0  0  0  0  0  0  0  0  0
   36.1560   19.7230   30.8120 C   0  0  0  0  0  0  0  0  0  0  0  0
   36.3160   18.8640   30.1790 H   0  0  0  0  0  0  0  0  0  0  0  0
   36.2180   20.9080   30.8830 N   0  0  0  0  0  0  0  0  0  0  0  0
  1 12  1  0  0  0  0
  2  1  2  0  0  0  0
  3  4  2  0  0  0  0
  3  2  1  0  0  0  0
  4  5  1  0  0  0  0
  5 24  1  0  0  0  0
  5  6  2  0  0  0  0
  6  1  1  0  0  0  0
  7  2  1  0  0  0  0
  8  3  1  0  0  0  0
  9  4  1  0  0  0  0
 10 15  1  0  0  0  0
 11 12  1  0  0  0  0
 11 10  2  0  0  0  0
 12 13  2  0  0  0  0
 13 14  1  0  0  0  0
 14 16  1  0  0  0  0
 15 14  2  0  0  0  0
 16 18  1  0  0  0  0
 17 10  1  0  0  0  0
 19 16  1  0  0  0  0
 20 23  1  0  0  0  0
 20 11  1  0  0  0  0
 21 20  1  0  0  0  0
 22 20  1  0  0  0  0
 24 25  2  0  0  0  0
 25 26  1  0  0  0  0
 27 25  1  0  0  0  0
 28 30  2  0  0  0  0
 28 27  1  0  0  0  0
 29 28  1  0  0  0  0
 30 24  1  0  0  0  0
M  END
>  <minimizedAffinity>
-5.13340473

$$$$

 OpenBabel03272507593D

 30 32  0  0  0  0  0  0  0  0999 V2000
   37.7060   22.2730   32.5200 C   0  0  0  0  0  0  0  0  0  0  0  0
   37.5740   23.4710   31.8440 C   0  0  0  0  0  0  0  0  0  0  0  0
   37.7260   24.6750   32.5040 C   0  0  0  0  0  0  0  0  0  0  0  0
   38.0150   24.6660   33.8590 C   0  0  0  0  0  0  0  0  0  0  0  0
   38.1440   23.4670   34.5240 C   0  0  0  0  0  0  0  0  0  0  0  0
   37.9840   22.3370   33.8220 N   0  0  0  0  0  0  0  0  0  0  0  0
   37.3540   23.5840   30.7880 H   0  0  0  0  0  0  0  0  0  0  0  0
   37.6360   25.6290   32.0410 H   0  0  0  0  0  0  0  0  0  0  0  0
   38.1550   25.5330   34.4770 H   0  0  0  0  0  0  0  0  0  0  0  0
   36.1140   19.3400   30.7970 C   0  0  0  0  0  0  0  0  0  0  0  0
   36.2810   20.4850   31.6430 C   0  0  0  0  0  0  0  0  0  0  0  0
   37.5190   21.1100   31.6730 C   0  0  0  0  0  0  0  0  0  0  0  0
   38.5220   20.6080   30.8970 N   0  0  0  0  0  0  0  0  0  0  0  0
   38.3290   19.5210   30.1060 C   0  0  0  0  0  0  0  0  0  0  0  0
   37.1390   18.8880   30.0520 N   0  0  0  0  0  0  0  0  0  0  0  0
   39.5170   19.1900   29.3910 N   0  0  0  0  0  0  0  0  0  0  0  0
   35.1900   18.8110   30.7180 H   0  0  0  0  0  0  0  0  0  0  0  0
   39.7790   18.3420   29.9720 H   0  0  0  0  0  0  0  0  0  0  0  0
   39.7590   19.8300   28.5690 H   0  0  0  0  0  0  0  0  0  0  0  0
   35.1050   20.9320   32.4500 C   0  0  0  0  0  0  0  0  0  0  0  0
   33.9590   20.2470   32.0840 F   0  0  0  0  0  0  0  0  0  0  0  0
   35.3760   20.6520   33.7720 F   0  0  0  0  0  0  0  0  0  0  0  0
   34.8580   22.2790   32.3430 F   0  0  0  0  0  0  0  0  0  0  0  0
   38.4530   23.3620   35.9610 C   0  0  0  0  0  0  0  0  0  0  0  0
   37.5710   23.8620   36.9760 C   0  0  0  0  0  0  0  0  0  0  0  0
   36.5510   24.3580   36.7820 H   0  0  0  0  0  0  0  0  0  0  0  0
   38.5670   23.4590   38.5330 S   0  0  0  0  0  0  0  0  0  0  0  0
   39.9580   22.7050   37.4900 C   0  0  0  0  0  0  0  0  0  0  0  0
   40.7580   22.3450   38.1160 H   0  0  0  0  0  0  0  0  0  0  0  0
   39.5730   22.8290   36.3720 N   0  0  0  0  0  0  0  0  0  0  0  0
  1  6  1  0  0  0  0
  2  3  1  0  0  0  0
  2  1  2  0  0  0  0
  3  4  2  0  0  0  0
  4  9  1  0  0  0  0
  4  5  1  0  0  0  0
  5 24  1  0  0  0  0
  6  5  2  0  0  0  0
  7  2  1  0  0  0  0
  8  3  1  0  0  0  0
 10 11  1  0  0  0  0
 11 12  2  0  0  0  0
 11 20  1  0  0  0  0
 12  1  1  0  0  0  0
 13 12  1  0  0  0  0
 14 13  2  0  0  0  0
 15 14  1  0  0  0  0
 15 10  2  0  0  0  0
 16 18  1  0  0  0  0
 16 14  1  0  0  0  0
 17 10  1  0  0  0  0
 19 16  1  0  0  0  0
 20 22  1  0  0  0  0
 21 20  1  0  0  0  0
 23 20  1  0  0  0  0
 24 30  1  0  0  0  0
 24 25  2  0  0  0  0
 25 27  1  0  0  0  0
 26 25  1  0  0  0  0
 28 29  1  0  0  0  0
 28 27  1  0  0  0  0
 30 28  2  0  0  0  0
M  END
>  <minimizedAffinity>
-5.12712908

$$$$

 OpenBabel03272507593D

 30 32  0  0  0  0  0  0  0  0999 V2000
   38.4900   22.9060   34.3550 C   0  0  0  0  0  0  0  0  0  0  0  0
   37.7710   21.7970   33.9540 C   0  0  0  0  0  0  0  0  0  0  0  0
   36.8550   21.8840   32.9240 C   0  0  0  0  0  0  0  0  0  0  0  0
   36.6660   23.1050   32.2940 C   0  0  0  0  0  0  0  0  0  0  0  0
   37.3880   24.2040   32.7020 C   0  0  0  0  0  0  0  0  0  0  0  0
   38.2610   24.0480   33.7080 N   0  0  0  0  0  0  0  0  0  0  0  0
   37.8490   20.8010   34.3770 H   0  0  0  0  0  0  0  0  0  0  0  0
   36.2710   21.0690   32.5690 H   0  0  0  0  0  0  0  0  0  0  0  0
   35.9870   23.2950   31.4850 H   0  0  0  0  0  0  0  0  0  0  0  0
   39.9380   22.6340   37.8100 C   0  0  0  0  0  0  0  0  0  0  0  0
   39.0190   22.9150   36.7460 C   0  0  0  0  0  0  0  0  0  0  0  0
   39.4080   22.6340   35.4450 C   0  0  0  0  0  0  0  0  0  0  0  0
   40.6480   22.1030   35.2350 N   0  0  0  0  0  0  0  0  0  0  0  0
   41.4940   21.8500   36.2670 C   0  0  0  0  0  0  0  0  0  0  0  0
   41.1490   22.1100   37.5450 N   0  0  0  0  0  0  0  0  0  0  0  0
   42.7210   21.2960   35.8000 N   0  0  0  0  0  0  0  0  0  0  0  0
   39.7070   22.8190   38.8360 H   0  0  0  0  0  0  0  0  0  0  0  0
   43.3080   22.1690   35.9320 H   0  0  0  0  0  0  0  0  0  0  0  0
   42.6830   20.2730   35.4900 H   0  0  0  0  0  0  0  0  0  0  0  0
   37.6930   23.5020   37.1080 C   0  0  0  0  0  0  0  0  0  0  0  0
   36.6610   22.6330   36.7980 F   0  0  0  0  0  0  0  0  0  0  0  0
   37.6890   23.7150   38.4700 F   0  0  0  0  0  0  0  0  0  0  0  0
   37.4500   24.7040   36.4890 F   0  0  0  0  0  0  0  0  0  0  0  0
   37.2560   25.5380   32.0900 C   0  0  0  0  0  0  0  0  0  0  0  0
   36.1280   25.9050   31.2820 C   0  0  0  0  0  0  0  0  0  0  0  0
   35.2260   25.2270   31.0560 H   0  0  0  0  0  0  0  0  0  0  0  0
   36.6080   27.6690   30.7950 S   0  0  0  0  0  0  0  0  0  0  0  0
   38.2210   27.5390   31.7800 C   0  0  0  0  0  0  0  0  0  0  0  0
   38.7900   28.4520   31.7110 H   0  0  0  0  0  0  0  0  0  0  0  0
   38.1870   26.4420   32.2360 N   0  0  0  0  0  0  0  0  0  0  0  0
  1 12  1  0  0  0  0
  2  1  1  0  0  0  0
  2  7  1  0  0  0  0
  3  2  2  0  0  0  0
  4  5  2  0  0  0  0
  4  3  1  0  0  0  0
  5  6  1  0  0  0  0
  6  1  2  0  0  0  0
  8  3  1  0  0  0  0
  9  4  1  0  0  0  0
 10 17  1  0  0  0  0
 11 20  1  0  0  0  0
 11 10  2  0  0  0  0
 12 11  1  0  0  0  0
 13 12  2  0  0  0  0
 13 14  1  0  0  0  0
 14 15  2  0  0  0  0
 15 10  1  0  0  0  0
 16 18  1  0  0  0  0
 16 14  1  0  0  0  0
 19 16  1  0  0  0  0
 20 22  1  0  0  0  0
 21 20  1  0  0  0  0
 23 20  1  0  0  0  0
 24 30  1  0  0  0  0
 24  5  1  0  0  0  0
 25 24  2  0  0  0  0
 26 25  1  0  0  0  0
 27 25  1  0  0  0  0
 27 28  1  0  0  0  0
 28 30  2  0  0  0  0
 29 28  1  0  0  0  0
M  END
>  <minimizedAffinity>
-5.1262517

$$$$
