
 OpenBabel03272506413D

 17 18  0  0  0  0  0  0  0  0999 V2000
   37.2430   30.2870   51.3050 C   0  0  0  0  0  0  0  0  0  0  0  0
   38.1020   30.8350   50.3350 C   0  0  0  0  0  0  0  0  0  0  0  0
   37.8460   30.5320   48.9950 C   0  0  0  0  0  0  0  0  0  0  0  0
   36.7860   29.7280   48.7060 N   0  0  0  0  0  0  0  0  0  0  0  0
   35.9850   29.2200   49.6670 C   0  0  0  0  0  0  0  0  0  0  0  0
   36.1980   29.4880   50.9590 N   0  0  0  0  0  0  0  0  0  0  0  0
   37.3940   30.4890   52.3680 H   0  0  0  0  0  0  0  0  0  0  0  0
   38.9070   31.4550   50.6510 H   0  0  0  0  0  0  0  0  0  0  0  0
   38.4940   30.9430   48.2270 H   0  0  0  0  0  0  0  0  0  0  0  0
   34.5980   28.1670   49.2720 S   0  0  0  0  0  0  0  0  0  0  0  0
   33.6320   28.8850   47.9240 C   0  0  0  0  0  0  0  0  0  0  0  0
   32.4740   28.1140   47.5160 C   0  0  0  0  0  0  0  0  0  0  0  0
   32.0860   27.2050   47.8610 H   0  0  0  0  0  0  0  0  0  0  0  0
   31.8290   29.2410   46.1350 S   0  0  0  0  0  0  0  0  0  0  0  0
   33.2380   30.4830   46.4070 C   0  0  0  0  0  0  0  0  0  0  0  0
   33.3450   31.3880   45.8270 H   0  0  0  0  0  0  0  0  0  0  0  0
   33.8790   30.0160   47.2950 N   0  0  0  0  0  0  0  0  0  0  0  0
  1  7  1  0  0  0  0
  2  8  1  0  0  0  0
  2  1  2  0  0  0  0
  3  2  1  0  0  0  0
  4  3  2  0  0  0  0
  4  5  1  0  0  0  0
  5  6  2  0  0  0  0
  6  1  1  0  0  0  0
  9  3  1  0  0  0  0
 10  5  1  0  0  0  0
 11 10  1  0  0  0  0
 12 13  1  0  0  0  0
 12 11  2  0  0  0  0
 14 15  1  0  0  0  0
 14 12  1  0  0  0  0
 15 17  2  0  0  0  0
 16 15  1  0  0  0  0
 17 11  1  0  0  0  0
M  END
>  <minimizedAffinity>
-3.82385135

>  <minimizedRMSD>
1.55056548

$$$$
