REMARK  Name = 
REMARK  4 active torsions:
REMARK  status: ('A' for Active; 'I' for Inactive)
REMARK    1  A    between atoms: C_1  and  C_8
REMARK    2  A    between atoms: C_4  and  O_13
REMARK    3  A    between atoms: O_13  and  C_14
REMARK    4  A    between atoms: N_17  and  C_27
REMARK                            x       y       z     vdW  Elec       q    Type
REMARK                         _______ _______ _______ _____ _____    ______ ____
ROOT
ATOM      1  C   UNL     1      33.838  28.785  48.276  0.00  0.00    +0.000 A 
ATOM      2  C   UNL     1      34.431  28.421  49.433  0.00  0.00    +0.000 A 
ATOM      3  C   UNL     1      35.709  28.791  49.817  0.00  0.00    +0.000 A 
ATOM      4  C   UNL     1      36.456  29.581  48.992  0.00  0.00    +0.000 A 
ATOM      5  C   UNL     1      35.849  29.965  47.788  0.00  0.00    +0.000 A 
ATOM      6  N   UNL     1      34.603  29.567  47.480  0.00  0.00    +0.000 NA
ATOM      7  H   UNL     1      33.917  27.795  50.150  0.00  0.00    +0.000 HD
ATOM      8  H   UNL     1      36.181  28.500  50.740  0.00  0.00    +0.000 HD
ATOM      9  H   UNL     1      36.302  30.586  47.028  0.00  0.00    +0.000 HD
ENDROOT
BRANCH   1  11
ATOM     10  C   UNL     1      31.642  27.645  48.688  0.00  0.00    +0.000 A 
ATOM     11  C   UNL     1      32.516  28.398  47.887  0.00  0.00    +0.000 A 
ATOM     12  C   UNL     1      32.034  28.775  46.641  0.00  0.00    +0.000 A 
ATOM     13  N   UNL     1      30.762  28.398  46.275  0.00  0.00    +0.000 NA
ATOM     14  C   UNL     1      29.980  27.675  47.097  0.00  0.00    +0.000 A 
ATOM     15  N   UNL     1      30.413  27.289  48.318  0.00  0.00    +0.000 NA
ATOM     16  H   UNL     1      31.989  27.336  49.666  0.00  0.00    +0.000 HD
ATOM     17  H   UNL     1      32.600  29.355  45.924  0.00  0.00    +0.000 HD
ATOM     18  H   UNL     1      28.982  27.383  46.803  0.00  0.00    +0.000 HD
ENDBRANCH   1  11
BRANCH   4  19
ATOM     19  O   UNL     1      37.752  30.049  49.213  0.00  0.00    +0.000 OA
BRANCH  19  20
ATOM     20  C   UNL     1      38.159  31.302  48.785  0.00  0.00    +0.000 A 
ATOM     21  C   UNL     1      37.872  32.331  49.659  0.00  0.00    +0.000 A 
ATOM     22  C   UNL     1      38.337  33.517  49.098  0.00  0.00    +0.000 A 
ATOM     23  N   UNL     1      38.882  33.177  47.922  0.00  0.00    +0.000 N 
ATOM     24  N   UNL     1      38.772  31.885  47.752  0.00  0.00    +0.000 NA
ATOM     25  H   UNL     1      37.386  32.416  50.641  0.00  0.00    +0.000 HD
ATOM     26  H   UNL     1      38.350  34.563  49.384  0.00  0.00    +0.000 HD
BRANCH  23  27
ATOM     27  C   UNL     1      39.536  33.907  46.859  0.00  0.00    +0.000 A 
ATOM     28  C   UNL     1      40.530  35.068  46.992  0.00  0.00    +0.000 A 
ATOM     29  H   UNL     1      40.684  35.275  48.039  0.00  0.00    +0.000 HD
ATOM     30  S   UNL     1      40.828  35.367  45.234  0.00  0.00    +0.000 S 
ATOM     31  C   UNL     1      39.663  33.995  44.629  0.00  0.00    +0.000 A 
ATOM     32  H   UNL     1      39.611  33.906  43.579  0.00  0.00    +0.000 HD
ATOM     33  N   UNL     1      39.148  33.425  45.673  0.00  0.00    +0.000 NA
ENDBRANCH  23  27
ENDBRANCH  19  20
ENDBRANCH   4  19
TORSDOF 4
