
 OpenBabel03272510123D

 33 36  0  0  0  0  0  0  0  0999 V2000
   33.7120   28.4350   48.4770 C   0  0  0  0  0  0  0  0  0  0  0  0
   34.6060   28.0700   49.4210 C   0  0  0  0  0  0  0  0  0  0  0  0
   35.6520   28.8600   49.8670 C   0  0  0  0  0  0  0  0  0  0  0  0
   35.8260   30.1060   49.3370 C   0  0  0  0  0  0  0  0  0  0  0  0
   34.9030   30.4940   48.3560 C   0  0  0  0  0  0  0  0  0  0  0  0
   33.9110   29.6730   47.9710 N   0  0  0  0  0  0  0  0  0  0  0  0
   34.5480   27.1010   49.8980 H   0  0  0  0  0  0  0  0  0  0  0  0
   36.3640   28.5680   50.6200 H   0  0  0  0  0  0  0  0  0  0  0  0
   34.9000   31.4440   47.8390 H   0  0  0  0  0  0  0  0  0  0  0  0
   31.3910   27.5040   48.6670 C   0  0  0  0  0  0  0  0  0  0  0  0
   32.6330   27.6110   48.0220 C   0  0  0  0  0  0  0  0  0  0  0  0
   32.7930   26.8540   46.8690 C   0  0  0  0  0  0  0  0  0  0  0  0
   31.7510   26.0650   46.4390 N   0  0  0  0  0  0  0  0  0  0  0  0
   30.5860   26.0130   47.1100 C   0  0  0  0  0  0  0  0  0  0  0  0
   30.3920   26.7350   48.2360 N   0  0  0  0  0  0  0  0  0  0  0  0
   31.2350   28.0830   49.5690 H   0  0  0  0  0  0  0  0  0  0  0  0
   33.6970   26.8410   46.2740 H   0  0  0  0  0  0  0  0  0  0  0  0
   29.7720   25.3910   46.7660 H   0  0  0  0  0  0  0  0  0  0  0  0
   36.8160   31.0340   49.6630 O   0  0  0  0  0  0  0  0  0  0  0  0
   37.5790   31.6590   48.6900 C   0  0  0  0  0  0  0  0  0  0  0  0
   38.4800   32.5870   49.1730 C   0  0  0  0  0  0  0  0  0  0  0  0
   39.1680   33.1260   48.0890 C   0  0  0  0  0  0  0  0  0  0  0  0
   38.6720   32.5190   47.0020 N   0  0  0  0  0  0  0  0  0  0  0  0
   37.7490   31.6670   47.3660 N   0  0  0  0  0  0  0  0  0  0  0  0
   38.7560   32.9720   50.1640 H   0  0  0  0  0  0  0  0  0  0  0  0
   39.9480   33.8660   47.9510 H   0  0  0  0  0  0  0  0  0  0  0  0
   38.9380   32.6050   45.5840 C   0  0  0  0  0  0  0  0  0  0  0  0
   40.2800   32.8890   44.8970 C   0  0  0  0  0  0  0  0  0  0  0  0
   41.0370   33.0220   45.6540 H   0  0  0  0  0  0  0  0  0  0  0  0
   39.7210   32.8190   43.1790 S   0  0  0  0  0  0  0  0  0  0  0  0
   37.9080   32.4470   43.6060 C   0  0  0  0  0  0  0  0  0  0  0  0
   37.2810   32.3420   42.7640 H   0  0  0  0  0  0  0  0  0  0  0  0
   37.8090   32.3960   44.8970 N   0  0  0  0  0  0  0  0  0  0  0  0
  1  2  1  0  0  0  0
  2  3  2  0  0  0  0
  2  7  1  0  0  0  0
  3  8  1  0  0  0  0
  4 19  1  0  0  0  0
  4  3  1  0  0  0  0
  5  4  2  0  0  0  0
  6  5  1  0  0  0  0
  6  1  2  0  0  0  0
  9  5  1  0  0  0  0
 10 16  1  0  0  0  0
 11  1  1  0  0  0  0
 11 10  2  0  0  0  0
 12 11  1  0  0  0  0
 13 12  2  0  0  0  0
 13 14  1  0  0  0  0
 14 15  2  0  0  0  0
 15 10  1  0  0  0  0
 17 12  1  0  0  0  0
 18 14  1  0  0  0  0
 20 21  1  0  0  0  0
 20 19  1  0  0  0  0
 21 25  1  0  0  0  0
 22 21  2  0  0  0  0
 23 24  1  0  0  0  0
 23 22  1  0  0  0  0
 24 20  2  0  0  0  0
 26 22  1  0  0  0  0
 27 23  1  0  0  0  0
 28 27  2  0  0  0  0
 28 29  1  0  0  0  0
 30 31  1  0  0  0  0
 30 28  1  0  0  0  0
 31 33  2  0  0  0  0
 32 31  1  0  0  0  0
 33 27  1  0  0  0  0
M  END
>  <minimizedAffinity>
-5.87406063

>  <minimizedRMSD>
1.76298404

$$$$
