
 OpenBabel03272507563D

 21 22  0  0  0  0  0  0  0  0999 V2000
   37.0330   27.3280   33.4800 C   0  0  0  0  0  0  0  0  0  0  0  0
   37.8360   26.4990   34.3000 C   0  0  0  0  0  0  0  0  0  0  0  0
   38.0750   25.1960   33.8730 C   0  0  0  0  0  0  0  0  0  0  0  0
   37.5310   24.7770   32.6940 N   0  0  0  0  0  0  0  0  0  0  0  0
   36.7620   25.6100   31.9360 C   0  0  0  0  0  0  0  0  0  0  0  0
   36.5110   26.8820   32.3210 N   0  0  0  0  0  0  0  0  0  0  0  0
   36.2970   24.9750   30.7550 N   0  0  0  0  0  0  0  0  0  0  0  0
   36.8110   28.3520   33.7570 H   0  0  0  0  0  0  0  0  0  0  0  0
   36.7920   24.8660   29.8310 H   0  0  0  0  0  0  0  0  0  0  0  0
   35.3440   24.6670   31.1010 H   0  0  0  0  0  0  0  0  0  0  0  0
   38.9030   24.3100   34.6960 C   0  0  0  0  0  0  0  0  0  0  0  0
   38.2390   23.3330   35.4310 C   0  0  0  0  0  0  0  0  0  0  0  0
   37.1940   23.0810   35.5250 H   0  0  0  0  0  0  0  0  0  0  0  0
   39.6040   22.4630   36.2990 S   0  0  0  0  0  0  0  0  0  0  0  0
   40.8800   23.6280   35.4760 C   0  0  0  0  0  0  0  0  0  0  0  0
   42.0200   23.7230   35.5210 H   0  0  0  0  0  0  0  0  0  0  0  0
   40.2130   24.2930   34.8540 N   0  0  0  0  0  0  0  0  0  0  0  0
   38.3840   27.0480   35.5680 C   0  0  0  0  0  0  0  0  0  0  0  0
   39.7630   27.2100   35.4930 F   0  0  0  0  0  0  0  0  0  0  0  0
   37.8130   28.2710   35.7920 F   0  0  0  0  0  0  0  0  0  0  0  0
   38.1200   26.2390   36.6560 F   0  0  0  0  0  0  0  0  0  0  0  0
  1  8  1  0  0  0  0
  1  2  1  0  0  0  0
  2 18  1  0  0  0  0
  3  2  2  0  0  0  0
  3 11  1  0  0  0  0
  4  3  1  0  0  0  0
  5  6  1  0  0  0  0
  5  4  2  0  0  0  0
  6  1  2  0  0  0  0
  7 10  1  0  0  0  0
  7  5  1  0  0  0  0
  9  7  1  0  0  0  0
 11 17  1  0  0  0  0
 11 12  2  0  0  0  0
 12 13  1  0  0  0  0
 12 14  1  0  0  0  0
 15 16  1  0  0  0  0
 15 14  1  0  0  0  0
 17 15  2  0  0  0  0
 18 20  1  0  0  0  0
 18 21  1  0  0  0  0
 19 18  1  0  0  0  0
M  END
>  <minimizedAffinity>
-4.4828186

$$$$

 OpenBabel03272507563D

 21 22  0  0  0  0  0  0  0  0999 V2000
   37.1050   26.8800   33.5840 C   0  0  0  0  0  0  0  0  0  0  0  0
   37.9700   26.2070   34.4810 C   0  0  0  0  0  0  0  0  0  0  0  0
   38.2650   24.8710   34.2210 C   0  0  0  0  0  0  0  0  0  0  0  0
   37.7140   24.2740   33.1250 N   0  0  0  0  0  0  0  0  0  0  0  0
   36.8840   24.9610   32.2880 C   0  0  0  0  0  0  0  0  0  0  0  0
   36.5790   26.2600   32.5110 N   0  0  0  0  0  0  0  0  0  0  0  0
   36.4240   24.1540   31.2160 N   0  0  0  0  0  0  0  0  0  0  0  0
   36.8380   27.9200   33.7320 H   0  0  0  0  0  0  0  0  0  0  0  0
   36.9010   23.9470   30.2990 H   0  0  0  0  0  0  0  0  0  0  0  0
   35.4970   23.8500   31.6290 H   0  0  0  0  0  0  0  0  0  0  0  0
   39.1580   24.1420   35.1260 C   0  0  0  0  0  0  0  0  0  0  0  0
   40.5050   24.1050   34.7840 C   0  0  0  0  0  0  0  0  0  0  0  0
   41.0540   24.5200   33.9520 H   0  0  0  0  0  0  0  0  0  0  0  0
   41.2550   23.1210   36.1410 S   0  0  0  0  0  0  0  0  0  0  0  0
   39.5370   22.9300   36.9620 C   0  0  0  0  0  0  0  0  0  0  0  0
   39.1570   22.4110   37.9100 H   0  0  0  0  0  0  0  0  0  0  0  0
   38.8770   23.4990   36.2440 N   0  0  0  0  0  0  0  0  0  0  0  0
   38.5210   26.9430   35.6480 C   0  0  0  0  0  0  0  0  0  0  0  0
   37.9650   28.2130   35.7520 F   0  0  0  0  0  0  0  0  0  0  0  0
   38.2190   26.2410   36.7830 F   0  0  0  0  0  0  0  0  0  0  0  0
   39.8920   27.0950   35.5820 F   0  0  0  0  0  0  0  0  0  0  0  0
  1  8  1  0  0  0  0
  1  2  1  0  0  0  0
  2 18  1  0  0  0  0
  3  2  2  0  0  0  0
  3 11  1  0  0  0  0
  4  3  1  0  0  0  0
  5  6  1  0  0  0  0
  5  4  2  0  0  0  0
  6  1  2  0  0  0  0
  7 10  1  0  0  0  0
  7  5  1  0  0  0  0
  9  7  1  0  0  0  0
 11 17  1  0  0  0  0
 12 11  2  0  0  0  0
 12 14  1  0  0  0  0
 13 12  1  0  0  0  0
 14 15  1  0  0  0  0
 15 16  1  0  0  0  0
 17 15  2  0  0  0  0
 18 19  1  0  0  0  0
 18 20  1  0  0  0  0
 21 18  1  0  0  0  0
M  END
>  <minimizedAffinity>
-4.41794443

$$$$

 OpenBabel03272507563D

 21 22  0  0  0  0  0  0  0  0999 V2000
   37.8680   24.4910   36.7850 C   0  0  0  0  0  0  0  0  0  0  0  0
   38.6280   25.1580   35.7940 C   0  0  0  0  0  0  0  0  0  0  0  0
   39.8990   24.6670   35.5080 C   0  0  0  0  0  0  0  0  0  0  0  0
   40.3530   23.5750   36.1880 N   0  0  0  0  0  0  0  0  0  0  0  0
   39.5860   22.9640   37.1360 C   0  0  0  0  0  0  0  0  0  0  0  0
   38.3480   23.4150   37.4370 N   0  0  0  0  0  0  0  0  0  0  0  0
   40.2480   21.8520   37.7190 N   0  0  0  0  0  0  0  0  0  0  0  0
   36.8720   24.8260   37.0510 H   0  0  0  0  0  0  0  0  0  0  0  0
   40.3010   20.8610   37.3650 H   0  0  0  0  0  0  0  0  0  0  0  0
   40.6470   22.3320   38.5750 H   0  0  0  0  0  0  0  0  0  0  0  0
   40.7140   25.3300   34.4860 C   0  0  0  0  0  0  0  0  0  0  0  0
   40.8420   24.6790   33.2640 C   0  0  0  0  0  0  0  0  0  0  0  0
   40.4480   23.7440   32.8960 H   0  0  0  0  0  0  0  0  0  0  0  0
   41.9120   25.8140   32.2950 S   0  0  0  0  0  0  0  0  0  0  0  0
   41.9970   27.0160   33.7820 C   0  0  0  0  0  0  0  0  0  0  0  0
   42.5100   28.0240   33.9670 H   0  0  0  0  0  0  0  0  0  0  0  0
   41.3630   26.4780   34.5460 N   0  0  0  0  0  0  0  0  0  0  0  0
   38.0460   26.3410   35.1070 C   0  0  0  0  0  0  0  0  0  0  0  0
   36.6830   26.4500   35.3570 F   0  0  0  0  0  0  0  0  0  0  0  0
   38.6680   27.4640   35.5810 F   0  0  0  0  0  0  0  0  0  0  0  0
   38.2140   26.2970   33.7370 F   0  0  0  0  0  0  0  0  0  0  0  0
  1  8  1  0  0  0  0
  1  6  1  0  0  0  0
  2  1  2  0  0  0  0
  3  2  1  0  0  0  0
  3  4  2  0  0  0  0
  4  5  1  0  0  0  0
  5  6  2  0  0  0  0
  5  7  1  0  0  0  0
  7 10  1  0  0  0  0
  9  7  1  0  0  0  0
 11 17  1  0  0  0  0
 11  3  1  0  0  0  0
 12 11  2  0  0  0  0
 13 12  1  0  0  0  0
 14 12  1  0  0  0  0
 14 15  1  0  0  0  0
 15 16  1  0  0  0  0
 15 17  2  0  0  0  0
 18 19  1  0  0  0  0
 18 20  1  0  0  0  0
 18  2  1  0  0  0  0
 21 18  1  0  0  0  0
M  END
>  <minimizedAffinity>
-4.34214067

$$$$

 OpenBabel03272507563D

 21 22  0  0  0  0  0  0  0  0999 V2000
   37.0680   27.0560   33.5170 C   0  0  0  0  0  0  0  0  0  0  0  0
   37.9660   26.3530   34.3550 C   0  0  0  0  0  0  0  0  0  0  0  0
   38.3760   25.0850   33.9500 C   0  0  0  0  0  0  0  0  0  0  0  0
   37.9020   24.5810   32.7750 N   0  0  0  0  0  0  0  0  0  0  0  0
   37.0360   25.2950   31.9980 C   0  0  0  0  0  0  0  0  0  0  0  0
   36.6180   26.5280   32.3620 N   0  0  0  0  0  0  0  0  0  0  0  0
   36.6690   24.5870   30.8250 N   0  0  0  0  0  0  0  0  0  0  0  0
   36.7120   28.0470   33.7770 H   0  0  0  0  0  0  0  0  0  0  0  0
   37.1810   24.5300   29.9060 H   0  0  0  0  0  0  0  0  0  0  0  0
   35.7610   24.1620   31.1700 H   0  0  0  0  0  0  0  0  0  0  0  0
   39.3070   24.3280   34.7920 C   0  0  0  0  0  0  0  0  0  0  0  0
   40.6510   24.3740   34.4410 C   0  0  0  0  0  0  0  0  0  0  0  0
   41.1760   24.8750   33.6410 H   0  0  0  0  0  0  0  0  0  0  0  0
   41.4540   23.3210   35.7150 S   0  0  0  0  0  0  0  0  0  0  0  0
   39.7510   22.9950   36.5270 C   0  0  0  0  0  0  0  0  0  0  0  0
   39.4020   22.3890   37.4340 H   0  0  0  0  0  0  0  0  0  0  0  0
   39.0620   23.5890   35.8580 N   0  0  0  0  0  0  0  0  0  0  0  0
   38.4280   26.9870   35.6180 C   0  0  0  0  0  0  0  0  0  0  0  0
   39.8020   27.1950   35.6040 F   0  0  0  0  0  0  0  0  0  0  0  0
   37.8040   28.1980   35.7450 F   0  0  0  0  0  0  0  0  0  0  0  0
   38.1340   26.2270   36.7330 F   0  0  0  0  0  0  0  0  0  0  0  0
  1  8  1  0  0  0  0
  1  2  1  0  0  0  0
  2 18  1  0  0  0  0
  3  2  2  0  0  0  0
  3 11  1  0  0  0  0
  4  3  1  0  0  0  0
  5  6  1  0  0  0  0
  5  4  2  0  0  0  0
  6  1  2  0  0  0  0
  7 10  1  0  0  0  0
  7  5  1  0  0  0  0
  9  7  1  0  0  0  0
 11 17  1  0  0  0  0
 12 11  2  0  0  0  0
 12 14  1  0  0  0  0
 13 12  1  0  0  0  0
 14 15  1  0  0  0  0
 15 16  1  0  0  0  0
 17 15  2  0  0  0  0
 18 20  1  0  0  0  0
 18 21  1  0  0  0  0
 19 18  1  0  0  0  0
M  END
>  <minimizedAffinity>
-4.31070757

$$$$

 OpenBabel03272507563D

 21 22  0  0  0  0  0  0  0  0999 V2000
   38.1250   25.0130   36.9330 C   0  0  0  0  0  0  0  0  0  0  0  0
   38.5380   25.4500   35.6520 C   0  0  0  0  0  0  0  0  0  0  0  0
   38.5060   24.5280   34.6080 C   0  0  0  0  0  0  0  0  0  0  0  0
   38.0810   23.2570   34.8630 N   0  0  0  0  0  0  0  0  0  0  0  0
   37.6930   22.8790   36.1150 C   0  0  0  0  0  0  0  0  0  0  0  0
   37.7110   23.7500   37.1500 N   0  0  0  0  0  0  0  0  0  0  0  0
   37.2910   21.5200   36.1580 N   0  0  0  0  0  0  0  0  0  0  0  0
   38.1260   25.6840   37.7850 H   0  0  0  0  0  0  0  0  0  0  0  0
   36.3500   21.1060   35.9250 H   0  0  0  0  0  0  0  0  0  0  0  0
   38.2040   21.0910   36.4840 H   0  0  0  0  0  0  0  0  0  0  0  0
   38.9260   24.9450   33.2670 C   0  0  0  0  0  0  0  0  0  0  0  0
   37.9170   25.1840   32.3400 C   0  0  0  0  0  0  0  0  0  0  0  0
   36.8410   25.1240   32.4070 H   0  0  0  0  0  0  0  0  0  0  0  0
   38.8430   25.6700   30.8300 S   0  0  0  0  0  0  0  0  0  0  0  0
   40.4980   25.4520   31.7670 C   0  0  0  0  0  0  0  0  0  0  0  0
   41.6010   25.5790   31.4820 H   0  0  0  0  0  0  0  0  0  0  0  0
   40.1410   25.1330   32.7890 N   0  0  0  0  0  0  0  0  0  0  0  0
   38.9840   26.8560   35.4730 C   0  0  0  0  0  0  0  0  0  0  0  0
   38.3140   27.4690   34.4200 F   0  0  0  0  0  0  0  0  0  0  0  0
   38.7100   27.5450   36.6240 F   0  0  0  0  0  0  0  0  0  0  0  0
   40.3370   26.9570   35.2190 F   0  0  0  0  0  0  0  0  0  0  0  0
  1  6  1  0  0  0  0
  1  8  1  0  0  0  0
  2  1  2  0  0  0  0
  3  4  2  0  0  0  0
  3  2  1  0  0  0  0
  4  5  1  0  0  0  0
  5  7  1  0  0  0  0
  5  6  2  0  0  0  0
  7 10  1  0  0  0  0
  9  7  1  0  0  0  0
 11  3  1  0  0  0  0
 12 13  1  0  0  0  0
 12 11  2  0  0  0  0
 14 15  1  0  0  0  0
 14 12  1  0  0  0  0
 15 17  2  0  0  0  0
 16 15  1  0  0  0  0
 17 11  1  0  0  0  0
 18  2  1  0  0  0  0
 18 20  1  0  0  0  0
 19 18  1  0  0  0  0
 21 18  1  0  0  0  0
M  END
>  <minimizedAffinity>
-4.24434757

$$$$

 OpenBabel03272507563D

 21 22  0  0  0  0  0  0  0  0999 V2000
   40.9050   23.0500   36.3620 C   0  0  0  0  0  0  0  0  0  0  0  0
   40.2260   23.9950   35.5550 C   0  0  0  0  0  0  0  0  0  0  0  0
   38.9710   24.4280   35.9760 C   0  0  0  0  0  0  0  0  0  0  0  0
   38.4560   23.9290   37.1370 N   0  0  0  0  0  0  0  0  0  0  0  0
   39.1460   23.0190   37.8830 C   0  0  0  0  0  0  0  0  0  0  0  0
   40.3670   22.5780   37.5020 N   0  0  0  0  0  0  0  0  0  0  0  0
   38.4300   22.6330   39.0450 N   0  0  0  0  0  0  0  0  0  0  0  0
   41.8850   22.6750   36.0870 H   0  0  0  0  0  0  0  0  0  0  0  0
   38.3890   23.1160   39.9810 H   0  0  0  0  0  0  0  0  0  0  0  0
   37.9790   21.7490   38.6720 H   0  0  0  0  0  0  0  0  0  0  0  0
   38.2390   25.4060   35.1680 C   0  0  0  0  0  0  0  0  0  0  0  0
   38.1300   26.6920   35.6850 C   0  0  0  0  0  0  0  0  0  0  0  0
   38.4890   27.1390   36.6000 H   0  0  0  0  0  0  0  0  0  0  0  0
   37.1660   27.5810   34.3980 S   0  0  0  0  0  0  0  0  0  0  0  0
   37.0820   25.9830   33.3480 C   0  0  0  0  0  0  0  0  0  0  0  0
   36.6160   25.7150   32.3360 H   0  0  0  0  0  0  0  0  0  0  0  0
   37.6510   25.2540   33.9960 N   0  0  0  0  0  0  0  0  0  0  0  0
   40.8710   24.4800   34.3070 C   0  0  0  0  0  0  0  0  0  0  0  0
   42.2090   24.1070   34.2520 F   0  0  0  0  0  0  0  0  0  0  0  0
   40.2190   23.9220   33.2400 F   0  0  0  0  0  0  0  0  0  0  0  0
   40.8170   25.8530   34.1800 F   0  0  0  0  0  0  0  0  0  0  0  0
  1  6  1  0  0  0  0
  2  3  1  0  0  0  0
  2  1  2  0  0  0  0
  3  4  2  0  0  0  0
  4  5  1  0  0  0  0
  5  7  1  0  0  0  0
  6  5  2  0  0  0  0
  7  9  1  0  0  0  0
  8  1  1  0  0  0  0
 10  7  1  0  0  0  0
 11 12  2  0  0  0  0
 11  3  1  0  0  0  0
 12 13  1  0  0  0  0
 14 12  1  0  0  0  0
 15 17  2  0  0  0  0
 15 14  1  0  0  0  0
 16 15  1  0  0  0  0
 17 11  1  0  0  0  0
 18  2  1  0  0  0  0
 19 18  1  0  0  0  0
 20 18  1  0  0  0  0
 21 18  1  0  0  0  0
M  END
>  <minimizedAffinity>
-4.1665659

$$$$

 OpenBabel03272507563D

 21 22  0  0  0  0  0  0  0  0999 V2000
   40.0120   22.6340   37.8880 C   0  0  0  0  0  0  0  0  0  0  0  0
   39.3770   23.5410   37.0040 C   0  0  0  0  0  0  0  0  0  0  0  0
   39.9600   23.7500   35.7580 C   0  0  0  0  0  0  0  0  0  0  0  0
   41.1060   23.0800   35.4430 N   0  0  0  0  0  0  0  0  0  0  0  0
   41.6840   22.2160   36.3270 C   0  0  0  0  0  0  0  0  0  0  0  0
   41.1430   21.9890   37.5450 N   0  0  0  0  0  0  0  0  0  0  0  0
   42.8640   21.6300   35.8000 N   0  0  0  0  0  0  0  0  0  0  0  0
   39.6060   22.4280   38.8720 H   0  0  0  0  0  0  0  0  0  0  0  0
   42.9550   20.7860   35.1760 H   0  0  0  0  0  0  0  0  0  0  0  0
   43.5760   22.2910   36.2240 H   0  0  0  0  0  0  0  0  0  0  0  0
   39.3310   24.6800   34.8160 C   0  0  0  0  0  0  0  0  0  0  0  0
   39.9380   25.9210   34.6590 C   0  0  0  0  0  0  0  0  0  0  0  0
   40.8160   26.3610   35.1060 H   0  0  0  0  0  0  0  0  0  0  0  0
   38.8640   26.7600   33.4260 S   0  0  0  0  0  0  0  0  0  0  0  0
   37.7400   25.2130   33.3440 C   0  0  0  0  0  0  0  0  0  0  0  0
   36.7930   24.9440   32.7580 H   0  0  0  0  0  0  0  0  0  0  0  0
   38.2500   24.5210   34.0760 N   0  0  0  0  0  0  0  0  0  0  0  0
   38.1300   24.2230   37.4380 C   0  0  0  0  0  0  0  0  0  0  0  0
   37.0160   23.6920   36.7980 F   0  0  0  0  0  0  0  0  0  0  0  0
   37.9860   24.0410   38.7870 F   0  0  0  0  0  0  0  0  0  0  0  0
   38.1490   25.5790   37.1810 F   0  0  0  0  0  0  0  0  0  0  0  0
  1  8  1  0  0  0  0
  2 18  1  0  0  0  0
  2  1  2  0  0  0  0
  3  2  1  0  0  0  0
  4  3  2  0  0  0  0
  4  5  1  0  0  0  0
  5  6  2  0  0  0  0
  6  1  1  0  0  0  0
  7 10  1  0  0  0  0
  7  5  1  0  0  0  0
  9  7  1  0  0  0  0
 11  3  1  0  0  0  0
 12 11  2  0  0  0  0
 12 13  1  0  0  0  0
 14 12  1  0  0  0  0
 15 14  1  0  0  0  0
 15 17  2  0  0  0  0
 16 15  1  0  0  0  0
 17 11  1  0  0  0  0
 18 20  1  0  0  0  0
 19 18  1  0  0  0  0
 21 18  1  0  0  0  0
M  END
>  <minimizedAffinity>
-4.10549164

$$$$

 OpenBabel03272507563D

 21 22  0  0  0  0  0  0  0  0999 V2000
   35.3720   26.0720   31.0920 C   0  0  0  0  0  0  0  0  0  0  0  0
   36.3470   26.5600   31.9970 C   0  0  0  0  0  0  0  0  0  0  0  0
   37.1120   25.6280   32.6930 C   0  0  0  0  0  0  0  0  0  0  0  0
   36.8920   24.2990   32.4760 N   0  0  0  0  0  0  0  0  0  0  0  0
   35.9410   23.8740   31.5950 C   0  0  0  0  0  0  0  0  0  0  0  0
   35.1820   24.7530   30.9020 N   0  0  0  0  0  0  0  0  0  0  0  0
   35.8790   22.4590   31.5230 N   0  0  0  0  0  0  0  0  0  0  0  0
   34.7460   26.7480   30.5200 H   0  0  0  0  0  0  0  0  0  0  0  0
   36.4670   21.8050   30.9420 H   0  0  0  0  0  0  0  0  0  0  0  0
   35.0890   22.2960   32.2100 H   0  0  0  0  0  0  0  0  0  0  0  0
   38.1310   26.0950   33.6370 C   0  0  0  0  0  0  0  0  0  0  0  0
   39.4540   26.0320   33.2140 C   0  0  0  0  0  0  0  0  0  0  0  0
   39.9060   25.6960   32.2920 H   0  0  0  0  0  0  0  0  0  0  0  0
   40.3860   26.6930   34.6520 S   0  0  0  0  0  0  0  0  0  0  0  0
   38.7460   26.9450   35.6070 C   0  0  0  0  0  0  0  0  0  0  0  0
   38.4800   27.3450   36.6470 H   0  0  0  0  0  0  0  0  0  0  0  0
   37.9870   26.5770   34.8570 N   0  0  0  0  0  0  0  0  0  0  0  0
   36.5120   28.0270   32.1640 C   0  0  0  0  0  0  0  0  0  0  0  0
   37.8200   28.4200   31.9080 F   0  0  0  0  0  0  0  0  0  0  0  0
   35.6850   28.6580   31.2740 F   0  0  0  0  0  0  0  0  0  0  0  0
   36.1910   28.4570   33.4360 F   0  0  0  0  0  0  0  0  0  0  0  0
  1  2  1  0  0  0  0
  2 18  1  0  0  0  0
  2  3  2  0  0  0  0
  3 11  1  0  0  0  0
  4  3  1  0  0  0  0
  5  4  2  0  0  0  0
  6  1  2  0  0  0  0
  6  5  1  0  0  0  0
  7  5  1  0  0  0  0
  7 10  1  0  0  0  0
  8  1  1  0  0  0  0
  9  7  1  0  0  0  0
 11 17  1  0  0  0  0
 12 11  2  0  0  0  0
 12 14  1  0  0  0  0
 13 12  1  0  0  0  0
 14 15  1  0  0  0  0
 15 16  1  0  0  0  0
 17 15  2  0  0  0  0
 18 21  1  0  0  0  0
 19 18  1  0  0  0  0
 20 18  1  0  0  0  0
M  END
>  <minimizedAffinity>
-4.05279064

$$$$

 OpenBabel03272507563D

 21 22  0  0  0  0  0  0  0  0999 V2000
   39.7070   26.7220   32.0890 C   0  0  0  0  0  0  0  0  0  0  0  0
   39.6500   26.1700   33.3920 C   0  0  0  0  0  0  0  0  0  0  0  0
   38.7770   25.1070   33.6100 C   0  0  0  0  0  0  0  0  0  0  0  0
   38.0220   24.6490   32.5710 N   0  0  0  0  0  0  0  0  0  0  0  0
   38.1090   25.2120   31.3320 C   0  0  0  0  0  0  0  0  0  0  0  0
   38.9470   26.2440   31.0860 N   0  0  0  0  0  0  0  0  0  0  0  0
   37.2400   24.5860   30.4020 N   0  0  0  0  0  0  0  0  0  0  0  0
   40.3680   27.5500   31.8560 H   0  0  0  0  0  0  0  0  0  0  0  0
   37.4060   23.7150   29.8320 H   0  0  0  0  0  0  0  0  0  0  0  0
   36.4190   25.2510   30.4740 H   0  0  0  0  0  0  0  0  0  0  0  0
   38.6920   24.5090   34.9460 C   0  0  0  0  0  0  0  0  0  0  0  0
   39.4340   23.3540   35.1640 C   0  0  0  0  0  0  0  0  0  0  0  0
   40.0900   22.7810   34.5260 H   0  0  0  0  0  0  0  0  0  0  0  0
   39.0580   22.9390   36.9140 S   0  0  0  0  0  0  0  0  0  0  0  0
   37.9160   24.4700   37.0380 C   0  0  0  0  0  0  0  0  0  0  0  0
   37.2730   24.9220   37.8720 H   0  0  0  0  0  0  0  0  0  0  0  0
   38.0040   24.9040   36.0000 N   0  0  0  0  0  0  0  0  0  0  0  0
   40.5140   26.7390   34.4600 C   0  0  0  0  0  0  0  0  0  0  0  0
   41.3450   25.7680   35.0070 F   0  0  0  0  0  0  0  0  0  0  0  0
   41.2930   27.7190   33.9070 F   0  0  0  0  0  0  0  0  0  0  0  0
   39.7850   27.2920   35.4940 F   0  0  0  0  0  0  0  0  0  0  0  0
  1  2  1  0  0  0  0
  2  3  2  0  0  0  0
  2 18  1  0  0  0  0
  3 11  1  0  0  0  0
  4  3  1  0  0  0  0
  5  4  2  0  0  0  0
  6  5  1  0  0  0  0
  6  1  2  0  0  0  0
  7 10  1  0  0  0  0
  7  5  1  0  0  0  0
  8  1  1  0  0  0  0
  9  7  1  0  0  0  0
 11 12  2  0  0  0  0
 11 17  1  0  0  0  0
 12 14  1  0  0  0  0
 13 12  1  0  0  0  0
 14 15  1  0  0  0  0
 15 16  1  0  0  0  0
 17 15  2  0  0  0  0
 18 19  1  0  0  0  0
 18 21  1  0  0  0  0
 20 18  1  0  0  0  0
M  END
>  <minimizedAffinity>
-4.01068497

$$$$
