
 OpenBabel03272509543D

 41 44  0  0  0  0  0  0  0  0999 V2000
   34.5290   28.9420   47.8420 C   0  0  0  0  0  0  0  0  0  0  0  0
   35.4900   29.0780   47.2970 H   0  0  0  0  0  0  0  0  0  0  0  0
   33.9990   29.9140   47.8210 H   0  0  0  0  0  0  0  0  0  0  0  0
   33.7580   27.8230   47.2240 C   0  0  0  0  0  0  0  0  0  0  0  0
   34.1480   26.8340   47.4970 H   0  0  0  0  0  0  0  0  0  0  0  0
   33.8490   27.8840   46.1000 H   0  0  0  0  0  0  0  0  0  0  0  0
   32.3060   27.8890   47.4920 C   0  0  0  0  0  0  0  0  0  0  0  0
   31.7940   27.0790   48.4940 C   0  0  0  0  0  0  0  0  0  0  0  0
   30.4730   27.0510   48.8340 C   0  0  0  0  0  0  0  0  0  0  0  0
   29.6340   27.8430   48.1680 N   0  0  0  0  0  0  0  0  0  0  0  0
   30.1220   28.6410   47.1850 C   0  0  0  0  0  0  0  0  0  0  0  0
   31.4330   28.6830   46.8310 N   0  0  0  0  0  0  0  0  0  0  0  0
   32.4760   26.4270   49.0460 H   0  0  0  0  0  0  0  0  0  0  0  0
   30.1020   26.4080   49.6220 H   0  0  0  0  0  0  0  0  0  0  0  0
   29.1760   29.5120   46.4560 C   0  0  0  0  0  0  0  0  0  0  0  0
   29.4800   30.2000   45.2020 C   0  0  0  0  0  0  0  0  0  0  0  0
   30.4280   30.0710   44.7870 H   0  0  0  0  0  0  0  0  0  0  0  0
   27.7980   31.0540   44.9780 S   0  0  0  0  0  0  0  0  0  0  0  0
   27.1010   30.3150   46.5660 C   0  0  0  0  0  0  0  0  0  0  0  0
   26.0760   30.5880   46.8100 H   0  0  0  0  0  0  0  0  0  0  0  0
   27.9960   29.6250   47.0470 N   0  0  0  0  0  0  0  0  0  0  0  0
   34.9180   28.6030   49.1740 O   0  0  0  0  0  0  0  0  0  0  0  0
   37.2570   30.1070   51.4750 C   0  0  0  0  0  0  0  0  0  0  0  0
   38.0530   30.8440   50.5710 C   0  0  0  0  0  0  0  0  0  0  0  0
   37.7330   30.7760   49.2180 C   0  0  0  0  0  0  0  0  0  0  0  0
   36.6580   29.9870   48.8970 N   0  0  0  0  0  0  0  0  0  0  0  0
   35.9190   29.3000   49.7630 C   0  0  0  0  0  0  0  0  0  0  0  0
   36.2330   29.3690   51.0630 N   0  0  0  0  0  0  0  0  0  0  0  0
   37.5490   30.1960   52.5040 H   0  0  0  0  0  0  0  0  0  0  0  0
   38.8930   31.4570   50.8460 H   0  0  0  0  0  0  0  0  0  0  0  0
   38.8200   33.4510   49.2140 F   0  0  0  0  0  0  0  0  0  0  0  0
   38.9410   32.7040   48.1320 C   0  0  0  0  0  0  0  0  0  0  0  0
   38.4220   31.4500   48.1570 C   0  0  0  0  0  0  0  0  0  0  0  0
   38.6050   30.7480   46.9600 C   0  0  0  0  0  0  0  0  0  0  0  0
   39.2520   31.2910   45.8710 C   0  0  0  0  0  0  0  0  0  0  0  0
   39.7590   32.5690   45.9010 C   0  0  0  0  0  0  0  0  0  0  0  0
   39.5900   33.2700   47.0580 C   0  0  0  0  0  0  0  0  0  0  0  0
   38.2320   29.7290   46.8580 H   0  0  0  0  0  0  0  0  0  0  0  0
   39.3630   30.6920   44.9660 H   0  0  0  0  0  0  0  0  0  0  0  0
   40.2480   32.9270   45.0230 H   0  0  0  0  0  0  0  0  0  0  0  0
   39.9830   34.2770   47.1000 H   0  0  0  0  0  0  0  0  0  0  0  0
  1 22  1  0  0  0  0
  2  1  1  0  0  0  0
  3  1  1  0  0  0  0
  4  7  1  0  0  0  0
  4  5  1  0  0  0  0
  4  1  1  0  0  0  0
  6  4  1  0  0  0  0
  7  8  1  0  0  0  0
  8  9  2  0  0  0  0
  8 13  1  0  0  0  0
  9 14  1  0  0  0  0
 10  9  1  0  0  0  0
 11 10  2  0  0  0  0
 12 11  1  0  0  0  0
 12  7  2  0  0  0  0
 15 21  1  0  0  0  0
 15 11  1  0  0  0  0
 16 15  2  0  0  0  0
 17 16  1  0  0  0  0
 18 16  1  0  0  0  0
 18 19  1  0  0  0  0
 19 20  1  0  0  0  0
 19 21  2  0  0  0  0
 22 27  1  0  0  0  0
 23 29  1  0  0  0  0
 24 30  1  0  0  0  0
 24 23  2  0  0  0  0
 25 24  1  0  0  0  0
 26 25  2  0  0  0  0
 26 27  1  0  0  0  0
 27 28  2  0  0  0  0
 28 23  1  0  0  0  0
 32 33  1  0  0  0  0
 32 31  1  0  0  0  0
 33 25  1  0  0  0  0
 34 33  2  0  0  0  0
 35 36  2  0  0  0  0
 35 34  1  0  0  0  0
 36 37  1  0  0  0  0
 37 41  1  0  0  0  0
 37 32  2  0  0  0  0
 38 34  1  0  0  0  0
 39 35  1  0  0  0  0
 40 36  1  0  0  0  0
M  END
>  <minimizedAffinity>
-6.62378836

>  <minimizedRMSD>
0.71613282

$$$$
