
 OpenBabel03272509543D

 41 44  0  0  0  0  0  0  0  0999 V2000
   34.1900   28.8480   48.1180 C   0  0  0  0  0  0  0  0  0  0  0  0
   35.0610   29.0540   47.4570 H   0  0  0  0  0  0  0  0  0  0  0  0
   33.6560   29.8070   48.2680 H   0  0  0  0  0  0  0  0  0  0  0  0
   33.3440   27.7780   47.5120 C   0  0  0  0  0  0  0  0  0  0  0  0
   33.6640   26.7680   47.7990 H   0  0  0  0  0  0  0  0  0  0  0  0
   33.4420   27.8180   46.3880 H   0  0  0  0  0  0  0  0  0  0  0  0
   31.8990   27.9480   47.7740 C   0  0  0  0  0  0  0  0  0  0  0  0
   31.3740   27.3590   48.9130 C   0  0  0  0  0  0  0  0  0  0  0  0
   30.0580   27.4450   49.2630 C   0  0  0  0  0  0  0  0  0  0  0  0
   29.2380   28.1310   48.4680 N   0  0  0  0  0  0  0  0  0  0  0  0
   29.7400   28.7130   47.3500 C   0  0  0  0  0  0  0  0  0  0  0  0
   31.0460   28.6380   46.9840 N   0  0  0  0  0  0  0  0  0  0  0  0
   32.0400   26.7940   49.5720 H   0  0  0  0  0  0  0  0  0  0  0  0
   29.6750   26.9740   50.1600 H   0  0  0  0  0  0  0  0  0  0  0  0
   28.8150   29.4690   46.4780 C   0  0  0  0  0  0  0  0  0  0  0  0
   27.5310   30.0180   46.9120 C   0  0  0  0  0  0  0  0  0  0  0  0
   27.2410   29.8700   47.9020 H   0  0  0  0  0  0  0  0  0  0  0  0
   27.0250   30.7930   45.2540 S   0  0  0  0  0  0  0  0  0  0  0  0
   28.6010   30.2200   44.3930 C   0  0  0  0  0  0  0  0  0  0  0  0
   28.6970   30.4900   43.3420 H   0  0  0  0  0  0  0  0  0  0  0  0
   29.2550   29.6140   45.2380 N   0  0  0  0  0  0  0  0  0  0  0  0
   34.7690   28.3930   49.3420 O   0  0  0  0  0  0  0  0  0  0  0  0
   37.1080   29.9810   51.5860 C   0  0  0  0  0  0  0  0  0  0  0  0
   37.8890   30.7030   50.6570 C   0  0  0  0  0  0  0  0  0  0  0  0
   37.5600   30.5960   49.3090 C   0  0  0  0  0  0  0  0  0  0  0  0
   36.4920   29.7870   49.0160 N   0  0  0  0  0  0  0  0  0  0  0  0
   35.7660   29.1160   49.9050 C   0  0  0  0  0  0  0  0  0  0  0  0
   36.0890   29.2210   51.2010 N   0  0  0  0  0  0  0  0  0  0  0  0
   37.4060   30.1000   52.6100 H   0  0  0  0  0  0  0  0  0  0  0  0
   38.7240   31.3320   50.9100 H   0  0  0  0  0  0  0  0  0  0  0  0
   38.7820   33.2130   49.2880 F   0  0  0  0  0  0  0  0  0  0  0  0
   38.8150   32.4770   48.1920 C   0  0  0  0  0  0  0  0  0  0  0  0
   38.2340   31.2500   48.2260 C   0  0  0  0  0  0  0  0  0  0  0  0
   38.3270   30.5580   47.0130 C   0  0  0  0  0  0  0  0  0  0  0  0
   38.9510   31.0840   45.9020 C   0  0  0  0  0  0  0  0  0  0  0  0
   39.5230   32.3330   45.9250 C   0  0  0  0  0  0  0  0  0  0  0  0
   39.4430   33.0250   47.0970 C   0  0  0  0  0  0  0  0  0  0  0  0
   37.8970   29.5610   46.9160 H   0  0  0  0  0  0  0  0  0  0  0  0
   38.9900   30.4920   44.9860 H   0  0  0  0  0  0  0  0  0  0  0  0
   39.9890   32.6790   45.0290 H   0  0  0  0  0  0  0  0  0  0  0  0
   39.8880   34.0090   47.1330 H   0  0  0  0  0  0  0  0  0  0  0  0
  1  3  1  0  0  0  0
  1 22  1  0  0  0  0
  2  1  1  0  0  0  0
  4  7  1  0  0  0  0
  4  5  1  0  0  0  0
  4  1  1  0  0  0  0
  6  4  1  0  0  0  0
  7  8  1  0  0  0  0
  8  9  2  0  0  0  0
  8 13  1  0  0  0  0
  9 14  1  0  0  0  0
 10  9  1  0  0  0  0
 11 10  2  0  0  0  0
 12 11  1  0  0  0  0
 12  7  2  0  0  0  0
 15 16  2  0  0  0  0
 15 11  1  0  0  0  0
 16 17  1  0  0  0  0
 18 16  1  0  0  0  0
 19 21  2  0  0  0  0
 19 18  1  0  0  0  0
 20 19  1  0  0  0  0
 21 15  1  0  0  0  0
 22 27  1  0  0  0  0
 23 29  1  0  0  0  0
 24 30  1  0  0  0  0
 24 23  2  0  0  0  0
 25 24  1  0  0  0  0
 26 25  2  0  0  0  0
 26 27  1  0  0  0  0
 27 28  2  0  0  0  0
 28 23  1  0  0  0  0
 32 33  1  0  0  0  0
 32 31  1  0  0  0  0
 33 25  1  0  0  0  0
 34 33  2  0  0  0  0
 35 36  2  0  0  0  0
 35 34  1  0  0  0  0
 36 37  1  0  0  0  0
 37 41  1  0  0  0  0
 37 32  2  0  0  0  0
 38 34  1  0  0  0  0
 39 35  1  0  0  0  0
 40 36  1  0  0  0  0
M  END
>  <minimizedAffinity>
-6.54522991

>  <minimizedRMSD>
0.688195527

$$$$
