
 OpenBabel03272507523D

 30 32  0  0  0  0  0  0  0  0999 V2000
   36.4680   31.1990   48.7380 N   0  0  0  0  0  0  0  0  0  0  0  0
   36.7390   32.0510   49.7210 C   0  0  0  0  0  0  0  0  0  0  0  0
   37.8010   32.9460   49.5860 C   0  0  0  0  0  0  0  0  0  0  0  0
   38.4850   32.8560   48.4150 C   0  0  0  0  0  0  0  0  0  0  0  0
   39.4490   33.6750   48.3050 O   0  0  0  0  0  0  0  0  0  0  0  0
   38.2470   32.0200   47.4110 N   0  0  0  0  0  0  0  0  0  0  0  0
   37.2070   31.1700   47.5850 C   0  0  0  0  0  0  0  0  0  0  0  0
   36.9650   30.3610   46.6310 O   0  0  0  0  0  0  0  0  0  0  0  0
   36.1330   32.0470   50.6200 H   0  0  0  0  0  0  0  0  0  0  0  0
   38.0390   33.6450   50.3680 H   0  0  0  0  0  0  0  0  0  0  0  0
   35.2450   29.5230   50.0000 C   0  0  0  0  0  0  0  0  0  0  0  0
   35.3960   30.2450   48.8010 C   0  0  0  0  0  0  0  0  0  0  0  0
   34.5130   30.0000   47.7450 C   0  0  0  0  0  0  0  0  0  0  0  0
   33.5440   29.0690   47.9310 N   0  0  0  0  0  0  0  0  0  0  0  0
   33.4030   28.3900   49.0580 C   0  0  0  0  0  0  0  0  0  0  0  0
   34.2450   28.6160   50.0810 N   0  0  0  0  0  0  0  0  0  0  0  0
   34.6570   30.5770   46.8320 H   0  0  0  0  0  0  0  0  0  0  0  0
   32.6270   27.6510   49.1920 H   0  0  0  0  0  0  0  0  0  0  0  0
   37.3880   29.2150   51.4510 C   0  0  0  0  0  0  0  0  0  0  0  0
   38.0590   28.5380   50.6420 O   0  0  0  0  0  0  0  0  0  0  0  0
   36.0710   29.6990   51.1300 N   0  0  0  0  0  0  0  0  0  0  0  0
   37.8640   29.4090   52.3980 H   0  0  0  0  0  0  0  0  0  0  0  0
   35.7010   30.2970   51.9260 H   0  0  0  0  0  0  0  0  0  0  0  0
   39.0260   31.9920   46.1980 C   0  0  0  0  0  0  0  0  0  0  0  0
   40.1670   31.1490   45.9910 C   0  0  0  0  0  0  0  0  0  0  0  0
   40.4970   30.4870   46.7480 H   0  0  0  0  0  0  0  0  0  0  0  0
   40.6570   31.5800   44.3490 S   0  0  0  0  0  0  0  0  0  0  0  0
   39.2490   32.8550   44.1490 C   0  0  0  0  0  0  0  0  0  0  0  0
   39.0870   33.4490   43.2520 H   0  0  0  0  0  0  0  0  0  0  0  0
   38.6830   32.7880   45.2010 N   0  0  0  0  0  0  0  0  0  0  0  0
  1 12  1  0  0  0  0
  1  2  1  0  0  0  0
  2  9  1  0  0  0  0
  3  2  2  0  0  0  0
  3 10  1  0  0  0  0
  4  3  1  0  0  0  0
  5  4  2  0  0  0  0
  6  7  1  0  0  0  0
  6  4  1  0  0  0  0
  7  1  1  0  0  0  0
  8  7  2  0  0  0  0
 11 16  1  0  0  0  0
 11 21  1  0  0  0  0
 12 11  2  0  0  0  0
 13 14  2  0  0  0  0
 13 12  1  0  0  0  0
 14 15  1  0  0  0  0
 15 18  1  0  0  0  0
 15 16  2  0  0  0  0
 17 13  1  0  0  0  0
 19 22  1  0  0  0  0
 20 19  2  0  0  0  0
 21 19  1  0  0  0  0
 21 23  1  0  0  0  0
 24  6  1  0  0  0  0
 25 24  2  0  0  0  0
 25 26  1  0  0  0  0
 27 25  1  0  0  0  0
 28 27  1  0  0  0  0
 28 30  2  0  0  0  0
 29 28  1  0  0  0  0
 30 24  1  0  0  0  0
M  END
>  <minimizedAffinity>
-5.87870693

>  <minimizedRMSD>
1.38111532

$$$$
