
 OpenBabel03272506423D

 30 32  0  0  1  0  0  0  0  0999 V2000
   32.2410   28.1710   47.5200 C   0  0  2  0  0  0  0  0  0  0  0  0
   33.5050   28.1240   48.3630 C   0  0  1  0  0  0  0  0  0  0  0  0
   34.0920   26.8930   48.1730 O   0  0  0  0  0  0  0  0  0  0  0  0
   33.4310   26.2370   47.1630 C   0  0  0  0  0  0  0  0  0  0  0  0
   32.6690   27.3050   46.3750 C   0  0  1  0  0  0  0  0  0  0  0  0
   31.3820   27.7010   48.0480 H   0  0  0  0  0  0  0  0  0  0  0  0
   33.2530   28.3670   49.4020 H   0  0  0  0  0  0  0  0  0  0  0  0
   32.7590   25.4330   47.5190 H   0  0  0  0  0  0  0  0  0  0  0  0
   34.1940   25.8480   46.4500 H   0  0  0  0  0  0  0  0  0  0  0  0
   33.3350   27.8130   45.6750 H   0  0  0  0  0  0  0  0  0  0  0  0
   31.9420   29.4660   47.1290 O   0  0  0  0  0  0  0  0  0  0  0  0
   31.6880   29.9860   47.9150 H   0  0  0  0  0  0  0  0  0  0  0  0
   34.6250   29.3810   47.6420 S   0  0  0  0  0  0  0  0  0  0  0  0
   37.2220   29.2700   50.6220 C   0  0  0  0  0  0  0  0  0  0  0  0
   37.6490   30.5830   50.7930 C   0  0  0  0  0  0  0  0  0  0  0  0
   37.1070   31.5580   49.9430 C   0  0  0  0  0  0  0  0  0  0  0  0
   36.2070   31.1540   49.0170 N   0  0  0  0  0  0  0  0  0  0  0  0
   35.8110   29.8800   48.8720 C   0  0  0  0  0  0  0  0  0  0  0  0
   36.3220   28.9260   49.6810 N   0  0  0  0  0  0  0  0  0  0  0  0
   37.6610   28.5400   51.2950 H   0  0  0  0  0  0  0  0  0  0  0  0
   38.3710   30.8980   51.5380 H   0  0  0  0  0  0  0  0  0  0  0  0
   37.3660   32.6040   49.9870 H   0  0  0  0  0  0  0  0  0  0  0  0
   31.6060   26.7130   45.7000 O   0  0  0  0  0  0  0  0  0  0  0  0
   31.0070   27.4910   44.6980 C   0  0  0  0  0  0  0  0  0  0  0  0
   29.9450   26.7460   44.0660 C   0  0  0  0  0  0  0  0  0  0  0  0
   29.5010   25.7910   44.1480 H   0  0  0  0  0  0  0  0  0  0  0  0
   29.2900   27.9690   42.7730 S   0  0  0  0  0  0  0  0  0  0  0  0
   30.5880   29.2290   43.3570 C   0  0  0  0  0  0  0  0  0  0  0  0
   31.0920   30.3630   43.2380 H   0  0  0  0  0  0  0  0  0  0  0  0
   31.1440   28.6990   44.1840 N   0  0  0  0  0  0  0  0  0  0  0  0
  1  6  1  1  0  0  0
  1  2  1  0  0  0  0
  2  7  1  1  0  0  0
  3  2  1  0  0  0  0
  4  8  1  0  0  0  0
  4  3  1  0  0  0  0
  5 10  1  6  0  0  0
  5  4  1  0  0  0  0
  5  1  1  0  0  0  0
  9  4  1  0  0  0  0
 11  1  1  0  0  0  0
 11 12  1  0  0  0  0
 13  2  1  0  0  0  0
 13 18  1  0  0  0  0
 14 15  1  0  0  0  0
 14 20  1  0  0  0  0
 15 21  1  0  0  0  0
 16 22  1  0  0  0  0
 16 15  2  0  0  0  0
 17 16  1  0  0  0  0
 18 17  2  0  0  0  0
 18 19  1  0  0  0  0
 19 14  2  0  0  0  0
 23  5  1  0  0  0  0
 24 23  1  0  0  0  0
 25 26  1  0  0  0  0
 25 24  2  0  0  0  0
 27 28  1  0  0  0  0
 27 25  1  0  0  0  0
 28 30  2  0  0  0  0
 29 28  1  0  0  0  0
 30 24  1  0  0  0  0
M  END
>  <minimizedAffinity>
-3.77811837

>  <minimizedRMSD>
1.19232786

$$$$
