
 OpenBabel03262521463D

 28 29  0  0  0  0  0  0  0  0999 V2000
   36.9710   29.1820   50.6870 C   0  0  0  0  0  0  0  0  0  0  0  0
   37.4740   28.3110   51.1590 H   0  0  0  0  0  0  0  0  0  0  0  0
   36.9050   28.9530   49.5910 H   0  0  0  0  0  0  0  0  0  0  0  0
   37.6900   30.4740   50.8860 C   0  0  0  0  0  0  0  0  0  0  0  0
   37.1540   31.1510   51.5920 H   0  0  0  0  0  0  0  0  0  0  0  0
   38.6500   30.2210   51.4250 H   0  0  0  0  0  0  0  0  0  0  0  0
   38.0770   31.1550   49.6620 C   0  0  0  0  0  0  0  0  0  0  0  0
   38.5200   32.4610   49.6390 C   0  0  0  0  0  0  0  0  0  0  0  0
   38.8710   33.0340   48.4070 C   0  0  0  0  0  0  0  0  0  0  0  0
   38.7490   32.2510   47.2840 N   0  0  0  0  0  0  0  0  0  0  0  0
   38.3080   30.9690   47.3450 C   0  0  0  0  0  0  0  0  0  0  0  0
   37.9750   30.4380   48.5540 N   0  0  0  0  0  0  0  0  0  0  0  0
   38.6000   33.0410   50.5470 H   0  0  0  0  0  0  0  0  0  0  0  0
   39.2250   34.0550   48.3290 H   0  0  0  0  0  0  0  0  0  0  0  0
   38.2350   30.4020   46.4180 H   0  0  0  0  0  0  0  0  0  0  0  0
   35.6610   29.3390   51.1520 O   0  0  0  0  0  0  0  0  0  0  0  0
   34.6220   31.0480   49.4890 O   0  0  0  0  0  0  0  0  0  0  0  0
   34.5810   29.5630   49.8830 P   0  0  2  0  0  0  0  0  0  0  0  0
   33.0000   29.2680   50.3530 O   0  0  0  0  0  0  0  0  0  0  0  0
   32.8710   28.4760   50.9060 H   0  0  0  0  0  0  0  0  0  0  0  0
   34.9520   28.5860   48.5760 O   0  0  0  0  0  0  0  0  0  0  0  0
   33.9050   27.9820   47.8490 C   0  0  0  0  0  0  0  0  0  0  0  0
   33.6930   26.5730   47.6990 C   0  0  0  0  0  0  0  0  0  0  0  0
   34.3290   25.9220   48.1390 H   0  0  0  0  0  0  0  0  0  0  0  0
   32.2140   26.5630   46.6720 S   0  0  0  0  0  0  0  0  0  0  0  0
   32.1190   28.4790   46.6090 C   0  0  0  0  0  0  0  0  0  0  0  0
   31.3340   29.0740   46.0660 H   0  0  0  0  0  0  0  0  0  0  0  0
   33.1700   28.9540   47.3390 N   0  0  0  0  0  0  0  0  0  0  0  0
  1  4  1  0  0  0  0
  1 16  1  0  0  0  0
  1  2  1  0  0  0  0
  3  1  1  0  0  0  0
  4  6  1  0  0  0  0
  4  5  1  0  0  0  0
  7  4  1  0  0  0  0
  8  7  1  0  0  0  0
  8 13  1  0  0  0  0
  9  8  2  0  0  0  0
 10 11  2  0  0  0  0
 10  9  1  0  0  0  0
 11 12  1  0  0  0  0
 12  7  2  0  0  0  0
 14  9  1  0  0  0  0
 15 11  1  0  0  0  0
 18 17  2  6  0  0  0
 18 19  1  0  0  0  0
 18 16  1  0  0  0  0
 19 20  1  0  0  0  0
 21 18  1  0  0  0  0
 22 21  1  0  0  0  0
 23 22  2  0  0  0  0
 23 24  1  0  0  0  0
 25 23  1  0  0  0  0
 26 25  1  0  0  0  0
 26 28  2  0  0  0  0
 27 26  1  0  0  0  0
 28 22  1  0  0  0  0
M  END
>  <minimizedAffinity>
-4.73293209

>  <minimizedRMSD>
0.484325945

$$$$
