
 OpenBabel03272507583D

 30 32  0  0  0  0  0  0  0  0999 V2000
   36.9450   31.2070   48.5170 C   0  0  0  0  0  0  0  0  0  0  0  0
   37.1700   32.1760   49.4760 C   0  0  0  0  0  0  0  0  0  0  0  0
   38.1010   33.1740   49.2660 C   0  0  0  0  0  0  0  0  0  0  0  0
   38.8100   33.1920   48.0740 C   0  0  0  0  0  0  0  0  0  0  0  0
   38.5780   32.2210   47.1250 C   0  0  0  0  0  0  0  0  0  0  0  0
   37.6600   31.2830   47.3950 N   0  0  0  0  0  0  0  0  0  0  0  0
   36.6670   32.2520   50.4340 H   0  0  0  0  0  0  0  0  0  0  0  0
   38.3220   33.9470   49.9630 H   0  0  0  0  0  0  0  0  0  0  0  0
   39.5550   33.9130   47.7980 H   0  0  0  0  0  0  0  0  0  0  0  0
   35.1310   28.4980   50.3800 C   0  0  0  0  0  0  0  0  0  0  0  0
   36.1440   29.4420   50.0140 C   0  0  0  0  0  0  0  0  0  0  0  0
   35.9320   30.2410   48.9010 C   0  0  0  0  0  0  0  0  0  0  0  0
   34.7690   30.0930   48.2040 N   0  0  0  0  0  0  0  0  0  0  0  0
   33.8290   29.1870   48.5790 C   0  0  0  0  0  0  0  0  0  0  0  0
   34.0020   28.3930   49.6560 N   0  0  0  0  0  0  0  0  0  0  0  0
   32.7060   29.2190   47.7020 N   0  0  0  0  0  0  0  0  0  0  0  0
   35.2220   27.8530   51.2270 H   0  0  0  0  0  0  0  0  0  0  0  0
   32.9280   28.3210   47.1840 H   0  0  0  0  0  0  0  0  0  0  0  0
   32.0480   30.0540   47.8190 H   0  0  0  0  0  0  0  0  0  0  0  0
   37.3770   29.5030   50.8570 C   0  0  0  0  0  0  0  0  0  0  0  0
   38.4940   29.7840   50.0890 F   0  0  0  0  0  0  0  0  0  0  0  0
   37.2080   30.5220   51.7690 F   0  0  0  0  0  0  0  0  0  0  0  0
   37.6110   28.3430   51.5540 F   0  0  0  0  0  0  0  0  0  0  0  0
   39.2800   32.1640   45.8310 C   0  0  0  0  0  0  0  0  0  0  0  0
   38.7730   32.8020   44.6510 C   0  0  0  0  0  0  0  0  0  0  0  0
   37.8070   33.4260   44.5980 H   0  0  0  0  0  0  0  0  0  0  0  0
   40.0920   32.3040   43.3900 S   0  0  0  0  0  0  0  0  0  0  0  0
   41.0460   31.3450   44.7160 C   0  0  0  0  0  0  0  0  0  0  0  0
   41.9330   30.8930   44.3020 H   0  0  0  0  0  0  0  0  0  0  0  0
   40.3940   31.4950   45.6990 N   0  0  0  0  0  0  0  0  0  0  0  0
  1 12  1  0  0  0  0
  1  2  1  0  0  0  0
  2  7  1  0  0  0  0
  3  2  2  0  0  0  0
  3  8  1  0  0  0  0
  4  3  1  0  0  0  0
  5  6  1  0  0  0  0
  5  4  2  0  0  0  0
  6  1  2  0  0  0  0
  9  4  1  0  0  0  0
 10 17  1  0  0  0  0
 11 10  1  0  0  0  0
 11 20  1  0  0  0  0
 12 11  2  0  0  0  0
 13 14  2  0  0  0  0
 13 12  1  0  0  0  0
 14 15  1  0  0  0  0
 15 10  2  0  0  0  0
 16 19  1  0  0  0  0
 16 14  1  0  0  0  0
 18 16  1  0  0  0  0
 20 23  1  0  0  0  0
 20 22  1  0  0  0  0
 21 20  1  0  0  0  0
 24  5  1  0  0  0  0
 25 24  2  0  0  0  0
 26 25  1  0  0  0  0
 27 25  1  0  0  0  0
 27 28  1  0  0  0  0
 28 30  2  0  0  0  0
 29 28  1  0  0  0  0
 30 24  1  0  0  0  0
M  END
>  <minimizedAffinity>
-6.67379808

>  <minimizedRMSD>
0.810870111

$$$$
