
     RDKit          3D

 34 36  0  0  0  0  0  0  0  0999 V2000
   36.7170   31.0970   49.0893 C   0  0  0  0  0  0  0  0  0  0  0  0
   37.0613   32.1663   49.9436 C   0  0  0  0  0  0  0  0  0  0  0  0
   37.9810   33.1014   49.4633 C   0  0  0  0  0  0  0  0  0  0  0  0
   38.4860   32.9229   48.2045 N   0  0  0  0  0  0  0  0  0  0  0  0
   38.1260   31.8859   47.4278 C   0  0  0  0  0  0  0  0  0  0  0  0
   37.2428   30.9700   47.8634 N   0  0  0  0  0  0  0  0  0  0  0  0
   38.7168   31.7947   46.1244 N   0  0  0  0  0  0  0  0  0  0  0  0
   39.9432   31.0418   45.9655 C   0  0  0  0  0  0  0  0  0  0  0  0
   40.8286   31.9362   45.0923 C   0  0  0  0  0  0  0  0  0  0  0  0
   40.1744   31.8962   43.7376 C   0  0  0  0  0  0  0  0  0  0  0  0
   38.8740   32.6187   43.8040 C   0  0  0  0  0  0  0  0  0  0  0  0
   38.0703   32.4474   45.0518 C   0  0  1  0  0  0  0  0  0  0  0  0
   35.7303   30.0818   49.5875 C   0  0  0  0  0  0  0  0  0  0  0  0
   34.4477   30.6530   49.5785 F   0  0  0  0  0  0  0  0  0  0  0  0
   35.8310   28.9697   48.8310 F   0  0  0  0  0  0  0  0  0  0  0  0
   36.0244   29.8421   50.9234 F   0  0  0  0  0  0  0  0  0  0  0  0
   36.6328   32.2606   50.9296 H   0  0  0  0  0  0  0  0  0  0  0  0
   38.2577   33.9160   50.0856 H   0  0  0  0  0  0  0  0  0  0  0  0
   40.4437   30.8792   46.9357 H   0  0  0  0  0  0  0  0  0  0  0  0
   39.7896   30.0997   45.3876 H   0  0  0  0  0  0  0  0  0  0  0  0
   41.7896   31.3677   44.9881 H   0  0  0  0  0  0  0  0  0  0  0  0
   40.9360   32.9423   45.5023 H   0  0  0  0  0  0  0  0  0  0  0  0
   40.0527   30.8223   43.4747 H   0  0  0  0  0  0  0  0  0  0  0  0
   40.8248   32.3816   42.9870 H   0  0  0  0  0  0  0  0  0  0  0  0
   38.2586   32.2158   42.9563 H   0  0  0  0  0  0  0  0  0  0  0  0
   39.0596   33.6754   43.5194 H   0  0  0  0  0  0  0  0  0  0  0  0
   37.8780   33.4944   45.4210 H   0  0  0  0  0  0  0  0  0  0  0  0
   36.7682   31.7752   44.7856 C   0  0  0  0  0  0  0  0  0  0  0  0
   35.8137   31.3639   45.8363 C   0  0  0  0  0  0  0  0  0  0  0  0
   36.1514   31.6007   46.9635 H   0  0  0  0  0  0  0  0  0  0  0  0
   34.4693   30.6345   44.8322 S   0  0  0  0  0  0  0  0  0  0  0  0
   35.3540   30.9782   43.2351 C   0  0  0  0  0  0  0  0  0  0  0  0
   34.8839   30.6876   42.2933 H   0  0  0  0  0  0  0  0  0  0  0  0
   36.3836   31.5101   43.5641 N   0  0  0  0  0  0  0  0  0  0  0  0
  1 13  1  0
  1  2  2  0
  3  2  1  0
  4  3  2  0
  5  6  2  0
  5  4  1  0
  6  1  1  0
  7  5  1  0
  8  7  1  0
  9  8  1  0
 10 11  1  0
 10  9  1  0
 11 12  1  0
 12  7  1  0
 13 16  1  0
 14 13  1  0
 15 13  1  0
  2 17  1  0
  3 18  1  0
  8 19  1  0
  8 20  1  0
  9 21  1  0
  9 22  1  0
 10 23  1  0
 10 24  1  0
 11 25  1  0
 11 26  1  0
 12 27  1  1
 28 29  2  0
 29 30  1  0
 29 31  1  0
 31 32  1  0
 32 33  1  0
 32 34  2  0
 34 28  1  0
 12 28  1  0
M  ISO  8  17  14  18  14  19  13  20  13  21  13  22  13  23  13  24  13
M  ISO  5  25  13  26  13  27  13  30  15  33  16
M  END
>  <DihAtoms>  (1) 
10,11,27,28

>  <DihDeg>  (1) 
-95.58436537455512

$$$$
