
 OpenBabel03262520143D

 40 42  0  0  0  0  0  0  0  0999 V2000
   38.0650   23.3810   35.4390 C   0  0  0  0  0  0  0  0  0  0  0  0
   38.7970   22.9150   34.7400 H   0  0  0  0  0  0  0  0  0  0  0  0
   37.0690   22.9790   35.1520 H   0  0  0  0  0  0  0  0  0  0  0  0
   37.4590   24.3140   32.4870 Br  0  0  0  0  0  0  0  0  0  0  0  0
   37.8400   25.4290   34.0100 C   0  0  0  0  0  0  0  0  0  0  0  0
   37.8670   26.7950   33.8750 C   0  0  0  0  0  0  0  0  0  0  0  0
   38.1480   27.5390   34.9880 C   0  0  0  0  0  0  0  0  0  0  0  0
   38.4020   26.9620   36.2250 C   0  0  0  0  0  0  0  0  0  0  0  0
   38.3650   25.5690   36.3180 C   0  0  0  0  0  0  0  0  0  0  0  0
   38.0840   24.8220   35.2080 C   0  0  0  0  0  0  0  0  0  0  0  0
   38.1570   28.6300   34.8260 H   0  0  0  0  0  0  0  0  0  0  0  0
   38.6020   27.6830   36.9800 H   0  0  0  0  0  0  0  0  0  0  0  0
   38.5980   25.3320   37.3270 H   0  0  0  0  0  0  0  0  0  0  0  0
   36.0500   28.4560   31.1830 C   0  0  0  0  0  0  0  0  0  0  0  0
   37.0460   28.6680   30.1850 C   0  0  0  0  0  0  0  0  0  0  0  0
   38.3160   28.2310   30.4700 C   0  0  0  0  0  0  0  0  0  0  0  0
   38.5860   27.6190   31.6760 N   0  0  0  0  0  0  0  0  0  0  0  0
   37.6090   27.4430   32.5860 C   0  0  0  0  0  0  0  0  0  0  0  0
   36.3590   27.8620   32.3290 N   0  0  0  0  0  0  0  0  0  0  0  0
   35.0520   28.8030   30.9520 H   0  0  0  0  0  0  0  0  0  0  0  0
   36.7490   29.1530   29.2730 H   0  0  0  0  0  0  0  0  0  0  0  0
   39.0750   28.3880   29.7190 H   0  0  0  0  0  0  0  0  0  0  0  0
   38.3790   22.9140   36.8140 C   0  0  0  0  0  0  0  0  0  0  0  0
   38.7920   23.8540   37.3240 H   0  0  0  0  0  0  0  0  0  0  0  0
   37.4970   22.6920   37.3740 H   0  0  0  0  0  0  0  0  0  0  0  0
   39.4770   22.0260   36.7670 N   0  0  0  0  0  0  0  0  0  0  0  0
   39.2030   21.0110   36.7560 H   0  0  0  0  0  0  0  0  0  0  0  0
   40.5950   22.3150   37.5890 C   0  0  0  0  0  0  0  0  0  0  0  0
   40.7120   23.3950   37.8250 H   0  0  0  0  0  0  0  0  0  0  0  0
   40.5160   21.8050   38.5620 H   0  0  0  0  0  0  0  0  0  0  0  0
   41.8340   21.8880   36.8660 C   0  0  0  0  0  0  0  0  0  0  0  0
   41.7510   21.2360   36.0140 H   0  0  0  0  0  0  0  0  0  0  0  0
   42.6400   21.5530   37.5790 H   0  0  0  0  0  0  0  0  0  0  0  0
   42.3520   23.1960   36.2520 C   0  0  0  0  0  0  0  0  0  0  0  0
   43.7750   23.6450   36.5550 C   0  0  0  0  0  0  0  0  0  0  0  0
   44.4380   22.9660   37.2510 H   0  0  0  0  0  0  0  0  0  0  0  0
   43.8490   25.1830   35.6300 S   0  0  0  0  0  0  0  0  0  0  0  0
   42.0700   25.0460   34.9870 C   0  0  0  0  0  0  0  0  0  0  0  0
   41.7110   25.8410   34.3470 H   0  0  0  0  0  0  0  0  0  0  0  0
   41.5910   23.9440   35.4760 N   0  0  0  0  0  0  0  0  0  0  0  0
  1 23  1  0  0  0  0
  2  1  1  0  0  0  0
  3  1  1  0  0  0  0
  4  5  1  0  0  0  0
  5 10  1  0  0  0  0
  6  5  2  0  0  0  0
  6  7  1  0  0  0  0
  7  8  2  0  0  0  0
  8  9  1  0  0  0  0
  8 12  1  0  0  0  0
  9 13  1  0  0  0  0
 10  1  1  0  0  0  0
 10  9  2  0  0  0  0
 11  7  1  0  0  0  0
 14 19  1  0  0  0  0
 15 16  1  0  0  0  0
 15 14  2  0  0  0  0
 16 17  2  0  0  0  0
 17 18  1  0  0  0  0
 18  6  1  0  0  0  0
 19 18  2  0  0  0  0
 20 14  1  0  0  0  0
 21 15  1  0  0  0  0
 22 16  1  0  0  0  0
 23 24  1  0  0  0  0
 23 25  1  0  0  0  0
 26 23  1  0  0  0  0
 26 28  1  0  0  0  0
 27 26  1  0  0  0  0
 28 29  1  0  0  0  0
 28 30  1  0  0  0  0
 31 33  1  0  0  0  0
 31 28  1  0  0  0  0
 32 31  1  0  0  0  0
 34 35  2  0  0  0  0
 34 31  1  0  0  0  0
 35 36  1  0  0  0  0
 37 35  1  0  0  0  0
 38 40  2  0  0  0  0
 38 37  1  0  0  0  0
 39 38  1  0  0  0  0
 40 34  1  0  0  0  0
M  END
>  <minimizedAffinity>
-5.02144098

$$$$

 OpenBabel03262520143D

 40 42  0  0  0  0  0  0  0  0999 V2000
   37.1200   27.5380   31.6830 C   0  0  0  0  0  0  0  0  0  0  0  0
   37.7800   27.0430   30.9340 H   0  0  0  0  0  0  0  0  0  0  0  0
   37.1510   28.6240   31.4460 H   0  0  0  0  0  0  0  0  0  0  0  0
   39.7500   25.7980   31.7620 Br  0  0  0  0  0  0  0  0  0  0  0  0
   38.8380   26.6050   33.2520 C   0  0  0  0  0  0  0  0  0  0  0  0
   39.3280   26.4520   34.5260 C   0  0  0  0  0  0  0  0  0  0  0  0
   38.6380   27.0420   35.5490 C   0  0  0  0  0  0  0  0  0  0  0  0
   37.4790   27.7760   35.3390 C   0  0  0  0  0  0  0  0  0  0  0  0
   37.0140   27.9070   34.0290 C   0  0  0  0  0  0  0  0  0  0  0  0
   37.7020   27.3190   33.0030 C   0  0  0  0  0  0  0  0  0  0  0  0
   39.0740   26.8890   36.5510 H   0  0  0  0  0  0  0  0  0  0  0  0
   37.0710   28.1640   36.2400 H   0  0  0  0  0  0  0  0  0  0  0  0
   36.1220   28.4820   34.0850 H   0  0  0  0  0  0  0  0  0  0  0  0
   41.4710   23.6350   35.4090 C   0  0  0  0  0  0  0  0  0  0  0  0
   42.7890   24.1690   35.3060 C   0  0  0  0  0  0  0  0  0  0  0  0
   42.9000   25.4870   34.9350 C   0  0  0  0  0  0  0  0  0  0  0  0
   41.7690   26.2340   34.6790 N   0  0  0  0  0  0  0  0  0  0  0  0
   40.5470   25.6810   34.7910 C   0  0  0  0  0  0  0  0  0  0  0  0
   40.4140   24.3940   35.1520 N   0  0  0  0  0  0  0  0  0  0  0  0
   41.3920   22.5970   35.7020 H   0  0  0  0  0  0  0  0  0  0  0  0
   43.6150   23.5160   35.5230 H   0  0  0  0  0  0  0  0  0  0  0  0
   43.8940   25.8980   34.8550 H   0  0  0  0  0  0  0  0  0  0  0  0
   35.7320   27.0530   31.4680 C   0  0  0  0  0  0  0  0  0  0  0  0
   35.4260   26.6620   32.5010 H   0  0  0  0  0  0  0  0  0  0  0  0
   35.0500   27.8550   31.2910 H   0  0  0  0  0  0  0  0  0  0  0  0
   35.7610   25.9020   30.6480 N   0  0  0  0  0  0  0  0  0  0  0  0
   35.2930   26.0320   29.7160 H   0  0  0  0  0  0  0  0  0  0  0  0
   35.4970   24.6510   31.2590 C   0  0  0  0  0  0  0  0  0  0  0  0
   35.3890   24.7040   32.3640 H   0  0  0  0  0  0  0  0  0  0  0  0
   34.5540   24.2190   30.8890 H   0  0  0  0  0  0  0  0  0  0  0  0
   36.6470   23.7370   30.9740 C   0  0  0  0  0  0  0  0  0  0  0  0
   37.6530   24.1070   31.0660 H   0  0  0  0  0  0  0  0  0  0  0  0
   36.4930   23.1560   30.0200 H   0  0  0  0  0  0  0  0  0  0  0  0
   36.5570   22.6970   32.1000 C   0  0  0  0  0  0  0  0  0  0  0  0
   35.3980   21.7110   32.1090 C   0  0  0  0  0  0  0  0  0  0  0  0
   34.6040   21.7740   31.2420 H   0  0  0  0  0  0  0  0  0  0  0  0
   35.7630   20.7700   33.5950 S   0  0  0  0  0  0  0  0  0  0  0  0
   37.3340   21.7540   34.0000 C   0  0  0  0  0  0  0  0  0  0  0  0
   37.8830   21.4690   34.8880 H   0  0  0  0  0  0  0  0  0  0  0  0
   37.4570   22.6440   33.0640 N   0  0  0  0  0  0  0  0  0  0  0  0
  1 10  1  0  0  0  0
  2  1  1  0  0  0  0
  3  1  1  0  0  0  0
  4  5  1  0  0  0  0
  5  6  1  0  0  0  0
  6 18  1  0  0  0  0
  6  7  2  0  0  0  0
  7 11  1  0  0  0  0
  8  7  1  0  0  0  0
  8 12  1  0  0  0  0
  9 13  1  0  0  0  0
  9  8  2  0  0  0  0
 10  5  2  0  0  0  0
 10  9  1  0  0  0  0
 14 20  1  0  0  0  0
 15 14  1  0  0  0  0
 15 21  1  0  0  0  0
 16 15  2  0  0  0  0
 17 18  2  0  0  0  0
 17 16  1  0  0  0  0
 18 19  1  0  0  0  0
 19 14  2  0  0  0  0
 22 16  1  0  0  0  0
 23  1  1  0  0  0  0
 23 24  1  0  0  0  0
 25 23  1  0  0  0  0
 26 28  1  0  0  0  0
 26 23  1  0  0  0  0
 27 26  1  0  0  0  0
 28 29  1  0  0  0  0
 30 28  1  0  0  0  0
 31 32  1  0  0  0  0
 31 28  1  0  0  0  0
 31 34  1  0  0  0  0
 33 31  1  0  0  0  0
 34 35  2  0  0  0  0
 34 40  1  0  0  0  0
 35 37  1  0  0  0  0
 36 35  1  0  0  0  0
 37 38  1  0  0  0  0
 38 39  1  0  0  0  0
 40 38  2  0  0  0  0
M  END
>  <minimizedAffinity>
-4.95957994

$$$$

 OpenBabel03262520143D

 40 42  0  0  0  0  0  0  0  0999 V2000
   38.1360   27.4600   32.4080 C   0  0  0  0  0  0  0  0  0  0  0  0
   39.1160   27.6000   31.8970 H   0  0  0  0  0  0  0  0  0  0  0  0
   38.1370   28.1630   33.2700 H   0  0  0  0  0  0  0  0  0  0  0  0
   38.7250   27.0910   35.4850 Br  0  0  0  0  0  0  0  0  0  0  0  0
   38.3010   25.7180   34.2040 C   0  0  0  0  0  0  0  0  0  0  0  0
   38.2270   24.4050   34.5990 C   0  0  0  0  0  0  0  0  0  0  0  0
   37.9270   23.4700   33.6470 C   0  0  0  0  0  0  0  0  0  0  0  0
   37.7020   23.8050   32.3190 C   0  0  0  0  0  0  0  0  0  0  0  0
   37.7880   25.1520   31.9590 C   0  0  0  0  0  0  0  0  0  0  0  0
   38.0860   26.0900   32.9090 C   0  0  0  0  0  0  0  0  0  0  0  0
   37.8800   22.4320   34.0160 H   0  0  0  0  0  0  0  0  0  0  0  0
   37.4830   22.9590   31.7140 H   0  0  0  0  0  0  0  0  0  0  0  0
   37.6000   25.1930   30.9140 H   0  0  0  0  0  0  0  0  0  0  0  0
   39.8760   22.9530   37.5110 C   0  0  0  0  0  0  0  0  0  0  0  0
   38.9750   23.2310   38.5810 C   0  0  0  0  0  0  0  0  0  0  0  0
   37.8250   23.9110   38.2660 C   0  0  0  0  0  0  0  0  0  0  0  0
   37.5790   24.2960   36.9650 N   0  0  0  0  0  0  0  0  0  0  0  0
   38.4630   24.0090   35.9910 C   0  0  0  0  0  0  0  0  0  0  0  0
   39.5950   23.3450   36.2750 N   0  0  0  0  0  0  0  0  0  0  0  0
   40.7800   22.4170   37.7670 H   0  0  0  0  0  0  0  0  0  0  0  0
   39.2450   22.8940   39.5660 H   0  0  0  0  0  0  0  0  0  0  0  0
   37.1380   24.1240   39.0710 H   0  0  0  0  0  0  0  0  0  0  0  0
   37.0620   27.8750   31.4690 C   0  0  0  0  0  0  0  0  0  0  0  0
   37.4450   28.8730   31.0550 H   0  0  0  0  0  0  0  0  0  0  0  0
   37.0170   27.2460   30.6070 H   0  0  0  0  0  0  0  0  0  0  0  0
   35.9050   28.2180   32.2040 N   0  0  0  0  0  0  0  0  0  0  0  0
   35.0070   27.9110   31.7510 H   0  0  0  0  0  0  0  0  0  0  0  0
   35.8500   29.5100   32.7820 C   0  0  0  0  0  0  0  0  0  0  0  0
   36.7970   30.0840   32.6910 H   0  0  0  0  0  0  0  0  0  0  0  0
   35.0790   30.1300   32.2990 H   0  0  0  0  0  0  0  0  0  0  0  0
   35.5690   29.3600   34.2450 C   0  0  0  0  0  0  0  0  0  0  0  0
   36.3570   29.0450   34.9060 H   0  0  0  0  0  0  0  0  0  0  0  0
   34.6090   28.7980   34.4300 H   0  0  0  0  0  0  0  0  0  0  0  0
   35.2910   30.8000   34.7000 C   0  0  0  0  0  0  0  0  0  0  0  0
   36.0630   31.3660   35.8830 C   0  0  0  0  0  0  0  0  0  0  0  0
   36.8600   30.6780   36.4100 H   0  0  0  0  0  0  0  0  0  0  0  0
   35.3600   33.0150   35.9900 S   0  0  0  0  0  0  0  0  0  0  0  0
   34.1850   32.7610   34.5220 C   0  0  0  0  0  0  0  0  0  0  0  0
   33.5440   33.5890   34.2510 H   0  0  0  0  0  0  0  0  0  0  0  0
   34.3920   31.5540   34.0960 N   0  0  0  0  0  0  0  0  0  0  0  0
  1 10  1  0  0  0  0
  1  3  1  0  0  0  0
  2  1  1  0  0  0  0
  5  6  1  0  0  0  0
  5  4  1  0  0  0  0
  6 18  1  0  0  0  0
  7 11  1  0  0  0  0
  7  6  2  0  0  0  0
  8  7  1  0  0  0  0
  9  8  2  0  0  0  0
  9 10  1  0  0  0  0
 10  5  2  0  0  0  0
 12  8  1  0  0  0  0
 13  9  1  0  0  0  0
 14 20  1  0  0  0  0
 14 15  1  0  0  0  0
 15 21  1  0  0  0  0
 16 15  2  0  0  0  0
 16 22  1  0  0  0  0
 17 16  1  0  0  0  0
 18 19  1  0  0  0  0
 18 17  2  0  0  0  0
 19 14  2  0  0  0  0
 23 26  1  0  0  0  0
 23  1  1  0  0  0  0
 24 23  1  0  0  0  0
 25 23  1  0  0  0  0
 26 28  1  0  0  0  0
 27 26  1  0  0  0  0
 28 31  1  0  0  0  0
 29 28  1  0  0  0  0
 30 28  1  0  0  0  0
 31 33  1  0  0  0  0
 31 34  1  0  0  0  0
 31 32  1  0  0  0  0
 34 35  2  0  0  0  0
 35 37  1  0  0  0  0
 35 36  1  0  0  0  0
 38 37  1  0  0  0  0
 39 38  1  0  0  0  0
 40 38  2  0  0  0  0
 40 34  1  0  0  0  0
M  END
>  <minimizedAffinity>
-4.93267488

$$$$

 OpenBabel03262520143D

 40 42  0  0  0  0  0  0  0  0999 V2000
   36.5370   26.0890   31.9410 C   0  0  0  0  0  0  0  0  0  0  0  0
   35.7690   25.2850   32.0220 H   0  0  0  0  0  0  0  0  0  0  0  0
   37.3120   25.7030   31.2430 H   0  0  0  0  0  0  0  0  0  0  0  0
   37.9570   23.5580   33.1790 Br  0  0  0  0  0  0  0  0  0  0  0  0
   37.7960   25.3090   33.9630 C   0  0  0  0  0  0  0  0  0  0  0  0
   38.3370   25.5630   35.2000 C   0  0  0  0  0  0  0  0  0  0  0  0
   38.1890   26.8220   35.7130 C   0  0  0  0  0  0  0  0  0  0  0  0
   37.5200   27.8290   35.0330 C   0  0  0  0  0  0  0  0  0  0  0  0
   36.9850   27.5290   33.7780 C   0  0  0  0  0  0  0  0  0  0  0  0
   37.1310   26.2710   33.2610 C   0  0  0  0  0  0  0  0  0  0  0  0
   38.6420   26.9730   36.7080 H   0  0  0  0  0  0  0  0  0  0  0  0
   37.4970   28.7440   35.5740 H   0  0  0  0  0  0  0  0  0  0  0  0
   36.5080   28.4160   33.4380 H   0  0  0  0  0  0  0  0  0  0  0  0
   39.0200   23.0530   37.7580 C   0  0  0  0  0  0  0  0  0  0  0  0
   40.3190   22.5720   37.4200 C   0  0  0  0  0  0  0  0  0  0  0  0
   40.9220   23.1290   36.3190 C   0  0  0  0  0  0  0  0  0  0  0  0
   40.2750   24.1060   35.5920 N   0  0  0  0  0  0  0  0  0  0  0  0
   39.0470   24.5240   35.9540 C   0  0  0  0  0  0  0  0  0  0  0  0
   38.4380   23.9950   37.0270 N   0  0  0  0  0  0  0  0  0  0  0  0
   38.5510   22.6100   38.6260 H   0  0  0  0  0  0  0  0  0  0  0  0
   40.7500   21.8080   38.0410 H   0  0  0  0  0  0  0  0  0  0  0  0
   41.9050   22.7700   36.0570 H   0  0  0  0  0  0  0  0  0  0  0  0
   35.8970   27.2770   31.3190 C   0  0  0  0  0  0  0  0  0  0  0  0
   34.8460   26.9030   31.0570 H   0  0  0  0  0  0  0  0  0  0  0  0
   35.7180   28.0540   32.0280 H   0  0  0  0  0  0  0  0  0  0  0  0
   36.5040   27.5320   30.0680 N   0  0  0  0  0  0  0  0  0  0  0  0
   36.3920   26.7500   29.3730 H   0  0  0  0  0  0  0  0  0  0  0  0
   37.7900   28.1260   30.0680 C   0  0  0  0  0  0  0  0  0  0  0  0
   37.8890   28.9830   30.7700 H   0  0  0  0  0  0  0  0  0  0  0  0
   38.5630   27.4030   30.3710 H   0  0  0  0  0  0  0  0  0  0  0  0
   38.0650   28.6520   28.6940 C   0  0  0  0  0  0  0  0  0  0  0  0
   37.5490   28.2270   27.8510 H   0  0  0  0  0  0  0  0  0  0  0  0
   39.1710   28.7630   28.5020 H   0  0  0  0  0  0  0  0  0  0  0  0
   37.5180   30.0860   28.7480 C   0  0  0  0  0  0  0  0  0  0  0  0
   37.6480   30.9760   27.5210 C   0  0  0  0  0  0  0  0  0  0  0  0
   38.1630   30.5320   26.5600 H   0  0  0  0  0  0  0  0  0  0  0  0
   36.8850   32.4890   28.1180 S   0  0  0  0  0  0  0  0  0  0  0  0
   36.5060   31.7860   29.8380 C   0  0  0  0  0  0  0  0  0  0  0  0
   36.0120   32.4400   30.5440 H   0  0  0  0  0  0  0  0  0  0  0  0
   36.9450   30.5650   29.8360 N   0  0  0  0  0  0  0  0  0  0  0  0
  1  2  1  0  0  0  0
  1 10  1  0  0  0  0
  3  1  1  0  0  0  0
  4  5  1  0  0  0  0
  5  6  1  0  0  0  0
  6  7  2  0  0  0  0
  6 18  1  0  0  0  0
  7 11  1  0  0  0  0
  8 12  1  0  0  0  0
  8  7  1  0  0  0  0
  9  8  2  0  0  0  0
 10  9  1  0  0  0  0
 10  5  2  0  0  0  0
 13  9  1  0  0  0  0
 14 20  1  0  0  0  0
 15 14  1  0  0  0  0
 15 21  1  0  0  0  0
 16 15  2  0  0  0  0
 17 18  2  0  0  0  0
 17 16  1  0  0  0  0
 18 19  1  0  0  0  0
 19 14  2  0  0  0  0
 22 16  1  0  0  0  0
 23  1  1  0  0  0  0
 23 25  1  0  0  0  0
 24 23  1  0  0  0  0
 26 28  1  0  0  0  0
 26 23  1  0  0  0  0
 27 26  1  0  0  0  0
 28 30  1  0  0  0  0
 28 29  1  0  0  0  0
 31 34  1  0  0  0  0
 31 28  1  0  0  0  0
 32 31  1  0  0  0  0
 33 31  1  0  0  0  0
 34 40  1  0  0  0  0
 35 37  1  0  0  0  0
 35 34  2  0  0  0  0
 36 35  1  0  0  0  0
 37 38  1  0  0  0  0
 38 39  1  0  0  0  0
 40 38  2  0  0  0  0
M  END
>  <minimizedAffinity>
-4.90296412

$$$$

 OpenBabel03262520143D

 40 42  0  0  0  0  0  0  0  0999 V2000
   36.5900   24.2990   30.9050 C   0  0  0  0  0  0  0  0  0  0  0  0
   36.6690   23.7740   29.9250 H   0  0  0  0  0  0  0  0  0  0  0  0
   37.4640   24.9850   30.9560 H   0  0  0  0  0  0  0  0  0  0  0  0
   38.5650   24.9980   33.2630 Br  0  0  0  0  0  0  0  0  0  0  0  0
   37.4960   23.4090   33.0660 C   0  0  0  0  0  0  0  0  0  0  0  0
   37.5440   22.4230   34.0210 C   0  0  0  0  0  0  0  0  0  0  0  0
   36.7680   21.3130   33.8290 C   0  0  0  0  0  0  0  0  0  0  0  0
   35.9510   21.1590   32.7170 C   0  0  0  0  0  0  0  0  0  0  0  0
   35.9330   22.1850   31.7700 C   0  0  0  0  0  0  0  0  0  0  0  0
   36.7060   23.2970   31.9590 C   0  0  0  0  0  0  0  0  0  0  0  0
   36.8420   20.5530   34.6240 H   0  0  0  0  0  0  0  0  0  0  0  0
   35.4180   20.2400   32.7250 H   0  0  0  0  0  0  0  0  0  0  0  0
   35.2680   21.8700   31.0030 H   0  0  0  0  0  0  0  0  0  0  0  0
   40.4750   22.1330   36.1730 C   0  0  0  0  0  0  0  0  0  0  0  0
   40.0570   22.7370   37.3950 C   0  0  0  0  0  0  0  0  0  0  0  0
   38.7750   23.2270   37.4410 C   0  0  0  0  0  0  0  0  0  0  0  0
   37.9530   23.1260   36.3380 N   0  0  0  0  0  0  0  0  0  0  0  0
   38.3970   22.5460   35.2070 C   0  0  0  0  0  0  0  0  0  0  0  0
   39.6460   22.0590   35.1390 N   0  0  0  0  0  0  0  0  0  0  0  0
   41.4850   21.7490   36.1440 H   0  0  0  0  0  0  0  0  0  0  0  0
   40.7630   22.7740   38.2050 H   0  0  0  0  0  0  0  0  0  0  0  0
   38.4510   23.6850   38.3620 H   0  0  0  0  0  0  0  0  0  0  0  0
   35.3520   25.1210   30.8890 C   0  0  0  0  0  0  0  0  0  0  0  0
   34.7530   24.6790   30.0180 H   0  0  0  0  0  0  0  0  0  0  0  0
   34.7350   24.9340   31.7390 H   0  0  0  0  0  0  0  0  0  0  0  0
   35.6680   26.4340   30.4700 N   0  0  0  0  0  0  0  0  0  0  0  0
   36.2570   26.4720   29.5990 H   0  0  0  0  0  0  0  0  0  0  0  0
   36.0430   27.3710   31.4640 C   0  0  0  0  0  0  0  0  0  0  0  0
   35.2310   27.6110   32.1840 H   0  0  0  0  0  0  0  0  0  0  0  0
   36.8780   26.9920   32.0740 H   0  0  0  0  0  0  0  0  0  0  0  0
   36.4200   28.6510   30.7860 C   0  0  0  0  0  0  0  0  0  0  0  0
   36.8100   29.4650   31.3720 H   0  0  0  0  0  0  0  0  0  0  0  0
   35.6260   28.9910   30.0630 H   0  0  0  0  0  0  0  0  0  0  0  0
   37.6180   28.2480   29.9140 C   0  0  0  0  0  0  0  0  0  0  0  0
   37.7920   28.8970   28.5480 C   0  0  0  0  0  0  0  0  0  0  0  0
   37.0000   29.6980   28.2050 H   0  0  0  0  0  0  0  0  0  0  0  0
   39.2860   28.0820   27.9730 S   0  0  0  0  0  0  0  0  0  0  0  0
   39.4840   27.0320   29.5410 C   0  0  0  0  0  0  0  0  0  0  0  0
   40.3300   26.3590   29.5840 H   0  0  0  0  0  0  0  0  0  0  0  0
   38.4940   27.3470   30.3170 N   0  0  0  0  0  0  0  0  0  0  0  0
  1  3  1  0  0  0  0
  1 10  1  0  0  0  0
  2  1  1  0  0  0  0
  5  4  1  0  0  0  0
  5  6  1  0  0  0  0
  6 18  1  0  0  0  0
  7  6  2  0  0  0  0
  7 11  1  0  0  0  0
  8 12  1  0  0  0  0
  8  7  1  0  0  0  0
  9 10  1  0  0  0  0
  9  8  2  0  0  0  0
 10  5  2  0  0  0  0
 13  9  1  0  0  0  0
 14 15  1  0  0  0  0
 15 16  2  0  0  0  0
 15 21  1  0  0  0  0
 16 22  1  0  0  0  0
 17 16  1  0  0  0  0
 18 17  2  0  0  0  0
 19 18  1  0  0  0  0
 19 14  2  0  0  0  0
 20 14  1  0  0  0  0
 23  1  1  0  0  0  0
 23 25  1  0  0  0  0
 24 23  1  0  0  0  0
 26 23  1  0  0  0  0
 26 28  1  0  0  0  0
 27 26  1  0  0  0  0
 28 30  1  0  0  0  0
 28 29  1  0  0  0  0
 31 32  1  0  0  0  0
 31 28  1  0  0  0  0
 33 31  1  0  0  0  0
 34 40  1  0  0  0  0
 34 31  1  0  0  0  0
 35 34  2  0  0  0  0
 36 35  1  0  0  0  0
 37 35  1  0  0  0  0
 37 38  1  0  0  0  0
 38 39  1  0  0  0  0
 38 40  2  0  0  0  0
M  END
>  <minimizedAffinity>
-4.87978506

$$$$

 OpenBabel03262520143D

 40 42  0  0  0  0  0  0  0  0999 V2000
   36.6430   24.3910   30.9960 C   0  0  0  0  0  0  0  0  0  0  0  0
   36.5390   23.8700   30.0170 H   0  0  0  0  0  0  0  0  0  0  0  0
   37.5990   24.9580   30.9410 H   0  0  0  0  0  0  0  0  0  0  0  0
   38.6390   25.0290   33.3540 Br  0  0  0  0  0  0  0  0  0  0  0  0
   37.5480   23.4570   33.1390 C   0  0  0  0  0  0  0  0  0  0  0  0
   37.5870   22.4560   34.0790 C   0  0  0  0  0  0  0  0  0  0  0  0
   36.7960   21.3600   33.8740 C   0  0  0  0  0  0  0  0  0  0  0  0
   35.9710   21.2330   32.7650 C   0  0  0  0  0  0  0  0  0  0  0  0
   35.9620   22.2730   31.8330 C   0  0  0  0  0  0  0  0  0  0  0  0
   36.7510   23.3720   32.0350 C   0  0  0  0  0  0  0  0  0  0  0  0
   36.8640   20.5870   34.6580 H   0  0  0  0  0  0  0  0  0  0  0  0
   35.4260   20.3210   32.7610 H   0  0  0  0  0  0  0  0  0  0  0  0
   35.2890   21.9790   31.0650 H   0  0  0  0  0  0  0  0  0  0  0  0
   40.5440   22.1490   36.1930 C   0  0  0  0  0  0  0  0  0  0  0  0
   40.1220   22.6900   37.4430 C   0  0  0  0  0  0  0  0  0  0  0  0
   38.8290   23.1440   37.5200 C   0  0  0  0  0  0  0  0  0  0  0  0
   37.9990   23.0690   36.4210 N   0  0  0  0  0  0  0  0  0  0  0  0
   38.4470   22.5500   35.2630 C   0  0  0  0  0  0  0  0  0  0  0  0
   39.7080   22.0990   35.1640 N   0  0  0  0  0  0  0  0  0  0  0  0
   41.5640   21.7930   36.1400 H   0  0  0  0  0  0  0  0  0  0  0  0
   40.8340   22.7100   38.2480 H   0  0  0  0  0  0  0  0  0  0  0  0
   38.5020   23.5540   38.4630 H   0  0  0  0  0  0  0  0  0  0  0  0
   35.5290   25.3660   31.1200 C   0  0  0  0  0  0  0  0  0  0  0  0
   34.6880   24.8850   30.5080 H   0  0  0  0  0  0  0  0  0  0  0  0
   35.1320   25.3980   32.1100 H   0  0  0  0  0  0  0  0  0  0  0  0
   35.8550   26.5430   30.4080 N   0  0  0  0  0  0  0  0  0  0  0  0
   35.5980   26.5080   29.3890 H   0  0  0  0  0  0  0  0  0  0  0  0
   37.1130   27.1430   30.6680 C   0  0  0  0  0  0  0  0  0  0  0  0
   37.5240   26.9080   31.6730 H   0  0  0  0  0  0  0  0  0  0  0  0
   37.8730   26.8010   29.9490 H   0  0  0  0  0  0  0  0  0  0  0  0
   36.9480   28.6290   30.5980 C   0  0  0  0  0  0  0  0  0  0  0  0
   36.2820   29.0540   29.8690 H   0  0  0  0  0  0  0  0  0  0  0  0
   37.9410   29.1610   30.6280 H   0  0  0  0  0  0  0  0  0  0  0  0
   36.2650   28.9700   31.9300 C   0  0  0  0  0  0  0  0  0  0  0  0
   35.2340   30.0890   31.9700 C   0  0  0  0  0  0  0  0  0  0  0  0
   34.9870   30.6570   30.9680 H   0  0  0  0  0  0  0  0  0  0  0  0
   34.7830   30.0740   33.7080 S   0  0  0  0  0  0  0  0  0  0  0  0
   35.9610   28.6540   34.1460 C   0  0  0  0  0  0  0  0  0  0  0  0
   35.9830   28.3270   35.1770 H   0  0  0  0  0  0  0  0  0  0  0  0
   36.5570   28.3230   33.0420 N   0  0  0  0  0  0  0  0  0  0  0  0
  1 23  1  0  0  0  0
  1 10  1  0  0  0  0
  2  1  1  0  0  0  0
  3  1  1  0  0  0  0
  5  4  1  0  0  0  0
  5  6  1  0  0  0  0
  6 18  1  0  0  0  0
  7  6  2  0  0  0  0
  7 11  1  0  0  0  0
  8  7  1  0  0  0  0
  9 10  1  0  0  0  0
  9  8  2  0  0  0  0
 10  5  2  0  0  0  0
 12  8  1  0  0  0  0
 13  9  1  0  0  0  0
 14 15  1  0  0  0  0
 15 16  2  0  0  0  0
 15 21  1  0  0  0  0
 16 22  1  0  0  0  0
 17 16  1  0  0  0  0
 18 17  2  0  0  0  0
 19 18  1  0  0  0  0
 19 14  2  0  0  0  0
 20 14  1  0  0  0  0
 23 25  1  0  0  0  0
 24 23  1  0  0  0  0
 26 28  1  0  0  0  0
 26 23  1  0  0  0  0
 27 26  1  0  0  0  0
 28 29  1  0  0  0  0
 30 28  1  0  0  0  0
 31 33  1  0  0  0  0
 31 28  1  0  0  0  0
 31 34  1  0  0  0  0
 32 31  1  0  0  0  0
 34 35  2  0  0  0  0
 34 40  1  0  0  0  0
 35 37  1  0  0  0  0
 36 35  1  0  0  0  0
 37 38  1  0  0  0  0
 38 39  1  0  0  0  0
 40 38  2  0  0  0  0
M  END
>  <minimizedAffinity>
-4.85608768

$$$$

 OpenBabel03262520143D

 40 42  0  0  0  0  0  0  0  0999 V2000
   36.5720   25.7870   31.9220 C   0  0  0  0  0  0  0  0  0  0  0  0
   35.9610   24.8580   32.0010 H   0  0  0  0  0  0  0  0  0  0  0  0
   37.3850   25.5580   31.1990 H   0  0  0  0  0  0  0  0  0  0  0  0
   37.9570   23.3280   33.3310 Br  0  0  0  0  0  0  0  0  0  0  0  0
   37.8070   25.1270   34.0010 C   0  0  0  0  0  0  0  0  0  0  0  0
   38.3410   25.4540   35.2240 C   0  0  0  0  0  0  0  0  0  0  0  0
   38.2010   26.7450   35.6540 C   0  0  0  0  0  0  0  0  0  0  0  0
   37.5470   27.7130   34.9040 C   0  0  0  0  0  0  0  0  0  0  0  0
   37.0190   27.3380   33.6670 C   0  0  0  0  0  0  0  0  0  0  0  0
   37.1570   26.0480   33.2330 C   0  0  0  0  0  0  0  0  0  0  0  0
   38.6470   26.9550   36.6400 H   0  0  0  0  0  0  0  0  0  0  0  0
   37.5290   28.6610   35.3850 H   0  0  0  0  0  0  0  0  0  0  0  0
   36.5540   28.2060   33.2670 H   0  0  0  0  0  0  0  0  0  0  0  0
   40.9510   23.1740   36.3640 C   0  0  0  0  0  0  0  0  0  0  0  0
   40.4000   22.5960   37.5450 C   0  0  0  0  0  0  0  0  0  0  0  0
   39.1430   23.0090   37.9140 C   0  0  0  0  0  0  0  0  0  0  0  0
   38.4690   23.9440   37.1560 N   0  0  0  0  0  0  0  0  0  0  0  0
   39.0350   24.4600   36.0480 C   0  0  0  0  0  0  0  0  0  0  0  0
   40.2620   24.0710   35.6680 N   0  0  0  0  0  0  0  0  0  0  0  0
   41.9400   22.8440   36.0800 H   0  0  0  0  0  0  0  0  0  0  0  0
   40.9940   21.8740   38.0760 H   0  0  0  0  0  0  0  0  0  0  0  0
   38.7200   22.5750   38.8060 H   0  0  0  0  0  0  0  0  0  0  0  0
   35.7150   26.8530   31.3410 C   0  0  0  0  0  0  0  0  0  0  0  0
   34.7630   26.2920   31.0400 H   0  0  0  0  0  0  0  0  0  0  0  0
   35.3760   27.5440   32.0810 H   0  0  0  0  0  0  0  0  0  0  0  0
   36.2740   27.2850   30.1160 N   0  0  0  0  0  0  0  0  0  0  0  0
   36.9000   26.5730   29.6600 H   0  0  0  0  0  0  0  0  0  0  0  0
   36.7600   28.6140   30.0450 C   0  0  0  0  0  0  0  0  0  0  0  0
   35.9770   29.3670   29.8140 H   0  0  0  0  0  0  0  0  0  0  0  0
   37.2010   28.9280   31.0040 H   0  0  0  0  0  0  0  0  0  0  0  0
   37.7740   28.6860   28.9470 C   0  0  0  0  0  0  0  0  0  0  0  0
   38.2240   29.6320   28.7030 H   0  0  0  0  0  0  0  0  0  0  0  0
   37.4360   28.1270   28.0280 H   0  0  0  0  0  0  0  0  0  0  0  0
   38.9540   27.8760   29.5020 C   0  0  0  0  0  0  0  0  0  0  0  0
   39.8220   27.0760   28.5420 C   0  0  0  0  0  0  0  0  0  0  0  0
   39.5630   27.1100   27.3940 H   0  0  0  0  0  0  0  0  0  0  0  0
   40.9980   26.3380   29.6810 S   0  0  0  0  0  0  0  0  0  0  0  0
   40.2290   27.1440   31.2170 C   0  0  0  0  0  0  0  0  0  0  0  0
   40.6880   26.9280   32.1730 H   0  0  0  0  0  0  0  0  0  0  0  0
   39.2270   27.8500   30.7930 N   0  0  0  0  0  0  0  0  0  0  0  0
  1  2  1  0  0  0  0
  1 10  1  0  0  0  0
  3  1  1  0  0  0  0
  4  5  1  0  0  0  0
  5  6  1  0  0  0  0
  6  7  2  0  0  0  0
  6 18  1  0  0  0  0
  7 11  1  0  0  0  0
  8 12  1  0  0  0  0
  8  7  1  0  0  0  0
  9  8  2  0  0  0  0
 10  9  1  0  0  0  0
 10  5  2  0  0  0  0
 13  9  1  0  0  0  0
 14 15  1  0  0  0  0
 15 16  2  0  0  0  0
 15 21  1  0  0  0  0
 16 22  1  0  0  0  0
 17 16  1  0  0  0  0
 18 17  2  0  0  0  0
 19 18  1  0  0  0  0
 19 14  2  0  0  0  0
 20 14  1  0  0  0  0
 23  1  1  0  0  0  0
 23 25  1  0  0  0  0
 24 23  1  0  0  0  0
 26 23  1  0  0  0  0
 27 26  1  0  0  0  0
 28 26  1  0  0  0  0
 28 30  1  0  0  0  0
 29 28  1  0  0  0  0
 31 34  1  0  0  0  0
 31 28  1  0  0  0  0
 32 31  1  0  0  0  0
 33 31  1  0  0  0  0
 34 40  1  0  0  0  0
 35 34  2  0  0  0  0
 35 37  1  0  0  0  0
 36 35  1  0  0  0  0
 37 38  1  0  0  0  0
 38 39  1  0  0  0  0
 40 38  2  0  0  0  0
M  END
>  <minimizedAffinity>
-4.85079241

$$$$

 OpenBabel03262520143D

 40 42  0  0  0  0  0  0  0  0999 V2000
   37.2090   27.8390   32.7260 C   0  0  0  0  0  0  0  0  0  0  0  0
   37.9040   28.1310   31.9050 H   0  0  0  0  0  0  0  0  0  0  0  0
   37.5310   28.4190   33.6190 H   0  0  0  0  0  0  0  0  0  0  0  0
   38.5150   27.1040   35.5020 Br  0  0  0  0  0  0  0  0  0  0  0  0
   37.9350   25.8900   34.1250 C   0  0  0  0  0  0  0  0  0  0  0  0
   38.0710   24.5340   34.2980 C   0  0  0  0  0  0  0  0  0  0  0  0
   37.6470   23.7170   33.2870 C   0  0  0  0  0  0  0  0  0  0  0  0
   37.0960   24.2110   32.1120 C   0  0  0  0  0  0  0  0  0  0  0  0
   36.9760   25.5960   31.9760 C   0  0  0  0  0  0  0  0  0  0  0  0
   37.3980   26.4160   32.9860 C   0  0  0  0  0  0  0  0  0  0  0  0
   37.7780   22.6390   33.4760 H   0  0  0  0  0  0  0  0  0  0  0  0
   36.8210   23.4410   31.4330 H   0  0  0  0  0  0  0  0  0  0  0  0
   36.5520   25.7650   31.0170 H   0  0  0  0  0  0  0  0  0  0  0  0
   38.3290   23.3910   37.7530 C   0  0  0  0  0  0  0  0  0  0  0  0
   39.6750   22.9310   37.8560 C   0  0  0  0  0  0  0  0  0  0  0  0
   40.4540   23.0280   36.7290 C   0  0  0  0  0  0  0  0  0  0  0  0
   39.9310   23.5520   35.5660 N   0  0  0  0  0  0  0  0  0  0  0  0
   38.6530   23.9730   35.5220 C   0  0  0  0  0  0  0  0  0  0  0  0
   37.8720   23.8870   36.6110 N   0  0  0  0  0  0  0  0  0  0  0  0
   37.7210   23.3110   38.6440 H   0  0  0  0  0  0  0  0  0  0  0  0
   40.0010   22.5370   38.8020 H   0  0  0  0  0  0  0  0  0  0  0  0
   41.4740   22.6820   36.8000 H   0  0  0  0  0  0  0  0  0  0  0  0
   35.8410   28.2810   32.3510 C   0  0  0  0  0  0  0  0  0  0  0  0
   35.9470   28.5610   31.2450 H   0  0  0  0  0  0  0  0  0  0  0  0
   35.1460   27.4710   32.3400 H   0  0  0  0  0  0  0  0  0  0  0  0
   35.5510   29.5040   32.9980 N   0  0  0  0  0  0  0  0  0  0  0  0
   35.9280   30.3490   32.4990 H   0  0  0  0  0  0  0  0  0  0  0  0
   35.6910   29.5530   34.4080 C   0  0  0  0  0  0  0  0  0  0  0  0
   35.1490   28.7430   34.9420 H   0  0  0  0  0  0  0  0  0  0  0  0
   36.7460   29.4530   34.7070 H   0  0  0  0  0  0  0  0  0  0  0  0
   35.1250   30.8520   34.8920 C   0  0  0  0  0  0  0  0  0  0  0  0
   34.9630   31.6520   34.1910 H   0  0  0  0  0  0  0  0  0  0  0  0
   35.6370   31.2070   35.8310 H   0  0  0  0  0  0  0  0  0  0  0  0
   33.7000   30.4760   35.3220 C   0  0  0  0  0  0  0  0  0  0  0  0
   33.0810   31.1720   36.5260 C   0  0  0  0  0  0  0  0  0  0  0  0
   33.7180   31.9870   37.0890 H   0  0  0  0  0  0  0  0  0  0  0  0
   31.4740   30.3730   36.5920 S   0  0  0  0  0  0  0  0  0  0  0  0
   31.8060   29.2680   35.0860 C   0  0  0  0  0  0  0  0  0  0  0  0
   31.0180   28.5910   34.7830 H   0  0  0  0  0  0  0  0  0  0  0  0
   33.0030   29.5580   34.6790 N   0  0  0  0  0  0  0  0  0  0  0  0
  1 10  1  0  0  0  0
  1  3  1  0  0  0  0
  2  1  1  0  0  0  0
  5  6  1  0  0  0  0
  5  4  1  0  0  0  0
  6 18  1  0  0  0  0
  7 11  1  0  0  0  0
  7  6  2  0  0  0  0
  8  7  1  0  0  0  0
  9  8  2  0  0  0  0
  9 10  1  0  0  0  0
 10  5  2  0  0  0  0
 12  8  1  0  0  0  0
 13  9  1  0  0  0  0
 14 15  1  0  0  0  0
 14 20  1  0  0  0  0
 15 21  1  0  0  0  0
 16 22  1  0  0  0  0
 16 15  2  0  0  0  0
 17 16  1  0  0  0  0
 18 17  2  0  0  0  0
 18 19  1  0  0  0  0
 19 14  2  0  0  0  0
 23  1  1  0  0  0  0
 23 26  1  0  0  0  0
 24 23  1  0  0  0  0
 25 23  1  0  0  0  0
 26 28  1  0  0  0  0
 27 26  1  0  0  0  0
 28 30  1  0  0  0  0
 28 31  1  0  0  0  0
 28 29  1  0  0  0  0
 31 34  1  0  0  0  0
 31 33  1  0  0  0  0
 32 31  1  0  0  0  0
 34 35  2  0  0  0  0
 35 37  1  0  0  0  0
 35 36  1  0  0  0  0
 38 37  1  0  0  0  0
 39 38  1  0  0  0  0
 40 38  2  0  0  0  0
 40 34  1  0  0  0  0
M  END
>  <minimizedAffinity>
-4.76843071

$$$$

 OpenBabel03262520143D

 40 42  0  0  0  0  0  0  0  0999 V2000
   39.2930   26.8790   32.3550 C   0  0  0  0  0  0  0  0  0  0  0  0
   39.2000   27.9580   32.0930 H   0  0  0  0  0  0  0  0  0  0  0  0
   40.1140   26.4800   31.7200 H   0  0  0  0  0  0  0  0  0  0  0  0
   39.3240   23.7250   32.4020 Br  0  0  0  0  0  0  0  0  0  0  0  0
   37.8440   24.8730   31.9550 C   0  0  0  0  0  0  0  0  0  0  0  0
   36.6310   24.3310   31.6090 C   0  0  0  0  0  0  0  0  0  0  0  0
   35.6150   25.1910   31.2960 C   0  0  0  0  0  0  0  0  0  0  0  0
   35.7740   26.5700   31.3170 C   0  0  0  0  0  0  0  0  0  0  0  0
   37.0240   27.0800   31.6750 C   0  0  0  0  0  0  0  0  0  0  0  0
   38.0420   26.2220   31.9890 C   0  0  0  0  0  0  0  0  0  0  0  0
   34.6630   24.7050   31.0250 H   0  0  0  0  0  0  0  0  0  0  0  0
   34.8870   27.0890   31.0470 H   0  0  0  0  0  0  0  0  0  0  0  0
   36.9420   28.1380   31.6150 H   0  0  0  0  0  0  0  0  0  0  0  0
   37.0780   20.8340   30.6700 C   0  0  0  0  0  0  0  0  0  0  0  0
   36.0910   20.1500   31.4400 C   0  0  0  0  0  0  0  0  0  0  0  0
   35.3000   20.9160   32.2610 C   0  0  0  0  0  0  0  0  0  0  0  0
   35.4760   22.2820   32.3170 N   0  0  0  0  0  0  0  0  0  0  0  0
   36.4230   22.8800   31.5690 C   0  0  0  0  0  0  0  0  0  0  0  0
   37.2080   22.1510   30.7590 N   0  0  0  0  0  0  0  0  0  0  0  0
   37.6960   20.2240   30.0260 H   0  0  0  0  0  0  0  0  0  0  0  0
   36.0230   19.0820   31.3350 H   0  0  0  0  0  0  0  0  0  0  0  0
   34.5520   20.4050   32.8460 H   0  0  0  0  0  0  0  0  0  0  0  0
   39.7150   26.7840   33.7770 C   0  0  0  0  0  0  0  0  0  0  0  0
   39.6690   25.6590   33.9910 H   0  0  0  0  0  0  0  0  0  0  0  0
   40.7470   27.0230   33.9060 H   0  0  0  0  0  0  0  0  0  0  0  0
   38.7100   27.3420   34.6000 N   0  0  0  0  0  0  0  0  0  0  0  0
   38.7000   28.3930   34.6070 H   0  0  0  0  0  0  0  0  0  0  0  0
   38.4990   26.7530   35.8720 C   0  0  0  0  0  0  0  0  0  0  0  0
   39.4360   26.4690   36.3970 H   0  0  0  0  0  0  0  0  0  0  0  0
   37.9770   27.4460   36.5500 H   0  0  0  0  0  0  0  0  0  0  0  0
   37.7050   25.4980   35.6840 C   0  0  0  0  0  0  0  0  0  0  0  0
   37.7230   24.9990   34.7310 H   0  0  0  0  0  0  0  0  0  0  0  0
   36.6590   25.6010   36.0900 H   0  0  0  0  0  0  0  0  0  0  0  0
   38.4050   24.4960   36.6120 C   0  0  0  0  0  0  0  0  0  0  0  0
   39.6080   23.7200   36.0950 C   0  0  0  0  0  0  0  0  0  0  0  0
   39.9700   23.9210   34.9930 H   0  0  0  0  0  0  0  0  0  0  0  0
   40.0090   22.7190   37.5310 S   0  0  0  0  0  0  0  0  0  0  0  0
   38.5990   23.4200   38.5890 C   0  0  0  0  0  0  0  0  0  0  0  0
   38.4990   23.0400   39.5970 H   0  0  0  0  0  0  0  0  0  0  0  0
   37.9820   24.2850   37.8440 N   0  0  0  0  0  0  0  0  0  0  0  0
  1 23  1  0  0  0  0
  2  1  1  0  0  0  0
  3  1  1  0  0  0  0
  5 10  1  0  0  0  0
  5  4  1  0  0  0  0
  6  5  2  0  0  0  0
  7  8  2  0  0  0  0
  7  6  1  0  0  0  0
  8  9  1  0  0  0  0
  9 10  2  0  0  0  0
 10  1  1  0  0  0  0
 11  7  1  0  0  0  0
 12  8  1  0  0  0  0
 13  9  1  0  0  0  0
 14 19  2  0  0  0  0
 14 15  1  0  0  0  0
 15 16  2  0  0  0  0
 16 17  1  0  0  0  0
 16 22  1  0  0  0  0
 18  6  1  0  0  0  0
 18 17  2  0  0  0  0
 19 18  1  0  0  0  0
 20 14  1  0  0  0  0
 21 15  1  0  0  0  0
 23 25  1  0  0  0  0
 23 24  1  0  0  0  0
 23 26  1  0  0  0  0
 26 27  1  0  0  0  0
 26 28  1  0  0  0  0
 28 29  1  0  0  0  0
 28 30  1  0  0  0  0
 31 28  1  0  0  0  0
 31 33  1  0  0  0  0
 31 34  1  0  0  0  0
 32 31  1  0  0  0  0
 34 40  1  0  0  0  0
 35 34  2  0  0  0  0
 35 37  1  0  0  0  0
 36 35  1  0  0  0  0
 37 38  1  0  0  0  0
 38 39  1  0  0  0  0
 40 38  2  0  0  0  0
M  END
>  <minimizedAffinity>
-4.75617409

$$$$
