REMARK  Name = 
REMARK  4 active torsions:
REMARK  status: ('A' for Active; 'I' for Inactive)
REMARK    1  A    between atoms: C_1  and  C_8
REMARK    2  A    between atoms: C_1  and  C_10
REMARK    3  A    between atoms: C_14  and  C_16
REMARK    4  A    between atoms: N_19  and  C_32
REMARK                            x       y       z     vdW  Elec       q    Type
REMARK                         _______ _______ _______ _____ _____    ______ ____
ROOT
ATOM      1  C   UNL     1      36.512  30.524  46.262  0.00  0.00    +0.000 A 
ATOM      2  C   UNL     1      37.145  30.929  47.399  0.00  0.00    +0.000 A 
ATOM      3  C   UNL     1      36.547  30.741  48.642  0.00  0.00    +0.000 A 
ATOM      4  C   UNL     1      35.299  30.135  48.688  0.00  0.00    +0.000 A 
ATOM      5  C   UNL     1      34.655  29.723  47.521  0.00  0.00    +0.000 A 
ATOM      6  N   UNL     1      35.297  29.939  46.354  0.00  0.00    +0.000 NA
ATOM      7  H   UNL     1      38.112  31.400  47.380  0.00  0.00    +0.000 HD
ATOM      8  H   UNL     1      37.029  31.053  49.559  0.00  0.00    +0.000 HD
ATOM      9  H   UNL     1      34.779  29.958  49.613  0.00  0.00    +0.000 HD
ENDROOT
BRANCH   1  10
ATOM     10  C   UNL     1      37.144  30.720  44.907  0.00  0.00    +0.000 C 
ATOM     11  C   UNL     1      36.840  29.741  43.847  0.00  0.00    +0.000 C 
ATOM     12  C   UNL     1      36.251  31.135  43.783  0.00  0.00    +0.000 C 
ATOM     13  H   UNL     1      37.647  29.511  43.097  0.00  0.00    +0.000 HD
ATOM     14  H   UNL     1      36.195  28.879  44.083  0.00  0.00    +0.000 HD
ATOM     15  H   UNL     1      35.156  31.152  43.993  0.00  0.00    +0.000 HD
ATOM     16  H   UNL     1      36.621  31.785  42.987  0.00  0.00    +0.000 HD
BRANCH  10  21
ATOM     17  C   UNL     1      39.747  33.352  44.968  0.00  0.00    +0.000 A 
ATOM     18  C   UNL     1      40.920  32.602  45.221  0.00  0.00    +0.000 A 
ATOM     19  C   UNL     1      40.806  31.205  45.367  0.00  0.00    +0.000 A 
ATOM     20  N   UNL     1      39.576  30.645  45.258  0.00  0.00    +0.000 NA
ATOM     21  C   UNL     1      38.464  31.395  45.015  0.00  0.00    +0.000 A 
ATOM     22  N   UNL     1      38.548  32.728  44.872  0.00  0.00    +0.000 NA
ATOM     23  H   UNL     1      39.820  34.426  44.854  0.00  0.00    +0.000 HD
ATOM     24  H   UNL     1      41.889  33.080  45.301  0.00  0.00    +0.000 HD
ATOM     25  H   UNL     1      41.691  30.615  45.559  0.00  0.00    +0.000 HD
ENDBRANCH  10  21
ENDBRANCH   1  10
BRANCH   5  26
ATOM     26  C   UNL     1      33.348  29.082  47.503  0.00  0.00    +0.000 A 
ATOM     27  N   UNL     1      32.369  29.066  46.568  0.00  0.00    +0.000 NA
ATOM     28  C   UNL     1      31.329  28.321  47.022  0.00  0.00    +0.000 A 
ATOM     29  N   UNL     1      31.658  27.868  48.249  0.00  0.00    +0.000 N 
ATOM     30  N   UNL     1      32.879  28.323  48.550  0.00  0.00    +0.000 NA
ATOM     31  H   UNL     1      30.384  28.059  46.611  0.00  0.00    +0.000 HD
BRANCH  29  32
ATOM     32  C   UNL     1      31.020  27.050  49.244  0.00  0.00    +0.000 A 
ATOM     33  C   UNL     1      29.900  27.748  49.725  0.00  0.00    +0.000 A 
ATOM     34  H   UNL     1      29.300  28.679  49.651  0.00  0.00    +0.000 HD
ATOM     35  S   UNL     1      29.144  26.583  51.020  0.00  0.00    +0.000 S 
ATOM     36  C   UNL     1      30.559  25.347  50.623  0.00  0.00    +0.000 A 
ATOM     37  H   UNL     1      31.156  24.243  50.801  0.00  0.00    +0.000 HD
ATOM     38  N   UNL     1      31.147  25.884  49.835  0.00  0.00    +0.000 NA
ENDBRANCH  29  32
ENDBRANCH   5  26
TORSDOF 4
