
     RDKit          3D

 21 22  0  0  0  0  0  0  0  0999 V2000
   35.6218   29.0111   50.1760 C   0  0  0  0  0  0  0  0  0  0  0  0
   36.2886   30.1481   49.6593 C   0  0  0  0  0  0  0  0  0  0  0  0
   36.0370   30.5053   48.3373 C   0  0  0  0  0  0  0  0  0  0  0  0
   35.1674   29.7516   47.6042 N   0  0  0  0  0  0  0  0  0  0  0  0
   34.5469   28.6633   48.1432 C   0  0  0  0  0  0  0  0  0  0  0  0
   34.7693   28.2897   49.4237 N   0  0  0  0  0  0  0  0  0  0  0  0
   33.6878   28.0265   47.2112 N   0  0  0  0  0  0  0  0  0  0  0  0
   37.2186   30.9055   50.5368 C   0  0  0  0  0  0  0  0  0  0  0  0
   38.5331   30.7920   50.0969 F   0  0  0  0  0  0  0  0  0  0  0  0
   36.8610   32.2264   50.5071 F   0  0  0  0  0  0  0  0  0  0  0  0
   37.1816   30.4735   51.8483 F   0  0  0  0  0  0  0  0  0  0  0  0
   35.7765   28.6833   51.1976 H   0  0  0  0  0  0  0  0  0  0  0  0
   32.6898   28.2639   46.9704 H   0  0  0  0  0  0  0  0  0  0  0  0
   34.3532   27.2777   46.8630 H   0  0  0  0  0  0  0  0  0  0  0  0
   36.7077   31.6767   47.7680 C   0  0  0  0  0  0  0  0  0  0  0  0
   36.4157   31.9865   46.4436 C   0  0  0  0  0  0  0  0  0  0  0  0
   35.7674   31.5211   45.7164 H   0  0  0  0  0  0  0  0  0  0  0  0
   37.4360   33.4802   46.1279 S   0  0  0  0  0  0  0  0  0  0  0  0
   38.1020   33.4134   47.9207 C   0  0  0  0  0  0  0  0  0  0  0  0
   38.8354   34.0535   48.5257 H   0  0  0  0  0  0  0  0  0  0  0  0
   37.5683   32.5057   48.3283 N   0  0  0  0  0  0  0  0  0  0  0  0
  2  1  2  0
  2  8  1  0
  3  2  1  0
  4  5  1  0
  4  3  2  0
  5  6  2  0
  6  1  1  0
  7  5  1  0
  8 11  1  0
  9  8  1  0
 10  8  1  0
  1 12  1  0
  7 13  1  0
  7 14  1  0
 15 16  2  0
 16 17  1  0
 16 18  1  0
 18 19  1  0
 19 20  1  0
 19 21  2  0
 21 15  1  0
  3 15  1  0
M  ISO  3  12  14  17  15  20  16
M  END
>  <DihAtoms>  (1) 
1,2,14,15

>  <DihDeg>  (1) 
-134.88946673951702

$$$$
