
 OpenBabel03262521483D

 28 29  0  0  0  0  0  0  0  0999 V2000
   38.5190   25.5720   35.8500 C   0  0  0  0  0  0  0  0  0  0  0  0
   39.6280   25.6140   35.7870 H   0  0  0  0  0  0  0  0  0  0  0  0
   38.1840   24.8660   35.0450 H   0  0  0  0  0  0  0  0  0  0  0  0
   37.8550   26.8950   35.6640 C   0  0  0  0  0  0  0  0  0  0  0  0
   37.1920   27.1580   36.5230 H   0  0  0  0  0  0  0  0  0  0  0  0
   38.6770   27.6690   35.7060 H   0  0  0  0  0  0  0  0  0  0  0  0
   37.1900   27.0730   34.3840 C   0  0  0  0  0  0  0  0  0  0  0  0
   36.5250   28.2310   34.0400 C   0  0  0  0  0  0  0  0  0  0  0  0
   35.9120   28.3090   32.7800 C   0  0  0  0  0  0  0  0  0  0  0  0
   36.0130   27.2140   31.9560 N   0  0  0  0  0  0  0  0  0  0  0  0
   36.6760   26.0910   32.3280 C   0  0  0  0  0  0  0  0  0  0  0  0
   37.2610   26.0420   33.5580 N   0  0  0  0  0  0  0  0  0  0  0  0
   36.4700   29.0680   34.7210 H   0  0  0  0  0  0  0  0  0  0  0  0
   35.3760   29.1940   32.4570 H   0  0  0  0  0  0  0  0  0  0  0  0
   36.7190   25.2580   31.6280 H   0  0  0  0  0  0  0  0  0  0  0  0
   38.0880   25.0370   37.0690 O   0  0  0  0  0  0  0  0  0  0  0  0
   36.9560   22.6960   37.0600 O   0  0  0  0  0  0  0  0  0  0  0  0
   38.3330   23.3750   37.1320 P   0  0  2  0  0  0  0  0  0  0  0  0
   38.9920   22.8990   38.5970 O   0  0  0  0  0  0  0  0  0  0  0  0
   39.7130   23.4630   38.9310 H   0  0  0  0  0  0  0  0  0  0  0  0
   39.3260   22.8490   35.8910 O   0  0  0  0  0  0  0  0  0  0  0  0
   40.7000   22.6540   36.1450 C   0  0  0  0  0  0  0  0  0  0  0  0
   41.7640   23.4940   35.6790 C   0  0  0  0  0  0  0  0  0  0  0  0
   41.5500   24.3070   35.1180 H   0  0  0  0  0  0  0  0  0  0  0  0
   43.1910   22.6430   36.3750 S   0  0  0  0  0  0  0  0  0  0  0  0
   42.1110   21.2780   37.1870 C   0  0  0  0  0  0  0  0  0  0  0  0
   42.5020   20.4180   37.7960 H   0  0  0  0  0  0  0  0  0  0  0  0
   40.8120   21.5640   36.8820 N   0  0  0  0  0  0  0  0  0  0  0  0
  1 16  1  0  0  0  0
  2  1  1  0  0  0  0
  3  1  1  0  0  0  0
  4  6  1  0  0  0  0
  4  1  1  0  0  0  0
  4  5  1  0  0  0  0
  7  4  1  0  0  0  0
  8  7  1  0  0  0  0
  8 13  1  0  0  0  0
  9  8  2  0  0  0  0
 10 11  2  0  0  0  0
 10  9  1  0  0  0  0
 11 12  1  0  0  0  0
 12  7  2  0  0  0  0
 14  9  1  0  0  0  0
 15 11  1  0  0  0  0
 16 18  1  0  0  0  0
 18 17  2  6  0  0  0
 18 19  1  0  0  0  0
 19 20  1  0  0  0  0
 21 22  1  0  0  0  0
 21 18  1  0  0  0  0
 22 28  1  0  0  0  0
 23 22  2  0  0  0  0
 23 25  1  0  0  0  0
 24 23  1  0  0  0  0
 25 26  1  0  0  0  0
 26 27  1  0  0  0  0
 28 26  2  0  0  0  0
M  END
>  <minimizedAffinity>
-4.36188078

$$$$

 OpenBabel03262521483D

 28 29  0  0  0  0  0  0  0  0999 V2000
   37.8610   25.5470   36.0280 C   0  0  0  0  0  0  0  0  0  0  0  0
   38.0490   24.8040   35.2240 H   0  0  0  0  0  0  0  0  0  0  0  0
   36.7600   25.7580   36.0120 H   0  0  0  0  0  0  0  0  0  0  0  0
   38.6180   26.8220   35.8580 C   0  0  0  0  0  0  0  0  0  0  0  0
   37.9950   27.7160   36.0980 H   0  0  0  0  0  0  0  0  0  0  0  0
   39.4170   26.8230   36.6560 H   0  0  0  0  0  0  0  0  0  0  0  0
   39.3090   26.9600   34.5870 C   0  0  0  0  0  0  0  0  0  0  0  0
   40.6840   26.9700   34.4780 C   0  0  0  0  0  0  0  0  0  0  0  0
   41.2600   27.1090   33.2070 C   0  0  0  0  0  0  0  0  0  0  0  0
   40.4100   27.2290   32.1340 N   0  0  0  0  0  0  0  0  0  0  0  0
   39.0620   27.2160   32.2780 C   0  0  0  0  0  0  0  0  0  0  0  0
   38.5280   27.0790   33.5250 N   0  0  0  0  0  0  0  0  0  0  0  0
   41.3140   26.8730   35.3510 H   0  0  0  0  0  0  0  0  0  0  0  0
   42.3340   27.1230   33.0630 H   0  0  0  0  0  0  0  0  0  0  0  0
   38.4430   27.3150   31.3870 H   0  0  0  0  0  0  0  0  0  0  0  0
   38.1600   25.0300   37.2930 O   0  0  0  0  0  0  0  0  0  0  0  0
   36.9300   22.7440   37.1360 O   0  0  0  0  0  0  0  0  0  0  0  0
   38.3340   23.3580   37.2490 P   0  0  2  0  0  0  0  0  0  0  0  0
   38.9700   22.7620   38.6790 O   0  0  0  0  0  0  0  0  0  0  0  0
   39.7140   23.2720   39.0480 H   0  0  0  0  0  0  0  0  0  0  0  0
   39.3040   22.8710   35.9760 O   0  0  0  0  0  0  0  0  0  0  0  0
   40.6890   22.7090   36.1890 C   0  0  0  0  0  0  0  0  0  0  0  0
   41.7150   23.6080   35.7470 C   0  0  0  0  0  0  0  0  0  0  0  0
   41.4620   24.4430   35.2360 H   0  0  0  0  0  0  0  0  0  0  0  0
   43.1840   22.7680   36.3650 S   0  0  0  0  0  0  0  0  0  0  0  0
   42.1680   21.3270   37.1240 C   0  0  0  0  0  0  0  0  0  0  0  0
   42.6000   20.4490   37.6760 H   0  0  0  0  0  0  0  0  0  0  0  0
   40.8540   21.5850   36.8620 N   0  0  0  0  0  0  0  0  0  0  0  0
  1 16  1  0  0  0  0
  2  1  1  0  0  0  0
  3  1  1  0  0  0  0
  4  1  1  0  0  0  0
  4  5  1  0  0  0  0
  4  6  1  0  0  0  0
  7  4  1  0  0  0  0
  8  7  1  0  0  0  0
  8 13  1  0  0  0  0
  9  8  2  0  0  0  0
 10 11  2  0  0  0  0
 10  9  1  0  0  0  0
 11 12  1  0  0  0  0
 12  7  2  0  0  0  0
 14  9  1  0  0  0  0
 15 11  1  0  0  0  0
 18 17  2  6  0  0  0
 18 16  1  0  0  0  0
 18 19  1  0  0  0  0
 19 20  1  0  0  0  0
 21 22  1  0  0  0  0
 21 18  1  0  0  0  0
 22 28  1  0  0  0  0
 23 22  2  0  0  0  0
 23 25  1  0  0  0  0
 24 23  1  0  0  0  0
 25 26  1  0  0  0  0
 26 27  1  0  0  0  0
 28 26  2  0  0  0  0
M  END
>  <minimizedAffinity>
-4.35127068

$$$$

 OpenBabel03262521483D

 28 29  0  0  0  0  0  0  0  0999 V2000
   39.3480   26.2010   33.0230 C   0  0  0  0  0  0  0  0  0  0  0  0
   40.4260   26.0130   32.8310 H   0  0  0  0  0  0  0  0  0  0  0  0
   38.9330   25.2500   33.4480 H   0  0  0  0  0  0  0  0  0  0  0  0
   38.5770   26.5820   31.8040 C   0  0  0  0  0  0  0  0  0  0  0  0
   38.3490   27.6730   31.7730 H   0  0  0  0  0  0  0  0  0  0  0  0
   39.2730   26.4230   30.9280 H   0  0  0  0  0  0  0  0  0  0  0  0
   37.4010   25.7690   31.5430 C   0  0  0  0  0  0  0  0  0  0  0  0
   36.1830   26.3060   31.1820 C   0  0  0  0  0  0  0  0  0  0  0  0
   35.1040   25.4400   30.9510 C   0  0  0  0  0  0  0  0  0  0  0  0
   35.3280   24.0920   31.1000 N   0  0  0  0  0  0  0  0  0  0  0  0
   36.5400   23.5990   31.4560 C   0  0  0  0  0  0  0  0  0  0  0  0
   37.5710   24.4630   31.6740 N   0  0  0  0  0  0  0  0  0  0  0  0
   36.0520   27.3740   31.0770 H   0  0  0  0  0  0  0  0  0  0  0  0
   34.1250   25.8070   30.6660 H   0  0  0  0  0  0  0  0  0  0  0  0
   36.6520   22.5200   31.5570 H   0  0  0  0  0  0  0  0  0  0  0  0
   39.1570   27.1980   33.9860 O   0  0  0  0  0  0  0  0  0  0  0  0
   36.6950   27.4890   34.7700 O   0  0  0  0  0  0  0  0  0  0  0  0
   37.9950   26.7480   35.1150 P   0  0  2  0  0  0  0  0  0  0  0  0
   38.4030   27.2510   36.6600 O   0  0  0  0  0  0  0  0  0  0  0  0
   39.3350   27.1160   36.9090 H   0  0  0  0  0  0  0  0  0  0  0  0
   37.7550   25.0920   35.1280 O   0  0  0  0  0  0  0  0  0  0  0  0
   38.4320   24.3050   36.0830 C   0  0  0  0  0  0  0  0  0  0  0  0
   39.6560   23.5920   35.8640 C   0  0  0  0  0  0  0  0  0  0  0  0
   40.1040   23.6330   34.9580 H   0  0  0  0  0  0  0  0  0  0  0  0
   39.9010   22.8430   37.4840 S   0  0  0  0  0  0  0  0  0  0  0  0
   38.2980   23.6180   38.2000 C   0  0  0  0  0  0  0  0  0  0  0  0
   37.9220   23.4790   39.2500 H   0  0  0  0  0  0  0  0  0  0  0  0
   37.7290   24.3520   37.2000 N   0  0  0  0  0  0  0  0  0  0  0  0
  1  3  1  0  0  0  0
  1 16  1  0  0  0  0
  2  1  1  0  0  0  0
  4  1  1  0  0  0  0
  5  4  1  0  0  0  0
  6  4  1  0  0  0  0
  7 12  1  0  0  0  0
  7  4  1  0  0  0  0
  8  7  2  0  0  0  0
  9 10  2  0  0  0  0
  9  8  1  0  0  0  0
 10 11  1  0  0  0  0
 11 15  1  0  0  0  0
 11 12  2  0  0  0  0
 13  8  1  0  0  0  0
 14  9  1  0  0  0  0
 16 18  1  0  0  0  0
 18 17  2  6  0  0  0
 18 21  1  0  0  0  0
 18 19  1  0  0  0  0
 19 20  1  0  0  0  0
 21 22  1  0  0  0  0
 22 28  1  0  0  0  0
 23 22  2  0  0  0  0
 23 25  1  0  0  0  0
 24 23  1  0  0  0  0
 25 26  1  0  0  0  0
 26 27  1  0  0  0  0
 28 26  2  0  0  0  0
M  END
>  <minimizedAffinity>
-4.20295143

$$$$

 OpenBabel03262521483D

 28 29  0  0  0  0  0  0  0  0999 V2000
   38.0920   24.7490   36.8990 C   0  0  0  0  0  0  0  0  0  0  0  0
   39.0480   25.1940   37.2480 H   0  0  0  0  0  0  0  0  0  0  0  0
   37.3110   25.0540   37.6440 H   0  0  0  0  0  0  0  0  0  0  0  0
   38.1250   23.2610   36.7890 C   0  0  0  0  0  0  0  0  0  0  0  0
   37.6300   22.7640   37.6570 H   0  0  0  0  0  0  0  0  0  0  0  0
   37.4680   22.9950   35.9100 H   0  0  0  0  0  0  0  0  0  0  0  0
   39.4330   22.6950   36.5070 C   0  0  0  0  0  0  0  0  0  0  0  0
   40.3260   22.3410   37.4970 C   0  0  0  0  0  0  0  0  0  0  0  0
   41.5670   21.8020   37.1270 C   0  0  0  0  0  0  0  0  0  0  0  0
   41.8220   21.6590   35.7840 N   0  0  0  0  0  0  0  0  0  0  0  0
   40.9200   22.0190   34.8380 C   0  0  0  0  0  0  0  0  0  0  0  0
   39.7220   22.5400   35.2250 N   0  0  0  0  0  0  0  0  0  0  0  0
   40.0830   22.4720   38.5420 H   0  0  0  0  0  0  0  0  0  0  0  0
   42.3060   21.5060   37.8620 H   0  0  0  0  0  0  0  0  0  0  0  0
   41.1830   21.8790   33.7900 H   0  0  0  0  0  0  0  0  0  0  0  0
   37.7010   25.2670   35.6600 O   0  0  0  0  0  0  0  0  0  0  0  0
   40.1520   25.9700   35.1490 O   0  0  0  0  0  0  0  0  0  0  0  0
   38.7160   26.5140   35.1660 P   0  0  2  0  0  0  0  0  0  0  0  0
   38.7280   27.7770   36.2680 O   0  0  0  0  0  0  0  0  0  0  0  0
   37.8560   28.0310   36.6180 H   0  0  0  0  0  0  0  0  0  0  0  0
   38.2810   27.1070   33.6630 O   0  0  0  0  0  0  0  0  0  0  0  0
   37.7690   26.2180   32.6940 C   0  0  0  0  0  0  0  0  0  0  0  0
   38.4620   25.0900   32.1440 C   0  0  0  0  0  0  0  0  0  0  0  0
   39.4020   24.8810   32.4540 H   0  0  0  0  0  0  0  0  0  0  0  0
   37.2190   24.4550   31.0070 S   0  0  0  0  0  0  0  0  0  0  0  0
   35.9540   25.8280   31.4600 C   0  0  0  0  0  0  0  0  0  0  0  0
   34.9250   25.9330   31.0210 H   0  0  0  0  0  0  0  0  0  0  0  0
   36.5480   26.6220   32.3970 N   0  0  0  0  0  0  0  0  0  0  0  0
  1  2  1  0  0  0  0
  1  3  1  0  0  0  0
  4  1  1  0  0  0  0
  4  5  1  0  0  0  0
  6  4  1  0  0  0  0
  7  4  1  0  0  0  0
  7  8  1  0  0  0  0
  8 13  1  0  0  0  0
  9  8  2  0  0  0  0
  9 14  1  0  0  0  0
 10  9  1  0  0  0  0
 11 12  1  0  0  0  0
 11 10  2  0  0  0  0
 12  7  2  0  0  0  0
 15 11  1  0  0  0  0
 16  1  1  0  0  0  0
 18 17  2  6  0  0  0
 18 16  1  0  0  0  0
 18 19  1  0  0  0  0
 19 20  1  0  0  0  0
 21 18  1  0  0  0  0
 22 21  1  0  0  0  0
 23 24  1  0  0  0  0
 23 22  2  0  0  0  0
 25 26  1  0  0  0  0
 25 23  1  0  0  0  0
 26 28  2  0  0  0  0
 27 26  1  0  0  0  0
 28 22  1  0  0  0  0
M  END
>  <minimizedAffinity>
-4.14245605

$$$$

 OpenBabel03262521483D

 28 29  0  0  0  0  0  0  0  0999 V2000
   37.6200   22.5470   33.4780 C   0  0  0  0  0  0  0  0  0  0  0  0
   36.9590   23.1920   34.0960 H   0  0  0  0  0  0  0  0  0  0  0  0
   36.9610   21.7520   33.0370 H   0  0  0  0  0  0  0  0  0  0  0  0
   38.7280   21.9090   34.2460 C   0  0  0  0  0  0  0  0  0  0  0  0
   38.7110   20.7960   34.1640 H   0  0  0  0  0  0  0  0  0  0  0  0
   39.6850   22.2070   33.7240 H   0  0  0  0  0  0  0  0  0  0  0  0
   38.8570   22.3550   35.6230 C   0  0  0  0  0  0  0  0  0  0  0  0
   40.0220   22.2200   36.3480 C   0  0  0  0  0  0  0  0  0  0  0  0
   40.0510   22.6810   37.6730 C   0  0  0  0  0  0  0  0  0  0  0  0
   38.9020   23.2450   38.1740 N   0  0  0  0  0  0  0  0  0  0  0  0
   37.7730   23.3600   37.4310 C   0  0  0  0  0  0  0  0  0  0  0  0
   37.7740   22.9040   36.1470 N   0  0  0  0  0  0  0  0  0  0  0  0
   40.9030   21.7690   35.9130 H   0  0  0  0  0  0  0  0  0  0  0  0
   40.9380   22.6010   38.2890 H   0  0  0  0  0  0  0  0  0  0  0  0
   36.8960   23.8170   37.8870 H   0  0  0  0  0  0  0  0  0  0  0  0
   38.1820   23.2520   32.4080 O   0  0  0  0  0  0  0  0  0  0  0  0
   35.8330   23.3770   31.2990 O   0  0  0  0  0  0  0  0  0  0  0  0
   37.0470   24.2450   31.6630 P   0  0  2  0  0  0  0  0  0  0  0  0
   37.6150   24.8540   30.2090 O   0  0  0  0  0  0  0  0  0  0  0  0
   38.5360   25.1710   30.2220 H   0  0  0  0  0  0  0  0  0  0  0  0
   36.5980   25.5200   32.6490 O   0  0  0  0  0  0  0  0  0  0  0  0
   37.5580   26.0980   33.5070 C   0  0  0  0  0  0  0  0  0  0  0  0
   37.4220   26.2600   34.9250 C   0  0  0  0  0  0  0  0  0  0  0  0
   36.5800   25.9450   35.3860 H   0  0  0  0  0  0  0  0  0  0  0  0
   38.9930   27.0470   35.3230 S   0  0  0  0  0  0  0  0  0  0  0  0
   39.5830   27.0300   33.4950 C   0  0  0  0  0  0  0  0  0  0  0  0
   40.5680   27.4260   33.1270 H   0  0  0  0  0  0  0  0  0  0  0  0
   38.5870   26.4540   32.7610 N   0  0  0  0  0  0  0  0  0  0  0  0
  1  2  1  0  0  0  0
  1  4  1  0  0  0  0
  3  1  1  0  0  0  0
  4  7  1  0  0  0  0
  5  4  1  0  0  0  0
  6  4  1  0  0  0  0
  7 12  2  0  0  0  0
  7  8  1  0  0  0  0
  8  9  2  0  0  0  0
  9 10  1  0  0  0  0
  9 14  1  0  0  0  0
 11 15  1  0  0  0  0
 11 10  2  0  0  0  0
 12 11  1  0  0  0  0
 13  8  1  0  0  0  0
 16  1  1  0  0  0  0
 18 17  2  6  0  0  0
 18 16  1  0  0  0  0
 18 21  1  0  0  0  0
 19 20  1  0  0  0  0
 19 18  1  0  0  0  0
 21 22  1  0  0  0  0
 22 23  2  0  0  0  0
 23 25  1  0  0  0  0
 23 24  1  0  0  0  0
 26 25  1  0  0  0  0
 27 26  1  0  0  0  0
 28 26  2  0  0  0  0
 28 22  1  0  0  0  0
M  END
>  <minimizedAffinity>
-4.12064838

$$$$

 OpenBabel03262521483D

 28 29  0  0  0  0  0  0  0  0999 V2000
   38.3920   25.1240   33.6630 C   0  0  0  0  0  0  0  0  0  0  0  0
   38.7300   24.0800   33.4860 H   0  0  0  0  0  0  0  0  0  0  0  0
   39.2860   25.7790   33.4920 H   0  0  0  0  0  0  0  0  0  0  0  0
   37.8540   25.3580   35.0340 C   0  0  0  0  0  0  0  0  0  0  0  0
   37.8730   26.4380   35.3150 H   0  0  0  0  0  0  0  0  0  0  0  0
   36.7540   25.1060   34.9890 H   0  0  0  0  0  0  0  0  0  0  0  0
   38.4240   24.5130   36.0700 C   0  0  0  0  0  0  0  0  0  0  0  0
   37.8940   24.4220   37.3390 C   0  0  0  0  0  0  0  0  0  0  0  0
   38.5150   23.5780   38.2730 C   0  0  0  0  0  0  0  0  0  0  0  0
   39.6290   22.8860   37.8610 N   0  0  0  0  0  0  0  0  0  0  0  0
   40.1230   23.0010   36.6030 C   0  0  0  0  0  0  0  0  0  0  0  0
   39.5000   23.8280   35.7170 N   0  0  0  0  0  0  0  0  0  0  0  0
   37.0160   24.9860   37.6200 H   0  0  0  0  0  0  0  0  0  0  0  0
   38.1410   23.4680   39.2840 H   0  0  0  0  0  0  0  0  0  0  0  0
   41.0090   22.4250   36.3390 H   0  0  0  0  0  0  0  0  0  0  0  0
   37.4150   25.5160   32.7400 O   0  0  0  0  0  0  0  0  0  0  0  0
   37.4930   24.1330   30.5390 O   0  0  0  0  0  0  0  0  0  0  0  0
   36.7930   24.1960   31.9050 P   0  0  2  0  0  0  0  0  0  0  0  0
   35.1630   24.3870   31.5660 O   0  0  0  0  0  0  0  0  0  0  0  0
   34.6250   24.7390   32.2980 H   0  0  0  0  0  0  0  0  0  0  0  0
   37.0090   22.7700   32.7540 O   0  0  0  0  0  0  0  0  0  0  0  0
   36.5290   21.5620   32.2050 C   0  0  0  0  0  0  0  0  0  0  0  0
   37.3000   20.6260   31.4410 C   0  0  0  0  0  0  0  0  0  0  0  0
   38.2770   20.8130   31.2590 H   0  0  0  0  0  0  0  0  0  0  0  0
   36.0550   19.3720   31.0920 S   0  0  0  0  0  0  0  0  0  0  0  0
   34.6830   20.3230   32.0420 C   0  0  0  0  0  0  0  0  0  0  0  0
   33.6190   19.9800   32.1610 H   0  0  0  0  0  0  0  0  0  0  0  0
   35.2520   21.4640   32.5270 N   0  0  0  0  0  0  0  0  0  0  0  0
  1  4  1  0  0  0  0
  2  1  1  0  0  0  0
  3  1  1  0  0  0  0
  4  5  1  0  0  0  0
  4  7  1  0  0  0  0
  6  4  1  0  0  0  0
  7  8  1  0  0  0  0
  8 13  1  0  0  0  0
  8  9  2  0  0  0  0
  9 14  1  0  0  0  0
 10  9  1  0  0  0  0
 11 10  2  0  0  0  0
 12  7  2  0  0  0  0
 12 11  1  0  0  0  0
 15 11  1  0  0  0  0
 16  1  1  0  0  0  0
 18 17  2  6  0  0  0
 18 16  1  0  0  0  0
 18 21  1  0  0  0  0
 19 18  1  0  0  0  0
 19 20  1  0  0  0  0
 22 28  1  0  0  0  0
 22 21  1  0  0  0  0
 23 22  2  0  0  0  0
 24 23  1  0  0  0  0
 25 23  1  0  0  0  0
 25 26  1  0  0  0  0
 26 27  1  0  0  0  0
 26 28  2  0  0  0  0
M  END
>  <minimizedAffinity>
-4.05309391

$$$$

 OpenBabel03262521483D

 28 29  0  0  0  0  0  0  0  0999 V2000
   38.1720   25.4160   36.4030 C   0  0  0  0  0  0  0  0  0  0  0  0
   37.1790   25.0730   36.0420 H   0  0  0  0  0  0  0  0  0  0  0  0
   38.1190   25.4140   37.5240 H   0  0  0  0  0  0  0  0  0  0  0  0
   38.5500   26.7770   35.9240 C   0  0  0  0  0  0  0  0  0  0  0  0
   38.1600   27.5820   36.5900 H   0  0  0  0  0  0  0  0  0  0  0  0
   39.6720   26.8500   36.0340 H   0  0  0  0  0  0  0  0  0  0  0  0
   38.2600   27.0370   34.5240 C   0  0  0  0  0  0  0  0  0  0  0  0
   36.9860   27.2850   34.0560 C   0  0  0  0  0  0  0  0  0  0  0  0
   36.8040   27.5240   32.6850 C   0  0  0  0  0  0  0  0  0  0  0  0
   37.9190   27.4970   31.8820 N   0  0  0  0  0  0  0  0  0  0  0  0
   39.1570   27.2490   32.3780 C   0  0  0  0  0  0  0  0  0  0  0  0
   39.3050   27.0190   33.7130 N   0  0  0  0  0  0  0  0  0  0  0  0
   36.1370   27.2970   34.7240 H   0  0  0  0  0  0  0  0  0  0  0  0
   35.8270   27.7250   32.2630 H   0  0  0  0  0  0  0  0  0  0  0  0
   40.0000   27.2410   31.6880 H   0  0  0  0  0  0  0  0  0  0  0  0
   39.1920   24.5290   36.0410 O   0  0  0  0  0  0  0  0  0  0  0  0
   37.2630   22.9320   36.7430 O   0  0  0  0  0  0  0  0  0  0  0  0
   38.6970   22.9290   36.1900 P   0  0  2  0  0  0  0  0  0  0  0  0
   39.6120   22.0990   37.3220 O   0  0  0  0  0  0  0  0  0  0  0  0
   40.5720   22.2610   37.2800 H   0  0  0  0  0  0  0  0  0  0  0  0
   38.7730   22.1190   34.7280 O   0  0  0  0  0  0  0  0  0  0  0  0
   37.8790   22.4750   33.6960 C   0  0  0  0  0  0  0  0  0  0  0  0
   37.8990   23.7030   32.9570 C   0  0  0  0  0  0  0  0  0  0  0  0
   38.6010   24.4000   33.1650 H   0  0  0  0  0  0  0  0  0  0  0  0
   36.5040   23.4480   31.8470 S   0  0  0  0  0  0  0  0  0  0  0  0
   36.1150   21.7110   32.5670 C   0  0  0  0  0  0  0  0  0  0  0  0
   35.2810   21.0390   32.2250 H   0  0  0  0  0  0  0  0  0  0  0  0
   37.0330   21.4720   33.5470 N   0  0  0  0  0  0  0  0  0  0  0  0
  1  3  1  0  0  0  0
  2  1  1  0  0  0  0
  4  6  1  0  0  0  0
  4  1  1  0  0  0  0
  4  5  1  0  0  0  0
  7  4  1  0  0  0  0
  8  7  1  0  0  0  0
  8 13  1  0  0  0  0
  9  8  2  0  0  0  0
 10 11  2  0  0  0  0
 10  9  1  0  0  0  0
 11 12  1  0  0  0  0
 12  7  2  0  0  0  0
 14  9  1  0  0  0  0
 15 11  1  0  0  0  0
 16 18  1  0  0  0  0
 16  1  1  0  0  0  0
 18 17  2  1  0  0  0
 18 19  1  0  0  0  0
 20 19  1  0  0  0  0
 21 18  1  0  0  0  0
 22 21  1  0  0  0  0
 23 24  1  0  0  0  0
 23 22  2  0  0  0  0
 25 26  1  0  0  0  0
 25 23  1  0  0  0  0
 26 28  2  0  0  0  0
 27 26  1  0  0  0  0
 28 22  1  0  0  0  0
M  END
>  <minimizedAffinity>
-4.02483749

$$$$

 OpenBabel03262521483D

 28 29  0  0  0  0  0  0  0  0999 V2000
   38.0470   27.0810   33.9560 C   0  0  0  0  0  0  0  0  0  0  0  0
   38.5870   26.4120   33.2510 H   0  0  0  0  0  0  0  0  0  0  0  0
   38.4610   28.1100   33.7930 H   0  0  0  0  0  0  0  0  0  0  0  0
   38.2070   26.6990   35.3890 C   0  0  0  0  0  0  0  0  0  0  0  0
   39.1070   27.1680   35.8530 H   0  0  0  0  0  0  0  0  0  0  0  0
   37.3390   27.1680   35.9390 H   0  0  0  0  0  0  0  0  0  0  0  0
   38.1350   25.2720   35.6550 C   0  0  0  0  0  0  0  0  0  0  0  0
   38.2470   24.3180   34.6650 C   0  0  0  0  0  0  0  0  0  0  0  0
   38.1640   22.9630   35.0200 C   0  0  0  0  0  0  0  0  0  0  0  0
   37.9730   22.6650   36.3480 N   0  0  0  0  0  0  0  0  0  0  0  0
   37.8670   23.6300   37.2950 C   0  0  0  0  0  0  0  0  0  0  0  0
   37.9510   24.9380   36.9220 N   0  0  0  0  0  0  0  0  0  0  0  0
   38.3970   24.5990   33.6330 H   0  0  0  0  0  0  0  0  0  0  0  0
   38.2460   22.1710   34.2840 H   0  0  0  0  0  0  0  0  0  0  0  0
   37.7160   23.3270   38.3300 H   0  0  0  0  0  0  0  0  0  0  0  0
   36.6790   27.1390   33.6710 O   0  0  0  0  0  0  0  0  0  0  0  0
   37.7290   28.2930   31.5900 O   0  0  0  0  0  0  0  0  0  0  0  0
   36.3970   27.7500   32.1300 P   0  0  2  0  0  0  0  0  0  0  0  0
   35.3580   29.0640   32.1630 O   0  0  0  0  0  0  0  0  0  0  0  0
   34.5830   28.9670   32.7470 H   0  0  0  0  0  0  0  0  0  0  0  0
   35.7670   26.5830   31.1090 O   0  0  0  0  0  0  0  0  0  0  0  0
   36.3020   25.2780   31.1420 C   0  0  0  0  0  0  0  0  0  0  0  0
   37.6480   24.9160   30.8090 C   0  0  0  0  0  0  0  0  0  0  0  0
   38.3020   25.6310   30.5210 H   0  0  0  0  0  0  0  0  0  0  0  0
   37.5920   23.1360   31.0790 S   0  0  0  0  0  0  0  0  0  0  0  0
   35.7450   23.1680   31.6010 C   0  0  0  0  0  0  0  0  0  0  0  0
   35.1390   22.2700   31.9020 H   0  0  0  0  0  0  0  0  0  0  0  0
   35.3350   24.4680   31.5340 N   0  0  0  0  0  0  0  0  0  0  0  0
  1  4  1  0  0  0  0
  2  1  1  0  0  0  0
  3  1  1  0  0  0  0
  4  7  1  0  0  0  0
  4  5  1  0  0  0  0
  4  6  1  0  0  0  0
  7 12  1  0  0  0  0
  8  9  1  0  0  0  0
  8  7  2  0  0  0  0
  9 10  2  0  0  0  0
 10 11  1  0  0  0  0
 11 15  1  0  0  0  0
 12 11  2  0  0  0  0
 13  8  1  0  0  0  0
 14  9  1  0  0  0  0
 16  1  1  0  0  0  0
 18 17  2  6  0  0  0
 18 19  1  0  0  0  0
 18 16  1  0  0  0  0
 19 20  1  0  0  0  0
 21 22  1  0  0  0  0
 21 18  1  0  0  0  0
 22 28  1  0  0  0  0
 23 25  1  0  0  0  0
 23 22  2  0  0  0  0
 24 23  1  0  0  0  0
 25 26  1  0  0  0  0
 26 27  1  0  0  0  0
 28 26  2  0  0  0  0
M  END
>  <minimizedAffinity>
-3.8778162

$$$$

 OpenBabel03262521483D

 28 29  0  0  0  0  0  0  0  0999 V2000
   35.8810   28.8460   33.1080 C   0  0  0  0  0  0  0  0  0  0  0  0
   34.9810   28.6140   32.5000 H   0  0  0  0  0  0  0  0  0  0  0  0
   36.2600   29.8370   32.7450 H   0  0  0  0  0  0  0  0  0  0  0  0
   36.9630   27.8250   32.9950 C   0  0  0  0  0  0  0  0  0  0  0  0
   37.8890   28.2420   32.5330 H   0  0  0  0  0  0  0  0  0  0  0  0
   37.2740   27.5760   34.0520 H   0  0  0  0  0  0  0  0  0  0  0  0
   36.5620   26.5710   32.3810 C   0  0  0  0  0  0  0  0  0  0  0  0
   37.1550   25.3630   32.6850 C   0  0  0  0  0  0  0  0  0  0  0  0
   36.6990   24.2040   32.0400 C   0  0  0  0  0  0  0  0  0  0  0  0
   35.6760   24.3440   31.1320 N   0  0  0  0  0  0  0  0  0  0  0  0
   35.1170   25.5480   30.8570 C   0  0  0  0  0  0  0  0  0  0  0  0
   35.5790   26.6580   31.4990 N   0  0  0  0  0  0  0  0  0  0  0  0
   37.9570   25.3010   33.4060 H   0  0  0  0  0  0  0  0  0  0  0  0
   37.1280   23.2300   32.2400 H   0  0  0  0  0  0  0  0  0  0  0  0
   34.3090   25.5910   30.1270 H   0  0  0  0  0  0  0  0  0  0  0  0
   35.5680   28.9980   34.4630 O   0  0  0  0  0  0  0  0  0  0  0  0
   35.7850   31.4600   33.6510 O   0  0  0  0  0  0  0  0  0  0  0  0
   35.3820   30.6190   34.8720 P   0  0  2  0  0  0  0  0  0  0  0  0
   36.4310   31.0740   36.0960 O   0  0  0  0  0  0  0  0  0  0  0  0
   36.5120   30.4410   36.8320 H   0  0  0  0  0  0  0  0  0  0  0  0
   33.8140   30.9610   35.3440 O   0  0  0  0  0  0  0  0  0  0  0  0
   32.7750   30.0820   34.9710 C   0  0  0  0  0  0  0  0  0  0  0  0
   32.1440   29.1210   35.8270 C   0  0  0  0  0  0  0  0  0  0  0  0
   32.4430   29.0360   36.7890 H   0  0  0  0  0  0  0  0  0  0  0  0
   30.9520   28.3920   34.6900 S   0  0  0  0  0  0  0  0  0  0  0  0
   31.5040   29.5110   33.2310 C   0  0  0  0  0  0  0  0  0  0  0  0
   31.0680   29.4890   32.1950 H   0  0  0  0  0  0  0  0  0  0  0  0
   32.5020   30.3140   33.7000 N   0  0  0  0  0  0  0  0  0  0  0  0
  1 16  1  0  0  0  0
  2  1  1  0  0  0  0
  3  1  1  0  0  0  0
  4  1  1  0  0  0  0
  4  6  1  0  0  0  0
  5  4  1  0  0  0  0
  7  8  1  0  0  0  0
  7  4  1  0  0  0  0
  8 13  1  0  0  0  0
  9 14  1  0  0  0  0
  9  8  2  0  0  0  0
 10  9  1  0  0  0  0
 11 10  2  0  0  0  0
 11 12  1  0  0  0  0
 12  7  2  0  0  0  0
 15 11  1  0  0  0  0
 16 18  1  0  0  0  0
 18 17  2  6  0  0  0
 18 21  1  0  0  0  0
 18 19  1  0  0  0  0
 19 20  1  0  0  0  0
 22 21  1  0  0  0  0
 22 23  2  0  0  0  0
 23 24  1  0  0  0  0
 25 23  1  0  0  0  0
 26 28  2  0  0  0  0
 26 25  1  0  0  0  0
 27 26  1  0  0  0  0
 28 22  1  0  0  0  0
M  END
>  <minimizedAffinity>
-3.85747337

$$$$
