
     RDKit          3D

 28 29  0  0  0  0  0  0  0  0999 V2000
   37.7201   30.5166   50.8286 C   0  0  0  0  0  0  0  0  0  0  0  0
   38.1077   31.2105   49.6121 C   0  0  0  0  0  0  0  0  0  0  0  0
   38.5506   32.5162   49.6021 C   0  0  0  0  0  0  0  0  0  0  0  0
   38.9025   33.1007   48.3761 C   0  0  0  0  0  0  0  0  0  0  0  0
   38.7832   32.3282   47.2463 N   0  0  0  0  0  0  0  0  0  0  0  0
   38.3434   31.0459   47.2943 C   0  0  0  0  0  0  0  0  0  0  0  0
   38.0084   30.5027   48.4977 N   0  0  0  0  0  0  0  0  0  0  0  0
   36.9533   29.2545   50.6178 C   0  0  0  0  0  0  0  0  0  0  0  0
   35.7044   29.3978   51.2318 O   0  0  0  0  0  0  0  0  0  0  0  0
   34.6817   30.5497   49.1355 O   0  0  0  0  0  0  0  0  0  0  0  0
   34.4575   29.3767   50.1033 P   0  0  2  0  0  0  0  0  0  0  0  0
   32.9695   29.6615   50.8162 O   0  0  0  0  0  0  0  0  0  0  0  0
   34.3968   27.9231   49.2771 O   0  0  0  0  0  0  0  0  0  0  0  0
   37.2200   31.1967   51.5593 H   0  0  0  0  0  0  0  0  0  0  0  0
   38.6798   30.2202   51.3453 H   0  0  0  0  0  0  0  0  0  0  0  0
   38.6288   33.0871   50.5163 H   0  0  0  0  0  0  0  0  0  0  0  0
   39.2568   34.1231   48.3090 H   0  0  0  0  0  0  0  0  0  0  0  0
   38.2714   30.4868   46.3625 H   0  0  0  0  0  0  0  0  0  0  0  0
   37.4831   28.3442   50.9691 H   0  0  0  0  0  0  0  0  0  0  0  0
   36.7646   29.1081   49.5223 H   0  0  0  0  0  0  0  0  0  0  0  0
   32.8123   29.1902   51.6538 H   0  0  0  0  0  0  0  0  0  0  0  0
   33.4344   27.7484   48.2608 C   0  0  0  0  0  0  0  0  0  0  0  0
   32.6102   26.5899   48.0776 C   0  0  0  0  0  0  0  0  0  0  0  0
   32.6976   25.8088   48.7131 H   0  0  0  0  0  0  0  0  0  0  0  0
   31.6626   27.0797   46.6261 S   0  0  0  0  0  0  0  0  0  0  0  0
   32.5392   28.7830   46.4998 C   0  0  0  0  0  0  0  0  0  0  0  0
   32.3295   29.5650   45.7197 H   0  0  0  0  0  0  0  0  0  0  0  0
   33.4410   28.8436   47.5223 N   0  0  0  0  0  0  0  0  0  0  0  0
  2  1  1  0
  3  2  2  0
  4  3  1  0
  5  6  1  0
  5  4  2  0
  6  7  2  0
  7  2  1  0
  8  1  1  0
  8  9  1  0
 10 11  2  0
 11 12  1  1
 11  9  1  0
 13 11  1  0
  1 14  1  0
  1 15  1  0
  3 16  1  0
  4 17  1  0
  6 18  1  0
  8 19  1  0
  8 20  1  0
 12 21  1  0
 22 23  2  0
 23 24  1  0
 23 25  1  0
 25 26  1  0
 26 27  1  0
 26 28  2  0
 28 22  1  0
 13 22  1  0
M  ISO  8  14   8  15   8  16  14  17  14  18  14  19   8  20   8  21   3
M  ISO  2  24  15  27  16
M  END
>  <DihAtoms>  (1) 
10,12,21,22

>  <DihDeg>  (1) 
-0.0018053949242000933

$$$$
