
     RDKit          3D

 38 41  0  0  0  0  0  0  0  0999 V2000
   33.5476   29.8730   46.4992 N   0  0  0  0  0  0  0  0  0  0  0  0
   34.7802   29.7862   45.7287 C   0  0  0  0  0  0  0  0  0  0  0  0
   35.8378   30.1048   46.7441 C   0  0  0  0  0  0  0  0  0  0  0  0
   35.0367   30.5472   48.0486 C   0  0  1  0  0  0  0  0  0  0  0  0
   33.8673   29.6724   47.9297 C   0  0  0  0  0  0  0  0  0  0  0  0
   32.2523   30.1142   46.0114 C   0  0  0  0  0  0  0  0  0  0  0  0
   32.1110   31.2433   45.1902 C   0  0  0  0  0  0  0  0  0  0  0  0
   30.8452   31.5534   44.6664 C   0  0  0  0  0  0  0  0  0  0  0  0
   29.8130   30.7003   45.0097 N   0  0  0  0  0  0  0  0  0  0  0  0
   29.9955   29.6255   45.8030 C   0  0  0  0  0  0  0  0  0  0  0  0
   31.2130   29.3453   46.2944 N   0  0  0  0  0  0  0  0  0  0  0  0
   37.3659   32.0999   48.4753 F   0  0  0  0  0  0  0  0  0  0  0  0
   36.9761   31.1521   49.3426 C   0  0  0  0  0  0  0  0  0  0  0  0
   35.8983   30.3169   49.2091 C   0  0  0  0  0  0  0  0  0  0  0  0
   35.6539   29.3897   50.2348 C   0  0  0  0  0  0  0  0  0  0  0  0
   36.4500   29.2992   51.3501 C   0  0  0  0  0  0  0  0  0  0  0  0
   37.5442   30.1689   51.4533 C   0  0  0  0  0  0  0  0  0  0  0  0
   37.8062   31.1066   50.4295 C   0  0  0  0  0  0  0  0  0  0  0  0
   34.7986   30.5993   44.9809 H   0  0  0  0  0  0  0  0  0  0  0  0
   34.9634   28.7966   45.2912 H   0  0  0  0  0  0  0  0  0  0  0  0
   36.4092   29.2344   47.0928 H   0  0  0  0  0  0  0  0  0  0  0  0
   36.4961   30.9373   46.5087 H   0  0  0  0  0  0  0  0  0  0  0  0
   34.8864   31.6060   47.8072 H   0  0  0  0  0  0  0  0  0  0  0  0
   34.1798   28.6061   48.0697 H   0  0  0  0  0  0  0  0  0  0  0  0
   33.0015   29.9279   48.5456 H   0  0  0  0  0  0  0  0  0  0  0  0
   32.8761   31.9206   44.9042 H   0  0  0  0  0  0  0  0  0  0  0  0
   30.6901   32.4079   44.0333 H   0  0  0  0  0  0  0  0  0  0  0  0
   29.1675   28.9894   46.0448 H   0  0  0  0  0  0  0  0  0  0  0  0
   34.7870   28.7744   50.0432 H   0  0  0  0  0  0  0  0  0  0  0  0
   36.2056   28.5748   52.0891 H   0  0  0  0  0  0  0  0  0  0  0  0
   38.0971   30.0119   52.3586 H   0  0  0  0  0  0  0  0  0  0  0  0
   38.9624   31.9680   50.6735 C   0  0  0  0  0  0  0  0  0  0  0  0
   39.7863   31.6920   51.8765 C   0  0  0  0  0  0  0  0  0  0  0  0
   39.8322   31.0658   52.6457 H   0  0  0  0  0  0  0  0  0  0  0  0
   41.0431   32.9207   51.8417 S   0  0  0  0  0  0  0  0  0  0  0  0
   40.3541   33.6823   50.2351 C   0  0  0  0  0  0  0  0  0  0  0  0
   40.4531   34.5750   49.3308 H   0  0  0  0  0  0  0  0  0  0  0  0
   39.2143   32.9545   49.8289 N   0  0  0  0  0  0  0  0  0  0  0  0
  1  5  1  0
  2  1  1  0
  2  3  1  0
  3  4  1  0
  4 14  1  0
  5  4  1  0
  6 11  1  0
  6  1  1  0
  7  6  2  0
  8  9  2  0
  8  7  1  0
  9 10  1  0
 10 11  2  0
 12 13  1  0
 13 18  2  0
 14 13  1  0
 14 15  2  0
 15 16  1  0
 16 17  2  0
 18 17  1  0
  2 19  1  0
  2 20  1  0
  3 21  1  0
  3 22  1  0
  4 23  1  6
  5 24  1  0
  5 25  1  0
  7 26  1  0
  8 27  1  0
 10 28  1  0
 15 29  1  0
 16 30  1  0
 17 31  1  0
 32 33  2  0
 33 34  1  0
 33 35  1  0
 35 36  1  0
 36 37  1  0
 36 38  2  0
 38 32  1  0
 18 32  1  0
M  ISO  8  19  13  20  13  21  13  22  13  23  13  24  13  25  13  26  14
M  ISO  7  27  14  28  14  29  14  30  14  31  14  34  15  37  16
M  END
>  <DihAtoms>  (1) 
12,17,31,32

>  <DihDeg>  (1) 
-10.99258043388964

$$$$
