
 OpenBabel03272507533D

 30 32  0  0  0  0  0  0  0  0999 V2000
   38.2110   23.5720   34.7270 N   0  0  0  0  0  0  0  0  0  0  0  0
   38.6030   24.5450   33.9120 C   0  0  0  0  0  0  0  0  0  0  0  0
   38.3620   24.4370   32.5410 C   0  0  0  0  0  0  0  0  0  0  0  0
   37.7230   23.3010   32.1570 C   0  0  0  0  0  0  0  0  0  0  0  0
   37.5080   23.2150   30.9090 O   0  0  0  0  0  0  0  0  0  0  0  0
   37.3150   22.3070   32.9380 N   0  0  0  0  0  0  0  0  0  0  0  0
   37.5710   22.4550   34.2610 C   0  0  0  0  0  0  0  0  0  0  0  0
   37.1870   21.5100   35.0250 O   0  0  0  0  0  0  0  0  0  0  0  0
   39.1080   25.4160   34.3160 H   0  0  0  0  0  0  0  0  0  0  0  0
   38.6700   25.2120   31.8630 H   0  0  0  0  0  0  0  0  0  0  0  0
   39.5160   22.8720   36.6530 C   0  0  0  0  0  0  0  0  0  0  0  0
   38.4260   23.6050   36.1470 C   0  0  0  0  0  0  0  0  0  0  0  0
   37.6150   24.3170   37.0380 C   0  0  0  0  0  0  0  0  0  0  0  0
   37.9230   24.2630   38.3580 N   0  0  0  0  0  0  0  0  0  0  0  0
   38.9470   23.5720   38.8320 C   0  0  0  0  0  0  0  0  0  0  0  0
   39.7340   22.8850   37.9870 N   0  0  0  0  0  0  0  0  0  0  0  0
   36.7800   24.8740   36.6140 H   0  0  0  0  0  0  0  0  0  0  0  0
   39.1810   23.5380   39.8860 H   0  0  0  0  0  0  0  0  0  0  0  0
   41.5870   22.5000   35.1150 C   0  0  0  0  0  0  0  0  0  0  0  0
   42.0560   23.6580   35.1590 O   0  0  0  0  0  0  0  0  0  0  0  0
   40.4030   22.1300   35.8440 N   0  0  0  0  0  0  0  0  0  0  0  0
   42.1300   21.8050   34.4960 H   0  0  0  0  0  0  0  0  0  0  0  0
   40.2090   21.0940   35.7170 H   0  0  0  0  0  0  0  0  0  0  0  0
   36.6410   21.1330   32.4450 C   0  0  0  0  0  0  0  0  0  0  0  0
   37.3110   19.9480   31.9920 C   0  0  0  0  0  0  0  0  0  0  0  0
   38.3680   19.8850   32.0030 H   0  0  0  0  0  0  0  0  0  0  0  0
   35.9600   18.9100   31.5280 S   0  0  0  0  0  0  0  0  0  0  0  0
   34.6500   20.2160   32.0070 C   0  0  0  0  0  0  0  0  0  0  0  0
   33.5780   20.0680   31.9110 H   0  0  0  0  0  0  0  0  0  0  0  0
   35.3210   21.1280   32.3960 N   0  0  0  0  0  0  0  0  0  0  0  0
  1 12  1  0  0  0  0
  2  9  1  0  0  0  0
  2  1  1  0  0  0  0
  3  2  2  0  0  0  0
  4  3  1  0  0  0  0
  4  6  1  0  0  0  0
  5  4  2  0  0  0  0
  6  7  1  0  0  0  0
  7  1  1  0  0  0  0
  7  8  2  0  0  0  0
 10  3  1  0  0  0  0
 11 16  1  0  0  0  0
 12 11  2  0  0  0  0
 12 13  1  0  0  0  0
 13 14  2  0  0  0  0
 14 15  1  0  0  0  0
 15 18  1  0  0  0  0
 16 15  2  0  0  0  0
 17 13  1  0  0  0  0
 19 20  2  0  0  0  0
 19 21  1  0  0  0  0
 21 11  1  0  0  0  0
 22 19  1  0  0  0  0
 23 21  1  0  0  0  0
 24  6  1  0  0  0  0
 25 26  1  0  0  0  0
 25 24  2  0  0  0  0
 27 25  1  0  0  0  0
 27 28  1  0  0  0  0
 28 30  2  0  0  0  0
 29 28  1  0  0  0  0
 30 24  1  0  0  0  0
M  END
>  <minimizedAffinity>
-4.89672136

$$$$

 OpenBabel03272507533D

 30 32  0  0  0  0  0  0  0  0999 V2000
   36.1170   26.4540   31.7090 N   0  0  0  0  0  0  0  0  0  0  0  0
   35.4380   25.5200   31.0520 C   0  0  0  0  0  0  0  0  0  0  0  0
   35.7190   24.1720   31.2800 C   0  0  0  0  0  0  0  0  0  0  0  0
   36.7000   23.9350   32.1910 C   0  0  0  0  0  0  0  0  0  0  0  0
   36.9460   22.7050   32.3900 O   0  0  0  0  0  0  0  0  0  0  0  0
   37.4010   24.8370   32.8680 N   0  0  0  0  0  0  0  0  0  0  0  0
   37.0950   26.1320   32.6140 C   0  0  0  0  0  0  0  0  0  0  0  0
   37.7570   27.0120   33.2550 O   0  0  0  0  0  0  0  0  0  0  0  0
   34.6710   25.8110   30.3430 H   0  0  0  0  0  0  0  0  0  0  0  0
   35.1830   23.3990   30.7600 H   0  0  0  0  0  0  0  0  0  0  0  0
   36.5660   28.4910   30.4650 C   0  0  0  0  0  0  0  0  0  0  0  0
   35.8920   27.8610   31.5270 C   0  0  0  0  0  0  0  0  0  0  0  0
   35.0510   28.6230   32.3450 C   0  0  0  0  0  0  0  0  0  0  0  0
   34.9270   29.9460   32.0690 N   0  0  0  0  0  0  0  0  0  0  0  0
   35.5620   30.5370   31.0710 C   0  0  0  0  0  0  0  0  0  0  0  0
   36.3730   29.8150   30.2770 N   0  0  0  0  0  0  0  0  0  0  0  0
   34.5440   28.1050   33.1580 H   0  0  0  0  0  0  0  0  0  0  0  0
   35.4540   31.5910   30.8620 H   0  0  0  0  0  0  0  0  0  0  0  0
   38.8450   27.5710   29.5960 C   0  0  0  0  0  0  0  0  0  0  0  0
   39.5630   27.9310   30.5530 O   0  0  0  0  0  0  0  0  0  0  0  0
   37.4270   27.8150   29.5730 N   0  0  0  0  0  0  0  0  0  0  0  0
   39.3610   27.0690   28.7940 H   0  0  0  0  0  0  0  0  0  0  0  0
   36.9990   27.3810   28.7040 H   0  0  0  0  0  0  0  0  0  0  0  0
   38.4280   24.4960   33.8190 C   0  0  0  0  0  0  0  0  0  0  0  0
   39.8110   24.3200   33.4850 C   0  0  0  0  0  0  0  0  0  0  0  0
   40.1480   24.4390   32.4880 H   0  0  0  0  0  0  0  0  0  0  0  0
   40.5260   23.9220   35.0510 S   0  0  0  0  0  0  0  0  0  0  0  0
   38.8540   24.0450   35.9670 C   0  0  0  0  0  0  0  0  0  0  0  0
   38.7290   23.8780   37.0330 H   0  0  0  0  0  0  0  0  0  0  0  0
   38.0940   24.3280   35.0870 N   0  0  0  0  0  0  0  0  0  0  0  0
  1  7  1  0  0  0  0
  2  3  2  0  0  0  0
  2  1  1  0  0  0  0
  3  4  1  0  0  0  0
  4  5  2  0  0  0  0
  4  6  1  0  0  0  0
  6 24  1  0  0  0  0
  7  6  1  0  0  0  0
  7  8  2  0  0  0  0
  9  2  1  0  0  0  0
 10  3  1  0  0  0  0
 11 12  1  0  0  0  0
 12  1  1  0  0  0  0
 12 13  2  0  0  0  0
 13 17  1  0  0  0  0
 14 13  1  0  0  0  0
 15 14  2  0  0  0  0
 16 11  2  0  0  0  0
 16 15  1  0  0  0  0
 18 15  1  0  0  0  0
 19 20  2  0  0  0  0
 21 19  1  0  0  0  0
 21 11  1  0  0  0  0
 22 19  1  0  0  0  0
 23 21  1  0  0  0  0
 24 30  1  0  0  0  0
 25 24  2  0  0  0  0
 25 27  1  0  0  0  0
 26 25  1  0  0  0  0
 27 28  1  0  0  0  0
 28 29  1  0  0  0  0
 30 28  2  0  0  0  0
M  END
>  <minimizedAffinity>
-4.86641407

$$$$

 OpenBabel03272507533D

 30 32  0  0  0  0  0  0  0  0999 V2000
   38.6810   22.5520   33.9810 N   0  0  0  0  0  0  0  0  0  0  0  0
   37.8250   21.6420   33.5290 C   0  0  0  0  0  0  0  0  0  0  0  0
   36.8150   22.0240   32.6440 C   0  0  0  0  0  0  0  0  0  0  0  0
   36.8040   23.3440   32.3180 C   0  0  0  0  0  0  0  0  0  0  0  0
   35.8810   23.6780   31.5120 O   0  0  0  0  0  0  0  0  0  0  0  0
   37.6400   24.2820   32.7470 N   0  0  0  0  0  0  0  0  0  0  0  0
   38.6040   23.8660   33.6040 C   0  0  0  0  0  0  0  0  0  0  0  0
   39.4150   24.7540   34.0260 O   0  0  0  0  0  0  0  0  0  0  0  0
   37.9160   20.6100   33.8490 H   0  0  0  0  0  0  0  0  0  0  0  0
   36.1100   21.3060   32.2650 H   0  0  0  0  0  0  0  0  0  0  0  0
   39.4400   22.2590   36.2700 C   0  0  0  0  0  0  0  0  0  0  0  0
   39.7440   22.2400   34.8960 C   0  0  0  0  0  0  0  0  0  0  0  0
   41.0470   21.9270   34.4940 C   0  0  0  0  0  0  0  0  0  0  0  0
   41.9610   21.6560   35.4590 N   0  0  0  0  0  0  0  0  0  0  0  0
   41.6740   21.6760   36.7500 C   0  0  0  0  0  0  0  0  0  0  0  0
   40.4260   21.9740   37.1500 N   0  0  0  0  0  0  0  0  0  0  0  0
   41.2490   21.9210   33.4230 H   0  0  0  0  0  0  0  0  0  0  0  0
   42.4120   21.4580   37.5080 H   0  0  0  0  0  0  0  0  0  0  0  0
   37.5480   23.7750   37.2280 C   0  0  0  0  0  0  0  0  0  0  0  0
   38.1400   24.8730   37.1530 O   0  0  0  0  0  0  0  0  0  0  0  0
   38.1580   22.5500   36.7840 N   0  0  0  0  0  0  0  0  0  0  0  0
   36.5550   23.8120   37.6460 H   0  0  0  0  0  0  0  0  0  0  0  0
   37.4690   21.7470   36.8810 H   0  0  0  0  0  0  0  0  0  0  0  0
   37.5560   25.6640   32.3470 C   0  0  0  0  0  0  0  0  0  0  0  0
   38.2040   26.2100   31.1890 C   0  0  0  0  0  0  0  0  0  0  0  0
   38.7900   25.5970   30.5570 H   0  0  0  0  0  0  0  0  0  0  0  0
   37.7220   27.9080   31.2580 S   0  0  0  0  0  0  0  0  0  0  0  0
   36.6990   27.6650   32.8540 C   0  0  0  0  0  0  0  0  0  0  0  0
   36.1550   28.4600   33.3560 H   0  0  0  0  0  0  0  0  0  0  0  0
   36.8440   26.4990   33.0820 N   0  0  0  0  0  0  0  0  0  0  0  0
  1 12  1  0  0  0  0
  2  9  1  0  0  0  0
  2  1  1  0  0  0  0
  3  2  2  0  0  0  0
  4  3  1  0  0  0  0
  4  6  1  0  0  0  0
  5  4  2  0  0  0  0
  6  7  1  0  0  0  0
  7  1  1  0  0  0  0
  7  8  2  0  0  0  0
 10  3  1  0  0  0  0
 11 21  1  0  0  0  0
 11 16  1  0  0  0  0
 12 11  2  0  0  0  0
 13 12  1  0  0  0  0
 13 14  2  0  0  0  0
 14 15  1  0  0  0  0
 15 16  2  0  0  0  0
 15 18  1  0  0  0  0
 17 13  1  0  0  0  0
 19 22  1  0  0  0  0
 20 19  2  0  0  0  0
 21 23  1  0  0  0  0
 21 19  1  0  0  0  0
 24  6  1  0  0  0  0
 24 30  1  0  0  0  0
 25 27  1  0  0  0  0
 25 24  2  0  0  0  0
 26 25  1  0  0  0  0
 27 28  1  0  0  0  0
 28 30  2  0  0  0  0
 28 29  1  0  0  0  0
M  END
>  <minimizedAffinity>
-4.85697031

$$$$

 OpenBabel03272507533D

 30 32  0  0  0  0  0  0  0  0999 V2000
   39.1010   23.7820   34.3900 N   0  0  0  0  0  0  0  0  0  0  0  0
   38.7220   25.0450   34.2260 C   0  0  0  0  0  0  0  0  0  0  0  0
   37.6750   25.3450   33.3530 C   0  0  0  0  0  0  0  0  0  0  0  0
   37.1210   24.2710   32.7300 C   0  0  0  0  0  0  0  0  0  0  0  0
   36.1690   24.5570   31.9390 O   0  0  0  0  0  0  0  0  0  0  0  0
   37.4690   22.9970   32.8660 N   0  0  0  0  0  0  0  0  0  0  0  0
   38.4900   22.7540   33.7230 C   0  0  0  0  0  0  0  0  0  0  0  0
   38.8380   21.5360   33.8660 O   0  0  0  0  0  0  0  0  0  0  0  0
   39.2290   25.8350   34.7710 H   0  0  0  0  0  0  0  0  0  0  0  0
   37.3510   26.3590   33.2040 H   0  0  0  0  0  0  0  0  0  0  0  0
   39.8190   22.8690   36.5230 C   0  0  0  0  0  0  0  0  0  0  0  0
   40.1710   23.3930   35.2650 C   0  0  0  0  0  0  0  0  0  0  0  0
   41.5250   23.5110   34.9340 C   0  0  0  0  0  0  0  0  0  0  0  0
   42.4400   23.1100   35.8520 N   0  0  0  0  0  0  0  0  0  0  0  0
   42.1080   22.6190   37.0350 C   0  0  0  0  0  0  0  0  0  0  0  0
   40.8100   22.5000   37.3650 N   0  0  0  0  0  0  0  0  0  0  0  0
   41.7640   23.9200   33.9530 H   0  0  0  0  0  0  0  0  0  0  0  0
   42.8470   22.3040   37.7570 H   0  0  0  0  0  0  0  0  0  0  0  0
   37.6520   23.4520   37.8500 C   0  0  0  0  0  0  0  0  0  0  0  0
   38.0440   24.5140   38.3790 O   0  0  0  0  0  0  0  0  0  0  0  0
   38.4860   22.6950   36.9540 N   0  0  0  0  0  0  0  0  0  0  0  0
   36.6520   23.1470   38.1110 H   0  0  0  0  0  0  0  0  0  0  0  0
   37.9460   21.8640   36.5720 H   0  0  0  0  0  0  0  0  0  0  0  0
   36.8240   21.9170   32.1630 C   0  0  0  0  0  0  0  0  0  0  0  0
   37.3100   21.3460   30.9400 C   0  0  0  0  0  0  0  0  0  0  0  0
   38.1960   21.7070   30.4880 H   0  0  0  0  0  0  0  0  0  0  0  0
   36.1020   20.1010   30.6050 S   0  0  0  0  0  0  0  0  0  0  0  0
   35.0860   20.5120   32.1690 C   0  0  0  0  0  0  0  0  0  0  0  0
   34.1730   19.9980   32.4550 H   0  0  0  0  0  0  0  0  0  0  0  0
   35.7110   21.4070   32.6590 N   0  0  0  0  0  0  0  0  0  0  0  0
  1 12  1  0  0  0  0
  2  1  1  0  0  0  0
  2  9  1  0  0  0  0
  3  2  2  0  0  0  0
  4  6  1  0  0  0  0
  4  3  1  0  0  0  0
  5  4  2  0  0  0  0
  6  7  1  0  0  0  0
  7  8  2  0  0  0  0
  7  1  1  0  0  0  0
 10  3  1  0  0  0  0
 11 21  1  0  0  0  0
 11 16  1  0  0  0  0
 12 11  2  0  0  0  0
 13 12  1  0  0  0  0
 13 14  2  0  0  0  0
 14 15  1  0  0  0  0
 15 16  2  0  0  0  0
 15 18  1  0  0  0  0
 17 13  1  0  0  0  0
 19 22  1  0  0  0  0
 19 20  2  0  0  0  0
 21 19  1  0  0  0  0
 23 21  1  0  0  0  0
 24 30  1  0  0  0  0
 24  6  1  0  0  0  0
 25 24  2  0  0  0  0
 26 25  1  0  0  0  0
 27 25  1  0  0  0  0
 27 28  1  0  0  0  0
 28 29  1  0  0  0  0
 28 30  2  0  0  0  0
M  END
>  <minimizedAffinity>
-4.77044916

$$$$

 OpenBabel03272507533D

 30 32  0  0  0  0  0  0  0  0999 V2000
   35.4980   30.0270   33.2750 N   0  0  0  0  0  0  0  0  0  0  0  0
   35.3590   30.6350   32.1020 C   0  0  0  0  0  0  0  0  0  0  0  0
   35.8440   30.0230   30.9450 C   0  0  0  0  0  0  0  0  0  0  0  0
   36.4370   28.8150   31.1380 C   0  0  0  0  0  0  0  0  0  0  0  0
   36.8740   28.2690   30.0780 O   0  0  0  0  0  0  0  0  0  0  0  0
   36.5960   28.1760   32.2910 N   0  0  0  0  0  0  0  0  0  0  0  0
   36.1100   28.8060   33.3870 C   0  0  0  0  0  0  0  0  0  0  0  0
   36.2530   28.2060   34.5020 O   0  0  0  0  0  0  0  0  0  0  0  0
   34.8690   31.6010   32.0510 H   0  0  0  0  0  0  0  0  0  0  0  0
   35.7430   30.4960   29.9850 H   0  0  0  0  0  0  0  0  0  0  0  0
   33.7060   30.3020   34.8930 C   0  0  0  0  0  0  0  0  0  0  0  0
   35.0300   30.5910   34.5110 C   0  0  0  0  0  0  0  0  0  0  0  0
   35.8130   31.4040   35.3370 C   0  0  0  0  0  0  0  0  0  0  0  0
   35.2500   31.8780   36.4770 N   0  0  0  0  0  0  0  0  0  0  0  0
   34.0060   31.6070   36.8340 C   0  0  0  0  0  0  0  0  0  0  0  0
   33.2430   30.8270   36.0490 N   0  0  0  0  0  0  0  0  0  0  0  0
   36.8330   31.6080   35.0130 H   0  0  0  0  0  0  0  0  0  0  0  0
   33.5710   31.9920   37.7450 H   0  0  0  0  0  0  0  0  0  0  0  0
   31.8960   29.7810   33.0910 C   0  0  0  0  0  0  0  0  0  0  0  0
   31.7620   30.9340   32.6290 O   0  0  0  0  0  0  0  0  0  0  0  0
   32.8350   29.4850   34.1410 N   0  0  0  0  0  0  0  0  0  0  0  0
   31.2630   29.0290   32.6490 H   0  0  0  0  0  0  0  0  0  0  0  0
   32.8330   28.4430   34.3450 H   0  0  0  0  0  0  0  0  0  0  0  0
   37.2390   26.8910   32.4050 C   0  0  0  0  0  0  0  0  0  0  0  0
   38.6370   26.7090   32.6710 C   0  0  0  0  0  0  0  0  0  0  0  0
   39.2770   27.5420   32.8000 H   0  0  0  0  0  0  0  0  0  0  0  0
   38.7880   24.9490   32.6860 S   0  0  0  0  0  0  0  0  0  0  0  0
   36.9310   24.6790   32.3290 C   0  0  0  0  0  0  0  0  0  0  0  0
   36.4650   23.7020   32.2320 H   0  0  0  0  0  0  0  0  0  0  0  0
   36.5130   25.7970   32.2570 N   0  0  0  0  0  0  0  0  0  0  0  0
  1  7  1  0  0  0  0
  1 12  1  0  0  0  0
  2  1  1  0  0  0  0
  3  4  1  0  0  0  0
  3  2  2  0  0  0  0
  4  6  1  0  0  0  0
  5  4  2  0  0  0  0
  6 24  1  0  0  0  0
  6  7  1  0  0  0  0
  7  8  2  0  0  0  0
  9  2  1  0  0  0  0
 10  3  1  0  0  0  0
 11 16  1  0  0  0  0
 12 11  2  0  0  0  0
 12 13  1  0  0  0  0
 13 14  2  0  0  0  0
 14 15  1  0  0  0  0
 15 18  1  0  0  0  0
 16 15  2  0  0  0  0
 17 13  1  0  0  0  0
 19 21  1  0  0  0  0
 20 19  2  0  0  0  0
 21 23  1  0  0  0  0
 21 11  1  0  0  0  0
 22 19  1  0  0  0  0
 24 25  2  0  0  0  0
 25 27  1  0  0  0  0
 25 26  1  0  0  0  0
 28 27  1  0  0  0  0
 29 28  1  0  0  0  0
 30 28  2  0  0  0  0
 30 24  1  0  0  0  0
M  END
>  <minimizedAffinity>
-4.70490694

$$$$

 OpenBabel03272507533D

 30 32  0  0  0  0  0  0  0  0999 V2000
   37.8950   23.0180   34.7050 N   0  0  0  0  0  0  0  0  0  0  0  0
   37.5440   21.8790   34.1180 C   0  0  0  0  0  0  0  0  0  0  0  0
   37.1850   21.8800   32.7690 C   0  0  0  0  0  0  0  0  0  0  0  0
   37.2310   23.0950   32.1620 C   0  0  0  0  0  0  0  0  0  0  0  0
   36.9030   23.0820   30.9350 O   0  0  0  0  0  0  0  0  0  0  0  0
   37.5750   24.2530   32.7120 N   0  0  0  0  0  0  0  0  0  0  0  0
   37.9160   24.2050   34.0220 C   0  0  0  0  0  0  0  0  0  0  0  0
   38.2490   25.3080   34.5670 O   0  0  0  0  0  0  0  0  0  0  0  0
   37.5380   20.9580   34.6900 H   0  0  0  0  0  0  0  0  0  0  0  0
   36.8970   20.9710   32.2730 H   0  0  0  0  0  0  0  0  0  0  0  0
   39.6150   22.8250   36.4100 C   0  0  0  0  0  0  0  0  0  0  0  0
   38.2720   23.1020   36.0890 C   0  0  0  0  0  0  0  0  0  0  0  0
   37.3840   23.4370   37.1160 C   0  0  0  0  0  0  0  0  0  0  0  0
   37.8660   23.4780   38.3830 N   0  0  0  0  0  0  0  0  0  0  0  0
   39.1280   23.2160   38.6840 C   0  0  0  0  0  0  0  0  0  0  0  0
   39.9920   22.8940   37.7060 N   0  0  0  0  0  0  0  0  0  0  0  0
   36.3530   23.6460   36.8330 H   0  0  0  0  0  0  0  0  0  0  0  0
   39.4980   23.2520   39.6980 H   0  0  0  0  0  0  0  0  0  0  0  0
   41.5230   23.2900   34.6960 C   0  0  0  0  0  0  0  0  0  0  0  0
   41.6150   24.5260   34.8570 O   0  0  0  0  0  0  0  0  0  0  0  0
   40.5960   22.4900   35.4520 N   0  0  0  0  0  0  0  0  0  0  0  0
   42.1850   22.8690   33.9560 H   0  0  0  0  0  0  0  0  0  0  0  0
   40.7180   21.4640   35.2060 H   0  0  0  0  0  0  0  0  0  0  0  0
   37.5970   25.5010   31.9900 C   0  0  0  0  0  0  0  0  0  0  0  0
   38.7500   26.0220   31.3160 C   0  0  0  0  0  0  0  0  0  0  0  0
   39.6660   25.4920   31.3190 H   0  0  0  0  0  0  0  0  0  0  0  0
   38.1370   27.5390   30.6480 S   0  0  0  0  0  0  0  0  0  0  0  0
   36.3880   27.2750   31.3700 C   0  0  0  0  0  0  0  0  0  0  0  0
   35.5640   27.9720   31.2420 H   0  0  0  0  0  0  0  0  0  0  0  0
   36.4940   26.2260   31.9360 N   0  0  0  0  0  0  0  0  0  0  0  0
  1 12  1  0  0  0  0
  2  9  1  0  0  0  0
  2  1  1  0  0  0  0
  3  2  2  0  0  0  0
  4  6  1  0  0  0  0
  4  3  1  0  0  0  0
  5  4  2  0  0  0  0
  6  7  1  0  0  0  0
  7  8  2  0  0  0  0
  7  1  1  0  0  0  0
 10  3  1  0  0  0  0
 11 16  1  0  0  0  0
 12 11  2  0  0  0  0
 12 13  1  0  0  0  0
 13 14  2  0  0  0  0
 14 15  1  0  0  0  0
 15 18  1  0  0  0  0
 16 15  2  0  0  0  0
 17 13  1  0  0  0  0
 19 20  2  0  0  0  0
 19 21  1  0  0  0  0
 21 11  1  0  0  0  0
 22 19  1  0  0  0  0
 23 21  1  0  0  0  0
 24  6  1  0  0  0  0
 25 26  1  0  0  0  0
 25 24  2  0  0  0  0
 27 25  1  0  0  0  0
 27 28  1  0  0  0  0
 28 30  2  0  0  0  0
 29 28  1  0  0  0  0
 30 24  1  0  0  0  0
M  END
>  <minimizedAffinity>
-4.64967346

$$$$

 OpenBabel03272507533D

 30 32  0  0  0  0  0  0  0  0999 V2000
   38.4470   24.4900   35.3480 N   0  0  0  0  0  0  0  0  0  0  0  0
   37.7850   24.0310   36.4050 C   0  0  0  0  0  0  0  0  0  0  0  0
   38.4460   23.2290   37.3380 C   0  0  0  0  0  0  0  0  0  0  0  0
   39.7550   22.9860   37.0640 C   0  0  0  0  0  0  0  0  0  0  0  0
   40.3440   22.2570   37.9200 O   0  0  0  0  0  0  0  0  0  0  0  0
   40.4500   23.4260   36.0220 N   0  0  0  0  0  0  0  0  0  0  0  0
   39.7690   24.2000   35.1430 C   0  0  0  0  0  0  0  0  0  0  0  0
   40.4210   24.6300   34.1360 O   0  0  0  0  0  0  0  0  0  0  0  0
   36.7380   24.2810   36.5360 H   0  0  0  0  0  0  0  0  0  0  0  0
   37.9320   22.8460   38.2000 H   0  0  0  0  0  0  0  0  0  0  0  0
   37.4930   24.7010   33.1240 C   0  0  0  0  0  0  0  0  0  0  0  0
   37.8390   25.3160   34.3420 C   0  0  0  0  0  0  0  0  0  0  0  0
   37.5810   26.6810   34.5110 C   0  0  0  0  0  0  0  0  0  0  0  0
   37.0050   27.3490   33.4800 N   0  0  0  0  0  0  0  0  0  0  0  0
   36.6830   26.7700   32.3350 C   0  0  0  0  0  0  0  0  0  0  0  0
   36.9240   25.4590   32.1610 N   0  0  0  0  0  0  0  0  0  0  0  0
   37.8600   27.1250   35.4650 H   0  0  0  0  0  0  0  0  0  0  0  0
   36.2250   27.3150   31.5230 H   0  0  0  0  0  0  0  0  0  0  0  0
   36.7970   22.2750   32.4720 C   0  0  0  0  0  0  0  0  0  0  0  0
   35.5840   22.4850   32.2600 O   0  0  0  0  0  0  0  0  0  0  0  0
   37.6980   23.3310   32.8530 N   0  0  0  0  0  0  0  0  0  0  0  0
   37.1180   21.2530   32.3490 H   0  0  0  0  0  0  0  0  0  0  0  0
   38.6880   22.9530   32.9270 H   0  0  0  0  0  0  0  0  0  0  0  0
   41.8420   23.1190   35.8090 C   0  0  0  0  0  0  0  0  0  0  0  0
   42.3140   22.0110   35.0290 C   0  0  0  0  0  0  0  0  0  0  0  0
   41.6340   21.3500   34.5590 H   0  0  0  0  0  0  0  0  0  0  0  0
   44.0680   22.1860   35.1570 S   0  0  0  0  0  0  0  0  0  0  0  0
   43.9410   23.7430   36.2560 C   0  0  0  0  0  0  0  0  0  0  0  0
   44.7980   24.2870   36.6430 H   0  0  0  0  0  0  0  0  0  0  0  0
   42.7590   23.8950   36.3600 N   0  0  0  0  0  0  0  0  0  0  0  0
  1  2  1  0  0  0  0
  2  9  1  0  0  0  0
  2  3  2  0  0  0  0
  3 10  1  0  0  0  0
  4  3  1  0  0  0  0
  4  5  2  0  0  0  0
  6  4  1  0  0  0  0
  7  1  1  0  0  0  0
  7  6  1  0  0  0  0
  8  7  2  0  0  0  0
 11 12  1  0  0  0  0
 12 13  2  0  0  0  0
 12  1  1  0  0  0  0
 13 17  1  0  0  0  0
 14 13  1  0  0  0  0
 15 14  2  0  0  0  0
 16 15  1  0  0  0  0
 16 11  2  0  0  0  0
 18 15  1  0  0  0  0
 19 21  1  0  0  0  0
 20 19  2  0  0  0  0
 21 23  1  0  0  0  0
 21 11  1  0  0  0  0
 22 19  1  0  0  0  0
 24  6  1  0  0  0  0
 24 30  1  0  0  0  0
 25 27  1  0  0  0  0
 25 24  2  0  0  0  0
 26 25  1  0  0  0  0
 27 28  1  0  0  0  0
 28 30  2  0  0  0  0
 28 29  1  0  0  0  0
M  END
>  <minimizedAffinity>
-4.56759453

$$$$

 OpenBabel03272507533D

 30 32  0  0  0  0  0  0  0  0999 V2000
   36.3020   28.5730   32.0180 N   0  0  0  0  0  0  0  0  0  0  0  0
   36.7070   29.3250   31.0000 C   0  0  0  0  0  0  0  0  0  0  0  0
   36.6240   30.7150   31.0920 C   0  0  0  0  0  0  0  0  0  0  0  0
   36.1160   31.1850   32.2620 C   0  0  0  0  0  0  0  0  0  0  0  0
   36.0460   32.4510   32.3340 O   0  0  0  0  0  0  0  0  0  0  0  0
   35.7010   30.4690   33.3000 N   0  0  0  0  0  0  0  0  0  0  0  0
   35.8000   29.1240   33.1670 C   0  0  0  0  0  0  0  0  0  0  0  0
   35.4060   28.4210   34.1540 O   0  0  0  0  0  0  0  0  0  0  0  0
   37.1000   28.8540   30.1050 H   0  0  0  0  0  0  0  0  0  0  0  0
   36.9450   31.3440   30.2820 H   0  0  0  0  0  0  0  0  0  0  0  0
   37.3810   26.5170   32.7310 C   0  0  0  0  0  0  0  0  0  0  0  0
   36.3510   27.1380   31.9990 C   0  0  0  0  0  0  0  0  0  0  0  0
   35.4410   26.3400   31.2970 C   0  0  0  0  0  0  0  0  0  0  0  0
   35.5990   24.9940   31.3580 N   0  0  0  0  0  0  0  0  0  0  0  0
   36.5680   24.4120   32.0450 C   0  0  0  0  0  0  0  0  0  0  0  0
   37.4490   25.1670   32.7240 N   0  0  0  0  0  0  0  0  0  0  0  0
   34.6560   26.8520   30.7420 H   0  0  0  0  0  0  0  0  0  0  0  0
   36.6820   23.3380   32.0840 H   0  0  0  0  0  0  0  0  0  0  0  0
   38.6010   27.3010   34.8970 C   0  0  0  0  0  0  0  0  0  0  0  0
   37.9540   26.6250   35.7250 O   0  0  0  0  0  0  0  0  0  0  0  0
   38.3430   27.2240   33.4830 N   0  0  0  0  0  0  0  0  0  0  0  0
   39.3620   27.9400   35.3150 H   0  0  0  0  0  0  0  0  0  0  0  0
   39.0370   27.8300   32.9550 H   0  0  0  0  0  0  0  0  0  0  0  0
   35.1740   31.0520   34.5090 C   0  0  0  0  0  0  0  0  0  0  0  0
   35.9660   31.3820   35.6580 C   0  0  0  0  0  0  0  0  0  0  0  0
   37.0100   31.2050   35.6660 H   0  0  0  0  0  0  0  0  0  0  0  0
   34.7590   32.0410   36.7660 S   0  0  0  0  0  0  0  0  0  0  0  0
   33.3260   31.7870   35.5290 C   0  0  0  0  0  0  0  0  0  0  0  0
   32.2910   32.0480   35.7320 H   0  0  0  0  0  0  0  0  0  0  0  0
   33.8790   31.3060   34.5830 N   0  0  0  0  0  0  0  0  0  0  0  0
  1  7  1  0  0  0  0
  2  3  2  0  0  0  0
  2  1  1  0  0  0  0
  3  4  1  0  0  0  0
  4  5  2  0  0  0  0
  4  6  1  0  0  0  0
  6 24  1  0  0  0  0
  7  6  1  0  0  0  0
  7  8  2  0  0  0  0
  9  2  1  0  0  0  0
 10  3  1  0  0  0  0
 11 21  1  0  0  0  0
 12  1  1  0  0  0  0
 12 11  2  0  0  0  0
 13 14  2  0  0  0  0
 13 12  1  0  0  0  0
 14 15  1  0  0  0  0
 15 18  1  0  0  0  0
 15 16  2  0  0  0  0
 16 11  1  0  0  0  0
 17 13  1  0  0  0  0
 19 22  1  0  0  0  0
 19 20  2  0  0  0  0
 21 19  1  0  0  0  0
 23 21  1  0  0  0  0
 24 30  1  0  0  0  0
 24 25  2  0  0  0  0
 25 26  1  0  0  0  0
 25 27  1  0  0  0  0
 28 29  1  0  0  0  0
 28 27  1  0  0  0  0
 30 28  2  0  0  0  0
M  END
>  <minimizedAffinity>
-4.56704473

$$$$

 OpenBabel03272507533D

 30 32  0  0  0  0  0  0  0  0999 V2000
   34.8850   30.7490   33.5970 N   0  0  0  0  0  0  0  0  0  0  0  0
   34.8990   31.6320   32.6040 C   0  0  0  0  0  0  0  0  0  0  0  0
   35.5020   31.2960   31.3910 C   0  0  0  0  0  0  0  0  0  0  0  0
   36.0380   30.0480   31.3400 C   0  0  0  0  0  0  0  0  0  0  0  0
   36.5820   29.7560   30.2300 O   0  0  0  0  0  0  0  0  0  0  0  0
   36.0440   29.1390   32.3070 N   0  0  0  0  0  0  0  0  0  0  0  0
   35.4490   29.5080   33.4670 C   0  0  0  0  0  0  0  0  0  0  0  0
   35.4460   28.6470   34.4060 O   0  0  0  0  0  0  0  0  0  0  0  0
   34.4430   32.6060   32.7430 H   0  0  0  0  0  0  0  0  0  0  0  0
   35.5260   31.9940   30.5730 H   0  0  0  0  0  0  0  0  0  0  0  0
   35.0770   31.6990   35.8240 C   0  0  0  0  0  0  0  0  0  0  0  0
   34.2900   31.0180   34.8760 C   0  0  0  0  0  0  0  0  0  0  0  0
   32.9880   30.6390   35.2220 C   0  0  0  0  0  0  0  0  0  0  0  0
   32.5460   30.9500   36.4660 N   0  0  0  0  0  0  0  0  0  0  0  0
   33.2870   31.5890   37.3560 C   0  0  0  0  0  0  0  0  0  0  0  0
   34.5390   31.9600   37.0370 N   0  0  0  0  0  0  0  0  0  0  0  0
   32.4060   30.1140   34.4650 H   0  0  0  0  0  0  0  0  0  0  0  0
   32.9220   31.8300   38.3440 H   0  0  0  0  0  0  0  0  0  0  0  0
   36.9420   33.4290   35.2540 C   0  0  0  0  0  0  0  0  0  0  0  0
   36.2280   34.4540   35.1980 O   0  0  0  0  0  0  0  0  0  0  0  0
   36.3960   32.1380   35.5770 N   0  0  0  0  0  0  0  0  0  0  0  0
   37.9880   33.5830   35.0460 H   0  0  0  0  0  0  0  0  0  0  0  0
   37.1750   31.4180   35.6300 H   0  0  0  0  0  0  0  0  0  0  0  0
   36.6380   27.8330   32.1660 C   0  0  0  0  0  0  0  0  0  0  0  0
   38.0010   27.5270   32.4920 C   0  0  0  0  0  0  0  0  0  0  0  0
   38.6500   28.2750   32.8650 H   0  0  0  0  0  0  0  0  0  0  0  0
   38.0990   25.8060   32.1050 S   0  0  0  0  0  0  0  0  0  0  0  0
   36.2740   25.7170   31.5470 C   0  0  0  0  0  0  0  0  0  0  0  0
   35.7900   24.8130   31.1850 H   0  0  0  0  0  0  0  0  0  0  0  0
   35.8960   26.8410   31.7070 N   0  0  0  0  0  0  0  0  0  0  0  0
  1 12  1  0  0  0  0
  2  9  1  0  0  0  0
  2  1  1  0  0  0  0
  3  2  2  0  0  0  0
  4  3  1  0  0  0  0
  4  6  1  0  0  0  0
  5  4  2  0  0  0  0
  6  7  1  0  0  0  0
  7  1  1  0  0  0  0
  7  8  2  0  0  0  0
 10  3  1  0  0  0  0
 11 16  1  0  0  0  0
 12 13  1  0  0  0  0
 12 11  2  0  0  0  0
 13 14  2  0  0  0  0
 14 15  1  0  0  0  0
 15 18  1  0  0  0  0
 16 15  2  0  0  0  0
 17 13  1  0  0  0  0
 19 21  1  0  0  0  0
 20 19  2  0  0  0  0
 21 23  1  0  0  0  0
 21 11  1  0  0  0  0
 22 19  1  0  0  0  0
 24  6  1  0  0  0  0
 24 25  2  0  0  0  0
 25 26  1  0  0  0  0
 27 25  1  0  0  0  0
 28 30  2  0  0  0  0
 28 27  1  0  0  0  0
 29 28  1  0  0  0  0
 30 24  1  0  0  0  0
M  END
>  <minimizedAffinity>
-4.52814579

$$$$
