
 OpenBabel03272502013D

 40 44  0  0  0  0  0  0  0  0999 V2000
   34.5100   28.1170   48.0200 C   0  0  0  0  0  0  0  0  0  0  0  0
   34.9190   27.1270   47.7470 H   0  0  0  0  0  0  0  0  0  0  0  0
   35.0040   28.9500   47.5020 H   0  0  0  0  0  0  0  0  0  0  0  0
   33.0320   28.2130   47.7520 C   0  0  0  0  0  0  0  0  0  0  0  0
   32.0270   27.4540   48.3090 C   0  0  0  0  0  0  0  0  0  0  0  0
   30.8090   27.8700   47.7880 C   0  0  0  0  0  0  0  0  0  0  0  0
   31.1150   28.8680   46.9290 N   0  0  0  0  0  0  0  0  0  0  0  0
   32.4220   29.0650   46.9130 N   0  0  0  0  0  0  0  0  0  0  0  0
   28.7230   29.3160   46.3410 N   0  0  0  0  0  0  0  0  0  0  0  0
   30.0580   29.5050   46.2290 C   0  0  0  0  0  0  0  0  0  0  0  0
   30.2290   30.4580   45.2810 N   0  0  0  0  0  0  0  0  0  0  0  0
   29.0520   30.8620   44.8080 C   0  0  0  0  0  0  0  0  0  0  0  0
   28.7230   31.8000   43.8480 C   0  0  0  0  0  0  0  0  0  0  0  0
   27.4310   32.0170   43.5550 N   0  0  0  0  0  0  0  0  0  0  0  0
   26.4760   31.3120   44.2070 C   0  0  0  0  0  0  0  0  0  0  0  0
   26.7860   30.3850   45.1550 N   0  0  0  0  0  0  0  0  0  0  0  0
   28.0750   30.1490   45.4680 C   0  0  0  0  0  0  0  0  0  0  0  0
   32.1870   26.6670   49.0350 H   0  0  0  0  0  0  0  0  0  0  0  0
   29.8890   27.4140   48.0830 H   0  0  0  0  0  0  0  0  0  0  0  0
   28.2560   28.6500   46.9820 H   0  0  0  0  0  0  0  0  0  0  0  0
   29.5300   32.3340   43.3580 H   0  0  0  0  0  0  0  0  0  0  0  0
   25.4550   31.5320   43.9270 H   0  0  0  0  0  0  0  0  0  0  0  0
   34.6490   28.2970   49.5200 C   0  0  0  0  0  0  0  0  0  0  0  0
   33.7500   28.7660   49.9710 H   0  0  0  0  0  0  0  0  0  0  0  0
   34.8040   27.3020   50.0070 H   0  0  0  0  0  0  0  0  0  0  0  0
   37.2880   30.1700   51.3120 C   0  0  0  0  0  0  0  0  0  0  0  0
   37.9860   30.7570   50.2500 C   0  0  0  0  0  0  0  0  0  0  0  0
   37.5550   30.5120   48.9370 C   0  0  0  0  0  0  0  0  0  0  0  0
   36.4800   29.7130   48.8160 N   0  0  0  0  0  0  0  0  0  0  0  0
   35.8140   29.1520   49.8410 C   0  0  0  0  0  0  0  0  0  0  0  0
   36.2320   29.3940   51.0620 N   0  0  0  0  0  0  0  0  0  0  0  0
   37.6750   30.4030   52.2900 H   0  0  0  0  0  0  0  0  0  0  0  0
   38.8250   31.3770   50.4120 H   0  0  0  0  0  0  0  0  0  0  0  0
   38.2330   31.0920   47.7690 C   0  0  0  0  0  0  0  0  0  0  0  0
   38.8860   32.3450   47.8630 C   0  0  0  0  0  0  0  0  0  0  0  0
   38.9490   32.9410   48.7070 H   0  0  0  0  0  0  0  0  0  0  0  0
   39.5340   32.5800   46.1950 S   0  0  0  0  0  0  0  0  0  0  0  0
   38.8110   30.9200   45.6160 C   0  0  0  0  0  0  0  0  0  0  0  0
   38.8850   30.4860   44.6200 H   0  0  0  0  0  0  0  0  0  0  0  0
   38.2200   30.4100   46.6230 N   0  0  0  0  0  0  0  0  0  0  0  0
  1 23  1  0  0  0  0
  2  1  1  0  0  0  0
  3  1  1  0  0  0  0
  4  1  1  0  0  0  0
  4  5  1  0  0  0  0
  5 18  1  0  0  0  0
  6 19  1  0  0  0  0
  6  5  2  0  0  0  0
  7  6  1  0  0  0  0
  8  7  1  0  0  0  0
  8  4  2  0  0  0  0
  9 20  1  0  0  0  0
 10  9  1  0  0  0  0
 10  7  1  0  0  0  0
 11 10  2  0  0  0  0
 12 11  1  0  0  0  0
 12 17  1  0  0  0  0
 13 12  2  0  0  0  0
 14 13  1  0  0  0  0
 14 15  2  0  0  0  0
 15 16  1  0  0  0  0
 16 17  2  0  0  0  0
 17  9  1  0  0  0  0
 21 13  1  0  0  0  0
 22 15  1  0  0  0  0
 23 30  1  0  0  0  0
 23 24  1  0  0  0  0
 23 25  1  0  0  0  0
 26 32  1  0  0  0  0
 27 33  1  0  0  0  0
 27 26  2  0  0  0  0
 28 27  1  0  0  0  0
 29 28  2  0  0  0  0
 29 30  1  0  0  0  0
 30 31  2  0  0  0  0
 31 26  1  0  0  0  0
 34 35  2  0  0  0  0
 34 28  1  0  0  0  0
 35 36  1  0  0  0  0
 37 35  1  0  0  0  0
 38 37  1  0  0  0  0
 38 40  2  0  0  0  0
 39 38  1  0  0  0  0
 40 34  1  0  0  0  0
M  END
>  <minimizedAffinity>
-6.47412825

>  <minimizedRMSD>
0.280348748

$$$$
