
 OpenBabel03272509253D

 22 23  0  0  0  0  0  0  0  0999 V2000
   35.3690   30.0600   47.3500 C   0  0  0  0  0  0  0  0  0  0  0  0
   35.2020   31.0840   47.0290 H   0  0  0  0  0  0  0  0  0  0  0  0
   35.9250   29.5210   46.5370 H   0  0  0  0  0  0  0  0  0  0  0  0
   32.6520   27.8120   48.7200 C   0  0  0  0  0  0  0  0  0  0  0  0
   33.8870   28.5010   48.6340 C   0  0  0  0  0  0  0  0  0  0  0  0
   34.1140   29.3100   47.5350 C   0  0  0  0  0  0  0  0  0  0  0  0
   33.1430   29.4200   46.5670 N   0  0  0  0  0  0  0  0  0  0  0  0
   31.9800   28.7540   46.6770 C   0  0  0  0  0  0  0  0  0  0  0  0
   31.7230   27.9480   47.7480 N   0  0  0  0  0  0  0  0  0  0  0  0
   32.4760   27.1890   49.5680 H   0  0  0  0  0  0  0  0  0  0  0  0
   34.6020   28.3750   49.4060 H   0  0  0  0  0  0  0  0  0  0  0  0
   31.2210   28.8480   45.9080 H   0  0  0  0  0  0  0  0  0  0  0  0
   36.2570   29.9520   48.5770 C   0  0  0  0  0  0  0  0  0  0  0  0
   36.8190   29.0000   48.5950 H   0  0  0  0  0  0  0  0  0  0  0  0
   35.7210   30.0320   49.5130 H   0  0  0  0  0  0  0  0  0  0  0  0
   37.2500   31.0870   48.5280 C   0  0  0  0  0  0  0  0  0  0  0  0
   37.2060   32.1170   49.6830 C   0  0  0  0  0  0  0  0  0  0  0  0
   36.5540   32.0480   50.4350 H   0  0  0  0  0  0  0  0  0  0  0  0
   38.5360   33.2150   49.1700 S   0  0  0  0  0  0  0  0  0  0  0  0
   38.9410   32.2250   47.6020 C   0  0  0  0  0  0  0  0  0  0  0  0
   39.7280   32.5430   46.9430 H   0  0  0  0  0  0  0  0  0  0  0  0
   38.1500   31.2440   47.5560 N   0  0  0  0  0  0  0  0  0  0  0  0
  1  6  1  0  0  0  0
  1 13  1  0  0  0  0
  2  1  1  0  0  0  0
  3  1  1  0  0  0  0
  4 10  1  0  0  0  0
  5  4  1  0  0  0  0
  5 11  1  0  0  0  0
  6  5  2  0  0  0  0
  7  8  2  0  0  0  0
  7  6  1  0  0  0  0
  8  9  1  0  0  0  0
  9  4  2  0  0  0  0
 12  8  1  0  0  0  0
 13 14  1  0  0  0  0
 13 15  1  0  0  0  0
 16 13  1  0  0  0  0
 16 17  2  0  0  0  0
 17 18  1  0  0  0  0
 19 17  1  0  0  0  0
 20 19  1  0  0  0  0
 21 20  1  0  0  0  0
 22 20  2  0  0  0  0
 22 16  1  0  0  0  0
M  END
>  <minimizedAffinity>
-3.80908632

>  <minimizedRMSD>
4.20974398

$$$$
