
 OpenBabel03272509473D

 23 24  0  0  0  0  0  0  0  0999 V2000
   33.8150   28.6560   48.8460 C   0  0  0  0  0  0  0  0  0  0  0  0
   32.9570   29.2400   49.2730 H   0  0  0  0  0  0  0  0  0  0  0  0
   34.2790   29.3110   48.0640 H   0  0  0  0  0  0  0  0  0  0  0  0
   33.2450   27.4630   48.1140 C   0  0  0  0  0  0  0  0  0  0  0  0
   33.7100   26.5470   48.4980 H   0  0  0  0  0  0  0  0  0  0  0  0
   33.4350   27.5260   47.0380 H   0  0  0  0  0  0  0  0  0  0  0  0
   31.7680   27.4750   48.4210 C   0  0  0  0  0  0  0  0  0  0  0  0
   30.9720   27.0340   47.2820 C   0  0  0  0  0  0  0  0  0  0  0  0
   31.2060   26.7070   46.2860 H   0  0  0  0  0  0  0  0  0  0  0  0
   29.2420   27.1400   47.9140 S   0  0  0  0  0  0  0  0  0  0  0  0
   29.8860   27.7570   49.5920 C   0  0  0  0  0  0  0  0  0  0  0  0
   29.6190   28.1340   50.7410 H   0  0  0  0  0  0  0  0  0  0  0  0
   31.0050   27.7800   49.4520 N   0  0  0  0  0  0  0  0  0  0  0  0
   34.7270   28.2350   49.8310 O   0  0  0  0  0  0  0  0  0  0  0  0
   37.3250   30.2380   51.3940 C   0  0  0  0  0  0  0  0  0  0  0  0
   38.0060   30.6680   50.2420 C   0  0  0  0  0  0  0  0  0  0  0  0
   37.5430   30.2520   48.9990 C   0  0  0  0  0  0  0  0  0  0  0  0
   36.4420   29.4430   48.9790 N   0  0  0  0  0  0  0  0  0  0  0  0
   35.8140   29.0500   50.1110 C   0  0  0  0  0  0  0  0  0  0  0  0
   36.2670   29.4560   51.3020 N   0  0  0  0  0  0  0  0  0  0  0  0
   37.6580   30.5430   52.3820 H   0  0  0  0  0  0  0  0  0  0  0  0
   38.8790   31.3150   50.3260 H   0  0  0  0  0  0  0  0  0  0  0  0
   38.0360   30.5580   48.0840 H   0  0  0  0  0  0  0  0  0  0  0  0
  1  2  1  0  0  0  0
  1 14  1  0  0  0  0
  3  1  1  0  0  0  0
  4  7  1  0  0  0  0
  4  5  1  0  0  0  0
  4  1  1  0  0  0  0
  6  4  1  0  0  0  0
  7 13  1  0  0  0  0
  8 10  1  0  0  0  0
  8  7  2  0  0  0  0
  9  8  1  0  0  0  0
 10 11  1  0  0  0  0
 11 12  1  0  0  0  0
 13 11  2  0  0  0  0
 14 19  1  0  0  0  0
 15 21  1  0  0  0  0
 16 22  1  0  0  0  0
 16 15  2  0  0  0  0
 17 16  1  0  0  0  0
 18 17  2  0  0  0  0
 18 19  1  0  0  0  0
 19 20  2  0  0  0  0
 20 15  1  0  0  0  0
 23 17  1  0  0  0  0
M  END
>  <minimizedAffinity>
-4.13296366

>  <minimizedRMSD>
2.5319376

$$$$
