
 OpenBabel03272501553D

 22 23  0  0  0  0  0  0  0  0999 V2000
   37.7970   25.8510   35.6890 C   0  0  0  0  0  0  0  0  0  0  0  0
   37.6570   25.4480   34.6800 H   0  0  0  0  0  0  0  0  0  0  0  0
   36.8400   26.1580   36.1260 H   0  0  0  0  0  0  0  0  0  0  0  0
   38.6100   23.4830   38.4300 C   0  0  0  0  0  0  0  0  0  0  0  0
   39.6740   22.7450   37.8900 C   0  0  0  0  0  0  0  0  0  0  0  0
   40.1020   23.0690   36.5890 C   0  0  0  0  0  0  0  0  0  0  0  0
   39.4640   24.0710   35.9340 N   0  0  0  0  0  0  0  0  0  0  0  0
   38.4410   24.7510   36.5060 C   0  0  0  0  0  0  0  0  0  0  0  0
   38.0110   24.4700   37.7350 N   0  0  0  0  0  0  0  0  0  0  0  0
   38.3100   23.2070   39.4310 H   0  0  0  0  0  0  0  0  0  0  0  0
   40.1480   21.9650   38.4370 H   0  0  0  0  0  0  0  0  0  0  0  0
   40.9210   22.5250   36.1280 H   0  0  0  0  0  0  0  0  0  0  0  0
   38.7110   27.0270   35.6210 C   0  0  0  0  0  0  0  0  0  0  0  0
   39.3750   26.9870   36.5170 H   0  0  0  0  0  0  0  0  0  0  0  0
   38.1150   27.9520   35.7480 H   0  0  0  0  0  0  0  0  0  0  0  0
   39.4920   27.0710   34.3480 C   0  0  0  0  0  0  0  0  0  0  0  0
   38.7390   26.9870   33.1050 C   0  0  0  0  0  0  0  0  0  0  0  0
   37.7150   26.8990   32.9760 H   0  0  0  0  0  0  0  0  0  0  0  0
   40.0490   27.0760   31.9090 S   0  0  0  0  0  0  0  0  0  0  0  0
   41.4060   27.2120   33.2150 C   0  0  0  0  0  0  0  0  0  0  0  0
   42.4950   27.3010   33.1270 H   0  0  0  0  0  0  0  0  0  0  0  0
   40.8040   27.1790   34.2650 N   0  0  0  0  0  0  0  0  0  0  0  0
  1  3  1  0  0  0  0
  1  8  1  0  0  0  0
  2  1  1  0  0  0  0
  4 10  1  0  0  0  0
  5  4  1  0  0  0  0
  5 11  1  0  0  0  0
  6  5  2  0  0  0  0
  7  8  2  0  0  0  0
  7  6  1  0  0  0  0
  8  9  1  0  0  0  0
  9  4  2  0  0  0  0
 12  6  1  0  0  0  0
 13  1  1  0  0  0  0
 13 15  1  0  0  0  0
 13 14  1  0  0  0  0
 16 13  1  0  0  0  0
 17 16  2  0  0  0  0
 18 17  1  0  0  0  0
 19 17  1  0  0  0  0
 19 20  1  0  0  0  0
 20 22  2  0  0  0  0
 21 20  1  0  0  0  0
 22 16  1  0  0  0  0
M  END
>  <minimizedAffinity>
-3.73719072

$$$$

 OpenBabel03272501553D

 22 23  0  0  0  0  0  0  0  0999 V2000
   38.3100   25.4460   34.8810 C   0  0  0  0  0  0  0  0  0  0  0  0
   39.2670   25.5360   34.3550 H   0  0  0  0  0  0  0  0  0  0  0  0
   37.5550   24.9720   34.2430 H   0  0  0  0  0  0  0  0  0  0  0  0
   39.6910   22.9310   37.2350 C   0  0  0  0  0  0  0  0  0  0  0  0
   38.9720   23.1890   38.4120 C   0  0  0  0  0  0  0  0  0  0  0  0
   38.0190   24.2250   38.3850 C   0  0  0  0  0  0  0  0  0  0  0  0
   37.8520   24.9110   37.2280 N   0  0  0  0  0  0  0  0  0  0  0  0
   38.5750   24.6190   36.1200 C   0  0  0  0  0  0  0  0  0  0  0  0
   39.4830   23.6460   36.1110 N   0  0  0  0  0  0  0  0  0  0  0  0
   40.4120   22.1290   37.2940 H   0  0  0  0  0  0  0  0  0  0  0  0
   39.1340   22.6260   39.3010 H   0  0  0  0  0  0  0  0  0  0  0  0
   37.4390   24.4620   39.2710 H   0  0  0  0  0  0  0  0  0  0  0  0
   37.8420   26.8060   35.2750 C   0  0  0  0  0  0  0  0  0  0  0  0
   38.7460   27.4160   35.5090 H   0  0  0  0  0  0  0  0  0  0  0  0
   37.2910   26.7320   36.2330 H   0  0  0  0  0  0  0  0  0  0  0  0
   36.9920   27.4450   34.2250 C   0  0  0  0  0  0  0  0  0  0  0  0
   37.0150   26.8470   32.8980 C   0  0  0  0  0  0  0  0  0  0  0  0
   37.5500   26.0210   32.5710 H   0  0  0  0  0  0  0  0  0  0  0  0
   35.8930   27.9120   32.0260 S   0  0  0  0  0  0  0  0  0  0  0  0
   35.5500   28.9970   33.5330 C   0  0  0  0  0  0  0  0  0  0  0  0
   34.9090   29.8770   33.6660 H   0  0  0  0  0  0  0  0  0  0  0  0
   36.2270   28.5040   34.4070 N   0  0  0  0  0  0  0  0  0  0  0  0
  1 13  1  0  0  0  0
  1  8  1  0  0  0  0
  2  1  1  0  0  0  0
  3  1  1  0  0  0  0
  4 10  1  0  0  0  0
  4  5  1  0  0  0  0
  5 11  1  0  0  0  0
  6  5  2  0  0  0  0
  6 12  1  0  0  0  0
  7  6  1  0  0  0  0
  8  7  2  0  0  0  0
  9  8  1  0  0  0  0
  9  4  2  0  0  0  0
 13 14  1  0  0  0  0
 13 15  1  0  0  0  0
 16 22  1  0  0  0  0
 16 13  1  0  0  0  0
 17 16  2  0  0  0  0
 18 17  1  0  0  0  0
 19 17  1  0  0  0  0
 19 20  1  0  0  0  0
 20 21  1  0  0  0  0
 20 22  2  0  0  0  0
M  END
>  <minimizedAffinity>
-3.72474909

$$$$

 OpenBabel03272501553D

 22 23  0  0  0  0  0  0  0  0999 V2000
   38.4150   24.4860   34.5590 C   0  0  0  0  0  0  0  0  0  0  0  0
   39.4070   24.5670   34.1010 H   0  0  0  0  0  0  0  0  0  0  0  0
   37.7900   23.7660   34.0180 H   0  0  0  0  0  0  0  0  0  0  0  0
   39.7820   22.8380   37.5900 C   0  0  0  0  0  0  0  0  0  0  0  0
   38.9450   23.3250   38.6060 C   0  0  0  0  0  0  0  0  0  0  0  0
   37.9190   24.2150   38.2380 C   0  0  0  0  0  0  0  0  0  0  0  0
   37.7980   24.5490   36.9300 N   0  0  0  0  0  0  0  0  0  0  0  0
   38.6360   24.0480   35.9910 C   0  0  0  0  0  0  0  0  0  0  0  0
   39.6170   23.2040   36.3040 N   0  0  0  0  0  0  0  0  0  0  0  0
   40.5580   22.1570   37.9100 H   0  0  0  0  0  0  0  0  0  0  0  0
   39.0740   23.0370   39.6220 H   0  0  0  0  0  0  0  0  0  0  0  0
   37.2460   24.6190   38.9890 H   0  0  0  0  0  0  0  0  0  0  0  0
   37.7590   25.8250   34.5390 C   0  0  0  0  0  0  0  0  0  0  0  0
   38.5360   26.5810   34.8020 H   0  0  0  0  0  0  0  0  0  0  0  0
   37.0200   25.8750   35.3630 H   0  0  0  0  0  0  0  0  0  0  0  0
   37.1100   26.1230   33.2270 C   0  0  0  0  0  0  0  0  0  0  0  0
   36.9420   27.5250   32.8720 C   0  0  0  0  0  0  0  0  0  0  0  0
   37.2160   28.3640   33.4140 H   0  0  0  0  0  0  0  0  0  0  0  0
   36.1530   27.3820   31.2880 S   0  0  0  0  0  0  0  0  0  0  0  0
   36.1550   25.4940   31.3140 C   0  0  0  0  0  0  0  0  0  0  0  0
   35.7900   24.7550   30.5900 H   0  0  0  0  0  0  0  0  0  0  0  0
   36.6780   25.2180   32.3700 N   0  0  0  0  0  0  0  0  0  0  0  0
  1  8  1  0  0  0  0
  2  1  1  0  0  0  0
  3  1  1  0  0  0  0
  4 10  1  0  0  0  0
  4  5  1  0  0  0  0
  5 11  1  0  0  0  0
  6  5  2  0  0  0  0
  6 12  1  0  0  0  0
  7  6  1  0  0  0  0
  8  9  1  0  0  0  0
  8  7  2  0  0  0  0
  9  4  2  0  0  0  0
 13  1  1  0  0  0  0
 13 14  1  0  0  0  0
 13 15  1  0  0  0  0
 16 13  1  0  0  0  0
 17 16  2  0  0  0  0
 17 18  1  0  0  0  0
 19 20  1  0  0  0  0
 19 17  1  0  0  0  0
 20 22  2  0  0  0  0
 21 20  1  0  0  0  0
 22 16  1  0  0  0  0
M  END
>  <minimizedAffinity>
-3.72277451

$$$$

 OpenBabel03272501553D

 22 23  0  0  0  0  0  0  0  0999 V2000
   38.5340   24.3190   34.5730 C   0  0  0  0  0  0  0  0  0  0  0  0
   39.5490   24.2560   34.1670 H   0  0  0  0  0  0  0  0  0  0  0  0
   37.8620   23.6210   34.0610 H   0  0  0  0  0  0  0  0  0  0  0  0
   37.8930   24.1720   38.2260 C   0  0  0  0  0  0  0  0  0  0  0  0
   38.9220   23.3330   38.6830 C   0  0  0  0  0  0  0  0  0  0  0  0
   39.8260   22.8270   37.7300 C   0  0  0  0  0  0  0  0  0  0  0  0
   39.6510   23.1770   36.4320 N   0  0  0  0  0  0  0  0  0  0  0  0
   38.6390   23.9910   36.0480 C   0  0  0  0  0  0  0  0  0  0  0  0
   37.7670   24.4870   36.9220 N   0  0  0  0  0  0  0  0  0  0  0  0
   37.2200   24.5420   38.9860 H   0  0  0  0  0  0  0  0  0  0  0  0
   39.0240   23.0830   39.7120 H   0  0  0  0  0  0  0  0  0  0  0  0
   40.6380   22.1740   38.0340 H   0  0  0  0  0  0  0  0  0  0  0  0
   38.0270   25.7100   34.4030 C   0  0  0  0  0  0  0  0  0  0  0  0
   38.9100   26.3910   34.4120 H   0  0  0  0  0  0  0  0  0  0  0  0
   37.4400   25.9910   35.3000 H   0  0  0  0  0  0  0  0  0  0  0  0
   37.2080   25.8720   33.1630 C   0  0  0  0  0  0  0  0  0  0  0  0
   36.8620   27.2300   32.7690 C   0  0  0  0  0  0  0  0  0  0  0  0
   37.1090   28.1200   33.2380 H   0  0  0  0  0  0  0  0  0  0  0  0
   35.9200   26.9250   31.2950 S   0  0  0  0  0  0  0  0  0  0  0  0
   36.1140   25.0500   31.4040 C   0  0  0  0  0  0  0  0  0  0  0  0
   35.7470   24.2410   30.7620 H   0  0  0  0  0  0  0  0  0  0  0  0
   36.7770   24.8840   32.4040 N   0  0  0  0  0  0  0  0  0  0  0  0
  1  8  1  0  0  0  0
  2  1  1  0  0  0  0
  3  1  1  0  0  0  0
  4  5  1  0  0  0  0
  4 10  1  0  0  0  0
  5 11  1  0  0  0  0
  6 12  1  0  0  0  0
  6  5  2  0  0  0  0
  7  6  1  0  0  0  0
  8  7  2  0  0  0  0
  8  9  1  0  0  0  0
  9  4  2  0  0  0  0
 13 14  1  0  0  0  0
 13  1  1  0  0  0  0
 13 15  1  0  0  0  0
 16 13  1  0  0  0  0
 17 16  2  0  0  0  0
 17 18  1  0  0  0  0
 19 20  1  0  0  0  0
 19 17  1  0  0  0  0
 20 22  2  0  0  0  0
 21 20  1  0  0  0  0
 22 16  1  0  0  0  0
M  END
>  <minimizedAffinity>
-3.68625498

$$$$

 OpenBabel03272501553D

 22 23  0  0  0  0  0  0  0  0999 V2000
   37.9780   27.3810   35.6580 C   0  0  0  0  0  0  0  0  0  0  0  0
   38.5050   28.3050   35.9180 H   0  0  0  0  0  0  0  0  0  0  0  0
   37.3250   27.0580   36.4770 H   0  0  0  0  0  0  0  0  0  0  0  0
   36.6690   27.3050   32.1860 C   0  0  0  0  0  0  0  0  0  0  0  0
   35.6740   28.2950   32.2130 C   0  0  0  0  0  0  0  0  0  0  0  0
   35.4640   28.9790   33.4250 C   0  0  0  0  0  0  0  0  0  0  0  0
   36.2310   28.6430   34.4920 N   0  0  0  0  0  0  0  0  0  0  0  0
   37.1780   27.6780   34.4080 C   0  0  0  0  0  0  0  0  0  0  0  0
   37.4020   27.0120   33.2770 N   0  0  0  0  0  0  0  0  0  0  0  0
   36.8020   26.8020   31.2390 H   0  0  0  0  0  0  0  0  0  0  0  0
   35.0940   28.5280   31.3530 H   0  0  0  0  0  0  0  0  0  0  0  0
   34.7060   29.7520   33.4960 H   0  0  0  0  0  0  0  0  0  0  0  0
   38.9790   26.3140   35.3720 C   0  0  0  0  0  0  0  0  0  0  0  0
   39.9410   26.6230   35.8440 H   0  0  0  0  0  0  0  0  0  0  0  0
   39.1860   26.2980   34.2840 H   0  0  0  0  0  0  0  0  0  0  0  0
   38.5310   24.9680   35.8440 C   0  0  0  0  0  0  0  0  0  0  0  0
   38.6490   23.8620   34.9060 C   0  0  0  0  0  0  0  0  0  0  0  0
   39.0070   23.8770   33.9340 H   0  0  0  0  0  0  0  0  0  0  0  0
   38.0160   22.5210   35.8820 S   0  0  0  0  0  0  0  0  0  0  0  0
   37.6850   23.6050   37.3910 C   0  0  0  0  0  0  0  0  0  0  0  0
   37.2740   23.3720   38.3810 H   0  0  0  0  0  0  0  0  0  0  0  0
   38.0400   24.7080   37.0410 N   0  0  0  0  0  0  0  0  0  0  0  0
  1  2  1  0  0  0  0
  1  3  1  0  0  0  0
  4  5  2  0  0  0  0
  4  9  1  0  0  0  0
  5  6  1  0  0  0  0
  6 12  1  0  0  0  0
  6  7  2  0  0  0  0
  8  7  1  0  0  0  0
  8  1  1  0  0  0  0
  9  8  2  0  0  0  0
 10  4  1  0  0  0  0
 11  5  1  0  0  0  0
 13  1  1  0  0  0  0
 13 14  1  0  0  0  0
 13 16  1  0  0  0  0
 15 13  1  0  0  0  0
 16 22  1  0  0  0  0
 17 16  2  0  0  0  0
 17 19  1  0  0  0  0
 18 17  1  0  0  0  0
 19 20  1  0  0  0  0
 20 21  1  0  0  0  0
 22 20  2  0  0  0  0
M  END
>  <minimizedAffinity>
-3.59377718

$$$$

 OpenBabel03272501553D

 22 23  0  0  0  0  0  0  0  0999 V2000
   36.5450   22.9030   31.1080 C   0  0  0  0  0  0  0  0  0  0  0  0
   37.4790   23.1980   31.6000 H   0  0  0  0  0  0  0  0  0  0  0  0
   36.6760   22.8430   30.0210 H   0  0  0  0  0  0  0  0  0  0  0  0
   35.7140   19.3030   31.4590 C   0  0  0  0  0  0  0  0  0  0  0  0
   35.4590   19.1820   32.8340 C   0  0  0  0  0  0  0  0  0  0  0  0
   35.5750   20.3390   33.6260 C   0  0  0  0  0  0  0  0  0  0  0  0
   35.9250   21.5000   33.0190 N   0  0  0  0  0  0  0  0  0  0  0  0
   36.1600   21.5580   31.6860 C   0  0  0  0  0  0  0  0  0  0  0  0
   36.0590   20.4830   30.9070 N   0  0  0  0  0  0  0  0  0  0  0  0
   35.6140   18.3940   30.8840 H   0  0  0  0  0  0  0  0  0  0  0  0
   35.1860   18.2510   33.2720 H   0  0  0  0  0  0  0  0  0  0  0  0
   35.3880   20.2960   34.6950 H   0  0  0  0  0  0  0  0  0  0  0  0
   35.4900   23.9080   31.4250 C   0  0  0  0  0  0  0  0  0  0  0  0
   34.9380   23.5400   32.3210 H   0  0  0  0  0  0  0  0  0  0  0  0
   34.7410   23.9110   30.6090 H   0  0  0  0  0  0  0  0  0  0  0  0
   36.0500   25.2770   31.6350 C   0  0  0  0  0  0  0  0  0  0  0  0
   37.0360   25.4360   32.6930 C   0  0  0  0  0  0  0  0  0  0  0  0
   37.4140   24.7170   33.3360 H   0  0  0  0  0  0  0  0  0  0  0  0
   37.3940   27.1710   32.5660 S   0  0  0  0  0  0  0  0  0  0  0  0
   36.1930   27.4440   31.1350 C   0  0  0  0  0  0  0  0  0  0  0  0
   35.9290   28.3440   30.5670 H   0  0  0  0  0  0  0  0  0  0  0  0
   35.7190   26.3480   30.9390 N   0  0  0  0  0  0  0  0  0  0  0  0
  1 13  1  0  0  0  0
  1  2  1  0  0  0  0
  1  8  1  0  0  0  0
  3  1  1  0  0  0  0
  4  5  1  0  0  0  0
  5 11  1  0  0  0  0
  5  6  2  0  0  0  0
  6 12  1  0  0  0  0
  7  6  1  0  0  0  0
  8  7  2  0  0  0  0
  9  4  2  0  0  0  0
  9  8  1  0  0  0  0
 10  4  1  0  0  0  0
 13 16  1  0  0  0  0
 13 14  1  0  0  0  0
 15 13  1  0  0  0  0
 16 17  2  0  0  0  0
 17 18  1  0  0  0  0
 19 17  1  0  0  0  0
 20 19  1  0  0  0  0
 21 20  1  0  0  0  0
 22 20  2  0  0  0  0
 22 16  1  0  0  0  0
M  END
>  <minimizedAffinity>
-3.59093451

$$$$

 OpenBabel03272501553D

 22 23  0  0  0  0  0  0  0  0999 V2000
   35.4740   23.9690   31.4060 C   0  0  0  0  0  0  0  0  0  0  0  0
   34.9340   23.6710   32.3120 H   0  0  0  0  0  0  0  0  0  0  0  0
   34.8040   23.9900   30.5390 H   0  0  0  0  0  0  0  0  0  0  0  0
   36.2650   27.5890   31.1990 C   0  0  0  0  0  0  0  0  0  0  0  0
   37.1540   27.7690   32.2700 C   0  0  0  0  0  0  0  0  0  0  0  0
   37.4720   26.6430   33.0530 C   0  0  0  0  0  0  0  0  0  0  0  0
   36.9050   25.4560   32.7290 N   0  0  0  0  0  0  0  0  0  0  0  0
   36.0520   25.3410   31.6820 C   0  0  0  0  0  0  0  0  0  0  0  0
   35.7300   26.3850   30.9220 N   0  0  0  0  0  0  0  0  0  0  0  0
   36.0450   28.4750   30.6210 H   0  0  0  0  0  0  0  0  0  0  0  0
   37.5780   28.7190   32.4920 H   0  0  0  0  0  0  0  0  0  0  0  0
   38.1550   26.7320   33.8930 H   0  0  0  0  0  0  0  0  0  0  0  0
   36.5780   22.9990   31.1570 C   0  0  0  0  0  0  0  0  0  0  0  0
   37.4090   23.2510   31.8560 H   0  0  0  0  0  0  0  0  0  0  0  0
   36.9910   23.1780   30.1450 H   0  0  0  0  0  0  0  0  0  0  0  0
   36.1350   21.5790   31.3040 C   0  0  0  0  0  0  0  0  0  0  0  0
   35.1180   21.3010   32.3070 C   0  0  0  0  0  0  0  0  0  0  0  0
   34.6470   21.9650   32.9500 H   0  0  0  0  0  0  0  0  0  0  0  0
   34.9250   19.5460   32.1180 S   0  0  0  0  0  0  0  0  0  0  0  0
   36.2110   19.4240   30.7420 C   0  0  0  0  0  0  0  0  0  0  0  0
   36.5810   18.5680   30.1640 H   0  0  0  0  0  0  0  0  0  0  0  0
   36.5930   20.5640   30.5970 N   0  0  0  0  0  0  0  0  0  0  0  0
  1  8  1  0  0  0  0
  1  2  1  0  0  0  0
  3  1  1  0  0  0  0
  4  5  1  0  0  0  0
  5 11  1  0  0  0  0
  5  6  2  0  0  0  0
  6 12  1  0  0  0  0
  7  6  1  0  0  0  0
  8  7  2  0  0  0  0
  9  4  2  0  0  0  0
  9  8  1  0  0  0  0
 10  4  1  0  0  0  0
 13 16  1  0  0  0  0
 13  1  1  0  0  0  0
 13 14  1  0  0  0  0
 15 13  1  0  0  0  0
 16 17  2  0  0  0  0
 17 18  1  0  0  0  0
 19 17  1  0  0  0  0
 20 19  1  0  0  0  0
 21 20  1  0  0  0  0
 22 20  2  0  0  0  0
 22 16  1  0  0  0  0
M  END
>  <minimizedAffinity>
-3.54045963

$$$$

 OpenBabel03272501553D

 22 23  0  0  0  0  0  0  0  0999 V2000
   38.2070   24.4000   34.5230 C   0  0  0  0  0  0  0  0  0  0  0  0
   37.1350   24.6110   34.4340 H   0  0  0  0  0  0  0  0  0  0  0  0
   38.8040   25.2730   34.2340 H   0  0  0  0  0  0  0  0  0  0  0  0
   37.9280   24.1410   38.2150 C   0  0  0  0  0  0  0  0  0  0  0  0
   38.9880   23.2820   38.5410 C   0  0  0  0  0  0  0  0  0  0  0  0
   39.7890   22.8000   37.4890 C   0  0  0  0  0  0  0  0  0  0  0  0
   39.4910   23.1920   36.2250 N   0  0  0  0  0  0  0  0  0  0  0  0
   38.4530   24.0250   35.9690 C   0  0  0  0  0  0  0  0  0  0  0  0
   37.6770   24.4990   36.9400 N   0  0  0  0  0  0  0  0  0  0  0  0
   37.3360   24.4910   39.0490 H   0  0  0  0  0  0  0  0  0  0  0  0
   39.1890   22.9980   39.5470 H   0  0  0  0  0  0  0  0  0  0  0  0
   40.6200   22.1320   37.6910 H   0  0  0  0  0  0  0  0  0  0  0  0
   38.5500   23.2500   33.6390 C   0  0  0  0  0  0  0  0  0  0  0  0
   39.1600   22.5350   34.2420 H   0  0  0  0  0  0  0  0  0  0  0  0
   39.2310   23.6020   32.8390 H   0  0  0  0  0  0  0  0  0  0  0  0
   37.3400   22.5970   33.0540 C   0  0  0  0  0  0  0  0  0  0  0  0
   36.8330   21.4120   33.7290 C   0  0  0  0  0  0  0  0  0  0  0  0
   37.2020   20.9460   34.5780 H   0  0  0  0  0  0  0  0  0  0  0  0
   35.4400   21.0080   32.7040 S   0  0  0  0  0  0  0  0  0  0  0  0
   35.7210   22.4580   31.5290 C   0  0  0  0  0  0  0  0  0  0  0  0
   35.1770   22.7880   30.6360 H   0  0  0  0  0  0  0  0  0  0  0  0
   36.7000   23.0110   31.9780 N   0  0  0  0  0  0  0  0  0  0  0  0
  1  8  1  0  0  0  0
  2  1  1  0  0  0  0
  3  1  1  0  0  0  0
  4  5  1  0  0  0  0
  4 10  1  0  0  0  0
  5 11  1  0  0  0  0
  6 12  1  0  0  0  0
  6  5  2  0  0  0  0
  7  6  1  0  0  0  0
  8  7  2  0  0  0  0
  8  9  1  0  0  0  0
  9  4  2  0  0  0  0
 13 14  1  0  0  0  0
 13  1  1  0  0  0  0
 15 13  1  0  0  0  0
 16 13  1  0  0  0  0
 16 17  2  0  0  0  0
 17 18  1  0  0  0  0
 19 17  1  0  0  0  0
 20 22  2  0  0  0  0
 20 19  1  0  0  0  0
 21 20  1  0  0  0  0
 22 16  1  0  0  0  0
M  END
>  <minimizedAffinity>
-3.53652906

$$$$

 OpenBabel03272501553D

 22 23  0  0  0  0  0  0  0  0999 V2000
   38.5070   25.3220   34.0080 C   0  0  0  0  0  0  0  0  0  0  0  0
   39.2760   24.5420   34.0450 H   0  0  0  0  0  0  0  0  0  0  0  0
   38.9380   26.2850   33.7120 H   0  0  0  0  0  0  0  0  0  0  0  0
   35.7850   25.2790   31.4850 C   0  0  0  0  0  0  0  0  0  0  0  0
   35.6340   23.9090   31.2230 C   0  0  0  0  0  0  0  0  0  0  0  0
   36.4690   23.0130   31.9170 C   0  0  0  0  0  0  0  0  0  0  0  0
   37.3680   23.5230   32.7950 N   0  0  0  0  0  0  0  0  0  0  0  0
   37.4700   24.8570   33.0080 C   0  0  0  0  0  0  0  0  0  0  0  0
   36.6960   25.7320   32.3690 N   0  0  0  0  0  0  0  0  0  0  0  0
   35.1270   25.9350   30.9350 H   0  0  0  0  0  0  0  0  0  0  0  0
   34.9150   23.5480   30.5260 H   0  0  0  0  0  0  0  0  0  0  0  0
   36.3890   21.9430   31.7490 H   0  0  0  0  0  0  0  0  0  0  0  0
   37.8820   25.4520   35.3560 C   0  0  0  0  0  0  0  0  0  0  0  0
   36.7820   25.3240   35.2280 H   0  0  0  0  0  0  0  0  0  0  0  0
   38.0100   26.4930   35.7120 H   0  0  0  0  0  0  0  0  0  0  0  0
   38.4470   24.4820   36.3430 C   0  0  0  0  0  0  0  0  0  0  0  0
   39.6290   23.7350   35.9390 C   0  0  0  0  0  0  0  0  0  0  0  0
   40.1450   23.7810   35.0410 H   0  0  0  0  0  0  0  0  0  0  0  0
   39.9180   22.7490   37.3860 S   0  0  0  0  0  0  0  0  0  0  0  0
   38.4420   23.4600   38.3230 C   0  0  0  0  0  0  0  0  0  0  0  0
   38.0490   23.2570   39.3270 H   0  0  0  0  0  0  0  0  0  0  0  0
   37.9590   24.2530   37.5470 N   0  0  0  0  0  0  0  0  0  0  0  0
  1  2  1  0  0  0  0
  1 13  1  0  0  0  0
  3  1  1  0  0  0  0
  4  9  1  0  0  0  0
  5  4  2  0  0  0  0
  5  6  1  0  0  0  0
  6  7  2  0  0  0  0
  7  8  1  0  0  0  0
  8  1  1  0  0  0  0
  9  8  2  0  0  0  0
 10  4  1  0  0  0  0
 11  5  1  0  0  0  0
 12  6  1  0  0  0  0
 13 15  1  0  0  0  0
 13 16  1  0  0  0  0
 14 13  1  0  0  0  0
 16 22  1  0  0  0  0
 17 16  2  0  0  0  0
 17 19  1  0  0  0  0
 18 17  1  0  0  0  0
 19 20  1  0  0  0  0
 20 21  1  0  0  0  0
 22 20  2  0  0  0  0
M  END
>  <minimizedAffinity>
-3.52877998

$$$$
