
 OpenBabel03272506413D

 17 18  0  0  0  0  0  0  0  0999 V2000
   37.2140   30.3070   51.3320 C   0  0  0  0  0  0  0  0  0  0  0  0
   38.1130   30.8230   50.3810 C   0  0  0  0  0  0  0  0  0  0  0  0
   37.9010   30.4910   49.0400 C   0  0  0  0  0  0  0  0  0  0  0  0
   36.8430   29.6920   48.7320 N   0  0  0  0  0  0  0  0  0  0  0  0
   36.0020   29.2160   49.6760 C   0  0  0  0  0  0  0  0  0  0  0  0
   36.1730   29.5120   50.9670 N   0  0  0  0  0  0  0  0  0  0  0  0
   37.3290   30.5330   52.3950 H   0  0  0  0  0  0  0  0  0  0  0  0
   38.9130   31.4410   50.7110 H   0  0  0  0  0  0  0  0  0  0  0  0
   38.5810   30.8760   48.2870 H   0  0  0  0  0  0  0  0  0  0  0  0
   34.6180   28.1680   49.2560 S   0  0  0  0  0  0  0  0  0  0  0  0
   33.6790   28.8920   47.8910 C   0  0  0  0  0  0  0  0  0  0  0  0
   34.1090   30.2140   47.4790 C   0  0  0  0  0  0  0  0  0  0  0  0
   34.8730   30.8390   47.8280 H   0  0  0  0  0  0  0  0  0  0  0  0
   32.8650   30.5170   46.0820 S   0  0  0  0  0  0  0  0  0  0  0  0
   32.0520   28.8230   46.3560 C   0  0  0  0  0  0  0  0  0  0  0  0
   31.2170   28.4690   45.7700 H   0  0  0  0  0  0  0  0  0  0  0  0
   32.6660   28.3400   47.2550 N   0  0  0  0  0  0  0  0  0  0  0  0
  1  7  1  0  0  0  0
  2  8  1  0  0  0  0
  2  1  2  0  0  0  0
  3  2  1  0  0  0  0
  4  3  2  0  0  0  0
  4  5  1  0  0  0  0
  5  6  2  0  0  0  0
  6  1  1  0  0  0  0
  9  3  1  0  0  0  0
 10  5  1  0  0  0  0
 11 10  1  0  0  0  0
 12 13  1  0  0  0  0
 12 11  2  0  0  0  0
 14 15  1  0  0  0  0
 14 12  1  0  0  0  0
 15 17  2  0  0  0  0
 16 15  1  0  0  0  0
 17 11  1  0  0  0  0
M  END
>  <minimizedAffinity>
-3.82468724

>  <minimizedRMSD>
1.36280918

$$$$
