REMARK  Name = 
REMARK  3 active torsions:
REMARK  status: ('A' for Active; 'I' for Inactive)
REMARK    1  A    between atoms: C_2  and  C_12
REMARK    2  A    between atoms: C_6  and  O_16
REMARK    3  A    between atoms: O_16  and  C_24
REMARK                            x       y       z     vdW  Elec       q    Type
REMARK                         _______ _______ _______ _____ _____    ______ ____
ROOT
ATOM      1  C   UNL     1      36.860  30.562  46.912  0.00  0.00    +0.000 A 
ATOM      2  C   UNL     1      37.517  31.036  48.030  0.00  0.00    +0.000 A 
ATOM      3  C   UNL     1      38.505  31.984  47.895  0.00  0.00    +0.000 A 
ATOM      4  C   UNL     1      38.791  32.423  46.601  0.00  0.00    +0.000 A 
ATOM      5  N   UNL     1      39.730  33.355  46.234  0.00  0.00    +0.000 N 
ATOM      6  C   UNL     1      39.650  33.452  44.911  0.00  0.00    +0.000 A 
ATOM      7  N   UNL     1      38.714  32.635  44.421  0.00  0.00    +0.000 NA
ATOM      8  C   UNL     1      38.150  31.968  45.458  0.00  0.00    +0.000 A 
ATOM      9  C   UNL     1      37.159  31.012  45.636  0.00  0.00    +0.000 A 
ATOM     10  H   UNL     1      36.074  29.816  46.966  0.00  0.00    +0.000 HD
ATOM     11  H   UNL     1      39.031  32.369  48.738  0.00  0.00    +0.000 HD
ATOM     12  H   UNL     1      40.385  33.888  46.871  0.00  0.00    +0.000 HD
ATOM     13  H   UNL     1      36.669  30.666  44.747  0.00  0.00    +0.000 HD
ENDROOT
BRANCH   2  16
ATOM     14  C   UNL     1      37.389  30.091  51.663  0.00  0.00    +0.000 A 
ATOM     15  C   UNL     1      37.877  30.653  50.488  0.00  0.00    +0.000 A 
ATOM     16  C   UNL     1      37.132  30.504  49.324  0.00  0.00    +0.000 A 
ATOM     17  N   UNL     1      35.948  29.807  49.391  0.00  0.00    +0.000 NA
ATOM     18  C   UNL     1      35.503  29.272  50.554  0.00  0.00    +0.000 A 
ATOM     19  N   UNL     1      36.213  29.412  51.672  0.00  0.00    +0.000 NA
ATOM     20  H   UNL     1      38.054  30.273  52.496  0.00  0.00    +0.000 HD
ATOM     21  H   UNL     1      38.795  31.203  50.398  0.00  0.00    +0.000 HD
ATOM     22  H   UNL     1      34.573  28.736  50.558  0.00  0.00    +0.000 HD
ENDBRANCH   2  16
BRANCH   6  23
ATOM     23  O   UNL     1      40.458  34.309  44.169  0.00  0.00    +0.000 OA
BRANCH  23  24
ATOM     24  C   UNL     1      40.336  34.375  42.787  0.00  0.00    +0.000 A 
ATOM     25  C   UNL     1      39.985  35.660  42.242  0.00  0.00    +0.000 A 
ATOM     26  H   UNL     1      39.800  36.587  42.734  0.00  0.00    +0.000 HD
ATOM     27  S   UNL     1      39.934  35.278  40.389  0.00  0.00    +0.000 S 
ATOM     28  C   UNL     1      40.396  33.472  40.748  0.00  0.00    +0.000 A 
ATOM     29  H   UNL     1      40.581  32.496  40.106  0.00  0.00    +0.000 HD
ATOM     30  N   UNL     1      40.497  33.412  41.875  0.00  0.00    +0.000 NA
ENDBRANCH  23  24
ENDBRANCH   6  23
TORSDOF 3
