
     RDKit          3D

 21 22  0  0  0  0  0  0  0  0999 V2000
   36.7904   29.6805   51.1244 C   0  0  0  0  0  0  0  0  0  0  0  0
   37.3002   30.0656   49.8848 C   0  0  0  0  0  0  0  0  0  0  0  0
   36.5438   29.8587   48.7501 C   0  0  0  0  0  0  0  0  0  0  0  0
   35.3248   29.2837   48.8928 N   0  0  0  0  0  0  0  0  0  0  0  0
   34.8372   28.9130   50.0981 C   0  0  0  0  0  0  0  0  0  0  0  0
   35.5620   29.1090   51.2031 N   0  0  0  0  0  0  0  0  0  0  0  0
   38.6378   32.0627   49.5125 C   0  0  0  0  0  0  0  0  0  0  0  0
   37.7917   33.0338   49.4389 O   0  0  0  0  0  0  0  0  0  0  0  0
   38.5461   30.6599   49.6852 N   0  0  0  0  0  0  0  0  0  0  0  0
   37.6601   29.9521   52.1541 O   0  0  0  0  0  0  0  0  0  0  0  0
   36.8660   30.1263   47.7700 H   0  0  0  0  0  0  0  0  0  0  0  0
   33.8522   28.4525   50.1791 H   0  0  0  0  0  0  0  0  0  0  0  0
   39.4732   32.7448   49.3885 H   0  0  0  0  0  0  0  0  0  0  0  0
   39.4972   30.2558   49.6326 H   0  0  0  0  0  0  0  0  0  0  0  0
   37.3101   29.6292   53.4817 C   0  0  0  0  0  0  0  0  0  0  0  0
   38.1692   28.7140   54.1634 C   0  0  0  0  0  0  0  0  0  0  0  0
   39.0430   28.2263   53.8339 H   0  0  0  0  0  0  0  0  0  0  0  0
   37.4017   28.5617   55.7927 S   0  0  0  0  0  0  0  0  0  0  0  0
   36.0208   29.7728   55.2972 C   0  0  0  0  0  0  0  0  0  0  0  0
   35.0034   30.3360   55.6914 H   0  0  0  0  0  0  0  0  0  0  0  0
   36.2924   30.0423   54.2232 N   0  0  0  0  0  0  0  0  0  0  0  0
  1  6  1  0
  1 10  1  0
  2  1  2  0
  3  4  2  0
  3  2  1  0
  4  5  1  0
  5  6  2  0
  7  9  1  0
  8  7  2  0
  9  2  1  0
  3 11  1  0
  5 12  1  0
  7 13  1  0
  9 14  1  0
 15 16  2  0
 16 17  1  0
 16 18  1  0
 18 19  1  0
 19 20  1  0
 19 21  2  0
 21 15  1  0
 10 15  1  0
M  ISO  5  11  14  12  14  13   6  17  15  20  16
M  END
>  <DihAtoms>  (1) 
0,9,14,15

>  <DihDeg>  (1) 
179.9995427387577

$$$$
