
 OpenBabel03272506393D

 35 37  0  0  1  0  0  0  0  0999 V2000
   34.6970   28.5780   50.0510 O   0  0  0  0  0  0  0  0  0  0  0  0
   34.4650   28.9550   48.8960 C   0  0  0  0  0  0  0  0  0  0  0  0
   35.1910   30.0530   48.2940 C   0  0  2  0  0  0  0  0  0  0  0  0
   34.6690   29.9860   46.8230 C   0  0  0  0  0  0  0  0  0  0  0  0
   33.3250   29.3470   46.9640 C   0  0  0  0  0  0  0  0  0  0  0  0
   33.4750   28.3700   48.0250 N   0  0  0  0  0  0  0  0  0  0  0  0
   34.9270   31.0230   48.7090 H   0  0  0  0  0  0  0  0  0  0  0  0
   35.3650   29.4430   46.1850 H   0  0  0  0  0  0  0  0  0  0  0  0
   34.5400   31.0390   46.5210 H   0  0  0  0  0  0  0  0  0  0  0  0
   33.1330   28.7690   46.0260 H   0  0  0  0  0  0  0  0  0  0  0  0
   32.5240   30.0470   47.1980 H   0  0  0  0  0  0  0  0  0  0  0  0
   32.7820   27.1140   48.1470 C   0  0  0  0  0  0  0  0  0  0  0  0
   33.0020   26.5230   47.2160 H   0  0  0  0  0  0  0  0  0  0  0  0
   33.2300   26.5450   48.9610 H   0  0  0  0  0  0  0  0  0  0  0  0
   31.2910   27.2910   48.2790 C   0  0  0  0  0  0  0  0  0  0  0  0
   30.7440   27.8660   49.5090 C   0  0  0  0  0  0  0  0  0  0  0  0
   31.2750   28.1600   50.2830 H   0  0  0  0  0  0  0  0  0  0  0  0
   28.9680   27.8390   49.1230 S   0  0  0  0  0  0  0  0  0  0  0  0
   29.2400   27.0740   47.4050 C   0  0  0  0  0  0  0  0  0  0  0  0
   28.5620   26.7470   46.5270 H   0  0  0  0  0  0  0  0  0  0  0  0
   30.5700   26.8910   47.2240 N   0  0  0  0  0  0  0  0  0  0  0  0
   36.5990   29.8510   48.2100 O   0  0  0  0  0  0  0  0  0  0  0  0
   37.4190   30.9740   48.2820 C   0  0  0  0  0  0  0  0  0  0  0  0
   37.5780   31.5500   49.5290 C   0  0  0  0  0  0  0  0  0  0  0  0
   38.3890   32.6690   49.6330 C   0  0  0  0  0  0  0  0  0  0  0  0
   38.9900   33.1520   48.5090 N   0  0  0  0  0  0  0  0  0  0  0  0
   38.8230   32.5810   47.3070 C   0  0  0  0  0  0  0  0  0  0  0  0
   38.0470   31.5100   47.2140 N   0  0  0  0  0  0  0  0  0  0  0  0
   40.3340   32.1800   45.5250 C   0  0  0  0  0  0  0  0  0  0  0  0
   40.5830   30.9870   45.8700 O   0  0  0  0  0  0  0  0  0  0  0  0
   39.4650   33.1160   46.1530 N   0  0  0  0  0  0  0  0  0  0  0  0
   37.0880   31.1430   50.4030 H   0  0  0  0  0  0  0  0  0  0  0  0
   38.5090   33.1120   50.6020 H   0  0  0  0  0  0  0  0  0  0  0  0
   40.9020   32.4170   44.6350 H   0  0  0  0  0  0  0  0  0  0  0  0
   39.4200   34.0300   45.6950 H   0  0  0  0  0  0  0  0  0  0  0  0
  2  1  2  0  0  0  0
  3  7  1  1  0  0  0
  3  2  1  0  0  0  0
  4  5  1  0  0  0  0
  4  3  1  0  0  0  0
  5 11  1  0  0  0  0
  5  6  1  0  0  0  0
  6 12  1  0  0  0  0
  6  2  1  0  0  0  0
  8  4  1  0  0  0  0
  9  4  1  0  0  0  0
 10  5  1  0  0  0  0
 12 15  1  0  0  0  0
 12 14  1  0  0  0  0
 13 12  1  0  0  0  0
 15 16  2  0  0  0  0
 16 17  1  0  0  0  0
 18 16  1  0  0  0  0
 19 18  1  0  0  0  0
 20 19  1  0  0  0  0
 21 19  2  0  0  0  0
 21 15  1  0  0  0  0
 22 23  1  0  0  0  0
 22  3  1  0  0  0  0
 23 24  1  0  0  0  0
 24 25  2  0  0  0  0
 24 32  1  0  0  0  0
 25 33  1  0  0  0  0
 26 25  1  0  0  0  0
 27 26  2  0  0  0  0
 28 27  1  0  0  0  0
 28 23  2  0  0  0  0
 29 30  2  0  0  0  0
 29 31  1  0  0  0  0
 31 27  1  0  0  0  0
 34 29  1  0  0  0  0
 35 31  1  0  0  0  0
M  END
>  <minimizedAffinity>
-5.70541763

>  <minimizedRMSD>
3.00881171

$$$$
