
 OpenBabel03272502393D

 38 41  0  0  1  0  0  0  0  0999 V2000
   32.3860   27.9180   48.8340 N   0  0  0  0  0  0  0  0  0  0  0  0
   33.2410   27.2100   47.8910 C   0  0  0  0  0  0  0  0  0  0  0  0
   34.5420   27.9500   47.9910 C   0  0  0  0  0  0  0  0  0  0  0  0
   34.2310   29.2080   48.9180 C   0  0  1  0  0  0  0  0  0  0  0  0
   33.2420   28.6120   49.8210 C   0  0  0  0  0  0  0  0  0  0  0  0
   32.8600   27.3700   46.8660 H   0  0  0  0  0  0  0  0  0  0  0  0
   33.3890   26.1510   48.1330 H   0  0  0  0  0  0  0  0  0  0  0  0
   35.3230   27.4210   48.5540 H   0  0  0  0  0  0  0  0  0  0  0  0
   34.9360   28.3600   47.0650 H   0  0  0  0  0  0  0  0  0  0  0  0
   33.8480   29.8940   48.1540 H   0  0  0  0  0  0  0  0  0  0  0  0
   33.7370   27.8360   50.4590 H   0  0  0  0  0  0  0  0  0  0  0  0
   32.6420   29.3060   50.4140 H   0  0  0  0  0  0  0  0  0  0  0  0
   36.0120   30.9340   47.5520 F   0  0  0  0  0  0  0  0  0  0  0  0
   36.2540   30.5090   48.8030 C   0  0  0  0  0  0  0  0  0  0  0  0
   35.4860   29.6400   49.5330 C   0  0  0  0  0  0  0  0  0  0  0  0
   35.9100   29.3220   50.8330 C   0  0  0  0  0  0  0  0  0  0  0  0
   37.0520   29.8480   51.3840 C   0  0  0  0  0  0  0  0  0  0  0  0
   37.8130   30.7330   50.6090 C   0  0  0  0  0  0  0  0  0  0  0  0
   37.4030   31.0630   49.2970 C   0  0  0  0  0  0  0  0  0  0  0  0
   35.2460   28.6300   51.3300 H   0  0  0  0  0  0  0  0  0  0  0  0
   37.3130   29.5650   52.3750 H   0  0  0  0  0  0  0  0  0  0  0  0
   38.6820   31.0810   51.1340 H   0  0  0  0  0  0  0  0  0  0  0  0
   38.2730   32.0140   48.6080 C   0  0  0  0  0  0  0  0  0  0  0  0
   38.8220   31.6150   47.2880 C   0  0  0  0  0  0  0  0  0  0  0  0
   38.8020   30.8560   46.6480 H   0  0  0  0  0  0  0  0  0  0  0  0
   39.8160   32.9780   46.7930 S   0  0  0  0  0  0  0  0  0  0  0  0
   39.4070   33.9460   48.3850 C   0  0  0  0  0  0  0  0  0  0  0  0
   39.5610   35.0050   49.0770 H   0  0  0  0  0  0  0  0  0  0  0  0
   38.5430   33.1720   49.1890 N   0  0  0  0  0  0  0  0  0  0  0  0
   30.9820   27.9690   48.8400 C   0  0  0  0  0  0  0  0  0  0  0  0
   30.3710   28.0650   47.5800 C   0  0  0  0  0  0  0  0  0  0  0  0
   28.9690   28.1250   47.5030 C   0  0  0  0  0  0  0  0  0  0  0  0
   28.2870   28.0840   48.7050 N   0  0  0  0  0  0  0  0  0  0  0  0
   28.9160   27.9920   49.8930 C   0  0  0  0  0  0  0  0  0  0  0  0
   30.2570   27.9350   49.9460 N   0  0  0  0  0  0  0  0  0  0  0  0
   30.8580   28.0990   46.6380 H   0  0  0  0  0  0  0  0  0  0  0  0
   28.4580   28.1990   46.5600 H   0  0  0  0  0  0  0  0  0  0  0  0
   28.3490   27.9630   50.8010 H   0  0  0  0  0  0  0  0  0  0  0  0
  1 30  1  0  0  0  0
  1  5  1  0  0  0  0
  2  3  1  0  0  0  0
  2  7  1  0  0  0  0
  2  1  1  0  0  0  0
  3  8  1  0  0  0  0
  3  4  1  0  0  0  0
  4 10  1  6  0  0  0
  4 15  1  0  0  0  0
  4  5  1  0  0  0  0
  5 12  1  0  0  0  0
  5 11  1  0  0  0  0
  6  2  1  0  0  0  0
  9  3  1  0  0  0  0
 13 14  1  0  0  0  0
 14 19  2  0  0  0  0
 14 15  1  0  0  0  0
 15 16  2  0  0  0  0
 16 20  1  0  0  0  0
 16 17  1  0  0  0  0
 17 21  1  0  0  0  0
 18 22  1  0  0  0  0
 18 17  2  0  0  0  0
 19 18  1  0  0  0  0
 23 29  1  0  0  0  0
 23 19  1  0  0  0  0
 24 23  2  0  0  0  0
 25 24  1  0  0  0  0
 26 24  1  0  0  0  0
 26 27  1  0  0  0  0
 27 28  1  0  0  0  0
 27 29  2  0  0  0  0
 30 35  1  0  0  0  0
 31 30  2  0  0  0  0
 32 31  1  0  0  0  0
 32 33  2  0  0  0  0
 33 34  1  0  0  0  0
 34 35  2  0  0  0  0
 34 38  1  0  0  0  0
 36 31  1  0  0  0  0
 37 32  1  0  0  0  0
M  END
>  <minimizedAffinity>
-6.56915903

>  <minimizedRMSD>
3.09380984

$$$$
