
 OpenBabel03272503353D

 39 42  0  0  1  0  0  0  0  0999 V2000
   37.8430   24.4170   33.1380 C   0  0  0  0  0  0  0  0  0  0  0  0
   36.9190   23.5220   32.5780 C   0  0  0  0  0  0  0  0  0  0  0  0
   36.1420   23.9950   31.5180 C   0  0  0  0  0  0  0  0  0  0  0  0
   36.3360   25.2900   31.1060 N   0  0  0  0  0  0  0  0  0  0  0  0
   37.2280   26.1050   31.6700 C   0  0  0  0  0  0  0  0  0  0  0  0
   37.9930   25.6720   32.6970 N   0  0  0  0  0  0  0  0  0  0  0  0
   36.7600   22.5150   32.8890 H   0  0  0  0  0  0  0  0  0  0  0  0
   35.4090   23.3570   31.0390 H   0  0  0  0  0  0  0  0  0  0  0  0
   38.6410   23.9310   34.2250 N   0  0  0  0  0  0  0  0  0  0  0  0
   39.0000   24.6290   35.4200 C   0  0  0  0  0  0  0  0  0  0  0  0
   39.1680   23.4950   36.4310 C   0  0  2  0  0  0  0  0  0  0  0  0
   38.7590   22.2200   35.7050 C   0  0  0  0  0  0  0  0  0  0  0  0
   39.2470   22.6050   34.3150 C   0  0  0  0  0  0  0  0  0  0  0  0
   38.1770   25.2830   35.7270 H   0  0  0  0  0  0  0  0  0  0  0  0
   39.9760   25.1440   35.3510 H   0  0  0  0  0  0  0  0  0  0  0  0
   40.2240   23.3730   36.7450 H   0  0  0  0  0  0  0  0  0  0  0  0
   39.3230   21.3450   36.1200 H   0  0  0  0  0  0  0  0  0  0  0  0
   37.6790   22.0710   35.7000 H   0  0  0  0  0  0  0  0  0  0  0  0
   38.9260   21.9220   33.5280 H   0  0  0  0  0  0  0  0  0  0  0  0
   40.3330   22.7570   34.3840 H   0  0  0  0  0  0  0  0  0  0  0  0
   38.3570   23.7230   37.6840 C   0  0  0  0  0  0  0  0  0  0  0  0
   38.0950   25.0750   37.7510 F   0  0  0  0  0  0  0  0  0  0  0  0
   39.1750   23.4280   38.7550 F   0  0  0  0  0  0  0  0  0  0  0  0
   37.2110   22.9760   37.7250 F   0  0  0  0  0  0  0  0  0  0  0  0
   37.4210   27.7650   31.0810 S   0  0  0  0  0  0  0  0  0  0  0  0
   36.6360   29.0050   31.8980 C   0  0  0  0  0  0  0  0  0  0  0  0
   36.2390   30.3020   31.7600 C   0  0  0  0  0  0  0  0  0  0  0  0
   35.5890   31.0380   32.6940 C   0  0  0  0  0  0  0  0  0  0  0  0
   35.3320   30.2740   33.9400 C   0  0  0  0  0  0  0  0  0  0  0  0
   36.0370   28.6260   33.6340 S   0  0  0  0  0  0  0  0  0  0  0  0
   36.5210   30.6680   30.7850 H   0  0  0  0  0  0  0  0  0  0  0  0
   35.2890   32.0430   32.5710 H   0  0  0  0  0  0  0  0  0  0  0  0
   34.6550   30.8040   35.1080 C   0  0  0  0  0  0  0  0  0  0  0  0
   33.3010   30.5230   35.4120 C   0  0  0  0  0  0  0  0  0  0  0  0
   32.6630   29.9090   34.8240 H   0  0  0  0  0  0  0  0  0  0  0  0
   33.1070   31.5100   37.0150 S   0  0  0  0  0  0  0  0  0  0  0  0
   34.9090   32.0870   36.9180 C   0  0  0  0  0  0  0  0  0  0  0  0
   35.2590   32.7340   37.7090 H   0  0  0  0  0  0  0  0  0  0  0  0
   35.3600   31.5940   35.9270 N   0  0  0  0  0  0  0  0  0  0  0  0
  1  9  1  0  0  0  0
  2  7  1  0  0  0  0
  2  1  2  0  0  0  0
  3  2  1  0  0  0  0
  4  3  2  0  0  0  0
  4  5  1  0  0  0  0
  5  6  2  0  0  0  0
  6  1  1  0  0  0  0
  8  3  1  0  0  0  0
  9 13  1  0  0  0  0
  9 10  1  0  0  0  0
 10 14  1  0  0  0  0
 10 11  1  0  0  0  0
 11 16  1  1  0  0  0
 11 21  1  0  0  0  0
 12 17  1  0  0  0  0
 12 11  1  0  0  0  0
 13 20  1  0  0  0  0
 13 12  1  0  0  0  0
 15 10  1  0  0  0  0
 18 12  1  0  0  0  0
 19 13  1  0  0  0  0
 21 24  1  0  0  0  0
 21 22  1  0  0  0  0
 21 23  1  0  0  0  0
 25  5  1  0  0  0  0
 25 26  1  0  0  0  0
 26 30  1  0  0  0  0
 27 26  2  0  0  0  0
 27 28  1  0  0  0  0
 28 29  2  0  0  0  0
 29 33  1  0  0  0  0
 30 29  1  0  0  0  0
 31 27  1  0  0  0  0
 32 28  1  0  0  0  0
 33 34  2  0  0  0  0
 33 39  1  0  0  0  0
 34 36  1  0  0  0  0
 35 34  1  0  0  0  0
 37 36  1  0  0  0  0
 37 38  1  0  0  0  0
 39 37  2  0  0  0  0
M  END
>  <minimizedAffinity>
-5.90898418

$$$$

 OpenBabel03272503353D

 39 42  0  0  1  0  0  0  0  0999 V2000
   36.1180   30.8710   31.9200 C   0  0  0  0  0  0  0  0  0  0  0  0
   36.4510   31.3420   30.6410 C   0  0  0  0  0  0  0  0  0  0  0  0
   36.8630   30.3910   29.7040 C   0  0  0  0  0  0  0  0  0  0  0  0
   36.9110   29.0780   30.0990 N   0  0  0  0  0  0  0  0  0  0  0  0
   36.5850   28.6770   31.3290 C   0  0  0  0  0  0  0  0  0  0  0  0
   36.1840   29.5760   32.2540 N   0  0  0  0  0  0  0  0  0  0  0  0
   36.4170   32.3590   30.3220 H   0  0  0  0  0  0  0  0  0  0  0  0
   37.1340   30.6850   28.6970 H   0  0  0  0  0  0  0  0  0  0  0  0
   35.6960   31.8470   32.8810 N   0  0  0  0  0  0  0  0  0  0  0  0
   34.6120   31.7430   33.8080 C   0  0  0  0  0  0  0  0  0  0  0  0
   35.0720   32.6330   34.9610 C   0  0  2  0  0  0  0  0  0  0  0  0
   36.4840   33.0840   34.6080 C   0  0  0  0  0  0  0  0  0  0  0  0
   36.3090   33.1550   33.0970 C   0  0  0  0  0  0  0  0  0  0  0  0
   34.5180   30.7070   34.1520 H   0  0  0  0  0  0  0  0  0  0  0  0
   33.6670   32.1730   33.4280 H   0  0  0  0  0  0  0  0  0  0  0  0
   34.4480   33.5450   35.0560 H   0  0  0  0  0  0  0  0  0  0  0  0
   36.6870   34.0920   35.0540 H   0  0  0  0  0  0  0  0  0  0  0  0
   37.2360   32.3400   34.8680 H   0  0  0  0  0  0  0  0  0  0  0  0
   37.2400   33.2980   32.5500 H   0  0  0  0  0  0  0  0  0  0  0  0
   35.5310   33.9060   32.8970 H   0  0  0  0  0  0  0  0  0  0  0  0
   35.0170   31.9200   36.2910 C   0  0  0  0  0  0  0  0  0  0  0  0
   35.1440   32.8860   37.2670 F   0  0  0  0  0  0  0  0  0  0  0  0
   36.1440   31.1280   36.3730 F   0  0  0  0  0  0  0  0  0  0  0  0
   33.8830   31.1730   36.4530 F   0  0  0  0  0  0  0  0  0  0  0  0
   36.6740   26.9620   31.7640 S   0  0  0  0  0  0  0  0  0  0  0  0
   37.2160   26.5470   33.2980 C   0  0  0  0  0  0  0  0  0  0  0  0
   37.2920   27.0180   34.5750 C   0  0  0  0  0  0  0  0  0  0  0  0
   37.8410   26.3680   35.6310 C   0  0  0  0  0  0  0  0  0  0  0  0
   38.3780   25.0350   35.2590 C   0  0  0  0  0  0  0  0  0  0  0  0
   38.0400   24.8730   33.4800 S   0  0  0  0  0  0  0  0  0  0  0  0
   36.8460   27.9990   34.6300 H   0  0  0  0  0  0  0  0  0  0  0  0
   37.8920   26.7470   36.6150 H   0  0  0  0  0  0  0  0  0  0  0  0
   39.0200   24.1180   36.1800 C   0  0  0  0  0  0  0  0  0  0  0  0
   40.2000   23.4030   35.8630 C   0  0  0  0  0  0  0  0  0  0  0  0
   40.7180   23.4680   34.9370 H   0  0  0  0  0  0  0  0  0  0  0  0
   40.4510   22.4420   37.4740 S   0  0  0  0  0  0  0  0  0  0  0  0
   38.8960   23.2240   38.2230 C   0  0  0  0  0  0  0  0  0  0  0  0
   38.6360   22.9300   39.2290 H   0  0  0  0  0  0  0  0  0  0  0  0
   38.4560   23.9530   37.3830 N   0  0  0  0  0  0  0  0  0  0  0  0
  1  6  1  0  0  0  0
  1  9  1  0  0  0  0
  2  1  2  0  0  0  0
  3  4  2  0  0  0  0
  3  2  1  0  0  0  0
  4  5  1  0  0  0  0
  5 25  1  0  0  0  0
  5  6  2  0  0  0  0
  7  2  1  0  0  0  0
  8  3  1  0  0  0  0
  9 13  1  0  0  0  0
  9 10  1  0  0  0  0
 10 14  1  0  0  0  0
 10 11  1  0  0  0  0
 11 16  1  1  0  0  0
 11 21  1  0  0  0  0
 12 18  1  0  0  0  0
 12 11  1  0  0  0  0
 12 17  1  0  0  0  0
 13 12  1  0  0  0  0
 15 10  1  0  0  0  0
 19 13  1  0  0  0  0
 20 13  1  0  0  0  0
 21 23  1  0  0  0  0
 21 24  1  0  0  0  0
 21 22  1  0  0  0  0
 25 26  1  0  0  0  0
 26 30  1  0  0  0  0
 26 27  2  0  0  0  0
 27 31  1  0  0  0  0
 27 28  1  0  0  0  0
 28 32  1  0  0  0  0
 29 28  2  0  0  0  0
 29 33  1  0  0  0  0
 30 29  1  0  0  0  0
 33 39  1  0  0  0  0
 34 33  2  0  0  0  0
 34 36  1  0  0  0  0
 35 34  1  0  0  0  0
 36 37  1  0  0  0  0
 37 38  1  0  0  0  0
 39 37  2  0  0  0  0
M  END
>  <minimizedAffinity>
-5.82392311

$$$$

 OpenBabel03272503353D

 39 42  0  0  1  0  0  0  0  0999 V2000
   36.3890   29.7910   31.6560 C   0  0  0  0  0  0  0  0  0  0  0  0
   36.5650   30.1900   30.3220 C   0  0  0  0  0  0  0  0  0  0  0  0
   37.2280   29.2980   29.4760 C   0  0  0  0  0  0  0  0  0  0  0  0
   37.6560   28.1070   30.0060 N   0  0  0  0  0  0  0  0  0  0  0  0
   37.4670   27.7710   31.2830 C   0  0  0  0  0  0  0  0  0  0  0  0
   36.8280   28.6160   32.1220 N   0  0  0  0  0  0  0  0  0  0  0  0
   36.2370   31.1120   29.8990 H   0  0  0  0  0  0  0  0  0  0  0  0
   37.3970   29.5420   28.4340 H   0  0  0  0  0  0  0  0  0  0  0  0
   35.7090   30.7070   32.5230 N   0  0  0  0  0  0  0  0  0  0  0  0
   35.1930   30.4460   33.8310 C   0  0  0  0  0  0  0  0  0  0  0  0
   35.2710   31.8170   34.5000 C   0  0  2  0  0  0  0  0  0  0  0  0
   35.9590   32.7370   33.4990 C   0  0  0  0  0  0  0  0  0  0  0  0
   35.4120   32.1060   32.2260 C   0  0  0  0  0  0  0  0  0  0  0  0
   35.8480   29.7390   34.3520 H   0  0  0  0  0  0  0  0  0  0  0  0
   34.1280   30.1500   33.8310 H   0  0  0  0  0  0  0  0  0  0  0  0
   34.2650   32.2390   34.6990 H   0  0  0  0  0  0  0  0  0  0  0  0
   35.5990   33.7890   33.6340 H   0  0  0  0  0  0  0  0  0  0  0  0
   37.0450   32.6470   33.5300 H   0  0  0  0  0  0  0  0  0  0  0  0
   35.8840   32.4700   31.3130 H   0  0  0  0  0  0  0  0  0  0  0  0
   34.3180   32.2110   32.2580 H   0  0  0  0  0  0  0  0  0  0  0  0
   35.9990   31.7670   35.8220 C   0  0  0  0  0  0  0  0  0  0  0  0
   37.0110   32.7010   35.7560 F   0  0  0  0  0  0  0  0  0  0  0  0
   36.6090   30.5320   35.9020 F   0  0  0  0  0  0  0  0  0  0  0  0
   35.1770   31.9770   36.8960 F   0  0  0  0  0  0  0  0  0  0  0  0
   38.0500   26.2130   31.8940 S   0  0  0  0  0  0  0  0  0  0  0  0
   37.0750   24.8590   31.7070 C   0  0  0  0  0  0  0  0  0  0  0  0
   35.8450   24.4720   31.2640 C   0  0  0  0  0  0  0  0  0  0  0  0
   35.3590   23.2060   31.2700 C   0  0  0  0  0  0  0  0  0  0  0  0
   36.3290   22.2300   31.8260 C   0  0  0  0  0  0  0  0  0  0  0  0
   37.7910   23.2180   32.2650 S   0  0  0  0  0  0  0  0  0  0  0  0
   35.3000   25.3310   30.9020 H   0  0  0  0  0  0  0  0  0  0  0  0
   34.4030   22.9230   30.9240 H   0  0  0  0  0  0  0  0  0  0  0  0
   36.0840   20.8070   31.9560 C   0  0  0  0  0  0  0  0  0  0  0  0
   35.4800   20.2270   33.0980 C   0  0  0  0  0  0  0  0  0  0  0  0
   35.1550   20.7670   33.9530 H   0  0  0  0  0  0  0  0  0  0  0  0
   35.4810   18.4040   32.5850 S   0  0  0  0  0  0  0  0  0  0  0  0
   36.3010   18.8340   30.9320 C   0  0  0  0  0  0  0  0  0  0  0  0
   36.5060   18.0140   30.2600 H   0  0  0  0  0  0  0  0  0  0  0  0
   36.4530   20.0200   30.9370 N   0  0  0  0  0  0  0  0  0  0  0  0
  1  6  1  0  0  0  0
  1  9  1  0  0  0  0
  2  1  2  0  0  0  0
  3  4  2  0  0  0  0
  3  2  1  0  0  0  0
  4  5  1  0  0  0  0
  5 25  1  0  0  0  0
  5  6  2  0  0  0  0
  7  2  1  0  0  0  0
  8  3  1  0  0  0  0
  9 10  1  0  0  0  0
 10 14  1  0  0  0  0
 10 11  1  0  0  0  0
 11 16  1  1  0  0  0
 11 21  1  0  0  0  0
 12 18  1  0  0  0  0
 12 17  1  0  0  0  0
 12 11  1  0  0  0  0
 13 20  1  0  0  0  0
 13  9  1  0  0  0  0
 13 12  1  0  0  0  0
 15 10  1  0  0  0  0
 19 13  1  0  0  0  0
 21 23  1  0  0  0  0
 21 24  1  0  0  0  0
 22 21  1  0  0  0  0
 26 25  1  0  0  0  0
 26 30  1  0  0  0  0
 27 28  1  0  0  0  0
 27 26  2  0  0  0  0
 28 29  2  0  0  0  0
 29 33  1  0  0  0  0
 29 30  1  0  0  0  0
 31 27  1  0  0  0  0
 32 28  1  0  0  0  0
 33 34  2  0  0  0  0
 34 35  1  0  0  0  0
 36 34  1  0  0  0  0
 37 39  2  0  0  0  0
 37 36  1  0  0  0  0
 38 37  1  0  0  0  0
 39 33  1  0  0  0  0
M  END
>  <minimizedAffinity>
-5.77521706

$$$$

 OpenBabel03272503353D

 39 42  0  0  1  0  0  0  0  0999 V2000
   37.4800   24.1450   33.0770 C   0  0  0  0  0  0  0  0  0  0  0  0
   36.9340   23.0880   32.3340 C   0  0  0  0  0  0  0  0  0  0  0  0
   36.0530   23.4260   31.3050 C   0  0  0  0  0  0  0  0  0  0  0  0
   35.7870   24.7570   31.0970 N   0  0  0  0  0  0  0  0  0  0  0  0
   36.3310   25.7280   31.8310 C   0  0  0  0  0  0  0  0  0  0  0  0
   37.1870   25.4290   32.8330 N   0  0  0  0  0  0  0  0  0  0  0  0
   37.1330   22.0510   32.4860 H   0  0  0  0  0  0  0  0  0  0  0  0
   35.5950   22.6590   30.6910 H   0  0  0  0  0  0  0  0  0  0  0  0
   38.3850   23.7980   34.1330 N   0  0  0  0  0  0  0  0  0  0  0  0
   38.7560   24.5970   35.2590 C   0  0  0  0  0  0  0  0  0  0  0  0
   39.0860   23.5480   36.3200 C   0  0  2  0  0  0  0  0  0  0  0  0
   38.7450   22.1990   35.6980 C   0  0  0  0  0  0  0  0  0  0  0  0
   39.1090   22.5350   34.2580 C   0  0  0  0  0  0  0  0  0  0  0  0
   37.9000   25.1990   35.5830 H   0  0  0  0  0  0  0  0  0  0  0  0
   39.6770   25.1870   35.0930 H   0  0  0  0  0  0  0  0  0  0  0  0
   40.1670   23.5350   36.5670 H   0  0  0  0  0  0  0  0  0  0  0  0
   39.4090   21.4030   36.1240 H   0  0  0  0  0  0  0  0  0  0  0  0
   37.6850   21.9610   35.7760 H   0  0  0  0  0  0  0  0  0  0  0  0
   38.7990   21.7800   33.5360 H   0  0  0  0  0  0  0  0  0  0  0  0
   40.1800   22.7810   34.2440 H   0  0  0  0  0  0  0  0  0  0  0  0
   38.3400   23.7860   37.6100 C   0  0  0  0  0  0  0  0  0  0  0  0
   39.1010   23.2350   38.6200 F   0  0  0  0  0  0  0  0  0  0  0  0
   37.1760   23.0480   37.5480 F   0  0  0  0  0  0  0  0  0  0  0  0
   38.0670   25.1080   37.8370 F   0  0  0  0  0  0  0  0  0  0  0  0
   35.9380   27.4250   31.5010 S   0  0  0  0  0  0  0  0  0  0  0  0
   35.6580   28.4530   32.7990 C   0  0  0  0  0  0  0  0  0  0  0  0
   36.2370   28.9310   33.9370 C   0  0  0  0  0  0  0  0  0  0  0  0
   35.6740   29.8040   34.8090 C   0  0  0  0  0  0  0  0  0  0  0  0
   34.3090   30.2150   34.3980 C   0  0  0  0  0  0  0  0  0  0  0  0
   33.9970   29.3220   32.8450 S   0  0  0  0  0  0  0  0  0  0  0  0
   37.2240   28.5100   34.0490 H   0  0  0  0  0  0  0  0  0  0  0  0
   36.1370   30.1660   35.6860 H   0  0  0  0  0  0  0  0  0  0  0  0
   33.4680   31.1380   35.1360 C   0  0  0  0  0  0  0  0  0  0  0  0
   32.4380   31.8980   34.5310 C   0  0  0  0  0  0  0  0  0  0  0  0
   32.1870   31.8670   33.4990 H   0  0  0  0  0  0  0  0  0  0  0  0
   31.7900   32.8400   36.0400 S   0  0  0  0  0  0  0  0  0  0  0  0
   33.0620   31.9920   37.1590 C   0  0  0  0  0  0  0  0  0  0  0  0
   33.0490   32.2600   38.2050 H   0  0  0  0  0  0  0  0  0  0  0  0
   33.6910   31.2630   36.4500 N   0  0  0  0  0  0  0  0  0  0  0  0
  1  9  1  0  0  0  0
  2  7  1  0  0  0  0
  2  1  2  0  0  0  0
  3  2  1  0  0  0  0
  4  3  2  0  0  0  0
  4  5  1  0  0  0  0
  5  6  2  0  0  0  0
  6  1  1  0  0  0  0
  8  3  1  0  0  0  0
  9 13  1  0  0  0  0
  9 10  1  0  0  0  0
 10 14  1  0  0  0  0
 10 11  1  0  0  0  0
 11 16  1  1  0  0  0
 11 21  1  0  0  0  0
 12 18  1  0  0  0  0
 12 17  1  0  0  0  0
 12 11  1  0  0  0  0
 13 12  1  0  0  0  0
 15 10  1  0  0  0  0
 19 13  1  0  0  0  0
 20 13  1  0  0  0  0
 21 24  1  0  0  0  0
 21 22  1  0  0  0  0
 23 21  1  0  0  0  0
 25  5  1  0  0  0  0
 25 26  1  0  0  0  0
 26 30  1  0  0  0  0
 26 27  2  0  0  0  0
 27 31  1  0  0  0  0
 27 28  1  0  0  0  0
 28 32  1  0  0  0  0
 29 28  2  0  0  0  0
 29 33  1  0  0  0  0
 30 29  1  0  0  0  0
 33 39  1  0  0  0  0
 34 33  2  0  0  0  0
 34 36  1  0  0  0  0
 35 34  1  0  0  0  0
 36 37  1  0  0  0  0
 37 38  1  0  0  0  0
 39 37  2  0  0  0  0
M  END
>  <minimizedAffinity>
-5.76274538

$$$$

 OpenBabel03272503353D

 39 42  0  0  1  0  0  0  0  0999 V2000
   33.4120   29.9100   32.6350 C   0  0  0  0  0  0  0  0  0  0  0  0
   33.6470   31.0660   31.8770 C   0  0  0  0  0  0  0  0  0  0  0  0
   34.8360   31.1130   31.1450 C   0  0  0  0  0  0  0  0  0  0  0  0
   35.6800   30.0330   31.2200 N   0  0  0  0  0  0  0  0  0  0  0  0
   35.4130   28.9540   31.9560 C   0  0  0  0  0  0  0  0  0  0  0  0
   34.2710   28.8830   32.6730 N   0  0  0  0  0  0  0  0  0  0  0  0
   33.0000   31.9110   31.8110 H   0  0  0  0  0  0  0  0  0  0  0  0
   35.0810   31.9760   30.5370 H   0  0  0  0  0  0  0  0  0  0  0  0
   32.1920   29.8630   33.3860 N   0  0  0  0  0  0  0  0  0  0  0  0
   31.3150   28.7450   33.5510 C   0  0  0  0  0  0  0  0  0  0  0  0
   30.6820   29.0160   34.9150 C   0  0  2  0  0  0  0  0  0  0  0  0
   31.3780   30.2550   35.4640 C   0  0  0  0  0  0  0  0  0  0  0  0
   31.6080   30.9700   34.1390 C   0  0  0  0  0  0  0  0  0  0  0  0
   31.8990   27.8190   33.5870 H   0  0  0  0  0  0  0  0  0  0  0  0
   30.4910   28.7230   32.8140 H   0  0  0  0  0  0  0  0  0  0  0  0
   29.6020   29.2530   34.8310 H   0  0  0  0  0  0  0  0  0  0  0  0
   30.6800   30.8230   36.1310 H   0  0  0  0  0  0  0  0  0  0  0  0
   32.3310   30.0220   35.9390 H   0  0  0  0  0  0  0  0  0  0  0  0
   32.2590   31.8410   34.2130 H   0  0  0  0  0  0  0  0  0  0  0  0
   30.6190   31.1640   33.7000 H   0  0  0  0  0  0  0  0  0  0  0  0
   30.8050   27.8340   35.8460 C   0  0  0  0  0  0  0  0  0  0  0  0
   30.4140   26.7210   35.1320 F   0  0  0  0  0  0  0  0  0  0  0  0
   29.8710   28.0070   36.8470 F   0  0  0  0  0  0  0  0  0  0  0  0
   32.0610   27.6910   36.3700 F   0  0  0  0  0  0  0  0  0  0  0  0
   36.5550   27.5980   32.0020 S   0  0  0  0  0  0  0  0  0  0  0  0
   37.1540   27.1010   33.4900 C   0  0  0  0  0  0  0  0  0  0  0  0
   37.3940   27.5460   34.7560 C   0  0  0  0  0  0  0  0  0  0  0  0
   37.9290   26.8170   35.7670 C   0  0  0  0  0  0  0  0  0  0  0  0
   38.2450   25.4270   35.3570 C   0  0  0  0  0  0  0  0  0  0  0  0
   37.7500   25.3280   33.6110 S   0  0  0  0  0  0  0  0  0  0  0  0
   37.0930   28.5790   34.8440 H   0  0  0  0  0  0  0  0  0  0  0  0
   38.1090   27.1780   36.7430 H   0  0  0  0  0  0  0  0  0  0  0  0
   38.8260   24.4220   36.2270 C   0  0  0  0  0  0  0  0  0  0  0  0
   39.9710   23.6660   35.8800 C   0  0  0  0  0  0  0  0  0  0  0  0
   40.5060   23.7600   34.9660 H   0  0  0  0  0  0  0  0  0  0  0  0
   40.1480   22.5960   37.4310 S   0  0  0  0  0  0  0  0  0  0  0  0
   38.6250   23.4130   38.2090 C   0  0  0  0  0  0  0  0  0  0  0  0
   38.3350   23.0720   39.1920 H   0  0  0  0  0  0  0  0  0  0  0  0
   38.2360   24.2140   37.4110 N   0  0  0  0  0  0  0  0  0  0  0  0
  1  6  1  0  0  0  0
  1  9  1  0  0  0  0
  2  1  2  0  0  0  0
  3  4  2  0  0  0  0
  3  2  1  0  0  0  0
  4  5  1  0  0  0  0
  5 25  1  0  0  0  0
  5  6  2  0  0  0  0
  7  2  1  0  0  0  0
  8  3  1  0  0  0  0
  9 10  1  0  0  0  0
  9 13  1  0  0  0  0
 10 14  1  0  0  0  0
 10 11  1  0  0  0  0
 11 16  1  6  0  0  0
 11 12  1  0  0  0  0
 11 21  1  0  0  0  0
 12 18  1  0  0  0  0
 12 17  1  0  0  0  0
 13 19  1  0  0  0  0
 13 12  1  0  0  0  0
 15 10  1  0  0  0  0
 20 13  1  0  0  0  0
 21 24  1  0  0  0  0
 21 23  1  0  0  0  0
 22 21  1  0  0  0  0
 25 26  1  0  0  0  0
 26 30  1  0  0  0  0
 26 27  2  0  0  0  0
 27 31  1  0  0  0  0
 27 28  1  0  0  0  0
 28 32  1  0  0  0  0
 29 28  2  0  0  0  0
 29 33  1  0  0  0  0
 30 29  1  0  0  0  0
 33 39  1  0  0  0  0
 34 33  2  0  0  0  0
 34 36  1  0  0  0  0
 35 34  1  0  0  0  0
 36 37  1  0  0  0  0
 37 38  1  0  0  0  0
 39 37  2  0  0  0  0
M  END
>  <minimizedAffinity>
-5.76181316

$$$$

 OpenBabel03272503353D

 39 42  0  0  1  0  0  0  0  0999 V2000
   37.5160   24.1500   33.0640 C   0  0  0  0  0  0  0  0  0  0  0  0
   36.9060   23.0990   32.3640 C   0  0  0  0  0  0  0  0  0  0  0  0
   36.0360   23.4480   31.3290 C   0  0  0  0  0  0  0  0  0  0  0  0
   35.8420   24.7820   31.0740 N   0  0  0  0  0  0  0  0  0  0  0  0
   36.4440   25.7480   31.7690 C   0  0  0  0  0  0  0  0  0  0  0  0
   37.2910   25.4380   32.7750 N   0  0  0  0  0  0  0  0  0  0  0  0
   37.0490   22.0590   32.5520 H   0  0  0  0  0  0  0  0  0  0  0  0
   35.5320   22.6860   30.7460 H   0  0  0  0  0  0  0  0  0  0  0  0
   38.4090   23.7920   34.1260 N   0  0  0  0  0  0  0  0  0  0  0  0
   38.7860   24.5890   35.2520 C   0  0  0  0  0  0  0  0  0  0  0  0
   39.0940   23.5380   36.3170 C   0  0  2  0  0  0  0  0  0  0  0  0
   38.7350   22.1930   35.6980 C   0  0  0  0  0  0  0  0  0  0  0  0
   39.1120   22.5180   34.2590 C   0  0  0  0  0  0  0  0  0  0  0  0
   37.9380   25.2050   35.5700 H   0  0  0  0  0  0  0  0  0  0  0  0
   39.7170   25.1630   35.0900 H   0  0  0  0  0  0  0  0  0  0  0  0
   40.1730   23.5080   36.5710 H   0  0  0  0  0  0  0  0  0  0  0  0
   39.3840   21.3870   36.1290 H   0  0  0  0  0  0  0  0  0  0  0  0
   37.6710   21.9710   35.7710 H   0  0  0  0  0  0  0  0  0  0  0  0
   38.7950   21.7650   33.5380 H   0  0  0  0  0  0  0  0  0  0  0  0
   40.1870   22.7480   34.2500 H   0  0  0  0  0  0  0  0  0  0  0  0
   38.3440   23.7910   37.6030 C   0  0  0  0  0  0  0  0  0  0  0  0
   39.1090   23.2650   38.6220 F   0  0  0  0  0  0  0  0  0  0  0  0
   37.1870   23.0410   37.5530 F   0  0  0  0  0  0  0  0  0  0  0  0
   38.0600   25.1140   37.8070 F   0  0  0  0  0  0  0  0  0  0  0  0
   36.1420   27.4510   31.3800 S   0  0  0  0  0  0  0  0  0  0  0  0
   35.9780   28.5480   32.6420 C   0  0  0  0  0  0  0  0  0  0  0  0
   35.9430   28.6250   34.0020 C   0  0  0  0  0  0  0  0  0  0  0  0
   35.7780   29.7560   34.7300 C   0  0  0  0  0  0  0  0  0  0  0  0
   35.6330   30.9620   33.8790 C   0  0  0  0  0  0  0  0  0  0  0  0
   35.7480   30.3480   32.1710 S   0  0  0  0  0  0  0  0  0  0  0  0
   36.0660   27.6400   34.4270 H   0  0  0  0  0  0  0  0  0  0  0  0
   35.7520   29.7980   35.7850 H   0  0  0  0  0  0  0  0  0  0  0  0
   35.4440   32.3090   34.3810 C   0  0  0  0  0  0  0  0  0  0  0  0
   36.2350   32.8690   35.4130 C   0  0  0  0  0  0  0  0  0  0  0  0
   37.0290   32.3650   35.9100 H   0  0  0  0  0  0  0  0  0  0  0  0
   35.4520   34.5870   35.5400 S   0  0  0  0  0  0  0  0  0  0  0  0
   34.2210   34.1660   34.1620 C   0  0  0  0  0  0  0  0  0  0  0  0
   33.5160   34.9350   33.8840 H   0  0  0  0  0  0  0  0  0  0  0  0
   34.4690   33.0440   33.8300 N   0  0  0  0  0  0  0  0  0  0  0  0
  1  9  1  0  0  0  0
  2  7  1  0  0  0  0
  2  1  2  0  0  0  0
  3  2  1  0  0  0  0
  4  3  2  0  0  0  0
  4  5  1  0  0  0  0
  5  6  2  0  0  0  0
  6  1  1  0  0  0  0
  8  3  1  0  0  0  0
  9 13  1  0  0  0  0
  9 10  1  0  0  0  0
 10 14  1  0  0  0  0
 10 11  1  0  0  0  0
 11 16  1  1  0  0  0
 11 21  1  0  0  0  0
 12 18  1  0  0  0  0
 12 17  1  0  0  0  0
 12 11  1  0  0  0  0
 13 12  1  0  0  0  0
 15 10  1  0  0  0  0
 19 13  1  0  0  0  0
 20 13  1  0  0  0  0
 21 24  1  0  0  0  0
 21 22  1  0  0  0  0
 23 21  1  0  0  0  0
 25  5  1  0  0  0  0
 25 26  1  0  0  0  0
 26 27  2  0  0  0  0
 27 31  1  0  0  0  0
 27 28  1  0  0  0  0
 28 32  1  0  0  0  0
 29 33  1  0  0  0  0
 29 28  2  0  0  0  0
 30 26  1  0  0  0  0
 30 29  1  0  0  0  0
 33 34  2  0  0  0  0
 34 36  1  0  0  0  0
 34 35  1  0  0  0  0
 37 36  1  0  0  0  0
 38 37  1  0  0  0  0
 39 37  2  0  0  0  0
 39 33  1  0  0  0  0
M  END
>  <minimizedAffinity>
-5.6503911

$$$$

 OpenBabel03272503353D

 39 42  0  0  1  0  0  0  0  0999 V2000
   37.8060   25.8130   33.7450 C   0  0  0  0  0  0  0  0  0  0  0  0
   38.5760   25.8840   34.9160 C   0  0  0  0  0  0  0  0  0  0  0  0
   38.3900   27.0050   35.7290 C   0  0  0  0  0  0  0  0  0  0  0  0
   37.4760   27.9460   35.3270 N   0  0  0  0  0  0  0  0  0  0  0  0
   36.7660   27.8350   34.2030 C   0  0  0  0  0  0  0  0  0  0  0  0
   36.9270   26.7620   33.3990 N   0  0  0  0  0  0  0  0  0  0  0  0
   39.2890   25.1590   35.2380 H   0  0  0  0  0  0  0  0  0  0  0  0
   38.9520   27.1230   36.6480 H   0  0  0  0  0  0  0  0  0  0  0  0
   37.9970   24.6630   32.9110 N   0  0  0  0  0  0  0  0  0  0  0  0
   37.5070   23.3380   33.1310 C   0  0  0  0  0  0  0  0  0  0  0  0
   37.3660   22.7940   31.7110 C   0  0  2  0  0  0  0  0  0  0  0  0
   37.6950   23.9540   30.7800 C   0  0  0  0  0  0  0  0  0  0  0  0
   38.7410   24.6320   31.6550 C   0  0  0  0  0  0  0  0  0  0  0  0
   36.5250   23.3820   33.6140 H   0  0  0  0  0  0  0  0  0  0  0  0
   38.2310   22.6850   33.6540 H   0  0  0  0  0  0  0  0  0  0  0  0
   38.0950   21.9850   31.5020 H   0  0  0  0  0  0  0  0  0  0  0  0
   38.1350   23.5670   29.8250 H   0  0  0  0  0  0  0  0  0  0  0  0
   36.8450   24.6170   30.6240 H   0  0  0  0  0  0  0  0  0  0  0  0
   39.0430   25.6180   31.3000 H   0  0  0  0  0  0  0  0  0  0  0  0
   39.5630   23.9150   31.7910 H   0  0  0  0  0  0  0  0  0  0  0  0
   35.9900   22.2280   31.4510 C   0  0  0  0  0  0  0  0  0  0  0  0
   36.1570   21.1380   30.6220 F   0  0  0  0  0  0  0  0  0  0  0  0
   35.2940   23.1710   30.7230 F   0  0  0  0  0  0  0  0  0  0  0  0
   35.3180   21.9020   32.5970 F   0  0  0  0  0  0  0  0  0  0  0  0
   35.6040   29.0950   33.7510 S   0  0  0  0  0  0  0  0  0  0  0  0
   35.3580   30.3790   34.8060 C   0  0  0  0  0  0  0  0  0  0  0  0
   36.0070   31.1710   35.7060 C   0  0  0  0  0  0  0  0  0  0  0  0
   35.4510   32.1750   36.4270 C   0  0  0  0  0  0  0  0  0  0  0  0
   34.0060   32.3470   36.1390 C   0  0  0  0  0  0  0  0  0  0  0  0
   33.6210   31.0780   34.8950 S   0  0  0  0  0  0  0  0  0  0  0  0
   37.0450   30.8820   35.7660 H   0  0  0  0  0  0  0  0  0  0  0  0
   35.9680   32.7800   37.1210 H   0  0  0  0  0  0  0  0  0  0  0  0
   33.1530   33.3410   36.7610 C   0  0  0  0  0  0  0  0  0  0  0  0
   33.6540   34.4190   37.5300 C   0  0  0  0  0  0  0  0  0  0  0  0
   34.6840   34.5990   37.7230 H   0  0  0  0  0  0  0  0  0  0  0  0
   32.0330   35.2730   38.0040 S   0  0  0  0  0  0  0  0  0  0  0  0
   31.0320   33.9770   37.0520 C   0  0  0  0  0  0  0  0  0  0  0  0
   29.9570   34.0880   37.0550 H   0  0  0  0  0  0  0  0  0  0  0  0
   31.8310   33.2180   36.5870 N   0  0  0  0  0  0  0  0  0  0  0  0
  1  2  1  0  0  0  0
  2  7  1  0  0  0  0
  2  3  2  0  0  0  0
  3  8  1  0  0  0  0
  4  3  1  0  0  0  0
  5  4  2  0  0  0  0
  6  1  2  0  0  0  0
  6  5  1  0  0  0  0
  9 10  1  0  0  0  0
  9  1  1  0  0  0  0
 10 14  1  0  0  0  0
 10 15  1  0  0  0  0
 11 16  1  6  0  0  0
 11 10  1  0  0  0  0
 12 13  1  0  0  0  0
 12 11  1  0  0  0  0
 13 20  1  0  0  0  0
 13  9  1  0  0  0  0
 17 12  1  0  0  0  0
 18 12  1  0  0  0  0
 19 13  1  0  0  0  0
 21 11  1  0  0  0  0
 21 24  1  0  0  0  0
 22 21  1  0  0  0  0
 23 21  1  0  0  0  0
 25  5  1  0  0  0  0
 25 26  1  0  0  0  0
 26 30  1  0  0  0  0
 26 27  2  0  0  0  0
 27 31  1  0  0  0  0
 27 28  1  0  0  0  0
 28 32  1  0  0  0  0
 29 28  2  0  0  0  0
 29 33  1  0  0  0  0
 30 29  1  0  0  0  0
 33 34  2  0  0  0  0
 34 35  1  0  0  0  0
 34 36  1  0  0  0  0
 37 38  1  0  0  0  0
 37 36  1  0  0  0  0
 39 33  1  0  0  0  0
 39 37  2  0  0  0  0
M  END
>  <minimizedAffinity>
-5.60207987

$$$$

 OpenBabel03272503353D

 39 42  0  0  1  0  0  0  0  0999 V2000
   37.4180   24.2680   32.8690 C   0  0  0  0  0  0  0  0  0  0  0  0
   38.2270   24.5550   33.9790 C   0  0  0  0  0  0  0  0  0  0  0  0
   38.2940   25.8900   34.3840 C   0  0  0  0  0  0  0  0  0  0  0  0
   37.5700   26.8150   33.6750 N   0  0  0  0  0  0  0  0  0  0  0  0
   36.8130   26.4940   32.6250 C   0  0  0  0  0  0  0  0  0  0  0  0
   36.7310   25.2100   32.2110 N   0  0  0  0  0  0  0  0  0  0  0  0
   38.7940   23.8460   34.5380 H   0  0  0  0  0  0  0  0  0  0  0  0
   38.9000   26.1830   35.2340 H   0  0  0  0  0  0  0  0  0  0  0  0
   37.3490   22.8980   32.4530 N   0  0  0  0  0  0  0  0  0  0  0  0
   37.3310   21.7360   33.2860 C   0  0  0  0  0  0  0  0  0  0  0  0
   36.5530   20.7300   32.4390 C   0  0  2  0  0  0  0  0  0  0  0  0
   36.0890   21.4900   31.2030 C   0  0  0  0  0  0  0  0  0  0  0  0
   37.2830   22.4260   31.0730 C   0  0  0  0  0  0  0  0  0  0  0  0
   36.7810   21.9510   34.2090 H   0  0  0  0  0  0  0  0  0  0  0  0
   38.3350   21.3030   33.4570 H   0  0  0  0  0  0  0  0  0  0  0  0
   37.1960   19.8950   32.0920 H   0  0  0  0  0  0  0  0  0  0  0  0
   36.0070   20.7910   30.3310 H   0  0  0  0  0  0  0  0  0  0  0  0
   35.1780   22.0600   31.3830 H   0  0  0  0  0  0  0  0  0  0  0  0
   37.1420   23.2230   30.3430 H   0  0  0  0  0  0  0  0  0  0  0  0
   38.1700   21.7970   30.9100 H   0  0  0  0  0  0  0  0  0  0  0  0
   35.4010   20.1150   33.1970 C   0  0  0  0  0  0  0  0  0  0  0  0
   35.6300   18.7560   33.2380 F   0  0  0  0  0  0  0  0  0  0  0  0
   34.2680   20.2990   32.4310 F   0  0  0  0  0  0  0  0  0  0  0  0
   35.2370   20.6460   34.4470 F   0  0  0  0  0  0  0  0  0  0  0  0
   35.9070   27.7460   31.7580 S   0  0  0  0  0  0  0  0  0  0  0  0
   35.7370   29.2560   32.4730 C   0  0  0  0  0  0  0  0  0  0  0  0
   35.9750   30.5810   32.2570 C   0  0  0  0  0  0  0  0  0  0  0  0
   35.6940   31.5900   33.1180 C   0  0  0  0  0  0  0  0  0  0  0  0
   35.0740   31.1060   34.3760 C   0  0  0  0  0  0  0  0  0  0  0  0
   34.9690   29.3000   34.1820 S   0  0  0  0  0  0  0  0  0  0  0  0
   36.4270   30.7180   31.2870 H   0  0  0  0  0  0  0  0  0  0  0  0
   35.8850   32.6120   32.9350 H   0  0  0  0  0  0  0  0  0  0  0  0
   34.6670   31.9570   35.4770 C   0  0  0  0  0  0  0  0  0  0  0  0
   35.1010   33.2970   35.6200 C   0  0  0  0  0  0  0  0  0  0  0  0
   35.7530   33.7990   34.9470 H   0  0  0  0  0  0  0  0  0  0  0  0
   34.2060   33.7690   37.2200 S   0  0  0  0  0  0  0  0  0  0  0  0
   33.4410   32.0390   37.3420 C   0  0  0  0  0  0  0  0  0  0  0  0
   32.7950   31.8480   38.1860 H   0  0  0  0  0  0  0  0  0  0  0  0
   33.8420   31.4340   36.3920 N   0  0  0  0  0  0  0  0  0  0  0  0
  1  2  1  0  0  0  0
  2  3  2  0  0  0  0
  2  7  1  0  0  0  0
  3  8  1  0  0  0  0
  4  3  1  0  0  0  0
  5  4  2  0  0  0  0
  6  5  1  0  0  0  0
  6  1  2  0  0  0  0
  9  1  1  0  0  0  0
  9 10  1  0  0  0  0
 10 15  1  0  0  0  0
 10 14  1  0  0  0  0
 11 16  1  6  0  0  0
 11 21  1  0  0  0  0
 11 10  1  0  0  0  0
 12 18  1  0  0  0  0
 12 11  1  0  0  0  0
 13 12  1  0  0  0  0
 13  9  1  0  0  0  0
 17 12  1  0  0  0  0
 19 13  1  0  0  0  0
 20 13  1  0  0  0  0
 21 22  1  0  0  0  0
 21 24  1  0  0  0  0
 23 21  1  0  0  0  0
 25 26  1  0  0  0  0
 25  5  1  0  0  0  0
 26 30  1  0  0  0  0
 27 26  2  0  0  0  0
 27 28  1  0  0  0  0
 28 29  2  0  0  0  0
 29 33  1  0  0  0  0
 30 29  1  0  0  0  0
 31 27  1  0  0  0  0
 32 28  1  0  0  0  0
 33 34  2  0  0  0  0
 33 39  1  0  0  0  0
 34 36  1  0  0  0  0
 35 34  1  0  0  0  0
 36 37  1  0  0  0  0
 37 38  1  0  0  0  0
 39 37  2  0  0  0  0
M  END
>  <minimizedAffinity>
-5.59115839

$$$$

 OpenBabel03272503353D

 39 42  0  0  1  0  0  0  0  0999 V2000
   34.1370   30.5070   34.1120 C   0  0  0  0  0  0  0  0  0  0  0  0
   33.6860   31.2660   33.0220 C   0  0  0  0  0  0  0  0  0  0  0  0
   34.1720   30.9150   31.7610 C   0  0  0  0  0  0  0  0  0  0  0  0
   35.0480   29.8620   31.6800 N   0  0  0  0  0  0  0  0  0  0  0  0
   35.4500   29.1680   32.7460 C   0  0  0  0  0  0  0  0  0  0  0  0
   34.9950   29.4880   33.9780 N   0  0  0  0  0  0  0  0  0  0  0  0
   33.0050   32.0860   33.0730 H   0  0  0  0  0  0  0  0  0  0  0  0
   33.8640   31.4580   30.8750 H   0  0  0  0  0  0  0  0  0  0  0  0
   33.6380   30.8680   35.4060 N   0  0  0  0  0  0  0  0  0  0  0  0
   34.3130   31.6170   36.4210 C   0  0  0  0  0  0  0  0  0  0  0  0
   33.1590   32.2830   37.1680 C   0  0  2  0  0  0  0  0  0  0  0  0
   31.8940   31.9210   36.3990 C   0  0  0  0  0  0  0  0  0  0  0  0
   32.3200   30.5330   35.9390 C   0  0  0  0  0  0  0  0  0  0  0  0
   34.9470   32.3800   35.9570 H   0  0  0  0  0  0  0  0  0  0  0  0
   34.8450   30.9810   37.1540 H   0  0  0  0  0  0  0  0  0  0  0  0
   33.0460   31.8840   38.1970 H   0  0  0  0  0  0  0  0  0  0  0  0
   31.0190   31.8810   37.0970 H   0  0  0  0  0  0  0  0  0  0  0  0
   31.7290   32.5710   35.5400 H   0  0  0  0  0  0  0  0  0  0  0  0
   31.6510   30.0860   35.2030 H   0  0  0  0  0  0  0  0  0  0  0  0
   32.4870   29.9300   36.8420 H   0  0  0  0  0  0  0  0  0  0  0  0
   33.3440   33.7760   37.2900 C   0  0  0  0  0  0  0  0  0  0  0  0
   34.3150   33.9810   38.2480 F   0  0  0  0  0  0  0  0  0  0  0  0
   32.1710   34.2890   37.8040 F   0  0  0  0  0  0  0  0  0  0  0  0
   33.6610   34.3770   36.1020 F   0  0  0  0  0  0  0  0  0  0  0  0
   36.5850   27.8200   32.5610 S   0  0  0  0  0  0  0  0  0  0  0  0
   37.3210   27.1930   33.9340 C   0  0  0  0  0  0  0  0  0  0  0  0
   37.7210   27.5350   35.1910 C   0  0  0  0  0  0  0  0  0  0  0  0
   38.3300   26.7150   36.0830 C   0  0  0  0  0  0  0  0  0  0  0  0
   38.5320   25.3460   35.5480 C   0  0  0  0  0  0  0  0  0  0  0  0
   37.8410   25.3930   33.8660 S   0  0  0  0  0  0  0  0  0  0  0  0
   37.4820   28.5700   35.3820 H   0  0  0  0  0  0  0  0  0  0  0  0
   38.6340   26.9960   37.0540 H   0  0  0  0  0  0  0  0  0  0  0  0
   39.1560   24.2590   36.2760 C   0  0  0  0  0  0  0  0  0  0  0  0
   40.2710   23.5370   35.7840 C   0  0  0  0  0  0  0  0  0  0  0  0
   40.7480   23.7190   34.8520 H   0  0  0  0  0  0  0  0  0  0  0  0
   40.5340   22.3190   37.2090 S   0  0  0  0  0  0  0  0  0  0  0  0
   39.0710   23.0590   38.1580 C   0  0  0  0  0  0  0  0  0  0  0  0
   38.8400   22.6240   39.1190 H   0  0  0  0  0  0  0  0  0  0  0  0
   38.6400   23.9360   37.4690 N   0  0  0  0  0  0  0  0  0  0  0  0
  1  9  1  0  0  0  0
  2  7  1  0  0  0  0
  2  1  2  0  0  0  0
  3  2  1  0  0  0  0
  4  3  2  0  0  0  0
  4  5  1  0  0  0  0
  5  6  2  0  0  0  0
  6  1  1  0  0  0  0
  8  3  1  0  0  0  0
  9 13  1  0  0  0  0
  9 10  1  0  0  0  0
 10 15  1  0  0  0  0
 10 11  1  0  0  0  0
 11 21  1  0  0  0  0
 11 16  1  1  0  0  0
 12 17  1  0  0  0  0
 12 11  1  0  0  0  0
 13 12  1  0  0  0  0
 13 20  1  0  0  0  0
 14 10  1  0  0  0  0
 18 12  1  0  0  0  0
 19 13  1  0  0  0  0
 21 23  1  0  0  0  0
 21 22  1  0  0  0  0
 24 21  1  0  0  0  0
 25  5  1  0  0  0  0
 25 26  1  0  0  0  0
 26 27  2  0  0  0  0
 27 31  1  0  0  0  0
 27 28  1  0  0  0  0
 28 32  1  0  0  0  0
 29 28  2  0  0  0  0
 29 33  1  0  0  0  0
 30 26  1  0  0  0  0
 30 29  1  0  0  0  0
 33 39  1  0  0  0  0
 34 33  2  0  0  0  0
 34 36  1  0  0  0  0
 35 34  1  0  0  0  0
 36 37  1  0  0  0  0
 37 38  1  0  0  0  0
 39 37  2  0  0  0  0
M  END
>  <minimizedAffinity>
-5.57700872

$$$$
