
 OpenBabel03272509363D

 45 49  0  0  1  0  0  0  0  0999 V2000
   38.9930   26.7440   34.6880 C   0  0  1  0  0  0  0  0  0  0  0  0
   37.6390   26.5890   35.2840 C   0  0  0  0  0  0  0  0  0  0  0  0
   38.2730   25.3400   34.9190 C   0  0  2  0  0  0  0  0  0  0  0  0
   39.9200   26.7770   35.2410 H   0  0  0  0  0  0  0  0  0  0  0  0
   37.6020   27.1310   36.2270 H   0  0  0  0  0  0  0  0  0  0  0  0
   36.7960   26.9910   34.6070 H   0  0  0  0  0  0  0  0  0  0  0  0
   38.2710   24.8240   33.9660 H   0  0  0  0  0  0  0  0  0  0  0  0
   38.7020   24.5660   36.1320 C   0  0  0  0  0  0  0  0  0  0  0  0
   37.8500   24.8620   37.2100 C   0  0  0  0  0  0  0  0  0  0  0  0
   37.9890   24.1870   38.3960 C   0  0  0  0  0  0  0  0  0  0  0  0
   38.9690   23.1980   38.5650 C   0  0  0  0  0  0  0  0  0  0  0  0
   39.7910   22.9350   37.4780 C   0  0  0  0  0  0  0  0  0  0  0  0
   40.7940   22.0060   37.5100 C   0  0  0  0  0  0  0  0  0  0  0  0
   41.6220   21.7420   36.4480 C   0  0  0  0  0  0  0  0  0  0  0  0
   41.4410   22.4480   35.2780 C   0  0  0  0  0  0  0  0  0  0  0  0
   40.4320   23.3880   35.2350 C   0  0  0  0  0  0  0  0  0  0  0  0
   39.6220   23.6210   36.3300 C   0  0  0  0  0  0  0  0  0  0  0  0
   37.0260   25.5190   37.3960 H   0  0  0  0  0  0  0  0  0  0  0  0
   37.4380   24.2750   39.3190 H   0  0  0  0  0  0  0  0  0  0  0  0
   39.1830   22.5970   39.4410 H   0  0  0  0  0  0  0  0  0  0  0  0
   40.9740   21.4240   38.4130 H   0  0  0  0  0  0  0  0  0  0  0  0
   42.4060   20.9930   36.5190 H   0  0  0  0  0  0  0  0  0  0  0  0
   42.0520   22.2930   34.4050 H   0  0  0  0  0  0  0  0  0  0  0  0
   40.3020   23.9430   34.2890 H   0  0  0  0  0  0  0  0  0  0  0  0
   40.2840   27.3720   31.2000 C   0  0  0  0  0  0  0  0  0  0  0  0
   40.2500   27.0120   32.5840 C   0  0  0  0  0  0  0  0  0  0  0  0
   39.0600   27.0980   33.2480 C   0  0  0  0  0  0  0  0  0  0  0  0
   37.9750   27.5310   32.5140 N   0  0  0  0  0  0  0  0  0  0  0  0
   38.0240   27.8620   31.2210 C   0  0  0  0  0  0  0  0  0  0  0  0
   39.1790   27.7880   30.5430 N   0  0  0  0  0  0  0  0  0  0  0  0
   41.2620   27.2770   30.7480 H   0  0  0  0  0  0  0  0  0  0  0  0
   41.1220   26.6850   33.0980 H   0  0  0  0  0  0  0  0  0  0  0  0
   36.7480   28.3100   30.5620 C   0  0  0  0  0  0  0  0  0  0  0  0
   36.7870   28.2050   29.4810 H   0  0  0  0  0  0  0  0  0  0  0  0
   35.9220   27.7090   31.0240 H   0  0  0  0  0  0  0  0  0  0  0  0
   36.5160   29.7710   30.9820 C   0  0  0  0  0  0  0  0  0  0  0  0
   36.5870   30.3830   30.0350 H   0  0  0  0  0  0  0  0  0  0  0  0
   37.3340   30.1260   31.6060 H   0  0  0  0  0  0  0  0  0  0  0  0
   35.1570   29.9300   31.5800 C   0  0  0  0  0  0  0  0  0  0  0  0
   34.6440   29.0120   32.5820 C   0  0  0  0  0  0  0  0  0  0  0  0
   35.2230   28.1890   32.9260 H   0  0  0  0  0  0  0  0  0  0  0  0
   33.0090   29.7250   32.8890 S   0  0  0  0  0  0  0  0  0  0  0  0
   33.2750   31.1390   31.6260 C   0  0  0  0  0  0  0  0  0  0  0  0
   32.5480   31.9290   31.3870 H   0  0  0  0  0  0  0  0  0  0  0  0
   34.4450   30.9500   31.1510 N   0  0  0  0  0  0  0  0  0  0  0  0
  1  3  1  0  0  0  0
  1  4  1  1  0  0  0
  1  2  1  0  0  0  0
  2  5  1  0  0  0  0
  3  7  1  6  0  0  0
  3  2  1  0  0  0  0
  3  8  1  0  0  0  0
  6  2  1  0  0  0  0
  8 17  2  0  0  0  0
  8  9  1  0  0  0  0
  9 18  1  0  0  0  0
  9 10  2  0  0  0  0
 10 11  1  0  0  0  0
 10 19  1  0  0  0  0
 11 20  1  0  0  0  0
 12 13  1  0  0  0  0
 12 11  2  0  0  0  0
 13 21  1  0  0  0  0
 14 22  1  0  0  0  0
 14 13  2  0  0  0  0
 15 14  1  0  0  0  0
 16 15  2  0  0  0  0
 16 17  1  0  0  0  0
 17 12  1  0  0  0  0
 23 15  1  0  0  0  0
 24 16  1  0  0  0  0
 25 26  1  0  0  0  0
 26 32  1  0  0  0  0
 26 27  2  0  0  0  0
 27  1  1  0  0  0  0
 28 27  1  0  0  0  0
 29 28  2  0  0  0  0
 30 25  2  0  0  0  0
 30 29  1  0  0  0  0
 31 25  1  0  0  0  0
 33 36  1  0  0  0  0
 33 35  1  0  0  0  0
 33 29  1  0  0  0  0
 34 33  1  0  0  0  0
 36 39  1  0  0  0  0
 36 38  1  0  0  0  0
 37 36  1  0  0  0  0
 39 40  2  0  0  0  0
 40 42  1  0  0  0  0
 40 41  1  0  0  0  0
 43 42  1  0  0  0  0
 44 43  1  0  0  0  0
 45 39  1  0  0  0  0
 45 43  2  0  0  0  0
M  END
>  <minimizedAffinity>
-6.27955008

$$$$

 OpenBabel03272509363D

 45 49  0  0  1  0  0  0  0  0999 V2000
   40.3530   26.7910   34.7820 C   0  0  1  0  0  0  0  0  0  0  0  0
   38.9330   26.9760   35.1870 C   0  0  0  0  0  0  0  0  0  0  0  0
   39.2690   25.6200   34.8060 C   0  0  2  0  0  0  0  0  0  0  0  0
   41.1670   26.5510   35.4490 H   0  0  0  0  0  0  0  0  0  0  0  0
   38.9020   27.4660   36.1580 H   0  0  0  0  0  0  0  0  0  0  0  0
   38.3290   27.6190   34.4430 H   0  0  0  0  0  0  0  0  0  0  0  0
   39.2710   25.1660   33.8220 H   0  0  0  0  0  0  0  0  0  0  0  0
   39.3040   24.7080   35.9980 C   0  0  0  0  0  0  0  0  0  0  0  0
   38.1920   24.9570   36.8200 C   0  0  0  0  0  0  0  0  0  0  0  0
   37.9620   24.1650   37.9160 C   0  0  0  0  0  0  0  0  0  0  0  0
   38.8140   23.1000   38.2420 C   0  0  0  0  0  0  0  0  0  0  0  0
   39.9000   22.8860   37.4060 C   0  0  0  0  0  0  0  0  0  0  0  0
   40.8160   21.8910   37.6130 C   0  0  0  0  0  0  0  0  0  0  0  0
   41.9010   21.6730   36.8020 C   0  0  0  0  0  0  0  0  0  0  0  0
   42.0880   22.4980   35.7140 C   0  0  0  0  0  0  0  0  0  0  0  0
   41.1710   23.5040   35.4950 C   0  0  0  0  0  0  0  0  0  0  0  0
   40.0920   23.6880   36.3380 C   0  0  0  0  0  0  0  0  0  0  0  0
   37.3760   25.6490   36.8400 H   0  0  0  0  0  0  0  0  0  0  0  0
   37.1740   24.2020   38.6520 H   0  0  0  0  0  0  0  0  0  0  0  0
   38.7460   22.4050   39.0710 H   0  0  0  0  0  0  0  0  0  0  0  0
   40.7090   21.2160   38.4600 H   0  0  0  0  0  0  0  0  0  0  0  0
   42.6040   20.8690   37.0060 H   0  0  0  0  0  0  0  0  0  0  0  0
   42.9170   22.3850   35.0340 H   0  0  0  0  0  0  0  0  0  0  0  0
   41.3370   24.1540   34.6170 H   0  0  0  0  0  0  0  0  0  0  0  0
   42.3010   27.9680   31.7750 C   0  0  0  0  0  0  0  0  0  0  0  0
   41.9860   27.5910   33.1180 C   0  0  0  0  0  0  0  0  0  0  0  0
   40.7150   27.1770   33.3960 C   0  0  0  0  0  0  0  0  0  0  0  0
   39.8290   27.1570   32.3380 N   0  0  0  0  0  0  0  0  0  0  0  0
   40.1400   27.5120   31.0880 C   0  0  0  0  0  0  0  0  0  0  0  0
   41.3800   27.9230   30.7870 N   0  0  0  0  0  0  0  0  0  0  0  0
   43.3260   28.2830   31.6390 H   0  0  0  0  0  0  0  0  0  0  0  0
   42.7130   27.6270   33.8940 H   0  0  0  0  0  0  0  0  0  0  0  0
   39.0590   27.4280   30.0460 C   0  0  0  0  0  0  0  0  0  0  0  0
   39.1950   28.1600   29.2540 H   0  0  0  0  0  0  0  0  0  0  0  0
   39.0660   26.3730   29.6620 H   0  0  0  0  0  0  0  0  0  0  0  0
   37.7180   27.6210   30.7720 C   0  0  0  0  0  0  0  0  0  0  0  0
   37.1170   28.3340   30.1340 H   0  0  0  0  0  0  0  0  0  0  0  0
   37.8650   28.1460   31.7150 H   0  0  0  0  0  0  0  0  0  0  0  0
   36.9960   26.3190   30.8870 C   0  0  0  0  0  0  0  0  0  0  0  0
   35.5880   26.2480   31.2380 C   0  0  0  0  0  0  0  0  0  0  0  0
   35.0200   27.1280   31.4270 H   0  0  0  0  0  0  0  0  0  0  0  0
   35.3230   24.4580   31.2110 S   0  0  0  0  0  0  0  0  0  0  0  0
   37.1400   24.0920   30.7330 C   0  0  0  0  0  0  0  0  0  0  0  0
   37.5710   23.0940   30.5730 H   0  0  0  0  0  0  0  0  0  0  0  0
   37.7030   25.2360   30.6520 N   0  0  0  0  0  0  0  0  0  0  0  0
  1  3  1  0  0  0  0
  1  2  1  0  0  0  0
  1  4  1  1  0  0  0
  2  5  1  0  0  0  0
  3  7  1  6  0  0  0
  3  2  1  0  0  0  0
  3  8  1  0  0  0  0
  6  2  1  0  0  0  0
  8 17  2  0  0  0  0
  8  9  1  0  0  0  0
  9 18  1  0  0  0  0
  9 10  2  0  0  0  0
 10 11  1  0  0  0  0
 10 19  1  0  0  0  0
 11 20  1  0  0  0  0
 12 13  1  0  0  0  0
 12 11  2  0  0  0  0
 13 21  1  0  0  0  0
 14 22  1  0  0  0  0
 14 13  2  0  0  0  0
 15 14  1  0  0  0  0
 16 15  2  0  0  0  0
 16 17  1  0  0  0  0
 17 12  1  0  0  0  0
 23 15  1  0  0  0  0
 24 16  1  0  0  0  0
 25 26  1  0  0  0  0
 26 27  2  0  0  0  0
 26 32  1  0  0  0  0
 27  1  1  0  0  0  0
 28 27  1  0  0  0  0
 29 28  2  0  0  0  0
 30 29  1  0  0  0  0
 30 25  2  0  0  0  0
 31 25  1  0  0  0  0
 33 36  1  0  0  0  0
 33 29  1  0  0  0  0
 34 33  1  0  0  0  0
 35 33  1  0  0  0  0
 36 39  1  0  0  0  0
 36 38  1  0  0  0  0
 37 36  1  0  0  0  0
 39 40  2  0  0  0  0
 40 41  1  0  0  0  0
 42 40  1  0  0  0  0
 43 42  1  0  0  0  0
 44 43  1  0  0  0  0
 45 43  2  0  0  0  0
 45 39  1  0  0  0  0
M  END
>  <minimizedAffinity>
-6.2493453

$$$$

 OpenBabel03272509363D

 45 49  0  0  1  0  0  0  0  0999 V2000
   37.6920   27.4920   34.0920 C   0  0  1  0  0  0  0  0  0  0  0  0
   38.0090   27.5620   35.5430 C   0  0  0  0  0  0  0  0  0  0  0  0
   37.3030   26.3620   35.1480 C   0  0  2  0  0  0  0  0  0  0  0  0
   38.3360   27.0780   33.3300 H   0  0  0  0  0  0  0  0  0  0  0  0
   39.0710   27.7680   35.6650 H   0  0  0  0  0  0  0  0  0  0  0  0
   37.4200   28.3850   36.0980 H   0  0  0  0  0  0  0  0  0  0  0  0
   36.2370   26.1940   35.0550 H   0  0  0  0  0  0  0  0  0  0  0  0
   38.2000   25.1590   35.1910 C   0  0  0  0  0  0  0  0  0  0  0  0
   38.7450   24.9250   33.9170 C   0  0  0  0  0  0  0  0  0  0  0  0
   39.6790   23.9360   33.7440 C   0  0  0  0  0  0  0  0  0  0  0  0
   40.1120   23.1430   34.8160 C   0  0  0  0  0  0  0  0  0  0  0  0
   39.5520   23.4040   36.0590 C   0  0  0  0  0  0  0  0  0  0  0  0
   39.8750   22.6990   37.1860 C   0  0  0  0  0  0  0  0  0  0  0  0
   39.3210   22.9370   38.4180 C   0  0  0  0  0  0  0  0  0  0  0  0
   38.3860   23.9430   38.5390 C   0  0  0  0  0  0  0  0  0  0  0  0
   38.0530   24.6600   37.4090 C   0  0  0  0  0  0  0  0  0  0  0  0
   38.6350   24.3850   36.1870 C   0  0  0  0  0  0  0  0  0  0  0  0
   38.6460   25.3450   32.9370 H   0  0  0  0  0  0  0  0  0  0  0  0
   40.2010   23.6150   32.8570 H   0  0  0  0  0  0  0  0  0  0  0  0
   40.8370   22.3370   34.8150 H   0  0  0  0  0  0  0  0  0  0  0  0
   40.6080   21.8960   37.1380 H   0  0  0  0  0  0  0  0  0  0  0  0
   39.6090   22.3520   39.2870 H   0  0  0  0  0  0  0  0  0  0  0  0
   37.9110   24.1860   39.4750 H   0  0  0  0  0  0  0  0  0  0  0  0
   37.3020   25.4620   37.5250 H   0  0  0  0  0  0  0  0  0  0  0  0
   35.0100   28.9580   31.8820 C   0  0  0  0  0  0  0  0  0  0  0  0
   36.1570   28.2150   32.3030 C   0  0  0  0  0  0  0  0  0  0  0  0
   36.4990   28.2420   33.6240 C   0  0  0  0  0  0  0  0  0  0  0  0
   35.6960   28.9970   34.4530 N   0  0  0  0  0  0  0  0  0  0  0  0
   34.6260   29.6850   34.0440 C   0  0  0  0  0  0  0  0  0  0  0  0
   34.2660   29.6760   32.7520 N   0  0  0  0  0  0  0  0  0  0  0  0
   34.8060   28.8840   30.8230 H   0  0  0  0  0  0  0  0  0  0  0  0
   36.7400   27.6500   31.6150 H   0  0  0  0  0  0  0  0  0  0  0  0
   33.8490   30.4550   35.0760 C   0  0  0  0  0  0  0  0  0  0  0  0
   34.0180   30.0780   36.0810 H   0  0  0  0  0  0  0  0  0  0  0  0
   34.1470   31.5300   34.9640 H   0  0  0  0  0  0  0  0  0  0  0  0
   32.3660   30.3670   34.6790 C   0  0  0  0  0  0  0  0  0  0  0  0
   32.3510   30.2360   33.5560 H   0  0  0  0  0  0  0  0  0  0  0  0
   31.8650   31.3160   34.8560 H   0  0  0  0  0  0  0  0  0  0  0  0
   31.7220   29.1870   35.3290 C   0  0  0  0  0  0  0  0  0  0  0  0
   31.8330   28.9380   36.7550 C   0  0  0  0  0  0  0  0  0  0  0  0
   32.3810   29.5930   37.3900 H   0  0  0  0  0  0  0  0  0  0  0  0
   30.8700   27.4140   36.9100 S   0  0  0  0  0  0  0  0  0  0  0  0
   30.4720   27.3550   35.0380 C   0  0  0  0  0  0  0  0  0  0  0  0
   29.8730   26.5820   34.5350 H   0  0  0  0  0  0  0  0  0  0  0  0
   31.0460   28.3810   34.5390 N   0  0  0  0  0  0  0  0  0  0  0  0
  1  4  1  6  0  0  0
  1  3  1  0  0  0  0
  1  2  1  0  0  0  0
  2  5  1  0  0  0  0
  2  6  1  0  0  0  0
  3  7  1  1  0  0  0
  3  8  1  0  0  0  0
  3  2  1  0  0  0  0
  8 17  1  0  0  0  0
  9  8  2  0  0  0  0
 10  9  1  0  0  0  0
 10 11  2  0  0  0  0
 11 12  1  0  0  0  0
 12 17  2  0  0  0  0
 12 13  1  0  0  0  0
 13 14  2  0  0  0  0
 14 15  1  0  0  0  0
 14 22  1  0  0  0  0
 15 23  1  0  0  0  0
 16 24  1  0  0  0  0
 16 15  2  0  0  0  0
 17 16  1  0  0  0  0
 18  9  1  0  0  0  0
 19 10  1  0  0  0  0
 20 11  1  0  0  0  0
 21 13  1  0  0  0  0
 25 26  2  0  0  0  0
 25 30  1  0  0  0  0
 26 27  1  0  0  0  0
 27  1  1  0  0  0  0
 27 28  2  0  0  0  0
 29 28  1  0  0  0  0
 29 33  1  0  0  0  0
 30 29  2  0  0  0  0
 31 25  1  0  0  0  0
 32 26  1  0  0  0  0
 33 34  1  0  0  0  0
 35 33  1  0  0  0  0
 36 38  1  0  0  0  0
 36 33  1  0  0  0  0
 36 39  1  0  0  0  0
 37 36  1  0  0  0  0
 39 40  2  0  0  0  0
 40 42  1  0  0  0  0
 40 41  1  0  0  0  0
 43 42  1  0  0  0  0
 44 43  1  0  0  0  0
 45 43  2  0  0  0  0
 45 39  1  0  0  0  0
M  END
>  <minimizedAffinity>
-6.20823622

$$$$

 OpenBabel03272509363D

 45 49  0  0  1  0  0  0  0  0999 V2000
   36.3980   28.7580   33.4630 C   0  0  1  0  0  0  0  0  0  0  0  0
   35.6770   29.7850   32.6640 C   0  0  0  0  0  0  0  0  0  0  0  0
   34.8760   29.1700   33.7010 C   0  0  2  0  0  0  0  0  0  0  0  0
   36.9750   28.9510   34.3550 H   0  0  0  0  0  0  0  0  0  0  0  0
   36.2640   30.7020   32.6530 H   0  0  0  0  0  0  0  0  0  0  0  0
   35.4950   29.4640   31.5710 H   0  0  0  0  0  0  0  0  0  0  0  0
   34.2910   28.2590   33.6650 H   0  0  0  0  0  0  0  0  0  0  0  0
   34.6160   30.1240   34.8320 C   0  0  0  0  0  0  0  0  0  0  0  0
   35.7990   30.8110   35.1550 C   0  0  0  0  0  0  0  0  0  0  0  0
   35.7730   31.8130   36.0920 C   0  0  0  0  0  0  0  0  0  0  0  0
   34.5850   32.1760   36.7420 C   0  0  0  0  0  0  0  0  0  0  0  0
   33.4380   31.4750   36.3950 C   0  0  0  0  0  0  0  0  0  0  0  0
   32.2160   31.7180   36.9600 C   0  0  0  0  0  0  0  0  0  0  0  0
   31.0760   31.0270   36.6360 C   0  0  0  0  0  0  0  0  0  0  0  0
   31.1560   30.0290   35.6880 C   0  0  0  0  0  0  0  0  0  0  0  0
   32.3840   29.7750   35.1130 C   0  0  0  0  0  0  0  0  0  0  0  0
   33.5060   30.4960   35.4700 C   0  0  0  0  0  0  0  0  0  0  0  0
   36.8230   30.7910   34.8440 H   0  0  0  0  0  0  0  0  0  0  0  0
   36.5660   32.4410   36.4650 H   0  0  0  0  0  0  0  0  0  0  0  0
   34.4290   32.9410   37.4930 H   0  0  0  0  0  0  0  0  0  0  0  0
   32.1060   32.4970   37.7120 H   0  0  0  0  0  0  0  0  0  0  0  0
   30.1260   31.2550   37.1110 H   0  0  0  0  0  0  0  0  0  0  0  0
   30.3030   29.4460   35.3850 H   0  0  0  0  0  0  0  0  0  0  0  0
   32.4280   28.9720   34.3550 H   0  0  0  0  0  0  0  0  0  0  0  0
   36.0610   25.8180   31.1240 C   0  0  0  0  0  0  0  0  0  0  0  0
   35.9420   27.1390   31.6610 C   0  0  0  0  0  0  0  0  0  0  0  0
   36.5150   27.4010   32.8720 C   0  0  0  0  0  0  0  0  0  0  0  0
   37.1710   26.3530   33.4830 N   0  0  0  0  0  0  0  0  0  0  0  0
   37.2740   25.1250   32.9680 C   0  0  0  0  0  0  0  0  0  0  0  0
   36.7210   24.8380   31.7800 N   0  0  0  0  0  0  0  0  0  0  0  0
   35.5810   25.6920   30.1640 H   0  0  0  0  0  0  0  0  0  0  0  0
   35.4220   27.9080   31.1420 H   0  0  0  0  0  0  0  0  0  0  0  0
   38.0290   24.0920   33.7580 C   0  0  0  0  0  0  0  0  0  0  0  0
   37.4360   23.2000   33.9380 H   0  0  0  0  0  0  0  0  0  0  0  0
   38.9690   23.8760   33.1850 H   0  0  0  0  0  0  0  0  0  0  0  0
   38.4600   24.7610   35.0730 C   0  0  0  0  0  0  0  0  0  0  0  0
   37.5220   24.8630   35.6940 H   0  0  0  0  0  0  0  0  0  0  0  0
   38.7890   25.7830   34.8940 H   0  0  0  0  0  0  0  0  0  0  0  0
   39.4480   23.9040   35.7940 C   0  0  0  0  0  0  0  0  0  0  0  0
   39.0490   22.9900   36.8500 C   0  0  0  0  0  0  0  0  0  0  0  0
   38.0310   22.9000   37.1480 H   0  0  0  0  0  0  0  0  0  0  0  0
   40.6480   22.2720   37.3000 S   0  0  0  0  0  0  0  0  0  0  0  0
   41.5950   23.3110   36.0000 C   0  0  0  0  0  0  0  0  0  0  0  0
   42.6790   23.2780   35.8210 H   0  0  0  0  0  0  0  0  0  0  0  0
   40.7040   24.0190   35.4210 N   0  0  0  0  0  0  0  0  0  0  0  0
  1  3  1  0  0  0  0
  1  4  1  1  0  0  0
  2  1  1  0  0  0  0
  2  3  1  0  0  0  0
  3  7  1  6  0  0  0
  3  8  1  0  0  0  0
  5  2  1  0  0  0  0
  6  2  1  0  0  0  0
  8  9  2  0  0  0  0
  8 17  1  0  0  0  0
  9 10  1  0  0  0  0
 10 19  1  0  0  0  0
 10 11  2  0  0  0  0
 11 20  1  0  0  0  0
 12 11  1  0  0  0  0
 12 13  1  0  0  0  0
 13 21  1  0  0  0  0
 14 13  2  0  0  0  0
 14 22  1  0  0  0  0
 15 14  1  0  0  0  0
 16 17  1  0  0  0  0
 16 15  2  0  0  0  0
 17 12  2  0  0  0  0
 18  9  1  0  0  0  0
 23 15  1  0  0  0  0
 24 16  1  0  0  0  0
 25 26  2  0  0  0  0
 25 30  1  0  0  0  0
 26 27  1  0  0  0  0
 27  1  1  0  0  0  0
 27 28  2  0  0  0  0
 29 28  1  0  0  0  0
 29 33  1  0  0  0  0
 30 29  2  0  0  0  0
 31 25  1  0  0  0  0
 32 26  1  0  0  0  0
 33 34  1  0  0  0  0
 33 36  1  0  0  0  0
 35 33  1  0  0  0  0
 36 37  1  0  0  0  0
 36 39  1  0  0  0  0
 38 36  1  0  0  0  0
 39 40  2  0  0  0  0
 40 41  1  0  0  0  0
 40 42  1  0  0  0  0
 43 42  1  0  0  0  0
 44 43  1  0  0  0  0
 45 39  1  0  0  0  0
 45 43  2  0  0  0  0
M  END
>  <minimizedAffinity>
-6.16053486

$$$$

 OpenBabel03272509363D

 45 49  0  0  1  0  0  0  0  0999 V2000
   37.6760   27.5030   34.1650 C   0  0  1  0  0  0  0  0  0  0  0  0
   38.0440   27.5370   35.6060 C   0  0  0  0  0  0  0  0  0  0  0  0
   37.2690   26.3770   35.2190 C   0  0  2  0  0  0  0  0  0  0  0  0
   38.2730   27.0700   33.3770 H   0  0  0  0  0  0  0  0  0  0  0  0
   39.1170   27.6910   35.6950 H   0  0  0  0  0  0  0  0  0  0  0  0
   37.5130   28.3780   36.1910 H   0  0  0  0  0  0  0  0  0  0  0  0
   36.1930   26.2600   35.1600 H   0  0  0  0  0  0  0  0  0  0  0  0
   38.1090   25.1320   35.2170 C   0  0  0  0  0  0  0  0  0  0  0  0
   38.5590   24.8650   33.9130 C   0  0  0  0  0  0  0  0  0  0  0  0
   39.4330   23.8310   33.6900 C   0  0  0  0  0  0  0  0  0  0  0  0
   39.8960   23.0250   34.7400 C   0  0  0  0  0  0  0  0  0  0  0  0
   39.4290   23.3210   36.0130 C   0  0  0  0  0  0  0  0  0  0  0  0
   39.7900   22.6080   37.1230 C   0  0  0  0  0  0  0  0  0  0  0  0
   39.3280   22.8800   38.3860 C   0  0  0  0  0  0  0  0  0  0  0  0
   38.4510   23.9300   38.5570 C   0  0  0  0  0  0  0  0  0  0  0  0
   38.0800   24.6550   37.4430 C   0  0  0  0  0  0  0  0  0  0  0  0
   38.5700   24.3450   36.1890 C   0  0  0  0  0  0  0  0  0  0  0  0
   38.4180   25.2820   32.9370 H   0  0  0  0  0  0  0  0  0  0  0  0
   39.8810   23.4800   32.7740 H   0  0  0  0  0  0  0  0  0  0  0  0
   40.5800   22.1860   34.7000 H   0  0  0  0  0  0  0  0  0  0  0  0
   40.4800   21.7710   37.0370 H   0  0  0  0  0  0  0  0  0  0  0  0
   39.6430   22.2870   39.2410 H   0  0  0  0  0  0  0  0  0  0  0  0
   38.0490   24.2020   39.5190 H   0  0  0  0  0  0  0  0  0  0  0  0
   37.3770   25.4930   37.6000 H   0  0  0  0  0  0  0  0  0  0  0  0
   34.8440   28.9410   32.1310 C   0  0  0  0  0  0  0  0  0  0  0  0
   35.9640   28.1350   32.5080 C   0  0  0  0  0  0  0  0  0  0  0  0
   36.5050   28.3140   33.7480 C   0  0  0  0  0  0  0  0  0  0  0  0
   35.9150   29.2740   34.5440 N   0  0  0  0  0  0  0  0  0  0  0  0
   34.8680   30.0190   34.1770 C   0  0  0  0  0  0  0  0  0  0  0  0
   34.3160   29.8640   32.9650 N   0  0  0  0  0  0  0  0  0  0  0  0
   34.4750   28.7380   31.1350 H   0  0  0  0  0  0  0  0  0  0  0  0
   36.3770   27.4090   31.8480 H   0  0  0  0  0  0  0  0  0  0  0  0
   34.3370   31.0190   35.1660 C   0  0  0  0  0  0  0  0  0  0  0  0
   33.8520   31.8600   34.6780 H   0  0  0  0  0  0  0  0  0  0  0  0
   33.6440   30.4580   35.8470 H   0  0  0  0  0  0  0  0  0  0  0  0
   35.5260   31.4730   36.0280 C   0  0  0  0  0  0  0  0  0  0  0  0
   36.4540   31.0970   35.5030 H   0  0  0  0  0  0  0  0  0  0  0  0
   35.5220   30.9610   36.9880 H   0  0  0  0  0  0  0  0  0  0  0  0
   35.5690   32.9640   36.1130 C   0  0  0  0  0  0  0  0  0  0  0  0
   34.6280   33.7160   36.9240 C   0  0  0  0  0  0  0  0  0  0  0  0
   33.8700   33.2260   37.4890 H   0  0  0  0  0  0  0  0  0  0  0  0
   35.1880   35.4080   36.6120 S   0  0  0  0  0  0  0  0  0  0  0  0
   36.5940   34.8360   35.4450 C   0  0  0  0  0  0  0  0  0  0  0  0
   37.3060   35.4960   34.9300 H   0  0  0  0  0  0  0  0  0  0  0  0
   36.5070   33.5620   35.4120 N   0  0  0  0  0  0  0  0  0  0  0  0
  1  4  1  6  0  0  0
  1  3  1  0  0  0  0
  1  2  1  0  0  0  0
  2  5  1  0  0  0  0
  2  6  1  0  0  0  0
  3  7  1  1  0  0  0
  3  2  1  0  0  0  0
  8  3  1  0  0  0  0
  8 17  1  0  0  0  0
  9  8  2  0  0  0  0
 10  9  1  0  0  0  0
 10 11  2  0  0  0  0
 11 12  1  0  0  0  0
 12 17  2  0  0  0  0
 12 13  1  0  0  0  0
 13 14  2  0  0  0  0
 14 15  1  0  0  0  0
 14 22  1  0  0  0  0
 15 23  1  0  0  0  0
 16 24  1  0  0  0  0
 16 15  2  0  0  0  0
 17 16  1  0  0  0  0
 18  9  1  0  0  0  0
 19 10  1  0  0  0  0
 20 11  1  0  0  0  0
 21 13  1  0  0  0  0
 25 26  2  0  0  0  0
 25 30  1  0  0  0  0
 26 27  1  0  0  0  0
 27  1  1  0  0  0  0
 27 28  2  0  0  0  0
 29 28  1  0  0  0  0
 29 33  1  0  0  0  0
 30 29  2  0  0  0  0
 31 25  1  0  0  0  0
 32 26  1  0  0  0  0
 33 35  1  0  0  0  0
 33 36  1  0  0  0  0
 34 33  1  0  0  0  0
 36 39  1  0  0  0  0
 36 38  1  0  0  0  0
 37 36  1  0  0  0  0
 39 40  2  0  0  0  0
 40 41  1  0  0  0  0
 42 40  1  0  0  0  0
 43 42  1  0  0  0  0
 44 43  1  0  0  0  0
 45 43  2  0  0  0  0
 45 39  1  0  0  0  0
M  END
>  <minimizedAffinity>
-6.11655188

$$$$

 OpenBabel03272509363D

 45 49  0  0  1  0  0  0  0  0999 V2000
   36.3380   28.8140   33.3690 C   0  0  1  0  0  0  0  0  0  0  0  0
   35.7590   29.9810   32.6500 C   0  0  0  0  0  0  0  0  0  0  0  0
   34.8380   29.3240   33.5520 C   0  0  2  0  0  0  0  0  0  0  0  0
   36.8580   28.8570   34.3130 H   0  0  0  0  0  0  0  0  0  0  0  0
   36.4120   30.8410   32.7860 H   0  0  0  0  0  0  0  0  0  0  0  0
   35.6370   29.8020   31.5170 H   0  0  0  0  0  0  0  0  0  0  0  0
   34.1890   28.4750   33.3690 H   0  0  0  0  0  0  0  0  0  0  0  0
   34.5660   30.1630   34.7670 C   0  0  0  0  0  0  0  0  0  0  0  0
   35.7360   30.8410   35.1480 C   0  0  0  0  0  0  0  0  0  0  0  0
   35.6960   31.7510   36.1730 C   0  0  0  0  0  0  0  0  0  0  0  0
   34.5050   32.0270   36.8600 C   0  0  0  0  0  0  0  0  0  0  0  0
   33.3710   31.3380   36.4550 C   0  0  0  0  0  0  0  0  0  0  0  0
   32.1480   31.5020   37.0460 C   0  0  0  0  0  0  0  0  0  0  0  0
   31.0200   30.8200   36.6640 C   0  0  0  0  0  0  0  0  0  0  0  0
   31.1140   29.9160   35.6280 C   0  0  0  0  0  0  0  0  0  0  0  0
   32.3430   29.7420   35.0250 C   0  0  0  0  0  0  0  0  0  0  0  0
   33.4530   30.4510   35.4430 C   0  0  0  0  0  0  0  0  0  0  0  0
   36.7580   30.8720   34.8310 H   0  0  0  0  0  0  0  0  0  0  0  0
   36.4780   32.3590   36.6000 H   0  0  0  0  0  0  0  0  0  0  0  0
   34.3380   32.7160   37.6800 H   0  0  0  0  0  0  0  0  0  0  0  0
   32.0260   32.2050   37.8680 H   0  0  0  0  0  0  0  0  0  0  0  0
   30.0680   30.9820   37.1620 H   0  0  0  0  0  0  0  0  0  0  0  0
   30.2710   29.3450   35.2750 H   0  0  0  0  0  0  0  0  0  0  0  0
   32.3980   29.0140   34.1960 H   0  0  0  0  0  0  0  0  0  0  0  0
   35.9580   26.1950   30.6820 C   0  0  0  0  0  0  0  0  0  0  0  0
   35.8980   27.4520   31.3620 C   0  0  0  0  0  0  0  0  0  0  0  0
   36.3960   27.5280   32.6300 C   0  0  0  0  0  0  0  0  0  0  0  0
   36.9220   26.3660   33.1560 N   0  0  0  0  0  0  0  0  0  0  0  0
   36.9710   25.2000   32.5070 C   0  0  0  0  0  0  0  0  0  0  0  0
   36.4900   25.0960   31.2590 N   0  0  0  0  0  0  0  0  0  0  0  0
   35.5440   26.2190   29.6830 H   0  0  0  0  0  0  0  0  0  0  0  0
   35.4790   28.3160   30.9040 H   0  0  0  0  0  0  0  0  0  0  0  0
   37.5840   24.0250   33.2190 C   0  0  0  0  0  0  0  0  0  0  0  0
   38.5350   24.2760   33.6790 H   0  0  0  0  0  0  0  0  0  0  0  0
   36.8250   23.6710   33.9640 H   0  0  0  0  0  0  0  0  0  0  0  0
   37.7360   22.9010   32.1800 C   0  0  0  0  0  0  0  0  0  0  0  0
   38.7490   22.4380   32.3690 H   0  0  0  0  0  0  0  0  0  0  0  0
   37.8000   23.3140   31.1750 H   0  0  0  0  0  0  0  0  0  0  0  0
   36.6710   21.8720   32.3680 C   0  0  0  0  0  0  0  0  0  0  0  0
   35.8190   21.4360   31.2760 C   0  0  0  0  0  0  0  0  0  0  0  0
   35.9260   21.8390   30.2970 H   0  0  0  0  0  0  0  0  0  0  0  0
   34.7770   20.2220   32.1210 S   0  0  0  0  0  0  0  0  0  0  0  0
   35.6500   20.4920   33.8040 C   0  0  0  0  0  0  0  0  0  0  0  0
   35.4040   19.9760   34.7420 H   0  0  0  0  0  0  0  0  0  0  0  0
   36.5440   21.3770   33.5810 N   0  0  0  0  0  0  0  0  0  0  0  0
  1  3  1  0  0  0  0
  1  4  1  1  0  0  0
  2  5  1  0  0  0  0
  2  1  1  0  0  0  0
  2  3  1  0  0  0  0
  3  7  1  6  0  0  0
  3  8  1  0  0  0  0
  6  2  1  0  0  0  0
  8  9  2  0  0  0  0
  8 17  1  0  0  0  0
  9 10  1  0  0  0  0
 10 19  1  0  0  0  0
 10 11  2  0  0  0  0
 11 20  1  0  0  0  0
 12 11  1  0  0  0  0
 12 13  1  0  0  0  0
 13 21  1  0  0  0  0
 14 13  2  0  0  0  0
 14 22  1  0  0  0  0
 15 14  1  0  0  0  0
 16 17  1  0  0  0  0
 16 15  2  0  0  0  0
 17 12  2  0  0  0  0
 18  9  1  0  0  0  0
 23 15  1  0  0  0  0
 24 16  1  0  0  0  0
 25 30  2  0  0  0  0
 25 26  1  0  0  0  0
 26 27  2  0  0  0  0
 27 28  1  0  0  0  0
 27  1  1  0  0  0  0
 29 28  2  0  0  0  0
 29 33  1  0  0  0  0
 30 29  1  0  0  0  0
 31 25  1  0  0  0  0
 32 26  1  0  0  0  0
 33 34  1  0  0  0  0
 33 35  1  0  0  0  0
 36 39  1  0  0  0  0
 36 37  1  0  0  0  0
 36 33  1  0  0  0  0
 38 36  1  0  0  0  0
 39 45  1  0  0  0  0
 40 42  1  0  0  0  0
 40 39  2  0  0  0  0
 41 40  1  0  0  0  0
 42 43  1  0  0  0  0
 43 44  1  0  0  0  0
 45 43  2  0  0  0  0
M  END
>  <minimizedAffinity>
-6.09052515

$$$$

 OpenBabel03272509363D

 45 49  0  0  1  0  0  0  0  0999 V2000
   38.8300   26.8380   34.5320 C   0  0  1  0  0  0  0  0  0  0  0  0
   38.0360   27.2630   35.7150 C   0  0  0  0  0  0  0  0  0  0  0  0
   37.8070   25.8930   35.3080 C   0  0  2  0  0  0  0  0  0  0  0  0
   39.8210   26.4110   34.5640 H   0  0  0  0  0  0  0  0  0  0  0  0
   38.7070   27.6930   36.4570 H   0  0  0  0  0  0  0  0  0  0  0  0
   37.2310   28.0500   35.4630 H   0  0  0  0  0  0  0  0  0  0  0  0
   37.1120   25.5050   34.5720 H   0  0  0  0  0  0  0  0  0  0  0  0
   38.4090   24.9230   36.2830 C   0  0  0  0  0  0  0  0  0  0  0  0
   37.8240   25.0960   37.5490 C   0  0  0  0  0  0  0  0  0  0  0  0
   38.1460   24.2430   38.5740 C   0  0  0  0  0  0  0  0  0  0  0  0
   39.0530   23.1890   38.3900 C   0  0  0  0  0  0  0  0  0  0  0  0
   39.6100   23.0500   37.1260 C   0  0  0  0  0  0  0  0  0  0  0  0
   40.5160   22.0750   36.8140 C   0  0  0  0  0  0  0  0  0  0  0  0
   41.0830   21.9320   35.5720 C   0  0  0  0  0  0  0  0  0  0  0  0
   40.7250   22.8160   34.5770 C   0  0  0  0  0  0  0  0  0  0  0  0
   39.8120   23.8040   34.8820 C   0  0  0  0  0  0  0  0  0  0  0  0
   39.2670   23.9110   36.1460 C   0  0  0  0  0  0  0  0  0  0  0  0
   37.1140   25.7600   37.9960 H   0  0  0  0  0  0  0  0  0  0  0  0
   37.8060   24.2180   39.5960 H   0  0  0  0  0  0  0  0  0  0  0  0
   39.3910   22.4510   39.1090 H   0  0  0  0  0  0  0  0  0  0  0  0
   40.8280   21.3540   37.5670 H   0  0  0  0  0  0  0  0  0  0  0  0
   41.7990   21.1410   35.3690 H   0  0  0  0  0  0  0  0  0  0  0  0
   41.1300   22.7630   33.5800 H   0  0  0  0  0  0  0  0  0  0  0  0
   39.5380   24.5020   34.0710 H   0  0  0  0  0  0  0  0  0  0  0  0
   38.3730   27.1170   30.7980 C   0  0  0  0  0  0  0  0  0  0  0  0
   38.8860   26.7110   32.0710 C   0  0  0  0  0  0  0  0  0  0  0  0
   38.3140   27.2290   33.1960 C   0  0  0  0  0  0  0  0  0  0  0  0
   37.2720   28.1140   33.0060 N   0  0  0  0  0  0  0  0  0  0  0  0
   36.8050   28.4820   31.8110 C   0  0  0  0  0  0  0  0  0  0  0  0
   37.3480   27.9890   30.6880 N   0  0  0  0  0  0  0  0  0  0  0  0
   38.8800   26.6620   29.9580 H   0  0  0  0  0  0  0  0  0  0  0  0
   39.6940   26.0230   32.1540 H   0  0  0  0  0  0  0  0  0  0  0  0
   35.6570   29.4530   31.7740 C   0  0  0  0  0  0  0  0  0  0  0  0
   35.8570   30.2990   31.1220 H   0  0  0  0  0  0  0  0  0  0  0  0
   34.7540   28.8690   31.4570 H   0  0  0  0  0  0  0  0  0  0  0  0
   35.4030   29.9020   33.2220 C   0  0  0  0  0  0  0  0  0  0  0  0
   35.5730   31.0190   33.2370 H   0  0  0  0  0  0  0  0  0  0  0  0
   36.1610   29.4950   33.8890 H   0  0  0  0  0  0  0  0  0  0  0  0
   33.9940   29.6050   33.6200 C   0  0  0  0  0  0  0  0  0  0  0  0
   32.9460   29.3900   32.6380 C   0  0  0  0  0  0  0  0  0  0  0  0
   33.1480   29.4380   31.5940 H   0  0  0  0  0  0  0  0  0  0  0  0
   31.5270   29.0870   33.7180 S   0  0  0  0  0  0  0  0  0  0  0  0
   32.5650   29.2950   35.3130 C   0  0  0  0  0  0  0  0  0  0  0  0
   32.1840   29.2100   36.3410 H   0  0  0  0  0  0  0  0  0  0  0  0
   33.7510   29.5470   34.9110 N   0  0  0  0  0  0  0  0  0  0  0  0
  1  4  1  1  0  0  0
  1  3  1  0  0  0  0
  1  2  1  0  0  0  0
  2  5  1  0  0  0  0
  3  7  1  6  0  0  0
  3  2  1  0  0  0  0
  3  8  1  0  0  0  0
  6  2  1  0  0  0  0
  8  9  1  0  0  0  0
  9 18  1  0  0  0  0
  9 10  2  0  0  0  0
 10 19  1  0  0  0  0
 11 10  1  0  0  0  0
 11 20  1  0  0  0  0
 12 11  2  0  0  0  0
 13 12  1  0  0  0  0
 13 21  1  0  0  0  0
 14 13  2  0  0  0  0
 15 16  2  0  0  0  0
 15 14  1  0  0  0  0
 16 17  1  0  0  0  0
 17  8  2  0  0  0  0
 17 12  1  0  0  0  0
 22 14  1  0  0  0  0
 23 15  1  0  0  0  0
 24 16  1  0  0  0  0
 25 26  1  0  0  0  0
 26 32  1  0  0  0  0
 26 27  2  0  0  0  0
 27  1  1  0  0  0  0
 28 27  1  0  0  0  0
 29 28  2  0  0  0  0
 30 25  2  0  0  0  0
 30 29  1  0  0  0  0
 31 25  1  0  0  0  0
 33 29  1  0  0  0  0
 33 36  1  0  0  0  0
 34 33  1  0  0  0  0
 35 33  1  0  0  0  0
 36 37  1  0  0  0  0
 36 39  1  0  0  0  0
 36 38  1  0  0  0  0
 39 45  1  0  0  0  0
 40 39  2  0  0  0  0
 40 42  1  0  0  0  0
 41 40  1  0  0  0  0
 42 43  1  0  0  0  0
 43 44  1  0  0  0  0
 45 43  2  0  0  0  0
M  END
>  <minimizedAffinity>
-6.07485867

$$$$

 OpenBabel03272509363D

 45 49  0  0  1  0  0  0  0  0999 V2000
   39.0990   26.7400   34.6590 C   0  0  1  0  0  0  0  0  0  0  0  0
   37.7410   26.6390   35.2580 C   0  0  0  0  0  0  0  0  0  0  0  0
   38.3270   25.3650   34.9010 C   0  0  2  0  0  0  0  0  0  0  0  0
   40.0270   26.7420   35.2100 H   0  0  0  0  0  0  0  0  0  0  0  0
   37.7260   27.1890   36.1970 H   0  0  0  0  0  0  0  0  0  0  0  0
   36.9120   27.0680   34.5800 H   0  0  0  0  0  0  0  0  0  0  0  0
   38.3040   24.8430   33.9510 H   0  0  0  0  0  0  0  0  0  0  0  0
   38.7290   24.5840   36.1190 C   0  0  0  0  0  0  0  0  0  0  0  0
   37.8620   24.8850   37.1830 C   0  0  0  0  0  0  0  0  0  0  0  0
   37.9750   24.2070   38.3700 C   0  0  0  0  0  0  0  0  0  0  0  0
   38.9430   23.2080   38.5520 C   0  0  0  0  0  0  0  0  0  0  0  0
   39.7800   22.9390   37.4780 C   0  0  0  0  0  0  0  0  0  0  0  0
   40.7730   22.0000   37.5240 C   0  0  0  0  0  0  0  0  0  0  0  0
   41.6160   21.7310   36.4750 C   0  0  0  0  0  0  0  0  0  0  0  0
   41.4610   22.4420   35.3040 C   0  0  0  0  0  0  0  0  0  0  0  0
   40.4620   23.3910   35.2470 C   0  0  0  0  0  0  0  0  0  0  0  0
   39.6360   23.6300   36.3290 C   0  0  0  0  0  0  0  0  0  0  0  0
   37.0410   25.5500   37.3570 H   0  0  0  0  0  0  0  0  0  0  0  0
   37.4100   24.2970   39.2840 H   0  0  0  0  0  0  0  0  0  0  0  0
   39.1370   22.6030   39.4300 H   0  0  0  0  0  0  0  0  0  0  0  0
   40.9330   21.4150   38.4280 H   0  0  0  0  0  0  0  0  0  0  0  0
   42.3920   20.9750   36.5560 H   0  0  0  0  0  0  0  0  0  0  0  0
   42.0850   22.2830   34.4410 H   0  0  0  0  0  0  0  0  0  0  0  0
   40.3520   23.9500   34.3000 H   0  0  0  0  0  0  0  0  0  0  0  0
   40.4230   27.3760   31.1860 C   0  0  0  0  0  0  0  0  0  0  0  0
   40.3790   27.0300   32.5730 C   0  0  0  0  0  0  0  0  0  0  0  0
   39.1770   27.0810   33.2160 C   0  0  0  0  0  0  0  0  0  0  0  0
   38.0890   27.4680   32.4610 N   0  0  0  0  0  0  0  0  0  0  0  0
   38.1470   27.7880   31.1650 C   0  0  0  0  0  0  0  0  0  0  0  0
   39.3150   27.7470   30.5070 N   0  0  0  0  0  0  0  0  0  0  0  0
   41.4110   27.3100   30.7500 H   0  0  0  0  0  0  0  0  0  0  0  0
   41.2540   26.7380   33.1040 H   0  0  0  0  0  0  0  0  0  0  0  0
   36.8680   28.1850   30.4820 C   0  0  0  0  0  0  0  0  0  0  0  0
   37.0470   28.6650   29.5240 H   0  0  0  0  0  0  0  0  0  0  0  0
   36.2530   27.2510   30.3870 H   0  0  0  0  0  0  0  0  0  0  0  0
   36.1120   29.1120   31.4480 C   0  0  0  0  0  0  0  0  0  0  0  0
   36.4450   28.8180   32.4870 H   0  0  0  0  0  0  0  0  0  0  0  0
   35.0450   28.9000   31.4270 H   0  0  0  0  0  0  0  0  0  0  0  0
   36.4720   30.5380   31.1910 C   0  0  0  0  0  0  0  0  0  0  0  0
   37.0310   30.9740   29.9230 C   0  0  0  0  0  0  0  0  0  0  0  0
   37.2040   30.2870   29.1290 H   0  0  0  0  0  0  0  0  0  0  0  0
   37.2400   32.7440   30.2360 S   0  0  0  0  0  0  0  0  0  0  0  0
   36.5440   32.6160   32.0150 C   0  0  0  0  0  0  0  0  0  0  0  0
   36.4330   33.4520   32.7210 H   0  0  0  0  0  0  0  0  0  0  0  0
   36.2560   31.3820   32.1760 N   0  0  0  0  0  0  0  0  0  0  0  0
  1  3  1  0  0  0  0
  1  4  1  1  0  0  0
  1  2  1  0  0  0  0
  2  5  1  0  0  0  0
  3  7  1  6  0  0  0
  3  2  1  0  0  0  0
  3  8  1  0  0  0  0
  6  2  1  0  0  0  0
  8 17  2  0  0  0  0
  8  9  1  0  0  0  0
  9 18  1  0  0  0  0
  9 10  2  0  0  0  0
 10 11  1  0  0  0  0
 10 19  1  0  0  0  0
 11 20  1  0  0  0  0
 12 13  1  0  0  0  0
 12 11  2  0  0  0  0
 13 21  1  0  0  0  0
 14 22  1  0  0  0  0
 14 13  2  0  0  0  0
 15 14  1  0  0  0  0
 16 15  2  0  0  0  0
 16 17  1  0  0  0  0
 17 12  1  0  0  0  0
 23 15  1  0  0  0  0
 24 16  1  0  0  0  0
 25 26  1  0  0  0  0
 26 32  1  0  0  0  0
 26 27  2  0  0  0  0
 27  1  1  0  0  0  0
 28 27  1  0  0  0  0
 29 28  2  0  0  0  0
 30 29  1  0  0  0  0
 30 25  2  0  0  0  0
 31 25  1  0  0  0  0
 33 29  1  0  0  0  0
 33 36  1  0  0  0  0
 34 33  1  0  0  0  0
 35 33  1  0  0  0  0
 36 37  1  0  0  0  0
 38 36  1  0  0  0  0
 39 36  1  0  0  0  0
 39 45  1  0  0  0  0
 40 42  1  0  0  0  0
 40 39  2  0  0  0  0
 41 40  1  0  0  0  0
 42 43  1  0  0  0  0
 43 45  2  0  0  0  0
 43 44  1  0  0  0  0
M  END
>  <minimizedAffinity>
-6.05445814

$$$$

 OpenBabel03272509363D

 45 49  0  0  1  0  0  0  0  0999 V2000
   38.8950   26.9690   33.4660 C   0  0  1  0  0  0  0  0  0  0  0  0
   38.4200   27.1400   34.8650 C   0  0  0  0  0  0  0  0  0  0  0  0
   38.0850   25.8610   34.2770 C   0  0  2  0  0  0  0  0  0  0  0  0
   39.8600   26.5810   33.1760 H   0  0  0  0  0  0  0  0  0  0  0  0
   39.2560   27.4510   35.4880 H   0  0  0  0  0  0  0  0  0  0  0  0
   37.5850   27.9300   34.9680 H   0  0  0  0  0  0  0  0  0  0  0  0
   37.2270   25.5880   33.6730 H   0  0  0  0  0  0  0  0  0  0  0  0
   38.8990   24.7510   34.8770 C   0  0  0  0  0  0  0  0  0  0  0  0
   39.8380   24.2890   33.9400 C   0  0  0  0  0  0  0  0  0  0  0  0
   40.7630   23.3460   34.3070 C   0  0  0  0  0  0  0  0  0  0  0  0
   40.7990   22.8240   35.6080 C   0  0  0  0  0  0  0  0  0  0  0  0
   39.8560   23.3050   36.5050 C   0  0  0  0  0  0  0  0  0  0  0  0
   39.7720   22.8730   37.8010 C   0  0  0  0  0  0  0  0  0  0  0  0
   38.8380   23.3310   38.6960 C   0  0  0  0  0  0  0  0  0  0  0  0
   37.9300   24.2790   38.2770 C   0  0  0  0  0  0  0  0  0  0  0  0
   38.0060   24.7210   36.9720 C   0  0  0  0  0  0  0  0  0  0  0  0
   38.9630   24.2320   36.1040 C   0  0  0  0  0  0  0  0  0  0  0  0
   40.0800   24.4870   32.9160 H   0  0  0  0  0  0  0  0  0  0  0  0
   41.5490   22.8780   33.7350 H   0  0  0  0  0  0  0  0  0  0  0  0
   41.4720   22.0820   36.0230 H   0  0  0  0  0  0  0  0  0  0  0  0
   40.4680   22.1260   38.1760 H   0  0  0  0  0  0  0  0  0  0  0  0
   38.8080   22.9600   39.7170 H   0  0  0  0  0  0  0  0  0  0  0  0
   37.1700   24.6840   38.9250 H   0  0  0  0  0  0  0  0  0  0  0  0
   37.2710   25.4820   36.6550 H   0  0  0  0  0  0  0  0  0  0  0  0
   37.6370   28.0520   30.0790 C   0  0  0  0  0  0  0  0  0  0  0  0
   38.4470   27.4420   31.0890 C   0  0  0  0  0  0  0  0  0  0  0  0
   38.0700   27.5790   32.3930 C   0  0  0  0  0  0  0  0  0  0  0  0
   36.9210   28.3060   32.6300 N   0  0  0  0  0  0  0  0  0  0  0  0
   36.1760   28.8690   31.6750 C   0  0  0  0  0  0  0  0  0  0  0  0
   36.5220   28.7510   30.3840 N   0  0  0  0  0  0  0  0  0  0  0  0
   38.0030   27.8970   29.0730 H   0  0  0  0  0  0  0  0  0  0  0  0
   39.3250   26.8920   30.8440 H   0  0  0  0  0  0  0  0  0  0  0  0
   34.9460   29.6250   32.0980 C   0  0  0  0  0  0  0  0  0  0  0  0
   34.1080   29.4500   31.4300 H   0  0  0  0  0  0  0  0  0  0  0  0
   34.7280   29.3140   33.1530 H   0  0  0  0  0  0  0  0  0  0  0  0
   35.3300   31.1130   32.1490 C   0  0  0  0  0  0  0  0  0  0  0  0
   34.4520   31.6760   31.7150 H   0  0  0  0  0  0  0  0  0  0  0  0
   36.1570   31.3190   31.4720 H   0  0  0  0  0  0  0  0  0  0  0  0
   35.5540   31.5440   33.5610 C   0  0  0  0  0  0  0  0  0  0  0  0
   35.0490   30.7820   34.6890 C   0  0  0  0  0  0  0  0  0  0  0  0
   34.4980   29.8830   34.5460 H   0  0  0  0  0  0  0  0  0  0  0  0
   35.6330   31.7930   36.0710 S   0  0  0  0  0  0  0  0  0  0  0  0
   36.4610   33.0760   34.9160 C   0  0  0  0  0  0  0  0  0  0  0  0
   37.0060   33.9730   35.2420 H   0  0  0  0  0  0  0  0  0  0  0  0
   36.2370   32.6560   33.7310 N   0  0  0  0  0  0  0  0  0  0  0  0
  1  4  1  6  0  0  0
  1  3  1  0  0  0  0
  1  2  1  0  0  0  0
  2  6  1  0  0  0  0
  2  5  1  0  0  0  0
  3  7  1  6  0  0  0
  3  2  1  0  0  0  0
  3  8  1  0  0  0  0
  8 17  1  0  0  0  0
  9 10  1  0  0  0  0
  9  8  2  0  0  0  0
 10 11  2  0  0  0  0
 11 20  1  0  0  0  0
 11 12  1  0  0  0  0
 12 13  1  0  0  0  0
 13 21  1  0  0  0  0
 13 14  2  0  0  0  0
 14 22  1  0  0  0  0
 15 14  1  0  0  0  0
 15 23  1  0  0  0  0
 16 15  2  0  0  0  0
 17 12  2  0  0  0  0
 17 16  1  0  0  0  0
 18  9  1  0  0  0  0
 19 10  1  0  0  0  0
 24 16  1  0  0  0  0
 25 30  2  0  0  0  0
 25 26  1  0  0  0  0
 26 27  2  0  0  0  0
 27 28  1  0  0  0  0
 27  1  1  0  0  0  0
 29 33  1  0  0  0  0
 29 28  2  0  0  0  0
 30 29  1  0  0  0  0
 31 25  1  0  0  0  0
 32 26  1  0  0  0  0
 33 36  1  0  0  0  0
 33 35  1  0  0  0  0
 34 33  1  0  0  0  0
 36 39  1  0  0  0  0
 37 36  1  0  0  0  0
 38 36  1  0  0  0  0
 39 45  1  0  0  0  0
 39 40  2  0  0  0  0
 40 42  1  0  0  0  0
 41 40  1  0  0  0  0
 43 44  1  0  0  0  0
 43 42  1  0  0  0  0
 45 43  2  0  0  0  0
M  END
>  <minimizedAffinity>
-6.04100323

$$$$
