
 OpenBabel03272509473D

 23 24  0  0  0  0  0  0  0  0999 V2000
   34.0870   28.4850   48.5980 C   0  0  0  0  0  0  0  0  0  0  0  0
   33.1070   29.0240   48.7080 H   0  0  0  0  0  0  0  0  0  0  0  0
   34.6890   29.0810   47.8660 H   0  0  0  0  0  0  0  0  0  0  0  0
   33.8110   27.1550   47.9360 C   0  0  0  0  0  0  0  0  0  0  0  0
   33.1590   26.5570   48.5840 H   0  0  0  0  0  0  0  0  0  0  0  0
   34.7370   26.5960   47.7620 H   0  0  0  0  0  0  0  0  0  0  0  0
   33.1110   27.4900   46.6430 C   0  0  0  0  0  0  0  0  0  0  0  0
   32.4180   28.7700   46.7120 C   0  0  0  0  0  0  0  0  0  0  0  0
   32.3000   29.5170   47.4750 H   0  0  0  0  0  0  0  0  0  0  0  0
   31.6640   28.9310   45.0360 S   0  0  0  0  0  0  0  0  0  0  0  0
   32.4080   27.2560   44.5340 C   0  0  0  0  0  0  0  0  0  0  0  0
   32.5470   26.3920   43.6570 H   0  0  0  0  0  0  0  0  0  0  0  0
   32.9600   26.9250   45.4600 N   0  0  0  0  0  0  0  0  0  0  0  0
   34.7400   28.2930   49.8290 O   0  0  0  0  0  0  0  0  0  0  0  0
   37.3600   30.2410   51.4220 C   0  0  0  0  0  0  0  0  0  0  0  0
   38.0550   30.6680   50.2780 C   0  0  0  0  0  0  0  0  0  0  0  0
   37.5930   30.2680   49.0280 C   0  0  0  0  0  0  0  0  0  0  0  0
   36.4790   29.4770   48.9960 N   0  0  0  0  0  0  0  0  0  0  0  0
   35.8380   29.0880   50.1210 C   0  0  0  0  0  0  0  0  0  0  0  0
   36.2900   29.4780   51.3180 N   0  0  0  0  0  0  0  0  0  0  0  0
   37.6920   30.5340   52.4140 H   0  0  0  0  0  0  0  0  0  0  0  0
   38.9380   31.3000   50.3710 H   0  0  0  0  0  0  0  0  0  0  0  0
   38.0970   30.5730   48.1190 H   0  0  0  0  0  0  0  0  0  0  0  0
  1  2  1  0  0  0  0
  1 14  1  0  0  0  0
  3  1  1  0  0  0  0
  4  5  1  0  0  0  0
  4  1  1  0  0  0  0
  6  4  1  0  0  0  0
  7  8  2  0  0  0  0
  7  4  1  0  0  0  0
  8  9  1  0  0  0  0
 10  8  1  0  0  0  0
 11 10  1  0  0  0  0
 11 13  2  0  0  0  0
 12 11  1  0  0  0  0
 13  7  1  0  0  0  0
 14 19  1  0  0  0  0
 15 21  1  0  0  0  0
 16 22  1  0  0  0  0
 16 15  2  0  0  0  0
 17 16  1  0  0  0  0
 18 17  2  0  0  0  0
 18 19  1  0  0  0  0
 19 20  2  0  0  0  0
 20 15  1  0  0  0  0
 23 17  1  0  0  0  0
M  END
>  <minimizedAffinity>
-3.61034465

>  <minimizedRMSD>
0.219657764

$$$$
