
 OpenBabel03272509543D

 41 44  0  0  0  0  0  0  0  0999 V2000
   34.5050   29.0560   47.7490 C   0  0  0  0  0  0  0  0  0  0  0  0
   35.3440   29.4220   47.1180 H   0  0  0  0  0  0  0  0  0  0  0  0
   33.8850   29.9340   48.0150 H   0  0  0  0  0  0  0  0  0  0  0  0
   33.7560   27.9920   47.0160 C   0  0  0  0  0  0  0  0  0  0  0  0
   34.2010   26.9970   47.1390 H   0  0  0  0  0  0  0  0  0  0  0  0
   33.7930   28.2060   45.9090 H   0  0  0  0  0  0  0  0  0  0  0  0
   32.3160   27.9500   47.3480 C   0  0  0  0  0  0  0  0  0  0  0  0
   31.8960   27.0280   48.2940 C   0  0  0  0  0  0  0  0  0  0  0  0
   30.5950   26.8930   48.6830 C   0  0  0  0  0  0  0  0  0  0  0  0
   29.6840   27.6890   48.1250 N   0  0  0  0  0  0  0  0  0  0  0  0
   30.0830   28.5960   47.1970 C   0  0  0  0  0  0  0  0  0  0  0  0
   31.3720   28.7450   46.7960 N   0  0  0  0  0  0  0  0  0  0  0  0
   32.6360   26.3700   48.7580 H   0  0  0  0  0  0  0  0  0  0  0  0
   30.2960   26.1630   49.4250 H   0  0  0  0  0  0  0  0  0  0  0  0
   29.0580   29.4700   46.5870 C   0  0  0  0  0  0  0  0  0  0  0  0
   27.7150   29.6740   47.1290 C   0  0  0  0  0  0  0  0  0  0  0  0
   27.4540   29.1710   48.0030 H   0  0  0  0  0  0  0  0  0  0  0  0
   27.0970   30.8800   45.7960 S   0  0  0  0  0  0  0  0  0  0  0  0
   28.7300   30.8320   44.8570 C   0  0  0  0  0  0  0  0  0  0  0  0
   28.7810   31.4430   43.9570 H   0  0  0  0  0  0  0  0  0  0  0  0
   29.4660   30.0720   45.4810 N   0  0  0  0  0  0  0  0  0  0  0  0
   35.1390   28.5120   48.9080 O   0  0  0  0  0  0  0  0  0  0  0  0
   37.3020   30.0920   51.3270 C   0  0  0  0  0  0  0  0  0  0  0  0
   38.0980   30.8800   50.4670 C   0  0  0  0  0  0  0  0  0  0  0  0
   37.8390   30.8170   49.1020 C   0  0  0  0  0  0  0  0  0  0  0  0
   36.8190   29.9820   48.7240 N   0  0  0  0  0  0  0  0  0  0  0  0
   36.0780   29.2470   49.5480 C   0  0  0  0  0  0  0  0  0  0  0  0
   36.3330   29.3110   50.8610 N   0  0  0  0  0  0  0  0  0  0  0  0
   37.5450   30.1790   52.3690 H   0  0  0  0  0  0  0  0  0  0  0  0
   38.8940   31.5290   50.7860 H   0  0  0  0  0  0  0  0  0  0  0  0
   38.8710   33.5130   49.2130 F   0  0  0  0  0  0  0  0  0  0  0  0
   39.0310   32.8050   48.1090 C   0  0  0  0  0  0  0  0  0  0  0  0
   38.5370   31.5410   48.0800 C   0  0  0  0  0  0  0  0  0  0  0  0
   38.7630   30.8840   46.8650 C   0  0  0  0  0  0  0  0  0  0  0  0
   39.4230   31.4770   45.8100 C   0  0  0  0  0  0  0  0  0  0  0  0
   39.9030   32.7620   45.8950 C   0  0  0  0  0  0  0  0  0  0  0  0
   39.6930   33.4200   47.0710 C   0  0  0  0  0  0  0  0  0  0  0  0
   38.4130   29.8620   46.7210 H   0  0  0  0  0  0  0  0  0  0  0  0
   39.5670   30.9100   44.8890 H   0  0  0  0  0  0  0  0  0  0  0  0
   40.4040   33.1600   45.0410 H   0  0  0  0  0  0  0  0  0  0  0  0
   40.0640   34.4320   47.1560 H   0  0  0  0  0  0  0  0  0  0  0  0
  1  3  1  0  0  0  0
  1 22  1  0  0  0  0
  2  1  1  0  0  0  0
  4  5  1  0  0  0  0
  4  7  1  0  0  0  0
  4  1  1  0  0  0  0
  6  4  1  0  0  0  0
  7  8  1  0  0  0  0
  8  9  2  0  0  0  0
  8 13  1  0  0  0  0
  9 14  1  0  0  0  0
 10  9  1  0  0  0  0
 11 10  2  0  0  0  0
 12 11  1  0  0  0  0
 12  7  2  0  0  0  0
 15 16  2  0  0  0  0
 15 11  1  0  0  0  0
 16 17  1  0  0  0  0
 18 16  1  0  0  0  0
 19 21  2  0  0  0  0
 19 18  1  0  0  0  0
 20 19  1  0  0  0  0
 21 15  1  0  0  0  0
 22 27  1  0  0  0  0
 23 29  1  0  0  0  0
 24 30  1  0  0  0  0
 24 23  2  0  0  0  0
 25 24  1  0  0  0  0
 26 25  2  0  0  0  0
 26 27  1  0  0  0  0
 27 28  2  0  0  0  0
 28 23  1  0  0  0  0
 32 31  1  0  0  0  0
 33 32  1  0  0  0  0
 33 25  1  0  0  0  0
 34 33  2  0  0  0  0
 35 36  2  0  0  0  0
 35 34  1  0  0  0  0
 36 37  1  0  0  0  0
 37 41  1  0  0  0  0
 37 32  2  0  0  0  0
 38 34  1  0  0  0  0
 39 35  1  0  0  0  0
 40 36  1  0  0  0  0
M  END
>  <minimizedAffinity>
-6.63580275

>  <minimizedRMSD>
0.871360004

$$$$
