
 OpenBabel03272507553D

 21 22  0  0  0  0  0  0  0  0999 V2000
   35.2160   30.3130   49.4620 C   0  0  0  0  0  0  0  0  0  0  0  0
   36.4550   30.7930   48.9730 C   0  0  0  0  0  0  0  0  0  0  0  0
   36.6560   30.7890   47.5950 C   0  0  0  0  0  0  0  0  0  0  0  0
   35.6610   30.3280   46.7840 N   0  0  0  0  0  0  0  0  0  0  0  0
   34.4820   29.8730   47.2990 C   0  0  0  0  0  0  0  0  0  0  0  0
   34.2550   29.8650   48.6320 N   0  0  0  0  0  0  0  0  0  0  0  0
   33.5900   29.4410   46.2840 N   0  0  0  0  0  0  0  0  0  0  0  0
   34.9990   30.2910   50.5240 H   0  0  0  0  0  0  0  0  0  0  0  0
   32.9220   30.0180   45.7090 H   0  0  0  0  0  0  0  0  0  0  0  0
   33.8150   28.4060   46.3010 H   0  0  0  0  0  0  0  0  0  0  0  0
   37.9250   31.2800   47.0520 C   0  0  0  0  0  0  0  0  0  0  0  0
   38.7010   30.3670   46.3430 C   0  0  0  0  0  0  0  0  0  0  0  0
   38.5540   29.3260   46.1010 H   0  0  0  0  0  0  0  0  0  0  0  0
   40.1660   31.3580   45.8490 S   0  0  0  0  0  0  0  0  0  0  0  0
   39.4330   32.8930   46.7260 C   0  0  0  0  0  0  0  0  0  0  0  0
   39.7830   33.9750   46.8700 H   0  0  0  0  0  0  0  0  0  0  0  0
   38.4620   32.4830   47.1310 N   0  0  0  0  0  0  0  0  0  0  0  0
   37.4780   31.2760   49.9370 C   0  0  0  0  0  0  0  0  0  0  0  0
   38.7350   30.7610   49.6390 F   0  0  0  0  0  0  0  0  0  0  0  0
   37.5350   32.6410   49.8560 F   0  0  0  0  0  0  0  0  0  0  0  0
   37.1850   30.9290   51.2400 F   0  0  0  0  0  0  0  0  0  0  0  0
  1  8  1  0  0  0  0
  2  1  1  0  0  0  0
  2 18  1  0  0  0  0
  3  2  2  0  0  0  0
  4  5  2  0  0  0  0
  4  3  1  0  0  0  0
  5  6  1  0  0  0  0
  6  1  2  0  0  0  0
  7 10  1  0  0  0  0
  7  5  1  0  0  0  0
  9  7  1  0  0  0  0
 11 17  1  0  0  0  0
 11  3  1  0  0  0  0
 12 11  2  0  0  0  0
 13 12  1  0  0  0  0
 14 12  1  0  0  0  0
 14 15  1  0  0  0  0
 15 16  1  0  0  0  0
 15 17  2  0  0  0  0
 18 21  1  0  0  0  0
 19 18  1  0  0  0  0
 20 18  1  0  0  0  0
M  END
>  <minimizedAffinity>
-4.91826153

>  <minimizedRMSD>
1.75342393

$$$$
