
 OpenBabel03272505033D

 27 29  0  0  0  0  0  0  0  0999 V2000
   37.8650   23.8420   33.3540 Cl  0  0  0  0  0  0  0  0  0  0  0  0
   37.8120   25.3910   34.1750 C   0  0  0  0  0  0  0  0  0  0  0  0
   38.4200   25.5060   35.3970 C   0  0  0  0  0  0  0  0  0  0  0  0
   38.3400   26.7540   35.9930 C   0  0  0  0  0  0  0  0  0  0  0  0
   37.6710   27.7940   35.3490 C   0  0  0  0  0  0  0  0  0  0  0  0
   37.0790   27.6210   34.1220 C   0  0  0  0  0  0  0  0  0  0  0  0
   37.1530   26.3790   33.5190 C   0  0  0  0  0  0  0  0  0  0  0  0
   38.7810   26.9610   36.9560 H   0  0  0  0  0  0  0  0  0  0  0  0
   37.6230   28.7600   35.8400 H   0  0  0  0  0  0  0  0  0  0  0  0
   36.5660   28.4600   33.6530 H   0  0  0  0  0  0  0  0  0  0  0  0
   40.3540   23.9390   35.6070 C   0  0  0  0  0  0  0  0  0  0  0  0
   39.1190   24.4230   36.0710 C   0  0  0  0  0  0  0  0  0  0  0  0
   38.5930   23.8220   37.1980 C   0  0  0  0  0  0  0  0  0  0  0  0
   39.2870   22.8180   37.7850 N   0  0  0  0  0  0  0  0  0  0  0  0
   40.4690   22.3780   37.3160 C   0  0  0  0  0  0  0  0  0  0  0  0
   40.9990   22.9420   36.2260 N   0  0  0  0  0  0  0  0  0  0  0  0
   40.7970   24.3880   34.7230 H   0  0  0  0  0  0  0  0  0  0  0  0
   37.6420   24.1840   37.5690 H   0  0  0  0  0  0  0  0  0  0  0  0
   40.9520   21.5790   37.8390 H   0  0  0  0  0  0  0  0  0  0  0  0
   36.5510   26.2330   32.2870 O   0  0  0  0  0  0  0  0  0  0  0  0
   37.0180   27.0730   31.2560 C   0  0  0  0  0  0  0  0  0  0  0  0
   38.2550   26.6520   30.8290 C   0  0  0  0  0  0  0  0  0  0  0  0
   38.9920   25.9020   31.0100 H   0  0  0  0  0  0  0  0  0  0  0  0
   38.6500   27.8950   29.4960 S   0  0  0  0  0  0  0  0  0  0  0  0
   36.9700   28.7740   29.8070 C   0  0  0  0  0  0  0  0  0  0  0  0
   36.2650   29.6690   29.4810 H   0  0  0  0  0  0  0  0  0  0  0  0
   36.5530   28.1350   30.6310 N   0  0  0  0  0  0  0  0  0  0  0  0
  1  2  1  0  0  0  0
  2  3  1  0  0  0  0
  3  4  2  0  0  0  0
  3 12  1  0  0  0  0
  4  8  1  0  0  0  0
  5  9  1  0  0  0  0
  5  4  1  0  0  0  0
  6  5  2  0  0  0  0
  7  6  1  0  0  0  0
  7  2  2  0  0  0  0
 10  6  1  0  0  0  0
 11 12  2  0  0  0  0
 11 16  1  0  0  0  0
 12 13  1  0  0  0  0
 13 18  1  0  0  0  0
 13 14  2  0  0  0  0
 15 14  1  0  0  0  0
 15 19  1  0  0  0  0
 16 15  2  0  0  0  0
 17 11  1  0  0  0  0
 20  7  1  0  0  0  0
 21 20  1  0  0  0  0
 22 23  1  0  0  0  0
 22 21  2  0  0  0  0
 24 25  1  0  0  0  0
 24 22  1  0  0  0  0
 25 27  2  0  0  0  0
 26 25  1  0  0  0  0
 27 21  1  0  0  0  0
M  END
>  <minimizedAffinity>
-4.86455011

$$$$

 OpenBabel03272505033D

 27 29  0  0  0  0  0  0  0  0999 V2000
   36.4080   28.0260   34.5750 Cl  0  0  0  0  0  0  0  0  0  0  0  0
   36.2440   29.0550   33.1640 C   0  0  0  0  0  0  0  0  0  0  0  0
   35.6220   30.2670   33.3060 C   0  0  0  0  0  0  0  0  0  0  0  0
   35.5230   31.0300   32.1540 C   0  0  0  0  0  0  0  0  0  0  0  0
   36.0390   30.5490   30.9520 C   0  0  0  0  0  0  0  0  0  0  0  0
   36.6540   29.3240   30.8680 C   0  0  0  0  0  0  0  0  0  0  0  0
   36.7580   28.5540   32.0120 C   0  0  0  0  0  0  0  0  0  0  0  0
   35.0520   32.0010   32.1460 H   0  0  0  0  0  0  0  0  0  0  0  0
   35.9460   31.1670   30.0650 H   0  0  0  0  0  0  0  0  0  0  0  0
   37.0440   28.9860   29.9080 H   0  0  0  0  0  0  0  0  0  0  0  0
   33.7460   30.5510   34.9310 C   0  0  0  0  0  0  0  0  0  0  0  0
   35.0840   30.7710   34.5600 C   0  0  0  0  0  0  0  0  0  0  0  0
   35.8680   31.4910   35.4400 C   0  0  0  0  0  0  0  0  0  0  0  0
   35.3150   31.9350   36.5920 N   0  0  0  0  0  0  0  0  0  0  0  0
   34.0300   31.7070   36.9200 C   0  0  0  0  0  0  0  0  0  0  0  0
   33.2490   31.0130   36.0850 N   0  0  0  0  0  0  0  0  0  0  0  0
   33.1000   29.9880   34.2630 H   0  0  0  0  0  0  0  0  0  0  0  0
   36.9020   31.6690   35.1680 H   0  0  0  0  0  0  0  0  0  0  0  0
   33.6710   32.0930   37.8500 H   0  0  0  0  0  0  0  0  0  0  0  0
   37.3800   27.3290   31.9010 O   0  0  0  0  0  0  0  0  0  0  0  0
   36.5550   26.2320   31.5820 C   0  0  0  0  0  0  0  0  0  0  0  0
   37.1410   25.0630   32.0050 C   0  0  0  0  0  0  0  0  0  0  0  0
   38.0140   24.6940   32.4960 H   0  0  0  0  0  0  0  0  0  0  0  0
   35.8870   23.7870   31.4800 S   0  0  0  0  0  0  0  0  0  0  0  0
   34.7680   25.1720   30.7590 C   0  0  0  0  0  0  0  0  0  0  0  0
   33.7470   25.4090   30.2040 H   0  0  0  0  0  0  0  0  0  0  0  0
   35.3880   26.0790   30.9900 N   0  0  0  0  0  0  0  0  0  0  0  0
  2  3  1  0  0  0  0
  2  1  1  0  0  0  0
  3 12  1  0  0  0  0
  4  3  2  0  0  0  0
  5  4  1  0  0  0  0
  6  5  2  0  0  0  0
  6  7  1  0  0  0  0
  7  2  2  0  0  0  0
  8  4  1  0  0  0  0
  9  5  1  0  0  0  0
 10  6  1  0  0  0  0
 11 16  1  0  0  0  0
 12 11  2  0  0  0  0
 12 13  1  0  0  0  0
 13 14  2  0  0  0  0
 14 15  1  0  0  0  0
 15 19  1  0  0  0  0
 16 15  2  0  0  0  0
 17 11  1  0  0  0  0
 18 13  1  0  0  0  0
 20  7  1  0  0  0  0
 21 20  1  0  0  0  0
 21 22  2  0  0  0  0
 22 23  1  0  0  0  0
 24 22  1  0  0  0  0
 25 27  2  0  0  0  0
 25 24  1  0  0  0  0
 26 25  1  0  0  0  0
 27 21  1  0  0  0  0
M  END
>  <minimizedAffinity>
-4.83043528

$$$$

 OpenBabel03272505033D

 27 29  0  0  0  0  0  0  0  0999 V2000
   37.5730   24.2120   32.7710 Cl  0  0  0  0  0  0  0  0  0  0  0  0
   37.8600   25.3190   34.1000 C   0  0  0  0  0  0  0  0  0  0  0  0
   37.8420   26.6650   33.8470 C   0  0  0  0  0  0  0  0  0  0  0  0
   38.0790   27.4850   34.9380 C   0  0  0  0  0  0  0  0  0  0  0  0
   38.3150   26.9270   36.1920 C   0  0  0  0  0  0  0  0  0  0  0  0
   38.3210   25.5670   36.3890 C   0  0  0  0  0  0  0  0  0  0  0  0
   38.0870   24.7400   35.3060 C   0  0  0  0  0  0  0  0  0  0  0  0
   38.0890   28.5620   34.8560 H   0  0  0  0  0  0  0  0  0  0  0  0
   38.4980   27.5930   37.0290 H   0  0  0  0  0  0  0  0  0  0  0  0
   38.5100   25.1720   37.3860 H   0  0  0  0  0  0  0  0  0  0  0  0
   38.6390   27.4980   31.6300 C   0  0  0  0  0  0  0  0  0  0  0  0
   37.5950   27.2500   32.5380 C   0  0  0  0  0  0  0  0  0  0  0  0
   36.3180   27.5900   32.1330 C   0  0  0  0  0  0  0  0  0  0  0  0
   36.1460   28.1310   30.9050 N   0  0  0  0  0  0  0  0  0  0  0  0
   37.1680   28.3540   30.0570 C   0  0  0  0  0  0  0  0  0  0  0  0
   38.4130   28.0360   30.4240 N   0  0  0  0  0  0  0  0  0  0  0  0
   39.6560   27.2430   31.9140 H   0  0  0  0  0  0  0  0  0  0  0  0
   35.5030   27.4050   32.8220 H   0  0  0  0  0  0  0  0  0  0  0  0
   36.9460   28.7860   29.1040 H   0  0  0  0  0  0  0  0  0  0  0  0
   38.0980   23.3800   35.5300 O   0  0  0  0  0  0  0  0  0  0  0  0
   39.3150   22.8270   35.9780 C   0  0  0  0  0  0  0  0  0  0  0  0
   40.1320   22.5550   34.9070 C   0  0  0  0  0  0  0  0  0  0  0  0
   40.1640   22.6180   33.8430 H   0  0  0  0  0  0  0  0  0  0  0  0
   41.6420   21.8470   35.7400 S   0  0  0  0  0  0  0  0  0  0  0  0
   40.8130   22.0770   37.4570 C   0  0  0  0  0  0  0  0  0  0  0  0
   40.9420   21.9370   38.6280 H   0  0  0  0  0  0  0  0  0  0  0  0
   39.8280   22.5210   37.1530 N   0  0  0  0  0  0  0  0  0  0  0  0
  1  2  1  0  0  0  0
  2  7  1  0  0  0  0
  3  2  2  0  0  0  0
  3  4  1  0  0  0  0
  4  5  2  0  0  0  0
  5  6  1  0  0  0  0
  5  9  1  0  0  0  0
  6 10  1  0  0  0  0
  7 20  1  0  0  0  0
  7  6  2  0  0  0  0
  8  4  1  0  0  0  0
 11 17  1  0  0  0  0
 11 12  1  0  0  0  0
 12  3  1  0  0  0  0
 13 12  2  0  0  0  0
 13 18  1  0  0  0  0
 14 13  1  0  0  0  0
 15 16  1  0  0  0  0
 15 14  2  0  0  0  0
 16 11  2  0  0  0  0
 19 15  1  0  0  0  0
 20 21  1  0  0  0  0
 21 27  1  0  0  0  0
 22 24  1  0  0  0  0
 22 21  2  0  0  0  0
 23 22  1  0  0  0  0
 24 25  1  0  0  0  0
 25 26  1  0  0  0  0
 27 25  2  0  0  0  0
M  END
>  <minimizedAffinity>
-4.74849272

$$$$

 OpenBabel03272505033D

 27 29  0  0  0  0  0  0  0  0999 V2000
   38.3170   27.1920   33.1290 Cl  0  0  0  0  0  0  0  0  0  0  0  0
   37.1960   26.1000   32.3380 C   0  0  0  0  0  0  0  0  0  0  0  0
   36.1590   26.6340   31.6180 C   0  0  0  0  0  0  0  0  0  0  0  0
   35.3080   25.7180   31.0210 C   0  0  0  0  0  0  0  0  0  0  0  0
   35.5350   24.3520   31.1740 C   0  0  0  0  0  0  0  0  0  0  0  0
   36.5920   23.8720   31.9080 C   0  0  0  0  0  0  0  0  0  0  0  0
   37.4470   24.7780   32.5090 C   0  0  0  0  0  0  0  0  0  0  0  0
   34.4580   26.0240   30.4300 H   0  0  0  0  0  0  0  0  0  0  0  0
   34.8530   23.6570   30.6960 H   0  0  0  0  0  0  0  0  0  0  0  0
   36.7330   22.7960   32.0030 H   0  0  0  0  0  0  0  0  0  0  0  0
   36.5370   28.8000   30.4340 C   0  0  0  0  0  0  0  0  0  0  0  0
   35.9210   28.0600   31.4570 C   0  0  0  0  0  0  0  0  0  0  0  0
   35.0770   28.7460   32.3080 C   0  0  0  0  0  0  0  0  0  0  0  0
   34.8920   30.0730   32.1110 N   0  0  0  0  0  0  0  0  0  0  0  0
   35.4970   30.7540   31.1210 C   0  0  0  0  0  0  0  0  0  0  0  0
   36.3190   30.1140   30.2840 N   0  0  0  0  0  0  0  0  0  0  0  0
   37.2070   28.2930   29.7460 H   0  0  0  0  0  0  0  0  0  0  0  0
   34.5950   28.1890   33.1020 H   0  0  0  0  0  0  0  0  0  0  0  0
   35.2970   31.8020   31.0340 H   0  0  0  0  0  0  0  0  0  0  0  0
   38.5010   24.2710   33.2400 O   0  0  0  0  0  0  0  0  0  0  0  0
   38.1740   23.6380   34.4570 C   0  0  0  0  0  0  0  0  0  0  0  0
   38.2940   24.5270   35.4980 C   0  0  0  0  0  0  0  0  0  0  0  0
   38.5520   25.5410   35.7060 H   0  0  0  0  0  0  0  0  0  0  0  0
   37.8210   23.4760   36.9630 S   0  0  0  0  0  0  0  0  0  0  0  0
   37.5430   21.9700   35.8040 C   0  0  0  0  0  0  0  0  0  0  0  0
   37.2310   20.8270   35.7490 H   0  0  0  0  0  0  0  0  0  0  0  0
   37.7930   22.4270   34.8090 N   0  0  0  0  0  0  0  0  0  0  0  0
  2  7  1  0  0  0  0
  2  1  1  0  0  0  0
  3  2  2  0  0  0  0
  4  5  2  0  0  0  0
  4  3  1  0  0  0  0
  5  6  1  0  0  0  0
  6 10  1  0  0  0  0
  6  7  2  0  0  0  0
  7 20  1  0  0  0  0
  8  4  1  0  0  0  0
  9  5  1  0  0  0  0
 11 12  1  0  0  0  0
 12  3  1  0  0  0  0
 12 13  2  0  0  0  0
 13 18  1  0  0  0  0
 14 13  1  0  0  0  0
 15 14  2  0  0  0  0
 16 11  2  0  0  0  0
 16 15  1  0  0  0  0
 17 11  1  0  0  0  0
 19 15  1  0  0  0  0
 20 21  1  0  0  0  0
 21 27  1  0  0  0  0
 21 22  2  0  0  0  0
 22 23  1  0  0  0  0
 22 24  1  0  0  0  0
 25 24  1  0  0  0  0
 26 25  1  0  0  0  0
 27 25  2  0  0  0  0
M  END
>  <minimizedAffinity>
-4.65384054

$$$$

 OpenBabel03272505033D

 27 29  0  0  0  0  0  0  0  0999 V2000
   39.3340   26.7020   35.0800 Cl  0  0  0  0  0  0  0  0  0  0  0  0
   38.7200   25.4290   34.0420 C   0  0  0  0  0  0  0  0  0  0  0  0
   38.4270   24.2130   34.5990 C   0  0  0  0  0  0  0  0  0  0  0  0
   37.9490   23.2500   33.7240 C   0  0  0  0  0  0  0  0  0  0  0  0
   37.7940   23.5510   32.3730 C   0  0  0  0  0  0  0  0  0  0  0  0
   38.1030   24.7900   31.8670 C   0  0  0  0  0  0  0  0  0  0  0  0
   38.5820   25.7580   32.7320 C   0  0  0  0  0  0  0  0  0  0  0  0
   37.6870   22.2560   34.0520 H   0  0  0  0  0  0  0  0  0  0  0  0
   37.4180   22.7780   31.7110 H   0  0  0  0  0  0  0  0  0  0  0  0
   37.9670   24.9830   30.8040 H   0  0  0  0  0  0  0  0  0  0  0  0
   37.6560   24.3210   36.9730 C   0  0  0  0  0  0  0  0  0  0  0  0
   38.5880   23.8970   36.0100 C   0  0  0  0  0  0  0  0  0  0  0  0
   39.6690   23.1660   36.4630 C   0  0  0  0  0  0  0  0  0  0  0  0
   39.7690   22.9020   37.7870 N   0  0  0  0  0  0  0  0  0  0  0  0
   38.8580   23.3220   38.6840 C   0  0  0  0  0  0  0  0  0  0  0  0
   37.8020   24.0310   38.2720 N   0  0  0  0  0  0  0  0  0  0  0  0
   36.7930   24.8980   36.6520 H   0  0  0  0  0  0  0  0  0  0  0  0
   40.3970   22.8320   35.7330 H   0  0  0  0  0  0  0  0  0  0  0  0
   39.0110   23.0700   39.7120 H   0  0  0  0  0  0  0  0  0  0  0  0
   38.8840   26.9930   32.2000 O   0  0  0  0  0  0  0  0  0  0  0  0
   37.7960   27.8570   31.9590 C   0  0  0  0  0  0  0  0  0  0  0  0
   37.9010   28.4070   30.7040 C   0  0  0  0  0  0  0  0  0  0  0  0
   38.5260   28.4070   29.8400 H   0  0  0  0  0  0  0  0  0  0  0  0
   36.3820   29.4870   30.6260 S   0  0  0  0  0  0  0  0  0  0  0  0
   35.8930   28.9420   32.4020 C   0  0  0  0  0  0  0  0  0  0  0  0
   35.0950   29.0580   33.2710 H   0  0  0  0  0  0  0  0  0  0  0  0
   36.7390   28.2430   32.6430 N   0  0  0  0  0  0  0  0  0  0  0  0
  2  3  1  0  0  0  0
  2  1  1  0  0  0  0
  3 12  1  0  0  0  0
  4  8  1  0  0  0  0
  4  3  2  0  0  0  0
  5  4  1  0  0  0  0
  6  5  2  0  0  0  0
  6  7  1  0  0  0  0
  7  2  2  0  0  0  0
  9  5  1  0  0  0  0
 10  6  1  0  0  0  0
 11 16  1  0  0  0  0
 12 13  1  0  0  0  0
 12 11  2  0  0  0  0
 13 14  2  0  0  0  0
 14 15  1  0  0  0  0
 15 19  1  0  0  0  0
 16 15  2  0  0  0  0
 17 11  1  0  0  0  0
 18 13  1  0  0  0  0
 20  7  1  0  0  0  0
 21 20  1  0  0  0  0
 21 27  1  0  0  0  0
 22 21  2  0  0  0  0
 23 22  1  0  0  0  0
 24 22  1  0  0  0  0
 24 25  1  0  0  0  0
 25 27  2  0  0  0  0
 25 26  1  0  0  0  0
M  END
>  <minimizedAffinity>
-4.57809496

$$$$

 OpenBabel03272505033D

 27 29  0  0  0  0  0  0  0  0999 V2000
   38.6240   22.1010   33.0040 Cl  0  0  0  0  0  0  0  0  0  0  0  0
   37.3130   23.0060   32.2700 C   0  0  0  0  0  0  0  0  0  0  0  0
   36.2290   22.3180   31.7910 C   0  0  0  0  0  0  0  0  0  0  0  0
   35.2310   23.0920   31.2220 C   0  0  0  0  0  0  0  0  0  0  0  0
   35.3670   24.4770   31.1650 C   0  0  0  0  0  0  0  0  0  0  0  0
   36.4780   25.1150   31.6620 C   0  0  0  0  0  0  0  0  0  0  0  0
   37.4810   24.3520   32.2320 C   0  0  0  0  0  0  0  0  0  0  0  0
   34.3320   22.6580   30.8110 H   0  0  0  0  0  0  0  0  0  0  0  0
   34.5700   25.0570   30.7130 H   0  0  0  0  0  0  0  0  0  0  0  0
   36.5450   26.2000   31.5970 H   0  0  0  0  0  0  0  0  0  0  0  0
   35.5680   20.2280   32.9880 C   0  0  0  0  0  0  0  0  0  0  0  0
   36.0840   20.8720   31.8500 C   0  0  0  0  0  0  0  0  0  0  0  0
   36.4500   20.0700   30.7870 C   0  0  0  0  0  0  0  0  0  0  0  0
   36.2930   18.7300   30.8970 N   0  0  0  0  0  0  0  0  0  0  0  0
   35.7950   18.1430   32.0000 C   0  0  0  0  0  0  0  0  0  0  0  0
   35.4330   18.8960   33.0440 N   0  0  0  0  0  0  0  0  0  0  0  0
   35.2700   20.8270   33.8430 H   0  0  0  0  0  0  0  0  0  0  0  0
   36.8500   20.5530   29.9030 H   0  0  0  0  0  0  0  0  0  0  0  0
   35.7030   17.0770   32.0060 H   0  0  0  0  0  0  0  0  0  0  0  0
   38.5840   25.0170   32.7240 O   0  0  0  0  0  0  0  0  0  0  0  0
   38.4810   25.5190   34.0370 C   0  0  0  0  0  0  0  0  0  0  0  0
   38.7650   26.8640   34.0500 C   0  0  0  0  0  0  0  0  0  0  0  0
   39.0400   27.6670   33.4050 H   0  0  0  0  0  0  0  0  0  0  0  0
   38.5660   27.2850   35.8560 S   0  0  0  0  0  0  0  0  0  0  0  0
   38.1150   25.4580   36.2410 C   0  0  0  0  0  0  0  0  0  0  0  0
   37.8150   24.6870   37.0900 H   0  0  0  0  0  0  0  0  0  0  0  0
   38.1840   25.0080   35.2140 N   0  0  0  0  0  0  0  0  0  0  0  0
  2  1  1  0  0  0  0
  3 12  1  0  0  0  0
  3  2  2  0  0  0  0
  4  3  1  0  0  0  0
  5  4  2  0  0  0  0
  5  6  1  0  0  0  0
  6  7  2  0  0  0  0
  7  2  1  0  0  0  0
  7 20  1  0  0  0  0
  8  4  1  0  0  0  0
  9  5  1  0  0  0  0
 10  6  1  0  0  0  0
 11 16  1  0  0  0  0
 11 17  1  0  0  0  0
 12 11  2  0  0  0  0
 13 14  2  0  0  0  0
 13 12  1  0  0  0  0
 14 15  1  0  0  0  0
 15 19  1  0  0  0  0
 15 16  2  0  0  0  0
 18 13  1  0  0  0  0
 20 21  1  0  0  0  0
 21 22  2  0  0  0  0
 21 27  1  0  0  0  0
 22 24  1  0  0  0  0
 23 22  1  0  0  0  0
 24 25  1  0  0  0  0
 25 26  1  0  0  0  0
 27 25  2  0  0  0  0
M  END
>  <minimizedAffinity>
-4.53691769

$$$$

 OpenBabel03272505033D

 27 29  0  0  0  0  0  0  0  0999 V2000
   38.1330   23.1350   33.7190 Cl  0  0  0  0  0  0  0  0  0  0  0  0
   38.9360   24.6930   33.7710 C   0  0  0  0  0  0  0  0  0  0  0  0
   39.3290   25.1880   34.9870 C   0  0  0  0  0  0  0  0  0  0  0  0
   39.9540   26.4240   34.9590 C   0  0  0  0  0  0  0  0  0  0  0  0
   40.1480   27.0810   33.7460 C   0  0  0  0  0  0  0  0  0  0  0  0
   39.7330   26.5370   32.5550 C   0  0  0  0  0  0  0  0  0  0  0  0
   39.1070   25.3040   32.5720 C   0  0  0  0  0  0  0  0  0  0  0  0
   40.3050   26.9100   35.8560 H   0  0  0  0  0  0  0  0  0  0  0  0
   40.6390   28.0480   33.7540 H   0  0  0  0  0  0  0  0  0  0  0  0
   39.9030   27.0850   31.6290 H   0  0  0  0  0  0  0  0  0  0  0  0
   39.9740   23.4610   36.6730 C   0  0  0  0  0  0  0  0  0  0  0  0
   39.1290   24.5030   36.2550 C   0  0  0  0  0  0  0  0  0  0  0  0
   38.0940   24.8500   37.1020 C   0  0  0  0  0  0  0  0  0  0  0  0
   37.9550   24.1780   38.2690 N   0  0  0  0  0  0  0  0  0  0  0  0
   38.7820   23.1850   38.6420 C   0  0  0  0  0  0  0  0  0  0  0  0
   39.7910   22.8290   37.8400 N   0  0  0  0  0  0  0  0  0  0  0  0
   40.7990   23.1620   36.0320 H   0  0  0  0  0  0  0  0  0  0  0  0
   37.4330   25.6510   36.7930 H   0  0  0  0  0  0  0  0  0  0  0  0
   38.6030   22.7050   39.5810 H   0  0  0  0  0  0  0  0  0  0  0  0
   38.7010   24.7800   31.3630 O   0  0  0  0  0  0  0  0  0  0  0  0
   37.3110   24.6210   31.1820 C   0  0  0  0  0  0  0  0  0  0  0  0
   36.7010   25.8500   31.1180 C   0  0  0  0  0  0  0  0  0  0  0  0
   36.9160   26.8940   31.1590 H   0  0  0  0  0  0  0  0  0  0  0  0
   34.9110   25.3830   30.8830 S   0  0  0  0  0  0  0  0  0  0  0  0
   35.3830   23.5210   30.9210 C   0  0  0  0  0  0  0  0  0  0  0  0
   34.9730   22.4110   30.8550 H   0  0  0  0  0  0  0  0  0  0  0  0
   36.4950   23.5940   31.0650 N   0  0  0  0  0  0  0  0  0  0  0  0
  1  2  1  0  0  0  0
  2  3  1  0  0  0  0
  3 12  1  0  0  0  0
  4  3  2  0  0  0  0
  4  8  1  0  0  0  0
  5  9  1  0  0  0  0
  5  4  1  0  0  0  0
  6  7  1  0  0  0  0
  6  5  2  0  0  0  0
  7  2  2  0  0  0  0
 10  6  1  0  0  0  0
 11 16  1  0  0  0  0
 12 11  2  0  0  0  0
 12 13  1  0  0  0  0
 13 14  2  0  0  0  0
 14 15  1  0  0  0  0
 15 19  1  0  0  0  0
 16 15  2  0  0  0  0
 17 11  1  0  0  0  0
 18 13  1  0  0  0  0
 20  7  1  0  0  0  0
 21 20  1  0  0  0  0
 22 23  1  0  0  0  0
 22 21  2  0  0  0  0
 24 25  1  0  0  0  0
 24 22  1  0  0  0  0
 25 27  2  0  0  0  0
 26 25  1  0  0  0  0
 27 21  1  0  0  0  0
M  END
>  <minimizedAffinity>
-4.47957993

$$$$

 OpenBabel03272505033D

 27 29  0  0  0  0  0  0  0  0999 V2000
   34.9000   25.0870   30.6270 Cl  0  0  0  0  0  0  0  0  0  0  0  0
   36.1980   25.3140   31.7840 C   0  0  0  0  0  0  0  0  0  0  0  0
   36.8970   24.2140   32.2100 C   0  0  0  0  0  0  0  0  0  0  0  0
   37.9070   24.4620   33.1250 C   0  0  0  0  0  0  0  0  0  0  0  0
   38.1570   25.7630   33.5540 C   0  0  0  0  0  0  0  0  0  0  0  0
   37.4240   26.8300   33.0930 C   0  0  0  0  0  0  0  0  0  0  0  0
   36.4130   26.5940   32.1790 C   0  0  0  0  0  0  0  0  0  0  0  0
   38.5210   23.6720   33.5290 H   0  0  0  0  0  0  0  0  0  0  0  0
   38.9530   25.9270   34.2720 H   0  0  0  0  0  0  0  0  0  0  0  0
   37.6520   27.8320   33.4550 H   0  0  0  0  0  0  0  0  0  0  0  0
   35.4690   22.1660   32.1290 C   0  0  0  0  0  0  0  0  0  0  0  0
   36.6380   22.8550   31.7620 C   0  0  0  0  0  0  0  0  0  0  0  0
   37.5360   22.1820   30.9560 C   0  0  0  0  0  0  0  0  0  0  0  0
   37.2440   20.9180   30.5690 N   0  0  0  0  0  0  0  0  0  0  0  0
   36.1140   20.2860   30.9370 C   0  0  0  0  0  0  0  0  0  0  0  0
   35.2290   20.9140   31.7180 N   0  0  0  0  0  0  0  0  0  0  0  0
   34.7410   22.6640   32.7630 H   0  0  0  0  0  0  0  0  0  0  0  0
   38.4420   22.7000   30.6640 H   0  0  0  0  0  0  0  0  0  0  0  0
   35.9600   19.2860   30.5880 H   0  0  0  0  0  0  0  0  0  0  0  0
   35.6930   27.6810   31.7320 O   0  0  0  0  0  0  0  0  0  0  0  0
   36.3220   28.4990   30.7720 C   0  0  0  0  0  0  0  0  0  0  0  0
   36.1030   29.8240   31.0660 C   0  0  0  0  0  0  0  0  0  0  0  0
   35.6180   30.4540   31.7760 H   0  0  0  0  0  0  0  0  0  0  0  0
   37.0130   30.6840   29.6830 S   0  0  0  0  0  0  0  0  0  0  0  0
   37.5290   28.9830   28.9540 C   0  0  0  0  0  0  0  0  0  0  0  0
   38.1200   28.4350   28.0840 H   0  0  0  0  0  0  0  0  0  0  0  0
   37.0470   28.2870   29.6920 N   0  0  0  0  0  0  0  0  0  0  0  0
  1  2  1  0  0  0  0
  2  7  2  0  0  0  0
  2  3  1  0  0  0  0
  3  4  2  0  0  0  0
  4  8  1  0  0  0  0
  4  5  1  0  0  0  0
  5  9  1  0  0  0  0
  6 10  1  0  0  0  0
  6  5  2  0  0  0  0
  7  6  1  0  0  0  0
 11 17  1  0  0  0  0
 12 11  1  0  0  0  0
 12  3  1  0  0  0  0
 13 12  2  0  0  0  0
 14 15  2  0  0  0  0
 14 13  1  0  0  0  0
 15 16  1  0  0  0  0
 16 11  2  0  0  0  0
 18 13  1  0  0  0  0
 19 15  1  0  0  0  0
 20  7  1  0  0  0  0
 21 22  2  0  0  0  0
 21 20  1  0  0  0  0
 22 23  1  0  0  0  0
 24 22  1  0  0  0  0
 25 24  1  0  0  0  0
 25 27  2  0  0  0  0
 26 25  1  0  0  0  0
 27 21  1  0  0  0  0
M  END
>  <minimizedAffinity>
-4.47520781

$$$$

 OpenBabel03272505033D

 27 29  0  0  0  0  0  0  0  0999 V2000
   34.7810   30.6870   31.9190 Cl  0  0  0  0  0  0  0  0  0  0  0  0
   35.7470   29.3820   32.5820 C   0  0  0  0  0  0  0  0  0  0  0  0
   35.8390   29.2610   33.9440 C   0  0  0  0  0  0  0  0  0  0  0  0
   36.6190   28.2120   34.4030 C   0  0  0  0  0  0  0  0  0  0  0  0
   37.2480   27.3610   33.4960 C   0  0  0  0  0  0  0  0  0  0  0  0
   37.1210   27.5300   32.1390 C   0  0  0  0  0  0  0  0  0  0  0  0
   36.3450   28.5750   31.6710 C   0  0  0  0  0  0  0  0  0  0  0  0
   36.7630   28.0210   35.4550 H   0  0  0  0  0  0  0  0  0  0  0  0
   37.8530   26.5490   33.8840 H   0  0  0  0  0  0  0  0  0  0  0  0
   37.6300   26.8420   31.4650 H   0  0  0  0  0  0  0  0  0  0  0  0
   33.7970   30.0860   35.1230 C   0  0  0  0  0  0  0  0  0  0  0  0
   35.1820   30.1470   34.8920 C   0  0  0  0  0  0  0  0  0  0  0  0
   35.8960   31.0900   35.6060 C   0  0  0  0  0  0  0  0  0  0  0  0
   35.2330   31.8890   36.4750 N   0  0  0  0  0  0  0  0  0  0  0  0
   33.9050   31.8050   36.6740 C   0  0  0  0  0  0  0  0  0  0  0  0
   33.1900   30.9010   35.9960 N   0  0  0  0  0  0  0  0  0  0  0  0
   33.2040   29.3570   34.5780 H   0  0  0  0  0  0  0  0  0  0  0  0
   36.9650   31.1490   35.4400 H   0  0  0  0  0  0  0  0  0  0  0  0
   33.4580   32.4730   37.3800 H   0  0  0  0  0  0  0  0  0  0  0  0
   36.2330   28.7210   30.3040 O   0  0  0  0  0  0  0  0  0  0  0  0
   37.2200   29.5050   29.6730 C   0  0  0  0  0  0  0  0  0  0  0  0
   37.8110   28.7900   28.6580 C   0  0  0  0  0  0  0  0  0  0  0  0
   37.7810   27.8380   28.1780 H   0  0  0  0  0  0  0  0  0  0  0  0
   39.0520   30.0140   27.9940 S   0  0  0  0  0  0  0  0  0  0  0  0
   38.4850   31.3080   29.2960 C   0  0  0  0  0  0  0  0  0  0  0  0
   38.6490   32.4060   29.7120 H   0  0  0  0  0  0  0  0  0  0  0  0
   37.6880   30.7260   29.8310 N   0  0  0  0  0  0  0  0  0  0  0  0
  1  2  1  0  0  0  0
  2  3  1  0  0  0  0
  3  4  2  0  0  0  0
  3 12  1  0  0  0  0
  4  8  1  0  0  0  0
  5  9  1  0  0  0  0
  5  4  1  0  0  0  0
  6  5  2  0  0  0  0
  7  6  1  0  0  0  0
  7  2  2  0  0  0  0
 10  6  1  0  0  0  0
 11 16  1  0  0  0  0
 12 11  2  0  0  0  0
 12 13  1  0  0  0  0
 13 14  2  0  0  0  0
 14 15  1  0  0  0  0
 15 19  1  0  0  0  0
 16 15  2  0  0  0  0
 17 11  1  0  0  0  0
 18 13  1  0  0  0  0
 20  7  1  0  0  0  0
 21 27  1  0  0  0  0
 21 20  1  0  0  0  0
 22 21  2  0  0  0  0
 23 22  1  0  0  0  0
 24 22  1  0  0  0  0
 24 25  1  0  0  0  0
 25 26  1  0  0  0  0
 25 27  2  0  0  0  0
M  END
>  <minimizedAffinity>
-4.41689396

$$$$
