
 OpenBabel03272502033D

 40 44  0  0  0  0  0  0  0  0999 V2000
   35.3820   29.3590   32.1090 C   0  0  0  0  0  0  0  0  0  0  0  0
   35.2690   29.4750   31.0150 H   0  0  0  0  0  0  0  0  0  0  0  0
   34.4470   29.0940   32.6190 H   0  0  0  0  0  0  0  0  0  0  0  0
   36.4170   28.3260   32.4650 C   0  0  0  0  0  0  0  0  0  0  0  0
   37.4670   27.8860   31.6900 C   0  0  0  0  0  0  0  0  0  0  0  0
   38.1780   26.9260   32.3980 C   0  0  0  0  0  0  0  0  0  0  0  0
   37.5350   26.8150   33.5820 N   0  0  0  0  0  0  0  0  0  0  0  0
   36.5020   27.6380   33.6160 N   0  0  0  0  0  0  0  0  0  0  0  0
   39.1480   25.1250   34.4840 N   0  0  0  0  0  0  0  0  0  0  0  0
   38.0360   25.8930   34.5390 C   0  0  0  0  0  0  0  0  0  0  0  0
   37.4430   25.6210   35.7260 N   0  0  0  0  0  0  0  0  0  0  0  0
   38.1490   24.7170   36.4030 C   0  0  0  0  0  0  0  0  0  0  0  0
   37.9470   24.1350   37.6400 C   0  0  0  0  0  0  0  0  0  0  0  0
   38.8300   23.2340   38.0960 N   0  0  0  0  0  0  0  0  0  0  0  0
   39.9010   22.9110   37.3330 C   0  0  0  0  0  0  0  0  0  0  0  0
   40.1130   23.4770   36.1120 N   0  0  0  0  0  0  0  0  0  0  0  0
   39.2410   24.3850   35.6330 C   0  0  0  0  0  0  0  0  0  0  0  0
   37.6810   28.2460   30.6910 H   0  0  0  0  0  0  0  0  0  0  0  0
   39.0370   26.4470   31.9840 H   0  0  0  0  0  0  0  0  0  0  0  0
   39.8280   25.0960   33.7030 H   0  0  0  0  0  0  0  0  0  0  0  0
   37.0710   24.4320   38.2070 H   0  0  0  0  0  0  0  0  0  0  0  0
   40.5770   22.1800   37.7550 H   0  0  0  0  0  0  0  0  0  0  0  0
   35.9180   30.6610   32.6760 C   0  0  0  0  0  0  0  0  0  0  0  0
   37.0200   30.6390   32.8090 H   0  0  0  0  0  0  0  0  0  0  0  0
   35.6680   31.5050   31.9860 H   0  0  0  0  0  0  0  0  0  0  0  0
   35.2720   31.9730   36.0740 C   0  0  0  0  0  0  0  0  0  0  0  0
   34.0470   31.3710   36.3780 C   0  0  0  0  0  0  0  0  0  0  0  0
   33.4510   30.5260   35.4290 C   0  0  0  0  0  0  0  0  0  0  0  0
   34.1330   30.3670   34.2810 N   0  0  0  0  0  0  0  0  0  0  0  0
   35.3110   30.9500   33.9950 C   0  0  0  0  0  0  0  0  0  0  0  0
   35.8520   31.7360   34.8950 N   0  0  0  0  0  0  0  0  0  0  0  0
   35.6690   32.6070   36.8490 H   0  0  0  0  0  0  0  0  0  0  0  0
   33.5610   31.5360   37.3010 H   0  0  0  0  0  0  0  0  0  0  0  0
   32.1650   29.8550   35.6740 C   0  0  0  0  0  0  0  0  0  0  0  0
   31.3740   30.2030   36.7950 C   0  0  0  0  0  0  0  0  0  0  0  0
   31.6030   30.9170   37.5100 H   0  0  0  0  0  0  0  0  0  0  0  0
   29.9460   29.1140   36.6240 S   0  0  0  0  0  0  0  0  0  0  0  0
   30.6490   28.3410   35.0360 C   0  0  0  0  0  0  0  0  0  0  0  0
   30.1930   27.5610   34.4300 H   0  0  0  0  0  0  0  0  0  0  0  0
   31.7650   28.9160   34.8170 N   0  0  0  0  0  0  0  0  0  0  0  0
  1  4  1  0  0  0  0
  1  3  1  0  0  0  0
  1 23  1  0  0  0  0
  2  1  1  0  0  0  0
  4  8  2  0  0  0  0
  5  6  2  0  0  0  0
  5  4  1  0  0  0  0
  6  7  1  0  0  0  0
  7  8  1  0  0  0  0
  7 10  1  0  0  0  0
  9 10  1  0  0  0  0
  9 17  1  0  0  0  0
 10 11  2  0  0  0  0
 11 12  1  0  0  0  0
 12 13  1  0  0  0  0
 13 14  2  0  0  0  0
 13 21  1  0  0  0  0
 15 22  1  0  0  0  0
 15 14  1  0  0  0  0
 16 15  2  0  0  0  0
 17 16  1  0  0  0  0
 17 12  2  0  0  0  0
 18  5  1  0  0  0  0
 19  6  1  0  0  0  0
 20  9  1  0  0  0  0
 23 24  1  0  0  0  0
 23 30  1  0  0  0  0
 25 23  1  0  0  0  0
 26 27  1  0  0  0  0
 26 32  1  0  0  0  0
 27 33  1  0  0  0  0
 28 34  1  0  0  0  0
 28 27  2  0  0  0  0
 29 28  1  0  0  0  0
 30 29  2  0  0  0  0
 30 31  1  0  0  0  0
 31 26  2  0  0  0  0
 34 35  2  0  0  0  0
 35 36  1  0  0  0  0
 37 35  1  0  0  0  0
 38 37  1  0  0  0  0
 39 38  1  0  0  0  0
 40 38  2  0  0  0  0
 40 34  1  0  0  0  0
M  END
>  <minimizedAffinity>
-5.7922883

$$$$

 OpenBabel03272502033D

 40 44  0  0  0  0  0  0  0  0999 V2000
   35.2260   30.0340   33.1970 C   0  0  0  0  0  0  0  0  0  0  0  0
   35.5050   30.7790   33.9640 H   0  0  0  0  0  0  0  0  0  0  0  0
   35.2310   30.4370   32.1750 H   0  0  0  0  0  0  0  0  0  0  0  0
   36.1250   28.8270   33.2260 C   0  0  0  0  0  0  0  0  0  0  0  0
   36.8300   28.2790   32.1770 C   0  0  0  0  0  0  0  0  0  0  0  0
   37.5320   27.1720   32.6370 C   0  0  0  0  0  0  0  0  0  0  0  0
   37.2280   27.0840   33.9520 N   0  0  0  0  0  0  0  0  0  0  0  0
   36.4020   28.0580   34.2910 N   0  0  0  0  0  0  0  0  0  0  0  0
   38.7120   25.1020   34.3270 N   0  0  0  0  0  0  0  0  0  0  0  0
   37.8060   26.0320   34.7090 C   0  0  0  0  0  0  0  0  0  0  0  0
   37.5240   25.7770   36.0090 N   0  0  0  0  0  0  0  0  0  0  0  0
   38.2210   24.7290   36.4410 C   0  0  0  0  0  0  0  0  0  0  0  0
   38.2690   24.1040   37.6730 C   0  0  0  0  0  0  0  0  0  0  0  0
   39.0750   23.0440   37.8420 N   0  0  0  0  0  0  0  0  0  0  0  0
   39.8240   22.6080   36.8020 C   0  0  0  0  0  0  0  0  0  0  0  0
   39.7870   23.2140   35.5830 N   0  0  0  0  0  0  0  0  0  0  0  0
   38.9870   24.2800   35.3870 C   0  0  0  0  0  0  0  0  0  0  0  0
   36.8210   28.6680   31.1670 H   0  0  0  0  0  0  0  0  0  0  0  0
   38.1490   26.5920   31.9870 H   0  0  0  0  0  0  0  0  0  0  0  0
   39.1360   25.0180   33.3860 H   0  0  0  0  0  0  0  0  0  0  0  0
   37.6470   24.4970   38.4690 H   0  0  0  0  0  0  0  0  0  0  0  0
   40.4530   21.7510   37.0010 H   0  0  0  0  0  0  0  0  0  0  0  0
   33.8440   29.5000   33.5250 C   0  0  0  0  0  0  0  0  0  0  0  0
   33.0940   29.7750   32.7550 H   0  0  0  0  0  0  0  0  0  0  0  0
   33.8770   28.3840   33.5960 H   0  0  0  0  0  0  0  0  0  0  0  0
   32.1550   29.8930   36.7930 C   0  0  0  0  0  0  0  0  0  0  0  0
   32.6010   31.1580   37.1890 C   0  0  0  0  0  0  0  0  0  0  0  0
   33.4700   31.8660   36.3450 C   0  0  0  0  0  0  0  0  0  0  0  0
   33.8030   31.2460   35.1990 N   0  0  0  0  0  0  0  0  0  0  0  0
   33.3710   30.0290   34.8250 C   0  0  0  0  0  0  0  0  0  0  0  0
   32.5590   29.3830   35.6280 N   0  0  0  0  0  0  0  0  0  0  0  0
   31.4910   29.4090   37.4900 H   0  0  0  0  0  0  0  0  0  0  0  0
   32.3010   31.5910   38.1040 H   0  0  0  0  0  0  0  0  0  0  0  0
   33.9830   33.2010   36.6890 C   0  0  0  0  0  0  0  0  0  0  0  0
   34.9280   33.8460   35.8550 C   0  0  0  0  0  0  0  0  0  0  0  0
   35.3290   33.4700   34.9770 H   0  0  0  0  0  0  0  0  0  0  0  0
   35.2100   35.4090   36.7130 S   0  0  0  0  0  0  0  0  0  0  0  0
   33.9850   34.9430   38.0900 C   0  0  0  0  0  0  0  0  0  0  0  0
   33.7170   35.5430   38.9580 H   0  0  0  0  0  0  0  0  0  0  0  0
   33.5360   33.7860   37.8000 N   0  0  0  0  0  0  0  0  0  0  0  0
  1  4  1  0  0  0  0
  1 23  1  0  0  0  0
  1  2  1  0  0  0  0
  3  1  1  0  0  0  0
  4  8  2  0  0  0  0
  5  6  2  0  0  0  0
  5  4  1  0  0  0  0
  6  7  1  0  0  0  0
  7  8  1  0  0  0  0
  7 10  1  0  0  0  0
  9 10  1  0  0  0  0
  9 17  1  0  0  0  0
 10 11  2  0  0  0  0
 11 12  1  0  0  0  0
 12 13  1  0  0  0  0
 13 14  2  0  0  0  0
 13 21  1  0  0  0  0
 15 22  1  0  0  0  0
 15 14  1  0  0  0  0
 16 15  2  0  0  0  0
 17 16  1  0  0  0  0
 17 12  2  0  0  0  0
 18  5  1  0  0  0  0
 19  6  1  0  0  0  0
 20  9  1  0  0  0  0
 23 25  1  0  0  0  0
 23 30  1  0  0  0  0
 24 23  1  0  0  0  0
 26 27  1  0  0  0  0
 26 32  1  0  0  0  0
 27 33  1  0  0  0  0
 28 34  1  0  0  0  0
 28 27  2  0  0  0  0
 29 28  1  0  0  0  0
 30 29  2  0  0  0  0
 30 31  1  0  0  0  0
 31 26  2  0  0  0  0
 34 40  1  0  0  0  0
 35 34  2  0  0  0  0
 35 37  1  0  0  0  0
 36 35  1  0  0  0  0
 37 38  1  0  0  0  0
 38 39  1  0  0  0  0
 40 38  2  0  0  0  0
M  END
>  <minimizedAffinity>
-5.79025126

$$$$

 OpenBabel03272502033D

 40 44  0  0  0  0  0  0  0  0999 V2000
   35.5080   29.5970   32.8150 C   0  0  0  0  0  0  0  0  0  0  0  0
   36.0030   30.5850   32.7710 H   0  0  0  0  0  0  0  0  0  0  0  0
   34.9150   29.3660   31.9200 H   0  0  0  0  0  0  0  0  0  0  0  0
   36.4920   28.4780   33.0250 C   0  0  0  0  0  0  0  0  0  0  0  0
   37.4130   27.9900   32.1250 C   0  0  0  0  0  0  0  0  0  0  0  0
   38.1210   26.9560   32.7220 C   0  0  0  0  0  0  0  0  0  0  0  0
   37.6050   26.8490   33.9680 N   0  0  0  0  0  0  0  0  0  0  0  0
   36.6490   27.7460   34.1390 N   0  0  0  0  0  0  0  0  0  0  0  0
   39.1720   25.0140   34.6360 N   0  0  0  0  0  0  0  0  0  0  0  0
   38.1350   25.8600   34.8360 C   0  0  0  0  0  0  0  0  0  0  0  0
   37.6570   25.5890   36.0750 N   0  0  0  0  0  0  0  0  0  0  0  0
   38.3600   24.6120   36.6430 C   0  0  0  0  0  0  0  0  0  0  0  0
   38.2510   24.0030   37.8780 C   0  0  0  0  0  0  0  0  0  0  0  0
   39.1070   23.0220   38.2070 N   0  0  0  0  0  0  0  0  0  0  0  0
   40.0600   22.6490   37.3200 C   0  0  0  0  0  0  0  0  0  0  0  0
   40.1790   23.2410   36.1000 N   0  0  0  0  0  0  0  0  0  0  0  0
   39.3330   24.2280   35.7460 C   0  0  0  0  0  0  0  0  0  0  0  0
   37.5430   28.3690   31.1190 H   0  0  0  0  0  0  0  0  0  0  0  0
   38.8900   26.4290   32.2010 H   0  0  0  0  0  0  0  0  0  0  0  0
   39.7570   24.9630   33.7830 H   0  0  0  0  0  0  0  0  0  0  0  0
   37.4680   24.3430   38.5480 H   0  0  0  0  0  0  0  0  0  0  0  0
   40.7190   21.8550   37.6430 H   0  0  0  0  0  0  0  0  0  0  0  0
   34.6110   29.5640   34.0390 C   0  0  0  0  0  0  0  0  0  0  0  0
   33.5350   29.5250   33.7710 H   0  0  0  0  0  0  0  0  0  0  0  0
   34.8490   28.6620   34.6570 H   0  0  0  0  0  0  0  0  0  0  0  0
   34.3980   32.0950   36.7290 C   0  0  0  0  0  0  0  0  0  0  0  0
   35.3430   33.0350   36.3050 C   0  0  0  0  0  0  0  0  0  0  0  0
   36.0430   32.8030   35.1100 C   0  0  0  0  0  0  0  0  0  0  0  0
   35.7320   31.6650   34.4650 N   0  0  0  0  0  0  0  0  0  0  0  0
   34.8230   30.7650   34.8790 C   0  0  0  0  0  0  0  0  0  0  0  0
   34.1790   31.0000   35.9980 N   0  0  0  0  0  0  0  0  0  0  0  0
   33.9010   32.3400   37.6520 H   0  0  0  0  0  0  0  0  0  0  0  0
   35.5410   33.9120   36.8580 H   0  0  0  0  0  0  0  0  0  0  0  0
   37.0500   33.7430   34.5970 C   0  0  0  0  0  0  0  0  0  0  0  0
   36.9670   34.2350   33.2710 C   0  0  0  0  0  0  0  0  0  0  0  0
   36.2370   33.9990   32.5750 H   0  0  0  0  0  0  0  0  0  0  0  0
   38.4040   35.3190   33.1610 S   0  0  0  0  0  0  0  0  0  0  0  0
   38.9070   34.9360   34.9530 C   0  0  0  0  0  0  0  0  0  0  0  0
   39.7660   35.3320   35.4910 H   0  0  0  0  0  0  0  0  0  0  0  0
   38.0390   34.1200   35.4070 N   0  0  0  0  0  0  0  0  0  0  0  0
  1  4  1  0  0  0  0
  1 23  1  0  0  0  0
  2  1  1  0  0  0  0
  3  1  1  0  0  0  0
  4  8  2  0  0  0  0
  5  6  2  0  0  0  0
  5  4  1  0  0  0  0
  6  7  1  0  0  0  0
  7  8  1  0  0  0  0
  7 10  1  0  0  0  0
  9 10  1  0  0  0  0
  9 17  1  0  0  0  0
 10 11  2  0  0  0  0
 11 12  1  0  0  0  0
 12 13  1  0  0  0  0
 13 14  2  0  0  0  0
 13 21  1  0  0  0  0
 15 22  1  0  0  0  0
 15 14  1  0  0  0  0
 16 15  2  0  0  0  0
 17 16  1  0  0  0  0
 17 12  2  0  0  0  0
 18  5  1  0  0  0  0
 19  6  1  0  0  0  0
 20  9  1  0  0  0  0
 23 25  1  0  0  0  0
 23 30  1  0  0  0  0
 24 23  1  0  0  0  0
 26 32  1  0  0  0  0
 27 26  1  0  0  0  0
 27 33  1  0  0  0  0
 28 27  2  0  0  0  0
 29 30  2  0  0  0  0
 29 28  1  0  0  0  0
 30 31  1  0  0  0  0
 31 26  2  0  0  0  0
 34 28  1  0  0  0  0
 34 40  1  0  0  0  0
 35 34  2  0  0  0  0
 36 35  1  0  0  0  0
 37 35  1  0  0  0  0
 37 38  1  0  0  0  0
 38 40  2  0  0  0  0
 38 39  1  0  0  0  0
M  END
>  <minimizedAffinity>
-5.77479792

$$$$

 OpenBabel03272502033D

 40 44  0  0  0  0  0  0  0  0999 V2000
   36.4090   27.7650   30.6860 C   0  0  0  0  0  0  0  0  0  0  0  0
   36.6620   27.8420   29.6130 H   0  0  0  0  0  0  0  0  0  0  0  0
   35.3670   27.4710   30.8680 H   0  0  0  0  0  0  0  0  0  0  0  0
   37.3010   26.7920   31.4100 C   0  0  0  0  0  0  0  0  0  0  0  0
   38.3360   26.0500   30.8850 C   0  0  0  0  0  0  0  0  0  0  0  0
   38.8960   25.2820   31.8960 C   0  0  0  0  0  0  0  0  0  0  0  0
   38.1810   25.5820   33.0040 N   0  0  0  0  0  0  0  0  0  0  0  0
   37.2460   26.4690   32.7120 N   0  0  0  0  0  0  0  0  0  0  0  0
   39.5450   24.0940   34.4860 N   0  0  0  0  0  0  0  0  0  0  0  0
   38.5230   24.9410   34.2230 C   0  0  0  0  0  0  0  0  0  0  0  0
   37.8400   25.0850   35.3850 N   0  0  0  0  0  0  0  0  0  0  0  0
   38.4030   24.3600   36.3490 C   0  0  0  0  0  0  0  0  0  0  0  0
   38.0710   24.1880   37.6800 C   0  0  0  0  0  0  0  0  0  0  0  0
   38.8220   23.3840   38.4480 N   0  0  0  0  0  0  0  0  0  0  0  0
   39.8910   22.7560   37.9030 C   0  0  0  0  0  0  0  0  0  0  0  0
   40.2300   22.9160   36.5930 N   0  0  0  0  0  0  0  0  0  0  0  0
   39.4920   23.7190   35.8010 C   0  0  0  0  0  0  0  0  0  0  0  0
   38.6420   26.0810   29.8470 H   0  0  0  0  0  0  0  0  0  0  0  0
   39.7180   24.6260   31.7110 H   0  0  0  0  0  0  0  0  0  0  0  0
   40.2580   23.7740   33.8060 H   0  0  0  0  0  0  0  0  0  0  0  0
   37.2040   24.7160   38.0610 H   0  0  0  0  0  0  0  0  0  0  0  0
   40.4570   22.1230   38.5720 H   0  0  0  0  0  0  0  0  0  0  0  0
   36.6800   29.1060   31.3410 C   0  0  0  0  0  0  0  0  0  0  0  0
   37.1940   29.0000   32.3190 H   0  0  0  0  0  0  0  0  0  0  0  0
   37.3270   29.7290   30.6730 H   0  0  0  0  0  0  0  0  0  0  0  0
   33.9310   31.5770   31.1750 C   0  0  0  0  0  0  0  0  0  0  0  0
   33.0430   31.0720   32.1300 C   0  0  0  0  0  0  0  0  0  0  0  0
   33.3840   29.9000   32.8220 C   0  0  0  0  0  0  0  0  0  0  0  0
   34.5680   29.3530   32.4940 N   0  0  0  0  0  0  0  0  0  0  0  0
   35.4170   29.8430   31.5740 C   0  0  0  0  0  0  0  0  0  0  0  0
   35.0800   30.9400   30.9380 N   0  0  0  0  0  0  0  0  0  0  0  0
   33.6040   32.4780   30.6850 H   0  0  0  0  0  0  0  0  0  0  0  0
   32.1260   31.5500   32.3430 H   0  0  0  0  0  0  0  0  0  0  0  0
   32.5050   29.3070   33.8410 C   0  0  0  0  0  0  0  0  0  0  0  0
   31.3360   28.6020   33.4630 C   0  0  0  0  0  0  0  0  0  0  0  0
   31.0030   28.4430   32.4950 H   0  0  0  0  0  0  0  0  0  0  0  0
   30.6470   28.0980   35.0520 S   0  0  0  0  0  0  0  0  0  0  0  0
   32.0670   28.9310   36.0010 C   0  0  0  0  0  0  0  0  0  0  0  0
   32.2030   28.9620   37.0810 H   0  0  0  0  0  0  0  0  0  0  0  0
   32.8340   29.4490   35.1250 N   0  0  0  0  0  0  0  0  0  0  0  0
  1  3  1  0  0  0  0
  1 23  1  0  0  0  0
  1  4  1  0  0  0  0
  2  1  1  0  0  0  0
  4  8  2  0  0  0  0
  5  4  1  0  0  0  0
  5  6  2  0  0  0  0
  6  7  1  0  0  0  0
  7 10  1  0  0  0  0
  8  7  1  0  0  0  0
  9 17  1  0  0  0  0
 10  9  1  0  0  0  0
 10 11  2  0  0  0  0
 11 12  1  0  0  0  0
 12 13  1  0  0  0  0
 13 21  1  0  0  0  0
 13 14  2  0  0  0  0
 15 14  1  0  0  0  0
 15 22  1  0  0  0  0
 16 15  2  0  0  0  0
 17 12  2  0  0  0  0
 17 16  1  0  0  0  0
 18  5  1  0  0  0  0
 19  6  1  0  0  0  0
 20  9  1  0  0  0  0
 23 30  1  0  0  0  0
 23 24  1  0  0  0  0
 25 23  1  0  0  0  0
 26 27  1  0  0  0  0
 27 33  1  0  0  0  0
 27 28  2  0  0  0  0
 28 34  1  0  0  0  0
 29 28  1  0  0  0  0
 30 29  2  0  0  0  0
 31 26  2  0  0  0  0
 31 30  1  0  0  0  0
 32 26  1  0  0  0  0
 34 40  1  0  0  0  0
 35 34  2  0  0  0  0
 35 37  1  0  0  0  0
 36 35  1  0  0  0  0
 37 38  1  0  0  0  0
 38 39  1  0  0  0  0
 40 38  2  0  0  0  0
M  END
>  <minimizedAffinity>
-5.70123959

$$$$

 OpenBabel03272502033D

 40 44  0  0  0  0  0  0  0  0999 V2000
   36.5040   26.2020   31.7260 C   0  0  0  0  0  0  0  0  0  0  0  0
   36.3380   25.6410   32.6640 H   0  0  0  0  0  0  0  0  0  0  0  0
   35.8610   25.8690   30.9000 H   0  0  0  0  0  0  0  0  0  0  0  0
   36.3020   27.6820   31.9070 C   0  0  0  0  0  0  0  0  0  0  0  0
   36.4010   28.6670   30.9490 C   0  0  0  0  0  0  0  0  0  0  0  0
   36.1380   29.8960   31.5400 C   0  0  0  0  0  0  0  0  0  0  0  0
   35.8890   29.6170   32.8390 N   0  0  0  0  0  0  0  0  0  0  0  0
   35.9870   28.3150   33.0490 N   0  0  0  0  0  0  0  0  0  0  0  0
   35.4190   32.0040   33.4310 N   0  0  0  0  0  0  0  0  0  0  0  0
   35.5820   30.6910   33.7140 C   0  0  0  0  0  0  0  0  0  0  0  0
   35.3950   30.5640   35.0500 N   0  0  0  0  0  0  0  0  0  0  0  0
   35.1220   31.7470   35.5970 C   0  0  0  0  0  0  0  0  0  0  0  0
   34.8610   32.1140   36.9030 C   0  0  0  0  0  0  0  0  0  0  0  0
   34.6120   33.4020   37.1880 N   0  0  0  0  0  0  0  0  0  0  0  0
   34.6230   34.3160   36.1890 C   0  0  0  0  0  0  0  0  0  0  0  0
   34.8790   33.9680   34.8970 N   0  0  0  0  0  0  0  0  0  0  0  0
   35.1310   32.6820   34.5850 C   0  0  0  0  0  0  0  0  0  0  0  0
   36.6450   28.4850   29.9110 H   0  0  0  0  0  0  0  0  0  0  0  0
   36.1600   30.8030   30.9770 H   0  0  0  0  0  0  0  0  0  0  0  0
   35.4960   32.4370   32.4930 H   0  0  0  0  0  0  0  0  0  0  0  0
   34.8660   31.3400   37.6620 H   0  0  0  0  0  0  0  0  0  0  0  0
   34.4150   35.3360   36.4810 H   0  0  0  0  0  0  0  0  0  0  0  0
   37.9600   26.0520   31.3280 C   0  0  0  0  0  0  0  0  0  0  0  0
   38.1770   25.0520   30.8960 H   0  0  0  0  0  0  0  0  0  0  0  0
   38.2250   26.8250   30.5640 H   0  0  0  0  0  0  0  0  0  0  0  0
   40.5980   27.2610   33.6220 C   0  0  0  0  0  0  0  0  0  0  0  0
   40.3890   26.4500   34.7420 C   0  0  0  0  0  0  0  0  0  0  0  0
   39.3550   25.5010   34.7100 C   0  0  0  0  0  0  0  0  0  0  0  0
   38.6410   25.4560   33.5710 N   0  0  0  0  0  0  0  0  0  0  0  0
   38.8480   26.2400   32.4980 C   0  0  0  0  0  0  0  0  0  0  0  0
   39.8190   27.1210   32.5480 N   0  0  0  0  0  0  0  0  0  0  0  0
   41.4080   27.9650   33.7190 H   0  0  0  0  0  0  0  0  0  0  0  0
   40.9870   26.5350   35.6080 H   0  0  0  0  0  0  0  0  0  0  0  0
   39.0720   24.6110   35.8460 C   0  0  0  0  0  0  0  0  0  0  0  0
   37.9430   24.8340   36.6710 C   0  0  0  0  0  0  0  0  0  0  0  0
   37.2470   25.5940   36.5660 H   0  0  0  0  0  0  0  0  0  0  0  0
   38.0620   23.4950   37.8740 S   0  0  0  0  0  0  0  0  0  0  0  0
   39.6480   22.8280   37.0640 C   0  0  0  0  0  0  0  0  0  0  0  0
   40.2280   21.9620   37.3780 H   0  0  0  0  0  0  0  0  0  0  0  0
   39.9010   23.5940   36.0790 N   0  0  0  0  0  0  0  0  0  0  0  0
  1  4  1  0  0  0  0
  1  2  1  0  0  0  0
  3  1  1  0  0  0  0
  4  8  2  0  0  0  0
  5  6  2  0  0  0  0
  5  4  1  0  0  0  0
  6  7  1  0  0  0  0
  7  8  1  0  0  0  0
  7 10  1  0  0  0  0
  9 10  1  0  0  0  0
  9 17  1  0  0  0  0
 10 11  2  0  0  0  0
 11 12  1  0  0  0  0
 12 13  1  0  0  0  0
 13 14  2  0  0  0  0
 13 21  1  0  0  0  0
 15 22  1  0  0  0  0
 15 14  1  0  0  0  0
 16 15  2  0  0  0  0
 17 16  1  0  0  0  0
 17 12  2  0  0  0  0
 18  5  1  0  0  0  0
 19  6  1  0  0  0  0
 20  9  1  0  0  0  0
 23  1  1  0  0  0  0
 23 30  1  0  0  0  0
 24 23  1  0  0  0  0
 25 23  1  0  0  0  0
 26 32  1  0  0  0  0
 26 27  1  0  0  0  0
 27 33  1  0  0  0  0
 28 27  2  0  0  0  0
 28 34  1  0  0  0  0
 29 28  1  0  0  0  0
 30 31  1  0  0  0  0
 30 29  2  0  0  0  0
 31 26  2  0  0  0  0
 34 40  1  0  0  0  0
 34 35  2  0  0  0  0
 35 37  1  0  0  0  0
 36 35  1  0  0  0  0
 38 39  1  0  0  0  0
 38 37  1  0  0  0  0
 40 38  2  0  0  0  0
M  END
>  <minimizedAffinity>
-5.57647228

$$$$

 OpenBabel03272502033D

 40 44  0  0  0  0  0  0  0  0999 V2000
   36.0160   30.0590   31.1030 C   0  0  0  0  0  0  0  0  0  0  0  0
   36.8470   30.6840   30.7290 H   0  0  0  0  0  0  0  0  0  0  0  0
   35.1640   30.0070   30.4120 H   0  0  0  0  0  0  0  0  0  0  0  0
   36.4560   28.6520   31.4070 C   0  0  0  0  0  0  0  0  0  0  0  0
   36.6480   27.6210   30.5140 C   0  0  0  0  0  0  0  0  0  0  0  0
   37.0550   26.4920   31.2120 C   0  0  0  0  0  0  0  0  0  0  0  0
   37.0960   26.8750   32.5080 N   0  0  0  0  0  0  0  0  0  0  0  0
   36.7430   28.1440   32.6160 N   0  0  0  0  0  0  0  0  0  0  0  0
   37.9120   24.6480   33.3100 N   0  0  0  0  0  0  0  0  0  0  0  0
   37.4850   25.9200   33.4830 C   0  0  0  0  0  0  0  0  0  0  0  0
   37.4880   26.1440   34.8190 N   0  0  0  0  0  0  0  0  0  0  0  0
   37.9020   25.0600   35.4730 C   0  0  0  0  0  0  0  0  0  0  0  0
   38.0700   24.8110   36.8220 C   0  0  0  0  0  0  0  0  0  0  0  0
   38.5100   23.6070   37.2200 N   0  0  0  0  0  0  0  0  0  0  0  0
   38.7790   22.6600   36.2900 C   0  0  0  0  0  0  0  0  0  0  0  0
   38.6190   22.8910   34.9580 N   0  0  0  0  0  0  0  0  0  0  0  0
   38.1790   24.0920   34.5330 C   0  0  0  0  0  0  0  0  0  0  0  0
   36.4980   27.7040   29.4450 H   0  0  0  0  0  0  0  0  0  0  0  0
   37.2610   25.5700   30.7150 H   0  0  0  0  0  0  0  0  0  0  0  0
   38.0240   24.1630   32.4020 H   0  0  0  0  0  0  0  0  0  0  0  0
   37.8380   25.6080   37.5210 H   0  0  0  0  0  0  0  0  0  0  0  0
   39.1310   21.7110   36.6730 H   0  0  0  0  0  0  0  0  0  0  0  0
   35.5550   30.6210   32.4350 C   0  0  0  0  0  0  0  0  0  0  0  0
   35.9730   30.0570   33.2950 H   0  0  0  0  0  0  0  0  0  0  0  0
   35.8790   31.6880   32.5280 H   0  0  0  0  0  0  0  0  0  0  0  0
   31.9380   31.0780   31.8090 C   0  0  0  0  0  0  0  0  0  0  0  0
   31.3770   30.3980   32.8960 C   0  0  0  0  0  0  0  0  0  0  0  0
   32.2300   29.7920   33.8310 C   0  0  0  0  0  0  0  0  0  0  0  0
   33.5470   29.9230   33.5890 N   0  0  0  0  0  0  0  0  0  0  0  0
   34.0790   30.5780   32.5420 C   0  0  0  0  0  0  0  0  0  0  0  0
   33.2650   31.1390   31.6800 N   0  0  0  0  0  0  0  0  0  0  0  0
   31.2230   31.5180   31.1350 H   0  0  0  0  0  0  0  0  0  0  0  0
   30.3320   30.3310   33.0300 H   0  0  0  0  0  0  0  0  0  0  0  0
   31.7190   29.0600   34.9990 C   0  0  0  0  0  0  0  0  0  0  0  0
   31.9980   29.5140   36.3120 C   0  0  0  0  0  0  0  0  0  0  0  0
   32.5530   30.3510   36.5660 H   0  0  0  0  0  0  0  0  0  0  0  0
   31.1590   28.2900   37.3390 S   0  0  0  0  0  0  0  0  0  0  0  0
   30.5500   27.3370   35.8120 C   0  0  0  0  0  0  0  0  0  0  0  0
   29.9440   26.4320   35.8040 H   0  0  0  0  0  0  0  0  0  0  0  0
   30.9890   27.9640   34.7940 N   0  0  0  0  0  0  0  0  0  0  0  0
  1  4  1  0  0  0  0
  1 23  1  0  0  0  0
  2  1  1  0  0  0  0
  3  1  1  0  0  0  0
  4  8  2  0  0  0  0
  5  6  2  0  0  0  0
  5  4  1  0  0  0  0
  6  7  1  0  0  0  0
  7  8  1  0  0  0  0
  7 10  1  0  0  0  0
  9 10  1  0  0  0  0
  9 17  1  0  0  0  0
 10 11  2  0  0  0  0
 11 12  1  0  0  0  0
 12 13  1  0  0  0  0
 13 14  2  0  0  0  0
 13 21  1  0  0  0  0
 15 22  1  0  0  0  0
 15 14  1  0  0  0  0
 16 15  2  0  0  0  0
 17 16  1  0  0  0  0
 17 12  2  0  0  0  0
 18  5  1  0  0  0  0
 19  6  1  0  0  0  0
 20  9  1  0  0  0  0
 23 25  1  0  0  0  0
 23 30  1  0  0  0  0
 23 24  1  0  0  0  0
 26 27  1  0  0  0  0
 27 33  1  0  0  0  0
 27 28  2  0  0  0  0
 28 34  1  0  0  0  0
 29 28  1  0  0  0  0
 30 29  2  0  0  0  0
 31 26  2  0  0  0  0
 31 30  1  0  0  0  0
 32 26  1  0  0  0  0
 34 35  2  0  0  0  0
 35 36  1  0  0  0  0
 35 37  1  0  0  0  0
 38 37  1  0  0  0  0
 39 38  1  0  0  0  0
 40 34  1  0  0  0  0
 40 38  2  0  0  0  0
M  END
>  <minimizedAffinity>
-5.57350254

$$$$

 OpenBabel03272502033D

 40 44  0  0  0  0  0  0  0  0999 V2000
   35.9670   28.3280   31.3170 C   0  0  0  0  0  0  0  0  0  0  0  0
   36.2560   28.6190   30.2900 H   0  0  0  0  0  0  0  0  0  0  0  0
   34.9490   27.9220   31.3840 H   0  0  0  0  0  0  0  0  0  0  0  0
   36.9120   27.3160   31.9070 C   0  0  0  0  0  0  0  0  0  0  0  0
   37.9350   26.6500   31.2680 C   0  0  0  0  0  0  0  0  0  0  0  0
   38.5590   25.8080   32.1790 C   0  0  0  0  0  0  0  0  0  0  0  0
   37.8930   25.9900   33.3410 N   0  0  0  0  0  0  0  0  0  0  0  0
   36.9270   26.8770   33.1750 N   0  0  0  0  0  0  0  0  0  0  0  0
   39.3580   24.4080   34.6160 N   0  0  0  0  0  0  0  0  0  0  0  0
   38.3080   25.2510   34.4800 C   0  0  0  0  0  0  0  0  0  0  0  0
   37.6800   25.2730   35.6800 N   0  0  0  0  0  0  0  0  0  0  0  0
   38.3030   24.4780   36.5480 C   0  0  0  0  0  0  0  0  0  0  0  0
   38.0400   24.1800   37.8710 C   0  0  0  0  0  0  0  0  0  0  0  0
   38.8440   23.3290   38.5270 N   0  0  0  0  0  0  0  0  0  0  0  0
   39.8970   22.7790   37.8770 C   0  0  0  0  0  0  0  0  0  0  0  0
   40.1690   23.0640   36.5740 N   0  0  0  0  0  0  0  0  0  0  0  0
   39.3770   23.9160   35.8930 C   0  0  0  0  0  0  0  0  0  0  0  0
   38.1900   26.7810   30.2240 H   0  0  0  0  0  0  0  0  0  0  0  0
   39.3840   25.1920   31.8960 H   0  0  0  0  0  0  0  0  0  0  0  0
   40.0430   24.1690   33.8780 H   0  0  0  0  0  0  0  0  0  0  0  0
   37.1820   24.6510   38.3390 H   0  0  0  0  0  0  0  0  0  0  0  0
   40.5080   22.1020   38.4600 H   0  0  0  0  0  0  0  0  0  0  0  0
   36.0870   29.5460   32.2140 C   0  0  0  0  0  0  0  0  0  0  0  0
   36.8940   29.4340   32.9670 H   0  0  0  0  0  0  0  0  0  0  0  0
   36.3110   30.4510   31.5950 H   0  0  0  0  0  0  0  0  0  0  0  0
   32.6070   29.3300   33.4520 C   0  0  0  0  0  0  0  0  0  0  0  0
   32.5720   30.3820   34.3730 C   0  0  0  0  0  0  0  0  0  0  0  0
   33.7270   31.1550   34.5650 C   0  0  0  0  0  0  0  0  0  0  0  0
   34.7930   30.8040   33.8250 N   0  0  0  0  0  0  0  0  0  0  0  0
   34.8210   29.7900   32.9420 C   0  0  0  0  0  0  0  0  0  0  0  0
   33.7310   29.0790   32.7760 N   0  0  0  0  0  0  0  0  0  0  0  0
   31.6860   28.7810   33.3570 H   0  0  0  0  0  0  0  0  0  0  0  0
   31.7000   30.6080   34.9240 H   0  0  0  0  0  0  0  0  0  0  0  0
   33.7700   32.2780   35.5130 C   0  0  0  0  0  0  0  0  0  0  0  0
   34.0380   32.0530   36.8850 C   0  0  0  0  0  0  0  0  0  0  0  0
   34.2190   31.1360   37.3320 H   0  0  0  0  0  0  0  0  0  0  0  0
   33.9770   33.7170   37.5790 S   0  0  0  0  0  0  0  0  0  0  0  0
   33.5920   34.4770   35.8790 C   0  0  0  0  0  0  0  0  0  0  0  0
   33.4360   35.5300   35.6530 H   0  0  0  0  0  0  0  0  0  0  0  0
   33.5520   33.5100   35.0510 N   0  0  0  0  0  0  0  0  0  0  0  0
  1  3  1  0  0  0  0
  1  4  1  0  0  0  0
  1 23  1  0  0  0  0
  2  1  1  0  0  0  0
  4  8  2  0  0  0  0
  5  4  1  0  0  0  0
  5  6  2  0  0  0  0
  6  7  1  0  0  0  0
  7 10  1  0  0  0  0
  8  7  1  0  0  0  0
  9 17  1  0  0  0  0
 10  9  1  0  0  0  0
 10 11  2  0  0  0  0
 11 12  1  0  0  0  0
 12 13  1  0  0  0  0
 13 21  1  0  0  0  0
 13 14  2  0  0  0  0
 15 22  1  0  0  0  0
 15 14  1  0  0  0  0
 16 15  2  0  0  0  0
 17 12  2  0  0  0  0
 17 16  1  0  0  0  0
 18  5  1  0  0  0  0
 19  6  1  0  0  0  0
 20  9  1  0  0  0  0
 23 30  1  0  0  0  0
 23 24  1  0  0  0  0
 25 23  1  0  0  0  0
 26 27  1  0  0  0  0
 27 28  2  0  0  0  0
 27 33  1  0  0  0  0
 28 34  1  0  0  0  0
 29 28  1  0  0  0  0
 30 29  2  0  0  0  0
 31 30  1  0  0  0  0
 31 26  2  0  0  0  0
 32 26  1  0  0  0  0
 34 35  2  0  0  0  0
 35 36  1  0  0  0  0
 35 37  1  0  0  0  0
 38 37  1  0  0  0  0
 39 38  1  0  0  0  0
 40 34  1  0  0  0  0
 40 38  2  0  0  0  0
M  END
>  <minimizedAffinity>
-5.57346582

$$$$

 OpenBabel03272502033D

 40 44  0  0  0  0  0  0  0  0999 V2000
   38.1970   24.4710   36.9220 C   0  0  0  0  0  0  0  0  0  0  0  0
   38.8920   24.8720   37.6830 H   0  0  0  0  0  0  0  0  0  0  0  0
   37.1680   24.3610   37.2860 H   0  0  0  0  0  0  0  0  0  0  0  0
   38.1640   25.3220   35.6810 C   0  0  0  0  0  0  0  0  0  0  0  0
   39.0380   25.2900   34.6160 C   0  0  0  0  0  0  0  0  0  0  0  0
   38.6450   26.2400   33.6840 C   0  0  0  0  0  0  0  0  0  0  0  0
   37.5440   26.8200   34.2130 N   0  0  0  0  0  0  0  0  0  0  0  0
   37.2670   26.2760   35.3860 N   0  0  0  0  0  0  0  0  0  0  0  0
   37.1840   28.3180   32.2390 N   0  0  0  0  0  0  0  0  0  0  0  0
   36.9030   27.8500   33.4770 C   0  0  0  0  0  0  0  0  0  0  0  0
   35.8460   28.5700   33.9250 N   0  0  0  0  0  0  0  0  0  0  0  0
   35.4670   29.4600   33.0110 C   0  0  0  0  0  0  0  0  0  0  0  0
   34.4560   30.4010   33.0110 C   0  0  0  0  0  0  0  0  0  0  0  0
   34.2880   31.1890   31.9380 N   0  0  0  0  0  0  0  0  0  0  0  0
   35.1160   31.0460   30.8750 C   0  0  0  0  0  0  0  0  0  0  0  0
   36.1170   30.1230   30.8610 N   0  0  0  0  0  0  0  0  0  0  0  0
   36.3050   29.3190   31.9260 C   0  0  0  0  0  0  0  0  0  0  0  0
   39.8870   24.6210   34.5440 H   0  0  0  0  0  0  0  0  0  0  0  0
   39.1850   26.3880   32.7740 H   0  0  0  0  0  0  0  0  0  0  0  0
   37.9420   27.9780   31.6200 H   0  0  0  0  0  0  0  0  0  0  0  0
   33.8240   30.4710   33.8900 H   0  0  0  0  0  0  0  0  0  0  0  0
   34.9300   31.7090   30.0410 H   0  0  0  0  0  0  0  0  0  0  0  0
   38.7180   23.1230   36.4580 C   0  0  0  0  0  0  0  0  0  0  0  0
   39.4690   23.2200   35.6470 H   0  0  0  0  0  0  0  0  0  0  0  0
   39.2000   22.5890   37.3160 H   0  0  0  0  0  0  0  0  0  0  0  0
   35.6290   21.1050   36.1960 C   0  0  0  0  0  0  0  0  0  0  0  0
   35.6590   20.7200   34.8520 C   0  0  0  0  0  0  0  0  0  0  0  0
   36.7260   21.1480   34.0460 C   0  0  0  0  0  0  0  0  0  0  0  0
   37.6490   21.9110   34.6590 N   0  0  0  0  0  0  0  0  0  0  0  0
   37.6140   22.2780   35.9520 C   0  0  0  0  0  0  0  0  0  0  0  0
   36.6080   21.8670   36.6890 N   0  0  0  0  0  0  0  0  0  0  0  0
   34.7820   20.7390   36.7520 H   0  0  0  0  0  0  0  0  0  0  0  0
   34.9020   20.1180   34.4290 H   0  0  0  0  0  0  0  0  0  0  0  0
   36.8300   20.7860   32.6250 C   0  0  0  0  0  0  0  0  0  0  0  0
   36.1850   19.6280   32.1280 C   0  0  0  0  0  0  0  0  0  0  0  0
   35.6120   18.9620   32.6770 H   0  0  0  0  0  0  0  0  0  0  0  0
   36.6220   19.6530   30.3770 S   0  0  0  0  0  0  0  0  0  0  0  0
   37.6270   21.2520   30.5890 C   0  0  0  0  0  0  0  0  0  0  0  0
   38.1690   21.7910   29.8150 H   0  0  0  0  0  0  0  0  0  0  0  0
   37.5430   21.5730   31.8190 N   0  0  0  0  0  0  0  0  0  0  0  0
  1  3  1  0  0  0  0
  1  2  1  0  0  0  0
  4  1  1  0  0  0  0
  5  4  1  0  0  0  0
  6  7  1  0  0  0  0
  6  5  2  0  0  0  0
  7  8  1  0  0  0  0
  8  4  2  0  0  0  0
  9 10  1  0  0  0  0
 10 11  2  0  0  0  0
 10  7  1  0  0  0  0
 12 13  1  0  0  0  0
 12 11  1  0  0  0  0
 13 21  1  0  0  0  0
 14 13  2  0  0  0  0
 15 14  1  0  0  0  0
 16 15  2  0  0  0  0
 16 17  1  0  0  0  0
 17  9  1  0  0  0  0
 17 12  2  0  0  0  0
 18  5  1  0  0  0  0
 19  6  1  0  0  0  0
 20  9  1  0  0  0  0
 22 15  1  0  0  0  0
 23  1  1  0  0  0  0
 23 25  1  0  0  0  0
 24 23  1  0  0  0  0
 26 31  1  0  0  0  0
 26 32  1  0  0  0  0
 27 26  2  0  0  0  0
 28 29  2  0  0  0  0
 28 27  1  0  0  0  0
 29 30  1  0  0  0  0
 30 23  1  0  0  0  0
 30 31  2  0  0  0  0
 33 27  1  0  0  0  0
 34 28  1  0  0  0  0
 35 34  2  0  0  0  0
 35 36  1  0  0  0  0
 37 38  1  0  0  0  0
 37 35  1  0  0  0  0
 38 40  2  0  0  0  0
 39 38  1  0  0  0  0
 40 34  1  0  0  0  0
M  END
>  <minimizedAffinity>
-5.52706194

$$$$

 OpenBabel03272502033D

 40 44  0  0  0  0  0  0  0  0999 V2000
   37.6820   27.1250   34.6500 C   0  0  0  0  0  0  0  0  0  0  0  0
   36.5790   27.2030   34.6690 H   0  0  0  0  0  0  0  0  0  0  0  0
   38.1890   28.0010   35.0750 H   0  0  0  0  0  0  0  0  0  0  0  0
   38.1760   25.9030   35.3770 C   0  0  0  0  0  0  0  0  0  0  0  0
   37.5550   25.2270   36.4040 C   0  0  0  0  0  0  0  0  0  0  0  0
   38.3530   24.1570   36.7860 C   0  0  0  0  0  0  0  0  0  0  0  0
   39.4350   24.2190   35.9770 N   0  0  0  0  0  0  0  0  0  0  0  0
   39.3260   25.2460   35.1530 N   0  0  0  0  0  0  0  0  0  0  0  0
   40.4760   22.1560   36.9430 N   0  0  0  0  0  0  0  0  0  0  0  0
   40.4490   23.2380   36.1310 C   0  0  0  0  0  0  0  0  0  0  0  0
   41.6200   23.2300   35.4480 N   0  0  0  0  0  0  0  0  0  0  0  0
   42.3630   22.1860   35.8090 C   0  0  0  0  0  0  0  0  0  0  0  0
   43.6130   21.7650   35.3960 C   0  0  0  0  0  0  0  0  0  0  0  0
   44.1430   20.6540   35.9330 N   0  0  0  0  0  0  0  0  0  0  0  0
   43.4430   19.9710   36.8690 C   0  0  0  0  0  0  0  0  0  0  0  0
   42.2110   20.3750   37.2840 N   0  0  0  0  0  0  0  0  0  0  0  0
   41.6560   21.4850   36.7610 C   0  0  0  0  0  0  0  0  0  0  0  0
   36.5980   25.5070   36.8270 H   0  0  0  0  0  0  0  0  0  0  0  0
   38.0620   23.4950   37.5710 H   0  0  0  0  0  0  0  0  0  0  0  0
   39.7280   21.8730   37.6000 H   0  0  0  0  0  0  0  0  0  0  0  0
   44.1270   22.3520   34.6440 H   0  0  0  0  0  0  0  0  0  0  0  0
   43.9230   19.0850   37.2620 H   0  0  0  0  0  0  0  0  0  0  0  0
   38.1250   26.9310   33.2120 C   0  0  0  0  0  0  0  0  0  0  0  0
   38.2980   27.8960   32.6920 H   0  0  0  0  0  0  0  0  0  0  0  0
   39.0790   26.3460   33.1860 H   0  0  0  0  0  0  0  0  0  0  0  0
   35.1790   26.0270   31.1660 C   0  0  0  0  0  0  0  0  0  0  0  0
   35.3200   24.6390   31.0680 C   0  0  0  0  0  0  0  0  0  0  0  0
   36.4130   24.0220   31.6970 C   0  0  0  0  0  0  0  0  0  0  0  0
   37.2480   24.8460   32.3550 N   0  0  0  0  0  0  0  0  0  0  0  0
   37.1060   26.1800   32.4440 C   0  0  0  0  0  0  0  0  0  0  0  0
   36.0770   26.7380   31.8500 N   0  0  0  0  0  0  0  0  0  0  0  0
   34.3180   26.4300   30.6600 H   0  0  0  0  0  0  0  0  0  0  0  0
   34.6280   24.0460   30.5360 H   0  0  0  0  0  0  0  0  0  0  0  0
   36.6320   22.5690   31.6420 C   0  0  0  0  0  0  0  0  0  0  0  0
   37.8500   22.0060   32.0940 C   0  0  0  0  0  0  0  0  0  0  0  0
   38.6570   22.5250   32.4840 H   0  0  0  0  0  0  0  0  0  0  0  0
   37.5990   20.2420   31.8120 S   0  0  0  0  0  0  0  0  0  0  0  0
   35.8560   20.5400   31.1140 C   0  0  0  0  0  0  0  0  0  0  0  0
   35.1600   19.7870   30.7480 H   0  0  0  0  0  0  0  0  0  0  0  0
   35.6580   21.7980   31.1570 N   0  0  0  0  0  0  0  0  0  0  0  0
  1  2  1  0  0  0  0
  1  3  1  0  0  0  0
  1  4  1  0  0  0  0
  4  5  1  0  0  0  0
  5  6  2  0  0  0  0
  5 18  1  0  0  0  0
  6 19  1  0  0  0  0
  7 10  1  0  0  0  0
  7  6  1  0  0  0  0
  8  4  2  0  0  0  0
  8  7  1  0  0  0  0
  9 20  1  0  0  0  0
 10  9  1  0  0  0  0
 11 12  1  0  0  0  0
 11 10  2  0  0  0  0
 12 17  1  0  0  0  0
 13 12  2  0  0  0  0
 13 14  1  0  0  0  0
 14 15  2  0  0  0  0
 15 22  1  0  0  0  0
 15 16  1  0  0  0  0
 17  9  1  0  0  0  0
 17 16  2  0  0  0  0
 21 13  1  0  0  0  0
 23  1  1  0  0  0  0
 24 23  1  0  0  0  0
 25 23  1  0  0  0  0
 26 31  1  0  0  0  0
 27 26  2  0  0  0  0
 27 28  1  0  0  0  0
 28 29  2  0  0  0  0
 29 30  1  0  0  0  0
 30 23  1  0  0  0  0
 31 30  2  0  0  0  0
 32 26  1  0  0  0  0
 33 27  1  0  0  0  0
 34 28  1  0  0  0  0
 34 35  2  0  0  0  0
 35 36  1  0  0  0  0
 37 35  1  0  0  0  0
 38 40  2  0  0  0  0
 38 37  1  0  0  0  0
 39 38  1  0  0  0  0
 40 34  1  0  0  0  0
M  END
>  <minimizedAffinity>
-5.5133009

$$$$
