REMARK  Name = 
REMARK  4 active torsions:
REMARK  status: ('A' for Active; 'I' for Inactive)
REMARK    1  A    between atoms: C_5  and  O_7
REMARK    2  A    between atoms: O_7  and  C_8
REMARK    3  A    between atoms: C_8  and  C_9
REMARK    4  A    between atoms: C_9  and  C_17
REMARK                            x       y       z     vdW  Elec       q    Type
REMARK                         _______ _______ _______ _____ _____    ______ ____
ROOT
ATOM      1  C   UNL     1      34.191  28.410  48.465  0.00  0.00    +0.000 C 
ATOM      2  H   UNL     1      33.262  29.041  48.469  0.00  0.00    +0.000 HD
ATOM      3  H   UNL     1      34.884  28.881  47.722  0.00  0.00    +0.000 HD
ENDROOT
BRANCH   1   4
ATOM      4  C   UNL     1      33.827  27.055  47.904  0.00  0.00    +0.000 C 
ATOM      5  H   UNL     1      33.085  26.580  48.558  0.00  0.00    +0.000 HD
ATOM      6  H   UNL     1      34.703  26.401  47.839  0.00  0.00    +0.000 HD
BRANCH   4   7
ATOM      7  C   UNL     1      33.235  27.331  46.545  0.00  0.00    +0.000 A 
ATOM      8  C   UNL     1      33.154  26.124  45.731  0.00  0.00    +0.000 A 
ATOM      9  H   UNL     1      33.421  25.095  45.888  0.00  0.00    +0.000 HD
ATOM     10  S   UNL     1      32.411  26.731  44.155  0.00  0.00    +0.000 S 
ATOM     11  C   UNL     1      32.339  28.494  44.860  0.00  0.00    +0.000 A 
ATOM     12  H   UNL     1      32.032  29.681  44.681  0.00  0.00    +0.000 HD
ATOM     13  N   UNL     1      32.770  28.381  45.896  0.00  0.00    +0.000 NA
ENDBRANCH   4   7
ENDBRANCH   1   4
BRANCH   1  14
ATOM     14  O   UNL     1      34.758  28.273  49.745  0.00  0.00    +0.000 OA
BRANCH  14  19
ATOM     15  C   UNL     1      37.316  30.233  51.423  0.00  0.00    +0.000 A 
ATOM     16  C   UNL     1      38.040  30.672  50.301  0.00  0.00    +0.000 A 
ATOM     17  C   UNL     1      37.617  30.275  49.037  0.00  0.00    +0.000 A 
ATOM     18  N   UNL     1      36.511  29.476  48.969  0.00  0.00    +0.000 NA
ATOM     19  C   UNL     1      35.841  29.075  50.073  0.00  0.00    +0.000 A 
ATOM     20  N   UNL     1      36.256  29.462  51.284  0.00  0.00    +0.000 NA
ATOM     21  H   UNL     1      37.617  30.523  52.425  0.00  0.00    +0.000 HD
ATOM     22  H   UNL     1      38.915  31.310  50.423  0.00  0.00    +0.000 HD
ATOM     23  H   UNL     1      38.144  30.589  48.144  0.00  0.00    +0.000 HD
ENDBRANCH  14  19
ENDBRANCH   1  14
TORSDOF 4
