
 OpenBabel03272507553D

 21 22  0  0  0  0  0  0  0  0999 V2000
   34.9190   28.9780   50.1670 C   0  0  0  0  0  0  0  0  0  0  0  0
   36.0810   29.6860   49.7730 C   0  0  0  0  0  0  0  0  0  0  0  0
   36.0940   30.2600   48.5050 C   0  0  0  0  0  0  0  0  0  0  0  0
   34.9980   30.1170   47.7040 N   0  0  0  0  0  0  0  0  0  0  0  0
   33.9010   29.4250   48.1250 C   0  0  0  0  0  0  0  0  0  0  0  0
   33.8550   28.8570   49.3510 N   0  0  0  0  0  0  0  0  0  0  0  0
   32.8800   29.3990   47.1390 N   0  0  0  0  0  0  0  0  0  0  0  0
   34.8480   28.5090   51.1430 H   0  0  0  0  0  0  0  0  0  0  0  0
   32.1400   30.1220   46.9430 H   0  0  0  0  0  0  0  0  0  0  0  0
   33.1060   28.4620   46.6980 H   0  0  0  0  0  0  0  0  0  0  0  0
   37.2780   31.0020   48.0630 C   0  0  0  0  0  0  0  0  0  0  0  0
   37.4680   32.2660   48.6110 C   0  0  0  0  0  0  0  0  0  0  0  0
   36.8980   32.8390   49.3260 H   0  0  0  0  0  0  0  0  0  0  0  0
   39.0200   32.8380   47.8150 S   0  0  0  0  0  0  0  0  0  0  0  0
   39.1370   31.1940   46.8430 C   0  0  0  0  0  0  0  0  0  0  0  0
   39.8790   30.7650   46.0820 H   0  0  0  0  0  0  0  0  0  0  0  0
   38.2160   30.6500   47.2040 N   0  0  0  0  0  0  0  0  0  0  0  0
   37.2240   29.7870   50.7180 C   0  0  0  0  0  0  0  0  0  0  0  0
   38.4380   29.6240   50.0600 F   0  0  0  0  0  0  0  0  0  0  0  0
   37.2010   31.0300   51.2900 F   0  0  0  0  0  0  0  0  0  0  0  0
   37.1670   28.8430   51.7240 F   0  0  0  0  0  0  0  0  0  0  0  0
  1  8  1  0  0  0  0
  2  1  1  0  0  0  0
  2 18  1  0  0  0  0
  3  2  2  0  0  0  0
  4  5  2  0  0  0  0
  4  3  1  0  0  0  0
  5  6  1  0  0  0  0
  6  1  2  0  0  0  0
  7  5  1  0  0  0  0
  9  7  1  0  0  0  0
 10  7  1  0  0  0  0
 11  3  1  0  0  0  0
 11 12  2  0  0  0  0
 12 13  1  0  0  0  0
 14 12  1  0  0  0  0
 15 17  2  0  0  0  0
 15 14  1  0  0  0  0
 16 15  1  0  0  0  0
 17 11  1  0  0  0  0
 18 20  1  0  0  0  0
 18 21  1  0  0  0  0
 19 18  1  0  0  0  0
M  END
>  <minimizedAffinity>
-5.0208292

>  <minimizedRMSD>
1.28383625

$$$$
