
     RDKit          3D

 17 18  0  0  0  0  0  0  0  0999 V2000
   37.2639   30.1780   51.4116 C   0  0  0  0  0  0  0  0  0  0  0  0
   38.1251   30.7642   50.4657 C   0  0  0  0  0  0  0  0  0  0  0  0
   37.8459   30.5486   49.1143 C   0  0  0  0  0  0  0  0  0  0  0  0
   36.7644   29.7891   48.7906 N   0  0  0  0  0  0  0  0  0  0  0  0
   35.9613   29.2433   49.7296 C   0  0  0  0  0  0  0  0  0  0  0  0
   36.1963   29.4273   51.0321 N   0  0  0  0  0  0  0  0  0  0  0  0
   34.5452   28.2486   49.2901 S   0  0  0  0  0  0  0  0  0  0  0  0
   37.4325   30.3121   52.4837 H   0  0  0  0  0  0  0  0  0  0  0  0
   38.9481   31.3437   50.8091 H   0  0  0  0  0  0  0  0  0  0  0  0
   38.4951   30.9899   48.3640 H   0  0  0  0  0  0  0  0  0  0  0  0
   34.4043   28.1226   47.4920 C   0  0  0  0  0  0  0  0  0  0  0  0
   33.0676   28.3136   46.9641 C   0  0  0  0  0  0  0  0  0  0  0  0
   32.1540   28.5138   47.4344 H   0  0  0  0  0  0  0  0  0  0  0  0
   33.4360   28.0938   45.1180 S   0  0  0  0  0  0  0  0  0  0  0  0
   35.2797   27.7979   45.4587 C   0  0  0  0  0  0  0  0  0  0  0  0
   36.0003   27.6054   44.6768 H   0  0  0  0  0  0  0  0  0  0  0  0
   35.3803   27.8795   46.6427 N   0  0  0  0  0  0  0  0  0  0  0  0
  2  1  2  0
  3  2  1  0
  4  3  2  0
  4  5  1  0
  5  6  2  0
  6  1  1  0
  7  5  1  0
  1  8  1  0
  2  9  1  0
  3 10  1  0
 11 12  2  0
 12 13  1  0
 12 14  1  0
 14 15  1  0
 15 16  1  0
 15 17  2  0
 17 11  1  0
  7 11  1  0
M  ISO  5   8  14   9  14  10  14  13  15  16  16
M  END
>  <DihAtoms>  (1) 
4,6,10,11

>  <DihDeg>  (1) 
179.99743255300356

$$$$
