
     RDKit          3D

 45 49  0  0  0  0  0  0  0  0999 V2000
   36.9482   31.3847   47.3904 C   0  0  1  0  0  0  0  0  0  0  0  0
   38.1331   31.9989   48.0475 C   0  0  0  0  0  0  0  0  0  0  0  0
   38.4486   30.8941   47.1672 C   0  0  2  0  0  0  0  0  0  0  0  0
   39.1218   31.3684   45.9114 C   0  0  0  0  0  0  0  0  0  0  0  0
   39.6142   32.6710   46.0976 C   0  0  0  0  0  0  0  0  0  0  0  0
   40.3612   33.2669   45.1145 C   0  0  0  0  0  0  0  0  0  0  0  0
   40.6517   32.6042   43.9133 C   0  0  0  0  0  0  0  0  0  0  0  0
   40.1487   31.3187   43.7658 C   0  0  0  0  0  0  0  0  0  0  0  0
   40.3472   30.5650   42.6418 C   0  0  0  0  0  0  0  0  0  0  0  0
   39.8474   29.2981   42.4772 C   0  0  0  0  0  0  0  0  0  0  0  0
   39.1025   28.7445   43.4957 C   0  0  0  0  0  0  0  0  0  0  0  0
   38.8962   29.4962   44.6343 C   0  0  0  0  0  0  0  0  0  0  0  0
   39.4184   30.7690   44.7572 C   0  0  0  0  0  0  0  0  0  0  0  0
   34.4304   28.7597   48.3866 C   0  0  0  0  0  0  0  0  0  0  0  0
   35.1773   29.6824   47.5884 C   0  0  0  0  0  0  0  0  0  0  0  0
   36.1627   30.4100   48.1881 C   0  0  0  0  0  0  0  0  0  0  0  0
   36.3585   30.1899   49.5360 N   0  0  0  0  0  0  0  0  0  0  0  0
   35.6524   29.3241   50.2683 C   0  0  0  0  0  0  0  0  0  0  0  0
   34.6767   28.5951   49.7051 N   0  0  0  0  0  0  0  0  0  0  0  0
   35.9931   29.1957   51.7266 C   0  0  0  0  0  0  0  0  0  0  0  0
   37.3320   29.9214   51.9401 C   0  0  0  0  0  0  0  0  0  0  0  0
   36.5207   31.7000   46.4505 H   0  0  0  0  0  0  0  0  0  0  0  0
   38.1153   33.0737   47.8784 H   0  0  0  0  0  0  0  0  0  0  0  0
   38.1661   31.8175   49.1857 H   0  0  0  0  0  0  0  0  0  0  0  0
   38.4712   29.8323   47.3824 H   0  0  0  0  0  0  0  0  0  0  0  0
   39.5868   33.4116   46.8695 H   0  0  0  0  0  0  0  0  0  0  0  0
   40.8163   34.2437   45.0767 H   0  0  0  0  0  0  0  0  0  0  0  0
   41.2248   32.9577   43.0640 H   0  0  0  0  0  0  0  0  0  0  0  0
   40.9289   30.9606   41.8124 H   0  0  0  0  0  0  0  0  0  0  0  0
   40.0299   28.7350   41.5657 H   0  0  0  0  0  0  0  0  0  0  0  0
   38.6791   27.7547   43.4356 H   0  0  0  0  0  0  0  0  0  0  0  0
   38.2970   29.0349   45.4399 H   0  0  0  0  0  0  0  0  0  0  0  0
   33.6685   28.2226   47.8380 H   0  0  0  0  0  0  0  0  0  0  0  0
   34.9797   29.8086   46.5500 H   0  0  0  0  0  0  0  0  0  0  0  0
   35.2131   29.5989   52.3673 H   0  0  0  0  0  0  0  0  0  0  0  0
   36.1851   28.1073   51.9155 H   0  0  0  0  0  0  0  0  0  0  0  0
   37.1508   31.0004   51.6570 H   0  0  0  0  0  0  0  0  0  0  0  0
   38.0772   29.5675   51.2295 H   0  0  0  0  0  0  0  0  0  0  0  0
   37.7452   29.8406   53.3729 C   0  0  0  0  0  0  0  0  0  0  0  0
   38.5609   28.7505   53.8789 C   0  0  0  0  0  0  0  0  0  0  0  0
   38.8946   27.9672   53.2411 H   0  0  0  0  0  0  0  0  0  0  0  0
   38.7064   29.2161   55.6212 S   0  0  0  0  0  0  0  0  0  0  0  0
   37.6508   30.7970   55.3930 C   0  0  0  0  0  0  0  0  0  0  0  0
   37.3961   31.5166   56.1845 H   0  0  0  0  0  0  0  0  0  0  0  0
   37.3296   30.8119   54.1568 N   0  0  0  0  0  0  0  0  0  0  0  0
  1  2  1  0
  1 16  1  0
  3  1  1  0
  3  2  1  0
  4  5  2  0
  4  3  1  0
  6  5  1  0
  7  6  2  0
  8  7  1  0
  8 13  2  0
  9  8  1  0
 10  9  2  0
 10 11  1  0
 11 12  2  0
 12 13  1  0
 13  4  1  0
 14 19  2  0
 15 16  2  0
 15 14  1  0
 16 17  1  0
 17 18  2  0
 18 20  1  0
 19 18  1  0
 20 21  1  0
  1 22  1  6
  2 23  1  0
  2 24  1  0
  3 25  1  1
  5 26  1  0
  6 27  1  0
  7 28  1  0
  9 29  1  0
 10 30  1  0
 11 31  1  0
 12 32  1  0
 14 33  1  0
 15 34  1  0
 20 35  1  0
 20 36  1  0
 21 37  1  0
 21 38  1  0
 39 40  2  0
 40 41  1  0
 40 42  1  0
 42 43  1  0
 43 44  1  0
 43 45  2  0
 45 39  1  0
 21 39  1  0
M  ISO  8  22  13  23  13  24  13  25  13  26  14  27  14  28  14  29  14
M  ISO  8  30  14  31  14  32  14  33  14  34  14  35   8  36   8  37   8
M  ISO  3  38   8  41  15  44  16
M  END
>  <DihAtoms>  (1) 
19,20,38,39

>  <DihDeg>  (1) 
-90.11833464682528

$$$$
