
 OpenBabel03272508483D

 38 42  0  0  0  0  0  0  0  0999 V2000
   35.6040   29.6850   49.6700 C   0  0  0  0  0  0  0  0  0  0  0  0
   36.5990   29.5000   50.6070 C   0  0  0  0  0  0  0  0  0  0  0  0
   37.7260   30.0530   50.0100 C   0  0  0  0  0  0  0  0  0  0  0  0
   37.3820   30.5360   48.7750 C   0  0  0  0  0  0  0  0  0  0  0  0
   36.0980   30.2970   48.6040 O   0  0  0  0  0  0  0  0  0  0  0  0
   36.5380   29.0370   51.5790 H   0  0  0  0  0  0  0  0  0  0  0  0
   38.6990   30.0730   50.4910 H   0  0  0  0  0  0  0  0  0  0  0  0
   38.7840   32.4450   48.1160 C   0  0  0  0  0  0  0  0  0  0  0  0
   38.2540   31.1980   47.8050 C   0  0  0  0  0  0  0  0  0  0  0  0
   38.5250   30.5650   46.6050 C   0  0  0  0  0  0  0  0  0  0  0  0
   39.3500   31.1770   45.6700 C   0  0  0  0  0  0  0  0  0  0  0  0
   39.7970   30.8350   44.4470 N   0  0  0  0  0  0  0  0  0  0  0  0
   40.5730   31.8360   44.0210 N   0  0  0  0  0  0  0  0  0  0  0  0
   40.6280   32.8090   44.9540 C   0  0  0  0  0  0  0  0  0  0  0  0
   39.8520   32.4150   46.0280 C   0  0  0  0  0  0  0  0  0  0  0  0
   39.6180   33.0890   47.1980 C   0  0  0  0  0  0  0  0  0  0  0  0
   38.5410   32.8960   49.0650 H   0  0  0  0  0  0  0  0  0  0  0  0
   38.1030   29.5890   46.3730 H   0  0  0  0  0  0  0  0  0  0  0  0
   39.5690   29.9410   43.9280 H   0  0  0  0  0  0  0  0  0  0  0  0
   41.1930   33.7410   44.8640 H   0  0  0  0  0  0  0  0  0  0  0  0
   40.0450   34.0500   47.4060 H   0  0  0  0  0  0  0  0  0  0  0  0
   34.2250   29.2690   49.8290 C   0  0  0  0  0  0  0  0  0  0  0  0
   33.6250   29.5830   50.8840 O   0  0  0  0  0  0  0  0  0  0  0  0
   31.7470   27.2050   48.1240 C   0  0  0  0  0  0  0  0  0  0  0  0
   32.2800   27.0670   46.8580 C   0  0  0  0  0  0  0  0  0  0  0  0
   33.4930   27.6680   46.5420 C   0  0  0  0  0  0  0  0  0  0  0  0
   34.0750   28.3660   47.5400 N   0  0  0  0  0  0  0  0  0  0  0  0
   33.5570   28.5020   48.7760 C   0  0  0  0  0  0  0  0  0  0  0  0
   32.3890   27.9100   49.0470 N   0  0  0  0  0  0  0  0  0  0  0  0
   30.8110   26.7470   48.3820 H   0  0  0  0  0  0  0  0  0  0  0  0
   31.7350   26.4870   46.1310 H   0  0  0  0  0  0  0  0  0  0  0  0
   34.0830   27.5350   45.1980 C   0  0  0  0  0  0  0  0  0  0  0  0
   34.0470   26.3960   44.5040 C   0  0  0  0  0  0  0  0  0  0  0  0
   33.5500   25.3060   44.8230 H   0  0  0  0  0  0  0  0  0  0  0  0
   34.9220   26.7900   42.9100 S   0  0  0  0  0  0  0  0  0  0  0  0
   35.1910   28.5640   43.5390 C   0  0  0  0  0  0  0  0  0  0  0  0
   35.7040   29.3260   42.9620 H   0  0  0  0  0  0  0  0  0  0  0  0
   34.6930   28.4720   44.5340 N   0  0  0  0  0  0  0  0  0  0  0  0
  1 22  1  0  0  0  0
  1  2  2  0  0  0  0
  2  6  1  0  0  0  0
  3  7  1  0  0  0  0
  3  2  1  0  0  0  0
  4  3  2  0  0  0  0
  5  4  1  0  0  0  0
  5  1  1  0  0  0  0
  8 17  1  0  0  0  0
  9  8  1  0  0  0  0
  9  4  1  0  0  0  0
 10  9  2  0  0  0  0
 11 15  2  0  0  0  0
 11 10  1  0  0  0  0
 12 11  1  0  0  0  0
 13 12  1  0  0  0  0
 13 14  2  0  0  0  0
 14 15  1  0  0  0  0
 15 16  1  0  0  0  0
 16 21  1  0  0  0  0
 16  8  2  0  0  0  0
 18 10  1  0  0  0  0
 19 12  1  0  0  0  0
 20 14  1  0  0  0  0
 22 23  2  0  0  0  0
 24 30  1  0  0  0  0
 24 29  1  0  0  0  0
 25 24  2  0  0  0  0
 26 25  1  0  0  0  0
 26 27  2  0  0  0  0
 27 28  1  0  0  0  0
 28 29  2  0  0  0  0
 28 22  1  0  0  0  0
 31 25  1  0  0  0  0
 32 26  1  0  0  0  0
 33 34  1  0  0  0  0
 33 32  2  0  0  0  0
 35 36  1  0  0  0  0
 35 33  1  0  0  0  0
 36 38  2  0  0  0  0
 37 36  1  0  0  0  0
 38 32  1  0  0  0  0
M  END
>  <minimizedAffinity>
-6.42971706

>  <minimizedRMSD>
1.48191273

$$$$
