REMARK  Name = 
REMARK  3 active torsions:
REMARK  status: ('A' for Active; 'I' for Inactive)
REMARK    1  A    between atoms: C_1  and  C_16
REMARK    2  A    between atoms: C_3  and  C_4
REMARK    3  A    between atoms: C_18  and  C_33
REMARK                            x       y       z     vdW  Elec       q    Type
REMARK                         _______ _______ _______ _____ _____    ______ ____
ROOT
ATOM      1  C   UNL     1      37.552  32.070  48.504  0.00  0.00    +0.000 C 
ATOM      2  C   UNL     1      38.790  32.795  48.835  0.00  0.00    +0.000 C 
ATOM      3  C   UNL     1      38.922  31.638  47.912  0.00  0.00    +0.000 C 
ATOM      4  H   UNL     1      36.902  32.424  47.722  0.00  0.00    +0.000 HD
ATOM      5  H   UNL     1      39.177  32.582  49.880  0.00  0.00    +0.000 HD
ATOM      6  H   UNL     1      38.723  33.846  48.628  0.00  0.00    +0.000 HD
ATOM      7  H   UNL     1      39.037  30.579  48.041  0.00  0.00    +0.000 HD
ENDROOT
BRANCH   3   8
ATOM      8  C   UNL     1      39.289  32.098  46.546  0.00  0.00    +0.000 A 
ATOM      9  C   UNL     1      39.749  33.419  46.582  0.00  0.00    +0.000 A 
ATOM     10  C   UNL     1      40.229  34.038  45.447  0.00  0.00    +0.000 A 
ATOM     11  C   UNL     1      40.267  33.357  44.234  0.00  0.00    +0.000 A 
ATOM     12  C   UNL     1      39.810  32.059  44.224  0.00  0.00    +0.000 A 
ATOM     13  C   UNL     1      39.784  31.276  43.087  0.00  0.00    +0.000 A 
ATOM     14  C   UNL     1      39.318  29.975  43.065  0.00  0.00    +0.000 A 
ATOM     15  C   UNL     1      38.849  29.410  44.240  0.00  0.00    +0.000 A 
ATOM     16  C   UNL     1      38.870  30.181  45.381  0.00  0.00    +0.000 A 
ATOM     17  C   UNL     1      39.341  31.468  45.358  0.00  0.00    +0.000 A 
ATOM     18  H   UNL     1      39.872  34.188  47.317  0.00  0.00    +0.000 HD
ATOM     19  H   UNL     1      40.614  35.033  45.301  0.00  0.00    +0.000 HD
ATOM     20  H   UNL     1      40.607  33.687  43.260  0.00  0.00    +0.000 HD
ATOM     21  H   UNL     1      40.149  31.703  42.154  0.00  0.00    +0.000 HD
ATOM     22  H   UNL     1      39.312  29.387  42.151  0.00  0.00    +0.000 HD
ATOM     23  H   UNL     1      38.471  28.400  44.297  0.00  0.00    +0.000 HD
ATOM     24  H   UNL     1      38.491  29.709  46.304  0.00  0.00    +0.000 HD
ENDBRANCH   3   8
BRANCH   1  27
ATOM     25  C   UNL     1      35.297  29.576  50.211  0.00  0.00    +0.000 A 
ATOM     26  C   UNL     1      35.799  30.494  49.245  0.00  0.00    +0.000 A 
ATOM     27  C   UNL     1      37.008  31.103  49.480  0.00  0.00    +0.000 A 
ATOM     28  N   UNL     1      37.638  30.772  50.636  0.00  0.00    +0.000 NA
ATOM     29  C   UNL     1      37.164  29.906  51.546  0.00  0.00    +0.000 A 
ATOM     30  N   UNL     1      35.972  29.296  51.330  0.00  0.00    +0.000 NA
ATOM     31  H   UNL     1      34.345  29.108  50.006  0.00  0.00    +0.000 HD
ATOM     32  H   UNL     1      35.201  30.678  48.355  0.00  0.00    +0.000 HD
BRANCH  29  33
ATOM     33  C   UNL     1      38.015  29.691  52.738  0.00  0.00    +0.000 A 
ATOM     34  C   UNL     1      37.313  29.937  53.885  0.00  0.00    +0.000 A 
ATOM     35  H   UNL     1      36.306  30.248  54.215  0.00  0.00    +0.000 HD
ATOM     36  S   UNL     1      38.502  29.627  55.257  0.00  0.00    +0.000 S 
ATOM     37  C   UNL     1      39.825  29.191  53.958  0.00  0.00    +0.000 A 
ATOM     38  H   UNL     1      41.003  28.829  53.636  0.00  0.00    +0.000 HD
ATOM     39  N   UNL     1      39.248  29.332  53.006  0.00  0.00    +0.000 NA
ENDBRANCH  29  33
ENDBRANCH   1  27
TORSDOF 3
