
     RDKit          3D

 28 30  0  0  0  0  0  0  0  0999 V2000
   38.0999   33.1349   49.4866 C   0  0  0  0  0  0  0  0  0  0  0  0
   38.9499   33.0541   48.3815 C   0  0  0  0  0  0  0  0  0  0  0  0
   38.7155   32.0443   47.4495 C   0  0  0  0  0  0  0  0  0  0  0  0
   37.6753   31.1885   47.6579 N   0  0  0  0  0  0  0  0  0  0  0  0
   36.8754   31.3058   48.7476 C   0  0  0  0  0  0  0  0  0  0  0  0
   37.0753   32.2617   49.6556 N   0  0  0  0  0  0  0  0  0  0  0  0
   35.8003   30.3565   48.8903 N   0  0  0  0  0  0  0  0  0  0  0  0
   34.7247   30.1973   47.9399 C   0  0  0  0  0  0  0  0  0  0  0  0
   34.0264   28.9499   48.3724 C   0  0  0  0  0  0  0  0  0  0  0  0
   34.8884   28.3114   49.4369 C   0  0  0  0  0  0  0  0  0  0  0  0
   35.6698   29.4356   50.0207 C   0  0  0  0  0  0  0  0  0  0  0  0
   38.2630   33.9136   50.2259 H   0  0  0  0  0  0  0  0  0  0  0  0
   39.3328   31.9227   46.5712 H   0  0  0  0  0  0  0  0  0  0  0  0
   34.0362   31.0591   48.0768 H   0  0  0  0  0  0  0  0  0  0  0  0
   35.0774   30.0866   46.9009 H   0  0  0  0  0  0  0  0  0  0  0  0
   33.0311   29.1685   48.7839 H   0  0  0  0  0  0  0  0  0  0  0  0
   33.9024   28.2459   47.5052 H   0  0  0  0  0  0  0  0  0  0  0  0
   35.5773   27.5955   48.9455 H   0  0  0  0  0  0  0  0  0  0  0  0
   34.2726   27.8494   50.2213 H   0  0  0  0  0  0  0  0  0  0  0  0
   35.1758   29.9272   50.8767 H   0  0  0  0  0  0  0  0  0  0  0  0
   36.7023   29.1372   50.2926 H   0  0  0  0  0  0  0  0  0  0  0  0
   40.0618   34.0022   48.1991 C   0  0  0  0  0  0  0  0  0  0  0  0
   41.2465   33.6213   47.5244 C   0  0  0  0  0  0  0  0  0  0  0  0
   41.4994   32.6227   47.0637 H   0  0  0  0  0  0  0  0  0  0  0  0
   42.2677   35.1389   47.5802 S   0  0  0  0  0  0  0  0  0  0  0  0
   40.8951   36.0522   48.5247 C   0  0  0  0  0  0  0  0  0  0  0  0
   40.8029   37.1274   48.9383 H   0  0  0  0  0  0  0  0  0  0  0  0
   40.0941   35.2640   48.6199 N   0  0  0  0  0  0  0  0  0  0  0  0
  1  6  2  0
  2  1  1  0
  3  4  1  0
  3  2  2  0
  4  5  2  0
  5  7  1  0
  5  6  1  0
  7 11  1  0
  8  9  1  0
  8  7  1  0
  9 10  1  0
 10 11  1  0
  1 12  1  0
  3 13  1  0
  8 14  1  0
  8 15  1  0
  9 16  1  0
  9 17  1  0
 10 18  1  0
 10 19  1  0
 11 20  1  0
 11 21  1  0
 22 23  2  0
 23 24  1  0
 23 25  1  0
 25 26  1  0
 26 27  1  0
 26 28  2  0
 28 22  1  0
  2 22  1  0
M  ISO  8  12  14  13  14  14  13  15  13  16  13  17  13  18  13  19  13
M  ISO  4  20  13  21  13  24  15  27  16
M  END
>  <DihAtoms>  (1) 
0,1,21,22

>  <DihDeg>  (1) 
-179.99950936189086

$$$$
