
 OpenBabel03272505333D

 38 41  0  0  0  0  0  0  0  0999 V2000
   38.0550   23.5680   34.3200 N   0  0  0  0  0  0  0  0  0  0  0  0
   38.0510   24.8240   33.7950 C   0  0  0  0  0  0  0  0  0  0  0  0
   37.4100   25.1280   32.6150 C   0  0  0  0  0  0  0  0  0  0  0  0
   36.7440   24.0780   31.9510 C   0  0  0  0  0  0  0  0  0  0  0  0
   36.1420   24.2920   30.8700 O   0  0  0  0  0  0  0  0  0  0  0  0
   36.7480   22.8070   32.4810 N   0  0  0  0  0  0  0  0  0  0  0  0
   37.4030   22.6510   33.6220 C   0  0  0  0  0  0  0  0  0  0  0  0
   37.3810   21.4810   34.0690 O   0  0  0  0  0  0  0  0  0  0  0  0
   38.5710   25.6240   34.3220 H   0  0  0  0  0  0  0  0  0  0  0  0
   38.8020   23.3020   37.9430 C   0  0  0  0  0  0  0  0  0  0  0  0
   38.1320   23.6000   36.7410 C   0  0  0  0  0  0  0  0  0  0  0  0
   38.7080   23.2790   35.5140 C   0  0  0  0  0  0  0  0  0  0  0  0
   39.9150   22.6800   35.5220 N   0  0  0  0  0  0  0  0  0  0  0  0
   40.5810   22.3840   36.6720 C   0  0  0  0  0  0  0  0  0  0  0  0
   40.0100   22.7010   37.8740 N   0  0  0  0  0  0  0  0  0  0  0  0
   38.3220   23.5680   38.8760 H   0  0  0  0  0  0  0  0  0  0  0  0
   37.1670   24.0790   36.7780 H   0  0  0  0  0  0  0  0  0  0  0  0
   41.5380   21.9090   36.6270 H   0  0  0  0  0  0  0  0  0  0  0  0
   37.3700   26.4390   32.0110 C   0  0  0  0  0  0  0  0  0  0  0  0
   38.3480   26.9490   31.2080 C   0  0  0  0  0  0  0  0  0  0  0  0
   38.3650   28.1810   30.6110 C   0  0  0  0  0  0  0  0  0  0  0  0
   37.2710   29.0050   30.8440 C   0  0  0  0  0  0  0  0  0  0  0  0
   36.2570   28.4860   31.6720 C   0  0  0  0  0  0  0  0  0  0  0  0
   36.3620   27.2740   32.1900 N   0  0  0  0  0  0  0  0  0  0  0  0
   39.2380   26.3500   30.9850 H   0  0  0  0  0  0  0  0  0  0  0  0
   39.1710   28.5310   29.9820 H   0  0  0  0  0  0  0  0  0  0  0  0
   37.2120   29.9870   30.4100 H   0  0  0  0  0  0  0  0  0  0  0  0
   35.0750   29.3400   31.9400 C   0  0  0  0  0  0  0  0  0  0  0  0
   34.9380   30.5830   31.2790 C   0  0  0  0  0  0  0  0  0  0  0  0
   35.6550   31.0560   30.5180 H   0  0  0  0  0  0  0  0  0  0  0  0
   33.3440   31.2470   31.9360 S   0  0  0  0  0  0  0  0  0  0  0  0
   33.1380   29.7010   33.0080 C   0  0  0  0  0  0  0  0  0  0  0  0
   32.3510   29.2870   33.7800 H   0  0  0  0  0  0  0  0  0  0  0  0
   34.0610   29.1190   32.7470 N   0  0  0  0  0  0  0  0  0  0  0  0
   36.0660   21.7430   31.7960 C   0  0  0  0  0  0  0  0  0  0  0  0
   35.3420   22.2160   30.7610 F   0  0  0  0  0  0  0  0  0  0  0  0
   35.1640   21.0560   32.6110 F   0  0  0  0  0  0  0  0  0  0  0  0
   37.0120   20.8510   31.2950 F   0  0  0  0  0  0  0  0  0  0  0  0
  1 12  1  0  0  0  0
  2  1  1  0  0  0  0
  2  9  1  0  0  0  0
  3  2  2  0  0  0  0
  4  6  1  0  0  0  0
  4  3  1  0  0  0  0
  5  4  2  0  0  0  0
  6  7  1  0  0  0  0
  7  8  2  0  0  0  0
  7  1  1  0  0  0  0
 10 16  1  0  0  0  0
 11 17  1  0  0  0  0
 11 10  2  0  0  0  0
 12 13  2  0  0  0  0
 12 11  1  0  0  0  0
 13 14  1  0  0  0  0
 14 15  2  0  0  0  0
 15 10  1  0  0  0  0
 18 14  1  0  0  0  0
 19 24  1  0  0  0  0
 19  3  1  0  0  0  0
 20 19  2  0  0  0  0
 21 22  2  0  0  0  0
 21 20  1  0  0  0  0
 22 23  1  0  0  0  0
 23 28  1  0  0  0  0
 23 24  2  0  0  0  0
 25 20  1  0  0  0  0
 26 21  1  0  0  0  0
 27 22  1  0  0  0  0
 28 34  1  0  0  0  0
 29 31  1  0  0  0  0
 29 28  2  0  0  0  0
 30 29  1  0  0  0  0
 31 32  1  0  0  0  0
 32 33  1  0  0  0  0
 34 32  2  0  0  0  0
 35  6  1  0  0  0  0
 35 37  1  0  0  0  0
 36 35  1  0  0  0  0
 38 35  1  0  0  0  0
M  END
>  <minimizedAffinity>
-6.34621239

$$$$

 OpenBabel03272505333D

 38 41  0  0  0  0  0  0  0  0999 V2000
   38.2670   24.2170   34.0040 N   0  0  0  0  0  0  0  0  0  0  0  0
   38.0080   25.5400   33.8070 C   0  0  0  0  0  0  0  0  0  0  0  0
   37.1090   25.9820   32.8640 C   0  0  0  0  0  0  0  0  0  0  0  0
   36.4480   25.0060   32.0900 C   0  0  0  0  0  0  0  0  0  0  0  0
   35.6170   25.3480   31.2140 O   0  0  0  0  0  0  0  0  0  0  0  0
   36.7100   23.6680   32.2890 N   0  0  0  0  0  0  0  0  0  0  0  0
   37.5980   23.3790   33.2290 C   0  0  0  0  0  0  0  0  0  0  0  0
   37.8040   22.1520   33.3760 O   0  0  0  0  0  0  0  0  0  0  0  0
   38.5280   26.2800   34.4150 H   0  0  0  0  0  0  0  0  0  0  0  0
   41.4600   23.3390   35.6750 C   0  0  0  0  0  0  0  0  0  0  0  0
   40.5460   23.7750   34.6970 C   0  0  0  0  0  0  0  0  0  0  0  0
   39.1790   23.7880   34.9620 C   0  0  0  0  0  0  0  0  0  0  0  0
   38.7690   23.3700   36.1770 N   0  0  0  0  0  0  0  0  0  0  0  0
   39.6360   22.9440   37.1370 C   0  0  0  0  0  0  0  0  0  0  0  0
   40.9770   22.9350   36.8700 N   0  0  0  0  0  0  0  0  0  0  0  0
   42.5130   23.3440   35.4290 H   0  0  0  0  0  0  0  0  0  0  0  0
   40.9150   24.1010   33.7370 H   0  0  0  0  0  0  0  0  0  0  0  0
   39.2630   22.6220   38.0870 H   0  0  0  0  0  0  0  0  0  0  0  0
   36.7930   27.3690   32.6110 C   0  0  0  0  0  0  0  0  0  0  0  0
   37.0460   28.0160   31.4380 C   0  0  0  0  0  0  0  0  0  0  0  0
   36.7710   29.3250   31.1420 C   0  0  0  0  0  0  0  0  0  0  0  0
   36.1680   30.0780   32.1420 C   0  0  0  0  0  0  0  0  0  0  0  0
   35.9030   29.4180   33.3560 C   0  0  0  0  0  0  0  0  0  0  0  0
   36.2210   28.1430   33.5150 N   0  0  0  0  0  0  0  0  0  0  0  0
   37.5200   27.4780   30.6100 H   0  0  0  0  0  0  0  0  0  0  0  0
   36.9960   29.7840   30.1910 H   0  0  0  0  0  0  0  0  0  0  0  0
   35.9210   31.1140   31.9850 H   0  0  0  0  0  0  0  0  0  0  0  0
   35.2600   30.1950   34.4430 C   0  0  0  0  0  0  0  0  0  0  0  0
   33.8540   30.1710   34.5900 C   0  0  0  0  0  0  0  0  0  0  0  0
   33.0910   29.6040   33.9480 H   0  0  0  0  0  0  0  0  0  0  0  0
   33.5540   31.2660   36.0480 S   0  0  0  0  0  0  0  0  0  0  0  0
   35.4160   31.5690   36.2070 C   0  0  0  0  0  0  0  0  0  0  0  0
   36.1310   32.1820   36.9130 H   0  0  0  0  0  0  0  0  0  0  0  0
   35.8190   30.9540   35.3600 N   0  0  0  0  0  0  0  0  0  0  0  0
   36.0310   22.6800   31.4950 C   0  0  0  0  0  0  0  0  0  0  0  0
   35.1740   23.2580   30.6280 F   0  0  0  0  0  0  0  0  0  0  0  0
   35.2670   21.7960   32.2560 F   0  0  0  0  0  0  0  0  0  0  0  0
   36.9770   21.9660   30.7620 F   0  0  0  0  0  0  0  0  0  0  0  0
  1 12  1  0  0  0  0
  2  1  1  0  0  0  0
  2  9  1  0  0  0  0
  3  2  2  0  0  0  0
  4  6  1  0  0  0  0
  4  3  1  0  0  0  0
  5  4  2  0  0  0  0
  6  7  1  0  0  0  0
  7  8  2  0  0  0  0
  7  1  1  0  0  0  0
 10 15  1  0  0  0  0
 11 12  1  0  0  0  0
 11 10  2  0  0  0  0
 12 13  2  0  0  0  0
 13 14  1  0  0  0  0
 14 18  1  0  0  0  0
 15 14  2  0  0  0  0
 16 10  1  0  0  0  0
 17 11  1  0  0  0  0
 19  3  1  0  0  0  0
 19 24  1  0  0  0  0
 20 19  2  0  0  0  0
 21 20  1  0  0  0  0
 21 22  2  0  0  0  0
 22 23  1  0  0  0  0
 23 24  2  0  0  0  0
 23 28  1  0  0  0  0
 25 20  1  0  0  0  0
 26 21  1  0  0  0  0
 27 22  1  0  0  0  0
 28 29  2  0  0  0  0
 28 34  1  0  0  0  0
 29 31  1  0  0  0  0
 30 29  1  0  0  0  0
 31 32  1  0  0  0  0
 32 33  1  0  0  0  0
 34 32  2  0  0  0  0
 35 37  1  0  0  0  0
 35  6  1  0  0  0  0
 36 35  1  0  0  0  0
 38 35  1  0  0  0  0
M  END
>  <minimizedAffinity>
-6.31241417

$$$$

 OpenBabel03272505333D

 38 41  0  0  0  0  0  0  0  0999 V2000
   38.0810   24.1940   34.4160 N   0  0  0  0  0  0  0  0  0  0  0  0
   37.7820   25.5110   34.2380 C   0  0  0  0  0  0  0  0  0  0  0  0
   37.0990   25.9690   33.1350 C   0  0  0  0  0  0  0  0  0  0  0  0
   36.7090   25.0160   32.1720 C   0  0  0  0  0  0  0  0  0  0  0  0
   36.0840   25.3730   31.1440 O   0  0  0  0  0  0  0  0  0  0  0  0
   37.0110   23.6840   32.3510 N   0  0  0  0  0  0  0  0  0  0  0  0
   37.6720   23.3780   33.4570 C   0  0  0  0  0  0  0  0  0  0  0  0
   37.9250   22.1570   33.5790 O   0  0  0  0  0  0  0  0  0  0  0  0
   38.0920   26.2340   34.9920 H   0  0  0  0  0  0  0  0  0  0  0  0
   40.8110   22.9650   36.6040 C   0  0  0  0  0  0  0  0  0  0  0  0
   40.1220   23.4150   35.4630 C   0  0  0  0  0  0  0  0  0  0  0  0
   38.7720   23.7480   35.5370 C   0  0  0  0  0  0  0  0  0  0  0  0
   38.1580   23.6250   36.7310 N   0  0  0  0  0  0  0  0  0  0  0  0
   38.8050   23.1910   37.8480 C   0  0  0  0  0  0  0  0  0  0  0  0
   40.1310   22.8660   37.7680 N   0  0  0  0  0  0  0  0  0  0  0  0
   41.8590   22.7160   36.5050 H   0  0  0  0  0  0  0  0  0  0  0  0
   40.6510   23.5000   34.5250 H   0  0  0  0  0  0  0  0  0  0  0  0
   38.2750   23.1090   38.7730 H   0  0  0  0  0  0  0  0  0  0  0  0
   36.7540   27.3510   32.8930 C   0  0  0  0  0  0  0  0  0  0  0  0
   36.1230   28.1570   33.7930 C   0  0  0  0  0  0  0  0  0  0  0  0
   35.7710   29.4700   33.6200 C   0  0  0  0  0  0  0  0  0  0  0  0
   36.0890   30.0460   32.3970 C   0  0  0  0  0  0  0  0  0  0  0  0
   36.7410   29.2210   31.4610 C   0  0  0  0  0  0  0  0  0  0  0  0
   37.0260   27.9620   31.7540 N   0  0  0  0  0  0  0  0  0  0  0  0
   35.8440   27.7640   34.7770 H   0  0  0  0  0  0  0  0  0  0  0  0
   35.2700   30.0600   34.3730 H   0  0  0  0  0  0  0  0  0  0  0  0
   35.8450   31.0720   32.1850 H   0  0  0  0  0  0  0  0  0  0  0  0
   37.0950   29.8060   30.1460 C   0  0  0  0  0  0  0  0  0  0  0  0
   36.8140   31.1660   29.8810 C   0  0  0  0  0  0  0  0  0  0  0  0
   36.3200   31.9300   30.5800 H   0  0  0  0  0  0  0  0  0  0  0  0
   37.4290   31.4050   28.1540 S   0  0  0  0  0  0  0  0  0  0  0  0
   37.9680   29.5910   28.0930 C   0  0  0  0  0  0  0  0  0  0  0  0
   38.4810   28.8720   27.3150 H   0  0  0  0  0  0  0  0  0  0  0  0
   37.6680   29.2310   29.1120 N   0  0  0  0  0  0  0  0  0  0  0  0
   36.6080   22.7200   31.3640 C   0  0  0  0  0  0  0  0  0  0  0  0
   35.4710   23.1020   30.7460 F   0  0  0  0  0  0  0  0  0  0  0  0
   36.3450   21.4600   31.9040 F   0  0  0  0  0  0  0  0  0  0  0  0
   37.6110   22.6140   30.4030 F   0  0  0  0  0  0  0  0  0  0  0  0
  1 12  1  0  0  0  0
  2  1  1  0  0  0  0
  2  9  1  0  0  0  0
  3  2  2  0  0  0  0
  4  6  1  0  0  0  0
  4  3  1  0  0  0  0
  5  4  2  0  0  0  0
  6  7  1  0  0  0  0
  7  8  2  0  0  0  0
  7  1  1  0  0  0  0
 10 15  1  0  0  0  0
 11 12  1  0  0  0  0
 11 10  2  0  0  0  0
 12 13  2  0  0  0  0
 13 14  1  0  0  0  0
 14 18  1  0  0  0  0
 15 14  2  0  0  0  0
 16 10  1  0  0  0  0
 17 11  1  0  0  0  0
 19  3  1  0  0  0  0
 19 20  1  0  0  0  0
 20 25  1  0  0  0  0
 21 20  2  0  0  0  0
 21 26  1  0  0  0  0
 22 21  1  0  0  0  0
 23 24  1  0  0  0  0
 23 22  2  0  0  0  0
 24 19  2  0  0  0  0
 27 22  1  0  0  0  0
 28 23  1  0  0  0  0
 29 28  2  0  0  0  0
 29 30  1  0  0  0  0
 31 29  1  0  0  0  0
 32 31  1  0  0  0  0
 32 34  2  0  0  0  0
 33 32  1  0  0  0  0
 34 28  1  0  0  0  0
 35 37  1  0  0  0  0
 35  6  1  0  0  0  0
 36 35  1  0  0  0  0
 38 35  1  0  0  0  0
M  END
>  <minimizedAffinity>
-6.21009684

$$$$

 OpenBabel03272505333D

 38 41  0  0  0  0  0  0  0  0999 V2000
   37.2560   23.1610   32.8700 N   0  0  0  0  0  0  0  0  0  0  0  0
   36.9250   24.4170   32.4590 C   0  0  0  0  0  0  0  0  0  0  0  0
   37.3510   25.5450   33.1210 C   0  0  0  0  0  0  0  0  0  0  0  0
   38.1580   25.3620   34.2620 C   0  0  0  0  0  0  0  0  0  0  0  0
   38.5770   26.3530   34.9080 O   0  0  0  0  0  0  0  0  0  0  0  0
   38.4940   24.0920   34.6780 N   0  0  0  0  0  0  0  0  0  0  0  0
   38.0170   23.0930   33.9510 C   0  0  0  0  0  0  0  0  0  0  0  0
   38.3470   21.9570   34.3650 O   0  0  0  0  0  0  0  0  0  0  0  0
   36.3000   24.5400   31.5750 H   0  0  0  0  0  0  0  0  0  0  0  0
   35.1540   20.3030   31.7900 C   0  0  0  0  0  0  0  0  0  0  0  0
   35.5880   21.4470   32.4860 C   0  0  0  0  0  0  0  0  0  0  0  0
   36.8170   22.0310   32.1880 C   0  0  0  0  0  0  0  0  0  0  0  0
   37.5650   21.4670   31.2190 N   0  0  0  0  0  0  0  0  0  0  0  0
   37.1640   20.3610   30.5330 C   0  0  0  0  0  0  0  0  0  0  0  0
   35.9560   19.7920   30.8300 N   0  0  0  0  0  0  0  0  0  0  0  0
   34.1930   19.8790   32.0500 H   0  0  0  0  0  0  0  0  0  0  0  0
   34.9590   21.8680   33.2550 H   0  0  0  0  0  0  0  0  0  0  0  0
   37.7930   19.9480   29.7730 H   0  0  0  0  0  0  0  0  0  0  0  0
   37.0330   26.9000   32.7320 C   0  0  0  0  0  0  0  0  0  0  0  0
   37.3630   27.4560   31.5320 C   0  0  0  0  0  0  0  0  0  0  0  0
   37.0900   28.7300   31.1100 C   0  0  0  0  0  0  0  0  0  0  0  0
   36.4010   29.5480   31.9970 C   0  0  0  0  0  0  0  0  0  0  0  0
   36.0570   28.9820   33.2390 C   0  0  0  0  0  0  0  0  0  0  0  0
   36.3820   27.7320   33.5250 N   0  0  0  0  0  0  0  0  0  0  0  0
   37.9070   26.8640   30.7880 H   0  0  0  0  0  0  0  0  0  0  0  0
   37.3780   29.1160   30.1430 H   0  0  0  0  0  0  0  0  0  0  0  0
   36.1500   30.5620   31.7380 H   0  0  0  0  0  0  0  0  0  0  0  0
   35.3210   29.8290   34.2080 C   0  0  0  0  0  0  0  0  0  0  0  0
   33.9090   29.7730   34.2640 C   0  0  0  0  0  0  0  0  0  0  0  0
   33.2060   29.1280   33.6260 H   0  0  0  0  0  0  0  0  0  0  0  0
   33.4820   30.9810   35.5960 S   0  0  0  0  0  0  0  0  0  0  0  0
   35.3200   31.3560   35.8490 C   0  0  0  0  0  0  0  0  0  0  0  0
   35.9690   32.0510   36.5430 H   0  0  0  0  0  0  0  0  0  0  0  0
   35.7960   30.6830   35.0880 N   0  0  0  0  0  0  0  0  0  0  0  0
   39.3180   23.9150   35.8430 C   0  0  0  0  0  0  0  0  0  0  0  0
   39.4660   22.6070   36.1400 F   0  0  0  0  0  0  0  0  0  0  0  0
   38.7860   24.5090   36.9870 F   0  0  0  0  0  0  0  0  0  0  0  0
   40.5800   24.4480   35.5860 F   0  0  0  0  0  0  0  0  0  0  0  0
  1  7  1  0  0  0  0
  2  1  1  0  0  0  0
  2  3  2  0  0  0  0
  3  4  1  0  0  0  0
  4  6  1  0  0  0  0
  4  5  2  0  0  0  0
  6 35  1  0  0  0  0
  7  8  2  0  0  0  0
  7  6  1  0  0  0  0
  9  2  1  0  0  0  0
 10 16  1  0  0  0  0
 10 11  1  0  0  0  0
 11 17  1  0  0  0  0
 12 11  2  0  0  0  0
 12  1  1  0  0  0  0
 13 12  1  0  0  0  0
 14 15  1  0  0  0  0
 14 13  2  0  0  0  0
 15 10  2  0  0  0  0
 18 14  1  0  0  0  0
 19  3  1  0  0  0  0
 19 24  1  0  0  0  0
 20 19  2  0  0  0  0
 21 20  1  0  0  0  0
 21 22  2  0  0  0  0
 22 23  1  0  0  0  0
 23 24  2  0  0  0  0
 23 28  1  0  0  0  0
 25 20  1  0  0  0  0
 26 21  1  0  0  0  0
 27 22  1  0  0  0  0
 28 29  2  0  0  0  0
 28 34  1  0  0  0  0
 29 31  1  0  0  0  0
 30 29  1  0  0  0  0
 31 32  1  0  0  0  0
 32 33  1  0  0  0  0
 34 32  2  0  0  0  0
 35 36  1  0  0  0  0
 35 37  1  0  0  0  0
 38 35  1  0  0  0  0
M  END
>  <minimizedAffinity>
-6.1061821

$$$$

 OpenBabel03272505333D

 38 41  0  0  0  0  0  0  0  0999 V2000
   38.3530   24.9380   33.5170 N   0  0  0  0  0  0  0  0  0  0  0  0
   38.0400   26.2620   33.4600 C   0  0  0  0  0  0  0  0  0  0  0  0
   36.9850   26.7390   32.7180 C   0  0  0  0  0  0  0  0  0  0  0  0
   36.2180   25.7970   32.0010 C   0  0  0  0  0  0  0  0  0  0  0  0
   35.2420   26.1720   31.3060 O   0  0  0  0  0  0  0  0  0  0  0  0
   36.5330   24.4580   32.0580 N   0  0  0  0  0  0  0  0  0  0  0  0
   37.5750   24.1330   32.8100 C   0  0  0  0  0  0  0  0  0  0  0  0
   37.8250   22.9060   32.8330 O   0  0  0  0  0  0  0  0  0  0  0  0
   38.6440   26.9760   34.0200 H   0  0  0  0  0  0  0  0  0  0  0  0
   40.3150   23.4490   36.2900 C   0  0  0  0  0  0  0  0  0  0  0  0
   39.2230   23.9160   35.5340 C   0  0  0  0  0  0  0  0  0  0  0  0
   39.4240   24.4730   34.2730 C   0  0  0  0  0  0  0  0  0  0  0  0
   40.6880   24.5460   33.8100 N   0  0  0  0  0  0  0  0  0  0  0  0
   41.7580   24.1010   34.5250 C   0  0  0  0  0  0  0  0  0  0  0  0
   41.5540   23.5550   35.7620 N   0  0  0  0  0  0  0  0  0  0  0  0
   40.1170   23.0240   37.2650 H   0  0  0  0  0  0  0  0  0  0  0  0
   38.2270   23.8390   35.9400 H   0  0  0  0  0  0  0  0  0  0  0  0
   42.7430   24.1810   34.1160 H   0  0  0  0  0  0  0  0  0  0  0  0
   36.6060   28.1300   32.6200 C   0  0  0  0  0  0  0  0  0  0  0  0
   36.7900   28.9030   31.5130 C   0  0  0  0  0  0  0  0  0  0  0  0
   36.4530   30.2230   31.3630 C   0  0  0  0  0  0  0  0  0  0  0  0
   35.8580   30.8440   32.4540 C   0  0  0  0  0  0  0  0  0  0  0  0
   35.6640   30.0520   33.6020 C   0  0  0  0  0  0  0  0  0  0  0  0
   36.0370   28.7830   33.6180 N   0  0  0  0  0  0  0  0  0  0  0  0
   37.2540   28.4740   30.6180 H   0  0  0  0  0  0  0  0  0  0  0  0
   36.6240   30.7860   30.4570 H   0  0  0  0  0  0  0  0  0  0  0  0
   35.5650   31.8780   32.4140 H   0  0  0  0  0  0  0  0  0  0  0  0
   35.0320   30.6860   34.7840 C   0  0  0  0  0  0  0  0  0  0  0  0
   35.7940   31.5290   35.6240 C   0  0  0  0  0  0  0  0  0  0  0  0
   36.9010   31.8110   35.5180 H   0  0  0  0  0  0  0  0  0  0  0  0
   34.5850   32.0550   36.9190 S   0  0  0  0  0  0  0  0  0  0  0  0
   33.2360   31.0240   36.0810 C   0  0  0  0  0  0  0  0  0  0  0  0
   32.0980   30.7860   36.2630 H   0  0  0  0  0  0  0  0  0  0  0  0
   33.7920   30.5880   35.2110 N   0  0  0  0  0  0  0  0  0  0  0  0
   35.7450   23.5050   31.3250 C   0  0  0  0  0  0  0  0  0  0  0  0
   34.9500   22.7930   32.1500 F   0  0  0  0  0  0  0  0  0  0  0  0
   36.5180   22.5690   30.6370 F   0  0  0  0  0  0  0  0  0  0  0  0
   34.9350   24.1920   30.4230 F   0  0  0  0  0  0  0  0  0  0  0  0
  1 12  1  0  0  0  0
  2  1  1  0  0  0  0
  2  9  1  0  0  0  0
  3  2  2  0  0  0  0
  4  6  1  0  0  0  0
  4  3  1  0  0  0  0
  5  4  2  0  0  0  0
  6  7  1  0  0  0  0
  7  8  2  0  0  0  0
  7  1  1  0  0  0  0
 10 16  1  0  0  0  0
 11 17  1  0  0  0  0
 11 10  2  0  0  0  0
 12 11  1  0  0  0  0
 13 12  2  0  0  0  0
 13 14  1  0  0  0  0
 14 15  2  0  0  0  0
 15 10  1  0  0  0  0
 18 14  1  0  0  0  0
 19  3  1  0  0  0  0
 19 24  1  0  0  0  0
 20 19  2  0  0  0  0
 21 20  1  0  0  0  0
 21 22  2  0  0  0  0
 22 23  1  0  0  0  0
 23 24  2  0  0  0  0
 23 28  1  0  0  0  0
 25 20  1  0  0  0  0
 26 21  1  0  0  0  0
 27 22  1  0  0  0  0
 28 34  1  0  0  0  0
 28 29  2  0  0  0  0
 29 31  1  0  0  0  0
 30 29  1  0  0  0  0
 32 33  1  0  0  0  0
 32 31  1  0  0  0  0
 34 32  2  0  0  0  0
 35  6  1  0  0  0  0
 35 36  1  0  0  0  0
 37 35  1  0  0  0  0
 38 35  1  0  0  0  0
M  END
>  <minimizedAffinity>
-6.07660437

$$$$

 OpenBabel03272505333D

 38 41  0  0  0  0  0  0  0  0999 V2000
   37.5310   25.1510   32.3960 N   0  0  0  0  0  0  0  0  0  0  0  0
   38.2110   24.8550   33.5390 C   0  0  0  0  0  0  0  0  0  0  0  0
   38.1720   23.6080   34.1170 C   0  0  0  0  0  0  0  0  0  0  0  0
   37.3920   22.6210   33.4800 C   0  0  0  0  0  0  0  0  0  0  0  0
   37.3170   21.4640   33.9600 O   0  0  0  0  0  0  0  0  0  0  0  0
   36.7040   22.9190   32.3240 N   0  0  0  0  0  0  0  0  0  0  0  0
   36.8270   24.1590   31.8730 C   0  0  0  0  0  0  0  0  0  0  0  0
   36.1850   24.3860   30.8220 O   0  0  0  0  0  0  0  0  0  0  0  0
   38.8090   25.6300   34.0180 H   0  0  0  0  0  0  0  0  0  0  0  0
   36.7920   28.7130   31.6710 C   0  0  0  0  0  0  0  0  0  0  0  0
   36.7320   27.4340   32.2570 C   0  0  0  0  0  0  0  0  0  0  0  0
   37.5810   26.4180   31.8250 C   0  0  0  0  0  0  0  0  0  0  0  0
   38.4520   26.7030   30.8360 N   0  0  0  0  0  0  0  0  0  0  0  0
   38.5270   27.9320   30.2550 C   0  0  0  0  0  0  0  0  0  0  0  0
   37.6910   28.9250   30.6850 N   0  0  0  0  0  0  0  0  0  0  0  0
   36.1160   29.4750   32.0350 H   0  0  0  0  0  0  0  0  0  0  0  0
   36.0200   27.2470   33.0460 H   0  0  0  0  0  0  0  0  0  0  0  0
   39.2350   28.1100   29.4730 H   0  0  0  0  0  0  0  0  0  0  0  0
   38.8720   23.2360   35.3250 C   0  0  0  0  0  0  0  0  0  0  0  0
   38.4610   23.5600   36.5850 C   0  0  0  0  0  0  0  0  0  0  0  0
   39.0820   23.2370   37.7630 C   0  0  0  0  0  0  0  0  0  0  0  0
   40.2550   22.5000   37.6700 C   0  0  0  0  0  0  0  0  0  0  0  0
   40.6850   22.1610   36.3730 C   0  0  0  0  0  0  0  0  0  0  0  0
   39.9920   22.5360   35.3110 N   0  0  0  0  0  0  0  0  0  0  0  0
   37.5440   24.1410   36.7270 H   0  0  0  0  0  0  0  0  0  0  0  0
   38.7080   23.5240   38.7350 H   0  0  0  0  0  0  0  0  0  0  0  0
   40.8000   22.2080   38.5500 H   0  0  0  0  0  0  0  0  0  0  0  0
   41.9350   21.3730   36.2400 C   0  0  0  0  0  0  0  0  0  0  0  0
   42.7440   21.5240   35.0900 C   0  0  0  0  0  0  0  0  0  0  0  0
   42.5610   22.2090   34.1880 H   0  0  0  0  0  0  0  0  0  0  0  0
   44.1460   20.3590   35.3930 S   0  0  0  0  0  0  0  0  0  0  0  0
   43.3790   19.8640   37.0520 C   0  0  0  0  0  0  0  0  0  0  0  0
   43.6410   19.1330   37.9360 H   0  0  0  0  0  0  0  0  0  0  0  0
   42.4530   20.4970   37.0710 N   0  0  0  0  0  0  0  0  0  0  0  0
   35.9110   21.9070   31.6810 C   0  0  0  0  0  0  0  0  0  0  0  0
   35.1630   22.4320   30.6890 F   0  0  0  0  0  0  0  0  0  0  0  0
   35.0140   21.2810   32.5470 F   0  0  0  0  0  0  0  0  0  0  0  0
   36.7630   20.9540   31.1260 F   0  0  0  0  0  0  0  0  0  0  0  0
  1  2  1  0  0  0  0
  2  9  1  0  0  0  0
  2  3  2  0  0  0  0
  3 19  1  0  0  0  0
  4  5  2  0  0  0  0
  4  3  1  0  0  0  0
  6  4  1  0  0  0  0
  7  6  1  0  0  0  0
  7  1  1  0  0  0  0
  8  7  2  0  0  0  0
 10 16  1  0  0  0  0
 10 11  1  0  0  0  0
 11 17  1  0  0  0  0
 12 11  2  0  0  0  0
 12  1  1  0  0  0  0
 13 12  1  0  0  0  0
 14 15  1  0  0  0  0
 14 13  2  0  0  0  0
 15 10  2  0  0  0  0
 18 14  1  0  0  0  0
 19 20  1  0  0  0  0
 20 25  1  0  0  0  0
 20 21  2  0  0  0  0
 21 26  1  0  0  0  0
 22 21  1  0  0  0  0
 22 27  1  0  0  0  0
 23 22  2  0  0  0  0
 24 19  2  0  0  0  0
 24 23  1  0  0  0  0
 28 23  1  0  0  0  0
 28 34  1  0  0  0  0
 29 31  1  0  0  0  0
 29 28  2  0  0  0  0
 30 29  1  0  0  0  0
 31 32  1  0  0  0  0
 32 34  2  0  0  0  0
 32 33  1  0  0  0  0
 35  6  1  0  0  0  0
 35 37  1  0  0  0  0
 36 35  1  0  0  0  0
 38 35  1  0  0  0  0
M  END
>  <minimizedAffinity>
-6.06837511

$$$$

 OpenBabel03272505333D

 38 41  0  0  0  0  0  0  0  0999 V2000
   38.1440   23.6350   34.1760 N   0  0  0  0  0  0  0  0  0  0  0  0
   38.0790   24.9180   33.7240 C   0  0  0  0  0  0  0  0  0  0  0  0
   37.3560   25.2710   32.6080 C   0  0  0  0  0  0  0  0  0  0  0  0
   36.6690   24.2440   31.9290 C   0  0  0  0  0  0  0  0  0  0  0  0
   35.9920   24.5030   30.9040 O   0  0  0  0  0  0  0  0  0  0  0  0
   36.7340   22.9460   32.3850 N   0  0  0  0  0  0  0  0  0  0  0  0
   37.4660   22.7430   33.4710 C   0  0  0  0  0  0  0  0  0  0  0  0
   37.4970   21.5490   33.8500 O   0  0  0  0  0  0  0  0  0  0  0  0
   38.6170   25.6990   34.2610 H   0  0  0  0  0  0  0  0  0  0  0  0
   39.1130   23.1390   37.7210 C   0  0  0  0  0  0  0  0  0  0  0  0
   38.3590   23.4860   36.5840 C   0  0  0  0  0  0  0  0  0  0  0  0
   38.8800   23.2960   35.3060 C   0  0  0  0  0  0  0  0  0  0  0  0
   40.1180   22.7740   35.2020 N   0  0  0  0  0  0  0  0  0  0  0  0
   40.8640   22.4320   36.2880 C   0  0  0  0  0  0  0  0  0  0  0  0
   40.3470   22.6200   37.5400 N   0  0  0  0  0  0  0  0  0  0  0  0
   38.6730   23.3020   38.6960 H   0  0  0  0  0  0  0  0  0  0  0  0
   37.3710   23.9010   36.7110 H   0  0  0  0  0  0  0  0  0  0  0  0
   41.8430   22.0210   36.1550 H   0  0  0  0  0  0  0  0  0  0  0  0
   37.2500   26.6130   32.0830 C   0  0  0  0  0  0  0  0  0  0  0  0
   36.5000   27.6030   32.6450 C   0  0  0  0  0  0  0  0  0  0  0  0
   36.3610   28.8890   32.1930 C   0  0  0  0  0  0  0  0  0  0  0  0
   37.0570   29.2250   31.0390 C   0  0  0  0  0  0  0  0  0  0  0  0
   37.8330   28.2080   30.4530 C   0  0  0  0  0  0  0  0  0  0  0  0
   37.8830   27.0010   30.9910 N   0  0  0  0  0  0  0  0  0  0  0  0
   35.9260   27.4030   33.5570 H   0  0  0  0  0  0  0  0  0  0  0  0
   35.7490   29.6330   32.6830 H   0  0  0  0  0  0  0  0  0  0  0  0
   36.9980   30.2150   30.6230 H   0  0  0  0  0  0  0  0  0  0  0  0
   38.5900   28.5350   29.2200 C   0  0  0  0  0  0  0  0  0  0  0  0
   38.8370   29.8860   28.8820 C   0  0  0  0  0  0  0  0  0  0  0  0
   38.5160   30.8240   29.4590 H   0  0  0  0  0  0  0  0  0  0  0  0
   39.7890   29.7670   27.3020 S   0  0  0  0  0  0  0  0  0  0  0  0
   39.6840   27.8780   27.3780 C   0  0  0  0  0  0  0  0  0  0  0  0
   40.0510   26.9690   26.7260 H   0  0  0  0  0  0  0  0  0  0  0  0
   39.1060   27.7210   28.3260 N   0  0  0  0  0  0  0  0  0  0  0  0
   36.0290   21.9050   31.6870 C   0  0  0  0  0  0  0  0  0  0  0  0
   35.2620   22.4140   30.7010 F   0  0  0  0  0  0  0  0  0  0  0  0
   35.1660   21.1810   32.5090 F   0  0  0  0  0  0  0  0  0  0  0  0
   36.9590   21.0410   31.1120 F   0  0  0  0  0  0  0  0  0  0  0  0
  1 12  1  0  0  0  0
  2  1  1  0  0  0  0
  2  9  1  0  0  0  0
  3  2  2  0  0  0  0
  4  6  1  0  0  0  0
  4  3  1  0  0  0  0
  5  4  2  0  0  0  0
  6  7  1  0  0  0  0
  7  8  2  0  0  0  0
  7  1  1  0  0  0  0
 10 16  1  0  0  0  0
 11 17  1  0  0  0  0
 11 10  2  0  0  0  0
 12 11  1  0  0  0  0
 13 12  2  0  0  0  0
 13 14  1  0  0  0  0
 14 15  2  0  0  0  0
 15 10  1  0  0  0  0
 18 14  1  0  0  0  0
 19  3  1  0  0  0  0
 19 20  1  0  0  0  0
 20 25  1  0  0  0  0
 21 20  2  0  0  0  0
 21 26  1  0  0  0  0
 22 21  1  0  0  0  0
 23 24  1  0  0  0  0
 23 22  2  0  0  0  0
 24 19  2  0  0  0  0
 27 22  1  0  0  0  0
 28 23  1  0  0  0  0
 29 28  2  0  0  0  0
 29 30  1  0  0  0  0
 31 32  1  0  0  0  0
 31 29  1  0  0  0  0
 32 34  2  0  0  0  0
 33 32  1  0  0  0  0
 34 28  1  0  0  0  0
 35  6  1  0  0  0  0
 35 37  1  0  0  0  0
 36 35  1  0  0  0  0
 38 35  1  0  0  0  0
M  END
>  <minimizedAffinity>
-6.05612087

$$$$

 OpenBabel03272505333D

 38 41  0  0  0  0  0  0  0  0999 V2000
   37.2160   22.7610   33.0730 N   0  0  0  0  0  0  0  0  0  0  0  0
   37.1330   23.9190   32.3610 C   0  0  0  0  0  0  0  0  0  0  0  0
   37.5950   25.1200   32.8510 C   0  0  0  0  0  0  0  0  0  0  0  0
   38.1690   25.1170   34.1390 C   0  0  0  0  0  0  0  0  0  0  0  0
   38.6070   26.1810   34.6390 O   0  0  0  0  0  0  0  0  0  0  0  0
   38.2530   23.9460   34.8590 N   0  0  0  0  0  0  0  0  0  0  0  0
   37.7710   22.8610   34.2710 C   0  0  0  0  0  0  0  0  0  0  0  0
   37.8680   21.8200   34.9610 O   0  0  0  0  0  0  0  0  0  0  0  0
   36.6860   23.9030   31.3680 H   0  0  0  0  0  0  0  0  0  0  0  0
   34.9280   20.0030   32.1160 C   0  0  0  0  0  0  0  0  0  0  0  0
   35.3940   21.2260   32.6360 C   0  0  0  0  0  0  0  0  0  0  0  0
   36.7450   21.5560   32.5630 C   0  0  0  0  0  0  0  0  0  0  0  0
   37.5790   20.6710   31.9810 N   0  0  0  0  0  0  0  0  0  0  0  0
   37.1500   19.4840   31.4710 C   0  0  0  0  0  0  0  0  0  0  0  0
   35.8220   19.1660   31.5460 N   0  0  0  0  0  0  0  0  0  0  0  0
   33.8720   19.7830   32.1930 H   0  0  0  0  0  0  0  0  0  0  0  0
   34.6930   21.9060   33.0950 H   0  0  0  0  0  0  0  0  0  0  0  0
   37.8500   18.8140   31.0190 H   0  0  0  0  0  0  0  0  0  0  0  0
   37.5340   26.3780   32.1430 C   0  0  0  0  0  0  0  0  0  0  0  0
   38.4880   26.8200   31.2740 C   0  0  0  0  0  0  0  0  0  0  0  0
   38.4850   28.0000   30.5780 C   0  0  0  0  0  0  0  0  0  0  0  0
   37.3950   28.8390   30.7740 C   0  0  0  0  0  0  0  0  0  0  0  0
   36.4070   28.3900   31.6690 C   0  0  0  0  0  0  0  0  0  0  0  0
   36.5300   27.2230   32.2820 N   0  0  0  0  0  0  0  0  0  0  0  0
   39.3730   26.2060   31.0760 H   0  0  0  0  0  0  0  0  0  0  0  0
   39.2720   28.2980   29.9010 H   0  0  0  0  0  0  0  0  0  0  0  0
   37.3210   29.7830   30.2630 H   0  0  0  0  0  0  0  0  0  0  0  0
   35.2300   29.2620   31.9000 C   0  0  0  0  0  0  0  0  0  0  0  0
   35.1360   30.5080   31.2390 C   0  0  0  0  0  0  0  0  0  0  0  0
   35.8860   30.9720   30.5050 H   0  0  0  0  0  0  0  0  0  0  0  0
   33.5310   31.1970   31.8430 S   0  0  0  0  0  0  0  0  0  0  0  0
   33.2640   29.6510   32.9020 C   0  0  0  0  0  0  0  0  0  0  0  0
   32.4440   29.2480   33.6450 H   0  0  0  0  0  0  0  0  0  0  0  0
   34.1850   29.0550   32.6710 N   0  0  0  0  0  0  0  0  0  0  0  0
   38.8410   23.9530   36.1710 C   0  0  0  0  0  0  0  0  0  0  0  0
   38.6100   22.7900   36.8140 F   0  0  0  0  0  0  0  0  0  0  0  0
   38.3280   24.9550   36.9960 F   0  0  0  0  0  0  0  0  0  0  0  0
   40.2190   24.1140   36.0450 F   0  0  0  0  0  0  0  0  0  0  0  0
  1  7  1  0  0  0  0
  2  3  2  0  0  0  0
  2  1  1  0  0  0  0
  3  4  1  0  0  0  0
  4  5  2  0  0  0  0
  4  6  1  0  0  0  0
  6 35  1  0  0  0  0
  7  6  1  0  0  0  0
  7  8  2  0  0  0  0
  9  2  1  0  0  0  0
 10 16  1  0  0  0  0
 10 11  1  0  0  0  0
 11 17  1  0  0  0  0
 12 11  2  0  0  0  0
 12  1  1  0  0  0  0
 13 12  1  0  0  0  0
 14 15  1  0  0  0  0
 14 13  2  0  0  0  0
 15 10  2  0  0  0  0
 18 14  1  0  0  0  0
 19 24  1  0  0  0  0
 19  3  1  0  0  0  0
 20 19  2  0  0  0  0
 21 22  2  0  0  0  0
 21 20  1  0  0  0  0
 22 23  1  0  0  0  0
 23 28  1  0  0  0  0
 23 24  2  0  0  0  0
 25 20  1  0  0  0  0
 26 21  1  0  0  0  0
 27 22  1  0  0  0  0
 28 34  1  0  0  0  0
 29 31  1  0  0  0  0
 29 28  2  0  0  0  0
 30 29  1  0  0  0  0
 31 32  1  0  0  0  0
 32 33  1  0  0  0  0
 34 32  2  0  0  0  0
 35 36  1  0  0  0  0
 35 37  1  0  0  0  0
 38 35  1  0  0  0  0
M  END
>  <minimizedAffinity>
-6.01792097

$$$$

 OpenBabel03272505333D

 38 41  0  0  0  0  0  0  0  0999 V2000
   37.1500   24.4350   32.6210 N   0  0  0  0  0  0  0  0  0  0  0  0
   36.6850   25.5930   32.0760 C   0  0  0  0  0  0  0  0  0  0  0  0
   36.7360   26.7950   32.7450 C   0  0  0  0  0  0  0  0  0  0  0  0
   37.2950   26.7930   34.0390 C   0  0  0  0  0  0  0  0  0  0  0  0
   37.3690   27.8590   34.6990 O   0  0  0  0  0  0  0  0  0  0  0  0
   37.7660   25.6220   34.5910 N   0  0  0  0  0  0  0  0  0  0  0  0
   37.6560   24.5360   33.8400 C   0  0  0  0  0  0  0  0  0  0  0  0
   38.0970   23.4950   34.3810 O   0  0  0  0  0  0  0  0  0  0  0  0
   36.2550   25.5760   31.0750 H   0  0  0  0  0  0  0  0  0  0  0  0
   35.8560   21.2840   31.1530 C   0  0  0  0  0  0  0  0  0  0  0  0
   35.9040   22.5040   31.8550 C   0  0  0  0  0  0  0  0  0  0  0  0
   37.0910   23.2290   31.9310 C   0  0  0  0  0  0  0  0  0  0  0  0
   38.1780   22.7250   31.3140 N   0  0  0  0  0  0  0  0  0  0  0  0
   38.1540   21.5480   30.6300 C   0  0  0  0  0  0  0  0  0  0  0  0
   36.9860   20.8410   30.5590 N   0  0  0  0  0  0  0  0  0  0  0  0
   34.9160   20.7510   31.1170 H   0  0  0  0  0  0  0  0  0  0  0  0
   35.0110   22.8730   32.3350 H   0  0  0  0  0  0  0  0  0  0  0  0
   39.0430   21.1880   30.1570 H   0  0  0  0  0  0  0  0  0  0  0  0
   36.2600   28.0530   32.2190 C   0  0  0  0  0  0  0  0  0  0  0  0
   36.9390   28.8180   31.3170 C   0  0  0  0  0  0  0  0  0  0  0  0
   36.5390   30.0160   30.7850 C   0  0  0  0  0  0  0  0  0  0  0  0
   35.3110   30.5080   31.2070 C   0  0  0  0  0  0  0  0  0  0  0  0
   34.6040   29.7250   32.1380 C   0  0  0  0  0  0  0  0  0  0  0  0
   35.1030   28.5800   32.5760 N   0  0  0  0  0  0  0  0  0  0  0  0
   37.9140   28.4860   30.9450 H   0  0  0  0  0  0  0  0  0  0  0  0
   37.1230   30.5790   30.0710 H   0  0  0  0  0  0  0  0  0  0  0  0
   34.9290   31.4430   30.8350 H   0  0  0  0  0  0  0  0  0  0  0  0
   33.2880   30.2220   32.6080 C   0  0  0  0  0  0  0  0  0  0  0  0
   32.2610   29.3050   32.9300 C   0  0  0  0  0  0  0  0  0  0  0  0
   32.3010   28.1600   32.8760 H   0  0  0  0  0  0  0  0  0  0  0  0
   30.8600   30.3920   33.4510 S   0  0  0  0  0  0  0  0  0  0  0  0
   31.9280   31.9230   33.1370 C   0  0  0  0  0  0  0  0  0  0  0  0
   31.8030   33.0910   33.2210 H   0  0  0  0  0  0  0  0  0  0  0  0
   32.8890   31.4620   32.7900 N   0  0  0  0  0  0  0  0  0  0  0  0
   38.3360   25.6310   35.9110 C   0  0  0  0  0  0  0  0  0  0  0  0
   37.6330   24.8410   36.7490 F   0  0  0  0  0  0  0  0  0  0  0  0
   38.3440   26.8970   36.4960 F   0  0  0  0  0  0  0  0  0  0  0  0
   39.6390   25.1420   35.8410 F   0  0  0  0  0  0  0  0  0  0  0  0
  1  7  1  0  0  0  0
  2  1  1  0  0  0  0
  2  3  2  0  0  0  0
  3  4  1  0  0  0  0
  4  6  1  0  0  0  0
  4  5  2  0  0  0  0
  6 35  1  0  0  0  0
  7  8  2  0  0  0  0
  7  6  1  0  0  0  0
  9  2  1  0  0  0  0
 10 11  1  0  0  0  0
 11 12  2  0  0  0  0
 11 17  1  0  0  0  0
 12  1  1  0  0  0  0
 13 12  1  0  0  0  0
 14 13  2  0  0  0  0
 15 14  1  0  0  0  0
 15 10  2  0  0  0  0
 16 10  1  0  0  0  0
 18 14  1  0  0  0  0
 19 24  1  0  0  0  0
 19  3  1  0  0  0  0
 20 19  2  0  0  0  0
 21 22  2  0  0  0  0
 21 20  1  0  0  0  0
 22 23  1  0  0  0  0
 23 24  2  0  0  0  0
 23 28  1  0  0  0  0
 25 20  1  0  0  0  0
 26 21  1  0  0  0  0
 27 22  1  0  0  0  0
 28 34  1  0  0  0  0
 28 29  2  0  0  0  0
 29 31  1  0  0  0  0
 30 29  1  0  0  0  0
 32 33  1  0  0  0  0
 32 31  1  0  0  0  0
 34 32  2  0  0  0  0
 35 37  1  0  0  0  0
 35 36  1  0  0  0  0
 38 35  1  0  0  0  0
M  END
>  <minimizedAffinity>
-5.9585638

$$$$
