
 OpenBabel03272510203D

 34 37  0  0  0  0  0  0  0  0999 V2000
   37.4720   29.1790   50.8280 Br  0  0  0  0  0  0  0  0  0  0  0  0
   36.0490   29.2940   49.5680 C   0  0  0  0  0  0  0  0  0  0  0  0
   36.0230   30.3020   48.6110 C   0  0  0  0  0  0  0  0  0  0  0  0
   34.9640   30.3190   47.7380 C   0  0  0  0  0  0  0  0  0  0  0  0
   33.9350   29.3960   47.7610 C   0  0  0  0  0  0  0  0  0  0  0  0
   33.9940   28.4130   48.7230 C   0  0  0  0  0  0  0  0  0  0  0  0
   35.0440   28.3710   49.6130 C   0  0  0  0  0  0  0  0  0  0  0  0
   34.9000   31.0830   46.9770 H   0  0  0  0  0  0  0  0  0  0  0  0
   33.2190   27.6560   48.7980 H   0  0  0  0  0  0  0  0  0  0  0  0
   35.0530   27.5790   50.3560 H   0  0  0  0  0  0  0  0  0  0  0  0
   38.0450   33.2070   49.4690 C   0  0  0  0  0  0  0  0  0  0  0  0
   39.0610   33.2010   48.4790 C   0  0  0  0  0  0  0  0  0  0  0  0
   39.0320   32.2000   47.5340 C   0  0  0  0  0  0  0  0  0  0  0  0
   38.0390   31.2720   47.5990 N   0  0  0  0  0  0  0  0  0  0  0  0
   37.0790   31.2920   48.5480 C   0  0  0  0  0  0  0  0  0  0  0  0
   37.0950   32.2700   49.4800 N   0  0  0  0  0  0  0  0  0  0  0  0
   38.1290   34.0210   50.1770 H   0  0  0  0  0  0  0  0  0  0  0  0
   39.8620   33.9100   48.3890 H   0  0  0  0  0  0  0  0  0  0  0  0
   39.7000   32.0270   46.7220 H   0  0  0  0  0  0  0  0  0  0  0  0
   32.8210   29.4140   46.8420 C   0  0  0  0  0  0  0  0  0  0  0  0
   31.9120   28.3820   46.6820 C   0  0  0  0  0  0  0  0  0  0  0  0
   30.8550   28.4260   45.7950 C   0  0  0  0  0  0  0  0  0  0  0  0
   30.6940   29.5300   45.0430 N   0  0  0  0  0  0  0  0  0  0  0  0
   31.5650   30.5400   45.1830 C   0  0  0  0  0  0  0  0  0  0  0  0
   32.5870   30.4710   46.0560 N   0  0  0  0  0  0  0  0  0  0  0  0
   32.0480   27.4850   47.3000 H   0  0  0  0  0  0  0  0  0  0  0  0
   30.2120   27.5660   45.7550 H   0  0  0  0  0  0  0  0  0  0  0  0
   31.2960   31.6880   44.3150 C   0  0  0  0  0  0  0  0  0  0  0  0
   31.6130   31.3350   42.9390 C   0  0  0  0  0  0  0  0  0  0  0  0
   31.9870   30.4700   42.3910 H   0  0  0  0  0  0  0  0  0  0  0  0
   31.2050   32.9190   41.9920 S   0  0  0  0  0  0  0  0  0  0  0  0
   30.6920   33.7320   43.6340 C   0  0  0  0  0  0  0  0  0  0  0  0
   30.2730   34.7360   44.1630 H   0  0  0  0  0  0  0  0  0  0  0  0
   30.8590   32.9280   44.3970 N   0  0  0  0  0  0  0  0  0  0  0  0
  2  7  1  0  0  0  0
  2  1  1  0  0  0  0
  3  2  2  0  0  0  0
  4  5  2  0  0  0  0
  4  3  1  0  0  0  0
  5  6  1  0  0  0  0
  6  9  1  0  0  0  0
  6  7  2  0  0  0  0
  7 10  1  0  0  0  0
  8  4  1  0  0  0  0
 11 16  1  0  0  0  0
 11 17  1  0  0  0  0
 12 11  2  0  0  0  0
 13 14  2  0  0  0  0
 13 12  1  0  0  0  0
 14 15  1  0  0  0  0
 15  3  1  0  0  0  0
 15 16  2  0  0  0  0
 18 12  1  0  0  0  0
 19 13  1  0  0  0  0
 20  5  1  0  0  0  0
 21 20  1  0  0  0  0
 21 26  1  0  0  0  0
 22 21  2  0  0  0  0
 23 24  2  0  0  0  0
 23 22  1  0  0  0  0
 24 25  1  0  0  0  0
 25 20  2  0  0  0  0
 27 22  1  0  0  0  0
 28 34  1  0  0  0  0
 28 24  1  0  0  0  0
 29 28  2  0  0  0  0
 30 29  1  0  0  0  0
 31 29  1  0  0  0  0
 31 32  1  0  0  0  0
 32 33  1  0  0  0  0
 32 34  2  0  0  0  0
M  END
>  <minimizedAffinity>
-6.21607733

>  <minimizedRMSD>
0.40801993

$$$$
