
 OpenBabel03272508503D

 38 42  0  0  0  0  0  0  0  0999 V2000
   37.1500   27.7960   32.4410 C   0  0  0  0  0  0  0  0  0  0  0  0
   36.4180   28.2860   31.3780 C   0  0  0  0  0  0  0  0  0  0  0  0
   35.4840   29.1250   31.9750 C   0  0  0  0  0  0  0  0  0  0  0  0
   35.6790   29.1120   33.3310 C   0  0  0  0  0  0  0  0  0  0  0  0
   36.6880   28.3020   33.5750 O   0  0  0  0  0  0  0  0  0  0  0  0
   36.5290   28.0780   30.3260 H   0  0  0  0  0  0  0  0  0  0  0  0
   34.7420   29.6780   31.4090 H   0  0  0  0  0  0  0  0  0  0  0  0
   33.5770   29.5530   34.5290 C   0  0  0  0  0  0  0  0  0  0  0  0
   34.9240   29.8480   34.3440 C   0  0  0  0  0  0  0  0  0  0  0  0
   35.5700   30.8180   35.0900 C   0  0  0  0  0  0  0  0  0  0  0  0
   34.8710   31.5290   36.0570 C   0  0  0  0  0  0  0  0  0  0  0  0
   35.1990   32.5050   36.9240 N   0  0  0  0  0  0  0  0  0  0  0  0
   34.0950   32.8000   37.6170 N   0  0  0  0  0  0  0  0  0  0  0  0
   33.0690   32.0260   37.2040 C   0  0  0  0  0  0  0  0  0  0  0  0
   33.5360   31.1970   36.2010 C   0  0  0  0  0  0  0  0  0  0  0  0
   32.8440   30.2490   35.4930 C   0  0  0  0  0  0  0  0  0  0  0  0
   33.1200   28.7880   33.9210 H   0  0  0  0  0  0  0  0  0  0  0  0
   36.6240   31.0400   34.9350 H   0  0  0  0  0  0  0  0  0  0  0  0
   36.1530   32.9500   37.0290 H   0  0  0  0  0  0  0  0  0  0  0  0
   32.0510   32.0600   37.6020 H   0  0  0  0  0  0  0  0  0  0  0  0
   31.8050   30.0460   35.6620 H   0  0  0  0  0  0  0  0  0  0  0  0
   38.2560   26.8660   32.3310 C   0  0  0  0  0  0  0  0  0  0  0  0
   39.3060   27.2520   31.7660 O   0  0  0  0  0  0  0  0  0  0  0  0
   37.6720   23.2680   32.4920 C   0  0  0  0  0  0  0  0  0  0  0  0
   37.9080   22.9780   33.8200 C   0  0  0  0  0  0  0  0  0  0  0  0
   38.2720   23.9890   34.7020 C   0  0  0  0  0  0  0  0  0  0  0  0
   38.3690   25.2240   34.1660 N   0  0  0  0  0  0  0  0  0  0  0  0
   38.1390   25.5100   32.8690 C   0  0  0  0  0  0  0  0  0  0  0  0
   37.7900   24.5140   32.0490 N   0  0  0  0  0  0  0  0  0  0  0  0
   37.3910   22.4990   31.7990 H   0  0  0  0  0  0  0  0  0  0  0  0
   37.8030   21.9570   34.1500 H   0  0  0  0  0  0  0  0  0  0  0  0
   38.5290   23.7040   36.1260 C   0  0  0  0  0  0  0  0  0  0  0  0
   37.6930   24.0760   37.0970 C   0  0  0  0  0  0  0  0  0  0  0  0
   36.6180   24.6870   37.0080 H   0  0  0  0  0  0  0  0  0  0  0  0
   38.4950   23.4710   38.6630 S   0  0  0  0  0  0  0  0  0  0  0  0
   39.9230   22.7750   37.6190 C   0  0  0  0  0  0  0  0  0  0  0  0
   40.7740   22.2550   38.0480 H   0  0  0  0  0  0  0  0  0  0  0  0
   39.5610   23.0780   36.6070 N   0  0  0  0  0  0  0  0  0  0  0  0
  1  5  1  0  0  0  0
  2  3  1  0  0  0  0
  2  1  2  0  0  0  0
  3  4  2  0  0  0  0
  4  5  1  0  0  0  0
  4  9  1  0  0  0  0
  6  2  1  0  0  0  0
  7  3  1  0  0  0  0
  8 16  1  0  0  0  0
  9  8  2  0  0  0  0
  9 10  1  0  0  0  0
 10 11  2  0  0  0  0
 11 15  1  0  0  0  0
 11 12  1  0  0  0  0
 12 19  1  0  0  0  0
 12 13  1  0  0  0  0
 14 20  1  0  0  0  0
 14 13  2  0  0  0  0
 15 14  1  0  0  0  0
 16 21  1  0  0  0  0
 16 15  2  0  0  0  0
 17  8  1  0  0  0  0
 18 10  1  0  0  0  0
 22  1  1  0  0  0  0
 22 28  1  0  0  0  0
 23 22  2  0  0  0  0
 24 25  1  0  0  0  0
 25 31  1  0  0  0  0
 25 26  2  0  0  0  0
 26 32  1  0  0  0  0
 27 26  1  0  0  0  0
 28 27  2  0  0  0  0
 29 24  2  0  0  0  0
 29 28  1  0  0  0  0
 30 24  1  0  0  0  0
 32 38  1  0  0  0  0
 32 33  2  0  0  0  0
 33 35  1  0  0  0  0
 34 33  1  0  0  0  0
 36 37  1  0  0  0  0
 36 35  1  0  0  0  0
 38 36  2  0  0  0  0
M  END
>  <minimizedAffinity>
-6.3471694

$$$$

 OpenBabel03272508503D

 38 42  0  0  0  0  0  0  0  0999 V2000
   37.0810   27.7210   32.4430 C   0  0  0  0  0  0  0  0  0  0  0  0
   36.2130   28.1390   31.4550 C   0  0  0  0  0  0  0  0  0  0  0  0
   35.3770   29.0390   32.1050 C   0  0  0  0  0  0  0  0  0  0  0  0
   35.7570   29.1300   33.4170 C   0  0  0  0  0  0  0  0  0  0  0  0
   36.7840   28.3230   33.5850 O   0  0  0  0  0  0  0  0  0  0  0  0
   36.1760   27.8480   30.4170 H   0  0  0  0  0  0  0  0  0  0  0  0
   34.5680   29.5600   31.6030 H   0  0  0  0  0  0  0  0  0  0  0  0
   35.9690   30.8030   35.2070 C   0  0  0  0  0  0  0  0  0  0  0  0
   35.1540   29.9570   34.4620 C   0  0  0  0  0  0  0  0  0  0  0  0
   33.7900   29.8750   34.6810 C   0  0  0  0  0  0  0  0  0  0  0  0
   33.1980   30.6520   35.6680 C   0  0  0  0  0  0  0  0  0  0  0  0
   31.9370   30.8000   36.1150 N   0  0  0  0  0  0  0  0  0  0  0  0
   31.9750   31.7040   37.0990 N   0  0  0  0  0  0  0  0  0  0  0  0
   33.2410   32.1330   37.2850 C   0  0  0  0  0  0  0  0  0  0  0  0
   34.0520   31.4760   36.3790 C   0  0  0  0  0  0  0  0  0  0  0  0
   35.4070   31.5980   36.2080 C   0  0  0  0  0  0  0  0  0  0  0  0
   37.0270   30.8300   34.9970 H   0  0  0  0  0  0  0  0  0  0  0  0
   33.1630   29.2090   34.0920 H   0  0  0  0  0  0  0  0  0  0  0  0
   31.0830   30.2920   35.7510 H   0  0  0  0  0  0  0  0  0  0  0  0
   33.5550   32.8730   38.0260 H   0  0  0  0  0  0  0  0  0  0  0  0
   36.0060   32.2620   36.8000 H   0  0  0  0  0  0  0  0  0  0  0  0
   38.1550   26.7660   32.2570 C   0  0  0  0  0  0  0  0  0  0  0  0
   39.1630   27.1210   31.6040 O   0  0  0  0  0  0  0  0  0  0  0  0
   37.5930   23.1690   32.4960 C   0  0  0  0  0  0  0  0  0  0  0  0
   37.8500   22.9050   33.8260 C   0  0  0  0  0  0  0  0  0  0  0  0
   38.2220   23.9350   34.6830 C   0  0  0  0  0  0  0  0  0  0  0  0
   38.3040   25.1590   34.1210 N   0  0  0  0  0  0  0  0  0  0  0  0
   38.0530   25.4200   32.8230 C   0  0  0  0  0  0  0  0  0  0  0  0
   37.6980   24.4060   32.0270 N   0  0  0  0  0  0  0  0  0  0  0  0
   37.3050   22.3850   31.8230 H   0  0  0  0  0  0  0  0  0  0  0  0
   37.7550   21.8900   34.1770 H   0  0  0  0  0  0  0  0  0  0  0  0
   38.5010   23.6790   36.1070 C   0  0  0  0  0  0  0  0  0  0  0  0
   37.6940   24.0920   37.0860 C   0  0  0  0  0  0  0  0  0  0  0  0
   36.6300   24.7220   37.0030 H   0  0  0  0  0  0  0  0  0  0  0  0
   38.5150   23.5070   38.6500 S   0  0  0  0  0  0  0  0  0  0  0  0
   39.9060   22.7570   37.5950 C   0  0  0  0  0  0  0  0  0  0  0  0
   40.7540   22.2300   38.0190 H   0  0  0  0  0  0  0  0  0  0  0  0
   39.5300   23.0430   36.5830 N   0  0  0  0  0  0  0  0  0  0  0  0
  1  5  1  0  0  0  0
  2  3  1  0  0  0  0
  2  1  2  0  0  0  0
  3  4  2  0  0  0  0
  4  5  1  0  0  0  0
  4  9  1  0  0  0  0
  6  2  1  0  0  0  0
  7  3  1  0  0  0  0
  8 16  1  0  0  0  0
  9 10  1  0  0  0  0
  9  8  2  0  0  0  0
 10 11  2  0  0  0  0
 11 12  1  0  0  0  0
 11 15  1  0  0  0  0
 12 13  1  0  0  0  0
 13 14  2  0  0  0  0
 14 20  1  0  0  0  0
 15 14  1  0  0  0  0
 16 15  2  0  0  0  0
 16 21  1  0  0  0  0
 17  8  1  0  0  0  0
 18 10  1  0  0  0  0
 19 12  1  0  0  0  0
 22  1  1  0  0  0  0
 22 28  1  0  0  0  0
 23 22  2  0  0  0  0
 24 25  1  0  0  0  0
 25 31  1  0  0  0  0
 25 26  2  0  0  0  0
 26 32  1  0  0  0  0
 27 26  1  0  0  0  0
 28 27  2  0  0  0  0
 29 24  2  0  0  0  0
 29 28  1  0  0  0  0
 30 24  1  0  0  0  0
 32 38  1  0  0  0  0
 32 33  2  0  0  0  0
 33 35  1  0  0  0  0
 34 33  1  0  0  0  0
 36 37  1  0  0  0  0
 36 35  1  0  0  0  0
 38 36  2  0  0  0  0
M  END
>  <minimizedAffinity>
-6.30247593

$$$$

 OpenBabel03272508503D

 38 42  0  0  0  0  0  0  0  0999 V2000
   37.0610   28.0980   31.9250 C   0  0  0  0  0  0  0  0  0  0  0  0
   36.4190   28.8070   30.9300 C   0  0  0  0  0  0  0  0  0  0  0  0
   35.5180   29.6090   31.6210 C   0  0  0  0  0  0  0  0  0  0  0  0
   35.6440   29.3630   32.9630 C   0  0  0  0  0  0  0  0  0  0  0  0
   36.5800   28.4490   33.1080 O   0  0  0  0  0  0  0  0  0  0  0  0
   36.5670   28.7640   29.8630 H   0  0  0  0  0  0  0  0  0  0  0  0
   34.8460   30.3020   31.1260 H   0  0  0  0  0  0  0  0  0  0  0  0
   33.5490   29.6630   34.2150 C   0  0  0  0  0  0  0  0  0  0  0  0
   34.8930   29.9830   34.0540 C   0  0  0  0  0  0  0  0  0  0  0  0
   35.5400   30.8700   34.8960 C   0  0  0  0  0  0  0  0  0  0  0  0
   34.8450   31.4700   35.9380 C   0  0  0  0  0  0  0  0  0  0  0  0
   35.1760   32.3490   36.9030 N   0  0  0  0  0  0  0  0  0  0  0  0
   34.0750   32.5630   37.6300 N   0  0  0  0  0  0  0  0  0  0  0  0
   33.0490   31.8330   37.1430 C   0  0  0  0  0  0  0  0  0  0  0  0
   33.5130   31.1180   36.0540 C   0  0  0  0  0  0  0  0  0  0  0  0
   32.8200   30.2490   35.2520 C   0  0  0  0  0  0  0  0  0  0  0  0
   33.0900   28.9660   33.5310 H   0  0  0  0  0  0  0  0  0  0  0  0
   36.5920   31.1120   34.7590 H   0  0  0  0  0  0  0  0  0  0  0  0
   36.1290   32.7840   37.0490 H   0  0  0  0  0  0  0  0  0  0  0  0
   32.0340   31.8190   37.5500 H   0  0  0  0  0  0  0  0  0  0  0  0
   31.7820   30.0250   35.4050 H   0  0  0  0  0  0  0  0  0  0  0  0
   38.1030   27.1150   31.7050 C   0  0  0  0  0  0  0  0  0  0  0  0
   38.1880   26.5760   30.5770 O   0  0  0  0  0  0  0  0  0  0  0  0
   41.1360   27.0070   33.7310 C   0  0  0  0  0  0  0  0  0  0  0  0
   40.7890   26.1550   34.7590 C   0  0  0  0  0  0  0  0  0  0  0  0
   39.5190   25.5900   34.7990 C   0  0  0  0  0  0  0  0  0  0  0  0
   38.6950   25.9360   33.7880 N   0  0  0  0  0  0  0  0  0  0  0  0
   39.0310   26.7680   32.7830 C   0  0  0  0  0  0  0  0  0  0  0  0
   40.2610   27.2930   32.7750 N   0  0  0  0  0  0  0  0  0  0  0  0
   42.1120   27.4510   33.6860 H   0  0  0  0  0  0  0  0  0  0  0  0
   41.5220   25.9410   35.5200 H   0  0  0  0  0  0  0  0  0  0  0  0
   39.1240   24.6760   35.8860 C   0  0  0  0  0  0  0  0  0  0  0  0
   38.0320   24.8680   36.6280 C   0  0  0  0  0  0  0  0  0  0  0  0
   37.1960   25.7800   36.5610 H   0  0  0  0  0  0  0  0  0  0  0  0
   38.0210   23.4420   37.8230 S   0  0  0  0  0  0  0  0  0  0  0  0
   39.6250   22.8080   37.0250 C   0  0  0  0  0  0  0  0  0  0  0  0
   40.1350   21.9070   37.3520 H   0  0  0  0  0  0  0  0  0  0  0  0
   39.7600   23.6030   36.2520 N   0  0  0  0  0  0  0  0  0  0  0  0
  1  5  1  0  0  0  0
  2  3  1  0  0  0  0
  2  1  2  0  0  0  0
  3  4  2  0  0  0  0
  4  5  1  0  0  0  0
  4  9  1  0  0  0  0
  6  2  1  0  0  0  0
  7  3  1  0  0  0  0
  8 16  1  0  0  0  0
  9  8  2  0  0  0  0
  9 10  1  0  0  0  0
 10 11  2  0  0  0  0
 11 15  1  0  0  0  0
 11 12  1  0  0  0  0
 12 19  1  0  0  0  0
 12 13  1  0  0  0  0
 14 20  1  0  0  0  0
 14 13  2  0  0  0  0
 15 14  1  0  0  0  0
 16 21  1  0  0  0  0
 16 15  2  0  0  0  0
 17  8  1  0  0  0  0
 18 10  1  0  0  0  0
 22  1  1  0  0  0  0
 22 28  1  0  0  0  0
 23 22  2  0  0  0  0
 24 25  1  0  0  0  0
 25 26  2  0  0  0  0
 25 31  1  0  0  0  0
 26 32  1  0  0  0  0
 27 26  1  0  0  0  0
 28 27  2  0  0  0  0
 29 28  1  0  0  0  0
 29 24  2  0  0  0  0
 30 24  1  0  0  0  0
 32 38  1  0  0  0  0
 32 33  2  0  0  0  0
 33 35  1  0  0  0  0
 34 33  1  0  0  0  0
 36 37  1  0  0  0  0
 36 35  1  0  0  0  0
 38 36  2  0  0  0  0
M  END
>  <minimizedAffinity>
-6.29606438

$$$$

 OpenBabel03272508503D

 38 42  0  0  0  0  0  0  0  0999 V2000
   36.5430   25.9130   32.1360 C   0  0  0  0  0  0  0  0  0  0  0  0
   35.4900   26.0350   31.2530 C   0  0  0  0  0  0  0  0  0  0  0  0
   35.1520   24.7210   30.9520 C   0  0  0  0  0  0  0  0  0  0  0  0
   35.9850   23.8800   31.6420 C   0  0  0  0  0  0  0  0  0  0  0  0
   36.8090   24.6320   32.3430 O   0  0  0  0  0  0  0  0  0  0  0  0
   35.0250   26.9310   30.8720 H   0  0  0  0  0  0  0  0  0  0  0  0
   34.3480   24.4590   30.2730 H   0  0  0  0  0  0  0  0  0  0  0  0
   34.9970   21.7340   32.3240 C   0  0  0  0  0  0  0  0  0  0  0  0
   35.9860   22.4180   31.6240 C   0  0  0  0  0  0  0  0  0  0  0  0
   36.9700   21.7550   30.9110 C   0  0  0  0  0  0  0  0  0  0  0  0
   36.9880   20.3670   30.8810 C   0  0  0  0  0  0  0  0  0  0  0  0
   37.7850   19.4510   30.2980 N   0  0  0  0  0  0  0  0  0  0  0  0
   37.3050   18.2490   30.6280 N   0  0  0  0  0  0  0  0  0  0  0  0
   36.2140   18.3850   31.4120 C   0  0  0  0  0  0  0  0  0  0  0  0
   35.9840   19.7360   31.5930 C   0  0  0  0  0  0  0  0  0  0  0  0
   34.9870   20.3380   32.3150 C   0  0  0  0  0  0  0  0  0  0  0  0
   34.2530   22.2970   32.8650 H   0  0  0  0  0  0  0  0  0  0  0  0
   37.7380   22.3020   30.3670 H   0  0  0  0  0  0  0  0  0  0  0  0
   38.6310   19.6550   29.6950 H   0  0  0  0  0  0  0  0  0  0  0  0
   35.6250   17.5610   31.8240 H   0  0  0  0  0  0  0  0  0  0  0  0
   34.2390   19.7790   32.8440 H   0  0  0  0  0  0  0  0  0  0  0  0
   37.2510   27.0210   32.7440 C   0  0  0  0  0  0  0  0  0  0  0  0
   38.3620   26.7990   33.2790 O   0  0  0  0  0  0  0  0  0  0  0  0
   36.3020   30.3430   31.5710 C   0  0  0  0  0  0  0  0  0  0  0  0
   35.6190   30.8670   32.6500 C   0  0  0  0  0  0  0  0  0  0  0  0
   35.4570   30.1130   33.8070 C   0  0  0  0  0  0  0  0  0  0  0  0
   36.0050   28.8800   33.7800 N   0  0  0  0  0  0  0  0  0  0  0  0
   36.6720   28.3660   32.7290 C   0  0  0  0  0  0  0  0  0  0  0  0
   36.8090   29.1180   31.6320 N   0  0  0  0  0  0  0  0  0  0  0  0
   36.4340   30.9130   30.6710 H   0  0  0  0  0  0  0  0  0  0  0  0
   35.2190   31.8650   32.5700 H   0  0  0  0  0  0  0  0  0  0  0  0
   34.7320   30.6500   34.9720 C   0  0  0  0  0  0  0  0  0  0  0  0
   33.4470   30.3820   35.2080 C   0  0  0  0  0  0  0  0  0  0  0  0
   32.6640   29.6820   34.5490 H   0  0  0  0  0  0  0  0  0  0  0  0
   33.0560   31.2980   36.7790 S   0  0  0  0  0  0  0  0  0  0  0  0
   34.8520   31.9200   36.8190 C   0  0  0  0  0  0  0  0  0  0  0  0
   35.2390   32.5680   37.5990 H   0  0  0  0  0  0  0  0  0  0  0  0
   35.2270   31.4260   35.8910 N   0  0  0  0  0  0  0  0  0  0  0  0
  1  5  1  0  0  0  0
  1 22  1  0  0  0  0
  2  1  2  0  0  0  0
  3  2  1  0  0  0  0
  3  4  2  0  0  0  0
  4  5  1  0  0  0  0
  6  2  1  0  0  0  0
  7  3  1  0  0  0  0
  8 17  1  0  0  0  0
  9  4  1  0  0  0  0
  9  8  2  0  0  0  0
 10  9  1  0  0  0  0
 11 10  2  0  0  0  0
 11 15  1  0  0  0  0
 12 13  1  0  0  0  0
 12 11  1  0  0  0  0
 13 14  2  0  0  0  0
 14 15  1  0  0  0  0
 14 20  1  0  0  0  0
 15 16  2  0  0  0  0
 16  8  1  0  0  0  0
 16 21  1  0  0  0  0
 18 10  1  0  0  0  0
 19 12  1  0  0  0  0
 22 23  2  0  0  0  0
 24 29  2  0  0  0  0
 24 25  1  0  0  0  0
 25 26  2  0  0  0  0
 26 32  1  0  0  0  0
 27 26  1  0  0  0  0
 28 22  1  0  0  0  0
 28 27  2  0  0  0  0
 29 28  1  0  0  0  0
 30 24  1  0  0  0  0
 31 25  1  0  0  0  0
 32 33  2  0  0  0  0
 32 38  1  0  0  0  0
 33 35  1  0  0  0  0
 34 33  1  0  0  0  0
 35 36  1  0  0  0  0
 36 37  1  0  0  0  0
 38 36  2  0  0  0  0
M  END
>  <minimizedAffinity>
-6.2729578

$$$$

 OpenBabel03272508503D

 38 42  0  0  0  0  0  0  0  0999 V2000
   36.8390   27.4860   33.1720 C   0  0  0  0  0  0  0  0  0  0  0  0
   36.6220   28.2550   32.0480 C   0  0  0  0  0  0  0  0  0  0  0  0
   35.9590   29.3760   32.5330 C   0  0  0  0  0  0  0  0  0  0  0  0
   35.8050   29.2470   33.8880 C   0  0  0  0  0  0  0  0  0  0  0  0
   36.3450   28.0990   34.2380 O   0  0  0  0  0  0  0  0  0  0  0  0
   36.8940   28.0520   31.0240 H   0  0  0  0  0  0  0  0  0  0  0  0
   35.6380   30.1930   31.8960 H   0  0  0  0  0  0  0  0  0  0  0  0
   35.9610   31.0400   35.5640 C   0  0  0  0  0  0  0  0  0  0  0  0
   35.1640   30.1920   34.8030 C   0  0  0  0  0  0  0  0  0  0  0  0
   33.7830   30.2150   34.8860 C   0  0  0  0  0  0  0  0  0  0  0  0
   33.1540   31.1040   35.7480 C   0  0  0  0  0  0  0  0  0  0  0  0
   31.8690   31.3670   36.0510 N   0  0  0  0  0  0  0  0  0  0  0  0
   31.8760   32.3410   36.9660 N   0  0  0  0  0  0  0  0  0  0  0  0
   33.1450   32.7020   37.2500 C   0  0  0  0  0  0  0  0  0  0  0  0
   33.9920   31.9240   36.4820 C   0  0  0  0  0  0  0  0  0  0  0  0
   35.3620   31.9460   36.4420 C   0  0  0  0  0  0  0  0  0  0  0  0
   37.0330   30.9820   35.4640 H   0  0  0  0  0  0  0  0  0  0  0  0
   33.1700   29.5460   34.2840 H   0  0  0  0  0  0  0  0  0  0  0  0
   31.0210   30.8870   35.6390 H   0  0  0  0  0  0  0  0  0  0  0  0
   33.4380   33.4760   37.9640 H   0  0  0  0  0  0  0  0  0  0  0  0
   35.9460   32.6140   37.0440 H   0  0  0  0  0  0  0  0  0  0  0  0
   37.5060   26.1990   33.1830 C   0  0  0  0  0  0  0  0  0  0  0  0
   36.9030   25.2090   32.7070 O   0  0  0  0  0  0  0  0  0  0  0  0
   40.9580   26.9950   34.0550 C   0  0  0  0  0  0  0  0  0  0  0  0
   41.3640   25.8770   34.7570 C   0  0  0  0  0  0  0  0  0  0  0  0
   40.4830   24.8210   34.9560 C   0  0  0  0  0  0  0  0  0  0  0  0
   39.2520   24.9800   34.4260 N   0  0  0  0  0  0  0  0  0  0  0  0
   38.8530   26.0700   33.7420 C   0  0  0  0  0  0  0  0  0  0  0  0
   39.7260   27.0670   33.5670 N   0  0  0  0  0  0  0  0  0  0  0  0
   41.6270   27.8180   33.8930 H   0  0  0  0  0  0  0  0  0  0  0  0
   42.3710   25.8480   35.1400 H   0  0  0  0  0  0  0  0  0  0  0  0
   40.8920   23.6160   35.7010 C   0  0  0  0  0  0  0  0  0  0  0  0
   41.9420   22.8730   35.3480 C   0  0  0  0  0  0  0  0  0  0  0  0
   42.7240   23.0310   34.4000 H   0  0  0  0  0  0  0  0  0  0  0  0
   41.9960   21.5080   36.6110 S   0  0  0  0  0  0  0  0  0  0  0  0
   40.4640   22.2660   37.4420 C   0  0  0  0  0  0  0  0  0  0  0  0
   39.9970   21.8430   38.3260 H   0  0  0  0  0  0  0  0  0  0  0  0
   40.3090   23.1360   36.7590 N   0  0  0  0  0  0  0  0  0  0  0  0
  1 22  1  0  0  0  0
  1  5  1  0  0  0  0
  2  3  1  0  0  0  0
  2  1  2  0  0  0  0
  3  4  2  0  0  0  0
  4  5  1  0  0  0  0
  4  9  1  0  0  0  0
  6  2  1  0  0  0  0
  7  3  1  0  0  0  0
  8 16  1  0  0  0  0
  9 10  1  0  0  0  0
  9  8  2  0  0  0  0
 10 11  2  0  0  0  0
 11 12  1  0  0  0  0
 11 15  1  0  0  0  0
 12 13  1  0  0  0  0
 13 14  2  0  0  0  0
 14 20  1  0  0  0  0
 15 14  1  0  0  0  0
 16 15  2  0  0  0  0
 16 21  1  0  0  0  0
 17  8  1  0  0  0  0
 18 10  1  0  0  0  0
 19 12  1  0  0  0  0
 22 28  1  0  0  0  0
 23 22  2  0  0  0  0
 24 25  1  0  0  0  0
 25 26  2  0  0  0  0
 25 31  1  0  0  0  0
 26 32  1  0  0  0  0
 27 26  1  0  0  0  0
 28 27  2  0  0  0  0
 29 28  1  0  0  0  0
 29 24  2  0  0  0  0
 30 24  1  0  0  0  0
 32 38  1  0  0  0  0
 33 32  2  0  0  0  0
 33 35  1  0  0  0  0
 34 33  1  0  0  0  0
 35 36  1  0  0  0  0
 36 37  1  0  0  0  0
 38 36  2  0  0  0  0
M  END
>  <minimizedAffinity>
-6.20354366

$$$$

 OpenBabel03272508503D

 38 42  0  0  0  0  0  0  0  0999 V2000
   36.6050   25.9890   32.0610 C   0  0  0  0  0  0  0  0  0  0  0  0
   35.5170   25.9450   31.2140 C   0  0  0  0  0  0  0  0  0  0  0  0
   35.2780   24.5850   31.0480 C   0  0  0  0  0  0  0  0  0  0  0  0
   36.2000   23.8810   31.7780 C   0  0  0  0  0  0  0  0  0  0  0  0
   36.9820   24.7580   32.3730 O   0  0  0  0  0  0  0  0  0  0  0  0
   34.9680   26.7610   30.7720 H   0  0  0  0  0  0  0  0  0  0  0  0
   34.4760   24.1980   30.4300 H   0  0  0  0  0  0  0  0  0  0  0  0
   37.5850   21.8610   31.9990 C   0  0  0  0  0  0  0  0  0  0  0  0
   36.3190   22.4280   31.8940 C   0  0  0  0  0  0  0  0  0  0  0  0
   35.1690   21.6580   31.8960 C   0  0  0  0  0  0  0  0  0  0  0  0
   35.2600   20.2760   32.0040 C   0  0  0  0  0  0  0  0  0  0  0  0
   34.3600   19.2760   32.0360 N   0  0  0  0  0  0  0  0  0  0  0  0
   35.0460   18.1360   32.1560 N   0  0  0  0  0  0  0  0  0  0  0  0
   36.3700   18.3950   32.2010 C   0  0  0  0  0  0  0  0  0  0  0  0
   36.5410   19.7640   32.1060 C   0  0  0  0  0  0  0  0  0  0  0  0
   37.7130   20.4750   32.1090 C   0  0  0  0  0  0  0  0  0  0  0  0
   38.4500   22.5060   31.9920 H   0  0  0  0  0  0  0  0  0  0  0  0
   34.1840   22.1140   31.8120 H   0  0  0  0  0  0  0  0  0  0  0  0
   33.3080   19.3820   31.9760 H   0  0  0  0  0  0  0  0  0  0  0  0
   37.1590   17.6440   32.2970 H   0  0  0  0  0  0  0  0  0  0  0  0
   38.6730   20.0050   32.1920 H   0  0  0  0  0  0  0  0  0  0  0  0
   37.2400   27.2020   32.5360 C   0  0  0  0  0  0  0  0  0  0  0  0
   38.4490   27.1540   32.8630 O   0  0  0  0  0  0  0  0  0  0  0  0
   35.9990   30.5400   31.7410 C   0  0  0  0  0  0  0  0  0  0  0  0
   35.0900   30.7780   32.7510 C   0  0  0  0  0  0  0  0  0  0  0  0
   34.8690   29.8190   33.7330 C   0  0  0  0  0  0  0  0  0  0  0  0
   35.5910   28.6850   33.6120 N   0  0  0  0  0  0  0  0  0  0  0  0
   36.4780   28.4490   32.6270 C   0  0  0  0  0  0  0  0  0  0  0  0
   36.6670   29.3930   31.6990 N   0  0  0  0  0  0  0  0  0  0  0  0
   36.1810   31.2700   30.9760 H   0  0  0  0  0  0  0  0  0  0  0  0
   34.5640   31.7190   32.7580 H   0  0  0  0  0  0  0  0  0  0  0  0
   33.9040   30.0500   34.8230 C   0  0  0  0  0  0  0  0  0  0  0  0
   33.9560   31.1220   35.6150 C   0  0  0  0  0  0  0  0  0  0  0  0
   34.7600   32.0650   35.5980 H   0  0  0  0  0  0  0  0  0  0  0  0
   32.5280   30.9070   36.7890 S   0  0  0  0  0  0  0  0  0  0  0  0
   32.1010   29.2760   35.9120 C   0  0  0  0  0  0  0  0  0  0  0  0
   31.2660   28.6460   36.2030 H   0  0  0  0  0  0  0  0  0  0  0  0
   32.9130   29.2730   35.1460 N   0  0  0  0  0  0  0  0  0  0  0  0
  1  5  1  0  0  0  0
  1 22  1  0  0  0  0
  2  1  2  0  0  0  0
  3  2  1  0  0  0  0
  3  4  2  0  0  0  0
  4  9  1  0  0  0  0
  4  5  1  0  0  0  0
  6  2  1  0  0  0  0
  7  3  1  0  0  0  0
  8 16  1  0  0  0  0
  9 10  1  0  0  0  0
  9  8  2  0  0  0  0
 10 11  2  0  0  0  0
 11 12  1  0  0  0  0
 11 15  1  0  0  0  0
 12 13  1  0  0  0  0
 13 14  2  0  0  0  0
 14 20  1  0  0  0  0
 15 16  2  0  0  0  0
 15 14  1  0  0  0  0
 16 21  1  0  0  0  0
 17  8  1  0  0  0  0
 18 10  1  0  0  0  0
 19 12  1  0  0  0  0
 22 28  1  0  0  0  0
 22 23  2  0  0  0  0
 24 25  1  0  0  0  0
 25 31  1  0  0  0  0
 25 26  2  0  0  0  0
 26 32  1  0  0  0  0
 27 26  1  0  0  0  0
 28 27  2  0  0  0  0
 29 24  2  0  0  0  0
 29 28  1  0  0  0  0
 30 24  1  0  0  0  0
 32 38  1  0  0  0  0
 32 33  2  0  0  0  0
 33 35  1  0  0  0  0
 34 33  1  0  0  0  0
 36 37  1  0  0  0  0
 36 35  1  0  0  0  0
 38 36  2  0  0  0  0
M  END
>  <minimizedAffinity>
-6.1832366

$$$$

 OpenBabel03272508503D

 38 42  0  0  0  0  0  0  0  0999 V2000
   38.2200   24.8230   35.9140 C   0  0  0  0  0  0  0  0  0  0  0  0
   38.4720   25.8790   36.7660 C   0  0  0  0  0  0  0  0  0  0  0  0
   38.1490   27.0010   36.0120 C   0  0  0  0  0  0  0  0  0  0  0  0
   37.7280   26.5960   34.7730 C   0  0  0  0  0  0  0  0  0  0  0  0
   37.7840   25.2800   34.7500 O   0  0  0  0  0  0  0  0  0  0  0  0
   38.8350   25.8590   37.7820 H   0  0  0  0  0  0  0  0  0  0  0  0
   38.2350   28.0130   36.3940 H   0  0  0  0  0  0  0  0  0  0  0  0
   36.2820   28.3720   33.8800 C   0  0  0  0  0  0  0  0  0  0  0  0
   37.2920   27.4420   33.6620 C   0  0  0  0  0  0  0  0  0  0  0  0
   37.8960   27.2920   32.4260 C   0  0  0  0  0  0  0  0  0  0  0  0
   37.4970   28.0850   31.3590 C   0  0  0  0  0  0  0  0  0  0  0  0
   37.8740   28.1830   30.0700 N   0  0  0  0  0  0  0  0  0  0  0  0
   37.1230   29.1390   29.5150 N   0  0  0  0  0  0  0  0  0  0  0  0
   36.2740   29.6510   30.4310 C   0  0  0  0  0  0  0  0  0  0  0  0
   36.4900   28.9940   31.6280 C   0  0  0  0  0  0  0  0  0  0  0  0
   35.8550   29.1860   32.8270 C   0  0  0  0  0  0  0  0  0  0  0  0
   35.8420   28.4490   34.8620 H   0  0  0  0  0  0  0  0  0  0  0  0
   38.6860   26.5600   32.2700 H   0  0  0  0  0  0  0  0  0  0  0  0
   38.6240   27.6070   29.5950 H   0  0  0  0  0  0  0  0  0  0  0  0
   35.5480   30.4470   30.2440 H   0  0  0  0  0  0  0  0  0  0  0  0
   35.0790   29.9140   32.9600 H   0  0  0  0  0  0  0  0  0  0  0  0
   38.4060   23.4250   36.2450 C   0  0  0  0  0  0  0  0  0  0  0  0
   39.4400   23.0910   36.8700 O   0  0  0  0  0  0  0  0  0  0  0  0
   35.5730   21.1340   36.4480 C   0  0  0  0  0  0  0  0  0  0  0  0
   35.5230   20.5940   35.1790 C   0  0  0  0  0  0  0  0  0  0  0  0
   36.4460   20.9870   34.2160 C   0  0  0  0  0  0  0  0  0  0  0  0
   37.3530   21.9030   34.6160 N   0  0  0  0  0  0  0  0  0  0  0  0
   37.4030   22.4320   35.8540 C   0  0  0  0  0  0  0  0  0  0  0  0
   36.5020   22.0320   36.7560 N   0  0  0  0  0  0  0  0  0  0  0  0
   34.8680   20.8410   37.2010 H   0  0  0  0  0  0  0  0  0  0  0  0
   34.7580   19.8670   34.9590 H   0  0  0  0  0  0  0  0  0  0  0  0
   36.4140   20.4240   32.8540 C   0  0  0  0  0  0  0  0  0  0  0  0
   36.9890   21.0260   31.8110 C   0  0  0  0  0  0  0  0  0  0  0  0
   37.6170   22.0940   31.7790 H   0  0  0  0  0  0  0  0  0  0  0  0
   36.6480   19.8990   30.3710 S   0  0  0  0  0  0  0  0  0  0  0  0
   35.7170   18.7350   31.5510 C   0  0  0  0  0  0  0  0  0  0  0  0
   35.2510   17.8100   31.2270 H   0  0  0  0  0  0  0  0  0  0  0  0
   35.8450   19.3100   32.4990 N   0  0  0  0  0  0  0  0  0  0  0  0
  1 22  1  0  0  0  0
  1  2  2  0  0  0  0
  2  6  1  0  0  0  0
  3  7  1  0  0  0  0
  3  2  1  0  0  0  0
  4  3  2  0  0  0  0
  5  4  1  0  0  0  0
  5  1  1  0  0  0  0
  8 17  1  0  0  0  0
  9  8  1  0  0  0  0
  9  4  1  0  0  0  0
 10  9  2  0  0  0  0
 11 15  2  0  0  0  0
 11 10  1  0  0  0  0
 12 11  1  0  0  0  0
 13 12  1  0  0  0  0
 13 14  2  0  0  0  0
 14 15  1  0  0  0  0
 15 16  1  0  0  0  0
 16 21  1  0  0  0  0
 16  8  2  0  0  0  0
 18 10  1  0  0  0  0
 19 12  1  0  0  0  0
 20 14  1  0  0  0  0
 22 23  2  0  0  0  0
 24 29  1  0  0  0  0
 24 30  1  0  0  0  0
 25 24  2  0  0  0  0
 26 27  2  0  0  0  0
 26 25  1  0  0  0  0
 27 28  1  0  0  0  0
 28 22  1  0  0  0  0
 28 29  2  0  0  0  0
 31 25  1  0  0  0  0
 32 26  1  0  0  0  0
 33 32  2  0  0  0  0
 34 33  1  0  0  0  0
 35 36  1  0  0  0  0
 35 33  1  0  0  0  0
 36 38  2  0  0  0  0
 37 36  1  0  0  0  0
 38 32  1  0  0  0  0
M  END
>  <minimizedAffinity>
-6.10535336

$$$$

 OpenBabel03272508503D

 38 42  0  0  0  0  0  0  0  0999 V2000
   37.6830   27.4510   33.9430 C   0  0  0  0  0  0  0  0  0  0  0  0
   37.0030   27.4640   32.7420 C   0  0  0  0  0  0  0  0  0  0  0  0
   35.9510   28.3450   32.9640 C   0  0  0  0  0  0  0  0  0  0  0  0
   36.0310   28.8170   34.2470 C   0  0  0  0  0  0  0  0  0  0  0  0
   37.0830   28.2580   34.8070 O   0  0  0  0  0  0  0  0  0  0  0  0
   37.2210   26.9240   31.8340 H   0  0  0  0  0  0  0  0  0  0  0  0
   35.2140   28.5850   32.2050 H   0  0  0  0  0  0  0  0  0  0  0  0
   33.7650   29.6870   34.6450 C   0  0  0  0  0  0  0  0  0  0  0  0
   35.1300   29.7640   34.9030 C   0  0  0  0  0  0  0  0  0  0  0  0
   35.6600   30.7110   35.7620 C   0  0  0  0  0  0  0  0  0  0  0  0
   34.8220   31.6200   36.3940 C   0  0  0  0  0  0  0  0  0  0  0  0
   35.0190   32.6320   37.2600 N   0  0  0  0  0  0  0  0  0  0  0  0
   33.8190   33.1590   37.5240 N   0  0  0  0  0  0  0  0  0  0  0  0
   32.8620   32.4970   36.8400 C   0  0  0  0  0  0  0  0  0  0  0  0
   33.4750   31.5000   36.1040 C   0  0  0  0  0  0  0  0  0  0  0  0
   32.8940   30.5860   35.2640 C   0  0  0  0  0  0  0  0  0  0  0  0
   33.4020   28.9310   33.9670 H   0  0  0  0  0  0  0  0  0  0  0  0
   36.7300   30.7620   35.9550 H   0  0  0  0  0  0  0  0  0  0  0  0
   35.9510   32.9460   37.6510 H   0  0  0  0  0  0  0  0  0  0  0  0
   31.7920   32.7200   36.8730 H   0  0  0  0  0  0  0  0  0  0  0  0
   31.8370   30.5540   35.0880 H   0  0  0  0  0  0  0  0  0  0  0  0
   38.8720   26.6710   34.2170 C   0  0  0  0  0  0  0  0  0  0  0  0
   39.9410   26.9910   33.6460 O   0  0  0  0  0  0  0  0  0  0  0  0
   37.6500   24.3820   36.7820 C   0  0  0  0  0  0  0  0  0  0  0  0
   38.6650   23.4500   36.8720 C   0  0  0  0  0  0  0  0  0  0  0  0
   39.7930   23.5670   36.0680 C   0  0  0  0  0  0  0  0  0  0  0  0
   39.8050   24.6260   35.2310 N   0  0  0  0  0  0  0  0  0  0  0  0
   38.8160   25.5370   35.1410 C   0  0  0  0  0  0  0  0  0  0  0  0
   37.7460   25.3940   35.9290 N   0  0  0  0  0  0  0  0  0  0  0  0
   36.7730   24.3050   37.3950 H   0  0  0  0  0  0  0  0  0  0  0  0
   38.5580   22.6400   37.5750 H   0  0  0  0  0  0  0  0  0  0  0  0
   40.8900   22.5860   36.1450 C   0  0  0  0  0  0  0  0  0  0  0  0
   41.7100   22.3390   35.1220 C   0  0  0  0  0  0  0  0  0  0  0  0
   41.7160   22.8440   33.9900 H   0  0  0  0  0  0  0  0  0  0  0  0
   42.8810   21.0430   35.7610 S   0  0  0  0  0  0  0  0  0  0  0  0
   41.9630   21.0860   37.4250 C   0  0  0  0  0  0  0  0  0  0  0  0
   42.2400   20.4670   38.2720 H   0  0  0  0  0  0  0  0  0  0  0  0
   41.1950   21.8590   37.1790 N   0  0  0  0  0  0  0  0  0  0  0  0
  1 22  1  0  0  0  0
  1  5  1  0  0  0  0
  2  3  1  0  0  0  0
  2  1  2  0  0  0  0
  3  4  2  0  0  0  0
  4  5  1  0  0  0  0
  4  9  1  0  0  0  0
  6  2  1  0  0  0  0
  7  3  1  0  0  0  0
  8  9  2  0  0  0  0
  8 16  1  0  0  0  0
  9 10  1  0  0  0  0
 10 18  1  0  0  0  0
 10 11  2  0  0  0  0
 11 12  1  0  0  0  0
 12 13  1  0  0  0  0
 12 19  1  0  0  0  0
 14 20  1  0  0  0  0
 14 13  2  0  0  0  0
 15 11  1  0  0  0  0
 15 14  1  0  0  0  0
 16 15  2  0  0  0  0
 17  8  1  0  0  0  0
 21 16  1  0  0  0  0
 22 28  1  0  0  0  0
 23 22  2  0  0  0  0
 24 25  1  0  0  0  0
 24 30  1  0  0  0  0
 25 31  1  0  0  0  0
 26 32  1  0  0  0  0
 26 25  2  0  0  0  0
 27 26  1  0  0  0  0
 28 27  2  0  0  0  0
 28 29  1  0  0  0  0
 29 24  2  0  0  0  0
 32 38  1  0  0  0  0
 33 35  1  0  0  0  0
 33 32  2  0  0  0  0
 34 33  1  0  0  0  0
 35 36  1  0  0  0  0
 36 37  1  0  0  0  0
 38 36  2  0  0  0  0
M  END
>  <minimizedAffinity>
-6.09160471

$$$$

 OpenBabel03272508503D

 38 42  0  0  0  0  0  0  0  0999 V2000
   36.2560   25.8360   31.7940 C   0  0  0  0  0  0  0  0  0  0  0  0
   35.1800   25.7590   30.9340 C   0  0  0  0  0  0  0  0  0  0  0  0
   34.9660   24.3940   30.7880 C   0  0  0  0  0  0  0  0  0  0  0  0
   35.8890   23.7170   31.5400 C   0  0  0  0  0  0  0  0  0  0  0  0
   36.6490   24.6160   32.1310 O   0  0  0  0  0  0  0  0  0  0  0  0
   34.6230   26.5590   30.4720 H   0  0  0  0  0  0  0  0  0  0  0  0
   34.1780   23.9840   30.1650 H   0  0  0  0  0  0  0  0  0  0  0  0
   35.0740   21.5630   32.4010 C   0  0  0  0  0  0  0  0  0  0  0  0
   36.0320   22.2680   31.6810 C   0  0  0  0  0  0  0  0  0  0  0  0
   37.1150   21.6390   31.0930 C   0  0  0  0  0  0  0  0  0  0  0  0
   37.2690   20.2650   31.2150 C   0  0  0  0  0  0  0  0  0  0  0  0
   38.1840   19.3800   30.7740 N   0  0  0  0  0  0  0  0  0  0  0  0
   37.8020   18.1750   31.2090 N   0  0  0  0  0  0  0  0  0  0  0  0
   36.6590   18.2790   31.9190 C   0  0  0  0  0  0  0  0  0  0  0  0
   36.2900   19.6110   31.9400 C   0  0  0  0  0  0  0  0  0  0  0  0
   35.1980   20.1790   32.5440 C   0  0  0  0  0  0  0  0  0  0  0  0
   34.2480   22.1010   32.8410 H   0  0  0  0  0  0  0  0  0  0  0  0
   37.8580   22.2030   30.5320 H   0  0  0  0  0  0  0  0  0  0  0  0
   39.0400   19.6060   30.1950 H   0  0  0  0  0  0  0  0  0  0  0  0
   36.1280   17.4470   32.3880 H   0  0  0  0  0  0  0  0  0  0  0  0
   34.4770   19.6050   33.0920 H   0  0  0  0  0  0  0  0  0  0  0  0
   36.8640   27.0660   32.2580 C   0  0  0  0  0  0  0  0  0  0  0  0
   36.6250   28.1240   31.6300 O   0  0  0  0  0  0  0  0  0  0  0  0
   37.9570   27.3160   35.7300 C   0  0  0  0  0  0  0  0  0  0  0  0
   39.3120   27.0690   35.6440 C   0  0  0  0  0  0  0  0  0  0  0  0
   39.8980   26.8100   34.4100 C   0  0  0  0  0  0  0  0  0  0  0  0
   39.0600   26.8220   33.3530 N   0  0  0  0  0  0  0  0  0  0  0  0
   37.7370   27.0630   33.4340 C   0  0  0  0  0  0  0  0  0  0  0  0
   37.2060   27.3090   34.6360 N   0  0  0  0  0  0  0  0  0  0  0  0
   37.4910   27.5170   36.6750 H   0  0  0  0  0  0  0  0  0  0  0  0
   39.8960   27.0820   36.5510 H   0  0  0  0  0  0  0  0  0  0  0  0
   41.3430   26.5430   34.2930 C   0  0  0  0  0  0  0  0  0  0  0  0
   41.9350   25.5060   34.8880 C   0  0  0  0  0  0  0  0  0  0  0  0
   41.4320   24.6270   35.6020 H   0  0  0  0  0  0  0  0  0  0  0  0
   43.7270   25.6520   34.4100 S   0  0  0  0  0  0  0  0  0  0  0  0
   43.2970   27.2140   33.4170 C   0  0  0  0  0  0  0  0  0  0  0  0
   44.0340   27.7880   32.8640 H   0  0  0  0  0  0  0  0  0  0  0  0
   42.2000   27.2520   33.6200 N   0  0  0  0  0  0  0  0  0  0  0  0
  1  5  1  0  0  0  0
  1 22  1  0  0  0  0
  2  1  2  0  0  0  0
  3  2  1  0  0  0  0
  3  4  2  0  0  0  0
  4  9  1  0  0  0  0
  4  5  1  0  0  0  0
  6  2  1  0  0  0  0
  7  3  1  0  0  0  0
  8 16  1  0  0  0  0
  8 17  1  0  0  0  0
  9  8  2  0  0  0  0
 10 11  2  0  0  0  0
 10  9  1  0  0  0  0
 11 15  1  0  0  0  0
 12 13  1  0  0  0  0
 12 11  1  0  0  0  0
 13 14  2  0  0  0  0
 14 15  1  0  0  0  0
 14 20  1  0  0  0  0
 15 16  2  0  0  0  0
 16 21  1  0  0  0  0
 18 10  1  0  0  0  0
 19 12  1  0  0  0  0
 22 28  1  0  0  0  0
 23 22  2  0  0  0  0
 24 30  1  0  0  0  0
 25 24  1  0  0  0  0
 25 31  1  0  0  0  0
 26 25  2  0  0  0  0
 27 28  2  0  0  0  0
 27 26  1  0  0  0  0
 28 29  1  0  0  0  0
 29 24  2  0  0  0  0
 32 26  1  0  0  0  0
 32 33  2  0  0  0  0
 33 34  1  0  0  0  0
 35 33  1  0  0  0  0
 36 38  2  0  0  0  0
 36 35  1  0  0  0  0
 37 36  1  0  0  0  0
 38 32  1  0  0  0  0
M  END
>  <minimizedAffinity>
-6.08472586

$$$$
