
 OpenBabel03272506283D

 40 43  0  0  0  0  0  0  0  0999 V2000
   39.5590   24.2560   35.2020 C   0  0  0  0  0  0  0  0  0  0  0  0
   40.8560   23.7880   35.2390 C   0  0  0  0  0  0  0  0  0  0  0  0
   41.9830   24.6060   35.0780 C   0  0  0  0  0  0  0  0  0  0  0  0
   41.7730   25.9880   34.8650 C   0  0  0  0  0  0  0  0  0  0  0  0
   40.4800   26.4210   34.8320 C   0  0  0  0  0  0  0  0  0  0  0  0
   39.3870   25.6250   34.9920 C   0  0  0  0  0  0  0  0  0  0  0  0
   41.0440   22.7230   35.4010 H   0  0  0  0  0  0  0  0  0  0  0  0
   42.9690   24.1110   35.1290 H   0  0  0  0  0  0  0  0  0  0  0  0
   42.7160   26.4820   34.7600 H   0  0  0  0  0  0  0  0  0  0  0  0
   40.5590   27.4670   34.6490 H   0  0  0  0  0  0  0  0  0  0  0  0
   38.0880   22.6200   34.1980 C   0  0  0  0  0  0  0  0  0  0  0  0
   38.5170   23.2750   35.3620 C   0  0  0  0  0  0  0  0  0  0  0  0
   37.9130   22.9360   36.5790 C   0  0  0  0  0  0  0  0  0  0  0  0
   36.9360   21.9880   36.5780 N   0  0  0  0  0  0  0  0  0  0  0  0
   36.5340   21.3640   35.4330 C   0  0  0  0  0  0  0  0  0  0  0  0
   37.1130   21.6850   34.2480 N   0  0  0  0  0  0  0  0  0  0  0  0
   38.5400   22.8640   33.2470 H   0  0  0  0  0  0  0  0  0  0  0  0
   35.7520   20.6140   35.4780 H   0  0  0  0  0  0  0  0  0  0  0  0
   38.2640   23.5440   37.8890 C   0  0  0  0  0  0  0  0  0  0  0  0
   39.5950   23.2180   38.2160 F   0  0  0  0  0  0  0  0  0  0  0  0
   38.1190   24.8820   37.9760 F   0  0  0  0  0  0  0  0  0  0  0  0
   37.5210   22.9320   38.8970 F   0  0  0  0  0  0  0  0  0  0  0  0
   37.7480   26.2160   34.9720 S   0  0  0  0  0  0  0  0  0  0  0  0
   36.3040   28.9330   34.5310 Cl  0  0  0  0  0  0  0  0  0  0  0  0
   36.4870   27.7900   33.2160 C   0  0  0  0  0  0  0  0  0  0  0  0
   37.1140   26.5680   33.3580 C   0  0  0  0  0  0  0  0  0  0  0  0
   37.2290   25.7090   32.3010 C   0  0  0  0  0  0  0  0  0  0  0  0
   36.7020   26.0970   31.0760 C   0  0  0  0  0  0  0  0  0  0  0  0
   36.0680   27.3300   30.9300 C   0  0  0  0  0  0  0  0  0  0  0  0
   35.9500   28.1970   31.9970 C   0  0  0  0  0  0  0  0  0  0  0  0
   37.6570   24.7440   32.3060 H   0  0  0  0  0  0  0  0  0  0  0  0
   36.7630   25.4600   30.1990 H   0  0  0  0  0  0  0  0  0  0  0  0
   35.6740   27.5830   29.9550 H   0  0  0  0  0  0  0  0  0  0  0  0
   35.2750   29.5120   31.8500 C   0  0  0  0  0  0  0  0  0  0  0  0
   35.9410   30.5890   31.2720 C   0  0  0  0  0  0  0  0  0  0  0  0
   36.9680   30.6430   30.8710 H   0  0  0  0  0  0  0  0  0  0  0  0
   34.6900   31.9240   31.3360 S   0  0  0  0  0  0  0  0  0  0  0  0
   33.4400   30.7530   32.1600 C   0  0  0  0  0  0  0  0  0  0  0  0
   32.3730   30.8980   32.5150 H   0  0  0  0  0  0  0  0  0  0  0  0
   34.0360   29.7960   32.2270 N   0  0  0  0  0  0  0  0  0  0  0  0
  1  2  1  0  0  0  0
  1 12  1  0  0  0  0
  2  7  1  0  0  0  0
  3  8  1  0  0  0  0
  3  2  2  0  0  0  0
  4  3  1  0  0  0  0
  5  4  2  0  0  0  0
  5  6  1  0  0  0  0
  6  1  2  0  0  0  0
  9  4  1  0  0  0  0
 10  5  1  0  0  0  0
 11 16  2  0  0  0  0
 11 12  1  0  0  0  0
 12 13  2  0  0  0  0
 13 19  1  0  0  0  0
 14 13  1  0  0  0  0
 15 18  1  0  0  0  0
 15 14  2  0  0  0  0
 16 15  1  0  0  0  0
 17 11  1  0  0  0  0
 19 21  1  0  0  0  0
 19 20  1  0  0  0  0
 19 22  1  0  0  0  0
 23  6  1  0  0  0  0
 25 26  1  0  0  0  0
 25 24  1  0  0  0  0
 26 23  1  0  0  0  0
 27 31  1  0  0  0  0
 27 26  2  0  0  0  0
 28 27  1  0  0  0  0
 29 28  2  0  0  0  0
 29 30  1  0  0  0  0
 30 25  2  0  0  0  0
 32 28  1  0  0  0  0
 33 29  1  0  0  0  0
 34 30  1  0  0  0  0
 34 40  1  0  0  0  0
 35 37  1  0  0  0  0
 35 34  2  0  0  0  0
 36 35  1  0  0  0  0
 37 38  1  0  0  0  0
 38 40  2  0  0  0  0
 38 39  1  0  0  0  0
M  END
>  <minimizedAffinity>
-6.22165298

$$$$

 OpenBabel03272506283D

 40 43  0  0  0  0  0  0  0  0999 V2000
   38.2990   22.7940   34.1420 C   0  0  0  0  0  0  0  0  0  0  0  0
   37.7360   21.6000   33.7380 C   0  0  0  0  0  0  0  0  0  0  0  0
   36.7980   21.4950   32.7010 C   0  0  0  0  0  0  0  0  0  0  0  0
   36.4100   22.6810   32.0360 C   0  0  0  0  0  0  0  0  0  0  0  0
   36.9820   23.8450   32.4590 C   0  0  0  0  0  0  0  0  0  0  0  0
   37.8960   23.9450   33.4630 C   0  0  0  0  0  0  0  0  0  0  0  0
   38.0190   20.6700   34.2370 H   0  0  0  0  0  0  0  0  0  0  0  0
   36.4230   20.4820   32.4710 H   0  0  0  0  0  0  0  0  0  0  0  0
   35.6950   22.4470   31.2750 H   0  0  0  0  0  0  0  0  0  0  0  0
   36.5410   24.5920   31.8410 H   0  0  0  0  0  0  0  0  0  0  0  0
   40.5730   22.4990   34.9090 C   0  0  0  0  0  0  0  0  0  0  0  0
   39.2290   22.7260   35.2390 C   0  0  0  0  0  0  0  0  0  0  0  0
   38.8880   22.8660   36.5900 C   0  0  0  0  0  0  0  0  0  0  0  0
   39.8770   22.7750   37.5220 N   0  0  0  0  0  0  0  0  0  0  0  0
   41.1790   22.5540   37.1780 C   0  0  0  0  0  0  0  0  0  0  0  0
   41.5190   22.4170   35.8710 N   0  0  0  0  0  0  0  0  0  0  0  0
   40.8600   22.3880   33.8730 H   0  0  0  0  0  0  0  0  0  0  0  0
   41.9340   22.4890   37.9530 H   0  0  0  0  0  0  0  0  0  0  0  0
   37.5100   23.1090   37.0880 C   0  0  0  0  0  0  0  0  0  0  0  0
   37.0940   24.4010   36.7070 F   0  0  0  0  0  0  0  0  0  0  0  0
   36.5730   22.2250   36.6880 F   0  0  0  0  0  0  0  0  0  0  0  0
   37.5250   23.1680   38.4810 F   0  0  0  0  0  0  0  0  0  0  0  0
   38.6280   25.4450   33.9600 S   0  0  0  0  0  0  0  0  0  0  0  0
   38.9010   26.8390   31.1940 Cl  0  0  0  0  0  0  0  0  0  0  0  0
   37.7980   27.4580   32.4060 C   0  0  0  0  0  0  0  0  0  0  0  0
   37.6420   26.8810   33.6510 C   0  0  0  0  0  0  0  0  0  0  0  0
   36.7690   27.4050   34.5640 C   0  0  0  0  0  0  0  0  0  0  0  0
   36.0390   28.5310   34.2080 C   0  0  0  0  0  0  0  0  0  0  0  0
   36.1950   29.1150   32.9510 C   0  0  0  0  0  0  0  0  0  0  0  0
   37.0770   28.5880   32.0300 C   0  0  0  0  0  0  0  0  0  0  0  0
   36.5960   27.0660   35.5490 H   0  0  0  0  0  0  0  0  0  0  0  0
   35.3290   28.9920   34.8880 H   0  0  0  0  0  0  0  0  0  0  0  0
   35.6020   29.9900   32.7240 H   0  0  0  0  0  0  0  0  0  0  0  0
   37.2500   29.2050   30.6900 C   0  0  0  0  0  0  0  0  0  0  0  0
   37.1230   30.5800   30.5210 C   0  0  0  0  0  0  0  0  0  0  0  0
   36.8980   31.3590   31.2710 H   0  0  0  0  0  0  0  0  0  0  0  0
   37.4220   30.8030   28.7290 S   0  0  0  0  0  0  0  0  0  0  0  0
   37.6750   28.9320   28.5110 C   0  0  0  0  0  0  0  0  0  0  0  0
   37.9130   28.2910   27.6060 H   0  0  0  0  0  0  0  0  0  0  0  0
   37.5270   28.5580   29.5670 N   0  0  0  0  0  0  0  0  0  0  0  0
  1 12  1  0  0  0  0
  2  1  1  0  0  0  0
  2  7  1  0  0  0  0
  3  2  2  0  0  0  0
  4  5  2  0  0  0  0
  4  3  1  0  0  0  0
  5  6  1  0  0  0  0
  6 23  1  0  0  0  0
  6  1  2  0  0  0  0
  8  3  1  0  0  0  0
  9  4  1  0  0  0  0
 10  5  1  0  0  0  0
 11 12  2  0  0  0  0
 11 16  1  0  0  0  0
 12 13  1  0  0  0  0
 13 19  1  0  0  0  0
 13 14  2  0  0  0  0
 15 14  1  0  0  0  0
 15 18  1  0  0  0  0
 16 15  2  0  0  0  0
 17 11  1  0  0  0  0
 19 22  1  0  0  0  0
 20 19  1  0  0  0  0
 21 19  1  0  0  0  0
 24 25  1  0  0  0  0
 25 26  1  0  0  0  0
 26 23  1  0  0  0  0
 26 27  2  0  0  0  0
 27 31  1  0  0  0  0
 28 27  1  0  0  0  0
 28 32  1  0  0  0  0
 29 28  2  0  0  0  0
 30 25  2  0  0  0  0
 30 29  1  0  0  0  0
 33 29  1  0  0  0  0
 34 30  1  0  0  0  0
 35 34  2  0  0  0  0
 35 36  1  0  0  0  0
 37 35  1  0  0  0  0
 38 37  1  0  0  0  0
 38 40  2  0  0  0  0
 39 38  1  0  0  0  0
 40 34  1  0  0  0  0
M  END
>  <minimizedAffinity>
-6.14134407

$$$$

 OpenBabel03272506283D

 40 43  0  0  0  0  0  0  0  0999 V2000
   38.2150   22.6940   34.0080 C   0  0  0  0  0  0  0  0  0  0  0  0
   37.5120   21.5260   33.7910 C   0  0  0  0  0  0  0  0  0  0  0  0
   36.4770   21.4050   32.8530 C   0  0  0  0  0  0  0  0  0  0  0  0
   36.1390   22.5460   32.0900 C   0  0  0  0  0  0  0  0  0  0  0  0
   36.8500   23.6850   32.3280 C   0  0  0  0  0  0  0  0  0  0  0  0
   37.8570   23.8000   33.2370 C   0  0  0  0  0  0  0  0  0  0  0  0
   37.7550   20.6320   34.3700 H   0  0  0  0  0  0  0  0  0  0  0  0
   35.9930   20.4160   32.7730 H   0  0  0  0  0  0  0  0  0  0  0  0
   35.3380   22.3050   31.4210 H   0  0  0  0  0  0  0  0  0  0  0  0
   36.4240   24.4030   31.6660 H   0  0  0  0  0  0  0  0  0  0  0  0
   40.5200   22.2830   34.6120 C   0  0  0  0  0  0  0  0  0  0  0  0
   39.2320   22.6510   35.0270 C   0  0  0  0  0  0  0  0  0  0  0  0
   39.0250   22.9440   36.3810 C   0  0  0  0  0  0  0  0  0  0  0  0
   40.0840   22.8590   37.2330 N   0  0  0  0  0  0  0  0  0  0  0  0
   41.3300   22.4980   36.8070 C   0  0  0  0  0  0  0  0  0  0  0  0
   41.5400   22.2120   35.4970 N   0  0  0  0  0  0  0  0  0  0  0  0
   40.7050   22.0530   33.5720 H   0  0  0  0  0  0  0  0  0  0  0  0
   42.1440   22.4430   37.5200 H   0  0  0  0  0  0  0  0  0  0  0  0
   37.7190   23.3470   36.9630 C   0  0  0  0  0  0  0  0  0  0  0  0
   37.8380   23.4390   38.3650 F   0  0  0  0  0  0  0  0  0  0  0  0
   37.1990   24.5030   36.5040 F   0  0  0  0  0  0  0  0  0  0  0  0
   36.7950   22.3190   36.7810 F   0  0  0  0  0  0  0  0  0  0  0  0
   38.7650   25.2640   33.4960 S   0  0  0  0  0  0  0  0  0  0  0  0
   36.5510   27.0070   34.8100 Cl  0  0  0  0  0  0  0  0  0  0  0  0
   37.1890   27.4090   33.2290 C   0  0  0  0  0  0  0  0  0  0  0  0
   38.1680   26.6670   32.5980 C   0  0  0  0  0  0  0  0  0  0  0  0
   38.6310   27.0220   31.3620 C   0  0  0  0  0  0  0  0  0  0  0  0
   38.0950   28.1500   30.7550 C   0  0  0  0  0  0  0  0  0  0  0  0
   37.1060   28.9010   31.3910 C   0  0  0  0  0  0  0  0  0  0  0  0
   36.6370   28.5420   32.6380 C   0  0  0  0  0  0  0  0  0  0  0  0
   39.3470   26.5120   30.7780 H   0  0  0  0  0  0  0  0  0  0  0  0
   38.4220   28.4830   29.7750 H   0  0  0  0  0  0  0  0  0  0  0  0
   36.7230   29.7700   30.8750 H   0  0  0  0  0  0  0  0  0  0  0  0
   35.5840   29.3360   33.3210 C   0  0  0  0  0  0  0  0  0  0  0  0
   34.2540   29.2410   32.9220 C   0  0  0  0  0  0  0  0  0  0  0  0
   33.8060   28.6290   32.1200 H   0  0  0  0  0  0  0  0  0  0  0  0
   33.4020   30.3940   34.0600 S   0  0  0  0  0  0  0  0  0  0  0  0
   35.0490   30.8190   34.9080 C   0  0  0  0  0  0  0  0  0  0  0  0
   35.3130   31.5130   35.7660 H   0  0  0  0  0  0  0  0  0  0  0  0
   35.7750   30.1760   34.3290 N   0  0  0  0  0  0  0  0  0  0  0  0
  1 12  1  0  0  0  0
  2  1  1  0  0  0  0
  2  7  1  0  0  0  0
  3  2  2  0  0  0  0
  4  5  2  0  0  0  0
  4  3  1  0  0  0  0
  5  6  1  0  0  0  0
  6 23  1  0  0  0  0
  6  1  2  0  0  0  0
  8  3  1  0  0  0  0
  9  4  1  0  0  0  0
 10  5  1  0  0  0  0
 11 12  2  0  0  0  0
 11 16  1  0  0  0  0
 12 13  1  0  0  0  0
 13 19  1  0  0  0  0
 13 14  2  0  0  0  0
 15 14  1  0  0  0  0
 15 18  1  0  0  0  0
 16 15  2  0  0  0  0
 17 11  1  0  0  0  0
 19 20  1  0  0  0  0
 21 19  1  0  0  0  0
 22 19  1  0  0  0  0
 25 24  1  0  0  0  0
 26 25  2  0  0  0  0
 26 23  1  0  0  0  0
 27 26  1  0  0  0  0
 28 27  2  0  0  0  0
 28 29  1  0  0  0  0
 29 30  2  0  0  0  0
 30 25  1  0  0  0  0
 30 34  1  0  0  0  0
 31 27  1  0  0  0  0
 32 28  1  0  0  0  0
 33 29  1  0  0  0  0
 34 40  1  0  0  0  0
 35 34  2  0  0  0  0
 35 37  1  0  0  0  0
 36 35  1  0  0  0  0
 37 38  1  0  0  0  0
 38 39  1  0  0  0  0
 40 38  2  0  0  0  0
M  END
>  <minimizedAffinity>
-5.93600845

$$$$

 OpenBabel03272506283D

 40 43  0  0  0  0  0  0  0  0999 V2000
   38.0970   23.5860   33.0300 C   0  0  0  0  0  0  0  0  0  0  0  0
   37.4660   22.3690   32.8720 C   0  0  0  0  0  0  0  0  0  0  0  0
   36.2510   22.2050   32.1920 C   0  0  0  0  0  0  0  0  0  0  0  0
   35.6420   23.3560   31.6380 C   0  0  0  0  0  0  0  0  0  0  0  0
   36.2890   24.5440   31.8120 C   0  0  0  0  0  0  0  0  0  0  0  0
   37.4710   24.7000   32.4700 C   0  0  0  0  0  0  0  0  0  0  0  0
   37.9160   21.4660   33.2930 H   0  0  0  0  0  0  0  0  0  0  0  0
   35.8480   21.1790   32.1330 H   0  0  0  0  0  0  0  0  0  0  0  0
   34.7290   23.0800   31.1530 H   0  0  0  0  0  0  0  0  0  0  0  0
   35.6570   25.2570   31.3370 H   0  0  0  0  0  0  0  0  0  0  0  0
   40.5080   23.4060   33.0400 C   0  0  0  0  0  0  0  0  0  0  0  0
   39.3280   23.5790   33.7770 C   0  0  0  0  0  0  0  0  0  0  0  0
   39.4250   23.7280   35.1670 C   0  0  0  0  0  0  0  0  0  0  0  0
   40.6600   23.6980   35.7380 N   0  0  0  0  0  0  0  0  0  0  0  0
   41.7960   23.5280   35.0010 C   0  0  0  0  0  0  0  0  0  0  0  0
   41.7120   23.3820   33.6540 N   0  0  0  0  0  0  0  0  0  0  0  0
   40.4590   23.2890   31.9660 H   0  0  0  0  0  0  0  0  0  0  0  0
   42.7590   23.5100   35.4970 H   0  0  0  0  0  0  0  0  0  0  0  0
   38.2640   23.9190   36.0740 C   0  0  0  0  0  0  0  0  0  0  0  0
   38.7200   24.0280   37.4030 F   0  0  0  0  0  0  0  0  0  0  0  0
   37.4740   24.9780   35.8070 F   0  0  0  0  0  0  0  0  0  0  0  0
   37.4930   22.7580   36.0880 F   0  0  0  0  0  0  0  0  0  0  0  0
   38.2840   26.2300   32.6490 S   0  0  0  0  0  0  0  0  0  0  0  0
   36.7120   27.7600   34.8510 Cl  0  0  0  0  0  0  0  0  0  0  0  0
   36.6500   28.2790   33.1800 C   0  0  0  0  0  0  0  0  0  0  0  0
   37.3240   27.6340   32.1620 C   0  0  0  0  0  0  0  0  0  0  0  0
   37.2400   28.0780   30.8720 C   0  0  0  0  0  0  0  0  0  0  0  0
   36.4630   29.1970   30.6080 C   0  0  0  0  0  0  0  0  0  0  0  0
   35.7810   29.8510   31.6340 C   0  0  0  0  0  0  0  0  0  0  0  0
   35.8640   29.4020   32.9370 C   0  0  0  0  0  0  0  0  0  0  0  0
   37.6840   27.6440   30.0180 H   0  0  0  0  0  0  0  0  0  0  0  0
   36.3590   29.5990   29.6050 H   0  0  0  0  0  0  0  0  0  0  0  0
   35.1900   30.7180   31.3760 H   0  0  0  0  0  0  0  0  0  0  0  0
   35.1400   30.0920   34.0360 C   0  0  0  0  0  0  0  0  0  0  0  0
   33.7910   29.8400   34.2640 C   0  0  0  0  0  0  0  0  0  0  0  0
   33.1060   29.1600   33.7270 H   0  0  0  0  0  0  0  0  0  0  0  0
   33.4070   30.9210   35.6900 S   0  0  0  0  0  0  0  0  0  0  0  0
   35.2010   31.5480   35.7330 C   0  0  0  0  0  0  0  0  0  0  0  0
   35.7380   32.2910   36.4020 H   0  0  0  0  0  0  0  0  0  0  0  0
   35.6630   30.9750   34.8750 N   0  0  0  0  0  0  0  0  0  0  0  0
  1 12  1  0  0  0  0
  2  1  1  0  0  0  0
  2  7  1  0  0  0  0
  3  2  2  0  0  0  0
  4  5  2  0  0  0  0
  4  3  1  0  0  0  0
  5  6  1  0  0  0  0
  6 23  1  0  0  0  0
  6  1  2  0  0  0  0
  8  3  1  0  0  0  0
  9  4  1  0  0  0  0
 10  5  1  0  0  0  0
 11 16  2  0  0  0  0
 11 12  1  0  0  0  0
 12 13  2  0  0  0  0
 13 14  1  0  0  0  0
 13 19  1  0  0  0  0
 15 18  1  0  0  0  0
 15 14  2  0  0  0  0
 16 15  1  0  0  0  0
 17 11  1  0  0  0  0
 19 22  1  0  0  0  0
 19 20  1  0  0  0  0
 21 19  1  0  0  0  0
 25 24  1  0  0  0  0
 26 23  1  0  0  0  0
 26 25  2  0  0  0  0
 27 26  1  0  0  0  0
 28 27  2  0  0  0  0
 28 29  1  0  0  0  0
 29 30  2  0  0  0  0
 30 25  1  0  0  0  0
 30 34  1  0  0  0  0
 31 27  1  0  0  0  0
 32 28  1  0  0  0  0
 33 29  1  0  0  0  0
 34 35  2  0  0  0  0
 34 40  1  0  0  0  0
 35 37  1  0  0  0  0
 36 35  1  0  0  0  0
 37 38  1  0  0  0  0
 38 39  1  0  0  0  0
 40 38  2  0  0  0  0
M  END
>  <minimizedAffinity>
-5.89706135

$$$$

 OpenBabel03272506283D

 40 43  0  0  0  0  0  0  0  0999 V2000
   33.5620   30.5740   35.4060 C   0  0  0  0  0  0  0  0  0  0  0  0
   33.7430   31.4380   36.4670 C   0  0  0  0  0  0  0  0  0  0  0  0
   34.9330   32.1420   36.7020 C   0  0  0  0  0  0  0  0  0  0  0  0
   36.0040   31.9520   35.7980 C   0  0  0  0  0  0  0  0  0  0  0  0
   35.7950   31.0920   34.7610 C   0  0  0  0  0  0  0  0  0  0  0  0
   34.6380   30.4120   34.5320 C   0  0  0  0  0  0  0  0  0  0  0  0
   32.9300   31.6000   37.1790 H   0  0  0  0  0  0  0  0  0  0  0  0
   34.9520   32.8040   37.5850 H   0  0  0  0  0  0  0  0  0  0  0  0
   36.8390   32.5490   36.1020 H   0  0  0  0  0  0  0  0  0  0  0  0
   36.7190   31.0930   34.2310 H   0  0  0  0  0  0  0  0  0  0  0  0
   32.1630   28.6990   36.0160 C   0  0  0  0  0  0  0  0  0  0  0  0
   32.2850   29.9140   35.3260 C   0  0  0  0  0  0  0  0  0  0  0  0
   31.1750   30.3940   34.6180 C   0  0  0  0  0  0  0  0  0  0  0  0
   30.0290   29.6590   34.6310 N   0  0  0  0  0  0  0  0  0  0  0  0
   29.9340   28.4780   35.3090 C   0  0  0  0  0  0  0  0  0  0  0  0
   31.0030   28.0050   35.9980 N   0  0  0  0  0  0  0  0  0  0  0  0
   33.0050   28.3080   36.5700 H   0  0  0  0  0  0  0  0  0  0  0  0
   29.0020   27.9240   35.2920 H   0  0  0  0  0  0  0  0  0  0  0  0
   31.1570   31.6620   33.8450 C   0  0  0  0  0  0  0  0  0  0  0  0
   31.2690   32.7530   34.7300 F   0  0  0  0  0  0  0  0  0  0  0  0
   32.1040   31.7870   32.8930 F   0  0  0  0  0  0  0  0  0  0  0  0
   29.8990   31.8350   33.2710 F   0  0  0  0  0  0  0  0  0  0  0  0
   34.3960   29.3400   33.1800 S   0  0  0  0  0  0  0  0  0  0  0  0
   36.4170   27.5310   34.7000 Cl  0  0  0  0  0  0  0  0  0  0  0  0
   36.7410   28.0590   33.0610 C   0  0  0  0  0  0  0  0  0  0  0  0
   35.8810   28.8670   32.3430 C   0  0  0  0  0  0  0  0  0  0  0  0
   36.1820   29.2540   31.0670 C   0  0  0  0  0  0  0  0  0  0  0  0
   37.3730   28.8130   30.5070 C   0  0  0  0  0  0  0  0  0  0  0  0
   38.2430   27.9980   31.2300 C   0  0  0  0  0  0  0  0  0  0  0  0
   37.9410   27.6070   32.5190 C   0  0  0  0  0  0  0  0  0  0  0  0
   35.6170   29.8920   30.4430 H   0  0  0  0  0  0  0  0  0  0  0  0
   37.6670   29.0850   29.4980 H   0  0  0  0  0  0  0  0  0  0  0  0
   39.1580   27.6820   30.7480 H   0  0  0  0  0  0  0  0  0  0  0  0
   38.8630   26.7400   33.2960 C   0  0  0  0  0  0  0  0  0  0  0  0
   38.8380   25.3580   33.1380 C   0  0  0  0  0  0  0  0  0  0  0  0
   38.2000   24.7400   32.4810 H   0  0  0  0  0  0  0  0  0  0  0  0
   40.1350   24.7890   34.2970 S   0  0  0  0  0  0  0  0  0  0  0  0
   40.5000   26.5820   34.8120 C   0  0  0  0  0  0  0  0  0  0  0  0
   41.2390   27.0330   35.5450 H   0  0  0  0  0  0  0  0  0  0  0  0
   39.7620   27.1550   34.1770 N   0  0  0  0  0  0  0  0  0  0  0  0
  1  2  1  0  0  0  0
  2  3  2  0  0  0  0
  2  7  1  0  0  0  0
  3  8  1  0  0  0  0
  4  9  1  0  0  0  0
  4  3  1  0  0  0  0
  5  4  2  0  0  0  0
  6  5  1  0  0  0  0
  6  1  2  0  0  0  0
 10  5  1  0  0  0  0
 11 17  1  0  0  0  0
 12  1  1  0  0  0  0
 12 11  2  0  0  0  0
 13 14  2  0  0  0  0
 13 12  1  0  0  0  0
 14 15  1  0  0  0  0
 15 16  2  0  0  0  0
 16 11  1  0  0  0  0
 18 15  1  0  0  0  0
 19 13  1  0  0  0  0
 19 20  1  0  0  0  0
 21 19  1  0  0  0  0
 22 19  1  0  0  0  0
 23  6  1  0  0  0  0
 25 24  1  0  0  0  0
 26 25  2  0  0  0  0
 26 23  1  0  0  0  0
 27 26  1  0  0  0  0
 28 27  2  0  0  0  0
 28 29  1  0  0  0  0
 29 30  2  0  0  0  0
 30 25  1  0  0  0  0
 30 34  1  0  0  0  0
 31 27  1  0  0  0  0
 32 28  1  0  0  0  0
 33 29  1  0  0  0  0
 34 40  1  0  0  0  0
 35 34  2  0  0  0  0
 35 37  1  0  0  0  0
 36 35  1  0  0  0  0
 37 38  1  0  0  0  0
 38 39  1  0  0  0  0
 40 38  2  0  0  0  0
M  END
>  <minimizedAffinity>
-5.80696821

$$$$

 OpenBabel03272506283D

 40 43  0  0  0  0  0  0  0  0999 V2000
   33.5680   30.5830   35.5830 C   0  0  0  0  0  0  0  0  0  0  0  0
   33.4470   31.5850   36.5230 C   0  0  0  0  0  0  0  0  0  0  0  0
   34.4860   32.4640   36.8610 C   0  0  0  0  0  0  0  0  0  0  0  0
   35.7250   32.3100   36.1980 C   0  0  0  0  0  0  0  0  0  0  0  0
   35.8150   31.3100   35.2750 C   0  0  0  0  0  0  0  0  0  0  0  0
   34.8040   30.4600   34.9460 C   0  0  0  0  0  0  0  0  0  0  0  0
   32.4990   31.7230   37.0500 H   0  0  0  0  0  0  0  0  0  0  0  0
   34.2620   33.2250   37.6290 H   0  0  0  0  0  0  0  0  0  0  0  0
   36.4160   33.0450   36.5560 H   0  0  0  0  0  0  0  0  0  0  0  0
   36.8180   31.3700   34.9220 H   0  0  0  0  0  0  0  0  0  0  0  0
   32.2800   28.6350   36.2100 C   0  0  0  0  0  0  0  0  0  0  0  0
   32.4090   29.7540   35.3750 C   0  0  0  0  0  0  0  0  0  0  0  0
   31.4200   29.9840   34.4110 C   0  0  0  0  0  0  0  0  0  0  0  0
   30.3780   29.1120   34.3270 N   0  0  0  0  0  0  0  0  0  0  0  0
   30.2730   28.0280   35.1510 C   0  0  0  0  0  0  0  0  0  0  0  0
   31.2270   27.7960   36.0880 N   0  0  0  0  0  0  0  0  0  0  0  0
   33.0310   28.4360   36.9620 H   0  0  0  0  0  0  0  0  0  0  0  0
   29.4270   27.3580   35.0500 H   0  0  0  0  0  0  0  0  0  0  0  0
   31.4230   31.1260   33.4600 C   0  0  0  0  0  0  0  0  0  0  0  0
   31.2880   32.3330   34.1750 F   0  0  0  0  0  0  0  0  0  0  0  0
   32.5030   31.2240   32.6590 F   0  0  0  0  0  0  0  0  0  0  0  0
   30.2700   31.0800   32.6780 F   0  0  0  0  0  0  0  0  0  0  0  0
   34.9440   29.2100   33.7410 S   0  0  0  0  0  0  0  0  0  0  0  0
   36.4080   28.6300   31.0600 Cl  0  0  0  0  0  0  0  0  0  0  0  0
   37.0710   28.0740   32.5830 C   0  0  0  0  0  0  0  0  0  0  0  0
   36.4600   28.2990   33.8000 C   0  0  0  0  0  0  0  0  0  0  0  0
   37.0170   27.8410   34.9620 C   0  0  0  0  0  0  0  0  0  0  0  0
   38.2160   27.1450   34.8890 C   0  0  0  0  0  0  0  0  0  0  0  0
   38.8350   26.9160   33.6600 C   0  0  0  0  0  0  0  0  0  0  0  0
   38.2720   27.3770   32.4870 C   0  0  0  0  0  0  0  0  0  0  0  0
   36.6220   27.9280   35.9370 H   0  0  0  0  0  0  0  0  0  0  0  0
   38.7090   26.7590   35.7760 H   0  0  0  0  0  0  0  0  0  0  0  0
   39.7680   26.3690   33.6590 H   0  0  0  0  0  0  0  0  0  0  0  0
   38.9250   27.1360   31.1750 C   0  0  0  0  0  0  0  0  0  0  0  0
   38.7460   25.9300   30.5050 C   0  0  0  0  0  0  0  0  0  0  0  0
   38.1560   25.0460   30.8020 H   0  0  0  0  0  0  0  0  0  0  0  0
   39.7410   26.1540   28.9850 S   0  0  0  0  0  0  0  0  0  0  0  0
   40.2420   27.9020   29.5370 C   0  0  0  0  0  0  0  0  0  0  0  0
   40.8950   28.6990   29.0610 H   0  0  0  0  0  0  0  0  0  0  0  0
   39.7050   27.9910   30.5270 N   0  0  0  0  0  0  0  0  0  0  0  0
  1  2  1  0  0  0  0
  2  3  2  0  0  0  0
  2  7  1  0  0  0  0
  3  8  1  0  0  0  0
  4  9  1  0  0  0  0
  4  3  1  0  0  0  0
  5  4  2  0  0  0  0
  6  5  1  0  0  0  0
  6  1  2  0  0  0  0
 10  5  1  0  0  0  0
 11 17  1  0  0  0  0
 12  1  1  0  0  0  0
 12 11  2  0  0  0  0
 13 12  1  0  0  0  0
 14 13  2  0  0  0  0
 14 15  1  0  0  0  0
 15 16  2  0  0  0  0
 16 11  1  0  0  0  0
 18 15  1  0  0  0  0
 19 20  1  0  0  0  0
 19 13  1  0  0  0  0
 21 19  1  0  0  0  0
 22 19  1  0  0  0  0
 23 26  1  0  0  0  0
 23  6  1  0  0  0  0
 24 25  1  0  0  0  0
 25 26  1  0  0  0  0
 26 27  2  0  0  0  0
 27 31  1  0  0  0  0
 28 27  1  0  0  0  0
 28 32  1  0  0  0  0
 29 28  2  0  0  0  0
 30 25  2  0  0  0  0
 30 29  1  0  0  0  0
 33 29  1  0  0  0  0
 34 30  1  0  0  0  0
 35 36  1  0  0  0  0
 35 34  2  0  0  0  0
 37 38  1  0  0  0  0
 37 35  1  0  0  0  0
 38 40  2  0  0  0  0
 39 38  1  0  0  0  0
 40 34  1  0  0  0  0
M  END
>  <minimizedAffinity>
-5.73662138

$$$$

 OpenBabel03272506283D

 40 43  0  0  0  0  0  0  0  0999 V2000
   39.6630   24.8840   33.6870 C   0  0  0  0  0  0  0  0  0  0  0  0
   40.9110   24.8840   34.2750 C   0  0  0  0  0  0  0  0  0  0  0  0
   41.7160   26.0260   34.3920 C   0  0  0  0  0  0  0  0  0  0  0  0
   41.2170   27.2440   33.8740 C   0  0  0  0  0  0  0  0  0  0  0  0
   39.9810   27.2120   33.2980 C   0  0  0  0  0  0  0  0  0  0  0  0
   39.1990   26.1030   33.1890 C   0  0  0  0  0  0  0  0  0  0  0  0
   41.3190   23.9540   34.6810 H   0  0  0  0  0  0  0  0  0  0  0  0
   42.6960   25.8960   34.8840 H   0  0  0  0  0  0  0  0  0  0  0  0
   41.9340   28.0210   34.0330 H   0  0  0  0  0  0  0  0  0  0  0  0
   39.8190   28.2130   32.9730 H   0  0  0  0  0  0  0  0  0  0  0  0
   39.0930   22.8970   32.4320 C   0  0  0  0  0  0  0  0  0  0  0  0
   38.9800   23.6180   33.6300 C   0  0  0  0  0  0  0  0  0  0  0  0
   38.2210   23.0670   34.6710 C   0  0  0  0  0  0  0  0  0  0  0  0
   37.6280   21.8570   34.4730 N   0  0  0  0  0  0  0  0  0  0  0  0
   37.7520   21.1740   33.2980 C   0  0  0  0  0  0  0  0  0  0  0  0
   38.4850   21.7000   32.2830 N   0  0  0  0  0  0  0  0  0  0  0  0
   39.6730   23.3020   31.6150 H   0  0  0  0  0  0  0  0  0  0  0  0
   37.2620   20.2140   33.1830 H   0  0  0  0  0  0  0  0  0  0  0  0
   38.0140   23.7130   35.9920 C   0  0  0  0  0  0  0  0  0  0  0  0
   39.2100   23.6550   36.7370 F   0  0  0  0  0  0  0  0  0  0  0  0
   37.5930   24.9940   35.9640 F   0  0  0  0  0  0  0  0  0  0  0  0
   37.1240   22.9500   36.7460 F   0  0  0  0  0  0  0  0  0  0  0  0
   37.6120   26.1040   32.4710 S   0  0  0  0  0  0  0  0  0  0  0  0
   36.3850   27.6960   34.8420 Cl  0  0  0  0  0  0  0  0  0  0  0  0
   36.4280   28.3790   33.2300 C   0  0  0  0  0  0  0  0  0  0  0  0
   36.9560   27.7130   32.1410 C   0  0  0  0  0  0  0  0  0  0  0  0
   36.9640   28.2890   30.9010 C   0  0  0  0  0  0  0  0  0  0  0  0
   36.4300   29.5630   30.7620 C   0  0  0  0  0  0  0  0  0  0  0  0
   35.8960   30.2370   31.8600 C   0  0  0  0  0  0  0  0  0  0  0  0
   35.8860   29.6560   33.1120 C   0  0  0  0  0  0  0  0  0  0  0  0
   37.3100   27.8610   30.0000 H   0  0  0  0  0  0  0  0  0  0  0  0
   36.4090   30.0740   29.8040 H   0  0  0  0  0  0  0  0  0  0  0  0
   35.4930   31.2270   31.6980 H   0  0  0  0  0  0  0  0  0  0  0  0
   35.3190   30.3670   34.2860 C   0  0  0  0  0  0  0  0  0  0  0  0
   33.9490   30.3490   34.5310 C   0  0  0  0  0  0  0  0  0  0  0  0
   33.1420   29.8590   33.9580 H   0  0  0  0  0  0  0  0  0  0  0  0
   33.7930   31.3510   36.0550 S   0  0  0  0  0  0  0  0  0  0  0  0
   35.6730   31.6280   36.0990 C   0  0  0  0  0  0  0  0  0  0  0  0
   36.3480   32.1950   36.8130 H   0  0  0  0  0  0  0  0  0  0  0  0
   36.0080   31.0580   35.1830 N   0  0  0  0  0  0  0  0  0  0  0  0
  1  2  1  0  0  0  0
  2  3  2  0  0  0  0
  2  7  1  0  0  0  0
  3  8  1  0  0  0  0
  4  9  1  0  0  0  0
  4  3  1  0  0  0  0
  5  4  2  0  0  0  0
  6  5  1  0  0  0  0
  6  1  2  0  0  0  0
 10  5  1  0  0  0  0
 11 12  1  0  0  0  0
 12  1  1  0  0  0  0
 12 13  2  0  0  0  0
 13 19  1  0  0  0  0
 14 13  1  0  0  0  0
 15 14  2  0  0  0  0
 16 11  2  0  0  0  0
 16 15  1  0  0  0  0
 17 11  1  0  0  0  0
 18 15  1  0  0  0  0
 19 20  1  0  0  0  0
 19 22  1  0  0  0  0
 21 19  1  0  0  0  0
 23  6  1  0  0  0  0
 25 24  1  0  0  0  0
 26 23  1  0  0  0  0
 26 25  2  0  0  0  0
 27 26  1  0  0  0  0
 28 27  2  0  0  0  0
 28 29  1  0  0  0  0
 29 30  2  0  0  0  0
 30 25  1  0  0  0  0
 30 34  1  0  0  0  0
 31 27  1  0  0  0  0
 32 28  1  0  0  0  0
 33 29  1  0  0  0  0
 34 35  2  0  0  0  0
 34 40  1  0  0  0  0
 35 37  1  0  0  0  0
 36 35  1  0  0  0  0
 37 38  1  0  0  0  0
 38 39  1  0  0  0  0
 40 38  2  0  0  0  0
M  END
>  <minimizedAffinity>
-5.73269987

$$$$

 OpenBabel03272506283D

 40 43  0  0  0  0  0  0  0  0999 V2000
   37.5960   27.7090   31.9450 C   0  0  0  0  0  0  0  0  0  0  0  0
   38.2240   27.7820   30.7190 C   0  0  0  0  0  0  0  0  0  0  0  0
   37.9830   28.7960   29.7800 C   0  0  0  0  0  0  0  0  0  0  0  0
   37.0420   29.7970   30.1140 C   0  0  0  0  0  0  0  0  0  0  0  0
   36.4370   29.6970   31.3330 C   0  0  0  0  0  0  0  0  0  0  0  0
   36.6740   28.7140   32.2440 C   0  0  0  0  0  0  0  0  0  0  0  0
   38.9550   27.0190   30.4370 H   0  0  0  0  0  0  0  0  0  0  0  0
   38.5520   28.7430   28.8350 H   0  0  0  0  0  0  0  0  0  0  0  0
   36.9630   30.4970   29.3090 H   0  0  0  0  0  0  0  0  0  0  0  0
   35.7720   30.5290   31.3620 H   0  0  0  0  0  0  0  0  0  0  0  0
   38.9410   26.8070   33.7400 C   0  0  0  0  0  0  0  0  0  0  0  0
   37.9430   26.5880   32.7790 C   0  0  0  0  0  0  0  0  0  0  0  0
   37.3650   25.3150   32.6950 C   0  0  0  0  0  0  0  0  0  0  0  0
   37.7960   24.3480   33.5510 N   0  0  0  0  0  0  0  0  0  0  0  0
   38.7690   24.5830   34.4790 C   0  0  0  0  0  0  0  0  0  0  0  0
   39.3360   25.8130   34.5670 N   0  0  0  0  0  0  0  0  0  0  0  0
   39.4020   27.7810   33.8240 H   0  0  0  0  0  0  0  0  0  0  0  0
   39.0830   23.7840   35.1400 H   0  0  0  0  0  0  0  0  0  0  0  0
   36.3000   24.9380   31.7300 C   0  0  0  0  0  0  0  0  0  0  0  0
   35.7930   23.6660   32.0630 F   0  0  0  0  0  0  0  0  0  0  0  0
   35.2650   25.7950   31.6280 F   0  0  0  0  0  0  0  0  0  0  0  0
   36.8660   24.7440   30.4710 F   0  0  0  0  0  0  0  0  0  0  0  0
   35.9030   28.6320   33.8030 S   0  0  0  0  0  0  0  0  0  0  0  0
   36.1530   31.0750   35.7100 Cl  0  0  0  0  0  0  0  0  0  0  0  0
   34.6650   30.7660   34.8380 C   0  0  0  0  0  0  0  0  0  0  0  0
   34.4990   29.6940   33.9840 C   0  0  0  0  0  0  0  0  0  0  0  0
   33.3150   29.4940   33.3290 C   0  0  0  0  0  0  0  0  0  0  0  0
   32.2840   30.3990   33.5410 C   0  0  0  0  0  0  0  0  0  0  0  0
   32.4500   31.4820   34.4030 C   0  0  0  0  0  0  0  0  0  0  0  0
   33.6430   31.6830   35.0660 C   0  0  0  0  0  0  0  0  0  0  0  0
   33.0700   28.6960   32.6840 H   0  0  0  0  0  0  0  0  0  0  0  0
   31.3210   30.2960   33.0490 H   0  0  0  0  0  0  0  0  0  0  0  0
   31.6150   32.1570   34.5330 H   0  0  0  0  0  0  0  0  0  0  0  0
   33.8280   32.8340   35.9870 C   0  0  0  0  0  0  0  0  0  0  0  0
   33.4120   32.7550   37.3120 C   0  0  0  0  0  0  0  0  0  0  0  0
   32.9280   31.9180   37.8450 H   0  0  0  0  0  0  0  0  0  0  0  0
   33.8610   34.3990   37.9810 S   0  0  0  0  0  0  0  0  0  0  0  0
   34.5590   34.9260   36.2940 C   0  0  0  0  0  0  0  0  0  0  0  0
   35.0430   35.8850   35.9300 H   0  0  0  0  0  0  0  0  0  0  0  0
   34.3770   33.9990   35.6730 N   0  0  0  0  0  0  0  0  0  0  0  0
  1  6  1  0  0  0  0
  1 12  1  0  0  0  0
  2  1  2  0  0  0  0
  3  4  2  0  0  0  0
  3  2  1  0  0  0  0
  4  5  1  0  0  0  0
  5 10  1  0  0  0  0
  5  6  2  0  0  0  0
  6 23  1  0  0  0  0
  7  2  1  0  0  0  0
  8  3  1  0  0  0  0
  9  4  1  0  0  0  0
 11 17  1  0  0  0  0
 11 16  1  0  0  0  0
 12 11  2  0  0  0  0
 13 12  1  0  0  0  0
 13 14  2  0  0  0  0
 14 15  1  0  0  0  0
 15 16  2  0  0  0  0
 15 18  1  0  0  0  0
 19 20  1  0  0  0  0
 19 13  1  0  0  0  0
 21 19  1  0  0  0  0
 22 19  1  0  0  0  0
 23 26  1  0  0  0  0
 25 30  1  0  0  0  0
 25 24  1  0  0  0  0
 26 25  2  0  0  0  0
 27 28  2  0  0  0  0
 27 26  1  0  0  0  0
 28 29  1  0  0  0  0
 29 33  1  0  0  0  0
 29 30  2  0  0  0  0
 30 34  1  0  0  0  0
 31 27  1  0  0  0  0
 32 28  1  0  0  0  0
 34 35  2  0  0  0  0
 35 36  1  0  0  0  0
 35 37  1  0  0  0  0
 38 37  1  0  0  0  0
 39 38  1  0  0  0  0
 40 34  1  0  0  0  0
 40 38  2  0  0  0  0
M  END
>  <minimizedAffinity>
-5.69954777

$$$$

 OpenBabel03272506283D

 40 43  0  0  0  0  0  0  0  0999 V2000
   33.6500   31.1130   34.6630 C   0  0  0  0  0  0  0  0  0  0  0  0
   33.7850   32.1420   35.5720 C   0  0  0  0  0  0  0  0  0  0  0  0
   34.9850   32.4460   36.2320 C   0  0  0  0  0  0  0  0  0  0  0  0
   36.1170   31.6480   35.9460 C   0  0  0  0  0  0  0  0  0  0  0  0
   35.9520   30.6380   35.0440 C   0  0  0  0  0  0  0  0  0  0  0  0
   34.7880   30.3470   34.4020 C   0  0  0  0  0  0  0  0  0  0  0  0
   32.9230   32.7720   35.8110 H   0  0  0  0  0  0  0  0  0  0  0  0
   34.9630   33.2960   36.9360 H   0  0  0  0  0  0  0  0  0  0  0  0
   36.9520   31.9940   36.5180 H   0  0  0  0  0  0  0  0  0  0  0  0
   36.9090   30.1720   34.9970 H   0  0  0  0  0  0  0  0  0  0  0  0
   32.0760   31.5960   32.8930 C   0  0  0  0  0  0  0  0  0  0  0  0
   32.3400   30.9250   34.0950 C   0  0  0  0  0  0  0  0  0  0  0  0
   31.3290   30.1340   34.6540 C   0  0  0  0  0  0  0  0  0  0  0  0
   30.1350   30.0510   34.0050 N   0  0  0  0  0  0  0  0  0  0  0  0
   29.9000   30.7140   32.8340 C   0  0  0  0  0  0  0  0  0  0  0  0
   30.8740   31.4840   32.2850 N   0  0  0  0  0  0  0  0  0  0  0  0
   32.8410   32.2130   32.4420 H   0  0  0  0  0  0  0  0  0  0  0  0
   28.9340   30.6200   32.3510 H   0  0  0  0  0  0  0  0  0  0  0  0
   31.4640   29.3670   35.9190 C   0  0  0  0  0  0  0  0  0  0  0  0
   31.7730   30.2510   36.9730 F   0  0  0  0  0  0  0  0  0  0  0  0
   30.3950   28.6310   36.2810 F   0  0  0  0  0  0  0  0  0  0  0  0
   32.5880   28.5450   35.8440 F   0  0  0  0  0  0  0  0  0  0  0  0
   34.6190   29.0660   33.2350 S   0  0  0  0  0  0  0  0  0  0  0  0
   36.7170   27.2840   34.6800 Cl  0  0  0  0  0  0  0  0  0  0  0  0
   37.0020   27.8650   33.0520 C   0  0  0  0  0  0  0  0  0  0  0  0
   36.1080   28.6630   32.3670 C   0  0  0  0  0  0  0  0  0  0  0  0
   36.3790   29.0940   31.0980 C   0  0  0  0  0  0  0  0  0  0  0  0
   37.5770   28.7060   30.5120 C   0  0  0  0  0  0  0  0  0  0  0  0
   38.4820   27.9010   31.2030 C   0  0  0  0  0  0  0  0  0  0  0  0
   38.2090   27.4670   32.4840 C   0  0  0  0  0  0  0  0  0  0  0  0
   35.7860   29.7290   30.4990 H   0  0  0  0  0  0  0  0  0  0  0  0
   37.8490   29.0140   29.5070 H   0  0  0  0  0  0  0  0  0  0  0  0
   39.4000   27.6280   30.7010 H   0  0  0  0  0  0  0  0  0  0  0  0
   39.1690   26.6090   33.2260 C   0  0  0  0  0  0  0  0  0  0  0  0
   39.1550   25.2270   33.0650 C   0  0  0  0  0  0  0  0  0  0  0  0
   38.5030   24.6030   32.4290 H   0  0  0  0  0  0  0  0  0  0  0  0
   40.5000   24.6720   34.1760 S   0  0  0  0  0  0  0  0  0  0  0  0
   40.8590   26.4690   34.6840 C   0  0  0  0  0  0  0  0  0  0  0  0
   41.6170   26.9280   35.3920 H   0  0  0  0  0  0  0  0  0  0  0  0
   40.0930   27.0340   34.0760 N   0  0  0  0  0  0  0  0  0  0  0  0
  1  2  1  0  0  0  0
  2  7  1  0  0  0  0
  2  3  2  0  0  0  0
  3  8  1  0  0  0  0
  4  3  1  0  0  0  0
  4  9  1  0  0  0  0
  5  4  2  0  0  0  0
  6  1  2  0  0  0  0
  6  5  1  0  0  0  0
 10  5  1  0  0  0  0
 11 12  1  0  0  0  0
 12 13  2  0  0  0  0
 12  1  1  0  0  0  0
 13 19  1  0  0  0  0
 14 13  1  0  0  0  0
 15 14  2  0  0  0  0
 16 15  1  0  0  0  0
 16 11  2  0  0  0  0
 17 11  1  0  0  0  0
 18 15  1  0  0  0  0
 19 21  1  0  0  0  0
 19 20  1  0  0  0  0
 22 19  1  0  0  0  0
 23  6  1  0  0  0  0
 25 24  1  0  0  0  0
 26 25  2  0  0  0  0
 26 23  1  0  0  0  0
 27 26  1  0  0  0  0
 28 27  2  0  0  0  0
 28 29  1  0  0  0  0
 29 30  2  0  0  0  0
 30 25  1  0  0  0  0
 30 34  1  0  0  0  0
 31 27  1  0  0  0  0
 32 28  1  0  0  0  0
 33 29  1  0  0  0  0
 34 40  1  0  0  0  0
 35 34  2  0  0  0  0
 35 37  1  0  0  0  0
 36 35  1  0  0  0  0
 37 38  1  0  0  0  0
 38 39  1  0  0  0  0
 40 38  2  0  0  0  0
M  END
>  <minimizedAffinity>
-5.6675477

$$$$
