
 OpenBabel03272508413D

 40 43  0  0  1  0  0  0  0  0999 V2000
   35.6060   30.0340   32.5400 N   0  0  0  0  0  0  0  0  0  0  0  0
   35.8050   28.5960   32.6790 C   0  0  0  0  0  0  0  0  0  0  0  0
   36.6670   28.0000   31.6540 C   0  0  2  0  0  0  0  0  0  0  0  0
   36.3470   28.4980   30.2910 N   0  0  0  0  0  0  0  0  0  0  0  0
   36.4270   29.9710   30.3440 C   0  0  0  0  0  0  0  0  0  0  0  0
   35.2380   30.3440   31.2040 C   0  0  0  0  0  0  0  0  0  0  0  0
   34.7420   28.2400   32.4480 H   0  0  0  0  0  0  0  0  0  0  0  0
   36.1260   28.3540   33.6900 H   0  0  0  0  0  0  0  0  0  0  0  0
   37.7410   28.2700   31.6810 H   0  0  0  0  0  0  0  0  0  0  0  0
   35.3490   28.2870   30.0690 H   0  0  0  0  0  0  0  0  0  0  0  0
   36.2590   30.3570   29.3270 H   0  0  0  0  0  0  0  0  0  0  0  0
   37.3560   30.3240   30.8110 H   0  0  0  0  0  0  0  0  0  0  0  0
   34.9700   31.4070   31.1310 H   0  0  0  0  0  0  0  0  0  0  0  0
   34.3490   29.7560   30.8820 H   0  0  0  0  0  0  0  0  0  0  0  0
   38.7740   26.5360   33.1560 Cl  0  0  0  0  0  0  0  0  0  0  0  0
   37.4120   25.7590   32.3660 C   0  0  0  0  0  0  0  0  0  0  0  0
   36.5340   26.5540   31.6690 C   0  0  0  0  0  0  0  0  0  0  0  0
   35.4080   26.0700   30.9900 C   0  0  0  0  0  0  0  0  0  0  0  0
   35.2250   24.6790   31.0590 C   0  0  0  0  0  0  0  0  0  0  0  0
   36.1110   23.8660   31.7630 C   0  0  0  0  0  0  0  0  0  0  0  0
   37.1840   24.4160   32.4020 C   0  0  0  0  0  0  0  0  0  0  0  0
   34.6070   26.4630   30.4110 H   0  0  0  0  0  0  0  0  0  0  0  0
   34.4020   24.1350   30.5870 H   0  0  0  0  0  0  0  0  0  0  0  0
   35.9240   22.7870   31.7860 H   0  0  0  0  0  0  0  0  0  0  0  0
   38.1580   23.5850   33.1700 C   0  0  0  0  0  0  0  0  0  0  0  0
   39.2610   23.0150   32.4000 C   0  0  0  0  0  0  0  0  0  0  0  0
   39.5480   23.0610   31.3460 H   0  0  0  0  0  0  0  0  0  0  0  0
   40.1770   22.0870   33.7700 S   0  0  0  0  0  0  0  0  0  0  0  0
   38.9390   22.6270   35.0670 C   0  0  0  0  0  0  0  0  0  0  0  0
   38.9800   22.3640   36.1010 H   0  0  0  0  0  0  0  0  0  0  0  0
   38.0350   23.3760   34.4510 N   0  0  0  0  0  0  0  0  0  0  0  0
   35.7560   30.9380   33.6180 C   0  0  0  0  0  0  0  0  0  0  0  0
   35.6420   30.5310   34.9500 C   0  0  0  0  0  0  0  0  0  0  0  0
   35.8040   31.4790   35.9520 C   0  0  0  0  0  0  0  0  0  0  0  0
   36.0710   32.7860   35.5770 N   0  0  0  0  0  0  0  0  0  0  0  0
   36.1710   33.1290   34.2720 C   0  0  0  0  0  0  0  0  0  0  0  0
   36.0200   32.2350   33.3100 N   0  0  0  0  0  0  0  0  0  0  0  0
   35.4320   29.4910   35.1550 H   0  0  0  0  0  0  0  0  0  0  0  0
   35.7190   31.1810   36.9860 H   0  0  0  0  0  0  0  0  0  0  0  0
   36.3820   34.1790   34.1200 H   0  0  0  0  0  0  0  0  0  0  0  0
  1  2  1  0  0  0  0
  1 32  1  0  0  0  0
  2  8  1  0  0  0  0
  3 17  1  0  0  0  0
  3  9  1  1  0  0  0
  3  2  1  0  0  0  0
  4  5  1  0  0  0  0
  4  3  1  0  0  0  0
  5 12  1  0  0  0  0
  5  6  1  0  0  0  0
  6  1  1  0  0  0  0
  7  2  1  0  0  0  0
 10  4  1  0  0  0  0
 11  5  1  0  0  0  0
 13  6  1  0  0  0  0
 14  6  1  0  0  0  0
 16 21  1  0  0  0  0
 16 15  1  0  0  0  0
 17 16  2  0  0  0  0
 18 19  2  0  0  0  0
 18 17  1  0  0  0  0
 19 20  1  0  0  0  0
 20 24  1  0  0  0  0
 20 21  2  0  0  0  0
 21 25  1  0  0  0  0
 22 18  1  0  0  0  0
 23 19  1  0  0  0  0
 25 31  1  0  0  0  0
 26 25  2  0  0  0  0
 26 28  1  0  0  0  0
 27 26  1  0  0  0  0
 28 29  1  0  0  0  0
 29 30  1  0  0  0  0
 31 29  2  0  0  0  0
 32 33  1  0  0  0  0
 33 38  1  0  0  0  0
 33 34  2  0  0  0  0
 34 39  1  0  0  0  0
 35 34  1  0  0  0  0
 36 35  2  0  0  0  0
 37 32  2  0  0  0  0
 37 36  1  0  0  0  0
 40 36  1  0  0  0  0
M  END
>  <minimizedAffinity>
-5.42554379

$$$$

 OpenBabel03272508413D

 40 43  0  0  1  0  0  0  0  0999 V2000
   34.9440   29.8640   33.8740 N   0  0  0  0  0  0  0  0  0  0  0  0
   35.5340   28.5320   33.9520 C   0  0  0  0  0  0  0  0  0  0  0  0
   36.7150   28.3410   33.1060 C   0  0  2  0  0  0  0  0  0  0  0  0
   36.5300   28.9070   31.7440 N   0  0  0  0  0  0  0  0  0  0  0  0
   36.1540   30.3240   31.9180 C   0  0  0  0  0  0  0  0  0  0  0  0
   34.7660   30.2350   32.5150 C   0  0  0  0  0  0  0  0  0  0  0  0
   34.6920   27.9300   33.4650 H   0  0  0  0  0  0  0  0  0  0  0  0
   35.7110   28.2570   34.9890 H   0  0  0  0  0  0  0  0  0  0  0  0
   37.6330   28.8910   33.3910 H   0  0  0  0  0  0  0  0  0  0  0  0
   35.7040   28.4590   31.2910 H   0  0  0  0  0  0  0  0  0  0  0  0
   36.0780   30.7800   30.9190 H   0  0  0  0  0  0  0  0  0  0  0  0
   36.8260   30.8550   32.6040 H   0  0  0  0  0  0  0  0  0  0  0  0
   34.2120   31.1820   32.4590 H   0  0  0  0  0  0  0  0  0  0  0  0
   34.1730   29.4710   31.9610 H   0  0  0  0  0  0  0  0  0  0  0  0
   38.5010   27.2380   35.2110 Cl  0  0  0  0  0  0  0  0  0  0  0  0
   37.7950   26.2780   33.9210 C   0  0  0  0  0  0  0  0  0  0  0  0
   37.0210   26.9260   32.9880 C   0  0  0  0  0  0  0  0  0  0  0  0
   36.3990   26.2880   31.9070 C   0  0  0  0  0  0  0  0  0  0  0  0
   36.6240   24.9040   31.8230 C   0  0  0  0  0  0  0  0  0  0  0  0
   37.4090   24.2400   32.7650 C   0  0  0  0  0  0  0  0  0  0  0  0
   37.9770   24.9340   33.7920 C   0  0  0  0  0  0  0  0  0  0  0  0
   35.7710   26.5530   31.0900 H   0  0  0  0  0  0  0  0  0  0  0  0
   36.2180   24.2520   31.0450 H   0  0  0  0  0  0  0  0  0  0  0  0
   37.5540   23.1600   32.6550 H   0  0  0  0  0  0  0  0  0  0  0  0
   38.8240   24.2640   34.8250 C   0  0  0  0  0  0  0  0  0  0  0  0
   38.1100   23.6800   35.9580 C   0  0  0  0  0  0  0  0  0  0  0  0
   37.0540   23.6180   36.2330 H   0  0  0  0  0  0  0  0  0  0  0  0
   39.5660   22.9820   36.9420 S   0  0  0  0  0  0  0  0  0  0  0  0
   40.8090   23.5920   35.6820 C   0  0  0  0  0  0  0  0  0  0  0  0
   41.8660   23.4580   35.7470 H   0  0  0  0  0  0  0  0  0  0  0  0
   40.1230   24.2030   34.7260 N   0  0  0  0  0  0  0  0  0  0  0  0
   34.6060   30.6230   35.0190 C   0  0  0  0  0  0  0  0  0  0  0  0
   35.5260   31.4620   35.6530 C   0  0  0  0  0  0  0  0  0  0  0  0
   35.1160   32.1750   36.7720 C   0  0  0  0  0  0  0  0  0  0  0  0
   33.8100   32.0150   37.2050 N   0  0  0  0  0  0  0  0  0  0  0  0
   32.9580   31.1900   36.5560 C   0  0  0  0  0  0  0  0  0  0  0  0
   33.3360   30.5070   35.4890 N   0  0  0  0  0  0  0  0  0  0  0  0
   36.5260   31.5280   35.2490 H   0  0  0  0  0  0  0  0  0  0  0  0
   35.8150   32.8270   37.2730 H   0  0  0  0  0  0  0  0  0  0  0  0
   31.9710   31.1590   36.9980 H   0  0  0  0  0  0  0  0  0  0  0  0
  1  2  1  0  0  0  0
  1 32  1  0  0  0  0
  2  8  1  0  0  0  0
  3  9  1  1  0  0  0
  3  2  1  0  0  0  0
  4  5  1  0  0  0  0
  4  3  1  0  0  0  0
  5  6  1  0  0  0  0
  5 12  1  0  0  0  0
  6  1  1  0  0  0  0
  7  2  1  0  0  0  0
 10  4  1  0  0  0  0
 11  5  1  0  0  0  0
 13  6  1  0  0  0  0
 14  6  1  0  0  0  0
 16 15  1  0  0  0  0
 17  3  1  0  0  0  0
 17 16  2  0  0  0  0
 18 17  1  0  0  0  0
 19 18  2  0  0  0  0
 19 20  1  0  0  0  0
 20 21  2  0  0  0  0
 21 16  1  0  0  0  0
 21 25  1  0  0  0  0
 22 18  1  0  0  0  0
 23 19  1  0  0  0  0
 24 20  1  0  0  0  0
 25 26  2  0  0  0  0
 26 27  1  0  0  0  0
 26 28  1  0  0  0  0
 29 30  1  0  0  0  0
 29 28  1  0  0  0  0
 31 25  1  0  0  0  0
 31 29  2  0  0  0  0
 32 37  2  0  0  0  0
 32 33  1  0  0  0  0
 33 34  2  0  0  0  0
 34 35  1  0  0  0  0
 34 39  1  0  0  0  0
 36 40  1  0  0  0  0
 36 35  2  0  0  0  0
 37 36  1  0  0  0  0
 38 33  1  0  0  0  0
M  END
>  <minimizedAffinity>
-5.40789747

$$$$

 OpenBabel03272508413D

 40 43  0  0  1  0  0  0  0  0999 V2000
   37.6440   25.7730   33.3280 N   0  0  0  0  0  0  0  0  0  0  0  0
   38.0200   24.7670   34.3150 C   0  0  0  0  0  0  0  0  0  0  0  0
   38.0610   25.2570   35.6950 C   0  0  2  0  0  0  0  0  0  0  0  0
   38.7320   26.5790   35.8040 N   0  0  0  0  0  0  0  0  0  0  0  0
   38.0330   27.4900   34.8760 C   0  0  0  0  0  0  0  0  0  0  0  0
   38.4170   26.9490   33.5160 C   0  0  0  0  0  0  0  0  0  0  0  0
   39.1080   24.6020   34.0030 H   0  0  0  0  0  0  0  0  0  0  0  0
   37.4040   23.8780   34.2030 H   0  0  0  0  0  0  0  0  0  0  0  0
   37.0930   25.5230   36.1640 H   0  0  0  0  0  0  0  0  0  0  0  0
   39.7050   26.5060   35.4340 H   0  0  0  0  0  0  0  0  0  0  0  0
   38.4720   28.4930   34.9920 H   0  0  0  0  0  0  0  0  0  0  0  0
   36.9430   27.4600   35.0010 H   0  0  0  0  0  0  0  0  0  0  0  0
   38.2200   27.6560   32.7000 H   0  0  0  0  0  0  0  0  0  0  0  0
   39.5080   26.7220   33.5020 H   0  0  0  0  0  0  0  0  0  0  0  0
   40.6500   24.2540   34.6320 Cl  0  0  0  0  0  0  0  0  0  0  0  0
   39.9880   23.7990   36.1940 C   0  0  0  0  0  0  0  0  0  0  0  0
   38.7580   24.3060   36.5420 C   0  0  0  0  0  0  0  0  0  0  0  0
   38.1110   24.0260   37.7520 C   0  0  0  0  0  0  0  0  0  0  0  0
   38.8090   23.1650   38.6160 C   0  0  0  0  0  0  0  0  0  0  0  0
   40.0560   22.6470   38.2690 C   0  0  0  0  0  0  0  0  0  0  0  0
   40.6210   22.9710   37.0710 C   0  0  0  0  0  0  0  0  0  0  0  0
   37.2020   24.2880   38.2390 H   0  0  0  0  0  0  0  0  0  0  0  0
   38.4510   22.8410   39.5970 H   0  0  0  0  0  0  0  0  0  0  0  0
   40.5590   21.9800   38.9770 H   0  0  0  0  0  0  0  0  0  0  0  0
   41.9560   22.4420   36.6580 C   0  0  0  0  0  0  0  0  0  0  0  0
   42.0310   21.0010   36.4310 C   0  0  0  0  0  0  0  0  0  0  0  0
   41.3030   20.1880   36.4970 H   0  0  0  0  0  0  0  0  0  0  0  0
   43.8520   20.8360   35.9480 S   0  0  0  0  0  0  0  0  0  0  0  0
   44.1480   22.6750   36.1400 C   0  0  0  0  0  0  0  0  0  0  0  0
   45.0810   23.1670   35.9750 H   0  0  0  0  0  0  0  0  0  0  0  0
   42.9940   23.2160   36.5080 N   0  0  0  0  0  0  0  0  0  0  0  0
   36.6550   25.5480   32.3400 C   0  0  0  0  0  0  0  0  0  0  0  0
   36.3670   24.2700   31.8550 C   0  0  0  0  0  0  0  0  0  0  0  0
   35.3820   24.1320   30.8870 C   0  0  0  0  0  0  0  0  0  0  0  0
   34.7330   25.2750   30.4480 N   0  0  0  0  0  0  0  0  0  0  0  0
   35.0490   26.4900   30.9500 C   0  0  0  0  0  0  0  0  0  0  0  0
   35.9850   26.6340   31.8730 N   0  0  0  0  0  0  0  0  0  0  0  0
   36.9220   23.4310   32.2520 H   0  0  0  0  0  0  0  0  0  0  0  0
   35.1470   23.1510   30.5020 H   0  0  0  0  0  0  0  0  0  0  0  0
   34.4670   27.2950   30.5220 H   0  0  0  0  0  0  0  0  0  0  0  0
  1  6  1  0  0  0  0
  1  2  1  0  0  0  0
  2  3  1  0  0  0  0
  3  4  1  0  0  0  0
  3  9  1  1  0  0  0
  3 17  1  0  0  0  0
  5 11  1  0  0  0  0
  5 12  1  0  0  0  0
  5  4  1  0  0  0  0
  6  5  1  0  0  0  0
  7  2  1  0  0  0  0
  8  2  1  0  0  0  0
 10  4  1  0  0  0  0
 13  6  1  0  0  0  0
 14  6  1  0  0  0  0
 15 16  1  0  0  0  0
 16 17  2  0  0  0  0
 16 21  1  0  0  0  0
 17 18  1  0  0  0  0
 18 22  1  0  0  0  0
 18 19  2  0  0  0  0
 19 23  1  0  0  0  0
 20 19  1  0  0  0  0
 20 24  1  0  0  0  0
 21 20  2  0  0  0  0
 25 21  1  0  0  0  0
 26 27  1  0  0  0  0
 26 25  2  0  0  0  0
 28 29  1  0  0  0  0
 28 26  1  0  0  0  0
 29 31  2  0  0  0  0
 30 29  1  0  0  0  0
 31 25  1  0  0  0  0
 32  1  1  0  0  0  0
 33 38  1  0  0  0  0
 33 32  2  0  0  0  0
 34 33  1  0  0  0  0
 35 34  2  0  0  0  0
 35 36  1  0  0  0  0
 36 37  2  0  0  0  0
 37 32  1  0  0  0  0
 39 34  1  0  0  0  0
 40 36  1  0  0  0  0
M  END
>  <minimizedAffinity>
-5.18386602

$$$$

 OpenBabel03272508413D

 40 43  0  0  1  0  0  0  0  0999 V2000
   37.3890   25.6770   32.4860 N   0  0  0  0  0  0  0  0  0  0  0  0
   37.4840   27.0510   32.0040 C   0  0  0  0  0  0  0  0  0  0  0  0
   36.2930   27.5290   31.2950 C   0  0  2  0  0  0  0  0  0  0  0  0
   35.7670   26.5230   30.3360 N   0  0  0  0  0  0  0  0  0  0  0  0
   35.5370   25.2820   31.1030 C   0  0  0  0  0  0  0  0  0  0  0  0
   36.9410   24.8280   31.4400 C   0  0  0  0  0  0  0  0  0  0  0  0
   38.2940   26.9110   31.2080 H   0  0  0  0  0  0  0  0  0  0  0  0
   37.7880   27.7150   32.8100 H   0  0  0  0  0  0  0  0  0  0  0  0
   35.3760   27.6800   31.8980 H   0  0  0  0  0  0  0  0  0  0  0  0
   36.5080   26.2820   29.6430 H   0  0  0  0  0  0  0  0  0  0  0  0
   35.0830   24.5440   30.4240 H   0  0  0  0  0  0  0  0  0  0  0  0
   34.9650   25.4570   32.0230 H   0  0  0  0  0  0  0  0  0  0  0  0
   36.9880   23.7810   31.7680 H   0  0  0  0  0  0  0  0  0  0  0  0
   37.5870   24.9210   30.5380 H   0  0  0  0  0  0  0  0  0  0  0  0
   35.4470   30.0500   32.6260 Cl  0  0  0  0  0  0  0  0  0  0  0  0
   36.3070   29.9880   31.0950 C   0  0  0  0  0  0  0  0  0  0  0  0
   36.6000   28.7510   30.5730 C   0  0  0  0  0  0  0  0  0  0  0  0
   37.2770   28.5520   29.3630 C   0  0  0  0  0  0  0  0  0  0  0  0
   37.6470   29.7280   28.6880 C   0  0  0  0  0  0  0  0  0  0  0  0
   37.3530   30.9860   29.2120 C   0  0  0  0  0  0  0  0  0  0  0  0
   36.6930   31.0940   30.4000 C   0  0  0  0  0  0  0  0  0  0  0  0
   37.6150   27.7340   28.7730 H   0  0  0  0  0  0  0  0  0  0  0  0
   38.1790   29.7570   27.7330 H   0  0  0  0  0  0  0  0  0  0  0  0
   37.6630   31.8720   28.6470 H   0  0  0  0  0  0  0  0  0  0  0  0
   36.3590   32.4210   31.0000 C   0  0  0  0  0  0  0  0  0  0  0  0
   35.0990   33.0200   30.5690 C   0  0  0  0  0  0  0  0  0  0  0  0
   34.3110   32.7060   29.8780 H   0  0  0  0  0  0  0  0  0  0  0  0
   35.1330   34.6230   31.5720 S   0  0  0  0  0  0  0  0  0  0  0  0
   36.7810   34.1900   32.3500 C   0  0  0  0  0  0  0  0  0  0  0  0
   37.3050   34.7960   33.0540 H   0  0  0  0  0  0  0  0  0  0  0  0
   37.1420   33.0120   31.8590 N   0  0  0  0  0  0  0  0  0  0  0  0
   37.7230   25.3030   33.8090 C   0  0  0  0  0  0  0  0  0  0  0  0
   37.7180   26.2190   34.8640 C   0  0  0  0  0  0  0  0  0  0  0  0
   38.0570   25.7720   36.1350 C   0  0  0  0  0  0  0  0  0  0  0  0
   38.3850   24.4360   36.2910 N   0  0  0  0  0  0  0  0  0  0  0  0
   38.3750   23.5890   35.2360 C   0  0  0  0  0  0  0  0  0  0  0  0
   38.0540   24.0010   34.0220 N   0  0  0  0  0  0  0  0  0  0  0  0
   37.4500   27.2440   34.6540 H   0  0  0  0  0  0  0  0  0  0  0  0
   38.0580   26.4680   36.9600 H   0  0  0  0  0  0  0  0  0  0  0  0
   38.6500   22.5760   35.4970 H   0  0  0  0  0  0  0  0  0  0  0  0
  1 32  1  0  0  0  0
  2  1  1  0  0  0  0
  2  8  1  0  0  0  0
  3  9  1  1  0  0  0
  3  2  1  0  0  0  0
  4  5  1  0  0  0  0
  4  3  1  0  0  0  0
  5  6  1  0  0  0  0
  5 12  1  0  0  0  0
  6 13  1  0  0  0  0
  6  1  1  0  0  0  0
  7  2  1  0  0  0  0
 10  4  1  0  0  0  0
 11  5  1  0  0  0  0
 14  6  1  0  0  0  0
 16 15  1  0  0  0  0
 17 16  1  0  0  0  0
 17  3  1  0  0  0  0
 18 17  2  0  0  0  0
 19 20  2  0  0  0  0
 19 18  1  0  0  0  0
 20 21  1  0  0  0  0
 21 25  1  0  0  0  0
 21 16  2  0  0  0  0
 22 18  1  0  0  0  0
 23 19  1  0  0  0  0
 24 20  1  0  0  0  0
 25 31  1  0  0  0  0
 26 25  2  0  0  0  0
 26 28  1  0  0  0  0
 27 26  1  0  0  0  0
 28 29  1  0  0  0  0
 29 30  1  0  0  0  0
 31 29  2  0  0  0  0
 32 37  2  0  0  0  0
 32 33  1  0  0  0  0
 33 34  2  0  0  0  0
 34 35  1  0  0  0  0
 34 39  1  0  0  0  0
 36 40  1  0  0  0  0
 36 35  2  0  0  0  0
 37 36  1  0  0  0  0
 38 33  1  0  0  0  0
M  END
>  <minimizedAffinity>
-5.1783042

$$$$

 OpenBabel03272508413D

 40 43  0  0  1  0  0  0  0  0999 V2000
   37.2780   27.1930   33.5780 N   0  0  0  0  0  0  0  0  0  0  0  0
   36.6300   28.1690   34.4460 C   0  0  0  0  0  0  0  0  0  0  0  0
   35.4900   28.8600   33.8380 C   0  0  2  0  0  0  0  0  0  0  0  0
   35.7710   29.2930   32.4440 N   0  0  0  0  0  0  0  0  0  0  0  0
   36.1960   28.0900   31.7010 C   0  0  0  0  0  0  0  0  0  0  0  0
   37.5450   27.7740   32.3100 C   0  0  0  0  0  0  0  0  0  0  0  0
   37.4720   28.9420   34.5130 H   0  0  0  0  0  0  0  0  0  0  0  0
   36.3860   27.7200   35.4060 H   0  0  0  0  0  0  0  0  0  0  0  0
   34.5810   28.2560   33.6440 H   0  0  0  0  0  0  0  0  0  0  0  0
   36.6010   29.9250   32.4370 H   0  0  0  0  0  0  0  0  0  0  0  0
   36.3440   28.3770   30.6480 H   0  0  0  0  0  0  0  0  0  0  0  0
   35.5100   27.2450   31.8430 H   0  0  0  0  0  0  0  0  0  0  0  0
   38.1400   27.0800   31.7020 H   0  0  0  0  0  0  0  0  0  0  0  0
   38.1340   28.7140   32.4120 H   0  0  0  0  0  0  0  0  0  0  0  0
   32.5990   29.5580   33.8560 Cl  0  0  0  0  0  0  0  0  0  0  0  0
   33.8260   30.4300   34.7620 C   0  0  0  0  0  0  0  0  0  0  0  0
   35.1320   30.0250   34.6280 C   0  0  0  0  0  0  0  0  0  0  0  0
   36.2110   30.6290   35.2880 C   0  0  0  0  0  0  0  0  0  0  0  0
   35.8710   31.7110   36.1160 C   0  0  0  0  0  0  0  0  0  0  0  0
   34.5480   32.1280   36.2560 C   0  0  0  0  0  0  0  0  0  0  0  0
   33.5530   31.4830   35.5810 C   0  0  0  0  0  0  0  0  0  0  0  0
   37.2650   30.5030   35.3550 H   0  0  0  0  0  0  0  0  0  0  0  0
   36.5850   32.2960   36.7020 H   0  0  0  0  0  0  0  0  0  0  0  0
   34.3350   32.9770   36.9140 H   0  0  0  0  0  0  0  0  0  0  0  0
   32.1220   31.8940   35.7020 C   0  0  0  0  0  0  0  0  0  0  0  0
   31.7280   33.0790   34.9450 C   0  0  0  0  0  0  0  0  0  0  0  0
   32.2650   33.7620   34.2810 H   0  0  0  0  0  0  0  0  0  0  0  0
   29.8990   33.1790   35.4120 S   0  0  0  0  0  0  0  0  0  0  0  0
   30.0150   31.6590   36.4990 C   0  0  0  0  0  0  0  0  0  0  0  0
   29.2050   31.2350   37.0510 H   0  0  0  0  0  0  0  0  0  0  0  0
   31.2710   31.2360   36.4400 N   0  0  0  0  0  0  0  0  0  0  0  0
   37.5850   25.8760   33.9970 C   0  0  0  0  0  0  0  0  0  0  0  0
   37.8550   25.5670   35.3330 C   0  0  0  0  0  0  0  0  0  0  0  0
   38.1470   24.2500   35.6640 C   0  0  0  0  0  0  0  0  0  0  0  0
   38.1550   23.3070   34.6490 N   0  0  0  0  0  0  0  0  0  0  0  0
   37.8870   23.6590   33.3710 C   0  0  0  0  0  0  0  0  0  0  0  0
   37.6070   24.9090   33.0430 N   0  0  0  0  0  0  0  0  0  0  0  0
   37.8280   26.3630   36.0620 H   0  0  0  0  0  0  0  0  0  0  0  0
   38.3580   23.9940   36.6910 H   0  0  0  0  0  0  0  0  0  0  0  0
   37.9260   22.8280   32.6800 H   0  0  0  0  0  0  0  0  0  0  0  0
  1 32  1  0  0  0  0
  1  2  1  0  0  0  0
  2  7  1  0  0  0  0
  2  8  1  0  0  0  0
  3  9  1  6  0  0  0
  3  2  1  0  0  0  0
  3 17  1  0  0  0  0
  4  3  1  0  0  0  0
  5 12  1  0  0  0  0
  5  6  1  0  0  0  0
  5  4  1  0  0  0  0
  6 14  1  0  0  0  0
  6  1  1  0  0  0  0
 10  4  1  0  0  0  0
 11  5  1  0  0  0  0
 13  6  1  0  0  0  0
 15 16  1  0  0  0  0
 16 21  1  0  0  0  0
 17 16  2  0  0  0  0
 17 18  1  0  0  0  0
 18 22  1  0  0  0  0
 18 19  2  0  0  0  0
 19 20  1  0  0  0  0
 19 23  1  0  0  0  0
 20 24  1  0  0  0  0
 21 25  1  0  0  0  0
 21 20  2  0  0  0  0
 25 31  1  0  0  0  0
 26 28  1  0  0  0  0
 26 25  2  0  0  0  0
 27 26  1  0  0  0  0
 28 29  1  0  0  0  0
 29 30  1  0  0  0  0
 31 29  2  0  0  0  0
 32 33  1  0  0  0  0
 33 34  2  0  0  0  0
 33 38  1  0  0  0  0
 34 39  1  0  0  0  0
 35 34  1  0  0  0  0
 36 35  2  0  0  0  0
 37 36  1  0  0  0  0
 37 32  2  0  0  0  0
 40 36  1  0  0  0  0
M  END
>  <minimizedAffinity>
-5.17258167

$$$$

 OpenBabel03272508413D

 40 43  0  0  1  0  0  0  0  0999 V2000
   37.4940   25.9400   32.9600 N   0  0  0  0  0  0  0  0  0  0  0  0
   37.2490   27.3780   33.0010 C   0  0  0  0  0  0  0  0  0  0  0  0
   36.0350   27.8080   32.3020 C   0  0  2  0  0  0  0  0  0  0  0  0
   35.8810   27.1450   30.9800 N   0  0  0  0  0  0  0  0  0  0  0  0
   35.9380   25.6900   31.2230 C   0  0  0  0  0  0  0  0  0  0  0  0
   37.3800   25.4690   31.6250 C   0  0  0  0  0  0  0  0  0  0  0  0
   38.1280   27.7320   32.3600 H   0  0  0  0  0  0  0  0  0  0  0  0
   37.2950   27.7400   34.0260 H   0  0  0  0  0  0  0  0  0  0  0  0
   35.0660   27.5110   32.7490 H   0  0  0  0  0  0  0  0  0  0  0  0
   36.7140   27.3550   30.3880 H   0  0  0  0  0  0  0  0  0  0  0  0
   35.7580   25.1790   30.2650 H   0  0  0  0  0  0  0  0  0  0  0  0
   35.2670   25.3730   32.0330 H   0  0  0  0  0  0  0  0  0  0  0  0
   37.6830   24.4140   31.5780 H   0  0  0  0  0  0  0  0  0  0  0  0
   38.0470   26.0360   30.9370 H   0  0  0  0  0  0  0  0  0  0  0  0
   34.9220   29.4190   34.5390 Cl  0  0  0  0  0  0  0  0  0  0  0  0
   35.6150   30.1100   33.0800 C   0  0  0  0  0  0  0  0  0  0  0  0
   36.0540   29.2460   32.1060 C   0  0  0  0  0  0  0  0  0  0  0  0
   36.6240   29.6570   30.8940 C   0  0  0  0  0  0  0  0  0  0  0  0
   36.7190   31.0480   30.7230 C   0  0  0  0  0  0  0  0  0  0  0  0
   36.2750   31.9300   31.7060 C   0  0  0  0  0  0  0  0  0  0  0  0
   35.7330   31.4500   32.8620 C   0  0  0  0  0  0  0  0  0  0  0  0
   37.0310   29.2060   30.0210 H   0  0  0  0  0  0  0  0  0  0  0  0
   37.1350   31.5400   29.8390 H   0  0  0  0  0  0  0  0  0  0  0  0
   36.3700   33.0060   31.5240 H   0  0  0  0  0  0  0  0  0  0  0  0
   35.2460   32.3570   33.9440 C   0  0  0  0  0  0  0  0  0  0  0  0
   36.2370   32.7600   34.9380 C   0  0  0  0  0  0  0  0  0  0  0  0
   37.3000   32.5390   35.0760 H   0  0  0  0  0  0  0  0  0  0  0  0
   35.1700   33.8600   36.0450 S   0  0  0  0  0  0  0  0  0  0  0  0
   33.6490   33.5740   34.9910 C   0  0  0  0  0  0  0  0  0  0  0  0
   32.6850   33.9940   35.1770 H   0  0  0  0  0  0  0  0  0  0  0  0
   34.0100   32.7690   34.0010 N   0  0  0  0  0  0  0  0  0  0  0  0
   37.8090   25.1820   34.1120 C   0  0  0  0  0  0  0  0  0  0  0  0
   37.7780   25.7330   35.3950 C   0  0  0  0  0  0  0  0  0  0  0  0
   38.1000   24.9210   36.4760 C   0  0  0  0  0  0  0  0  0  0  0  0
   38.4370   23.6020   36.2240 N   0  0  0  0  0  0  0  0  0  0  0  0
   38.4520   23.1170   34.9610 C   0  0  0  0  0  0  0  0  0  0  0  0
   38.1470   23.8780   33.9240 N   0  0  0  0  0  0  0  0  0  0  0  0
   37.5050   26.7720   35.5030 H   0  0  0  0  0  0  0  0  0  0  0  0
   38.0810   25.3320   37.4740 H   0  0  0  0  0  0  0  0  0  0  0  0
   38.7310   22.0730   34.9060 H   0  0  0  0  0  0  0  0  0  0  0  0
  1  2  1  0  0  0  0
  1 32  1  0  0  0  0
  2  8  1  0  0  0  0
  3  9  1  1  0  0  0
  3  2  1  0  0  0  0
  4  5  1  0  0  0  0
  4  3  1  0  0  0  0
  5  6  1  0  0  0  0
  5 12  1  0  0  0  0
  6  1  1  0  0  0  0
  7  2  1  0  0  0  0
 10  4  1  0  0  0  0
 11  5  1  0  0  0  0
 13  6  1  0  0  0  0
 14  6  1  0  0  0  0
 16 15  1  0  0  0  0
 17  3  1  0  0  0  0
 17 16  2  0  0  0  0
 18 17  1  0  0  0  0
 19 18  2  0  0  0  0
 19 20  1  0  0  0  0
 20 21  2  0  0  0  0
 21 16  1  0  0  0  0
 21 25  1  0  0  0  0
 22 18  1  0  0  0  0
 23 19  1  0  0  0  0
 24 20  1  0  0  0  0
 25 31  1  0  0  0  0
 25 26  2  0  0  0  0
 26 27  1  0  0  0  0
 26 28  1  0  0  0  0
 29 30  1  0  0  0  0
 29 28  1  0  0  0  0
 31 29  2  0  0  0  0
 32 33  1  0  0  0  0
 33 38  1  0  0  0  0
 33 34  2  0  0  0  0
 34 39  1  0  0  0  0
 35 34  1  0  0  0  0
 36 35  2  0  0  0  0
 37 32  2  0  0  0  0
 37 36  1  0  0  0  0
 40 36  1  0  0  0  0
M  END
>  <minimizedAffinity>
-5.15963697

$$$$

 OpenBabel03272508413D

 40 43  0  0  1  0  0  0  0  0999 V2000
   38.4930   24.0290   34.2950 N   0  0  0  0  0  0  0  0  0  0  0  0
   38.3280   25.3760   33.7600 C   0  0  0  0  0  0  0  0  0  0  0  0
   37.2070   25.5270   32.8300 C   0  0  2  0  0  0  0  0  0  0  0  0
   37.1320   24.4100   31.8520 N   0  0  0  0  0  0  0  0  0  0  0  0
   37.0830   23.1600   32.6350 C   0  0  0  0  0  0  0  0  0  0  0  0
   38.4700   23.0830   33.2370 C   0  0  0  0  0  0  0  0  0  0  0  0
   39.2790   25.4400   33.1270 H   0  0  0  0  0  0  0  0  0  0  0  0
   38.3050   26.1040   34.5690 H   0  0  0  0  0  0  0  0  0  0  0  0
   36.1870   25.4450   33.2540 H   0  0  0  0  0  0  0  0  0  0  0  0
   38.0240   24.3600   31.3130 H   0  0  0  0  0  0  0  0  0  0  0  0
   36.9590   22.3230   31.9300 H   0  0  0  0  0  0  0  0  0  0  0  0
   36.3280   23.1920   33.4310 H   0  0  0  0  0  0  0  0  0  0  0  0
   38.7160   22.0860   33.6270 H   0  0  0  0  0  0  0  0  0  0  0  0
   39.2260   23.3290   32.4570 H   0  0  0  0  0  0  0  0  0  0  0  0
   39.3190   25.6000   30.7380 Cl  0  0  0  0  0  0  0  0  0  0  0  0
   38.2270   26.9330   31.0790 C   0  0  0  0  0  0  0  0  0  0  0  0
   37.3250   26.7790   32.1040 C   0  0  0  0  0  0  0  0  0  0  0  0
   36.3990   27.7590   32.4860 C   0  0  0  0  0  0  0  0  0  0  0  0
   36.4520   28.9490   31.7420 C   0  0  0  0  0  0  0  0  0  0  0  0
   37.3650   29.1130   30.7010 C   0  0  0  0  0  0  0  0  0  0  0  0
   38.2320   28.1080   30.3890 C   0  0  0  0  0  0  0  0  0  0  0  0
   35.6260   27.8740   33.2070 H   0  0  0  0  0  0  0  0  0  0  0  0
   35.8050   29.8150   31.9060 H   0  0  0  0  0  0  0  0  0  0  0  0
   37.3660   30.0600   30.1520 H   0  0  0  0  0  0  0  0  0  0  0  0
   39.2260   28.2380   29.2810 C   0  0  0  0  0  0  0  0  0  0  0  0
   40.5310   28.7780   29.6510 C   0  0  0  0  0  0  0  0  0  0  0  0
   40.9650   29.1230   30.5940 H   0  0  0  0  0  0  0  0  0  0  0  0
   41.3930   28.7450   27.9680 S   0  0  0  0  0  0  0  0  0  0  0  0
   39.8810   28.0350   27.1220 C   0  0  0  0  0  0  0  0  0  0  0  0
   39.8120   27.8000   26.0830 H   0  0  0  0  0  0  0  0  0  0  0  0
   38.9480   27.8910   28.0550 N   0  0  0  0  0  0  0  0  0  0  0  0
   38.6630   23.7660   35.6750 C   0  0  0  0  0  0  0  0  0  0  0  0
   39.7210   22.9930   36.1600 C   0  0  0  0  0  0  0  0  0  0  0  0
   39.8180   22.7820   37.5290 C   0  0  0  0  0  0  0  0  0  0  0  0
   38.8560   23.3510   38.3470 N   0  0  0  0  0  0  0  0  0  0  0  0
   37.8500   24.0910   37.8280 C   0  0  0  0  0  0  0  0  0  0  0  0
   37.7470   24.3000   36.5270 N   0  0  0  0  0  0  0  0  0  0  0  0
   40.4280   22.5860   35.4510 H   0  0  0  0  0  0  0  0  0  0  0  0
   40.6300   22.1870   37.9190 H   0  0  0  0  0  0  0  0  0  0  0  0
   37.1700   24.4750   38.5760 H   0  0  0  0  0  0  0  0  0  0  0  0
  1 32  1  0  0  0  0
  2  1  1  0  0  0  0
  2  8  1  0  0  0  0
  3  9  1  1  0  0  0
  3  2  1  0  0  0  0
  4  5  1  0  0  0  0
  4  3  1  0  0  0  0
  5  6  1  0  0  0  0
  5 12  1  0  0  0  0
  6 13  1  0  0  0  0
  6  1  1  0  0  0  0
  7  2  1  0  0  0  0
 10  4  1  0  0  0  0
 11  5  1  0  0  0  0
 14  6  1  0  0  0  0
 15 16  1  0  0  0  0
 16 17  1  0  0  0  0
 17 18  2  0  0  0  0
 17  3  1  0  0  0  0
 18 22  1  0  0  0  0
 19 23  1  0  0  0  0
 19 18  1  0  0  0  0
 20 19  2  0  0  0  0
 21 20  1  0  0  0  0
 21 16  2  0  0  0  0
 24 20  1  0  0  0  0
 25 26  2  0  0  0  0
 25 21  1  0  0  0  0
 26 27  1  0  0  0  0
 28 26  1  0  0  0  0
 29 28  1  0  0  0  0
 29 31  2  0  0  0  0
 30 29  1  0  0  0  0
 31 25  1  0  0  0  0
 32 33  2  0  0  0  0
 32 37  1  0  0  0  0
 33 34  1  0  0  0  0
 34 39  1  0  0  0  0
 34 35  2  0  0  0  0
 36 35  1  0  0  0  0
 36 40  1  0  0  0  0
 37 36  2  0  0  0  0
 38 33  1  0  0  0  0
M  END
>  <minimizedAffinity>
-5.1565423

$$$$

 OpenBabel03272508413D

 40 43  0  0  1  0  0  0  0  0999 V2000
   36.2380   28.8530   32.2680 N   0  0  0  0  0  0  0  0  0  0  0  0
   36.5200   27.5590   32.8800 C   0  0  0  0  0  0  0  0  0  0  0  0
   37.7770   26.9430   32.4460 C   0  0  2  0  0  0  0  0  0  0  0  0
   37.9730   27.0400   30.9760 N   0  0  0  0  0  0  0  0  0  0  0  0
   37.8660   28.4700   30.6240 C   0  0  0  0  0  0  0  0  0  0  0  0
   36.4010   28.7680   30.8610 C   0  0  0  0  0  0  0  0  0  0  0  0
   35.6810   26.9440   32.4020 H   0  0  0  0  0  0  0  0  0  0  0  0
   36.4360   27.6260   33.9620 H   0  0  0  0  0  0  0  0  0  0  0  0
   38.7150   27.4330   32.7710 H   0  0  0  0  0  0  0  0  0  0  0  0
   37.1750   26.5790   30.4870 H   0  0  0  0  0  0  0  0  0  0  0  0
   38.0760   28.5710   29.5480 H   0  0  0  0  0  0  0  0  0  0  0  0
   38.4890   29.1080   31.2650 H   0  0  0  0  0  0  0  0  0  0  0  0
   36.0710   29.7060   30.3920 H   0  0  0  0  0  0  0  0  0  0  0  0
   35.7820   27.9480   30.4300 H   0  0  0  0  0  0  0  0  0  0  0  0
   39.1530   26.3510   35.0140 Cl  0  0  0  0  0  0  0  0  0  0  0  0
   38.3670   25.1360   34.0180 C   0  0  0  0  0  0  0  0  0  0  0  0
   37.8060   25.5440   32.8310 C   0  0  0  0  0  0  0  0  0  0  0  0
   37.1510   24.6840   31.9390 C   0  0  0  0  0  0  0  0  0  0  0  0
   37.1050   23.3370   32.3360 C   0  0  0  0  0  0  0  0  0  0  0  0
   37.6730   22.9170   33.5380 C   0  0  0  0  0  0  0  0  0  0  0  0
   38.2910   23.8180   34.3540 C   0  0  0  0  0  0  0  0  0  0  0  0
   36.6490   24.7520   31.0040 H   0  0  0  0  0  0  0  0  0  0  0  0
   36.6360   22.5340   31.7610 H   0  0  0  0  0  0  0  0  0  0  0  0
   37.6110   21.8560   33.8010 H   0  0  0  0  0  0  0  0  0  0  0  0
   38.9120   23.4140   35.6510 C   0  0  0  0  0  0  0  0  0  0  0  0
   40.2330   22.7990   35.5650 C   0  0  0  0  0  0  0  0  0  0  0  0
   40.9000   22.5570   34.7320 H   0  0  0  0  0  0  0  0  0  0  0  0
   40.5720   22.4810   37.3980 S   0  0  0  0  0  0  0  0  0  0  0  0
   38.9250   23.2120   37.9070 C   0  0  0  0  0  0  0  0  0  0  0  0
   38.5720   23.2910   38.9110 H   0  0  0  0  0  0  0  0  0  0  0  0
   38.3120   23.5960   36.7950 N   0  0  0  0  0  0  0  0  0  0  0  0
   35.8490   29.9890   33.0180 C   0  0  0  0  0  0  0  0  0  0  0  0
   35.4460   29.8950   34.3530 C   0  0  0  0  0  0  0  0  0  0  0  0
   35.0800   31.0570   35.0200 C   0  0  0  0  0  0  0  0  0  0  0  0
   35.1330   32.2540   34.3250 N   0  0  0  0  0  0  0  0  0  0  0  0
   35.5300   32.2900   33.0330 C   0  0  0  0  0  0  0  0  0  0  0  0
   35.8820   31.1920   32.3860 N   0  0  0  0  0  0  0  0  0  0  0  0
   35.4330   28.9210   34.8200 H   0  0  0  0  0  0  0  0  0  0  0  0
   34.7670   31.0010   36.0520 H   0  0  0  0  0  0  0  0  0  0  0  0
   35.5260   33.2870   32.6110 H   0  0  0  0  0  0  0  0  0  0  0  0
  1  2  1  0  0  0  0
  1 32  1  0  0  0  0
  2  8  1  0  0  0  0
  3  9  1  1  0  0  0
  3 17  1  0  0  0  0
  3  2  1  0  0  0  0
  4  3  1  0  0  0  0
  5  6  1  0  0  0  0
  5  4  1  0  0  0  0
  5 12  1  0  0  0  0
  6  1  1  0  0  0  0
  7  2  1  0  0  0  0
 10  4  1  0  0  0  0
 11  5  1  0  0  0  0
 13  6  1  0  0  0  0
 14  6  1  0  0  0  0
 16 21  1  0  0  0  0
 16 15  1  0  0  0  0
 17 16  2  0  0  0  0
 18 19  2  0  0  0  0
 18 17  1  0  0  0  0
 19 20  1  0  0  0  0
 20 24  1  0  0  0  0
 20 21  2  0  0  0  0
 21 25  1  0  0  0  0
 22 18  1  0  0  0  0
 23 19  1  0  0  0  0
 25 31  1  0  0  0  0
 26 25  2  0  0  0  0
 26 28  1  0  0  0  0
 27 26  1  0  0  0  0
 28 29  1  0  0  0  0
 29 30  1  0  0  0  0
 31 29  2  0  0  0  0
 32 33  1  0  0  0  0
 33 38  1  0  0  0  0
 33 34  2  0  0  0  0
 34 39  1  0  0  0  0
 35 34  1  0  0  0  0
 36 35  2  0  0  0  0
 37 32  2  0  0  0  0
 37 36  1  0  0  0  0
 40 36  1  0  0  0  0
M  END
>  <minimizedAffinity>
-5.1240201

$$$$

 OpenBabel03272508413D

 40 43  0  0  1  0  0  0  0  0999 V2000
   39.5110   23.0500   36.0140 N   0  0  0  0  0  0  0  0  0  0  0  0
   39.0230   23.6300   34.7680 C   0  0  0  0  0  0  0  0  0  0  0  0
   38.3240   24.9090   34.9260 C   0  0  2  0  0  0  0  0  0  0  0  0
   37.3750   24.8950   36.0690 N   0  0  0  0  0  0  0  0  0  0  0  0
   38.1490   24.4940   37.2620 C   0  0  0  0  0  0  0  0  0  0  0  0
   38.4740   23.0430   36.9830 C   0  0  0  0  0  0  0  0  0  0  0  0
   38.2190   22.8580   34.5080 H   0  0  0  0  0  0  0  0  0  0  0  0
   39.8230   23.6770   34.0320 H   0  0  0  0  0  0  0  0  0  0  0  0
   38.9360   25.7820   35.2290 H   0  0  0  0  0  0  0  0  0  0  0  0
   36.6750   24.1340   35.9310 H   0  0  0  0  0  0  0  0  0  0  0  0
   37.4780   24.5430   38.1330 H   0  0  0  0  0  0  0  0  0  0  0  0
   39.0750   25.0730   37.3750 H   0  0  0  0  0  0  0  0  0  0  0  0
   38.8060   22.4970   37.8760 H   0  0  0  0  0  0  0  0  0  0  0  0
   37.5650   22.5270   36.5980 H   0  0  0  0  0  0  0  0  0  0  0  0
   37.4540   27.7410   34.6720 Cl  0  0  0  0  0  0  0  0  0  0  0  0
   37.1750   26.5130   33.4460 C   0  0  0  0  0  0  0  0  0  0  0  0
   37.5940   25.2320   33.7140 C   0  0  0  0  0  0  0  0  0  0  0  0
   37.4340   24.1560   32.8310 C   0  0  0  0  0  0  0  0  0  0  0  0
   36.7950   24.4700   31.6190 C   0  0  0  0  0  0  0  0  0  0  0  0
   36.3670   25.7670   31.3420 C   0  0  0  0  0  0  0  0  0  0  0  0
   36.5630   26.7620   32.2550 C   0  0  0  0  0  0  0  0  0  0  0  0
   37.6680   23.1190   32.8010 H   0  0  0  0  0  0  0  0  0  0  0  0
   36.5890   23.7540   30.8200 H   0  0  0  0  0  0  0  0  0  0  0  0
   35.8740   25.9600   30.3830 H   0  0  0  0  0  0  0  0  0  0  0  0
   36.1230   28.1660   31.9990 C   0  0  0  0  0  0  0  0  0  0  0  0
   37.0260   28.9850   31.1940 C   0  0  0  0  0  0  0  0  0  0  0  0
   37.9900   28.7950   30.7150 H   0  0  0  0  0  0  0  0  0  0  0  0
   36.0580   30.6090   31.1580 S   0  0  0  0  0  0  0  0  0  0  0  0
   34.6750   29.8960   32.1990 C   0  0  0  0  0  0  0  0  0  0  0  0
   33.8000   30.4260   32.5040 H   0  0  0  0  0  0  0  0  0  0  0  0
   35.0010   28.6380   32.4670 N   0  0  0  0  0  0  0  0  0  0  0  0
   40.8320   22.5680   36.1700 C   0  0  0  0  0  0  0  0  0  0  0  0
   41.1500   21.5530   37.0760 C   0  0  0  0  0  0  0  0  0  0  0  0
   42.4710   21.1340   37.1690 C   0  0  0  0  0  0  0  0  0  0  0  0
   43.4100   21.7480   36.3560 N   0  0  0  0  0  0  0  0  0  0  0  0
   43.0500   22.7270   35.4950 C   0  0  0  0  0  0  0  0  0  0  0  0
   41.7960   23.1340   35.3960 N   0  0  0  0  0  0  0  0  0  0  0  0
   40.3560   21.1280   37.6730 H   0  0  0  0  0  0  0  0  0  0  0  0
   42.7330   20.3510   37.8640 H   0  0  0  0  0  0  0  0  0  0  0  0
   43.8790   23.1190   34.9210 H   0  0  0  0  0  0  0  0  0  0  0  0
  1 32  1  0  0  0  0
  1  6  1  0  0  0  0
  2  3  1  0  0  0  0
  2  1  1  0  0  0  0
  3  9  1  1  0  0  0
  3  4  1  0  0  0  0
  4  5  1  0  0  0  0
  5 12  1  0  0  0  0
  5 11  1  0  0  0  0
  6  5  1  0  0  0  0
  6 13  1  0  0  0  0
  7  2  1  0  0  0  0
  8  2  1  0  0  0  0
 10  4  1  0  0  0  0
 14  6  1  0  0  0  0
 16 17  1  0  0  0  0
 16 15  1  0  0  0  0
 17  3  1  0  0  0  0
 18 17  2  0  0  0  0
 19 18  1  0  0  0  0
 20 19  2  0  0  0  0
 20 21  1  0  0  0  0
 21 16  2  0  0  0  0
 22 18  1  0  0  0  0
 23 19  1  0  0  0  0
 24 20  1  0  0  0  0
 25 21  1  0  0  0  0
 25 31  1  0  0  0  0
 26 25  2  0  0  0  0
 27 26  1  0  0  0  0
 28 26  1  0  0  0  0
 28 29  1  0  0  0  0
 29 31  2  0  0  0  0
 29 30  1  0  0  0  0
 32 33  1  0  0  0  0
 33 34  2  0  0  0  0
 33 38  1  0  0  0  0
 34 39  1  0  0  0  0
 35 34  1  0  0  0  0
 36 35  2  0  0  0  0
 37 36  1  0  0  0  0
 37 32  2  0  0  0  0
 40 36  1  0  0  0  0
M  END
>  <minimizedAffinity>
-5.0733099

$$$$
