
 OpenBabel03272510213D

 34 37  0  0  0  0  0  0  0  0999 V2000
   37.4320   29.2010   50.8510 Br  0  0  0  0  0  0  0  0  0  0  0  0
   36.0290   29.2910   49.5670 C   0  0  0  0  0  0  0  0  0  0  0  0
   36.0160   30.2860   48.5950 C   0  0  0  0  0  0  0  0  0  0  0  0
   34.9710   30.2850   47.7040 C   0  0  0  0  0  0  0  0  0  0  0  0
   33.9450   29.3590   47.7230 C   0  0  0  0  0  0  0  0  0  0  0  0
   33.9920   28.3890   48.7000 C   0  0  0  0  0  0  0  0  0  0  0  0
   35.0280   28.3640   49.6080 C   0  0  0  0  0  0  0  0  0  0  0  0
   34.9170   31.0390   46.9320 H   0  0  0  0  0  0  0  0  0  0  0  0
   33.2190   27.6300   48.7730 H   0  0  0  0  0  0  0  0  0  0  0  0
   35.0280   27.5830   50.3620 H   0  0  0  0  0  0  0  0  0  0  0  0
   38.0280   33.1930   49.4640 C   0  0  0  0  0  0  0  0  0  0  0  0
   39.0440   33.1950   48.4730 C   0  0  0  0  0  0  0  0  0  0  0  0
   39.0180   32.1980   47.5250 C   0  0  0  0  0  0  0  0  0  0  0  0
   38.0280   31.2660   47.5860 N   0  0  0  0  0  0  0  0  0  0  0  0
   37.0670   31.2790   48.5350 C   0  0  0  0  0  0  0  0  0  0  0  0
   37.0810   32.2540   49.4710 N   0  0  0  0  0  0  0  0  0  0  0  0
   38.1090   34.0050   50.1750 H   0  0  0  0  0  0  0  0  0  0  0  0
   39.8430   33.9070   48.3860 H   0  0  0  0  0  0  0  0  0  0  0  0
   39.6860   32.0310   46.7110 H   0  0  0  0  0  0  0  0  0  0  0  0
   32.8470   29.3590   46.7860 C   0  0  0  0  0  0  0  0  0  0  0  0
   31.8660   28.3830   46.7180 C   0  0  0  0  0  0  0  0  0  0  0  0
   30.8250   28.4090   45.8100 C   0  0  0  0  0  0  0  0  0  0  0  0
   30.7560   29.4350   44.9430 N   0  0  0  0  0  0  0  0  0  0  0  0
   31.6970   30.3890   44.9930 C   0  0  0  0  0  0  0  0  0  0  0  0
   32.7010   30.3400   45.8890 N   0  0  0  0  0  0  0  0  0  0  0  0
   31.9280   27.5500   47.4290 H   0  0  0  0  0  0  0  0  0  0  0  0
   30.1220   27.5980   45.8490 H   0  0  0  0  0  0  0  0  0  0  0  0
   31.5230   31.4550   44.0040 C   0  0  0  0  0  0  0  0  0  0  0  0
   30.4020   32.2970   44.4000 C   0  0  0  0  0  0  0  0  0  0  0  0
   29.6750   32.3500   45.2100 H   0  0  0  0  0  0  0  0  0  0  0  0
   30.3400   33.5890   43.0210 S   0  0  0  0  0  0  0  0  0  0  0  0
   31.8280   32.7370   42.1970 C   0  0  0  0  0  0  0  0  0  0  0  0
   32.5960   32.7530   41.2610 H   0  0  0  0  0  0  0  0  0  0  0  0
   32.0620   31.8800   42.8810 N   0  0  0  0  0  0  0  0  0  0  0  0
  2  7  1  0  0  0  0
  2  1  1  0  0  0  0
  3  2  2  0  0  0  0
  4  5  2  0  0  0  0
  4  3  1  0  0  0  0
  5  6  1  0  0  0  0
  6  9  1  0  0  0  0
  6  7  2  0  0  0  0
  7 10  1  0  0  0  0
  8  4  1  0  0  0  0
 11 16  1  0  0  0  0
 11 17  1  0  0  0  0
 12 11  2  0  0  0  0
 13 14  2  0  0  0  0
 13 12  1  0  0  0  0
 14 15  1  0  0  0  0
 15  3  1  0  0  0  0
 15 16  2  0  0  0  0
 18 12  1  0  0  0  0
 19 13  1  0  0  0  0
 20  5  1  0  0  0  0
 21 20  1  0  0  0  0
 21 26  1  0  0  0  0
 22 27  1  0  0  0  0
 22 21  2  0  0  0  0
 23 24  2  0  0  0  0
 23 22  1  0  0  0  0
 24 25  1  0  0  0  0
 25 20  2  0  0  0  0
 28 29  2  0  0  0  0
 28 24  1  0  0  0  0
 29 30  1  0  0  0  0
 31 29  1  0  0  0  0
 32 34  2  0  0  0  0
 32 31  1  0  0  0  0
 33 32  1  0  0  0  0
 34 28  1  0  0  0  0
M  END
>  <minimizedAffinity>
-6.20058155

>  <minimizedRMSD>
0.615508795

$$$$
