
 OpenBabel03272506483D

 40 43  0  0  1  0  0  0  0  0999 V2000
   31.4140   28.0390   47.5970 C   0  0  2  0  0  0  0  0  0  0  0  0
   32.7510   27.8030   48.2310 C   0  0  1  0  0  0  0  0  0  0  0  0
   33.0550   26.4830   48.1000 O   0  0  0  0  0  0  0  0  0  0  0  0
   32.1750   25.8990   47.1930 C   0  0  0  0  0  0  0  0  0  0  0  0
   31.5240   27.0210   46.4180 C   0  0  1  0  0  0  0  0  0  0  0  0
   30.5480   27.8100   48.2050 H   0  0  0  0  0  0  0  0  0  0  0  0
   32.7100   28.1670   49.2750 H   0  0  0  0  0  0  0  0  0  0  0  0
   31.5110   25.2710   47.7680 H   0  0  0  0  0  0  0  0  0  0  0  0
   32.7990   25.3010   46.4800 H   0  0  0  0  0  0  0  0  0  0  0  0
   32.1760   27.4920   45.6920 H   0  0  0  0  0  0  0  0  0  0  0  0
   31.3370   29.3450   47.0700 O   0  0  0  0  0  0  0  0  0  0  0  0
   31.6210   29.3790   46.1280 H   0  0  0  0  0  0  0  0  0  0  0  0
   33.9970   28.7710   47.2920 S   0  0  0  0  0  0  0  0  0  0  0  0
   36.3540   29.2300   50.4440 C   0  0  0  0  0  0  0  0  0  0  0  0
   36.9880   30.4590   50.2400 C   0  0  0  0  0  0  0  0  0  0  0  0
   36.6740   31.1770   49.0800 C   0  0  0  0  0  0  0  0  0  0  0  0
   35.7750   30.6420   48.2170 N   0  0  0  0  0  0  0  0  0  0  0  0
   35.1820   29.4510   48.4450 C   0  0  0  0  0  0  0  0  0  0  0  0
   35.4620   28.7290   49.5600 N   0  0  0  0  0  0  0  0  0  0  0  0
   36.6150   28.6960   51.3480 H   0  0  0  0  0  0  0  0  0  0  0  0
   37.7050   30.8790   50.9320 H   0  0  0  0  0  0  0  0  0  0  0  0
   37.1080   32.1340   48.8290 H   0  0  0  0  0  0  0  0  0  0  0  0
   30.2780   26.6130   46.0060 O   0  0  0  0  0  0  0  0  0  0  0  0
   29.3970   28.7650   44.2050 Cl  0  0  0  0  0  0  0  0  0  0  0  0
   28.6010   28.1470   45.6370 C   0  0  0  0  0  0  0  0  0  0  0  0
   29.1120   27.1190   46.3910 C   0  0  0  0  0  0  0  0  0  0  0  0
   28.3720   26.6870   47.4920 C   0  0  0  0  0  0  0  0  0  0  0  0
   27.1670   27.2790   47.8050 C   0  0  0  0  0  0  0  0  0  0  0  0
   26.6480   28.3110   47.0520 C   0  0  0  0  0  0  0  0  0  0  0  0
   27.3900   28.7500   45.9430 C   0  0  0  0  0  0  0  0  0  0  0  0
   28.6750   25.8880   48.1460 H   0  0  0  0  0  0  0  0  0  0  0  0
   26.5670   26.9730   48.6470 H   0  0  0  0  0  0  0  0  0  0  0  0
   25.7080   28.7670   47.3040 H   0  0  0  0  0  0  0  0  0  0  0  0
   26.8840   29.8440   45.1130 C   0  0  0  0  0  0  0  0  0  0  0  0
   26.2500   29.5910   43.9040 C   0  0  0  0  0  0  0  0  0  0  0  0
   26.0030   28.6190   43.3400 H   0  0  0  0  0  0  0  0  0  0  0  0
   25.7960   31.2950   43.2330 S   0  0  0  0  0  0  0  0  0  0  0  0
   26.5840   32.0420   44.7830 C   0  0  0  0  0  0  0  0  0  0  0  0
   26.7900   33.1500   45.2810 H   0  0  0  0  0  0  0  0  0  0  0  0
   26.9390   31.1380   45.3510 N   0  0  0  0  0  0  0  0  0  0  0  0
  1  6  1  1  0  0  0
  1  2  1  0  0  0  0
  2  7  1  1  0  0  0
  3  2  1  0  0  0  0
  4  8  1  0  0  0  0
  4  3  1  0  0  0  0
  5 10  1  6  0  0  0
  5  4  1  0  0  0  0
  5  1  1  0  0  0  0
  9  4  1  0  0  0  0
 11  1  1  0  0  0  0
 12 11  1  0  0  0  0
 13  2  1  0  0  0  0
 13 18  1  0  0  0  0
 14 20  1  0  0  0  0
 15 14  1  0  0  0  0
 15 21  1  0  0  0  0
 16 15  2  0  0  0  0
 17 18  2  0  0  0  0
 17 16  1  0  0  0  0
 18 19  1  0  0  0  0
 19 14  2  0  0  0  0
 22 16  1  0  0  0  0
 23 26  1  0  0  0  0
 23  5  1  0  0  0  0
 24 25  1  0  0  0  0
 25 30  2  0  0  0  0
 25 26  1  0  0  0  0
 26 27  2  0  0  0  0
 27 28  1  0  0  0  0
 27 31  1  0  0  0  0
 28 32  1  0  0  0  0
 29 33  1  0  0  0  0
 29 28  2  0  0  0  0
 30 29  1  0  0  0  0
 34 40  1  0  0  0  0
 34 30  1  0  0  0  0
 35 34  2  0  0  0  0
 36 35  1  0  0  0  0
 37 35  1  0  0  0  0
 37 38  1  0  0  0  0
 38 39  1  0  0  0  0
 38 40  2  0  0  0  0
M  END
>  <minimizedAffinity>
-5.23156643

>  <minimizedRMSD>
1.08180428

$$$$
