
 OpenBabel03272505303D

 38 41  0  0  0  0  0  0  0  0999 V2000
   37.3380   31.1450   47.1160 N   0  0  0  0  0  0  0  0  0  0  0  0
   36.7000   30.9110   45.9360 C   0  0  0  0  0  0  0  0  0  0  0  0
   37.1420   31.4350   44.7430 C   0  0  0  0  0  0  0  0  0  0  0  0
   38.3000   32.2380   44.7770 C   0  0  0  0  0  0  0  0  0  0  0  0
   38.7520   32.7440   43.7210 O   0  0  0  0  0  0  0  0  0  0  0  0
   38.9460   32.4740   45.9700 N   0  0  0  0  0  0  0  0  0  0  0  0
   38.4160   31.9110   47.0450 C   0  0  0  0  0  0  0  0  0  0  0  0
   39.0350   32.1520   48.1070 O   0  0  0  0  0  0  0  0  0  0  0  0
   35.8060   30.2880   45.9280 H   0  0  0  0  0  0  0  0  0  0  0  0
   37.2670   29.4160   50.3970 C   0  0  0  0  0  0  0  0  0  0  0  0
   37.7450   29.9560   49.1880 C   0  0  0  0  0  0  0  0  0  0  0  0
   36.8780   30.6070   48.3130 C   0  0  0  0  0  0  0  0  0  0  0  0
   35.5790   30.6970   48.6650 N   0  0  0  0  0  0  0  0  0  0  0  0
   35.0960   30.1810   49.8280 C   0  0  0  0  0  0  0  0  0  0  0  0
   35.9530   29.5450   50.6830 N   0  0  0  0  0  0  0  0  0  0  0  0
   37.9720   28.9180   51.0490 H   0  0  0  0  0  0  0  0  0  0  0  0
   38.7920   29.8630   48.9440 H   0  0  0  0  0  0  0  0  0  0  0  0
   34.0570   30.2780   50.0640 H   0  0  0  0  0  0  0  0  0  0  0  0
   36.5080   31.2210   43.4630 C   0  0  0  0  0  0  0  0  0  0  0  0
   36.7720   30.1690   42.6370 C   0  0  0  0  0  0  0  0  0  0  0  0
   36.2050   29.9160   41.4160 C   0  0  0  0  0  0  0  0  0  0  0  0
   35.2580   30.8270   40.9650 C   0  0  0  0  0  0  0  0  0  0  0  0
   34.9800   31.9170   41.8120 C   0  0  0  0  0  0  0  0  0  0  0  0
   35.6010   32.0470   42.9730 N   0  0  0  0  0  0  0  0  0  0  0  0
   37.5100   29.4150   42.9330 H   0  0  0  0  0  0  0  0  0  0  0  0
   36.4560   29.0610   40.8040 H   0  0  0  0  0  0  0  0  0  0  0  0
   34.7690   30.6970   40.0160 H   0  0  0  0  0  0  0  0  0  0  0  0
   33.9730   32.9070   41.3600 C   0  0  0  0  0  0  0  0  0  0  0  0
   33.5080   33.8980   42.2560 C   0  0  0  0  0  0  0  0  0  0  0  0
   33.8150   34.0550   43.3500 H   0  0  0  0  0  0  0  0  0  0  0  0
   32.2990   34.8610   41.2430 S   0  0  0  0  0  0  0  0  0  0  0  0
   32.6410   33.7360   39.7590 C   0  0  0  0  0  0  0  0  0  0  0  0
   32.2710   33.6440   38.6460 H   0  0  0  0  0  0  0  0  0  0  0  0
   33.4010   33.0280   40.1820 N   0  0  0  0  0  0  0  0  0  0  0  0
   40.1270   33.2940   45.9950 C   0  0  0  0  0  0  0  0  0  0  0  0
   40.0630   34.2680   45.0630 F   0  0  0  0  0  0  0  0  0  0  0  0
   41.2950   32.5810   45.7230 F   0  0  0  0  0  0  0  0  0  0  0  0
   40.2300   33.8960   47.2470 F   0  0  0  0  0  0  0  0  0  0  0  0
  1 12  1  0  0  0  0
  2  1  1  0  0  0  0
  3  4  1  0  0  0  0
  3  2  2  0  0  0  0
  4  6  1  0  0  0  0
  5  4  2  0  0  0  0
  6 35  1  0  0  0  0
  6  7  1  0  0  0  0
  7  1  1  0  0  0  0
  7  8  2  0  0  0  0
  9  2  1  0  0  0  0
 10 15  1  0  0  0  0
 10 16  1  0  0  0  0
 11 10  2  0  0  0  0
 12 13  2  0  0  0  0
 12 11  1  0  0  0  0
 13 14  1  0  0  0  0
 14 18  1  0  0  0  0
 14 15  2  0  0  0  0
 17 11  1  0  0  0  0
 19  3  1  0  0  0  0
 20 25  1  0  0  0  0
 20 19  2  0  0  0  0
 21 20  1  0  0  0  0
 22 21  2  0  0  0  0
 22 23  1  0  0  0  0
 23 24  2  0  0  0  0
 24 19  1  0  0  0  0
 26 21  1  0  0  0  0
 27 22  1  0  0  0  0
 28 23  1  0  0  0  0
 28 29  2  0  0  0  0
 29 30  1  0  0  0  0
 31 29  1  0  0  0  0
 32 34  2  0  0  0  0
 32 31  1  0  0  0  0
 33 32  1  0  0  0  0
 34 28  1  0  0  0  0
 35 38  1  0  0  0  0
 36 35  1  0  0  0  0
 37 35  1  0  0  0  0
M  END
>  <minimizedAffinity>
-6.33242369

>  <minimizedRMSD>
0.439585775

$$$$
