
 OpenBabel03272507063D

 29 32  0  0  0  0  0  0  0  0999 V2000
   36.8370   27.6160   31.9190 C   0  0  0  0  0  0  0  0  0  0  0  0
   36.1680   28.7110   32.5020 C   0  0  0  0  0  0  0  0  0  0  0  0
   36.1120   28.7600   33.9050 C   0  0  0  0  0  0  0  0  0  0  0  0
   36.7060   27.7510   34.5790 N   0  0  0  0  0  0  0  0  0  0  0  0
   37.3350   26.7210   34.0080 C   0  0  0  0  0  0  0  0  0  0  0  0
   37.3960   26.6640   32.6820 N   0  0  0  0  0  0  0  0  0  0  0  0
   36.8710   27.5950   30.8420 H   0  0  0  0  0  0  0  0  0  0  0  0
   35.7100   29.4920   31.9330 H   0  0  0  0  0  0  0  0  0  0  0  0
   38.8490   24.8110   34.2750 C   0  0  0  0  0  0  0  0  0  0  0  0
   37.9300   25.6980   34.8470 C   0  0  0  0  0  0  0  0  0  0  0  0
   37.5910   25.6080   36.1790 C   0  0  0  0  0  0  0  0  0  0  0  0
   38.1570   24.6320   36.9790 C   0  0  0  0  0  0  0  0  0  0  0  0
   38.0150   24.3140   38.2890 N   0  0  0  0  0  0  0  0  0  0  0  0
   38.8400   23.2570   38.4690 C   0  0  0  0  0  0  0  0  0  0  0  0
   39.4640   22.9330   37.3340 N   0  0  0  0  0  0  0  0  0  0  0  0
   39.0530   23.7800   36.3860 C   0  0  0  0  0  0  0  0  0  0  0  0
   39.4240   23.8270   35.0660 C   0  0  0  0  0  0  0  0  0  0  0  0
   39.1160   24.8810   33.2270 H   0  0  0  0  0  0  0  0  0  0  0  0
   36.8760   26.3170   36.5770 H   0  0  0  0  0  0  0  0  0  0  0  0
   37.3790   24.8360   38.9350 H   0  0  0  0  0  0  0  0  0  0  0  0
   38.8850   22.8280   39.4740 H   0  0  0  0  0  0  0  0  0  0  0  0
   40.1370   23.1260   34.6540 H   0  0  0  0  0  0  0  0  0  0  0  0
   35.4330   29.8680   34.6170 C   0  0  0  0  0  0  0  0  0  0  0  0
   34.0820   30.0690   34.4670 C   0  0  0  0  0  0  0  0  0  0  0  0
   33.2910   29.5740   33.9010 H   0  0  0  0  0  0  0  0  0  0  0  0
   33.7520   31.5480   35.5490 S   0  0  0  0  0  0  0  0  0  0  0  0
   35.5930   31.6050   36.0110 C   0  0  0  0  0  0  0  0  0  0  0  0
   36.3320   32.2740   36.7020 H   0  0  0  0  0  0  0  0  0  0  0  0
   36.0040   30.7390   35.4270 N   0  0  0  0  0  0  0  0  0  0  0  0
  1  2  2  0  0  0  0
  1  6  1  0  0  0  0
  2  3  1  0  0  0  0
  3  4  2  0  0  0  0
  3 23  1  0  0  0  0
  5  4  1  0  0  0  0
  5 10  1  0  0  0  0
  6  5  2  0  0  0  0
  7  1  1  0  0  0  0
  8  2  1  0  0  0  0
  9 10  2  0  0  0  0
  9 17  1  0  0  0  0
 10 11  1  0  0  0  0
 11 19  1  0  0  0  0
 11 12  2  0  0  0  0
 12 13  1  0  0  0  0
 13 14  1  0  0  0  0
 13 20  1  0  0  0  0
 14 21  1  0  0  0  0
 15 14  2  0  0  0  0
 16 12  1  0  0  0  0
 16 15  1  0  0  0  0
 17 16  2  0  0  0  0
 18  9  1  0  0  0  0
 22 17  1  0  0  0  0
 23 29  1  0  0  0  0
 24 23  2  0  0  0  0
 24 26  1  0  0  0  0
 25 24  1  0  0  0  0
 26 27  1  0  0  0  0
 27 28  1  0  0  0  0
 29 27  2  0  0  0  0
M  END
>  <minimizedAffinity>
-5.35172987

$$$$

 OpenBabel03272507063D

 29 32  0  0  0  0  0  0  0  0999 V2000
   38.2300   23.9030   38.3530 C   0  0  0  0  0  0  0  0  0  0  0  0
   39.2980   23.0110   38.1280 C   0  0  0  0  0  0  0  0  0  0  0  0
   39.8690   22.9990   36.8440 C   0  0  0  0  0  0  0  0  0  0  0  0
   39.3430   23.8460   35.9300 N   0  0  0  0  0  0  0  0  0  0  0  0
   38.3300   24.6830   36.1630 C   0  0  0  0  0  0  0  0  0  0  0  0
   37.7830   24.7050   37.3740 N   0  0  0  0  0  0  0  0  0  0  0  0
   37.8060   23.8990   39.3440 H   0  0  0  0  0  0  0  0  0  0  0  0
   39.6870   22.3570   38.8790 H   0  0  0  0  0  0  0  0  0  0  0  0
   37.5490   26.8730   35.3860 C   0  0  0  0  0  0  0  0  0  0  0  0
   37.8560   25.5390   35.0930 C   0  0  0  0  0  0  0  0  0  0  0  0
   37.7140   25.0420   33.8170 C   0  0  0  0  0  0  0  0  0  0  0  0
   37.2620   25.8580   32.7960 C   0  0  0  0  0  0  0  0  0  0  0  0
   37.0300   25.6470   31.4770 N   0  0  0  0  0  0  0  0  0  0  0  0
   36.5950   26.8420   31.0170 C   0  0  0  0  0  0  0  0  0  0  0  0
   36.5560   27.7510   31.9940 N   0  0  0  0  0  0  0  0  0  0  0  0
   36.9690   27.1590   33.1180 C   0  0  0  0  0  0  0  0  0  0  0  0
   37.0940   27.7030   34.3720 C   0  0  0  0  0  0  0  0  0  0  0  0
   37.6600   27.2650   36.3900 H   0  0  0  0  0  0  0  0  0  0  0  0
   37.9660   24.0050   33.6380 H   0  0  0  0  0  0  0  0  0  0  0  0
   37.1870   24.7220   31.0140 H   0  0  0  0  0  0  0  0  0  0  0  0
   36.3430   26.9030   29.9550 H   0  0  0  0  0  0  0  0  0  0  0  0
   36.8470   28.7370   34.5660 H   0  0  0  0  0  0  0  0  0  0  0  0
   40.9960   22.0990   36.5040 C   0  0  0  0  0  0  0  0  0  0  0  0
   41.4280   21.9850   35.2050 C   0  0  0  0  0  0  0  0  0  0  0  0
   41.1290   22.4280   34.2540 H   0  0  0  0  0  0  0  0  0  0  0  0
   42.8260   20.7610   35.3320 S   0  0  0  0  0  0  0  0  0  0  0  0
   42.5350   20.6420   37.2040 C   0  0  0  0  0  0  0  0  0  0  0  0
   43.0010   20.0540   38.1570 H   0  0  0  0  0  0  0  0  0  0  0  0
   41.6760   21.3490   37.3500 N   0  0  0  0  0  0  0  0  0  0  0  0
  1  7  1  0  0  0  0
  2  1  1  0  0  0  0
  2  8  1  0  0  0  0
  3  2  2  0  0  0  0
  4  5  2  0  0  0  0
  4  3  1  0  0  0  0
  5  6  1  0  0  0  0
  6  1  2  0  0  0  0
  9 18  1  0  0  0  0
 10  9  1  0  0  0  0
 10  5  1  0  0  0  0
 11 10  2  0  0  0  0
 12 16  2  0  0  0  0
 12 11  1  0  0  0  0
 13 12  1  0  0  0  0
 14 13  1  0  0  0  0
 14 15  2  0  0  0  0
 15 16  1  0  0  0  0
 16 17  1  0  0  0  0
 17 22  1  0  0  0  0
 17  9  2  0  0  0  0
 19 11  1  0  0  0  0
 20 13  1  0  0  0  0
 21 14  1  0  0  0  0
 23  3  1  0  0  0  0
 23 29  1  0  0  0  0
 24 26  1  0  0  0  0
 24 23  2  0  0  0  0
 25 24  1  0  0  0  0
 26 27  1  0  0  0  0
 27 29  2  0  0  0  0
 27 28  1  0  0  0  0
M  END
>  <minimizedAffinity>
-5.33788252

$$$$

 OpenBabel03272507063D

 29 32  0  0  0  0  0  0  0  0999 V2000
   36.9850   28.4890   31.8590 C   0  0  0  0  0  0  0  0  0  0  0  0
   37.5240   27.3260   32.4450 C   0  0  0  0  0  0  0  0  0  0  0  0
   37.2000   27.0710   33.7880 C   0  0  0  0  0  0  0  0  0  0  0  0
   36.3980   27.9660   34.4070 N   0  0  0  0  0  0  0  0  0  0  0  0
   35.8980   29.0630   33.8340 C   0  0  0  0  0  0  0  0  0  0  0  0
   36.1960   29.3140   32.5630 N   0  0  0  0  0  0  0  0  0  0  0  0
   37.2440   28.6680   30.8280 H   0  0  0  0  0  0  0  0  0  0  0  0
   38.1560   26.6400   31.9210 H   0  0  0  0  0  0  0  0  0  0  0  0
   33.6660   29.9010   34.4070 C   0  0  0  0  0  0  0  0  0  0  0  0
   35.0500   29.9470   34.6110 C   0  0  0  0  0  0  0  0  0  0  0  0
   35.6030   30.8110   35.5300 C   0  0  0  0  0  0  0  0  0  0  0  0
   34.7950   31.6540   36.2700 C   0  0  0  0  0  0  0  0  0  0  0  0
   35.0550   32.5850   37.2210 N   0  0  0  0  0  0  0  0  0  0  0  0
   33.8380   33.0690   37.5580 C   0  0  0  0  0  0  0  0  0  0  0  0
   32.8710   32.4740   36.8580 N   0  0  0  0  0  0  0  0  0  0  0  0
   33.4440   31.5830   36.0440 C   0  0  0  0  0  0  0  0  0  0  0  0
   32.8430   30.7420   35.1430 C   0  0  0  0  0  0  0  0  0  0  0  0
   33.2300   29.2220   33.6840 H   0  0  0  0  0  0  0  0  0  0  0  0
   36.6790   30.8090   35.6540 H   0  0  0  0  0  0  0  0  0  0  0  0
   36.0240   32.8040   37.5510 H   0  0  0  0  0  0  0  0  0  0  0  0
   33.8100   33.8490   38.3250 H   0  0  0  0  0  0  0  0  0  0  0  0
   31.7710   30.7310   35.0070 H   0  0  0  0  0  0  0  0  0  0  0  0
   37.7140   25.8760   34.4980 C   0  0  0  0  0  0  0  0  0  0  0  0
   38.1980   24.8010   33.7930 C   0  0  0  0  0  0  0  0  0  0  0  0
   38.3180   24.5680   32.7340 H   0  0  0  0  0  0  0  0  0  0  0  0
   38.7010   23.6090   35.1330 S   0  0  0  0  0  0  0  0  0  0  0  0
   38.1300   24.8610   36.4420 C   0  0  0  0  0  0  0  0  0  0  0  0
   38.0740   24.9430   37.6510 H   0  0  0  0  0  0  0  0  0  0  0  0
   37.7660   25.7100   35.8060 N   0  0  0  0  0  0  0  0  0  0  0  0
  1  2  2  0  0  0  0
  1  6  1  0  0  0  0
  2  3  1  0  0  0  0
  3  4  2  0  0  0  0
  3 23  1  0  0  0  0
  5  4  1  0  0  0  0
  5 10  1  0  0  0  0
  6  5  2  0  0  0  0
  7  1  1  0  0  0  0
  8  2  1  0  0  0  0
  9 10  2  0  0  0  0
  9 17  1  0  0  0  0
 10 11  1  0  0  0  0
 11 19  1  0  0  0  0
 11 12  2  0  0  0  0
 12 13  1  0  0  0  0
 13 20  1  0  0  0  0
 13 14  1  0  0  0  0
 14 21  1  0  0  0  0
 15 14  2  0  0  0  0
 16 12  1  0  0  0  0
 16 15  1  0  0  0  0
 17 16  2  0  0  0  0
 18  9  1  0  0  0  0
 22 17  1  0  0  0  0
 23 29  1  0  0  0  0
 24 23  2  0  0  0  0
 24 26  1  0  0  0  0
 25 24  1  0  0  0  0
 26 27  1  0  0  0  0
 27 28  1  0  0  0  0
 29 27  2  0  0  0  0
M  END
>  <minimizedAffinity>
-5.25917196

$$$$

 OpenBabel03272507063D

 29 32  0  0  0  0  0  0  0  0999 V2000
   36.1130   29.8740   31.9550 C   0  0  0  0  0  0  0  0  0  0  0  0
   35.4630   30.6590   32.9280 C   0  0  0  0  0  0  0  0  0  0  0  0
   35.3830   30.1380   34.2300 C   0  0  0  0  0  0  0  0  0  0  0  0
   35.9370   28.9230   34.4400 N   0  0  0  0  0  0  0  0  0  0  0  0
   36.5480   28.1930   33.5050 C   0  0  0  0  0  0  0  0  0  0  0  0
   36.6320   28.6770   32.2690 N   0  0  0  0  0  0  0  0  0  0  0  0
   36.1660   30.2900   30.9620 H   0  0  0  0  0  0  0  0  0  0  0  0
   35.0370   31.6180   32.7220 H   0  0  0  0  0  0  0  0  0  0  0  0
   37.3370   25.9680   32.8430 C   0  0  0  0  0  0  0  0  0  0  0  0
   37.0990   26.8990   33.8600 C   0  0  0  0  0  0  0  0  0  0  0  0
   37.3800   26.6020   35.1750 C   0  0  0  0  0  0  0  0  0  0  0  0
   37.9050   25.3680   35.5140 C   0  0  0  0  0  0  0  0  0  0  0  0
   38.2700   24.8110   36.6950 N   0  0  0  0  0  0  0  0  0  0  0  0
   38.7110   23.5770   36.3630 C   0  0  0  0  0  0  0  0  0  0  0  0
   38.6260   23.3720   35.0460 N   0  0  0  0  0  0  0  0  0  0  0  0
   38.1250   24.4790   34.4920 C   0  0  0  0  0  0  0  0  0  0  0  0
   37.8630   24.7270   33.1690 C   0  0  0  0  0  0  0  0  0  0  0  0
   37.1160   26.2020   31.8080 H   0  0  0  0  0  0  0  0  0  0  0  0
   37.1810   27.3540   35.9260 H   0  0  0  0  0  0  0  0  0  0  0  0
   38.1890   25.3140   37.6090 H   0  0  0  0  0  0  0  0  0  0  0  0
   39.0610   22.9390   37.1790 H   0  0  0  0  0  0  0  0  0  0  0  0
   38.0570   23.9850   32.4060 H   0  0  0  0  0  0  0  0  0  0  0  0
   34.7200   30.8840   35.3260 C   0  0  0  0  0  0  0  0  0  0  0  0
   33.3830   30.7010   35.5840 C   0  0  0  0  0  0  0  0  0  0  0  0
   32.5940   30.0860   35.1490 H   0  0  0  0  0  0  0  0  0  0  0  0
   33.0710   31.8450   37.0200 S   0  0  0  0  0  0  0  0  0  0  0  0
   34.8960   32.3680   36.9840 C   0  0  0  0  0  0  0  0  0  0  0  0
   35.6360   33.1150   37.5900 H   0  0  0  0  0  0  0  0  0  0  0  0
   35.2950   31.7540   36.1330 N   0  0  0  0  0  0  0  0  0  0  0  0
  1  6  2  0  0  0  0
  1  2  1  0  0  0  0
  2  3  2  0  0  0  0
  3  4  1  0  0  0  0
  3 23  1  0  0  0  0
  5 10  1  0  0  0  0
  5  4  2  0  0  0  0
  6  5  1  0  0  0  0
  7  1  1  0  0  0  0
  8  2  1  0  0  0  0
  9 17  2  0  0  0  0
  9 10  1  0  0  0  0
 10 11  2  0  0  0  0
 11 12  1  0  0  0  0
 11 19  1  0  0  0  0
 12 13  1  0  0  0  0
 13 20  1  0  0  0  0
 14 13  1  0  0  0  0
 14 21  1  0  0  0  0
 15 14  2  0  0  0  0
 16 15  1  0  0  0  0
 16 12  2  0  0  0  0
 17 16  1  0  0  0  0
 18  9  1  0  0  0  0
 22 17  1  0  0  0  0
 23 24  2  0  0  0  0
 23 29  1  0  0  0  0
 24 26  1  0  0  0  0
 25 24  1  0  0  0  0
 27 26  1  0  0  0  0
 27 28  1  0  0  0  0
 29 27  2  0  0  0  0
M  END
>  <minimizedAffinity>
-5.15189934

$$$$

 OpenBabel03272507063D

 29 32  0  0  0  0  0  0  0  0999 V2000
   35.8390   23.7090   31.4570 C   0  0  0  0  0  0  0  0  0  0  0  0
   35.6240   25.0510   31.0800 C   0  0  0  0  0  0  0  0  0  0  0  0
   36.4460   26.0250   31.6690 C   0  0  0  0  0  0  0  0  0  0  0  0
   37.3750   25.5940   32.5520 N   0  0  0  0  0  0  0  0  0  0  0  0
   37.5630   24.3180   32.8960 C   0  0  0  0  0  0  0  0  0  0  0  0
   36.7920   23.3860   32.3440 N   0  0  0  0  0  0  0  0  0  0  0  0
   35.2000   22.9750   30.9930 H   0  0  0  0  0  0  0  0  0  0  0  0
   34.8780   25.3520   30.3760 H   0  0  0  0  0  0  0  0  0  0  0  0
   39.9040   24.4150   33.6160 C   0  0  0  0  0  0  0  0  0  0  0  0
   38.5950   23.9870   33.8600 C   0  0  0  0  0  0  0  0  0  0  0  0
   38.2840   23.2650   34.9900 C   0  0  0  0  0  0  0  0  0  0  0  0
   39.2670   22.9480   35.9090 C   0  0  0  0  0  0  0  0  0  0  0  0
   39.2530   22.2660   37.0810 N   0  0  0  0  0  0  0  0  0  0  0  0
   40.5370   22.3010   37.5050 C   0  0  0  0  0  0  0  0  0  0  0  0
   41.3110   22.9680   36.6460 N   0  0  0  0  0  0  0  0  0  0  0  0
   40.5400   23.3830   35.6380 C   0  0  0  0  0  0  0  0  0  0  0  0
   40.9020   24.1050   34.5290 C   0  0  0  0  0  0  0  0  0  0  0  0
   40.1500   24.9840   32.7260 H   0  0  0  0  0  0  0  0  0  0  0  0
   37.2570   22.9560   35.1370 H   0  0  0  0  0  0  0  0  0  0  0  0
   38.3840   21.8440   37.4820 H   0  0  0  0  0  0  0  0  0  0  0  0
   40.7610   21.8010   38.4510 H   0  0  0  0  0  0  0  0  0  0  0  0
   41.9230   24.4210   34.3690 H   0  0  0  0  0  0  0  0  0  0  0  0
   36.3030   27.4630   31.3420 C   0  0  0  0  0  0  0  0  0  0  0  0
   35.5610   28.2920   32.1490 C   0  0  0  0  0  0  0  0  0  0  0  0
   34.9870   28.1570   33.0670 H   0  0  0  0  0  0  0  0  0  0  0  0
   35.7070   29.9450   31.3050 S   0  0  0  0  0  0  0  0  0  0  0  0
   36.7930   29.1510   29.9650 C   0  0  0  0  0  0  0  0  0  0  0  0
   37.3760   29.4870   28.9560 H   0  0  0  0  0  0  0  0  0  0  0  0
   36.8350   28.0820   30.3050 N   0  0  0  0  0  0  0  0  0  0  0  0
  1  6  1  0  0  0  0
  2  1  2  0  0  0  0
  2  3  1  0  0  0  0
  3  4  2  0  0  0  0
  4  5  1  0  0  0  0
  5 10  1  0  0  0  0
  6  5  2  0  0  0  0
  7  1  1  0  0  0  0
  8  2  1  0  0  0  0
  9 10  2  0  0  0  0
  9 17  1  0  0  0  0
 10 11  1  0  0  0  0
 11 19  1  0  0  0  0
 11 12  2  0  0  0  0
 12 13  1  0  0  0  0
 13 20  1  0  0  0  0
 13 14  1  0  0  0  0
 14 21  1  0  0  0  0
 15 14  2  0  0  0  0
 16 12  1  0  0  0  0
 16 15  1  0  0  0  0
 17 16  2  0  0  0  0
 18  9  1  0  0  0  0
 22 17  1  0  0  0  0
 23  3  1  0  0  0  0
 23 24  2  0  0  0  0
 24 25  1  0  0  0  0
 26 24  1  0  0  0  0
 27 29  2  0  0  0  0
 27 26  1  0  0  0  0
 28 27  1  0  0  0  0
 29 23  1  0  0  0  0
M  END
>  <minimizedAffinity>
-5.14336538

$$$$

 OpenBabel03272507063D

 29 32  0  0  0  0  0  0  0  0999 V2000
   38.4040   24.0550   32.3110 C   0  0  0  0  0  0  0  0  0  0  0  0
   38.7030   23.5520   33.5940 C   0  0  0  0  0  0  0  0  0  0  0  0
   38.3550   24.3490   34.6960 C   0  0  0  0  0  0  0  0  0  0  0  0
   37.7620   25.5350   34.4340 N   0  0  0  0  0  0  0  0  0  0  0  0
   37.4880   25.9950   33.2110 C   0  0  0  0  0  0  0  0  0  0  0  0
   37.8110   25.2490   32.1600 N   0  0  0  0  0  0  0  0  0  0  0  0
   38.6780   23.4290   31.4770 H   0  0  0  0  0  0  0  0  0  0  0  0
   39.1730   22.6060   33.7600 H   0  0  0  0  0  0  0  0  0  0  0  0
   36.4660   27.9820   34.2180 C   0  0  0  0  0  0  0  0  0  0  0  0
   36.8500   27.2900   33.0650 C   0  0  0  0  0  0  0  0  0  0  0  0
   36.6320   27.8190   31.8130 C   0  0  0  0  0  0  0  0  0  0  0  0
   36.0230   29.0530   31.6730 C   0  0  0  0  0  0  0  0  0  0  0  0
   35.6890   29.8020   30.5940 N   0  0  0  0  0  0  0  0  0  0  0  0
   35.1190   30.9110   31.1190 C   0  0  0  0  0  0  0  0  0  0  0  0
   35.0980   30.8580   32.4530 N   0  0  0  0  0  0  0  0  0  0  0  0
   35.6590   29.7040   32.8240 C   0  0  0  0  0  0  0  0  0  0  0  0
   35.8540   29.2210   34.0940 C   0  0  0  0  0  0  0  0  0  0  0  0
   36.6380   27.5660   35.2040 H   0  0  0  0  0  0  0  0  0  0  0  0
   36.9480   27.2470   30.9500 H   0  0  0  0  0  0  0  0  0  0  0  0
   35.8760   29.4970   29.6110 H   0  0  0  0  0  0  0  0  0  0  0  0
   34.7670   31.6690   30.4130 H   0  0  0  0  0  0  0  0  0  0  0  0
   35.5440   29.7810   34.9650 H   0  0  0  0  0  0  0  0  0  0  0  0
   38.6260   23.9130   36.0860 C   0  0  0  0  0  0  0  0  0  0  0  0
   37.7700   24.2580   37.1040 C   0  0  0  0  0  0  0  0  0  0  0  0
   36.8440   24.8310   37.1680 H   0  0  0  0  0  0  0  0  0  0  0  0
   38.5560   23.4760   38.6000 S   0  0  0  0  0  0  0  0  0  0  0  0
   39.9510   22.8050   37.5000 C   0  0  0  0  0  0  0  0  0  0  0  0
   40.9610   22.1440   37.6220 H   0  0  0  0  0  0  0  0  0  0  0  0
   39.6520   23.1880   36.4890 N   0  0  0  0  0  0  0  0  0  0  0  0
  1  2  1  0  0  0  0
  2  8  1  0  0  0  0
  2  3  2  0  0  0  0
  3 23  1  0  0  0  0
  4  3  1  0  0  0  0
  5  4  2  0  0  0  0
  6  1  2  0  0  0  0
  6  5  1  0  0  0  0
  7  1  1  0  0  0  0
  9 18  1  0  0  0  0
 10  5  1  0  0  0  0
 10  9  2  0  0  0  0
 11 10  1  0  0  0  0
 12 11  2  0  0  0  0
 12 16  1  0  0  0  0
 13 14  1  0  0  0  0
 13 12  1  0  0  0  0
 14 15  2  0  0  0  0
 15 16  1  0  0  0  0
 16 17  2  0  0  0  0
 17  9  1  0  0  0  0
 17 22  1  0  0  0  0
 19 11  1  0  0  0  0
 20 13  1  0  0  0  0
 21 14  1  0  0  0  0
 23 29  1  0  0  0  0
 23 24  2  0  0  0  0
 24 25  1  0  0  0  0
 24 26  1  0  0  0  0
 27 28  1  0  0  0  0
 27 26  1  0  0  0  0
 29 27  2  0  0  0  0
M  END
>  <minimizedAffinity>
-5.13559103

$$$$

 OpenBabel03272507063D

 29 32  0  0  0  0  0  0  0  0999 V2000
   36.3710   29.7290   30.6400 C   0  0  0  0  0  0  0  0  0  0  0  0
   36.4820   28.3260   30.5650 C   0  0  0  0  0  0  0  0  0  0  0  0
   36.0820   27.5860   31.6900 C   0  0  0  0  0  0  0  0  0  0  0  0
   35.6240   28.2840   32.7540 N   0  0  0  0  0  0  0  0  0  0  0  0
   35.5270   29.6150   32.8060 C   0  0  0  0  0  0  0  0  0  0  0  0
   35.9010   30.3250   31.7460 N   0  0  0  0  0  0  0  0  0  0  0  0
   36.6810   30.2800   29.7670 H   0  0  0  0  0  0  0  0  0  0  0  0
   36.8490   27.8090   29.7040 H   0  0  0  0  0  0  0  0  0  0  0  0
   35.9300   30.8570   34.8800 C   0  0  0  0  0  0  0  0  0  0  0  0
   35.0210   30.2430   34.0110 C   0  0  0  0  0  0  0  0  0  0  0  0
   33.6720   30.2330   34.2860 C   0  0  0  0  0  0  0  0  0  0  0  0
   33.1890   30.8310   35.4360 C   0  0  0  0  0  0  0  0  0  0  0  0
   31.9440   30.9710   35.9530 N   0  0  0  0  0  0  0  0  0  0  0  0
   32.1330   31.6550   37.1040 C   0  0  0  0  0  0  0  0  0  0  0  0
   33.4260   31.9280   37.2970 N   0  0  0  0  0  0  0  0  0  0  0  0
   34.1080   31.4230   36.2660 C   0  0  0  0  0  0  0  0  0  0  0  0
   35.4600   31.4620   36.0370 C   0  0  0  0  0  0  0  0  0  0  0  0
   36.9920   30.8660   34.6630 H   0  0  0  0  0  0  0  0  0  0  0  0
   33.0080   29.7470   33.5840 H   0  0  0  0  0  0  0  0  0  0  0  0
   31.0880   30.5950   35.4830 H   0  0  0  0  0  0  0  0  0  0  0  0
   31.2440   31.8830   37.6980 H   0  0  0  0  0  0  0  0  0  0  0  0
   36.1370   31.9430   36.7290 H   0  0  0  0  0  0  0  0  0  0  0  0
   36.1580   26.1060   31.7140 C   0  0  0  0  0  0  0  0  0  0  0  0
   35.2510   25.3500   31.0120 C   0  0  0  0  0  0  0  0  0  0  0  0
   34.3970   25.5740   30.3710 H   0  0  0  0  0  0  0  0  0  0  0  0
   35.7870   23.6040   31.3760 S   0  0  0  0  0  0  0  0  0  0  0  0
   37.1970   24.2750   32.4560 C   0  0  0  0  0  0  0  0  0  0  0  0
   38.1040   23.8390   33.1320 H   0  0  0  0  0  0  0  0  0  0  0  0
   37.0470   25.3830   32.3690 N   0  0  0  0  0  0  0  0  0  0  0  0
  1  6  1  0  0  0  0
  2  1  2  0  0  0  0
  2  3  1  0  0  0  0
  3 23  1  0  0  0  0
  3  4  2  0  0  0  0
  4  5  1  0  0  0  0
  5 10  1  0  0  0  0
  6  5  2  0  0  0  0
  7  1  1  0  0  0  0
  8  2  1  0  0  0  0
  9 17  1  0  0  0  0
 10 11  1  0  0  0  0
 10  9  2  0  0  0  0
 11 12  2  0  0  0  0
 12 13  1  0  0  0  0
 12 16  1  0  0  0  0
 13 14  1  0  0  0  0
 14 15  2  0  0  0  0
 14 21  1  0  0  0  0
 16 15  1  0  0  0  0
 17 16  2  0  0  0  0
 17 22  1  0  0  0  0
 18  9  1  0  0  0  0
 19 11  1  0  0  0  0
 20 13  1  0  0  0  0
 23 29  1  0  0  0  0
 24 26  1  0  0  0  0
 24 23  2  0  0  0  0
 25 24  1  0  0  0  0
 26 27  1  0  0  0  0
 27 28  1  0  0  0  0
 29 27  2  0  0  0  0
M  END
>  <minimizedAffinity>
-5.0663929

$$$$

 OpenBabel03272507063D

 29 32  0  0  0  0  0  0  0  0999 V2000
   36.4540   28.9630   31.8320 C   0  0  0  0  0  0  0  0  0  0  0  0
   35.8530   29.9180   32.6780 C   0  0  0  0  0  0  0  0  0  0  0  0
   35.7910   29.6160   34.0480 C   0  0  0  0  0  0  0  0  0  0  0  0
   36.3120   28.4330   34.4420 N   0  0  0  0  0  0  0  0  0  0  0  0
   36.8770   27.5410   33.6250 C   0  0  0  0  0  0  0  0  0  0  0  0
   36.9440   27.8150   32.3260 N   0  0  0  0  0  0  0  0  0  0  0  0
   36.4940   29.2110   30.7840 H   0  0  0  0  0  0  0  0  0  0  0  0
   35.4520   30.8450   32.3270 H   0  0  0  0  0  0  0  0  0  0  0  0
   37.7130   26.2550   35.5380 C   0  0  0  0  0  0  0  0  0  0  0  0
   37.3970   26.3040   34.1750 C   0  0  0  0  0  0  0  0  0  0  0  0
   37.5740   25.2040   33.3660 C   0  0  0  0  0  0  0  0  0  0  0  0
   38.0700   24.0240   33.8900 C   0  0  0  0  0  0  0  0  0  0  0  0
   38.3420   22.8130   33.3460 N   0  0  0  0  0  0  0  0  0  0  0  0
   38.8080   22.0770   34.3800 C   0  0  0  0  0  0  0  0  0  0  0  0
   38.8270   22.7890   35.5090 N   0  0  0  0  0  0  0  0  0  0  0  0
   38.3690   24.0120   35.2290 C   0  0  0  0  0  0  0  0  0  0  0  0
   38.2120   25.0780   36.0770 C   0  0  0  0  0  0  0  0  0  0  0  0
   37.5740   27.1210   36.1760 H   0  0  0  0  0  0  0  0  0  0  0  0
   37.3140   25.2890   32.3190 H   0  0  0  0  0  0  0  0  0  0  0  0
   38.1870   22.5980   32.3330 H   0  0  0  0  0  0  0  0  0  0  0  0
   39.0950   21.0440   34.1640 H   0  0  0  0  0  0  0  0  0  0  0  0
   38.4660   25.0090   37.1250 H   0  0  0  0  0  0  0  0  0  0  0  0
   35.1800   30.5520   35.0220 C   0  0  0  0  0  0  0  0  0  0  0  0
   35.9700   31.3560   35.8070 C   0  0  0  0  0  0  0  0  0  0  0  0
   37.0450   31.5030   35.9170 H   0  0  0  0  0  0  0  0  0  0  0  0
   34.7300   32.3070   36.8200 S   0  0  0  0  0  0  0  0  0  0  0  0
   33.3230   31.3870   35.9380 C   0  0  0  0  0  0  0  0  0  0  0  0
   32.1100   31.3580   35.9550 H   0  0  0  0  0  0  0  0  0  0  0  0
   33.8880   30.7170   35.2370 N   0  0  0  0  0  0  0  0  0  0  0  0
  1  6  2  0  0  0  0
  1  2  1  0  0  0  0
  2  3  2  0  0  0  0
  3  4  1  0  0  0  0
  3 23  1  0  0  0  0
  5 10  1  0  0  0  0
  5  4  2  0  0  0  0
  6  5  1  0  0  0  0
  7  1  1  0  0  0  0
  8  2  1  0  0  0  0
  9 17  1  0  0  0  0
  9 18  1  0  0  0  0
 10  9  2  0  0  0  0
 11 12  2  0  0  0  0
 11 10  1  0  0  0  0
 12 16  1  0  0  0  0
 13 12  1  0  0  0  0
 13 14  1  0  0  0  0
 14 15  2  0  0  0  0
 16 15  1  0  0  0  0
 16 17  2  0  0  0  0
 17 22  1  0  0  0  0
 19 11  1  0  0  0  0
 20 13  1  0  0  0  0
 21 14  1  0  0  0  0
 23 29  1  0  0  0  0
 23 24  2  0  0  0  0
 24 25  1  0  0  0  0
 24 26  1  0  0  0  0
 27 28  1  0  0  0  0
 27 26  1  0  0  0  0
 29 27  2  0  0  0  0
M  END
>  <minimizedAffinity>
-5.04444313

$$$$

 OpenBabel03272507063D

 29 32  0  0  0  0  0  0  0  0999 V2000
   36.0350   28.7640   33.5700 C   0  0  0  0  0  0  0  0  0  0  0  0
   36.4710   28.9590   32.2440 C   0  0  0  0  0  0  0  0  0  0  0  0
   37.4700   28.0990   31.7610 C   0  0  0  0  0  0  0  0  0  0  0  0
   37.9320   27.1530   32.6100 N   0  0  0  0  0  0  0  0  0  0  0  0
   37.5060   26.9840   33.8630 C   0  0  0  0  0  0  0  0  0  0  0  0
   36.5590   27.7920   34.3320 N   0  0  0  0  0  0  0  0  0  0  0  0
   35.2670   29.4330   33.9240 H   0  0  0  0  0  0  0  0  0  0  0  0
   36.0800   29.7190   31.6010 H   0  0  0  0  0  0  0  0  0  0  0  0
   39.1000   25.1400   34.1230 C   0  0  0  0  0  0  0  0  0  0  0  0
   38.0860   25.9320   34.6750 C   0  0  0  0  0  0  0  0  0  0  0  0
   37.6430   25.7230   35.9620 C   0  0  0  0  0  0  0  0  0  0  0  0
   38.1960   24.7180   36.7360 C   0  0  0  0  0  0  0  0  0  0  0  0
   37.9640   24.2930   38.0020 N   0  0  0  0  0  0  0  0  0  0  0  0
   38.8310   23.2700   38.1770 C   0  0  0  0  0  0  0  0  0  0  0  0
   39.5650   23.0670   37.0800 N   0  0  0  0  0  0  0  0  0  0  0  0
   39.1870   23.9620   36.1640 C   0  0  0  0  0  0  0  0  0  0  0  0
   39.6630   24.1290   34.8880 C   0  0  0  0  0  0  0  0  0  0  0  0
   39.4490   25.3050   33.1110 H   0  0  0  0  0  0  0  0  0  0  0  0
   36.8580   26.3610   36.3460 H   0  0  0  0  0  0  0  0  0  0  0  0
   37.2470   24.7310   38.6260 H   0  0  0  0  0  0  0  0  0  0  0  0
   38.8170   22.7680   39.1480 H   0  0  0  0  0  0  0  0  0  0  0  0
   40.4470   23.5000   34.4910 H   0  0  0  0  0  0  0  0  0  0  0  0
   37.9990   28.2190   30.3810 C   0  0  0  0  0  0  0  0  0  0  0  0
   39.0700   27.4600   29.9760 C   0  0  0  0  0  0  0  0  0  0  0  0
   39.7040   26.7110   30.4520 H   0  0  0  0  0  0  0  0  0  0  0  0
   39.3160   27.9880   28.2070 S   0  0  0  0  0  0  0  0  0  0  0  0
   37.8530   29.1870   28.3740 C   0  0  0  0  0  0  0  0  0  0  0  0
   37.2580   29.9910   27.6880 H   0  0  0  0  0  0  0  0  0  0  0  0
   37.5360   29.0170   29.4370 N   0  0  0  0  0  0  0  0  0  0  0  0
  1  7  1  0  0  0  0
  1  6  1  0  0  0  0
  2  1  2  0  0  0  0
  3  2  1  0  0  0  0
  3  4  2  0  0  0  0
  4  5  1  0  0  0  0
  5  6  2  0  0  0  0
  5 10  1  0  0  0  0
  8  2  1  0  0  0  0
  9 10  2  0  0  0  0
  9 17  1  0  0  0  0
 10 11  1  0  0  0  0
 11 19  1  0  0  0  0
 11 12  2  0  0  0  0
 12 13  1  0  0  0  0
 13 14  1  0  0  0  0
 13 20  1  0  0  0  0
 14 21  1  0  0  0  0
 15 14  2  0  0  0  0
 16 12  1  0  0  0  0
 16 15  1  0  0  0  0
 17 16  2  0  0  0  0
 18  9  1  0  0  0  0
 22 17  1  0  0  0  0
 23  3  1  0  0  0  0
 24 23  2  0  0  0  0
 24 25  1  0  0  0  0
 26 27  1  0  0  0  0
 26 24  1  0  0  0  0
 27 29  2  0  0  0  0
 28 27  1  0  0  0  0
 29 23  1  0  0  0  0
M  END
>  <minimizedAffinity>
-5.02132463

$$$$
