
 OpenBabel03272509083D

 38 41  0  0  0  0  0  0  0  0999 V2000
   32.8560   27.7700   48.6250 C   0  0  0  0  0  0  0  0  0  0  0  0
   31.9220   28.3170   48.5320 H   0  0  0  0  0  0  0  0  0  0  0  0
   32.6510   26.9940   49.4340 H   0  0  0  0  0  0  0  0  0  0  0  0
   33.2350   26.9490   47.4460 C   0  0  0  0  0  0  0  0  0  0  0  0
   33.7940   25.6780   47.5780 C   0  0  0  0  0  0  0  0  0  0  0  0
   34.1550   24.9270   46.4970 C   0  0  0  0  0  0  0  0  0  0  0  0
   33.9740   25.4110   45.2200 C   0  0  0  0  0  0  0  0  0  0  0  0
   33.4320   26.6420   45.0900 C   0  0  0  0  0  0  0  0  0  0  0  0
   33.0510   27.4360   46.1630 C   0  0  0  0  0  0  0  0  0  0  0  0
   33.9200   25.3360   48.6010 H   0  0  0  0  0  0  0  0  0  0  0  0
   34.5700   23.9750   46.7350 H   0  0  0  0  0  0  0  0  0  0  0  0
   34.2770   24.7740   44.4020 H   0  0  0  0  0  0  0  0  0  0  0  0
   33.3230   26.9440   44.0580 H   0  0  0  0  0  0  0  0  0  0  0  0
   32.4660   28.7580   45.9170 C   0  0  0  0  0  0  0  0  0  0  0  0
   33.2840   29.8830   45.6710 C   0  0  0  0  0  0  0  0  0  0  0  0
   34.4940   29.9590   45.6200 H   0  0  0  0  0  0  0  0  0  0  0  0
   32.0640   31.2690   45.4320 S   0  0  0  0  0  0  0  0  0  0  0  0
   30.6390   30.0520   45.7160 C   0  0  0  0  0  0  0  0  0  0  0  0
   29.5660   30.3760   45.6830 H   0  0  0  0  0  0  0  0  0  0  0  0
   31.2220   29.1270   45.8810 N   0  0  0  0  0  0  0  0  0  0  0  0
   35.2360   28.3200   49.0520 C   0  0  0  0  0  0  0  0  0  0  0  0
   33.9560   28.5800   49.1750 C   0  0  0  0  0  0  0  0  0  0  0  0
   37.2900   30.1280   51.4690 C   0  0  0  0  0  0  0  0  0  0  0  0
   38.0160   30.9990   50.6340 C   0  0  0  0  0  0  0  0  0  0  0  0
   37.7740   30.9350   49.2490 C   0  0  0  0  0  0  0  0  0  0  0  0
   36.8490   30.0340   48.7860 N   0  0  0  0  0  0  0  0  0  0  0  0
   36.1870   29.2260   49.6560 C   0  0  0  0  0  0  0  0  0  0  0  0
   36.4030   29.2720   50.9700 N   0  0  0  0  0  0  0  0  0  0  0  0
   37.5160   30.2170   52.5440 H   0  0  0  0  0  0  0  0  0  0  0  0
   38.7510   31.7180   50.9720 H   0  0  0  0  0  0  0  0  0  0  0  0
   38.4630   31.7920   48.2720 C   0  0  0  0  0  0  0  0  0  0  0  0
   38.7980   31.3620   47.0140 C   0  0  0  0  0  0  0  0  0  0  0  0
   39.4340   32.4340   46.3680 C   0  0  0  0  0  0  0  0  0  0  0  0
   39.4540   33.4640   47.2640 N   0  0  0  0  0  0  0  0  0  0  0  0
   38.8690   33.0610   48.3940 N   0  0  0  0  0  0  0  0  0  0  0  0
   38.6450   30.3930   46.5170 H   0  0  0  0  0  0  0  0  0  0  0  0
   39.8150   32.4050   45.3630 H   0  0  0  0  0  0  0  0  0  0  0  0
   39.8770   34.3900   47.0260 H   0  0  0  0  0  0  0  0  0  0  0  0
  1 22  1  0  0  0  0
  1  3  1  0  0  0  0
  2  1  1  0  0  0  0
  4  5  1  0  0  0  0
  4  1  1  0  0  0  0
  5 10  1  0  0  0  0
  6 11  1  0  0  0  0
  6  5  2  0  0  0  0
  7  6  1  0  0  0  0
  8  7  2  0  0  0  0
  8  9  1  0  0  0  0
  9  4  2  0  0  0  0
 12  7  1  0  0  0  0
 13  8  1  0  0  0  0
 14  9  1  0  0  0  0
 15 14  2  0  0  0  0
 16 15  1  0  0  0  0
 17 15  1  0  0  0  0
 17 18  1  0  0  0  0
 18 20  2  0  0  0  0
 19 18  1  0  0  0  0
 20 14  1  0  0  0  0
 21 22  2  0  0  0  0
 21 27  1  0  0  0  0
 23 29  1  0  0  0  0
 24 30  1  0  0  0  0
 24 23  2  0  0  0  0
 25 24  1  0  0  0  0
 26 25  2  0  0  0  0
 26 27  1  0  0  0  0
 27 28  2  0  0  0  0
 28 23  1  0  0  0  0
 31 35  2  0  0  0  0
 31 25  1  0  0  0  0
 32 31  1  0  0  0  0
 33 32  2  0  0  0  0
 33 34  1  0  0  0  0
 34 35  1  0  0  0  0
 36 32  1  0  0  0  0
 37 33  1  0  0  0  0
 38 34  1  0  0  0  0
M  END
>  <minimizedAffinity>
-6.3333025

>  <minimizedRMSD>
1.15418732

$$$$
