
 OpenBabel03272505123D

 37 40  0  0  0  0  0  0  0  0999 V2000
   36.3990   30.8460   45.6340 Cl  0  0  0  0  0  0  0  0  0  0  0  0
   36.6610   30.7060   47.3480 C   0  0  0  0  0  0  0  0  0  0  0  0
   37.9100   31.0480   47.8290 C   0  0  0  0  0  0  0  0  0  0  0  0
   38.1280   30.9390   49.1870 C   0  0  0  0  0  0  0  0  0  0  0  0
   37.1200   30.5030   50.0140 C   0  0  0  0  0  0  0  0  0  0  0  0
   35.8770   30.1730   49.4640 C   0  0  0  0  0  0  0  0  0  0  0  0
   35.5980   30.2580   48.1250 C   0  0  0  0  0  0  0  0  0  0  0  0
   39.0850   31.1980   49.5810 H   0  0  0  0  0  0  0  0  0  0  0  0
   37.2950   30.4200   51.0770 H   0  0  0  0  0  0  0  0  0  0  0  0
   35.1090   29.8340   50.1440 H   0  0  0  0  0  0  0  0  0  0  0  0
   40.1790   33.3080   46.0900 C   0  0  0  0  0  0  0  0  0  0  0  0
   40.9090   32.4610   45.2210 C   0  0  0  0  0  0  0  0  0  0  0  0
   40.5980   31.1010   45.2530 C   0  0  0  0  0  0  0  0  0  0  0  0
   39.6240   30.6670   46.1050 N   0  0  0  0  0  0  0  0  0  0  0  0
   38.9630   31.5110   46.9070 C   0  0  0  0  0  0  0  0  0  0  0  0
   39.2430   32.8070   46.8920 N   0  0  0  0  0  0  0  0  0  0  0  0
   40.4500   34.3590   46.0360 H   0  0  0  0  0  0  0  0  0  0  0  0
   41.6770   32.7530   44.5390 H   0  0  0  0  0  0  0  0  0  0  0  0
   41.0720   30.3340   44.6460 H   0  0  0  0  0  0  0  0  0  0  0  0
   34.0460   29.8510   47.4040 S   0  0  0  0  0  0  0  0  0  0  0  0
   33.9040   29.0070   44.3840 Cl  0  0  0  0  0  0  0  0  0  0  0  0
   33.8640   27.8110   45.6780 C   0  0  0  0  0  0  0  0  0  0  0  0
   33.9220   28.1010   47.0340 C   0  0  0  0  0  0  0  0  0  0  0  0
   33.8790   27.0650   47.9290 C   0  0  0  0  0  0  0  0  0  0  0  0
   33.7820   25.7700   47.5350 C   0  0  0  0  0  0  0  0  0  0  0  0
   33.7230   25.4450   46.1850 C   0  0  0  0  0  0  0  0  0  0  0  0
   33.7650   26.4840   45.2630 C   0  0  0  0  0  0  0  0  0  0  0  0
   33.9290   27.3920   48.9580 H   0  0  0  0  0  0  0  0  0  0  0  0
   33.7530   25.0140   48.3070 H   0  0  0  0  0  0  0  0  0  0  0  0
   33.6470   24.4000   45.9190 H   0  0  0  0  0  0  0  0  0  0  0  0
   33.7020   26.1290   43.8160 C   0  0  0  0  0  0  0  0  0  0  0  0
   32.5030   25.9530   43.1650 C   0  0  0  0  0  0  0  0  0  0  0  0
   31.4820   26.0250   43.5130 H   0  0  0  0  0  0  0  0  0  0  0  0
   33.0320   25.5390   41.4470 S   0  0  0  0  0  0  0  0  0  0  0  0
   34.8480   25.6840   41.9390 C   0  0  0  0  0  0  0  0  0  0  0  0
   35.7510   25.5440   41.3200 H   0  0  0  0  0  0  0  0  0  0  0  0
   34.7630   25.9570   43.0590 N   0  0  0  0  0  0  0  0  0  0  0  0
  1  2  1  0  0  0  0
  2  3  2  0  0  0  0
  2  7  1  0  0  0  0
  3  4  1  0  0  0  0
  4  8  1  0  0  0  0
  4  5  2  0  0  0  0
  5  9  1  0  0  0  0
  6  5  1  0  0  0  0
  6 10  1  0  0  0  0
  7  6  2  0  0  0  0
 11 16  1  0  0  0  0
 12 13  1  0  0  0  0
 12 11  2  0  0  0  0
 13 14  2  0  0  0  0
 14 15  1  0  0  0  0
 15  3  1  0  0  0  0
 16 15  2  0  0  0  0
 17 11  1  0  0  0  0
 18 12  1  0  0  0  0
 19 13  1  0  0  0  0
 20  7  1  0  0  0  0
 21 22  1  0  0  0  0
 22 23  1  0  0  0  0
 23 20  1  0  0  0  0
 23 24  2  0  0  0  0
 24 28  1  0  0  0  0
 25 24  1  0  0  0  0
 25 29  1  0  0  0  0
 26 25  2  0  0  0  0
 27 22  2  0  0  0  0
 27 26  1  0  0  0  0
 30 26  1  0  0  0  0
 31 27  1  0  0  0  0
 32 33  1  0  0  0  0
 32 31  2  0  0  0  0
 34 35  1  0  0  0  0
 34 32  1  0  0  0  0
 35 37  2  0  0  0  0
 36 35  1  0  0  0  0
 37 31  1  0  0  0  0
M  END
>  <minimizedAffinity>
-5.61531448

>  <minimizedRMSD>
0.544725835

$$$$
