
     RDKit          3D

 34 37  0  0  0  0  0  0  0  0999 V2000
   37.3060   29.3285   51.0239 Br  0  0  0  0  0  0  0  0  0  0  0  0
   35.9618   29.3311   49.6755 C   0  0  0  0  0  0  0  0  0  0  0  0
   35.9908   30.2613   48.6423 C   0  0  0  0  0  0  0  0  0  0  0  0
   34.9867   30.2001   47.7072 C   0  0  0  0  0  0  0  0  0  0  0  0
   33.9621   29.2734   47.7400 C   0  0  0  0  0  0  0  0  0  0  0  0
   33.9659   28.3679   48.7781 C   0  0  0  0  0  0  0  0  0  0  0  0
   34.9604   28.4053   49.7307 C   0  0  0  0  0  0  0  0  0  0  0  0
   37.9970   33.1902   49.4511 C   0  0  0  0  0  0  0  0  0  0  0  0
   39.0217   33.1651   48.4697 C   0  0  0  0  0  0  0  0  0  0  0  0
   39.0044   32.1427   47.5485 C   0  0  0  0  0  0  0  0  0  0  0  0
   38.0128   31.2144   47.6249 N   0  0  0  0  0  0  0  0  0  0  0  0
   37.0445   31.2522   48.5652 C   0  0  0  0  0  0  0  0  0  0  0  0
   37.0502   32.2509   49.4755 N   0  0  0  0  0  0  0  0  0  0  0  0
   32.9065   29.2094   46.7568 C   0  0  0  0  0  0  0  0  0  0  0  0
   32.2665   28.0468   46.3591 C   0  0  0  0  0  0  0  0  0  0  0  0
   31.2586   28.0146   45.4151 C   0  0  0  0  0  0  0  0  0  0  0  0
   30.8744   29.1730   44.8485 N   0  0  0  0  0  0  0  0  0  0  0  0
   31.4822   30.3089   45.2205 C   0  0  0  0  0  0  0  0  0  0  0  0
   32.4625   30.3122   46.1436 N   0  0  0  0  0  0  0  0  0  0  0  0
   34.9672   30.9025   46.8856 H   0  0  0  0  0  0  0  0  0  0  0  0
   33.1914   27.6130   48.8651 H   0  0  0  0  0  0  0  0  0  0  0  0
   34.9266   27.6736   50.5326 H   0  0  0  0  0  0  0  0  0  0  0  0
   38.0728   34.0199   50.1409 H   0  0  0  0  0  0  0  0  0  0  0  0
   39.8221   33.8743   48.3712 H   0  0  0  0  0  0  0  0  0  0  0  0
   39.6787   31.9540   46.7448 H   0  0  0  0  0  0  0  0  0  0  0  0
   32.5852   27.1058   46.8256 H   0  0  0  0  0  0  0  0  0  0  0  0
   30.8338   27.0561   45.1842 H   0  0  0  0  0  0  0  0  0  0  0  0
   30.9845   31.5056   44.5401 C   0  0  0  0  0  0  0  0  0  0  0  0
   31.8300   31.7900   43.3888 C   0  0  0  0  0  0  0  0  0  0  0  0
   32.7111   31.3650   42.9072 H   0  0  0  0  0  0  0  0  0  0  0  0
   31.0375   33.3424   42.6572 S   0  0  0  0  0  0  0  0  0  0  0  0
   29.7354   33.2936   44.0426 C   0  0  0  0  0  0  0  0  0  0  0  0
   28.7572   33.8296   44.5135 H   0  0  0  0  0  0  0  0  0  0  0  0
   30.0181   32.3940   44.6480 N   0  0  0  0  0  0  0  0  0  0  0  0
  2  7  2  0
  2  1  1  0
  3  2  1  0
  4  5  1  0
  4  3  2  0
  5  6  2  0
  6  7  1  0
  8 13  2  0
  9  8  1  0
 10 11  1  0
 10  9  2  0
 11 12  2  0
 12  3  1  0
 12 13  1  0
 14  5  1  0
 15 14  2  0
 16 15  1  0
 17 18  1  0
 17 16  2  0
 18 19  2  0
 19 14  1  0
  4 20  1  0
  6 21  1  0
  7 22  1  0
  8 23  1  0
  9 24  1  0
 10 25  1  0
 15 26  1  0
 16 27  1  0
 28 29  2  0
 29 30  1  0
 29 31  1  0
 31 32  1  0
 32 33  1  0
 32 34  2  0
 34 28  1  0
 18 28  1  0
M  ISO  8  20  14  21  14  22  14  23  14  24  14  25  14  26  14  27  14
M  ISO  2  30  15  33  16
M  END
>  <DihAtoms>  (1) 
16,17,27,28

>  <DihDeg>  (1) 
-124.94676298596272

$$$$
