
 OpenBabel03272505113D

 37 40  0  0  0  0  0  0  0  0999 V2000
   36.4050   30.9040   45.7010 Cl  0  0  0  0  0  0  0  0  0  0  0  0
   36.6880   30.7760   47.4130 C   0  0  0  0  0  0  0  0  0  0  0  0
   37.9480   31.1070   47.8740 C   0  0  0  0  0  0  0  0  0  0  0  0
   38.1830   31.0080   49.2300 C   0  0  0  0  0  0  0  0  0  0  0  0
   37.1800   30.5920   50.0740 C   0  0  0  0  0  0  0  0  0  0  0  0
   35.9260   30.2720   49.5440 C   0  0  0  0  0  0  0  0  0  0  0  0
   35.6300   30.3490   48.2090 C   0  0  0  0  0  0  0  0  0  0  0  0
   39.1480   31.2580   49.6090 H   0  0  0  0  0  0  0  0  0  0  0  0
   37.3690   30.5170   51.1350 H   0  0  0  0  0  0  0  0  0  0  0  0
   35.1630   29.9490   50.2380 H   0  0  0  0  0  0  0  0  0  0  0  0
   40.2090   33.3250   46.0730 C   0  0  0  0  0  0  0  0  0  0  0  0
   40.9270   32.4590   45.2120 C   0  0  0  0  0  0  0  0  0  0  0  0
   40.6100   31.1010   45.2720 C   0  0  0  0  0  0  0  0  0  0  0  0
   39.6430   30.6870   46.1400 N   0  0  0  0  0  0  0  0  0  0  0  0
   38.9930   31.5480   46.9340 C   0  0  0  0  0  0  0  0  0  0  0  0
   39.2790   32.8430   46.8920 N   0  0  0  0  0  0  0  0  0  0  0  0
   40.4840   34.3740   45.9970 H   0  0  0  0  0  0  0  0  0  0  0  0
   41.6890   32.7350   44.5170 H   0  0  0  0  0  0  0  0  0  0  0  0
   41.0750   30.3210   44.6740 H   0  0  0  0  0  0  0  0  0  0  0  0
   34.0640   29.9540   47.5120 S   0  0  0  0  0  0  0  0  0  0  0  0
   33.8200   29.1720   44.4820 Cl  0  0  0  0  0  0  0  0  0  0  0  0
   33.8290   27.9500   45.7520 C   0  0  0  0  0  0  0  0  0  0  0  0
   33.9320   28.2120   47.1110 C   0  0  0  0  0  0  0  0  0  0  0  0
   33.9240   27.1570   47.9850 C   0  0  0  0  0  0  0  0  0  0  0  0
   33.8180   25.8710   47.5690 C   0  0  0  0  0  0  0  0  0  0  0  0
   33.7130   25.5730   46.2140 C   0  0  0  0  0  0  0  0  0  0  0  0
   33.7200   26.6310   45.3130 C   0  0  0  0  0  0  0  0  0  0  0  0
   34.0090   27.4640   49.0180 H   0  0  0  0  0  0  0  0  0  0  0  0
   33.8180   25.0990   48.3250 H   0  0  0  0  0  0  0  0  0  0  0  0
   33.6310   24.5340   45.9300 H   0  0  0  0  0  0  0  0  0  0  0  0
   33.6080   26.3050   43.8620 C   0  0  0  0  0  0  0  0  0  0  0  0
   32.3880   26.1290   43.2510 C   0  0  0  0  0  0  0  0  0  0  0  0
   31.3790   26.1790   43.6400 H   0  0  0  0  0  0  0  0  0  0  0  0
   32.8580   25.7580   41.5090 S   0  0  0  0  0  0  0  0  0  0  0  0
   34.6900   25.9160   41.9350 C   0  0  0  0  0  0  0  0  0  0  0  0
   35.5710   25.8010   41.2810 H   0  0  0  0  0  0  0  0  0  0  0  0
   34.6410   26.1640   43.0640 N   0  0  0  0  0  0  0  0  0  0  0  0
  1  2  1  0  0  0  0
  2  3  2  0  0  0  0
  2  7  1  0  0  0  0
  3  4  1  0  0  0  0
  4  8  1  0  0  0  0
  4  5  2  0  0  0  0
  5  9  1  0  0  0  0
  6  5  1  0  0  0  0
  6 10  1  0  0  0  0
  7  6  2  0  0  0  0
 11 16  1  0  0  0  0
 12 13  1  0  0  0  0
 12 11  2  0  0  0  0
 13 14  2  0  0  0  0
 14 15  1  0  0  0  0
 15  3  1  0  0  0  0
 16 15  2  0  0  0  0
 17 11  1  0  0  0  0
 18 12  1  0  0  0  0
 19 13  1  0  0  0  0
 20  7  1  0  0  0  0
 21 22  1  0  0  0  0
 22 23  1  0  0  0  0
 23 20  1  0  0  0  0
 23 24  2  0  0  0  0
 24 28  1  0  0  0  0
 25 24  1  0  0  0  0
 25 29  1  0  0  0  0
 26 25  2  0  0  0  0
 27 22  2  0  0  0  0
 27 26  1  0  0  0  0
 30 26  1  0  0  0  0
 31 27  1  0  0  0  0
 32 33  1  0  0  0  0
 32 31  2  0  0  0  0
 34 35  1  0  0  0  0
 34 32  1  0  0  0  0
 35 37  2  0  0  0  0
 36 35  1  0  0  0  0
 37 31  1  0  0  0  0
M  END
>  <minimizedAffinity>
-5.61035872

>  <minimizedRMSD>
0.483299196

$$$$
