
 OpenBabel03272510073D

 28 30  0  0  0  0  0  0  0  0999 V2000
   36.0030   29.0620   49.2750 C   0  0  0  0  0  0  0  0  0  0  0  0
   35.9510   30.2360   48.5210 C   0  0  0  0  0  0  0  0  0  0  0  0
   34.8470   30.4310   47.6920 C   0  0  0  0  0  0  0  0  0  0  0  0
   33.8760   29.4760   47.6570 N   0  0  0  0  0  0  0  0  0  0  0  0
   33.9700   28.3490   48.4080 C   0  0  0  0  0  0  0  0  0  0  0  0
   35.0140   28.1350   49.2100 N   0  0  0  0  0  0  0  0  0  0  0  0
   32.9000   27.3900   48.3070 N   0  0  0  0  0  0  0  0  0  0  0  0
   31.5230   27.6700   48.6390 C   0  0  0  0  0  0  0  0  0  0  0  0
   30.7680   26.4840   48.1330 C   0  0  0  0  0  0  0  0  0  0  0  0
   31.7370   25.6650   47.3110 C   0  0  0  0  0  0  0  0  0  0  0  0
   33.0820   26.0110   47.8510 C   0  0  0  0  0  0  0  0  0  0  0  0
   36.8530   28.8880   49.9290 H   0  0  0  0  0  0  0  0  0  0  0  0
   34.7410   31.3170   47.0810 H   0  0  0  0  0  0  0  0  0  0  0  0
   31.4520   27.6920   49.7480 H   0  0  0  0  0  0  0  0  0  0  0  0
   31.1390   28.5870   48.1630 H   0  0  0  0  0  0  0  0  0  0  0  0
   30.3760   25.8750   48.9590 H   0  0  0  0  0  0  0  0  0  0  0  0
   29.9030   26.8100   47.4940 H   0  0  0  0  0  0  0  0  0  0  0  0
   31.6660   25.9940   46.2560 H   0  0  0  0  0  0  0  0  0  0  0  0
   31.5570   24.5900   47.4420 H   0  0  0  0  0  0  0  0  0  0  0  0
   33.4120   25.3600   48.6800 H   0  0  0  0  0  0  0  0  0  0  0  0
   33.8580   26.0490   47.0610 H   0  0  0  0  0  0  0  0  0  0  0  0
   37.0240   31.2420   48.5930 C   0  0  0  0  0  0  0  0  0  0  0  0
   37.1440   32.1070   49.7070 C   0  0  0  0  0  0  0  0  0  0  0  0
   36.4960   32.1550   50.6280 H   0  0  0  0  0  0  0  0  0  0  0  0
   38.6050   33.1270   49.2900 S   0  0  0  0  0  0  0  0  0  0  0  0
   38.8140   32.1950   47.6470 C   0  0  0  0  0  0  0  0  0  0  0  0
   39.5730   32.2820   46.7810 H   0  0  0  0  0  0  0  0  0  0  0  0
   37.9630   31.4550   47.6740 N   0  0  0  0  0  0  0  0  0  0  0  0
  1 12  1  0  0  0  0
  2 22  1  0  0  0  0
  2  1  2  0  0  0  0
  3  2  1  0  0  0  0
  4  3  2  0  0  0  0
  4  5  1  0  0  0  0
  5  6  2  0  0  0  0
  6  1  1  0  0  0  0
  7  5  1  0  0  0  0
  7  8  1  0  0  0  0
  8 14  1  0  0  0  0
  9  8  1  0  0  0  0
  9 16  1  0  0  0  0
 10 19  1  0  0  0  0
 10 11  1  0  0  0  0
 10  9  1  0  0  0  0
 11  7  1  0  0  0  0
 11 20  1  0  0  0  0
 13  3  1  0  0  0  0
 15  8  1  0  0  0  0
 17  9  1  0  0  0  0
 18 10  1  0  0  0  0
 21 11  1  0  0  0  0
 22 23  2  0  0  0  0
 23 24  1  0  0  0  0
 25 23  1  0  0  0  0
 26 28  2  0  0  0  0
 26 25  1  0  0  0  0
 27 26  1  0  0  0  0
 28 22  1  0  0  0  0
M  END
>  <minimizedAffinity>
-4.78275204

>  <minimizedRMSD>
4.32366705

$$$$
