
 OpenBabel03262523033D

 24 26  0  0  0  0  0  0  0  0999 V2000
   36.0000   30.2780   48.6080 C   0  0  0  0  0  0  0  0  0  0  0  0
   36.0040   29.2510   49.4840 C   0  0  0  0  0  0  0  0  0  0  0  0
   34.9990   28.3270   49.4680 C   0  0  0  0  0  0  0  0  0  0  0  0
   33.9930   28.4360   48.5730 N   0  0  0  0  0  0  0  0  0  0  0  0
   34.0000   29.4640   47.7050 C   0  0  0  0  0  0  0  0  0  0  0  0
   34.9890   30.3920   47.7050 N   0  0  0  0  0  0  0  0  0  0  0  0
   36.8160   29.1740   50.1970 H   0  0  0  0  0  0  0  0  0  0  0  0
   35.0080   27.4960   50.1800 H   0  0  0  0  0  0  0  0  0  0  0  0
   38.1030   33.1500   49.4990 C   0  0  0  0  0  0  0  0  0  0  0  0
   39.0240   33.2030   48.4550 C   0  0  0  0  0  0  0  0  0  0  0  0
   38.9080   32.2340   47.4440 C   0  0  0  0  0  0  0  0  0  0  0  0
   37.9130   31.3010   47.5280 N   0  0  0  0  0  0  0  0  0  0  0  0
   37.0400   31.2980   48.5710 C   0  0  0  0  0  0  0  0  0  0  0  0
   37.1470   32.2210   49.5430 N   0  0  0  0  0  0  0  0  0  0  0  0
   38.2610   33.9300   50.2350 H   0  0  0  0  0  0  0  0  0  0  0  0
   39.8320   33.8730   48.2830 H   0  0  0  0  0  0  0  0  0  0  0  0
   39.5110   32.0960   46.5580 H   0  0  0  0  0  0  0  0  0  0  0  0
   32.9220   29.6240   46.7100 C   0  0  0  0  0  0  0  0  0  0  0  0
   32.1600   28.5680   46.3270 C   0  0  0  0  0  0  0  0  0  0  0  0
   32.2110   27.5120   46.6580 H   0  0  0  0  0  0  0  0  0  0  0  0
   30.9940   29.3160   45.0940 S   0  0  0  0  0  0  0  0  0  0  0  0
   31.8200   31.0200   45.3590 C   0  0  0  0  0  0  0  0  0  0  0  0
   31.5310   31.9440   44.8540 H   0  0  0  0  0  0  0  0  0  0  0  0
   32.6100   30.7520   46.1290 N   0  0  0  0  0  0  0  0  0  0  0  0
  1  2  1  0  0  0  0
  2  7  1  0  0  0  0
  3  2  2  0  0  0  0
  3  8  1  0  0  0  0
  4  3  1  0  0  0  0
  5  6  1  0  0  0  0
  5  4  2  0  0  0  0
  6  1  2  0  0  0  0
  9 14  1  0  0  0  0
  9 15  1  0  0  0  0
 10  9  2  0  0  0  0
 11 12  2  0  0  0  0
 11 10  1  0  0  0  0
 12 13  1  0  0  0  0
 13  1  1  0  0  0  0
 13 14  2  0  0  0  0
 16 10  1  0  0  0  0
 17 11  1  0  0  0  0
 18  5  1  0  0  0  0
 19 20  1  0  0  0  0
 19 18  2  0  0  0  0
 21 22  1  0  0  0  0
 21 19  1  0  0  0  0
 22 24  2  0  0  0  0
 23 22  1  0  0  0  0
 24 18  1  0  0  0  0
M  END
>  <minimizedAffinity>
-4.92472696

>  <minimizedRMSD>
0.748412848

$$$$
