
 OpenBabel03262520503D

 46 50  0  0  1  0  0  0  0  0999 V2000
   40.2400   31.0560   43.8550 C   0  0  0  0  0  0  0  0  0  0  0  0
   39.7240   31.8640   43.3180 H   0  0  0  0  0  0  0  0  0  0  0  0
   41.2740   31.3200   44.1560 H   0  0  0  0  0  0  0  0  0  0  0  0
   39.4660   28.7610   43.3170 C   0  0  0  0  0  0  0  0  0  0  0  0
   40.2140   29.8650   42.9440 C   0  0  0  0  0  0  0  0  0  0  0  0
   40.9100   29.8330   41.7460 C   0  0  0  0  0  0  0  0  0  0  0  0
   40.8820   28.7470   40.9170 C   0  0  0  0  0  0  0  0  0  0  0  0
   41.4530   28.4830   39.7360 N   0  0  0  0  0  0  0  0  0  0  0  0
   41.0800   27.2510   39.3680 C   0  0  0  0  0  0  0  0  0  0  0  0
   40.2560   26.6690   40.2920 C   0  0  0  0  0  0  0  0  0  0  0  0
   40.1390   27.6520   41.2870 C   0  0  0  0  0  0  0  0  0  0  0  0
   39.4300   27.6470   42.4790 C   0  0  0  0  0  0  0  0  0  0  0  0
   38.8980   28.7180   44.2280 H   0  0  0  0  0  0  0  0  0  0  0  0
   41.4640   30.7320   41.5360 H   0  0  0  0  0  0  0  0  0  0  0  0
   42.0840   29.1580   39.2150 H   0  0  0  0  0  0  0  0  0  0  0  0
   41.4210   26.8150   38.4390 H   0  0  0  0  0  0  0  0  0  0  0  0
   39.8220   25.6850   40.2310 H   0  0  0  0  0  0  0  0  0  0  0  0
   38.6310   26.4520   42.8660 C   0  0  0  0  0  0  0  0  0  0  0  0
   37.2640   26.3540   42.5080 C   0  0  0  0  0  0  0  0  0  0  0  0
   36.5960   27.0500   41.9400 H   0  0  0  0  0  0  0  0  0  0  0  0
   36.7890   24.6990   43.2330 S   0  0  0  0  0  0  0  0  0  0  0  0
   38.5490   24.4480   43.8950 C   0  0  0  0  0  0  0  0  0  0  0  0
   38.8770   23.5870   44.4460 H   0  0  0  0  0  0  0  0  0  0  0  0
   39.1290   25.4520   43.5410 N   0  0  0  0  0  0  0  0  0  0  0  0
   39.4610   30.6930   45.0970 C   0  0  0  0  0  0  0  0  0  0  0  0
   39.7280   29.6420   45.3340 H   0  0  0  0  0  0  0  0  0  0  0  0
   38.3850   30.8400   44.8360 H   0  0  0  0  0  0  0  0  0  0  0  0
   38.7310   32.2450   46.9490 C   0  0  1  0  0  0  0  0  0  0  0  0
   39.8600   32.9830   46.2680 C   0  0  0  0  0  0  0  0  0  0  0  0
   39.8210   31.5080   46.2850 C   0  0  2  0  0  0  0  0  0  0  0  0
   37.7200   32.2560   46.4580 H   0  0  0  0  0  0  0  0  0  0  0  0
   39.6220   33.4670   45.2790 H   0  0  0  0  0  0  0  0  0  0  0  0
   40.6040   33.5390   46.8440 H   0  0  0  0  0  0  0  0  0  0  0  0
   40.5720   31.0560   46.9980 H   0  0  0  0  0  0  0  0  0  0  0  0
   38.6770   32.3840   48.4410 C   0  0  0  0  0  0  0  0  0  0  0  0
   38.0820   33.3140   48.6760 H   0  0  0  0  0  0  0  0  0  0  0  0
   39.6970   32.5360   48.8180 H   0  0  0  0  0  0  0  0  0  0  0  0
   37.4310   30.0040   51.0380 C   0  0  0  0  0  0  0  0  0  0  0  0
   38.1370   31.0680   50.4060 C   0  0  0  0  0  0  0  0  0  0  0  0
   37.9360   31.2770   49.0730 C   0  0  0  0  0  0  0  0  0  0  0  0
   37.0830   30.4710   48.4230 N   0  0  0  0  0  0  0  0  0  0  0  0
   36.4210   29.4740   49.0170 C   0  0  0  0  0  0  0  0  0  0  0  0
   36.6090   29.2560   50.3270 N   0  0  0  0  0  0  0  0  0  0  0  0
   37.6420   29.9010   52.0940 H   0  0  0  0  0  0  0  0  0  0  0  0
   38.8130   31.6840   50.9860 H   0  0  0  0  0  0  0  0  0  0  0  0
   35.7330   28.8240   48.4920 H   0  0  0  0  0  0  0  0  0  0  0  0
  1  3  1  0  0  0  0
  1 25  1  0  0  0  0
  2  1  1  0  0  0  0
  4 13  1  0  0  0  0
  5  4  1  0  0  0  0
  5  1  1  0  0  0  0
  6  5  2  0  0  0  0
  7 11  2  0  0  0  0
  7  6  1  0  0  0  0
  8  7  1  0  0  0  0
  9  8  1  0  0  0  0
  9 10  2  0  0  0  0
 10 11  1  0  0  0  0
 11 12  1  0  0  0  0
 12 18  1  0  0  0  0
 12  4  2  0  0  0  0
 14  6  1  0  0  0  0
 15  8  1  0  0  0  0
 16  9  1  0  0  0  0
 17 10  1  0  0  0  0
 18 24  1  0  0  0  0
 19 18  2  0  0  0  0
 19 21  1  0  0  0  0
 20 19  1  0  0  0  0
 21 22  1  0  0  0  0
 22 23  1  0  0  0  0
 24 22  2  0  0  0  0
 25 26  1  0  0  0  0
 25 30  1  0  0  0  0
 27 25  1  0  0  0  0
 28 31  1  6  0  0  0
 28 35  1  0  0  0  0
 29 30  1  0  0  0  0
 29 33  1  0  0  0  0
 29 28  1  0  0  0  0
 30 28  1  0  0  0  0
 30 34  1  1  0  0  0
 32 29  1  0  0  0  0
 35 36  1  0  0  0  0
 35 37  1  0  0  0  0
 35 40  1  0  0  0  0
 38 44  1  0  0  0  0
 39 45  1  0  0  0  0
 39 38  1  0  0  0  0
 40 39  2  0  0  0  0
 41 42  2  0  0  0  0
 41 40  1  0  0  0  0
 42 43  1  0  0  0  0
 43 38  2  0  0  0  0
 46 42  1  0  0  0  0
M  END
>  <minimizedAffinity>
-6.00214481

>  <minimizedRMSD>
0.363397479

$$$$
