
 OpenBabel03272505153D

 26 28  0  0  0  0  0  0  0  0999 V2000
   38.1660   31.1300   48.2500 Cl  0  0  0  0  0  0  0  0  0  0  0  0
   37.0130   30.6920   47.0060 C   0  0  0  0  0  0  0  0  0  0  0  0
   35.8390   30.0860   47.3470 C   0  0  0  0  0  0  0  0  0  0  0  0
   35.0110   29.7860   46.3020 C   0  0  0  0  0  0  0  0  0  0  0  0
   35.2770   30.0450   44.9920 C   0  0  0  0  0  0  0  0  0  0  0  0
   36.4660   30.6540   44.6980 C   0  0  0  0  0  0  0  0  0  0  0  0
   37.3600   30.9910   45.7010 C   0  0  0  0  0  0  0  0  0  0  0  0
   34.0590   29.3000   46.5250 H   0  0  0  0  0  0  0  0  0  0  0  0
   34.5900   29.7910   44.1870 H   0  0  0  0  0  0  0  0  0  0  0  0
   36.6980   30.8690   43.6700 H   0  0  0  0  0  0  0  0  0  0  0  0
   36.2560   29.1090   50.9830 C   0  0  0  0  0  0  0  0  0  0  0  0
   36.5380   29.3630   49.6380 C   0  0  0  0  0  0  0  0  0  0  0  0
   35.5690   29.8160   48.7420 C   0  0  0  0  0  0  0  0  0  0  0  0
   34.3300   29.9910   49.2770 N   0  0  0  0  0  0  0  0  0  0  0  0
   34.0500   29.7500   50.5670 C   0  0  0  0  0  0  0  0  0  0  0  0
   35.0110   29.3120   51.4080 N   0  0  0  0  0  0  0  0  0  0  0  0
   37.1110   28.7630   51.5470 H   0  0  0  0  0  0  0  0  0  0  0  0
   37.5180   29.2280   49.2000 H   0  0  0  0  0  0  0  0  0  0  0  0
   33.0820   29.8830   51.0030 H   0  0  0  0  0  0  0  0  0  0  0  0
   38.6530   31.6500   45.4070 C   0  0  0  0  0  0  0  0  0  0  0  0
   39.8610   30.8910   45.4910 C   0  0  0  0  0  0  0  0  0  0  0  0
   40.0150   29.8550   45.7460 H   0  0  0  0  0  0  0  0  0  0  0  0
   41.1450   32.0830   45.0600 S   0  0  0  0  0  0  0  0  0  0  0  0
   39.8420   33.4490   44.8280 C   0  0  0  0  0  0  0  0  0  0  0  0
   39.7600   34.6210   44.5310 H   0  0  0  0  0  0  0  0  0  0  0  0
   38.8910   32.9010   45.0600 N   0  0  0  0  0  0  0  0  0  0  0  0
  2  3  1  0  0  0  0
  2  1  1  0  0  0  0
  3 13  1  0  0  0  0
  4  8  1  0  0  0  0
  4  3  2  0  0  0  0
  5  4  1  0  0  0  0
  6  5  2  0  0  0  0
  6  7  1  0  0  0  0
  7  2  2  0  0  0  0
  9  5  1  0  0  0  0
 10  6  1  0  0  0  0
 11 16  1  0  0  0  0
 11 17  1  0  0  0  0
 12 11  2  0  0  0  0
 13 14  2  0  0  0  0
 13 12  1  0  0  0  0
 14 15  1  0  0  0  0
 15 19  1  0  0  0  0
 15 16  2  0  0  0  0
 18 12  1  0  0  0  0
 20 21  2  0  0  0  0
 20  7  1  0  0  0  0
 21 22  1  0  0  0  0
 23 21  1  0  0  0  0
 24 26  2  0  0  0  0
 24 23  1  0  0  0  0
 25 24  1  0  0  0  0
 26 20  1  0  0  0  0
M  END
>  <minimizedAffinity>
-4.94242811

>  <minimizedRMSD>
3.29086137

$$$$
