REMARK  Name = 
REMARK  6 active torsions:
REMARK  status: ('A' for Active; 'I' for Inactive)
REMARK    1  A    between atoms: P_2  and  O_3
REMARK    2  A    between atoms: P_2  and  O_4
REMARK    3  A    between atoms: P_2  and  O_11
REMARK    4  A    between atoms: O_4  and  C_7
REMARK    5  A    between atoms: O_11  and  C_14
REMARK    6  A    between atoms: C_18  and  C_26
REMARK                            x       y       z     vdW  Elec       q    Type
REMARK                         _______ _______ _______ _____ _____    ______ ____
ROOT
ATOM      1 CL   UNL     1      36.624  29.451  44.046  0.00  0.00    +0.000 Cl
ATOM      2  C   UNL     1      38.272  29.834  43.483  0.00  0.00    +0.000 A 
ATOM      3  C   UNL     1      39.270  30.313  44.314  0.00  0.00    +0.000 A 
ATOM      4  C   UNL     1      40.493  30.563  43.731  0.00  0.00    +0.000 A 
ATOM      5  C   UNL     1      40.730  30.356  42.399  0.00  0.00    +0.000 A 
ATOM      6  C   UNL     1      39.750  29.887  41.589  0.00  0.00    +0.000 A 
ATOM      7  C   UNL     1      38.500  29.617  42.116  0.00  0.00    +0.000 A 
ATOM      8  H   UNL     1      41.230  30.934  44.428  0.00  0.00    +0.000 HD
ATOM      9  H   UNL     1      41.728  30.588  42.055  0.00  0.00    +0.000 HD
ATOM     10  H   UNL     1      39.955  29.730  40.543  0.00  0.00    +0.000 HD
ENDROOT
BRANCH   7  11
ATOM     11  C   UNL     1      37.406  29.102  41.255  0.00  0.00    +0.000 A 
ATOM     12  C   UNL     1      37.039  27.764  41.330  0.00  0.00    +0.000 A 
ATOM     13  H   UNL     1      37.388  26.905  41.924  0.00  0.00    +0.000 HD
ATOM     14  S   UNL     1      35.642  27.650  40.061  0.00  0.00    +0.000 S 
ATOM     15  C   UNL     1      35.861  29.496  39.689  0.00  0.00    +0.000 A 
ATOM     16  H   UNL     1      35.356  30.303  38.965  0.00  0.00    +0.000 HD
ATOM     17  N   UNL     1      36.698  29.796  40.376  0.00  0.00    +0.000 NA
ENDBRANCH   7  11
BRANCH   3  18
ATOM     18  O   UNL     1      38.856  30.458  45.608  0.00  0.00    +0.000 OA
BRANCH  18  20
ATOM     19  O   UNL     1      39.443  32.477  47.104  0.00  0.00    +0.000 OA
ATOM     20  P   UNL     1      38.303  31.826  46.405  0.00  0.00    +0.000 P 
BRANCH  20  21
ATOM     21  O   UNL     1      37.726  32.850  45.166  0.00  0.00    +0.000 OA
ATOM     22  H   UNL     1      38.519  33.307  44.760  0.00  0.00    +0.000 HD
ENDBRANCH  20  21
BRANCH  20  23
ATOM     23  O   UNL     1      37.022  31.398  47.429  0.00  0.00    +0.000 OA
BRANCH  23  26
ATOM     24  C   UNL     1      37.614  30.535  50.971  0.00  0.00    +0.000 A 
ATOM     25  C   UNL     1      37.707  31.304  49.811  0.00  0.00    +0.000 A 
ATOM     26  C   UNL     1      37.071  30.834  48.655  0.00  0.00    +0.000 A 
ATOM     27  N   UNL     1      36.396  29.649  48.733  0.00  0.00    +0.000 NA
ATOM     28  C   UNL     1      36.328  28.933  49.874  0.00  0.00    +0.000 A 
ATOM     29  N   UNL     1      36.936  29.377  50.988  0.00  0.00    +0.000 NA
ATOM     30  H   UNL     1      38.134  30.988  51.787  0.00  0.00    +0.000 HD
ATOM     31  H   UNL     1      38.211  32.230  49.677  0.00  0.00    +0.000 HD
ATOM     32  H   UNL     1      35.793  27.994  49.935  0.00  0.00    +0.000 HD
ENDBRANCH  23  26
ENDBRANCH  20  23
ENDBRANCH  18  20
ENDBRANCH   3  18
TORSDOF 6
