
 OpenBabel03272506063D

 28 30  0  0  0  0  0  0  0  0999 V2000
   34.9730   28.5190   49.3400 C   0  0  0  0  0  0  0  0  0  0  0  0
   35.1510   27.8210   50.1770 H   0  0  0  0  0  0  0  0  0  0  0  0
   35.8370   28.3590   48.6320 H   0  0  0  0  0  0  0  0  0  0  0  0
   33.7040   28.1680   48.6090 C   0  0  0  0  0  0  0  0  0  0  0  0
   33.7640   28.0140   47.1760 C   0  0  0  0  0  0  0  0  0  0  0  0
   32.0650   27.6180   46.8220 S   0  0  0  0  0  0  0  0  0  0  0  0
   31.5330   27.7160   48.6140 C   0  0  0  0  0  0  0  0  0  0  0  0
   32.5460   27.9940   49.1830 N   0  0  0  0  0  0  0  0  0  0  0  0
   34.6360   28.1240   46.5570 H   0  0  0  0  0  0  0  0  0  0  0  0
   30.0570   27.4400   48.8850 C   0  0  0  0  0  0  0  0  0  0  0  0
   29.0950   27.2600   47.9690 C   0  0  0  0  0  0  0  0  0  0  0  0
   29.1500   27.2700   46.8950 H   0  0  0  0  0  0  0  0  0  0  0  0
   27.6260   26.9860   48.9960 S   0  0  0  0  0  0  0  0  0  0  0  0
   28.6490   27.1780   50.5840 C   0  0  0  0  0  0  0  0  0  0  0  0
   28.2060   27.0950   51.5890 H   0  0  0  0  0  0  0  0  0  0  0  0
   29.7050   27.3750   50.1540 N   0  0  0  0  0  0  0  0  0  0  0  0
   34.9790   29.9090   49.8460 C   0  0  0  0  0  0  0  0  0  0  0  0
   35.0200   30.0120   50.9620 H   0  0  0  0  0  0  0  0  0  0  0  0
   34.1210   30.5340   49.4920 H   0  0  0  0  0  0  0  0  0  0  0  0
   37.7180   32.3970   49.4690 C   0  0  0  0  0  0  0  0  0  0  0  0
   38.4470   31.8780   48.3890 C   0  0  0  0  0  0  0  0  0  0  0  0
   37.9920   30.6910   47.8080 C   0  0  0  0  0  0  0  0  0  0  0  0
   36.8800   30.0940   48.3040 N   0  0  0  0  0  0  0  0  0  0  0  0
   36.2140   30.6400   49.3500 C   0  0  0  0  0  0  0  0  0  0  0  0
   36.6210   31.7620   49.9200 N   0  0  0  0  0  0  0  0  0  0  0  0
   38.0990   33.3160   49.8930 H   0  0  0  0  0  0  0  0  0  0  0  0
   39.3370   32.3330   47.9730 H   0  0  0  0  0  0  0  0  0  0  0  0
   38.4780   30.2010   46.9680 H   0  0  0  0  0  0  0  0  0  0  0  0
  1 17  1  0  0  0  0
  1  2  1  0  0  0  0
  3  1  1  0  0  0  0
  4  8  1  0  0  0  0
  4  1  1  0  0  0  0
  5  4  2  0  0  0  0
  6  5  1  0  0  0  0
  6  7  1  0  0  0  0
  7 10  1  0  0  0  0
  7  8  2  0  0  0  0
  9  5  1  0  0  0  0
 10 16  1  0  0  0  0
 11 10  2  0  0  0  0
 11 13  1  0  0  0  0
 12 11  1  0  0  0  0
 13 14  1  0  0  0  0
 14 15  1  0  0  0  0
 16 14  2  0  0  0  0
 17 18  1  0  0  0  0
 19 17  1  0  0  0  0
 20 26  1  0  0  0  0
 20 25  1  0  0  0  0
 21 20  2  0  0  0  0
 22 23  2  0  0  0  0
 22 21  1  0  0  0  0
 23 24  1  0  0  0  0
 24 17  1  0  0  0  0
 24 25  2  0  0  0  0
 27 21  1  0  0  0  0
 28 22  1  0  0  0  0
M  END
>  <minimizedAffinity>
-5.14924812

>  <minimizedRMSD>
1.48245823

$$$$
