
 OpenBabel03272506483D

 40 43  0  0  1  0  0  0  0  0999 V2000
   32.1580   28.4310   47.4860 C   0  0  2  0  0  0  0  0  0  0  0  0
   33.4120   28.2970   48.2960 C   0  0  1  0  0  0  0  0  0  0  0  0
   33.8360   27.0070   48.2090 O   0  0  0  0  0  0  0  0  0  0  0  0
   33.1380   26.3630   47.1920 C   0  0  0  0  0  0  0  0  0  0  0  0
   32.5090   27.4360   46.3340 C   0  0  1  0  0  0  0  0  0  0  0  0
   31.2390   28.1260   47.9710 H   0  0  0  0  0  0  0  0  0  0  0  0
   33.2010   28.6460   49.3240 H   0  0  0  0  0  0  0  0  0  0  0  0
   32.4550   25.6780   47.6730 H   0  0  0  0  0  0  0  0  0  0  0  0
   33.8980   25.8240   46.5710 H   0  0  0  0  0  0  0  0  0  0  0  0
   33.2130   27.9650   45.7030 H   0  0  0  0  0  0  0  0  0  0  0  0
   32.0480   29.7320   46.9520 O   0  0  0  0  0  0  0  0  0  0  0  0
   32.4530   29.7960   46.0570 H   0  0  0  0  0  0  0  0  0  0  0  0
   34.6900   29.3710   47.5330 S   0  0  0  0  0  0  0  0  0  0  0  0
   37.1460   29.2880   50.6430 C   0  0  0  0  0  0  0  0  0  0  0  0
   37.6170   30.5990   50.7610 C   0  0  0  0  0  0  0  0  0  0  0  0
   37.1570   31.5490   49.8410 C   0  0  0  0  0  0  0  0  0  0  0  0
   36.2810   31.1470   48.8860 N   0  0  0  0  0  0  0  0  0  0  0  0
   35.8480   29.8720   48.8010 C   0  0  0  0  0  0  0  0  0  0  0  0
   36.2730   28.9260   49.6770 N   0  0  0  0  0  0  0  0  0  0  0  0
   37.5170   28.5750   51.3660 H   0  0  0  0  0  0  0  0  0  0  0  0
   38.3150   30.9120   51.5250 H   0  0  0  0  0  0  0  0  0  0  0  0
   37.4600   32.5870   49.8460 H   0  0  0  0  0  0  0  0  0  0  0  0
   31.3670   26.9330   45.7580 O   0  0  0  0  0  0  0  0  0  0  0  0
   30.0900   29.0330   44.1430 Cl  0  0  0  0  0  0  0  0  0  0  0  0
   29.4180   28.1280   45.4830 C   0  0  0  0  0  0  0  0  0  0  0  0
   30.1190   27.1540   46.1510 C   0  0  0  0  0  0  0  0  0  0  0  0
   29.4680   26.4740   47.1820 C   0  0  0  0  0  0  0  0  0  0  0  0
   28.1650   26.7780   47.5110 C   0  0  0  0  0  0  0  0  0  0  0  0
   27.4560   27.7550   46.8450 C   0  0  0  0  0  0  0  0  0  0  0  0
   28.1070   28.4420   45.8070 C   0  0  0  0  0  0  0  0  0  0  0  0
   29.9190   25.6910   47.7660 H   0  0  0  0  0  0  0  0  0  0  0  0
   27.6290   26.2750   48.3010 H   0  0  0  0  0  0  0  0  0  0  0  0
   26.4400   27.9860   47.1080 H   0  0  0  0  0  0  0  0  0  0  0  0
   27.3990   29.4900   45.0690 C   0  0  0  0  0  0  0  0  0  0  0  0
   26.6400   29.1860   43.9460 C   0  0  0  0  0  0  0  0  0  0  0  0
   26.4130   28.1990   43.4000 H   0  0  0  0  0  0  0  0  0  0  0  0
   25.9480   30.8460   43.3710 S   0  0  0  0  0  0  0  0  0  0  0  0
   26.8570   31.6530   44.8200 C   0  0  0  0  0  0  0  0  0  0  0  0
   27.0220   32.7700   45.3090 H   0  0  0  0  0  0  0  0  0  0  0  0
   27.3650   30.7820   45.3220 N   0  0  0  0  0  0  0  0  0  0  0  0
  1  6  1  1  0  0  0
  1  2  1  0  0  0  0
  2  7  1  1  0  0  0
  3  2  1  0  0  0  0
  4  8  1  0  0  0  0
  4  3  1  0  0  0  0
  5 10  1  6  0  0  0
  5  4  1  0  0  0  0
  5  1  1  0  0  0  0
  9  4  1  0  0  0  0
 11  1  1  0  0  0  0
 12 11  1  0  0  0  0
 13  2  1  0  0  0  0
 13 18  1  0  0  0  0
 14 15  1  0  0  0  0
 14 20  1  0  0  0  0
 15 21  1  0  0  0  0
 16 22  1  0  0  0  0
 16 15  2  0  0  0  0
 17 16  1  0  0  0  0
 18 17  2  0  0  0  0
 18 19  1  0  0  0  0
 19 14  2  0  0  0  0
 23 26  1  0  0  0  0
 23  5  1  0  0  0  0
 24 25  1  0  0  0  0
 25 30  2  0  0  0  0
 25 26  1  0  0  0  0
 26 27  2  0  0  0  0
 27 28  1  0  0  0  0
 27 31  1  0  0  0  0
 28 32  1  0  0  0  0
 29 33  1  0  0  0  0
 29 28  2  0  0  0  0
 30 29  1  0  0  0  0
 34 40  1  0  0  0  0
 34 30  1  0  0  0  0
 35 34  2  0  0  0  0
 36 35  1  0  0  0  0
 37 35  1  0  0  0  0
 37 38  1  0  0  0  0
 38 39  1  0  0  0  0
 38 40  2  0  0  0  0
M  END
>  <minimizedAffinity>
-5.07944393

>  <minimizedRMSD>
0.349934876

$$$$
