
     RDKit          3D

 37 40  0  0  0  0  0  0  0  0999 V2000
   36.3903   30.9027   45.6968 Cl  0  0  0  0  0  0  0  0  0  0  0  0
   36.6767   30.7586   47.4071 C   0  0  0  0  0  0  0  0  0  0  0  0
   37.9390   31.0827   47.8681 C   0  0  0  0  0  0  0  0  0  0  0  0
   38.1771   30.9712   49.2225 C   0  0  0  0  0  0  0  0  0  0  0  0
   37.1762   30.5495   50.0654 C   0  0  0  0  0  0  0  0  0  0  0  0
   35.9205   30.2369   49.5347 C   0  0  0  0  0  0  0  0  0  0  0  0
   35.6206   30.3267   48.2013 C   0  0  0  0  0  0  0  0  0  0  0  0
   40.2025   33.3120   46.0842 C   0  0  0  0  0  0  0  0  0  0  0  0
   40.9149   32.4531   45.2111 C   0  0  0  0  0  0  0  0  0  0  0  0
   40.5930   31.0957   45.2570 C   0  0  0  0  0  0  0  0  0  0  0  0
   39.6274   30.6759   46.1241 N   0  0  0  0  0  0  0  0  0  0  0  0
   38.9835   31.5308   46.9290 C   0  0  0  0  0  0  0  0  0  0  0  0
   39.2740   32.8245   46.9013 N   0  0  0  0  0  0  0  0  0  0  0  0
   34.0523   29.9420   47.5055 S   0  0  0  0  0  0  0  0  0  0  0  0
   33.7511   29.1801   44.4752 Cl  0  0  0  0  0  0  0  0  0  0  0  0
   33.7843   27.9491   45.7364 C   0  0  0  0  0  0  0  0  0  0  0  0
   33.9127   28.2018   47.0949 C   0  0  0  0  0  0  0  0  0  0  0  0
   33.9206   27.1425   47.9623 C   0  0  0  0  0  0  0  0  0  0  0  0
   33.8071   25.8578   47.5388 C   0  0  0  0  0  0  0  0  0  0  0  0
   33.6769   25.5689   46.1854 C   0  0  0  0  0  0  0  0  0  0  0  0
   33.6674   26.6333   45.2909 C   0  0  0  0  0  0  0  0  0  0  0  0
   39.1444   31.2162   49.6013 H   0  0  0  0  0  0  0  0  0  0  0  0
   37.3667   30.4636   51.1252 H   0  0  0  0  0  0  0  0  0  0  0  0
   35.1583   29.9088   50.2277 H   0  0  0  0  0  0  0  0  0  0  0  0
   40.4819   34.3614   46.0186 H   0  0  0  0  0  0  0  0  0  0  0  0
   41.6763   32.7336   44.5173 H   0  0  0  0  0  0  0  0  0  0  0  0
   41.0533   30.3213   44.6490 H   0  0  0  0  0  0  0  0  0  0  0  0
   34.0249   27.4419   48.9954 H   0  0  0  0  0  0  0  0  0  0  0  0
   33.8223   25.0805   48.2904 H   0  0  0  0  0  0  0  0  0  0  0  0
   33.5895   24.5318   45.8954 H   0  0  0  0  0  0  0  0  0  0  0  0
   33.5279   26.3172   43.8403 C   0  0  0  0  0  0  0  0  0  0  0  0
   34.3168   26.9202   42.8880 C   0  0  0  0  0  0  0  0  0  0  0  0
   35.1051   27.6567   42.9732 H   0  0  0  0  0  0  0  0  0  0  0  0
   33.7125   26.1614   41.3211 S   0  0  0  0  0  0  0  0  0  0  0  0
   32.4530   25.1251   42.2718 C   0  0  0  0  0  0  0  0  0  0  0  0
   31.7171   24.3982   41.8889 H   0  0  0  0  0  0  0  0  0  0  0  0
   32.6595   25.4561   43.3611 N   0  0  0  0  0  0  0  0  0  0  0  0
  1  2  1  0
  2  3  2  0
  2  7  1  0
  3  4  1  0
  4  5  2  0
  6  5  1  0
  7  6  2  0
  8 13  2  0
  9 10  2  0
  9  8  1  0
 10 11  1  0
 11 12  2  0
 12  3  1  0
 13 12  1  0
 14  7  1  0
 15 16  1  0
 16 17  2  0
 17 14  1  0
 17 18  1  0
 19 18  2  0
 20 19  1  0
 21 16  1  0
 21 20  2  0
  4 22  1  0
  5 23  1  0
  6 24  1  0
  8 25  1  0
  9 26  1  0
 10 27  1  0
 18 28  1  0
 19 29  1  0
 20 30  1  0
 31 32  2  0
 32 33  1  0
 32 34  1  0
 34 35  1  0
 35 36  1  0
 35 37  2  0
 37 31  1  0
 21 31  1  0
M  ISO  8  22  14  23  14  24  14  25  14  26  14  27  14  28  14  29  14
M  ISO  3  30  14  33  15  36  16
M  END
>  <DihAtoms>  (1) 
15,20,30,31

>  <DihDeg>  (1) 
179.99632102907978

$$$$
