
 OpenBabel03272510073D

 28 30  0  0  0  0  0  0  0  0999 V2000
   36.6560   31.1730   48.8970 C   0  0  0  0  0  0  0  0  0  0  0  0
   37.2840   31.4730   47.6860 C   0  0  0  0  0  0  0  0  0  0  0  0
   36.8110   30.8490   46.5320 C   0  0  0  0  0  0  0  0  0  0  0  0
   35.7650   29.9820   46.6380 N   0  0  0  0  0  0  0  0  0  0  0  0
   35.1870   29.7200   47.8370 C   0  0  0  0  0  0  0  0  0  0  0  0
   35.6170   30.3020   48.9570 N   0  0  0  0  0  0  0  0  0  0  0  0
   34.0880   28.7880   47.8570 N   0  0  0  0  0  0  0  0  0  0  0  0
   32.8500   28.9740   47.1380 C   0  0  0  0  0  0  0  0  0  0  0  0
   32.1510   27.6590   47.2510 C   0  0  0  0  0  0  0  0  0  0  0  0
   33.1420   26.6850   47.8470 C   0  0  0  0  0  0  0  0  0  0  0  0
   34.0970   27.5340   48.6120 C   0  0  0  0  0  0  0  0  0  0  0  0
   37.0070   31.6470   49.8080 H   0  0  0  0  0  0  0  0  0  0  0  0
   37.2490   31.0360   45.5620 H   0  0  0  0  0  0  0  0  0  0  0  0
   32.2630   29.7400   47.6900 H   0  0  0  0  0  0  0  0  0  0  0  0
   32.9990   29.2270   46.0760 H   0  0  0  0  0  0  0  0  0  0  0  0
   31.2660   27.7280   47.8980 H   0  0  0  0  0  0  0  0  0  0  0  0
   31.8210   27.2990   46.2390 H   0  0  0  0  0  0  0  0  0  0  0  0
   33.6760   26.1800   47.0190 H   0  0  0  0  0  0  0  0  0  0  0  0
   32.6470   25.9850   48.5330 H   0  0  0  0  0  0  0  0  0  0  0  0
   33.8040   27.7010   49.6630 H   0  0  0  0  0  0  0  0  0  0  0  0
   35.1370   27.1520   48.5600 H   0  0  0  0  0  0  0  0  0  0  0  0
   38.4120   32.4180   47.6210 C   0  0  0  0  0  0  0  0  0  0  0  0
   38.7100   33.2790   48.7050 C   0  0  0  0  0  0  0  0  0  0  0  0
   38.1780   33.3650   49.6970 H   0  0  0  0  0  0  0  0  0  0  0  0
   40.1650   34.2150   48.1100 S   0  0  0  0  0  0  0  0  0  0  0  0
   40.1250   33.2680   46.4630 C   0  0  0  0  0  0  0  0  0  0  0  0
   40.7810   33.3120   45.5120 H   0  0  0  0  0  0  0  0  0  0  0  0
   39.2450   32.5770   46.5960 N   0  0  0  0  0  0  0  0  0  0  0  0
  1  6  1  0  0  0  0
  1 12  1  0  0  0  0
  2  1  2  0  0  0  0
  3  4  2  0  0  0  0
  3  2  1  0  0  0  0
  4  5  1  0  0  0  0
  5  7  1  0  0  0  0
  5  6  2  0  0  0  0
  7 11  1  0  0  0  0
  8  9  1  0  0  0  0
  8 14  1  0  0  0  0
  8  7  1  0  0  0  0
  9 10  1  0  0  0  0
  9 16  1  0  0  0  0
 10 19  1  0  0  0  0
 10 11  1  0  0  0  0
 11 20  1  0  0  0  0
 13  3  1  0  0  0  0
 15  8  1  0  0  0  0
 17  9  1  0  0  0  0
 18 10  1  0  0  0  0
 21 11  1  0  0  0  0
 22  2  1  0  0  0  0
 22 23  2  0  0  0  0
 23 24  1  0  0  0  0
 25 23  1  0  0  0  0
 26 28  2  0  0  0  0
 26 25  1  0  0  0  0
 27 26  1  0  0  0  0
 28 22  1  0  0  0  0
M  END
>  <minimizedAffinity>
-3.77409577

>  <minimizedRMSD>
2.49337578

$$$$
