
 OpenBabel03272507053D

 29 32  0  0  0  0  0  0  0  0999 V2000
   38.0030   32.5640   49.6210 C   0  0  0  0  0  0  0  0  0  0  0  0
   38.6920   32.8460   48.4230 C   0  0  0  0  0  0  0  0  0  0  0  0
   38.2870   32.1570   47.2690 C   0  0  0  0  0  0  0  0  0  0  0  0
   37.2680   31.2780   47.4030 N   0  0  0  0  0  0  0  0  0  0  0  0
   36.6290   31.0240   48.5470 C   0  0  0  0  0  0  0  0  0  0  0  0
   37.0020   31.6710   49.6460 N   0  0  0  0  0  0  0  0  0  0  0  0
   38.3280   33.1030   50.4960 H   0  0  0  0  0  0  0  0  0  0  0  0
   39.4940   33.5500   48.3570 H   0  0  0  0  0  0  0  0  0  0  0  0
   35.6190   28.9860   49.4600 C   0  0  0  0  0  0  0  0  0  0  0  0
   35.5510   30.0530   48.5580 C   0  0  0  0  0  0  0  0  0  0  0  0
   34.4880   30.1860   47.6940 C   0  0  0  0  0  0  0  0  0  0  0  0
   33.4600   29.2590   47.7040 C   0  0  0  0  0  0  0  0  0  0  0  0
   32.3170   29.1390   46.9860 N   0  0  0  0  0  0  0  0  0  0  0  0
   31.7350   28.0180   47.4680 C   0  0  0  0  0  0  0  0  0  0  0  0
   32.4730   27.4670   48.4340 N   0  0  0  0  0  0  0  0  0  0  0  0
   33.5590   28.2260   48.6010 C   0  0  0  0  0  0  0  0  0  0  0  0
   34.5960   28.0490   49.4820 C   0  0  0  0  0  0  0  0  0  0  0  0
   36.4560   28.8810   50.1410 H   0  0  0  0  0  0  0  0  0  0  0  0
   34.4790   31.0280   47.0150 H   0  0  0  0  0  0  0  0  0  0  0  0
   32.0390   29.8210   46.2420 H   0  0  0  0  0  0  0  0  0  0  0  0
   30.7800   27.7240   47.0220 H   0  0  0  0  0  0  0  0  0  0  0  0
   34.6190   27.2130   50.1660 H   0  0  0  0  0  0  0  0  0  0  0  0
   38.9450   32.3800   45.9590 C   0  0  0  0  0  0  0  0  0  0  0  0
   38.1970   32.4900   44.8120 C   0  0  0  0  0  0  0  0  0  0  0  0
   37.1300   32.4530   44.5850 H   0  0  0  0  0  0  0  0  0  0  0  0
   39.4830   32.7560   43.4930 S   0  0  0  0  0  0  0  0  0  0  0  0
   40.8420   32.6610   44.8160 C   0  0  0  0  0  0  0  0  0  0  0  0
   42.0510   32.7300   44.8780 H   0  0  0  0  0  0  0  0  0  0  0  0
   40.2430   32.4930   45.7500 N   0  0  0  0  0  0  0  0  0  0  0  0
  1  6  1  0  0  0  0
  1  7  1  0  0  0  0
  2  1  2  0  0  0  0
  3  4  2  0  0  0  0
  3  2  1  0  0  0  0
  4  5  1  0  0  0  0
  5 10  1  0  0  0  0
  5  6  2  0  0  0  0
  8  2  1  0  0  0  0
  9 17  1  0  0  0  0
  9 18  1  0  0  0  0
 10  9  2  0  0  0  0
 11 12  2  0  0  0  0
 11 10  1  0  0  0  0
 12 16  1  0  0  0  0
 13 14  1  0  0  0  0
 13 12  1  0  0  0  0
 14 15  2  0  0  0  0
 15 16  1  0  0  0  0
 16 17  2  0  0  0  0
 17 22  1  0  0  0  0
 19 11  1  0  0  0  0
 20 13  1  0  0  0  0
 21 14  1  0  0  0  0
 23  3  1  0  0  0  0
 24 23  2  0  0  0  0
 25 24  1  0  0  0  0
 26 24  1  0  0  0  0
 26 27  1  0  0  0  0
 27 28  1  0  0  0  0
 27 29  2  0  0  0  0
 29 23  1  0  0  0  0
M  END
>  <minimizedAffinity>
-6.50925446

>  <minimizedRMSD>
2.08231616

$$$$
