
 OpenBabel03272510073D

 28 30  0  0  0  0  0  0  0  0999 V2000
   38.2370   26.7300   35.9580 C   0  0  0  0  0  0  0  0  0  0  0  0
   38.2730   25.3940   35.5510 C   0  0  0  0  0  0  0  0  0  0  0  0
   37.7100   25.0730   34.3170 C   0  0  0  0  0  0  0  0  0  0  0  0
   37.1540   26.0680   33.5700 N   0  0  0  0  0  0  0  0  0  0  0  0
   37.1420   27.3530   34.0080 C   0  0  0  0  0  0  0  0  0  0  0  0
   37.6740   27.6900   35.1830 N   0  0  0  0  0  0  0  0  0  0  0  0
   36.5310   28.3410   33.1550 N   0  0  0  0  0  0  0  0  0  0  0  0
   36.9780   28.6490   31.8180 C   0  0  0  0  0  0  0  0  0  0  0  0
   35.9030   29.5190   31.2550 C   0  0  0  0  0  0  0  0  0  0  0  0
   34.7520   29.4830   32.2350 C   0  0  0  0  0  0  0  0  0  0  0  0
   35.3780   29.1530   33.5460 C   0  0  0  0  0  0  0  0  0  0  0  0
   38.6710   27.0040   36.9150 H   0  0  0  0  0  0  0  0  0  0  0  0
   37.7030   24.0600   33.9390 H   0  0  0  0  0  0  0  0  0  0  0  0
   37.9100   29.2490   31.9140 H   0  0  0  0  0  0  0  0  0  0  0  0
   37.1040   27.7550   31.1850 H   0  0  0  0  0  0  0  0  0  0  0  0
   36.2480   30.5540   31.1280 H   0  0  0  0  0  0  0  0  0  0  0  0
   35.5660   29.1340   30.2540 H   0  0  0  0  0  0  0  0  0  0  0  0
   34.0650   28.6670   31.9370 H   0  0  0  0  0  0  0  0  0  0  0  0
   34.2580   30.4610   32.3030 H   0  0  0  0  0  0  0  0  0  0  0  0
   35.6940   30.0380   34.1250 H   0  0  0  0  0  0  0  0  0  0  0  0
   34.7360   28.4970   34.1670 H   0  0  0  0  0  0  0  0  0  0  0  0
   38.8850   24.3520   36.3920 C   0  0  0  0  0  0  0  0  0  0  0  0
   40.0060   23.6130   35.9430 C   0  0  0  0  0  0  0  0  0  0  0  0
   40.5540   23.7000   34.9610 H   0  0  0  0  0  0  0  0  0  0  0  0
   40.3500   22.4830   37.3400 S   0  0  0  0  0  0  0  0  0  0  0  0
   38.8930   23.2130   38.3180 C   0  0  0  0  0  0  0  0  0  0  0  0
   38.4540   22.9920   39.3630 H   0  0  0  0  0  0  0  0  0  0  0  0
   38.4880   23.9920   37.6100 N   0  0  0  0  0  0  0  0  0  0  0  0
  1 12  1  0  0  0  0
  2  1  1  0  0  0  0
  2 22  1  0  0  0  0
  3  2  2  0  0  0  0
  4  5  2  0  0  0  0
  4  3  1  0  0  0  0
  5  6  1  0  0  0  0
  6  1  2  0  0  0  0
  7 11  1  0  0  0  0
  7  5  1  0  0  0  0
  8 14  1  0  0  0  0
  8  7  1  0  0  0  0
  9  8  1  0  0  0  0
  9 10  1  0  0  0  0
 10 19  1  0  0  0  0
 10 11  1  0  0  0  0
 11 20  1  0  0  0  0
 11 21  1  0  0  0  0
 13  3  1  0  0  0  0
 15  8  1  0  0  0  0
 16  9  1  0  0  0  0
 17  9  1  0  0  0  0
 18 10  1  0  0  0  0
 22 28  1  0  0  0  0
 23 22  2  0  0  0  0
 23 25  1  0  0  0  0
 24 23  1  0  0  0  0
 25 26  1  0  0  0  0
 26 27  1  0  0  0  0
 28 26  2  0  0  0  0
M  END
>  <minimizedAffinity>
-4.54380131

$$$$

 OpenBabel03272510073D

 28 30  0  0  0  0  0  0  0  0999 V2000
   37.8290   24.9820   34.0400 C   0  0  0  0  0  0  0  0  0  0  0  0
   38.1760   25.3610   35.3390 C   0  0  0  0  0  0  0  0  0  0  0  0
   37.9690   26.6890   35.7090 C   0  0  0  0  0  0  0  0  0  0  0  0
   37.4430   27.5500   34.7940 N   0  0  0  0  0  0  0  0  0  0  0  0
   37.1220   27.1370   33.5420 C   0  0  0  0  0  0  0  0  0  0  0  0
   37.3080   25.8730   33.1600 N   0  0  0  0  0  0  0  0  0  0  0  0
   36.5730   28.1160   32.6380 N   0  0  0  0  0  0  0  0  0  0  0  0
   35.3460   28.8390   32.8690 C   0  0  0  0  0  0  0  0  0  0  0  0
   35.3320   29.8990   31.8170 C   0  0  0  0  0  0  0  0  0  0  0  0
   36.6920   29.8790   31.1570 C   0  0  0  0  0  0  0  0  0  0  0  0
   37.2000   28.4960   31.3700 C   0  0  0  0  0  0  0  0  0  0  0  0
   37.9800   23.9520   33.7300 H   0  0  0  0  0  0  0  0  0  0  0  0
   38.2140   27.0510   36.6980 H   0  0  0  0  0  0  0  0  0  0  0  0
   34.5080   28.1330   32.6770 H   0  0  0  0  0  0  0  0  0  0  0  0
   35.2980   29.3040   33.8680 H   0  0  0  0  0  0  0  0  0  0  0  0
   34.5530   29.7080   31.0650 H   0  0  0  0  0  0  0  0  0  0  0  0
   35.1410   30.9070   32.2740 H   0  0  0  0  0  0  0  0  0  0  0  0
   37.3460   30.6000   31.6860 H   0  0  0  0  0  0  0  0  0  0  0  0
   36.6140   30.0770   30.0800 H   0  0  0  0  0  0  0  0  0  0  0  0
   36.9270   27.7910   30.5660 H   0  0  0  0  0  0  0  0  0  0  0  0
   38.2930   28.4700   31.5490 H   0  0  0  0  0  0  0  0  0  0  0  0
   38.7410   24.3930   36.2950 C   0  0  0  0  0  0  0  0  0  0  0  0
   39.8930   23.6350   35.9740 C   0  0  0  0  0  0  0  0  0  0  0  0
   40.5010   23.6540   35.0240 H   0  0  0  0  0  0  0  0  0  0  0  0
   40.1570   22.6190   37.4730 S   0  0  0  0  0  0  0  0  0  0  0  0
   38.6360   23.4050   38.2990 C   0  0  0  0  0  0  0  0  0  0  0  0
   38.1340   23.2590   39.3290 H   0  0  0  0  0  0  0  0  0  0  0  0
   38.2700   24.1220   37.5090 N   0  0  0  0  0  0  0  0  0  0  0  0
  1  2  1  0  0  0  0
  2  3  2  0  0  0  0
  2 22  1  0  0  0  0
  3 13  1  0  0  0  0
  4  3  1  0  0  0  0
  5  4  2  0  0  0  0
  6  5  1  0  0  0  0
  6  1  2  0  0  0  0
  7  8  1  0  0  0  0
  7  5  1  0  0  0  0
  8 15  1  0  0  0  0
  9 17  1  0  0  0  0
  9  8  1  0  0  0  0
 10 11  1  0  0  0  0
 10 18  1  0  0  0  0
 10  9  1  0  0  0  0
 11 21  1  0  0  0  0
 11  7  1  0  0  0  0
 12  1  1  0  0  0  0
 14  8  1  0  0  0  0
 16  9  1  0  0  0  0
 19 10  1  0  0  0  0
 20 11  1  0  0  0  0
 22 28  1  0  0  0  0
 23 22  2  0  0  0  0
 23 25  1  0  0  0  0
 24 23  1  0  0  0  0
 25 26  1  0  0  0  0
 26 27  1  0  0  0  0
 28 26  2  0  0  0  0
M  END
>  <minimizedAffinity>
-4.51990795

$$$$

 OpenBabel03272510073D

 28 30  0  0  0  0  0  0  0  0999 V2000
   37.0690   25.5100   32.1380 C   0  0  0  0  0  0  0  0  0  0  0  0
   36.0440   26.2080   31.4950 C   0  0  0  0  0  0  0  0  0  0  0  0
   35.0170   25.4670   30.9100 C   0  0  0  0  0  0  0  0  0  0  0  0
   35.0600   24.1080   30.9930 N   0  0  0  0  0  0  0  0  0  0  0  0
   36.0780   23.4730   31.6280 C   0  0  0  0  0  0  0  0  0  0  0  0
   37.0730   24.1550   32.1970 N   0  0  0  0  0  0  0  0  0  0  0  0
   36.0440   22.0330   31.6650 N   0  0  0  0  0  0  0  0  0  0  0  0
   34.9890   21.2590   32.2740 C   0  0  0  0  0  0  0  0  0  0  0  0
   35.2550   19.8560   31.8380 C   0  0  0  0  0  0  0  0  0  0  0  0
   36.3410   19.9210   30.7890 C   0  0  0  0  0  0  0  0  0  0  0  0
   37.0820   21.1790   31.0840 C   0  0  0  0  0  0  0  0  0  0  0  0
   37.8790   26.0660   32.6020 H   0  0  0  0  0  0  0  0  0  0  0  0
   34.1920   25.9420   30.3970 H   0  0  0  0  0  0  0  0  0  0  0  0
   35.1300   21.3240   33.3760 H   0  0  0  0  0  0  0  0  0  0  0  0
   33.9820   21.5670   31.9490 H   0  0  0  0  0  0  0  0  0  0  0  0
   35.5900   19.2300   32.6780 H   0  0  0  0  0  0  0  0  0  0  0  0
   34.3280   19.3950   31.4030 H   0  0  0  0  0  0  0  0  0  0  0  0
   35.8610   19.9980   29.7940 H   0  0  0  0  0  0  0  0  0  0  0  0
   37.0260   19.0670   30.8730 H   0  0  0  0  0  0  0  0  0  0  0  0
   37.9250   21.0480   31.7840 H   0  0  0  0  0  0  0  0  0  0  0  0
   37.4240   21.6940   30.1640 H   0  0  0  0  0  0  0  0  0  0  0  0
   36.0400   27.6790   31.4320 C   0  0  0  0  0  0  0  0  0  0  0  0
   36.6730   28.3690   30.3710 C   0  0  0  0  0  0  0  0  0  0  0  0
   37.2280   27.9370   29.4890 H   0  0  0  0  0  0  0  0  0  0  0  0
   36.3740   30.1270   30.7750 S   0  0  0  0  0  0  0  0  0  0  0  0
   35.4230   29.6270   32.3430 C   0  0  0  0  0  0  0  0  0  0  0  0
   34.8950   30.2330   33.1730 H   0  0  0  0  0  0  0  0  0  0  0  0
   35.4750   28.5010   32.3130 N   0  0  0  0  0  0  0  0  0  0  0  0
  1  6  1  0  0  0  0
  1 12  1  0  0  0  0
  2  1  2  0  0  0  0
  3  4  2  0  0  0  0
  3  2  1  0  0  0  0
  4  5  1  0  0  0  0
  5  7  1  0  0  0  0
  5  6  2  0  0  0  0
  7  8  1  0  0  0  0
  8 14  1  0  0  0  0
  9  8  1  0  0  0  0
  9 16  1  0  0  0  0
 10 19  1  0  0  0  0
 10 11  1  0  0  0  0
 10  9  1  0  0  0  0
 11  7  1  0  0  0  0
 11 20  1  0  0  0  0
 13  3  1  0  0  0  0
 15  8  1  0  0  0  0
 17  9  1  0  0  0  0
 18 10  1  0  0  0  0
 21 11  1  0  0  0  0
 22  2  1  0  0  0  0
 22 28  1  0  0  0  0
 23 25  1  0  0  0  0
 23 22  2  0  0  0  0
 24 23  1  0  0  0  0
 25 26  1  0  0  0  0
 26 27  1  0  0  0  0
 28 26  2  0  0  0  0
M  END
>  <minimizedAffinity>
-4.46270275

$$$$

 OpenBabel03272510073D

 28 30  0  0  0  0  0  0  0  0999 V2000
   37.1640   23.8600   32.4500 C   0  0  0  0  0  0  0  0  0  0  0  0
   36.1170   23.2150   31.7880 C   0  0  0  0  0  0  0  0  0  0  0  0
   35.2080   24.0030   31.0830 C   0  0  0  0  0  0  0  0  0  0  0  0
   35.3800   25.3540   31.0730 N   0  0  0  0  0  0  0  0  0  0  0  0
   36.4140   25.9360   31.7320 C   0  0  0  0  0  0  0  0  0  0  0  0
   37.2990   25.2090   32.4140 N   0  0  0  0  0  0  0  0  0  0  0  0
   36.5180   27.3720   31.6700 N   0  0  0  0  0  0  0  0  0  0  0  0
   36.6860   28.1240   30.4490 C   0  0  0  0  0  0  0  0  0  0  0  0
   36.4810   29.5460   30.8540 C   0  0  0  0  0  0  0  0  0  0  0  0
   35.9680   29.5280   32.2760 C   0  0  0  0  0  0  0  0  0  0  0  0
   36.4660   28.2450   32.8450 C   0  0  0  0  0  0  0  0  0  0  0  0
   37.8860   23.2670   33.0050 H   0  0  0  0  0  0  0  0  0  0  0  0
   34.3740   23.5710   30.5470 H   0  0  0  0  0  0  0  0  0  0  0  0
   37.7420   27.9920   30.1260 H   0  0  0  0  0  0  0  0  0  0  0  0
   35.9590   27.8490   29.6680 H   0  0  0  0  0  0  0  0  0  0  0  0
   37.4200   30.1170   30.8070 H   0  0  0  0  0  0  0  0  0  0  0  0
   35.7310   30.0450   30.1820 H   0  0  0  0  0  0  0  0  0  0  0  0
   34.8610   29.5160   32.2470 H   0  0  0  0  0  0  0  0  0  0  0  0
   36.3760   30.3670   32.8560 H   0  0  0  0  0  0  0  0  0  0  0  0
   37.4570   28.3230   33.3250 H   0  0  0  0  0  0  0  0  0  0  0  0
   35.7390   27.7800   33.5400 H   0  0  0  0  0  0  0  0  0  0  0  0
   35.9710   21.7500   31.8270 C   0  0  0  0  0  0  0  0  0  0  0  0
   35.4750   21.0940   32.9790 C   0  0  0  0  0  0  0  0  0  0  0  0
   35.1440   21.5510   33.9560 H   0  0  0  0  0  0  0  0  0  0  0  0
   35.5000   19.3290   32.5000 S   0  0  0  0  0  0  0  0  0  0  0  0
   36.1910   19.7810   30.7880 C   0  0  0  0  0  0  0  0  0  0  0  0
   36.4860   19.1530   29.8650 H   0  0  0  0  0  0  0  0  0  0  0  0
   36.2700   20.9050   30.8440 N   0  0  0  0  0  0  0  0  0  0  0  0
  1 12  1  0  0  0  0
  2 22  1  0  0  0  0
  2  1  2  0  0  0  0
  3  2  1  0  0  0  0
  4  3  2  0  0  0  0
  4  5  1  0  0  0  0
  5  6  2  0  0  0  0
  6  1  1  0  0  0  0
  7  5  1  0  0  0  0
  7 11  1  0  0  0  0
  8  9  1  0  0  0  0
  8  7  1  0  0  0  0
  9 10  1  0  0  0  0
 10 11  1  0  0  0  0
 10 19  1  0  0  0  0
 11 20  1  0  0  0  0
 11 21  1  0  0  0  0
 13  3  1  0  0  0  0
 14  8  1  0  0  0  0
 15  8  1  0  0  0  0
 16  9  1  0  0  0  0
 17  9  1  0  0  0  0
 18 10  1  0  0  0  0
 22 23  2  0  0  0  0
 23 24  1  0  0  0  0
 25 23  1  0  0  0  0
 26 28  2  0  0  0  0
 26 25  1  0  0  0  0
 27 26  1  0  0  0  0
 28 22  1  0  0  0  0
M  END
>  <minimizedAffinity>
-4.38009644

$$$$

 OpenBabel03272510073D

 28 30  0  0  0  0  0  0  0  0999 V2000
   37.1990   24.0260   32.5110 C   0  0  0  0  0  0  0  0  0  0  0  0
   36.1490   23.3480   31.8880 C   0  0  0  0  0  0  0  0  0  0  0  0
   35.2520   24.0950   31.1240 C   0  0  0  0  0  0  0  0  0  0  0  0
   35.4390   25.4400   31.0220 N   0  0  0  0  0  0  0  0  0  0  0  0
   36.4750   26.0560   31.6470 C   0  0  0  0  0  0  0  0  0  0  0  0
   37.3490   25.3680   32.3830 N   0  0  0  0  0  0  0  0  0  0  0  0
   36.5960   27.4830   31.4870 N   0  0  0  0  0  0  0  0  0  0  0  0
   36.7790   28.1470   30.2180 C   0  0  0  0  0  0  0  0  0  0  0  0
   36.5870   29.5960   30.5230 C   0  0  0  0  0  0  0  0  0  0  0  0
   36.0650   29.6810   31.9390 C   0  0  0  0  0  0  0  0  0  0  0  0
   36.5460   28.4350   32.5990 C   0  0  0  0  0  0  0  0  0  0  0  0
   37.9100   23.4650   33.1100 H   0  0  0  0  0  0  0  0  0  0  0  0
   34.4170   23.6360   30.6140 H   0  0  0  0  0  0  0  0  0  0  0  0
   37.8350   27.9820   29.9120 H   0  0  0  0  0  0  0  0  0  0  0  0
   36.0530   27.8270   29.4520 H   0  0  0  0  0  0  0  0  0  0  0  0
   37.5320   30.1520   30.4430 H   0  0  0  0  0  0  0  0  0  0  0  0
   35.8470   30.0550   29.8130 H   0  0  0  0  0  0  0  0  0  0  0  0
   34.9580   29.6780   31.9040 H   0  0  0  0  0  0  0  0  0  0  0  0
   36.4790   30.5530   32.4630 H   0  0  0  0  0  0  0  0  0  0  0  0
   37.5350   28.5360   33.0780 H   0  0  0  0  0  0  0  0  0  0  0  0
   35.8090   28.0260   33.3190 H   0  0  0  0  0  0  0  0  0  0  0  0
   35.9870   21.8910   32.0260 C   0  0  0  0  0  0  0  0  0  0  0  0
   36.1120   21.0300   30.9090 C   0  0  0  0  0  0  0  0  0  0  0  0
   36.3370   21.3030   29.8380 H   0  0  0  0  0  0  0  0  0  0  0  0
   35.8240   19.3710   31.6240 S   0  0  0  0  0  0  0  0  0  0  0  0
   35.5770   20.1330   33.3480 C   0  0  0  0  0  0  0  0  0  0  0  0
   35.3420   19.6810   34.3840 H   0  0  0  0  0  0  0  0  0  0  0  0
   35.7160   21.2350   33.1520 N   0  0  0  0  0  0  0  0  0  0  0  0
  1 12  1  0  0  0  0
  2 22  1  0  0  0  0
  2  1  2  0  0  0  0
  3  2  1  0  0  0  0
  4  3  2  0  0  0  0
  4  5  1  0  0  0  0
  5  6  2  0  0  0  0
  6  1  1  0  0  0  0
  7  5  1  0  0  0  0
  7 11  1  0  0  0  0
  8  9  1  0  0  0  0
  8  7  1  0  0  0  0
  9 10  1  0  0  0  0
 10 19  1  0  0  0  0
 10 11  1  0  0  0  0
 11 20  1  0  0  0  0
 11 21  1  0  0  0  0
 13  3  1  0  0  0  0
 14  8  1  0  0  0  0
 15  8  1  0  0  0  0
 16  9  1  0  0  0  0
 17  9  1  0  0  0  0
 18 10  1  0  0  0  0
 22 28  1  0  0  0  0
 23 25  1  0  0  0  0
 23 22  2  0  0  0  0
 24 23  1  0  0  0  0
 25 26  1  0  0  0  0
 26 27  1  0  0  0  0
 28 26  2  0  0  0  0
M  END
>  <minimizedAffinity>
-4.35279894

$$$$

 OpenBabel03272510073D

 28 30  0  0  0  0  0  0  0  0999 V2000
   37.5520   25.5050   33.2050 C   0  0  0  0  0  0  0  0  0  0  0  0
   38.3080   26.6700   33.0570 C   0  0  0  0  0  0  0  0  0  0  0  0
   39.3430   26.8950   33.9640 C   0  0  0  0  0  0  0  0  0  0  0  0
   39.5680   25.9760   34.9440 N   0  0  0  0  0  0  0  0  0  0  0  0
   38.8060   24.8580   35.0480 C   0  0  0  0  0  0  0  0  0  0  0  0
   37.8090   24.6150   34.1960 N   0  0  0  0  0  0  0  0  0  0  0  0
   39.1120   23.9400   36.1170 N   0  0  0  0  0  0  0  0  0  0  0  0
   40.3790   23.2650   36.2720 C   0  0  0  0  0  0  0  0  0  0  0  0
   40.3100   22.6480   37.6300 C   0  0  0  0  0  0  0  0  0  0  0  0
   39.0720   23.2000   38.3000 C   0  0  0  0  0  0  0  0  0  0  0  0
   38.1700   23.5830   37.1790 C   0  0  0  0  0  0  0  0  0  0  0  0
   36.7400   25.3080   32.5100 H   0  0  0  0  0  0  0  0  0  0  0  0
   39.9690   27.7750   33.9090 H   0  0  0  0  0  0  0  0  0  0  0  0
   40.4130   22.4540   35.5120 H   0  0  0  0  0  0  0  0  0  0  0  0
   41.2430   23.9470   36.2140 H   0  0  0  0  0  0  0  0  0  0  0  0
   40.2410   21.5530   37.5710 H   0  0  0  0  0  0  0  0  0  0  0  0
   41.2220   22.9130   38.2310 H   0  0  0  0  0  0  0  0  0  0  0  0
   39.3590   24.1040   38.8710 H   0  0  0  0  0  0  0  0  0  0  0  0
   38.5820   22.4360   38.9180 H   0  0  0  0  0  0  0  0  0  0  0  0
   37.4940   22.7740   36.8530 H   0  0  0  0  0  0  0  0  0  0  0  0
   37.5910   24.5020   37.3980 H   0  0  0  0  0  0  0  0  0  0  0  0
   38.0280   27.6350   31.9810 C   0  0  0  0  0  0  0  0  0  0  0  0
   36.8930   28.4790   32.0310 C   0  0  0  0  0  0  0  0  0  0  0  0
   36.1000   28.5380   32.8320 H   0  0  0  0  0  0  0  0  0  0  0  0
   37.0240   29.4500   30.4870 S   0  0  0  0  0  0  0  0  0  0  0  0
   38.6230   28.5350   30.0210 C   0  0  0  0  0  0  0  0  0  0  0  0
   39.3390   28.6070   29.1180 H   0  0  0  0  0  0  0  0  0  0  0  0
   38.7610   27.8260   30.8870 N   0  0  0  0  0  0  0  0  0  0  0  0
  1  6  1  0  0  0  0
  2  1  2  0  0  0  0
  2  3  1  0  0  0  0
  3  4  2  0  0  0  0
  4  5  1  0  0  0  0
  5  7  1  0  0  0  0
  6  5  2  0  0  0  0
  7  8  1  0  0  0  0
  7 11  1  0  0  0  0
  8  9  1  0  0  0  0
  9 17  1  0  0  0  0
  9 10  1  0  0  0  0
 10 18  1  0  0  0  0
 10 19  1  0  0  0  0
 11 21  1  0  0  0  0
 11 10  1  0  0  0  0
 12  1  1  0  0  0  0
 13  3  1  0  0  0  0
 14  8  1  0  0  0  0
 15  8  1  0  0  0  0
 16  9  1  0  0  0  0
 20 11  1  0  0  0  0
 22 23  2  0  0  0  0
 22  2  1  0  0  0  0
 23 24  1  0  0  0  0
 25 23  1  0  0  0  0
 26 25  1  0  0  0  0
 26 28  2  0  0  0  0
 27 26  1  0  0  0  0
 28 22  1  0  0  0  0
M  END
>  <minimizedAffinity>
-4.32739496

$$$$

 OpenBabel03272510073D

 28 30  0  0  0  0  0  0  0  0999 V2000
   37.4240   25.5550   33.7030 C   0  0  0  0  0  0  0  0  0  0  0  0
   37.5640   26.8770   34.1330 C   0  0  0  0  0  0  0  0  0  0  0  0
   38.5200   27.1480   35.1100 C   0  0  0  0  0  0  0  0  0  0  0  0
   39.2690   26.1200   35.5980 N   0  0  0  0  0  0  0  0  0  0  0  0
   39.0970   24.8500   35.1500 C   0  0  0  0  0  0  0  0  0  0  0  0
   38.1910   24.5600   34.2160 N   0  0  0  0  0  0  0  0  0  0  0  0
   39.9310   23.8240   35.7230 N   0  0  0  0  0  0  0  0  0  0  0  0
   41.3720   23.8090   35.6470 C   0  0  0  0  0  0  0  0  0  0  0  0
   41.7860   22.7250   36.5870 C   0  0  0  0  0  0  0  0  0  0  0  0
   40.5480   22.3110   37.3500 C   0  0  0  0  0  0  0  0  0  0  0  0
   39.4110   22.6670   36.4560 C   0  0  0  0  0  0  0  0  0  0  0  0
   36.6860   25.3200   32.9420 H   0  0  0  0  0  0  0  0  0  0  0  0
   38.6820   28.1480   35.4890 H   0  0  0  0  0  0  0  0  0  0  0  0
   41.6420   23.5060   34.6110 H   0  0  0  0  0  0  0  0  0  0  0  0
   41.8320   24.7630   35.9510 H   0  0  0  0  0  0  0  0  0  0  0  0
   42.1950   21.8590   36.0480 H   0  0  0  0  0  0  0  0  0  0  0  0
   42.5690   23.0980   37.3010 H   0  0  0  0  0  0  0  0  0  0  0  0
   40.4930   22.9120   38.2790 H   0  0  0  0  0  0  0  0  0  0  0  0
   40.5400   21.2280   37.5360 H   0  0  0  0  0  0  0  0  0  0  0  0
   39.1160   21.8590   35.7640 H   0  0  0  0  0  0  0  0  0  0  0  0
   38.5290   23.0320   37.0190 H   0  0  0  0  0  0  0  0  0  0  0  0
   36.7310   27.9560   33.5750 C   0  0  0  0  0  0  0  0  0  0  0  0
   36.7430   28.2500   32.1900 C   0  0  0  0  0  0  0  0  0  0  0  0
   37.3380   27.7470   31.3740 H   0  0  0  0  0  0  0  0  0  0  0  0
   35.5620   29.6390   32.0460 S   0  0  0  0  0  0  0  0  0  0  0  0
   35.2430   29.5900   33.9190 C   0  0  0  0  0  0  0  0  0  0  0  0
   34.5670   30.2110   34.6210 H   0  0  0  0  0  0  0  0  0  0  0  0
   35.9100   28.7480   34.2600 N   0  0  0  0  0  0  0  0  0  0  0  0
  1  2  2  0  0  0  0
  1  6  1  0  0  0  0
  2  3  1  0  0  0  0
  3 13  1  0  0  0  0
  3  4  2  0  0  0  0
  5  4  1  0  0  0  0
  5  7  1  0  0  0  0
  6  5  2  0  0  0  0
  7 11  1  0  0  0  0
  8  7  1  0  0  0  0
  8 15  1  0  0  0  0
  8  9  1  0  0  0  0
  9 17  1  0  0  0  0
  9 10  1  0  0  0  0
 10 19  1  0  0  0  0
 10 18  1  0  0  0  0
 11 21  1  0  0  0  0
 11 10  1  0  0  0  0
 12  1  1  0  0  0  0
 14  8  1  0  0  0  0
 16  9  1  0  0  0  0
 20 11  1  0  0  0  0
 22  2  1  0  0  0  0
 22 28  1  0  0  0  0
 23 22  2  0  0  0  0
 24 23  1  0  0  0  0
 25 23  1  0  0  0  0
 25 26  1  0  0  0  0
 26 28  2  0  0  0  0
 26 27  1  0  0  0  0
M  END
>  <minimizedAffinity>
-4.26728582

$$$$

 OpenBabel03272510073D

 28 30  0  0  0  0  0  0  0  0999 V2000
   37.5150   25.4470   33.5350 C   0  0  0  0  0  0  0  0  0  0  0  0
   37.8330   25.7610   34.8580 C   0  0  0  0  0  0  0  0  0  0  0  0
   37.5510   27.0500   35.3080 C   0  0  0  0  0  0  0  0  0  0  0  0
   36.9810   27.9360   34.4450 N   0  0  0  0  0  0  0  0  0  0  0  0
   36.6900   27.5860   33.1670 C   0  0  0  0  0  0  0  0  0  0  0  0
   36.9490   26.3610   32.7070 N   0  0  0  0  0  0  0  0  0  0  0  0
   36.0910   28.5870   32.3210 N   0  0  0  0  0  0  0  0  0  0  0  0
   34.8240   29.2240   32.5870 C   0  0  0  0  0  0  0  0  0  0  0  0
   34.7550   30.3460   31.6030 C   0  0  0  0  0  0  0  0  0  0  0  0
   36.1170   30.4450   30.9550 C   0  0  0  0  0  0  0  0  0  0  0  0
   36.7020   29.0810   31.0850 C   0  0  0  0  0  0  0  0  0  0  0  0
   37.7260   24.4490   33.1610 H   0  0  0  0  0  0  0  0  0  0  0  0
   37.7700   27.3620   36.3200 H   0  0  0  0  0  0  0  0  0  0  0  0
   34.0290   28.4860   32.3440 H   0  0  0  0  0  0  0  0  0  0  0  0
   34.7440   29.6220   33.6120 H   0  0  0  0  0  0  0  0  0  0  0  0
   33.9920   30.1600   30.8340 H   0  0  0  0  0  0  0  0  0  0  0  0
   34.5050   31.3110   32.1210 H   0  0  0  0  0  0  0  0  0  0  0  0
   36.7270   31.1660   31.5340 H   0  0  0  0  0  0  0  0  0  0  0  0
   36.0330   30.7060   29.8920 H   0  0  0  0  0  0  0  0  0  0  0  0
   36.4730   28.4140   30.2360 H   0  0  0  0  0  0  0  0  0  0  0  0
   37.7940   29.1050   31.2710 H   0  0  0  0  0  0  0  0  0  0  0  0
   38.4480   24.7690   35.7550 C   0  0  0  0  0  0  0  0  0  0  0  0
   37.8420   24.4190   36.9860 C   0  0  0  0  0  0  0  0  0  0  0  0
   36.8800   24.8100   37.4280 H   0  0  0  0  0  0  0  0  0  0  0  0
   38.9920   23.1790   37.6830 S   0  0  0  0  0  0  0  0  0  0  0  0
   40.1240   23.3440   36.1650 C   0  0  0  0  0  0  0  0  0  0  0  0
   41.1190   22.8400   35.8630 H   0  0  0  0  0  0  0  0  0  0  0  0
   39.5850   24.1130   35.5390 N   0  0  0  0  0  0  0  0  0  0  0  0
  1  2  1  0  0  0  0
  2  3  2  0  0  0  0
  2 22  1  0  0  0  0
  3 13  1  0  0  0  0
  4  3  1  0  0  0  0
  5  4  2  0  0  0  0
  6  5  1  0  0  0  0
  6  1  2  0  0  0  0
  7  8  1  0  0  0  0
  7  5  1  0  0  0  0
  8 15  1  0  0  0  0
  9 17  1  0  0  0  0
  9  8  1  0  0  0  0
 10 11  1  0  0  0  0
 10 18  1  0  0  0  0
 10  9  1  0  0  0  0
 11 21  1  0  0  0  0
 11  7  1  0  0  0  0
 12  1  1  0  0  0  0
 14  8  1  0  0  0  0
 16  9  1  0  0  0  0
 19 10  1  0  0  0  0
 20 11  1  0  0  0  0
 22 23  2  0  0  0  0
 23 24  1  0  0  0  0
 23 25  1  0  0  0  0
 26 25  1  0  0  0  0
 27 26  1  0  0  0  0
 28 22  1  0  0  0  0
 28 26  2  0  0  0  0
M  END
>  <minimizedAffinity>
-4.22926331

$$$$

 OpenBabel03272510073D

 28 30  0  0  0  0  0  0  0  0999 V2000
   35.2520   28.7850   32.3070 C   0  0  0  0  0  0  0  0  0  0  0  0
   35.7610   29.0350   33.5830 C   0  0  0  0  0  0  0  0  0  0  0  0
   36.5840   28.0670   34.1580 C   0  0  0  0  0  0  0  0  0  0  0  0
   36.8520   26.9320   33.4550 N   0  0  0  0  0  0  0  0  0  0  0  0
   36.3340   26.7330   32.2160 C   0  0  0  0  0  0  0  0  0  0  0  0
   35.5450   27.6400   31.6400 N   0  0  0  0  0  0  0  0  0  0  0  0
   36.6680   25.5020   31.5450 N   0  0  0  0  0  0  0  0  0  0  0  0
   38.0110   25.0990   31.2040 C   0  0  0  0  0  0  0  0  0  0  0  0
   37.8780   23.6750   30.7750 C   0  0  0  0  0  0  0  0  0  0  0  0
   36.4680   23.2460   31.1140 C   0  0  0  0  0  0  0  0  0  0  0  0
   35.6780   24.5080   31.1260 C   0  0  0  0  0  0  0  0  0  0  0  0
   34.6100   29.5250   31.8380 H   0  0  0  0  0  0  0  0  0  0  0  0
   37.0130   28.1940   35.1430 H   0  0  0  0  0  0  0  0  0  0  0  0
   38.3240   25.7090   30.3280 H   0  0  0  0  0  0  0  0  0  0  0  0
   38.7130   25.1700   32.0520 H   0  0  0  0  0  0  0  0  0  0  0  0
   38.0490   23.5630   29.6950 H   0  0  0  0  0  0  0  0  0  0  0  0
   38.6180   23.0270   31.3190 H   0  0  0  0  0  0  0  0  0  0  0  0
   36.4730   22.8010   32.1280 H   0  0  0  0  0  0  0  0  0  0  0  0
   36.0640   22.5700   30.3480 H   0  0  0  0  0  0  0  0  0  0  0  0
   35.2400   24.7710   30.1480 H   0  0  0  0  0  0  0  0  0  0  0  0
   34.8940   24.5070   31.9100 H   0  0  0  0  0  0  0  0  0  0  0  0
   35.4440   30.2780   34.3060 C   0  0  0  0  0  0  0  0  0  0  0  0
   34.4410   31.1610   33.8390 C   0  0  0  0  0  0  0  0  0  0  0  0
   33.7870   31.0570   32.9250 H   0  0  0  0  0  0  0  0  0  0  0  0
   34.4590   32.5080   35.0760 S   0  0  0  0  0  0  0  0  0  0  0  0
   35.8480   31.6360   36.0370 C   0  0  0  0  0  0  0  0  0  0  0  0
   36.4260   31.8990   37.0020 H   0  0  0  0  0  0  0  0  0  0  0  0
   36.0260   30.7070   35.4230 N   0  0  0  0  0  0  0  0  0  0  0  0
  1  2  1  0  0  0  0
  2  3  2  0  0  0  0
  2 22  1  0  0  0  0
  3 13  1  0  0  0  0
  4  3  1  0  0  0  0
  5  4  2  0  0  0  0
  6  5  1  0  0  0  0
  6  1  2  0  0  0  0
  7  5  1  0  0  0  0
  8  7  1  0  0  0  0
  8 15  1  0  0  0  0
  9 10  1  0  0  0  0
  9  8  1  0  0  0  0
  9 17  1  0  0  0  0
 10 11  1  0  0  0  0
 10 18  1  0  0  0  0
 11  7  1  0  0  0  0
 11 21  1  0  0  0  0
 12  1  1  0  0  0  0
 14  8  1  0  0  0  0
 16  9  1  0  0  0  0
 19 10  1  0  0  0  0
 20 11  1  0  0  0  0
 22 28  1  0  0  0  0
 23 22  2  0  0  0  0
 23 25  1  0  0  0  0
 24 23  1  0  0  0  0
 25 26  1  0  0  0  0
 26 27  1  0  0  0  0
 28 26  2  0  0  0  0
M  END
>  <minimizedAffinity>
-4.22370958

$$$$
