
 OpenBabel03272508113D

 32 34  0  0  0  0  0  0  0  0999 V2000
   36.6070   29.4850   44.0660 Cl  0  0  0  0  0  0  0  0  0  0  0  0
   38.2580   29.8450   43.4960 C   0  0  0  0  0  0  0  0  0  0  0  0
   39.2660   30.3080   44.3220 C   0  0  0  0  0  0  0  0  0  0  0  0
   40.4900   30.5410   43.7340 C   0  0  0  0  0  0  0  0  0  0  0  0
   40.7180   30.3330   42.4000 C   0  0  0  0  0  0  0  0  0  0  0  0
   39.7270   29.8790   41.5940 C   0  0  0  0  0  0  0  0  0  0  0  0
   38.4760   29.6260   42.1270 C   0  0  0  0  0  0  0  0  0  0  0  0
   41.2360   30.9000   44.4280 H   0  0  0  0  0  0  0  0  0  0  0  0
   41.7170   30.5510   42.0520 H   0  0  0  0  0  0  0  0  0  0  0  0
   39.9250   29.7210   40.5470 H   0  0  0  0  0  0  0  0  0  0  0  0
   37.3710   29.1290   41.2710 C   0  0  0  0  0  0  0  0  0  0  0  0
   36.5870   30.0320   40.5610 C   0  0  0  0  0  0  0  0  0  0  0  0
   36.5770   31.1290   40.4650 H   0  0  0  0  0  0  0  0  0  0  0  0
   35.3680   28.8990   39.6630 S   0  0  0  0  0  0  0  0  0  0  0  0
   36.2060   27.4000   40.4660 C   0  0  0  0  0  0  0  0  0  0  0  0
   36.0660   26.2120   40.4480 H   0  0  0  0  0  0  0  0  0  0  0  0
   37.0190   27.8650   41.0860 N   0  0  0  0  0  0  0  0  0  0  0  0
   38.8610   30.4570   45.6190 O   0  0  0  0  0  0  0  0  0  0  0  0
   39.4430   32.4790   47.1120 O   0  0  0  0  0  0  0  0  0  0  0  0
   38.3050   31.8260   46.4120 P   0  0  1  0  0  0  0  0  0  0  0  0
   37.7290   32.8470   45.1710 O   0  0  0  0  0  0  0  0  0  0  0  0
   38.5220   33.3040   44.7650 H   0  0  0  0  0  0  0  0  0  0  0  0
   37.0230   31.3980   47.4350 O   0  0  0  0  0  0  0  0  0  0  0  0
   37.6120   30.5330   50.9770 C   0  0  0  0  0  0  0  0  0  0  0  0
   37.7070   31.3020   49.8170 C   0  0  0  0  0  0  0  0  0  0  0  0
   37.0710   30.8340   48.6610 C   0  0  0  0  0  0  0  0  0  0  0  0
   36.3940   29.6500   48.7380 N   0  0  0  0  0  0  0  0  0  0  0  0
   36.3240   28.9330   49.8790 C   0  0  0  0  0  0  0  0  0  0  0  0
   36.9320   29.3760   50.9940 N   0  0  0  0  0  0  0  0  0  0  0  0
   38.1320   30.9850   51.7940 H   0  0  0  0  0  0  0  0  0  0  0  0
   38.2120   32.2280   49.6840 H   0  0  0  0  0  0  0  0  0  0  0  0
   35.7880   27.9950   49.9400 H   0  0  0  0  0  0  0  0  0  0  0  0
  2  1  1  0  0  0  0
  2  3  1  0  0  0  0
  3 18  1  0  0  0  0
  4  3  2  0  0  0  0
  4  8  1  0  0  0  0
  5  4  1  0  0  0  0
  6  7  1  0  0  0  0
  6  5  2  0  0  0  0
  7  2  2  0  0  0  0
  9  5  1  0  0  0  0
 10  6  1  0  0  0  0
 11  7  1  0  0  0  0
 12 11  2  0  0  0  0
 13 12  1  0  0  0  0
 14 15  1  0  0  0  0
 14 12  1  0  0  0  0
 15 17  2  0  0  0  0
 16 15  1  0  0  0  0
 17 11  1  0  0  0  0
 18 20  1  0  0  0  0
 20 19  2  1  0  0  0
 20 23  1  0  0  0  0
 21 20  1  0  0  0  0
 22 21  1  0  0  0  0
 23 26  1  0  0  0  0
 24 29  1  0  0  0  0
 24 30  1  0  0  0  0
 25 24  2  0  0  0  0
 26 27  2  0  0  0  0
 26 25  1  0  0  0  0
 27 28  1  0  0  0  0
 28 32  1  0  0  0  0
 28 29  2  0  0  0  0
 31 25  1  0  0  0  0
M  END
>  <minimizedAffinity>
-4.80119419

>  <minimizedRMSD>
0.0520120934

$$$$
