
 OpenBabel03272508113D

 32 34  0  0  0  0  0  0  0  0999 V2000
   36.6050   29.4820   44.0650 Cl  0  0  0  0  0  0  0  0  0  0  0  0
   38.2560   29.8420   43.4950 C   0  0  0  0  0  0  0  0  0  0  0  0
   39.2640   30.3060   44.3220 C   0  0  0  0  0  0  0  0  0  0  0  0
   40.4880   30.5390   43.7330 C   0  0  0  0  0  0  0  0  0  0  0  0
   40.7150   30.3310   42.4000 C   0  0  0  0  0  0  0  0  0  0  0  0
   39.7250   29.8770   41.5940 C   0  0  0  0  0  0  0  0  0  0  0  0
   38.4740   29.6240   42.1270 C   0  0  0  0  0  0  0  0  0  0  0  0
   41.2330   30.8990   44.4270 H   0  0  0  0  0  0  0  0  0  0  0  0
   41.7150   30.5490   42.0510 H   0  0  0  0  0  0  0  0  0  0  0  0
   39.9230   29.7180   40.5470 H   0  0  0  0  0  0  0  0  0  0  0  0
   37.3690   29.1250   41.2700 C   0  0  0  0  0  0  0  0  0  0  0  0
   36.5840   30.0290   40.5610 C   0  0  0  0  0  0  0  0  0  0  0  0
   36.5730   31.1250   40.4650 H   0  0  0  0  0  0  0  0  0  0  0  0
   35.3660   28.8950   39.6630 S   0  0  0  0  0  0  0  0  0  0  0  0
   36.2060   27.3960   40.4640 C   0  0  0  0  0  0  0  0  0  0  0  0
   36.0660   26.2090   40.4460 H   0  0  0  0  0  0  0  0  0  0  0  0
   37.0180   27.8620   41.0860 N   0  0  0  0  0  0  0  0  0  0  0  0
   38.8580   30.4550   45.6180 O   0  0  0  0  0  0  0  0  0  0  0  0
   39.4440   32.4770   47.1110 O   0  0  0  0  0  0  0  0  0  0  0  0
   38.3040   31.8240   46.4120 P   0  0  1  0  0  0  0  0  0  0  0  0
   37.7290   32.8460   45.1710 O   0  0  0  0  0  0  0  0  0  0  0  0
   38.5220   33.3030   44.7650 H   0  0  0  0  0  0  0  0  0  0  0  0
   37.0220   31.3980   47.4350 O   0  0  0  0  0  0  0  0  0  0  0  0
   37.6120   30.5330   50.9770 C   0  0  0  0  0  0  0  0  0  0  0  0
   37.7060   31.3020   49.8180 C   0  0  0  0  0  0  0  0  0  0  0  0
   37.0700   30.8330   48.6610 C   0  0  0  0  0  0  0  0  0  0  0  0
   36.3930   29.6490   48.7390 N   0  0  0  0  0  0  0  0  0  0  0  0
   36.3240   28.9330   49.8800 C   0  0  0  0  0  0  0  0  0  0  0  0
   36.9320   29.3760   50.9940 N   0  0  0  0  0  0  0  0  0  0  0  0
   38.1320   30.9850   51.7940 H   0  0  0  0  0  0  0  0  0  0  0  0
   38.2120   32.2280   49.6840 H   0  0  0  0  0  0  0  0  0  0  0  0
   35.7880   27.9950   49.9400 H   0  0  0  0  0  0  0  0  0  0  0  0
  2  1  1  0  0  0  0
  2  3  1  0  0  0  0
  3 18  1  0  0  0  0
  4  3  2  0  0  0  0
  4  8  1  0  0  0  0
  5  4  1  0  0  0  0
  6  7  1  0  0  0  0
  6  5  2  0  0  0  0
  7  2  2  0  0  0  0
  9  5  1  0  0  0  0
 10  6  1  0  0  0  0
 11  7  1  0  0  0  0
 12 11  2  0  0  0  0
 13 12  1  0  0  0  0
 14 15  1  0  0  0  0
 14 12  1  0  0  0  0
 15 17  2  0  0  0  0
 16 15  1  0  0  0  0
 17 11  1  0  0  0  0
 18 20  1  0  0  0  0
 20 19  2  1  0  0  0
 20 23  1  0  0  0  0
 21 20  1  0  0  0  0
 22 21  1  0  0  0  0
 23 26  1  0  0  0  0
 24 29  1  0  0  0  0
 24 30  1  0  0  0  0
 25 24  2  0  0  0  0
 26 27  2  0  0  0  0
 26 25  1  0  0  0  0
 27 28  1  0  0  0  0
 28 32  1  0  0  0  0
 28 29  2  0  0  0  0
 31 25  1  0  0  0  0
M  END
>  <minimizedAffinity>
-4.80130959

>  <minimizedRMSD>
0.155329645

$$$$
