
 OpenBabel03272506473D

 40 43  0  0  1  0  0  0  0  0999 V2000
   31.9970   28.3850   47.4900 C   0  0  2  0  0  0  0  0  0  0  0  0
   33.2560   28.1680   48.2730 C   0  0  1  0  0  0  0  0  0  0  0  0
   33.5960   26.8540   48.1740 O   0  0  0  0  0  0  0  0  0  0  0  0
   32.8370   26.2600   47.1710 C   0  0  0  0  0  0  0  0  0  0  0  0
   32.2610   27.3740   46.3280 C   0  0  1  0  0  0  0  0  0  0  0  0
   31.0710   28.1380   47.9930 H   0  0  0  0  0  0  0  0  0  0  0  0
   33.0880   28.5260   49.3060 H   0  0  0  0  0  0  0  0  0  0  0  0
   32.1220   25.6170   47.6630 H   0  0  0  0  0  0  0  0  0  0  0  0
   33.5500   25.6760   46.5330 H   0  0  0  0  0  0  0  0  0  0  0  0
   32.9850   27.8600   45.6840 H   0  0  0  0  0  0  0  0  0  0  0  0
   31.9600   29.6920   46.9610 O   0  0  0  0  0  0  0  0  0  0  0  0
   32.3500   29.7340   46.0580 H   0  0  0  0  0  0  0  0  0  0  0  0
   34.5850   29.1620   47.4870 S   0  0  0  0  0  0  0  0  0  0  0  0
   36.9930   29.2520   50.6330 C   0  0  0  0  0  0  0  0  0  0  0  0
   37.4000   30.5860   50.7340 C   0  0  0  0  0  0  0  0  0  0  0  0
   36.9100   31.4960   49.7900 C   0  0  0  0  0  0  0  0  0  0  0  0
   36.0690   31.0360   48.8290 N   0  0  0  0  0  0  0  0  0  0  0  0
   35.6980   29.7400   48.7620 C   0  0  0  0  0  0  0  0  0  0  0  0
   36.1540   28.8310   49.6610 N   0  0  0  0  0  0  0  0  0  0  0  0
   37.3870   28.5700   51.3740 H   0  0  0  0  0  0  0  0  0  0  0  0
   38.0710   30.9460   51.5020 H   0  0  0  0  0  0  0  0  0  0  0  0
   37.1620   32.5470   49.7800 H   0  0  0  0  0  0  0  0  0  0  0  0
   31.0780   26.9470   45.7740 O   0  0  0  0  0  0  0  0  0  0  0  0
   29.8970   29.2080   44.3100 Cl  0  0  0  0  0  0  0  0  0  0  0  0
   29.2010   28.2720   45.6150 C   0  0  0  0  0  0  0  0  0  0  0  0
   29.8550   27.2210   46.2110 C   0  0  0  0  0  0  0  0  0  0  0  0
   29.1860   26.5250   47.2200 C   0  0  0  0  0  0  0  0  0  0  0  0
   27.9130   26.8890   47.5990 C   0  0  0  0  0  0  0  0  0  0  0  0
   27.2510   27.9430   47.0050 C   0  0  0  0  0  0  0  0  0  0  0  0
   27.9200   28.6460   45.9890 C   0  0  0  0  0  0  0  0  0  0  0  0
   29.6010   25.6850   47.7480 H   0  0  0  0  0  0  0  0  0  0  0  0
   27.3640   26.3760   48.3730 H   0  0  0  0  0  0  0  0  0  0  0  0
   26.2580   28.2190   47.3060 H   0  0  0  0  0  0  0  0  0  0  0  0
   27.2620   29.7750   45.3290 C   0  0  0  0  0  0  0  0  0  0  0  0
   27.2910   31.0470   45.8870 C   0  0  0  0  0  0  0  0  0  0  0  0
   27.7600   31.4680   46.8490 H   0  0  0  0  0  0  0  0  0  0  0  0
   26.3210   32.1230   44.6770 S   0  0  0  0  0  0  0  0  0  0  0  0
   26.0580   30.5790   43.6150 C   0  0  0  0  0  0  0  0  0  0  0  0
   25.5110   30.2570   42.5590 H   0  0  0  0  0  0  0  0  0  0  0  0
   26.5920   29.7750   44.1950 N   0  0  0  0  0  0  0  0  0  0  0  0
  1  6  1  1  0  0  0
  1  2  1  0  0  0  0
  2  7  1  1  0  0  0
  3  2  1  0  0  0  0
  4  8  1  0  0  0  0
  4  3  1  0  0  0  0
  5 10  1  6  0  0  0
  5  4  1  0  0  0  0
  5  1  1  0  0  0  0
  9  4  1  0  0  0  0
 11  1  1  0  0  0  0
 12 11  1  0  0  0  0
 13  2  1  0  0  0  0
 13 18  1  0  0  0  0
 14 15  1  0  0  0  0
 14 20  1  0  0  0  0
 15 21  1  0  0  0  0
 16 15  2  0  0  0  0
 17 16  1  0  0  0  0
 18 17  2  0  0  0  0
 18 19  1  0  0  0  0
 19 14  2  0  0  0  0
 22 16  1  0  0  0  0
 23 26  1  0  0  0  0
 23  5  1  0  0  0  0
 24 25  1  0  0  0  0
 25 30  2  0  0  0  0
 25 26  1  0  0  0  0
 26 27  2  0  0  0  0
 27 28  1  0  0  0  0
 27 31  1  0  0  0  0
 28 32  1  0  0  0  0
 29 33  1  0  0  0  0
 29 28  2  0  0  0  0
 30 29  1  0  0  0  0
 34 35  2  0  0  0  0
 34 30  1  0  0  0  0
 35 36  1  0  0  0  0
 37 35  1  0  0  0  0
 38 40  2  0  0  0  0
 38 37  1  0  0  0  0
 39 38  1  0  0  0  0
 40 34  1  0  0  0  0
M  END
>  <minimizedAffinity>
-5.17639542

>  <minimizedRMSD>
0.375766575

$$$$
