
 OpenBabel03272500483D

 37 41  0  0  1  0  0  0  0  0999 V2000
   32.1480   28.3520   47.1070 C   0  0  1  0  0  0  0  0  0  0  0  0
   32.9310   27.1950   46.3960 C   0  0  0  0  0  0  0  0  0  0  0  0
   33.0030   28.6040   45.9310 C   0  0  2  0  0  0  0  0  0  0  0  0
   32.5110   28.6810   48.0790 H   0  0  0  0  0  0  0  0  0  0  0  0
   32.2830   26.4660   45.8990 H   0  0  0  0  0  0  0  0  0  0  0  0
   33.7150   26.7630   47.0500 H   0  0  0  0  0  0  0  0  0  0  0  0
   32.5040   28.7980   44.9510 H   0  0  0  0  0  0  0  0  0  0  0  0
   28.5690   28.6660   47.4240 C   0  0  0  0  0  0  0  0  0  0  0  0
   28.6540   28.0350   46.1940 C   0  0  0  0  0  0  0  0  0  0  0  0
   30.0150   27.8280   45.9010 C   0  0  0  0  0  0  0  0  0  0  0  0
   30.7010   28.3320   46.9480 N   0  0  0  0  0  0  0  0  0  0  0  0
   29.8290   28.8030   47.8000 N   0  0  0  0  0  0  0  0  0  0  0  0
   27.8510   27.7320   45.5320 H   0  0  0  0  0  0  0  0  0  0  0  0
   30.4360   27.3560   45.0100 H   0  0  0  0  0  0  0  0  0  0  0  0
   26.4030   28.0630   48.5350 C   0  0  0  0  0  0  0  0  0  0  0  0
   27.3250   29.0310   48.0370 C   0  0  0  0  0  0  0  0  0  0  0  0
   26.9680   30.3490   48.1700 C   0  0  0  0  0  0  0  0  0  0  0  0
   25.7790   30.6650   48.7570 N   0  0  0  0  0  0  0  0  0  0  0  0
   24.9370   29.7150   49.2140 C   0  0  0  0  0  0  0  0  0  0  0  0
   25.2460   28.3930   49.1050 N   0  0  0  0  0  0  0  0  0  0  0  0
   26.6960   27.0260   48.4250 H   0  0  0  0  0  0  0  0  0  0  0  0
   27.5960   31.1640   47.8250 H   0  0  0  0  0  0  0  0  0  0  0  0
   24.0020   30.0010   49.6740 H   0  0  0  0  0  0  0  0  0  0  0  0
   34.2710   29.3820   46.0960 C   0  0  0  0  0  0  0  0  0  0  0  0
   35.0250   29.9210   45.0660 C   0  0  0  0  0  0  0  0  0  0  0  0
   36.0980   30.5450   45.6190 N   0  0  0  0  0  0  0  0  0  0  0  0
   36.0320   30.4070   46.9730 C   0  0  0  0  0  0  0  0  0  0  0  0
   34.9230   29.7030   47.2330 N   0  0  0  0  0  0  0  0  0  0  0  0
   34.7970   29.8560   44.0070 H   0  0  0  0  0  0  0  0  0  0  0  0
   36.8600   31.0540   45.0870 H   0  0  0  0  0  0  0  0  0  0  0  0
   37.0050   30.9370   47.9580 C   0  0  0  0  0  0  0  0  0  0  0  0
   37.0590   30.4240   49.2690 C   0  0  0  0  0  0  0  0  0  0  0  0
   36.4160   29.6030   49.7070 H   0  0  0  0  0  0  0  0  0  0  0  0
   38.3980   31.4030   50.0510 S   0  0  0  0  0  0  0  0  0  0  0  0
   38.6620   32.3610   48.4320 C   0  0  0  0  0  0  0  0  0  0  0  0
   39.3800   33.2140   48.0900 H   0  0  0  0  0  0  0  0  0  0  0  0
   37.8870   31.8950   47.7500 N   0  0  0  0  0  0  0  0  0  0  0  0
  1  4  1  1  0  0  0
  2  6  1  0  0  0  0
  2  1  1  0  0  0  0
  3  7  1  6  0  0  0
  3 24  1  0  0  0  0
  3  2  1  0  0  0  0
  3  1  1  0  0  0  0
  5  2  1  0  0  0  0
  8 12  2  0  0  0  0
  8 16  1  0  0  0  0
  9  8  1  0  0  0  0
 10  9  2  0  0  0  0
 10 11  1  0  0  0  0
 11  1  1  0  0  0  0
 11 12  1  0  0  0  0
 13  9  1  0  0  0  0
 14 10  1  0  0  0  0
 15 20  1  0  0  0  0
 16 17  1  0  0  0  0
 16 15  2  0  0  0  0
 17 18  2  0  0  0  0
 18 19  1  0  0  0  0
 19 23  1  0  0  0  0
 20 19  2  0  0  0  0
 21 15  1  0  0  0  0
 22 17  1  0  0  0  0
 24 28  1  0  0  0  0
 25 26  1  0  0  0  0
 25 24  2  0  0  0  0
 26 27  1  0  0  0  0
 27 28  2  0  0  0  0
 27 31  1  0  0  0  0
 29 25  1  0  0  0  0
 30 26  1  0  0  0  0
 31 32  2  0  0  0  0
 32 33  1  0  0  0  0
 32 34  1  0  0  0  0
 35 34  1  0  0  0  0
 36 35  1  0  0  0  0
 37 31  1  0  0  0  0
 37 35  2  0  0  0  0
M  END
>  <minimizedAffinity>
-5.41554737

>  <minimizedRMSD>
5.46115541

$$$$
