
     RDKit          3D

 39 43  0  0  0  0  0  0  0  0999 V2000
   37.5518   32.0696   48.5043 C   0  0  1  0  0  0  0  0  0  0  0  0
   38.7899   32.7953   48.8353 C   0  0  0  0  0  0  0  0  0  0  0  0
   38.9222   31.6379   47.9119 C   0  0  2  0  0  0  0  0  0  0  0  0
   39.2892   32.0978   46.5464 C   0  0  0  0  0  0  0  0  0  0  0  0
   39.7491   33.4192   46.5821 C   0  0  0  0  0  0  0  0  0  0  0  0
   40.2289   34.0385   45.4466 C   0  0  0  0  0  0  0  0  0  0  0  0
   40.2667   33.3569   44.2337 C   0  0  0  0  0  0  0  0  0  0  0  0
   39.8102   32.0587   44.2242 C   0  0  0  0  0  0  0  0  0  0  0  0
   39.7839   31.2764   43.0869 C   0  0  0  0  0  0  0  0  0  0  0  0
   39.3180   29.9747   43.0652 C   0  0  0  0  0  0  0  0  0  0  0  0
   38.8491   29.4105   44.2399 C   0  0  0  0  0  0  0  0  0  0  0  0
   38.8705   30.1812   45.3811 C   0  0  0  0  0  0  0  0  0  0  0  0
   39.3408   31.4678   45.3584 C   0  0  0  0  0  0  0  0  0  0  0  0
   35.2971   29.5755   50.2109 C   0  0  0  0  0  0  0  0  0  0  0  0
   35.7986   30.4938   49.2454 C   0  0  0  0  0  0  0  0  0  0  0  0
   37.0084   31.1031   49.4805 C   0  0  0  0  0  0  0  0  0  0  0  0
   37.6380   30.7724   50.6357 N   0  0  0  0  0  0  0  0  0  0  0  0
   37.1645   29.9058   51.5462 C   0  0  0  0  0  0  0  0  0  0  0  0
   35.9720   29.2959   51.3301 N   0  0  0  0  0  0  0  0  0  0  0  0
   36.9024   32.4242   47.7221 H   0  0  0  0  0  0  0  0  0  0  0  0
   39.1773   32.5818   49.8796 H   0  0  0  0  0  0  0  0  0  0  0  0
   38.7230   33.8460   48.6281 H   0  0  0  0  0  0  0  0  0  0  0  0
   39.0368   30.5795   48.0407 H   0  0  0  0  0  0  0  0  0  0  0  0
   39.8722   34.1879   47.3173 H   0  0  0  0  0  0  0  0  0  0  0  0
   40.6138   35.0331   45.3008 H   0  0  0  0  0  0  0  0  0  0  0  0
   40.6069   33.6873   43.2603 H   0  0  0  0  0  0  0  0  0  0  0  0
   40.1487   31.7031   42.1543 H   0  0  0  0  0  0  0  0  0  0  0  0
   39.3116   29.3875   42.1513 H   0  0  0  0  0  0  0  0  0  0  0  0
   38.4709   28.3999   44.2967 H   0  0  0  0  0  0  0  0  0  0  0  0
   38.4908   29.7091   46.3041 H   0  0  0  0  0  0  0  0  0  0  0  0
   34.3447   29.1082   50.0064 H   0  0  0  0  0  0  0  0  0  0  0  0
   35.2011   30.6782   48.3547 H   0  0  0  0  0  0  0  0  0  0  0  0
   38.0154   29.6906   52.7377 C   0  0  0  0  0  0  0  0  0  0  0  0
   37.3127   29.9371   53.8851 C   0  0  0  0  0  0  0  0  0  0  0  0
   36.3058   30.2479   54.2152 H   0  0  0  0  0  0  0  0  0  0  0  0
   38.5016   29.6269   55.2573 S   0  0  0  0  0  0  0  0  0  0  0  0
   39.8252   29.1905   53.9577 C   0  0  0  0  0  0  0  0  0  0  0  0
   41.0031   28.8289   53.6356 H   0  0  0  0  0  0  0  0  0  0  0  0
   39.2483   29.3317   53.0061 N   0  0  0  0  0  0  0  0  0  0  0  0
  1  2  1  0
  1 16  1  0
  3  1  1  0
  3  2  1  0
  4  5  2  0
  4  3  1  0
  6  5  1  0
  7  6  2  0
  8  7  1  0
  8 13  2  0
  9  8  1  0
 10  9  2  0
 10 11  1  0
 11 12  2  0
 13 12  1  0
 13  4  1  0
 14 19  2  0
 15 16  2  0
 15 14  1  0
 16 17  1  0
 17 18  2  0
 19 18  1  0
  1 20  1  6
  2 21  1  0
  2 22  1  0
  3 23  1  1
  5 24  1  0
  6 25  1  0
  7 26  1  0
  9 27  1  0
 10 28  1  0
 11 29  1  0
 12 30  1  0
 14 31  1  0
 15 32  1  0
 33 34  2  0
 34 35  1  0
 34 36  1  0
 36 37  1  0
 37 38  1  0
 37 39  2  0
 39 33  1  0
 18 33  1  0
M  ISO  8  20  13  21  13  22  13  23  13  24  14  25  14  26  14  27  14
M  ISO  7  28  14  29  14  30  14  31  14  32  14  35  15  38  16
M  END
>  <DihAtoms>  (1) 
16,17,32,33

>  <DihDeg>  (1) 
124.69175679089528

$$$$
