
 OpenBabel03272510213D

 34 37  0  0  0  0  0  0  0  0999 V2000
   37.4370   29.1520   50.8210 Br  0  0  0  0  0  0  0  0  0  0  0  0
   36.0420   29.3030   49.5340 C   0  0  0  0  0  0  0  0  0  0  0  0
   36.0350   30.3400   48.6090 C   0  0  0  0  0  0  0  0  0  0  0  0
   34.9950   30.3820   47.7120 C   0  0  0  0  0  0  0  0  0  0  0  0
   33.9680   29.4570   47.6840 C   0  0  0  0  0  0  0  0  0  0  0  0
   34.0080   28.4440   48.6160 C   0  0  0  0  0  0  0  0  0  0  0  0
   35.0390   28.3770   49.5280 C   0  0  0  0  0  0  0  0  0  0  0  0
   34.9470   31.1690   46.9740 H   0  0  0  0  0  0  0  0  0  0  0  0
   33.2340   27.6850   48.6510 H   0  0  0  0  0  0  0  0  0  0  0  0
   35.0330   27.5630   50.2460 H   0  0  0  0  0  0  0  0  0  0  0  0
   38.0100   33.2410   49.5800 C   0  0  0  0  0  0  0  0  0  0  0  0
   39.0670   33.2490   48.6320 C   0  0  0  0  0  0  0  0  0  0  0  0
   39.0800   32.2580   47.6770 C   0  0  0  0  0  0  0  0  0  0  0  0
   38.0880   31.3270   47.6900 N   0  0  0  0  0  0  0  0  0  0  0  0
   37.0890   31.3330   48.5990 C   0  0  0  0  0  0  0  0  0  0  0  0
   37.0640   32.3010   49.5420 N   0  0  0  0  0  0  0  0  0  0  0  0
   38.0630   34.0470   50.2990 H   0  0  0  0  0  0  0  0  0  0  0  0
   39.8690   33.9610   48.5830 H   0  0  0  0  0  0  0  0  0  0  0  0
   39.7810   32.0960   46.8900 H   0  0  0  0  0  0  0  0  0  0  0  0
   32.8750   29.5010   46.7420 C   0  0  0  0  0  0  0  0  0  0  0  0
   32.0750   28.4210   46.4090 C   0  0  0  0  0  0  0  0  0  0  0  0
   31.0350   28.4920   45.5030 C   0  0  0  0  0  0  0  0  0  0  0  0
   30.7810   29.6720   44.9100 N   0  0  0  0  0  0  0  0  0  0  0  0
   31.5450   30.7300   45.2190 C   0  0  0  0  0  0  0  0  0  0  0  0
   32.5530   30.6340   46.1060 N   0  0  0  0  0  0  0  0  0  0  0  0
   32.2870   27.4620   46.8980 H   0  0  0  0  0  0  0  0  0  0  0  0
   30.4800   27.5900   45.3210 H   0  0  0  0  0  0  0  0  0  0  0  0
   31.1800   31.9600   44.5140 C   0  0  0  0  0  0  0  0  0  0  0  0
   30.1300   31.6670   43.5480 C   0  0  0  0  0  0  0  0  0  0  0  0
   29.5560   30.8020   43.2150 H   0  0  0  0  0  0  0  0  0  0  0  0
   29.8030   33.3510   42.7560 S   0  0  0  0  0  0  0  0  0  0  0  0
   31.1390   34.1050   43.8800 C   0  0  0  0  0  0  0  0  0  0  0  0
   31.7300   35.1150   44.1900 H   0  0  0  0  0  0  0  0  0  0  0  0
   31.5050   33.2360   44.4850 N   0  0  0  0  0  0  0  0  0  0  0  0
  2  1  1  0  0  0  0
  3  2  2  0  0  0  0
  4  3  1  0  0  0  0
  5  4  2  0  0  0  0
  5  6  1  0  0  0  0
  6  9  1  0  0  0  0
  6  7  2  0  0  0  0
  7  2  1  0  0  0  0
  7 10  1  0  0  0  0
  8  4  1  0  0  0  0
 11 17  1  0  0  0  0
 12 11  2  0  0  0  0
 13 14  2  0  0  0  0
 13 12  1  0  0  0  0
 14 15  1  0  0  0  0
 15  3  1  0  0  0  0
 15 16  2  0  0  0  0
 16 11  1  0  0  0  0
 18 12  1  0  0  0  0
 19 13  1  0  0  0  0
 20  5  1  0  0  0  0
 21 20  1  0  0  0  0
 21 26  1  0  0  0  0
 22 21  2  0  0  0  0
 23 24  2  0  0  0  0
 23 22  1  0  0  0  0
 24 25  1  0  0  0  0
 25 20  2  0  0  0  0
 27 22  1  0  0  0  0
 28 24  1  0  0  0  0
 29 28  2  0  0  0  0
 30 29  1  0  0  0  0
 31 29  1  0  0  0  0
 31 32  1  0  0  0  0
 32 33  1  0  0  0  0
 32 34  2  0  0  0  0
 34 28  1  0  0  0  0
M  END
>  <minimizedAffinity>
-6.34695053

>  <minimizedRMSD>
0.367831856

$$$$
