
 OpenBabel03272508123D

 32 34  0  0  0  0  0  0  0  0999 V2000
   36.6530   29.4590   44.0540 Cl  0  0  0  0  0  0  0  0  0  0  0  0
   38.3150   29.8240   43.5210 C   0  0  0  0  0  0  0  0  0  0  0  0
   39.3000   30.3020   44.3680 C   0  0  0  0  0  0  0  0  0  0  0  0
   40.5360   30.5370   43.8070 C   0  0  0  0  0  0  0  0  0  0  0  0
   40.7980   30.3170   42.4820 C   0  0  0  0  0  0  0  0  0  0  0  0
   39.8310   29.8490   41.6570 C   0  0  0  0  0  0  0  0  0  0  0  0
   38.5680   29.5930   42.1610 C   0  0  0  0  0  0  0  0  0  0  0  0
   41.2620   30.9080   44.5160 H   0  0  0  0  0  0  0  0  0  0  0  0
   41.8040   30.5380   42.1560 H   0  0  0  0  0  0  0  0  0  0  0  0
   40.0550   29.6820   40.6160 H   0  0  0  0  0  0  0  0  0  0  0  0
   37.4870   29.0800   41.2830 C   0  0  0  0  0  0  0  0  0  0  0  0
   37.3930   27.7160   41.0280 C   0  0  0  0  0  0  0  0  0  0  0  0
   37.9740   26.8350   41.3430 H   0  0  0  0  0  0  0  0  0  0  0  0
   35.8890   27.6160   39.8870 S   0  0  0  0  0  0  0  0  0  0  0  0
   35.7040   29.4980   40.0030 C   0  0  0  0  0  0  0  0  0  0  0  0
   34.9650   30.3290   39.5610 H   0  0  0  0  0  0  0  0  0  0  0  0
   36.5520   29.7960   40.6780 N   0  0  0  0  0  0  0  0  0  0  0  0
   38.8620   30.4610   45.6520 O   0  0  0  0  0  0  0  0  0  0  0  0
   39.4440   32.5050   47.1160 O   0  0  0  0  0  0  0  0  0  0  0  0
   38.3060   31.8410   46.4270 P   0  0  1  0  0  0  0  0  0  0  0  0
   37.7270   32.8440   45.1720 O   0  0  0  0  0  0  0  0  0  0  0  0
   38.5200   33.2960   44.7590 H   0  0  0  0  0  0  0  0  0  0  0  0
   37.0250   31.4270   47.4570 O   0  0  0  0  0  0  0  0  0  0  0  0
   37.6150   30.5260   50.9900 C   0  0  0  0  0  0  0  0  0  0  0  0
   37.7100   31.3070   49.8380 C   0  0  0  0  0  0  0  0  0  0  0  0
   37.0730   30.8500   48.6770 C   0  0  0  0  0  0  0  0  0  0  0  0
   36.3960   29.6650   48.7430 N   0  0  0  0  0  0  0  0  0  0  0  0
   36.3270   28.9370   49.8760 C   0  0  0  0  0  0  0  0  0  0  0  0
   36.9350   29.3690   50.9950 N   0  0  0  0  0  0  0  0  0  0  0  0
   38.1360   30.9690   51.8100 H   0  0  0  0  0  0  0  0  0  0  0  0
   38.2150   32.2330   49.7130 H   0  0  0  0  0  0  0  0  0  0  0  0
   35.7900   27.9990   49.9270 H   0  0  0  0  0  0  0  0  0  0  0  0
  2  1  1  0  0  0  0
  2  3  1  0  0  0  0
  3 18  1  0  0  0  0
  4  3  2  0  0  0  0
  4  8  1  0  0  0  0
  5  4  1  0  0  0  0
  6  7  1  0  0  0  0
  6  5  2  0  0  0  0
  7  2  2  0  0  0  0
  9  5  1  0  0  0  0
 10  6  1  0  0  0  0
 11  7  1  0  0  0  0
 12 11  2  0  0  0  0
 12 13  1  0  0  0  0
 14 15  1  0  0  0  0
 14 12  1  0  0  0  0
 15 17  2  0  0  0  0
 16 15  1  0  0  0  0
 17 11  1  0  0  0  0
 18 20  1  0  0  0  0
 20 19  2  1  0  0  0
 20 23  1  0  0  0  0
 21 20  1  0  0  0  0
 22 21  1  0  0  0  0
 23 26  1  0  0  0  0
 24 29  1  0  0  0  0
 24 30  1  0  0  0  0
 25 24  2  0  0  0  0
 26 27  2  0  0  0  0
 26 25  1  0  0  0  0
 27 28  1  0  0  0  0
 28 32  1  0  0  0  0
 28 29  2  0  0  0  0
 31 25  1  0  0  0  0
M  END
>  <minimizedAffinity>
-4.79364586

>  <minimizedRMSD>
0.4075028

$$$$
