
 OpenBabel03272508553D

 36 39  0  0  1  0  0  0  0  0999 V2000
   36.9570   26.8800   32.9680 C   0  0  0  0  0  0  0  0  0  0  0  0
   37.0920   26.3510   34.0880 O   0  0  0  0  0  0  0  0  0  0  0  0
   37.2710   26.1460   31.7570 N   0  0  0  0  0  0  0  0  0  0  0  0
   37.3570   26.5750   30.8150 H   0  0  0  0  0  0  0  0  0  0  0  0
   36.4720   28.2740   32.8030 C   0  0  0  0  0  0  0  0  0  0  0  0
   36.6140   28.8900   31.5890 C   0  0  0  0  0  0  0  0  0  0  0  0
   36.1560   30.1960   31.4970 C   0  0  0  0  0  0  0  0  0  0  0  0
   35.5990   30.7860   32.6000 C   0  0  0  0  0  0  0  0  0  0  0  0
   35.4560   30.1610   33.8240 C   0  0  0  0  0  0  0  0  0  0  0  0
   35.9160   28.9080   33.8460 N   0  0  0  0  0  0  0  0  0  0  0  0
   37.0580   28.4060   30.7290 H   0  0  0  0  0  0  0  0  0  0  0  0
   36.2190   30.7780   30.5850 H   0  0  0  0  0  0  0  0  0  0  0  0
   35.2340   31.8230   32.5270 H   0  0  0  0  0  0  0  0  0  0  0  0
   34.8680   30.7560   35.0150 C   0  0  0  0  0  0  0  0  0  0  0  0
   33.5160   30.5030   35.2690 C   0  0  0  0  0  0  0  0  0  0  0  0
   32.6680   29.9210   34.7780 H   0  0  0  0  0  0  0  0  0  0  0  0
   33.1930   31.4480   36.8710 S   0  0  0  0  0  0  0  0  0  0  0  0
   35.0080   32.0040   36.8620 C   0  0  0  0  0  0  0  0  0  0  0  0
   35.7380   32.6800   37.5480 H   0  0  0  0  0  0  0  0  0  0  0  0
   35.4090   31.5240   35.9340 N   0  0  0  0  0  0  0  0  0  0  0  0
   36.5470   23.8190   31.2450 C   0  0  2  0  0  0  0  0  0  0  0  0
   37.8340   24.0190   30.5610 C   0  0  0  0  0  0  0  0  0  0  0  0
   37.4760   24.7130   31.8930 C   0  0  1  0  0  0  0  0  0  0  0  0
   35.6680   24.2100   30.6940 H   0  0  0  0  0  0  0  0  0  0  0  0
   37.8590   24.6460   29.6520 H   0  0  0  0  0  0  0  0  0  0  0  0
   38.6220   23.2420   30.5780 H   0  0  0  0  0  0  0  0  0  0  0  0
   38.1330   24.3640   32.7270 H   0  0  0  0  0  0  0  0  0  0  0  0
   36.4580   21.0480   33.7080 C   0  0  0  0  0  0  0  0  0  0  0  0
   35.5500   20.1340   33.1020 C   0  0  0  0  0  0  0  0  0  0  0  0
   34.9820   20.5020   31.8240 C   0  0  0  0  0  0  0  0  0  0  0  0
   35.3360   21.6920   31.2620 N   0  0  0  0  0  0  0  0  0  0  0  0
   36.2120   22.5120   31.9060 C   0  0  0  0  0  0  0  0  0  0  0  0
   36.7900   22.2220   33.1250 N   0  0  0  0  0  0  0  0  0  0  0  0
   36.8540   20.7280   34.6580 H   0  0  0  0  0  0  0  0  0  0  0  0
   35.2980   19.2090   33.5770 H   0  0  0  0  0  0  0  0  0  0  0  0
   34.2940   19.8180   31.3570 H   0  0  0  0  0  0  0  0  0  0  0  0
  1  2  2  0  0  0  0
  3 23  1  0  0  0  0
  3  1  1  0  0  0  0
  4  3  1  0  0  0  0
  5  1  1  0  0  0  0
  5 10  1  0  0  0  0
  6  5  2  0  0  0  0
  7  6  1  0  0  0  0
  7  8  2  0  0  0  0
  8  9  1  0  0  0  0
  9 10  2  0  0  0  0
  9 14  1  0  0  0  0
 11  6  1  0  0  0  0
 12  7  1  0  0  0  0
 13  8  1  0  0  0  0
 14 15  2  0  0  0  0
 14 20  1  0  0  0  0
 15 17  1  0  0  0  0
 16 15  1  0  0  0  0
 18 17  1  0  0  0  0
 18 19  1  0  0  0  0
 20 18  2  0  0  0  0
 21 24  1  6  0  0  0
 21 23  1  0  0  0  0
 21 32  1  0  0  0  0
 22 26  1  0  0  0  0
 22 21  1  0  0  0  0
 22 23  1  0  0  0  0
 23 27  1  1  0  0  0
 25 22  1  0  0  0  0
 28 34  1  0  0  0  0
 29 35  1  0  0  0  0
 29 28  2  0  0  0  0
 30 29  1  0  0  0  0
 31 30  2  0  0  0  0
 31 32  1  0  0  0  0
 32 33  2  0  0  0  0
 33 28  1  0  0  0  0
 36 30  1  0  0  0  0
M  END
>  <minimizedAffinity>
-5.33576727

$$$$

 OpenBabel03272508553D

 36 39  0  0  1  0  0  0  0  0999 V2000
   37.8220   25.0850   35.0750 C   0  0  0  0  0  0  0  0  0  0  0  0
   37.2090   26.1630   35.1950 O   0  0  0  0  0  0  0  0  0  0  0  0
   38.0050   24.4750   33.7720 N   0  0  0  0  0  0  0  0  0  0  0  0
   38.3390   23.5040   33.6190 H   0  0  0  0  0  0  0  0  0  0  0  0
   38.3970   24.3660   36.2400 C   0  0  0  0  0  0  0  0  0  0  0  0
   37.7540   24.4310   37.4470 C   0  0  0  0  0  0  0  0  0  0  0  0
   38.3430   23.7520   38.5030 C   0  0  0  0  0  0  0  0  0  0  0  0
   39.5090   23.0680   38.2880 C   0  0  0  0  0  0  0  0  0  0  0  0
   40.1550   23.0040   37.0680 C   0  0  0  0  0  0  0  0  0  0  0  0
   39.5380   23.6770   36.0950 N   0  0  0  0  0  0  0  0  0  0  0  0
   36.8320   24.9780   37.5960 H   0  0  0  0  0  0  0  0  0  0  0  0
   37.9200   23.7370   39.5000 H   0  0  0  0  0  0  0  0  0  0  0  0
   39.9770   22.5290   39.1260 H   0  0  0  0  0  0  0  0  0  0  0  0
   41.3940   22.2860   36.8040 C   0  0  0  0  0  0  0  0  0  0  0  0
   42.3520   22.9170   36.0030 C   0  0  0  0  0  0  0  0  0  0  0  0
   42.4580   23.9080   35.4500 H   0  0  0  0  0  0  0  0  0  0  0  0
   43.7540   21.6550   35.9310 S   0  0  0  0  0  0  0  0  0  0  0  0
   42.7220   20.5050   37.0320 C   0  0  0  0  0  0  0  0  0  0  0  0
   42.8310   19.4080   37.5280 H   0  0  0  0  0  0  0  0  0  0  0  0
   41.7880   21.0980   37.2030 N   0  0  0  0  0  0  0  0  0  0  0  0
   38.5450   26.4280   32.3220 C   0  0  2  0  0  0  0  0  0  0  0  0
   38.7700   25.2230   31.5060 C   0  0  0  0  0  0  0  0  0  0  0  0
   37.6950   25.2980   32.6140 C   0  0  1  0  0  0  0  0  0  0  0  0
   39.3880   26.6940   32.9900 H   0  0  0  0  0  0  0  0  0  0  0  0
   39.6640   24.6080   31.7080 H   0  0  0  0  0  0  0  0  0  0  0  0
   38.4270   25.1670   30.4560 H   0  0  0  0  0  0  0  0  0  0  0  0
   36.6640   25.2220   32.1890 H   0  0  0  0  0  0  0  0  0  0  0  0
   36.3880   29.4100   31.8670 C   0  0  0  0  0  0  0  0  0  0  0  0
   36.8660   29.9440   30.6360 C   0  0  0  0  0  0  0  0  0  0  0  0
   37.9420   29.2400   29.9740 C   0  0  0  0  0  0  0  0  0  0  0  0
   38.4460   28.1110   30.5490 N   0  0  0  0  0  0  0  0  0  0  0  0
   37.9330   27.6650   31.7290 C   0  0  0  0  0  0  0  0  0  0  0  0
   36.9080   28.2880   32.4120 N   0  0  0  0  0  0  0  0  0  0  0  0
   35.5860   29.9700   32.3190 H   0  0  0  0  0  0  0  0  0  0  0  0
   36.4430   30.8320   30.2180 H   0  0  0  0  0  0  0  0  0  0  0  0
   38.3110   29.6350   29.0420 H   0  0  0  0  0  0  0  0  0  0  0  0
  1  2  2  0  0  0  0
  1  5  1  0  0  0  0
  3  1  1  0  0  0  0
  4  3  1  0  0  0  0
  5  6  1  0  0  0  0
  6 11  1  0  0  0  0
  6  7  2  0  0  0  0
  7 12  1  0  0  0  0
  8  7  1  0  0  0  0
  8 13  1  0  0  0  0
  9  8  2  0  0  0  0
 10  5  2  0  0  0  0
 10  9  1  0  0  0  0
 14  9  1  0  0  0  0
 14 20  1  0  0  0  0
 15 14  2  0  0  0  0
 16 15  1  0  0  0  0
 17 15  1  0  0  0  0
 17 18  1  0  0  0  0
 18 20  2  0  0  0  0
 18 19  1  0  0  0  0
 21 23  1  0  0  0  0
 21 24  1  1  0  0  0
 22 25  1  0  0  0  0
 22 21  1  0  0  0  0
 22 23  1  0  0  0  0
 23 27  1  6  0  0  0
 23  3  1  0  0  0  0
 26 22  1  0  0  0  0
 28 34  1  0  0  0  0
 28 33  1  0  0  0  0
 29 28  2  0  0  0  0
 30 31  2  0  0  0  0
 30 29  1  0  0  0  0
 31 32  1  0  0  0  0
 32 21  1  0  0  0  0
 32 33  2  0  0  0  0
 35 29  1  0  0  0  0
 36 30  1  0  0  0  0
M  END
>  <minimizedAffinity>
-5.17616081

$$$$

 OpenBabel03272508553D

 36 39  0  0  1  0  0  0  0  0999 V2000
   37.6910   27.1620   33.9840 C   0  0  0  0  0  0  0  0  0  0  0  0
   38.3600   27.2970   35.0260 O   0  0  0  0  0  0  0  0  0  0  0  0
   37.9030   26.0270   33.1070 N   0  0  0  0  0  0  0  0  0  0  0  0
   37.5180   25.9460   32.1460 H   0  0  0  0  0  0  0  0  0  0  0  0
   36.6470   28.1390   33.5800 C   0  0  0  0  0  0  0  0  0  0  0  0
   36.2660   28.2010   32.2670 C   0  0  0  0  0  0  0  0  0  0  0  0
   35.2980   29.1410   31.9450 C   0  0  0  0  0  0  0  0  0  0  0  0
   34.7870   29.9380   32.9340 C   0  0  0  0  0  0  0  0  0  0  0  0
   35.1740   29.8710   34.2590 C   0  0  0  0  0  0  0  0  0  0  0  0
   36.1070   28.9480   34.5020 N   0  0  0  0  0  0  0  0  0  0  0  0
   36.6820   27.5620   31.5000 H   0  0  0  0  0  0  0  0  0  0  0  0
   34.9230   29.2760   30.9380 H   0  0  0  0  0  0  0  0  0  0  0  0
   34.0180   30.6840   32.6790 H   0  0  0  0  0  0  0  0  0  0  0  0
   34.6520   30.7000   35.3360 C   0  0  0  0  0  0  0  0  0  0  0  0
   33.2850   30.6160   35.6160 C   0  0  0  0  0  0  0  0  0  0  0  0
   32.3830   30.0440   35.2180 H   0  0  0  0  0  0  0  0  0  0  0  0
   33.0610   31.8310   37.0450 S   0  0  0  0  0  0  0  0  0  0  0  0
   34.9190   32.2080   36.9620 C   0  0  0  0  0  0  0  0  0  0  0  0
   35.7140   32.9140   37.5380 H   0  0  0  0  0  0  0  0  0  0  0  0
   35.2680   31.5510   36.1250 N   0  0  0  0  0  0  0  0  0  0  0  0
   38.1210   24.0350   34.5870 C   0  0  2  0  0  0  0  0  0  0  0  0
   38.2050   23.5420   33.2030 C   0  0  0  0  0  0  0  0  0  0  0  0
   38.7130   24.9370   33.6290 C   0  0  1  0  0  0  0  0  0  0  0  0
   37.0880   24.1930   34.9560 H   0  0  0  0  0  0  0  0  0  0  0  0
   37.2820   23.5000   32.5990 H   0  0  0  0  0  0  0  0  0  0  0  0
   38.9570   22.7870   32.9060 H   0  0  0  0  0  0  0  0  0  0  0  0
   39.8220   25.0210   33.5180 H   0  0  0  0  0  0  0  0  0  0  0  0
   39.3710   23.0690   37.9420 C   0  0  0  0  0  0  0  0  0  0  0  0
   40.5630   22.3550   37.6260 C   0  0  0  0  0  0  0  0  0  0  0  0
   40.9180   22.2290   36.2300 C   0  0  0  0  0  0  0  0  0  0  0  0
   40.1070   22.7890   35.2890 N   0  0  0  0  0  0  0  0  0  0  0  0
   38.9840   23.4570   35.6720 C   0  0  0  0  0  0  0  0  0  0  0  0
   38.5880   23.6150   36.9850 N   0  0  0  0  0  0  0  0  0  0  0  0
   39.1520   23.1350   38.9950 H   0  0  0  0  0  0  0  0  0  0  0  0
   41.1720   21.9300   38.3950 H   0  0  0  0  0  0  0  0  0  0  0  0
   41.8170   21.6910   35.9810 H   0  0  0  0  0  0  0  0  0  0  0  0
  1  2  2  0  0  0  0
  3 23  1  0  0  0  0
  3  1  1  0  0  0  0
  4  3  1  0  0  0  0
  5  1  1  0  0  0  0
  5 10  1  0  0  0  0
  6  5  2  0  0  0  0
  7  6  1  0  0  0  0
  7  8  2  0  0  0  0
  8  9  1  0  0  0  0
  9 10  2  0  0  0  0
  9 14  1  0  0  0  0
 11  6  1  0  0  0  0
 12  7  1  0  0  0  0
 13  8  1  0  0  0  0
 14 15  2  0  0  0  0
 14 20  1  0  0  0  0
 15 17  1  0  0  0  0
 16 15  1  0  0  0  0
 18 17  1  0  0  0  0
 18 19  1  0  0  0  0
 20 18  2  0  0  0  0
 21 24  1  1  0  0  0
 21 32  1  0  0  0  0
 22 23  1  0  0  0  0
 22 21  1  0  0  0  0
 23 27  1  1  0  0  0
 23 21  1  0  0  0  0
 25 22  1  0  0  0  0
 26 22  1  0  0  0  0
 28 34  1  0  0  0  0
 29 28  1  0  0  0  0
 29 35  1  0  0  0  0
 30 29  2  0  0  0  0
 31 32  2  0  0  0  0
 31 30  1  0  0  0  0
 32 33  1  0  0  0  0
 33 28  2  0  0  0  0
 36 30  1  0  0  0  0
M  END
>  <minimizedAffinity>
-5.13897133

$$$$

 OpenBabel03272508553D

 36 39  0  0  1  0  0  0  0  0999 V2000
   38.9930   26.6930   32.7900 C   0  0  0  0  0  0  0  0  0  0  0  0
   39.5290   27.1670   33.8090 O   0  0  0  0  0  0  0  0  0  0  0  0
   38.9530   25.2600   32.5690 N   0  0  0  0  0  0  0  0  0  0  0  0
   38.6900   24.8100   31.6710 H   0  0  0  0  0  0  0  0  0  0  0  0
   38.3680   27.5510   31.7500 C   0  0  0  0  0  0  0  0  0  0  0  0
   38.9830   27.6780   30.5340 C   0  0  0  0  0  0  0  0  0  0  0  0
   38.3620   28.5020   29.6070 C   0  0  0  0  0  0  0  0  0  0  0  0
   37.1950   29.1310   29.9500 C   0  0  0  0  0  0  0  0  0  0  0  0
   36.5770   28.9990   31.1790 C   0  0  0  0  0  0  0  0  0  0  0  0
   37.2240   28.1940   32.0240 N   0  0  0  0  0  0  0  0  0  0  0  0
   39.9060   27.1730   30.2820 H   0  0  0  0  0  0  0  0  0  0  0  0
   38.7610   28.6750   28.6150 H   0  0  0  0  0  0  0  0  0  0  0  0
   36.7010   29.7850   29.2150 H   0  0  0  0  0  0  0  0  0  0  0  0
   35.3370   29.6510   31.5770 C   0  0  0  0  0  0  0  0  0  0  0  0
   34.5850   29.0510   32.5930 C   0  0  0  0  0  0  0  0  0  0  0  0
   34.6610   28.1270   33.2550 H   0  0  0  0  0  0  0  0  0  0  0  0
   33.1040   30.2080   32.7740 S   0  0  0  0  0  0  0  0  0  0  0  0
   33.8340   31.2930   31.3980 C   0  0  0  0  0  0  0  0  0  0  0  0
   33.5450   32.3120   30.8170 H   0  0  0  0  0  0  0  0  0  0  0  0
   34.7770   30.7520   31.1300 N   0  0  0  0  0  0  0  0  0  0  0  0
   38.2480   23.8940   34.5300 C   0  0  2  0  0  0  0  0  0  0  0  0
   38.8130   22.9570   33.5450 C   0  0  0  0  0  0  0  0  0  0  0  0
   39.3070   24.4130   33.6970 C   0  0  1  0  0  0  0  0  0  0  0  0
   37.1910   24.1710   34.3460 H   0  0  0  0  0  0  0  0  0  0  0  0
   38.2200   22.7130   32.6460 H   0  0  0  0  0  0  0  0  0  0  0  0
   39.4970   22.1440   33.8520 H   0  0  0  0  0  0  0  0  0  0  0  0
   40.3640   24.4520   34.0580 H   0  0  0  0  0  0  0  0  0  0  0  0
   37.8560   24.1160   38.2110 C   0  0  0  0  0  0  0  0  0  0  0  0
   38.9620   23.3500   38.6790 C   0  0  0  0  0  0  0  0  0  0  0  0
   39.8400   22.7670   37.6890 C   0  0  0  0  0  0  0  0  0  0  0  0
   39.5760   22.9730   36.3680 N   0  0  0  0  0  0  0  0  0  0  0  0
   38.4980   23.7200   36.0010 C   0  0  0  0  0  0  0  0  0  0  0  0
   37.6200   24.3030   36.8930 N   0  0  0  0  0  0  0  0  0  0  0  0
   37.2330   24.5280   38.9870 H   0  0  0  0  0  0  0  0  0  0  0  0
   39.1340   23.2120   39.7250 H   0  0  0  0  0  0  0  0  0  0  0  0
   40.6790   22.1860   38.0320 H   0  0  0  0  0  0  0  0  0  0  0  0
  1  2  2  0  0  0  0
  3  1  1  0  0  0  0
  3 23  1  0  0  0  0
  4  3  1  0  0  0  0
  5 10  1  0  0  0  0
  5  1  1  0  0  0  0
  6  5  2  0  0  0  0
  7  8  2  0  0  0  0
  7  6  1  0  0  0  0
  8  9  1  0  0  0  0
  9 14  1  0  0  0  0
  9 10  2  0  0  0  0
 11  6  1  0  0  0  0
 12  7  1  0  0  0  0
 13  8  1  0  0  0  0
 14 15  2  0  0  0  0
 15 17  1  0  0  0  0
 15 16  1  0  0  0  0
 18 17  1  0  0  0  0
 19 18  1  0  0  0  0
 20 18  2  0  0  0  0
 20 14  1  0  0  0  0
 21 24  1  6  0  0  0
 21 32  1  0  0  0  0
 22 23  1  0  0  0  0
 22 26  1  0  0  0  0
 22 21  1  0  0  0  0
 23 27  1  1  0  0  0
 23 21  1  0  0  0  0
 25 22  1  0  0  0  0
 28 29  1  0  0  0  0
 28 34  1  0  0  0  0
 29 35  1  0  0  0  0
 30 36  1  0  0  0  0
 30 29  2  0  0  0  0
 31 30  1  0  0  0  0
 32 31  2  0  0  0  0
 32 33  1  0  0  0  0
 33 28  2  0  0  0  0
M  END
>  <minimizedAffinity>
-5.07063293

$$$$

 OpenBabel03272508553D

 36 39  0  0  1  0  0  0  0  0999 V2000
   36.4560   27.2790   32.8520 C   0  0  0  0  0  0  0  0  0  0  0  0
   35.6460   27.3550   31.9080 O   0  0  0  0  0  0  0  0  0  0  0  0
   36.4830   28.2910   33.8900 N   0  0  0  0  0  0  0  0  0  0  0  0
   37.2390   28.3890   34.5950 H   0  0  0  0  0  0  0  0  0  0  0  0
   37.4300   26.1640   32.9730 C   0  0  0  0  0  0  0  0  0  0  0  0
   38.0670   25.7110   31.8490 C   0  0  0  0  0  0  0  0  0  0  0  0
   38.9550   24.6590   32.0190 C   0  0  0  0  0  0  0  0  0  0  0  0
   39.1440   24.1430   33.2730 C   0  0  0  0  0  0  0  0  0  0  0  0
   38.5000   24.6040   34.4060 C   0  0  0  0  0  0  0  0  0  0  0  0
   37.6600   25.6150   34.1740 N   0  0  0  0  0  0  0  0  0  0  0  0
   37.9030   26.1320   30.8670 H   0  0  0  0  0  0  0  0  0  0  0  0
   39.5120   24.2230   31.2000 H   0  0  0  0  0  0  0  0  0  0  0  0
   39.8500   23.3090   33.4090 H   0  0  0  0  0  0  0  0  0  0  0  0
   38.6780   24.0800   35.7520 C   0  0  0  0  0  0  0  0  0  0  0  0
   37.7430   24.4550   36.7230 C   0  0  0  0  0  0  0  0  0  0  0  0
   36.8080   25.1040   36.7770 H   0  0  0  0  0  0  0  0  0  0  0  0
   38.3510   23.5650   38.2740 S   0  0  0  0  0  0  0  0  0  0  0  0
   39.7830   22.8510   37.2540 C   0  0  0  0  0  0  0  0  0  0  0  0
   40.7320   22.1250   37.4340 H   0  0  0  0  0  0  0  0  0  0  0  0
   39.6020   23.2820   36.2360 N   0  0  0  0  0  0  0  0  0  0  0  0
   35.4510   30.3660   34.8040 C   0  0  2  0  0  0  0  0  0  0  0  0
   35.7170   30.6200   33.3790 C   0  0  0  0  0  0  0  0  0  0  0  0
   35.3660   29.2200   33.9300 C   0  0  1  0  0  0  0  0  0  0  0  0
   36.3270   30.5120   35.4680 H   0  0  0  0  0  0  0  0  0  0  0  0
   36.7590   30.7920   33.0570 H   0  0  0  0  0  0  0  0  0  0  0  0
   34.9710   31.1240   32.7360 H   0  0  0  0  0  0  0  0  0  0  0  0
   34.3830   28.8600   33.5380 H   0  0  0  0  0  0  0  0  0  0  0  0
   31.8700   30.9930   35.5350 C   0  0  0  0  0  0  0  0  0  0  0  0
   31.9370   31.7830   36.7190 C   0  0  0  0  0  0  0  0  0  0  0  0
   33.2490   32.0930   37.2430 C   0  0  0  0  0  0  0  0  0  0  0  0
   34.3500   31.6220   36.5920 N   0  0  0  0  0  0  0  0  0  0  0  0
   34.2010   30.8730   35.4640 C   0  0  0  0  0  0  0  0  0  0  0  0
   32.9810   30.5400   34.9110 N   0  0  0  0  0  0  0  0  0  0  0  0
   30.8720   30.7910   35.1850 H   0  0  0  0  0  0  0  0  0  0  0  0
   31.0490   32.1340   37.2000 H   0  0  0  0  0  0  0  0  0  0  0  0
   33.3110   32.6900   38.1370 H   0  0  0  0  0  0  0  0  0  0  0  0
  1  5  1  0  0  0  0
  1  3  1  0  0  0  0
  2  1  2  0  0  0  0
  3 23  1  0  0  0  0
  3  4  1  0  0  0  0
  5 10  1  0  0  0  0
  6  7  1  0  0  0  0
  6  5  2  0  0  0  0
  7  8  2  0  0  0  0
  8 13  1  0  0  0  0
  8  9  1  0  0  0  0
  9 14  1  0  0  0  0
 10  9  2  0  0  0  0
 11  6  1  0  0  0  0
 12  7  1  0  0  0  0
 14 20  1  0  0  0  0
 14 15  2  0  0  0  0
 15 16  1  0  0  0  0
 15 17  1  0  0  0  0
 18 19  1  0  0  0  0
 18 17  1  0  0  0  0
 20 18  2  0  0  0  0
 21 32  1  0  0  0  0
 21 24  1  1  0  0  0
 22 23  1  0  0  0  0
 22 21  1  0  0  0  0
 23 27  1  6  0  0  0
 23 21  1  0  0  0  0
 25 22  1  0  0  0  0
 26 22  1  0  0  0  0
 28 29  1  0  0  0  0
 29 35  1  0  0  0  0
 29 30  2  0  0  0  0
 30 36  1  0  0  0  0
 31 30  1  0  0  0  0
 32 31  2  0  0  0  0
 33 32  1  0  0  0  0
 33 28  2  0  0  0  0
 34 28  1  0  0  0  0
M  END
>  <minimizedAffinity>
-5.06542253

$$$$

 OpenBabel03272508553D

 36 39  0  0  1  0  0  0  0  0999 V2000
   38.8060   26.2530   35.0330 C   0  0  0  0  0  0  0  0  0  0  0  0
   39.6780   27.1430   35.0400 O   0  0  0  0  0  0  0  0  0  0  0  0
   37.6860   26.3170   34.1140 N   0  0  0  0  0  0  0  0  0  0  0  0
   36.8400   25.7180   34.1760 H   0  0  0  0  0  0  0  0  0  0  0  0
   38.8570   25.0870   35.9520 C   0  0  0  0  0  0  0  0  0  0  0  0
   37.9380   24.9940   36.9620 C   0  0  0  0  0  0  0  0  0  0  0  0
   38.0420   23.8910   37.7970 C   0  0  0  0  0  0  0  0  0  0  0  0
   39.0350   22.9760   37.5720 C   0  0  0  0  0  0  0  0  0  0  0  0
   39.9600   23.0730   36.5500 C   0  0  0  0  0  0  0  0  0  0  0  0
   39.8060   24.1550   35.7840 N   0  0  0  0  0  0  0  0  0  0  0  0
   37.1610   25.7290   37.1240 H   0  0  0  0  0  0  0  0  0  0  0  0
   37.3690   23.7180   38.6280 H   0  0  0  0  0  0  0  0  0  0  0  0
   39.1170   22.1000   38.2340 H   0  0  0  0  0  0  0  0  0  0  0  0
   41.0260   22.1190   36.2810 C   0  0  0  0  0  0  0  0  0  0  0  0
   41.5720   21.4300   37.3690 C   0  0  0  0  0  0  0  0  0  0  0  0
   41.4170   21.3920   38.4980 H   0  0  0  0  0  0  0  0  0  0  0  0
   42.8850   20.3320   36.5720 S   0  0  0  0  0  0  0  0  0  0  0  0
   42.4060   21.0550   34.8830 C   0  0  0  0  0  0  0  0  0  0  0  0
   42.7430   20.9280   33.7300 H   0  0  0  0  0  0  0  0  0  0  0  0
   41.5910   21.7760   35.1450 N   0  0  0  0  0  0  0  0  0  0  0  0
   37.1320   26.9920   31.7810 C   0  0  2  0  0  0  0  0  0  0  0  0
   36.4120   27.9190   32.6700 C   0  0  0  0  0  0  0  0  0  0  0  0
   37.7750   27.2910   33.0390 C   0  0  1  0  0  0  0  0  0  0  0  0
   36.6210   26.0220   31.6190 H   0  0  0  0  0  0  0  0  0  0  0  0
   35.5220   27.5510   33.2090 H   0  0  0  0  0  0  0  0  0  0  0  0
   36.3820   29.0050   32.4660 H   0  0  0  0  0  0  0  0  0  0  0  0
   38.5770   28.0660   33.1110 H   0  0  0  0  0  0  0  0  0  0  0  0
   39.4780   27.3120   28.9270 C   0  0  0  0  0  0  0  0  0  0  0  0
   38.8750   28.3470   28.1550 C   0  0  0  0  0  0  0  0  0  0  0  0
   37.6490   28.9270   28.6550 C   0  0  0  0  0  0  0  0  0  0  0  0
   37.1280   28.4650   29.8270 N   0  0  0  0  0  0  0  0  0  0  0  0
   37.7660   27.4720   30.5070 C   0  0  0  0  0  0  0  0  0  0  0  0
   38.9380   26.8750   30.0870 N   0  0  0  0  0  0  0  0  0  0  0  0
   40.3890   26.9130   28.5130 H   0  0  0  0  0  0  0  0  0  0  0  0
   39.3160   28.6810   27.2400 H   0  0  0  0  0  0  0  0  0  0  0  0
   37.1850   29.7100   28.0790 H   0  0  0  0  0  0  0  0  0  0  0  0
  1  2  2  0  0  0  0
  1  5  1  0  0  0  0
  3  4  1  0  0  0  0
  3  1  1  0  0  0  0
  5  6  1  0  0  0  0
  6 11  1  0  0  0  0
  6  7  2  0  0  0  0
  7 12  1  0  0  0  0
  8  7  1  0  0  0  0
  8 13  1  0  0  0  0
  9  8  2  0  0  0  0
 10  5  2  0  0  0  0
 10  9  1  0  0  0  0
 14  9  1  0  0  0  0
 14 15  2  0  0  0  0
 15 16  1  0  0  0  0
 17 15  1  0  0  0  0
 18 20  2  0  0  0  0
 18 17  1  0  0  0  0
 19 18  1  0  0  0  0
 20 14  1  0  0  0  0
 21 24  1  6  0  0  0
 21 22  1  0  0  0  0
 21 23  1  0  0  0  0
 22 23  1  0  0  0  0
 22 25  1  0  0  0  0
 23 27  1  6  0  0  0
 23  3  1  0  0  0  0
 26 22  1  0  0  0  0
 28 33  1  0  0  0  0
 29 30  1  0  0  0  0
 29 28  2  0  0  0  0
 30 31  2  0  0  0  0
 31 32  1  0  0  0  0
 32 21  1  0  0  0  0
 33 32  2  0  0  0  0
 34 28  1  0  0  0  0
 35 29  1  0  0  0  0
 36 30  1  0  0  0  0
M  END
>  <minimizedAffinity>
-5.03126097

$$$$

 OpenBabel03272508553D

 36 39  0  0  1  0  0  0  0  0999 V2000
   37.9090   26.5430   35.4370 C   0  0  0  0  0  0  0  0  0  0  0  0
   38.7120   27.4110   35.8280 O   0  0  0  0  0  0  0  0  0  0  0  0
   36.7870   26.8970   34.5890 N   0  0  0  0  0  0  0  0  0  0  0  0
   35.9870   26.2680   34.3800 H   0  0  0  0  0  0  0  0  0  0  0  0
   38.0470   25.1110   35.8070 C   0  0  0  0  0  0  0  0  0  0  0  0
   38.1080   24.7680   37.1310 C   0  0  0  0  0  0  0  0  0  0  0  0
   38.2510   23.4180   37.4170 C   0  0  0  0  0  0  0  0  0  0  0  0
   38.3220   22.5220   36.3850 C   0  0  0  0  0  0  0  0  0  0  0  0
   38.2590   22.8720   35.0490 C   0  0  0  0  0  0  0  0  0  0  0  0
   38.1220   24.1830   34.8420 N   0  0  0  0  0  0  0  0  0  0  0  0
   38.0500   25.4920   37.9320 H   0  0  0  0  0  0  0  0  0  0  0  0
   38.3090   23.0360   38.4290 H   0  0  0  0  0  0  0  0  0  0  0  0
   38.4350   21.4500   36.6120 H   0  0  0  0  0  0  0  0  0  0  0  0
   38.3310   21.9470   33.9280 C   0  0  0  0  0  0  0  0  0  0  0  0
   37.1270   21.4480   33.4190 C   0  0  0  0  0  0  0  0  0  0  0  0
   36.0150   21.5600   33.6420 H   0  0  0  0  0  0  0  0  0  0  0  0
   37.6860   20.3190   32.0130 S   0  0  0  0  0  0  0  0  0  0  0  0
   39.4840   20.7710   32.4190 C   0  0  0  0  0  0  0  0  0  0  0  0
   40.5880   20.5000   32.0080 H   0  0  0  0  0  0  0  0  0  0  0  0
   39.3740   21.4770   33.2810 N   0  0  0  0  0  0  0  0  0  0  0  0
   35.8600   28.5280   32.9510 C   0  0  2  0  0  0  0  0  0  0  0  0
   35.5170   29.0350   34.2890 C   0  0  0  0  0  0  0  0  0  0  0  0
   36.8020   28.2270   34.0030 C   0  0  1  0  0  0  0  0  0  0  0  0
   35.1710   27.7520   32.5630 H   0  0  0  0  0  0  0  0  0  0  0  0
   34.7160   28.5300   34.8570 H   0  0  0  0  0  0  0  0  0  0  0  0
   35.6250   30.1050   34.5440 H   0  0  0  0  0  0  0  0  0  0  0  0
   37.7190   28.8470   34.1570 H   0  0  0  0  0  0  0  0  0  0  0  0
   37.0810   29.7830   29.6810 C   0  0  0  0  0  0  0  0  0  0  0  0
   36.9840   31.1950   29.8440 C   0  0  0  0  0  0  0  0  0  0  0  0
   36.4940   31.6900   31.1120 C   0  0  0  0  0  0  0  0  0  0  0  0
   36.1510   30.7980   32.0830 N   0  0  0  0  0  0  0  0  0  0  0  0
   36.2740   29.4620   31.8490 C   0  0  0  0  0  0  0  0  0  0  0  0
   36.7330   28.9220   30.6640 N   0  0  0  0  0  0  0  0  0  0  0  0
   37.4510   29.4640   28.7210 H   0  0  0  0  0  0  0  0  0  0  0  0
   37.2630   31.8610   29.0560 H   0  0  0  0  0  0  0  0  0  0  0  0
   36.4170   32.7560   31.2450 H   0  0  0  0  0  0  0  0  0  0  0  0
  1  5  1  0  0  0  0
  1  2  2  0  0  0  0
  3  1  1  0  0  0  0
  4  3  1  0  0  0  0
  5  6  1  0  0  0  0
  6  7  2  0  0  0  0
  6 11  1  0  0  0  0
  7 12  1  0  0  0  0
  8 13  1  0  0  0  0
  8  7  1  0  0  0  0
  9  8  2  0  0  0  0
 10  9  1  0  0  0  0
 10  5  2  0  0  0  0
 14  9  1  0  0  0  0
 15 16  1  0  0  0  0
 15 14  2  0  0  0  0
 17 18  1  0  0  0  0
 17 15  1  0  0  0  0
 18 20  2  0  0  0  0
 19 18  1  0  0  0  0
 20 14  1  0  0  0  0
 21 24  1  6  0  0  0
 21 23  1  0  0  0  0
 21 22  1  0  0  0  0
 22 26  1  0  0  0  0
 22 25  1  0  0  0  0
 23 27  1  6  0  0  0
 23 22  1  0  0  0  0
 23  3  1  0  0  0  0
 28 29  2  0  0  0  0
 28 33  1  0  0  0  0
 29 30  1  0  0  0  0
 30 36  1  0  0  0  0
 30 31  2  0  0  0  0
 32 31  1  0  0  0  0
 32 21  1  0  0  0  0
 33 32  2  0  0  0  0
 34 28  1  0  0  0  0
 35 29  1  0  0  0  0
M  END
>  <minimizedAffinity>
-5.01290417

$$$$

 OpenBabel03272508553D

 36 39  0  0  1  0  0  0  0  0999 V2000
   36.2290   28.9940   34.3310 C   0  0  0  0  0  0  0  0  0  0  0  0
   35.4630   29.1530   33.3620 O   0  0  0  0  0  0  0  0  0  0  0  0
   36.3960   30.0370   35.3250 N   0  0  0  0  0  0  0  0  0  0  0  0
   37.1430   30.0470   36.0460 H   0  0  0  0  0  0  0  0  0  0  0  0
   37.0080   27.7450   34.5290 C   0  0  0  0  0  0  0  0  0  0  0  0
   37.8450   27.6450   35.6080 C   0  0  0  0  0  0  0  0  0  0  0  0
   38.5570   26.4610   35.7350 C   0  0  0  0  0  0  0  0  0  0  0  0
   38.3880   25.4780   34.7970 C   0  0  0  0  0  0  0  0  0  0  0  0
   37.5410   25.5820   33.7100 C   0  0  0  0  0  0  0  0  0  0  0  0
   36.8870   26.7430   33.6450 N   0  0  0  0  0  0  0  0  0  0  0  0
   37.9640   28.4340   36.3380 H   0  0  0  0  0  0  0  0  0  0  0  0
   39.2470   26.2760   36.5480 H   0  0  0  0  0  0  0  0  0  0  0  0
   38.9530   24.5380   34.8980 H   0  0  0  0  0  0  0  0  0  0  0  0
   37.3370   24.5580   32.6960 C   0  0  0  0  0  0  0  0  0  0  0  0
   38.3580   23.6210   32.5040 C   0  0  0  0  0  0  0  0  0  0  0  0
   39.3870   23.4050   32.9420 H   0  0  0  0  0  0  0  0  0  0  0  0
   37.6780   22.5170   31.1310 S   0  0  0  0  0  0  0  0  0  0  0  0
   36.1090   23.5850   31.1030 C   0  0  0  0  0  0  0  0  0  0  0  0
   35.0640   23.6210   30.4980 H   0  0  0  0  0  0  0  0  0  0  0  0
   36.3170   24.3500   31.8940 N   0  0  0  0  0  0  0  0  0  0  0  0
   35.0380   31.7360   36.5390 C   0  0  2  0  0  0  0  0  0  0  0  0
   36.0420   32.4780   35.7590 C   0  0  0  0  0  0  0  0  0  0  0  0
   35.4420   31.1340   35.2910 C   0  0  1  0  0  0  0  0  0  0  0  0
   35.4080   31.3430   37.5070 H   0  0  0  0  0  0  0  0  0  0  0  0
   37.0900   32.4730   36.1050 H   0  0  0  0  0  0  0  0  0  0  0  0
   35.7720   33.3900   35.1940 H   0  0  0  0  0  0  0  0  0  0  0  0
   34.8340   31.2580   34.3620 H   0  0  0  0  0  0  0  0  0  0  0  0
   32.1640   34.0120   37.0980 C   0  0  0  0  0  0  0  0  0  0  0  0
   31.0500   33.1480   36.8930 C   0  0  0  0  0  0  0  0  0  0  0  0
   31.3260   31.7660   36.5670 C   0  0  0  0  0  0  0  0  0  0  0  0
   32.6220   31.3560   36.4690 N   0  0  0  0  0  0  0  0  0  0  0  0
   33.6320   32.2440   36.6810 C   0  0  0  0  0  0  0  0  0  0  0  0
   33.4400   33.5750   36.9950 N   0  0  0  0  0  0  0  0  0  0  0  0
   31.9070   35.0300   37.3390 H   0  0  0  0  0  0  0  0  0  0  0  0
   30.0480   33.5100   36.9790 H   0  0  0  0  0  0  0  0  0  0  0  0
   30.4910   31.1050   36.4100 H   0  0  0  0  0  0  0  0  0  0  0  0
  1  5  1  0  0  0  0
  1  3  1  0  0  0  0
  2  1  2  0  0  0  0
  3  4  1  0  0  0  0
  5  6  1  0  0  0  0
  6  7  2  0  0  0  0
  6 11  1  0  0  0  0
  7 12  1  0  0  0  0
  8 13  1  0  0  0  0
  8  7  1  0  0  0  0
  9  8  2  0  0  0  0
 10  9  1  0  0  0  0
 10  5  2  0  0  0  0
 14  9  1  0  0  0  0
 15 14  2  0  0  0  0
 15 16  1  0  0  0  0
 17 15  1  0  0  0  0
 18 17  1  0  0  0  0
 18 20  2  0  0  0  0
 19 18  1  0  0  0  0
 20 14  1  0  0  0  0
 21 32  1  0  0  0  0
 21 24  1  1  0  0  0
 22 25  1  0  0  0  0
 22 21  1  0  0  0  0
 23 27  1  6  0  0  0
 23  3  1  0  0  0  0
 23 22  1  0  0  0  0
 23 21  1  0  0  0  0
 26 22  1  0  0  0  0
 28 34  1  0  0  0  0
 29 35  1  0  0  0  0
 29 28  2  0  0  0  0
 30 29  1  0  0  0  0
 31 30  2  0  0  0  0
 31 32  1  0  0  0  0
 32 33  2  0  0  0  0
 33 28  1  0  0  0  0
 36 30  1  0  0  0  0
M  END
>  <minimizedAffinity>
-5.00492048

$$$$

 OpenBabel03272508553D

 36 39  0  0  1  0  0  0  0  0999 V2000
   37.1880   27.7820   34.2400 C   0  0  0  0  0  0  0  0  0  0  0  0
   37.6220   27.9110   35.4010 O   0  0  0  0  0  0  0  0  0  0  0  0
   37.7360   26.7770   33.3500 N   0  0  0  0  0  0  0  0  0  0  0  0
   37.5530   26.7340   32.3280 H   0  0  0  0  0  0  0  0  0  0  0  0
   36.0980   28.6350   33.7020 C   0  0  0  0  0  0  0  0  0  0  0  0
   36.0510   28.8870   32.3570 C   0  0  0  0  0  0  0  0  0  0  0  0
   35.0190   29.7010   31.9130 C   0  0  0  0  0  0  0  0  0  0  0  0
   34.1240   30.1980   32.8220 C   0  0  0  0  0  0  0  0  0  0  0  0
   34.1740   29.9410   34.1790 C   0  0  0  0  0  0  0  0  0  0  0  0
   35.1890   29.1530   34.5410 N   0  0  0  0  0  0  0  0  0  0  0  0
   36.7680   28.4850   31.6550 H   0  0  0  0  0  0  0  0  0  0  0  0
   34.8860   29.9660   30.8720 H   0  0  0  0  0  0  0  0  0  0  0  0
   33.3040   30.8440   32.4700 H   0  0  0  0  0  0  0  0  0  0  0  0
   33.2400   30.4510   35.1730 C   0  0  0  0  0  0  0  0  0  0  0  0
   31.8740   30.3510   34.8910 C   0  0  0  0  0  0  0  0  0  0  0  0
   31.2210   29.9570   34.0440 H   0  0  0  0  0  0  0  0  0  0  0  0
   31.0610   31.1160   36.4140 S   0  0  0  0  0  0  0  0  0  0  0  0
   32.7910   31.4180   37.1350 C   0  0  0  0  0  0  0  0  0  0  0  0
   33.2700   31.8940   38.1380 H   0  0  0  0  0  0  0  0  0  0  0  0
   33.4660   31.0120   36.3390 N   0  0  0  0  0  0  0  0  0  0  0  0
   37.9820   24.6100   34.5540 C   0  0  2  0  0  0  0  0  0  0  0  0
   38.5500   24.4120   33.2110 C   0  0  0  0  0  0  0  0  0  0  0  0
   38.5950   25.7680   33.9490 C   0  0  1  0  0  0  0  0  0  0  0  0
   36.8790   24.5110   34.6070 H   0  0  0  0  0  0  0  0  0  0  0  0
   37.8600   24.3230   32.3530 H   0  0  0  0  0  0  0  0  0  0  0  0
   39.5030   23.8710   33.0630 H   0  0  0  0  0  0  0  0  0  0  0  0
   39.6440   26.0660   34.1940 H   0  0  0  0  0  0  0  0  0  0  0  0
   38.5220   23.4480   38.0350 C   0  0  0  0  0  0  0  0  0  0  0  0
   39.8060   22.8370   37.9530 C   0  0  0  0  0  0  0  0  0  0  0  0
   40.4720   22.8470   36.6690 C   0  0  0  0  0  0  0  0  0  0  0  0
   39.8520   23.4330   35.6070 N   0  0  0  0  0  0  0  0  0  0  0  0
   38.6230   23.9980   35.7670 C   0  0  0  0  0  0  0  0  0  0  0  0
   37.9320   24.0230   36.9620 N   0  0  0  0  0  0  0  0  0  0  0  0
   38.0690   23.4150   39.0110 H   0  0  0  0  0  0  0  0  0  0  0  0
   40.2590   22.3870   38.8110 H   0  0  0  0  0  0  0  0  0  0  0  0
   41.4440   22.3870   36.5970 H   0  0  0  0  0  0  0  0  0  0  0  0
  1  2  2  0  0  0  0
  3 23  1  0  0  0  0
  3  1  1  0  0  0  0
  4  3  1  0  0  0  0
  5  1  1  0  0  0  0
  5 10  1  0  0  0  0
  6  5  2  0  0  0  0
  7  6  1  0  0  0  0
  7  8  2  0  0  0  0
  8  9  1  0  0  0  0
  9 10  2  0  0  0  0
  9 14  1  0  0  0  0
 11  6  1  0  0  0  0
 12  7  1  0  0  0  0
 13  8  1  0  0  0  0
 14 20  1  0  0  0  0
 15 14  2  0  0  0  0
 15 17  1  0  0  0  0
 16 15  1  0  0  0  0
 17 18  1  0  0  0  0
 18 19  1  0  0  0  0
 20 18  2  0  0  0  0
 21 24  1  1  0  0  0
 21 32  1  0  0  0  0
 22 23  1  0  0  0  0
 22 21  1  0  0  0  0
 23 27  1  1  0  0  0
 23 21  1  0  0  0  0
 25 22  1  0  0  0  0
 26 22  1  0  0  0  0
 28 34  1  0  0  0  0
 29 28  1  0  0  0  0
 29 35  1  0  0  0  0
 30 29  2  0  0  0  0
 31 32  2  0  0  0  0
 31 30  1  0  0  0  0
 32 33  1  0  0  0  0
 33 28  2  0  0  0  0
 36 30  1  0  0  0  0
M  END
>  <minimizedAffinity>
-4.99739408

$$$$
