
 OpenBabel03272508113D

 32 34  0  0  0  0  0  0  0  0999 V2000
   36.6560   29.4540   44.0590 Cl  0  0  0  0  0  0  0  0  0  0  0  0
   38.3150   29.8250   43.5220 C   0  0  0  0  0  0  0  0  0  0  0  0
   39.3010   30.3060   44.3660 C   0  0  0  0  0  0  0  0  0  0  0  0
   40.5350   30.5460   43.8020 C   0  0  0  0  0  0  0  0  0  0  0  0
   40.7930   30.3280   42.4760 C   0  0  0  0  0  0  0  0  0  0  0  0
   39.8250   29.8570   41.6530 C   0  0  0  0  0  0  0  0  0  0  0  0
   38.5650   29.5960   42.1600 C   0  0  0  0  0  0  0  0  0  0  0  0
   41.2610   30.9190   44.5090 H   0  0  0  0  0  0  0  0  0  0  0  0
   41.7980   30.5530   42.1480 H   0  0  0  0  0  0  0  0  0  0  0  0
   40.0480   29.6910   40.6120 H   0  0  0  0  0  0  0  0  0  0  0  0
   37.4840   29.0800   41.2850 C   0  0  0  0  0  0  0  0  0  0  0  0
   37.3940   27.7170   41.0290 C   0  0  0  0  0  0  0  0  0  0  0  0
   37.9770   26.8370   41.3420 H   0  0  0  0  0  0  0  0  0  0  0  0
   35.8850   27.6120   39.8930 S   0  0  0  0  0  0  0  0  0  0  0  0
   35.6950   29.4940   40.0110 C   0  0  0  0  0  0  0  0  0  0  0  0
   34.9530   30.3220   39.5720 H   0  0  0  0  0  0  0  0  0  0  0  0
   36.5440   29.7940   40.6840 N   0  0  0  0  0  0  0  0  0  0  0  0
   38.8650   30.4630   45.6510 O   0  0  0  0  0  0  0  0  0  0  0  0
   39.4390   32.5060   47.1200 O   0  0  0  0  0  0  0  0  0  0  0  0
   38.3040   31.8400   46.4280 P   0  0  1  0  0  0  0  0  0  0  0  0
   37.7250   32.8430   45.1730 O   0  0  0  0  0  0  0  0  0  0  0  0
   38.5170   33.2980   44.7630 H   0  0  0  0  0  0  0  0  0  0  0  0
   37.0220   31.4200   47.4550 O   0  0  0  0  0  0  0  0  0  0  0  0
   37.6120   30.5270   50.9900 C   0  0  0  0  0  0  0  0  0  0  0  0
   37.7060   31.3050   49.8360 C   0  0  0  0  0  0  0  0  0  0  0  0
   37.0700   30.8460   48.6760 C   0  0  0  0  0  0  0  0  0  0  0  0
   36.3930   29.6610   48.7440 N   0  0  0  0  0  0  0  0  0  0  0  0
   36.3240   28.9360   49.8790 C   0  0  0  0  0  0  0  0  0  0  0  0
   36.9320   29.3700   50.9970 N   0  0  0  0  0  0  0  0  0  0  0  0
   38.1320   30.9720   51.8100 H   0  0  0  0  0  0  0  0  0  0  0  0
   38.2120   32.2320   49.7100 H   0  0  0  0  0  0  0  0  0  0  0  0
   35.7870   27.9970   49.9320 H   0  0  0  0  0  0  0  0  0  0  0  0
  2  1  1  0  0  0  0
  2  3  1  0  0  0  0
  3 18  1  0  0  0  0
  4  3  2  0  0  0  0
  4  8  1  0  0  0  0
  5  4  1  0  0  0  0
  6  7  1  0  0  0  0
  6  5  2  0  0  0  0
  7  2  2  0  0  0  0
  9  5  1  0  0  0  0
 10  6  1  0  0  0  0
 11  7  1  0  0  0  0
 12 11  2  0  0  0  0
 12 13  1  0  0  0  0
 14 15  1  0  0  0  0
 14 12  1  0  0  0  0
 15 17  2  0  0  0  0
 16 15  1  0  0  0  0
 17 11  1  0  0  0  0
 18 20  1  0  0  0  0
 20 19  2  1  0  0  0
 20 23  1  0  0  0  0
 21 20  1  0  0  0  0
 22 21  1  0  0  0  0
 23 26  1  0  0  0  0
 24 29  1  0  0  0  0
 24 30  1  0  0  0  0
 25 24  2  0  0  0  0
 26 27  2  0  0  0  0
 26 25  1  0  0  0  0
 27 28  1  0  0  0  0
 28 32  1  0  0  0  0
 28 29  2  0  0  0  0
 31 25  1  0  0  0  0
M  END
>  <minimizedAffinity>
-4.79556561

>  <minimizedRMSD>
0.07432504

$$$$
