
 OpenBabel03272500493D

 37 41  0  0  1  0  0  0  0  0999 V2000
   37.7170   25.8830   35.8420 C   0  0  1  0  0  0  0  0  0  0  0  0
   38.4820   27.2510   35.8620 C   0  0  0  0  0  0  0  0  0  0  0  0
   38.2390   26.4960   34.6050 C   0  0  2  0  0  0  0  0  0  0  0  0
   36.6410   25.9060   36.0050 H   0  0  0  0  0  0  0  0  0  0  0  0
   39.4490   27.2060   36.3720 H   0  0  0  0  0  0  0  0  0  0  0  0
   37.8230   28.0890   36.1670 H   0  0  0  0  0  0  0  0  0  0  0  0
   39.1530   26.0510   34.1440 H   0  0  0  0  0  0  0  0  0  0  0  0
   39.8820   23.1080   36.6280 C   0  0  0  0  0  0  0  0  0  0  0  0
   39.0970   23.1400   37.7680 C   0  0  0  0  0  0  0  0  0  0  0  0
   38.1700   24.1900   37.6330 C   0  0  0  0  0  0  0  0  0  0  0  0
   38.4200   24.7520   36.4320 N   0  0  0  0  0  0  0  0  0  0  0  0
   39.4120   24.0980   35.8890 N   0  0  0  0  0  0  0  0  0  0  0  0
   39.1430   22.4960   38.6400 H   0  0  0  0  0  0  0  0  0  0  0  0
   37.4020   24.4920   38.3490 H   0  0  0  0  0  0  0  0  0  0  0  0
   41.4720   21.8720   35.1330 C   0  0  0  0  0  0  0  0  0  0  0  0
   40.9370   22.1580   36.4250 C   0  0  0  0  0  0  0  0  0  0  0  0
   41.4830   21.4760   37.4830 C   0  0  0  0  0  0  0  0  0  0  0  0
   42.4850   20.5800   37.2590 N   0  0  0  0  0  0  0  0  0  0  0  0
   42.9590   20.3400   36.0180 C   0  0  0  0  0  0  0  0  0  0  0  0
   42.4500   20.9910   34.9360 N   0  0  0  0  0  0  0  0  0  0  0  0
   41.0330   22.4150   34.3060 H   0  0  0  0  0  0  0  0  0  0  0  0
   41.1500   21.6200   38.5070 H   0  0  0  0  0  0  0  0  0  0  0  0
   43.7530   19.6220   35.8760 H   0  0  0  0  0  0  0  0  0  0  0  0
   37.2810   27.0290   33.5860 C   0  0  0  0  0  0  0  0  0  0  0  0
   37.0570   26.4870   32.3310 C   0  0  0  0  0  0  0  0  0  0  0  0
   36.1260   27.2550   31.7060 N   0  0  0  0  0  0  0  0  0  0  0  0
   35.7630   28.2660   32.5450 C   0  0  0  0  0  0  0  0  0  0  0  0
   36.4730   28.1070   33.6690 N   0  0  0  0  0  0  0  0  0  0  0  0
   37.5400   25.6060   31.9210 H   0  0  0  0  0  0  0  0  0  0  0  0
   35.7450   27.0950   30.7310 H   0  0  0  0  0  0  0  0  0  0  0  0
   34.7720   29.3320   32.2580 C   0  0  0  0  0  0  0  0  0  0  0  0
   35.0970   30.4130   31.4150 C   0  0  0  0  0  0  0  0  0  0  0  0
   36.0810   30.5940   30.8870 H   0  0  0  0  0  0  0  0  0  0  0  0
   33.5610   31.4130   31.3980 S   0  0  0  0  0  0  0  0  0  0  0  0
   32.7220   30.1680   32.5620 C   0  0  0  0  0  0  0  0  0  0  0  0
   31.6670   30.0850   33.0540 H   0  0  0  0  0  0  0  0  0  0  0  0
   33.5410   29.4030   32.7240 N   0  0  0  0  0  0  0  0  0  0  0  0
  1  2  1  0  0  0  0
  1  4  1  1  0  0  0
  1 11  1  0  0  0  0
  2  6  1  0  0  0  0
  2  5  1  0  0  0  0
  3  7  1  6  0  0  0
  3  1  1  0  0  0  0
  3  2  1  0  0  0  0
  8  9  1  0  0  0  0
  9 13  1  0  0  0  0
 10  9  2  0  0  0  0
 10 14  1  0  0  0  0
 11 10  1  0  0  0  0
 12 11  1  0  0  0  0
 12  8  2  0  0  0  0
 15 16  1  0  0  0  0
 16  8  1  0  0  0  0
 16 17  2  0  0  0  0
 17 22  1  0  0  0  0
 18 17  1  0  0  0  0
 19 18  2  0  0  0  0
 20 15  2  0  0  0  0
 20 19  1  0  0  0  0
 21 15  1  0  0  0  0
 23 19  1  0  0  0  0
 24 28  1  0  0  0  0
 24  3  1  0  0  0  0
 25 24  2  0  0  0  0
 26 25  1  0  0  0  0
 26 27  1  0  0  0  0
 27 28  2  0  0  0  0
 29 25  1  0  0  0  0
 30 26  1  0  0  0  0
 31 27  1  0  0  0  0
 31 37  1  0  0  0  0
 32 31  2  0  0  0  0
 33 32  1  0  0  0  0
 34 32  1  0  0  0  0
 34 35  1  0  0  0  0
 35 37  2  0  0  0  0
 35 36  1  0  0  0  0
M  END
>  <minimizedAffinity>
-5.60952473

$$$$

 OpenBabel03272500493D

 37 41  0  0  1  0  0  0  0  0999 V2000
   38.3010   26.6640   34.5020 C   0  0  1  0  0  0  0  0  0  0  0  0
   38.8410   27.2530   35.8510 C   0  0  0  0  0  0  0  0  0  0  0  0
   37.9400   26.0720   35.8050 C   0  0  2  0  0  0  0  0  0  0  0  0
   39.0030   26.1200   33.8740 H   0  0  0  0  0  0  0  0  0  0  0  0
   38.4570   28.2510   36.0810 H   0  0  0  0  0  0  0  0  0  0  0  0
   39.9400   27.1350   35.9420 H   0  0  0  0  0  0  0  0  0  0  0  0
   36.9110   26.2560   36.1980 H   0  0  0  0  0  0  0  0  0  0  0  0
   35.5830   28.8040   33.4810 C   0  0  0  0  0  0  0  0  0  0  0  0
   36.1840   28.5660   32.2560 C   0  0  0  0  0  0  0  0  0  0  0  0
   37.2930   27.7260   32.4680 C   0  0  0  0  0  0  0  0  0  0  0  0
   37.3270   27.4850   33.7960 N   0  0  0  0  0  0  0  0  0  0  0  0
   36.3250   28.1250   34.3380 N   0  0  0  0  0  0  0  0  0  0  0  0
   35.8960   28.9350   31.2780 H   0  0  0  0  0  0  0  0  0  0  0  0
   37.9880   27.3440   31.7160 H   0  0  0  0  0  0  0  0  0  0  0  0
   33.2660   29.4890   32.8070 C   0  0  0  0  0  0  0  0  0  0  0  0
   34.4180   29.6250   33.6390 C   0  0  0  0  0  0  0  0  0  0  0  0
   34.3630   30.5880   34.6150 C   0  0  0  0  0  0  0  0  0  0  0  0
   33.2420   31.3520   34.7410 N   0  0  0  0  0  0  0  0  0  0  0  0
   32.1760   31.1890   33.9300 C   0  0  0  0  0  0  0  0  0  0  0  0
   32.1800   30.2470   32.9470 N   0  0  0  0  0  0  0  0  0  0  0  0
   33.3200   28.7260   32.0410 H   0  0  0  0  0  0  0  0  0  0  0  0
   35.1840   30.7730   35.3010 H   0  0  0  0  0  0  0  0  0  0  0  0
   31.3030   31.8130   34.0580 H   0  0  0  0  0  0  0  0  0  0  0  0
   38.4630   24.7170   36.1680 C   0  0  0  0  0  0  0  0  0  0  0  0
   37.7690   23.7490   36.8740 C   0  0  0  0  0  0  0  0  0  0  0  0
   38.5810   22.6670   37.0050 N   0  0  0  0  0  0  0  0  0  0  0  0
   39.7690   22.9390   36.3950 C   0  0  0  0  0  0  0  0  0  0  0  0
   39.6710   24.1790   35.9000 N   0  0  0  0  0  0  0  0  0  0  0  0
   36.7560   23.8400   37.2540 H   0  0  0  0  0  0  0  0  0  0  0  0
   38.3330   21.7630   37.4980 H   0  0  0  0  0  0  0  0  0  0  0  0
   40.9370   22.0300   36.3050 C   0  0  0  0  0  0  0  0  0  0  0  0
   41.5500   21.7610   35.0650 C   0  0  0  0  0  0  0  0  0  0  0  0
   41.2530   22.1730   34.0540 H   0  0  0  0  0  0  0  0  0  0  0  0
   42.9070   20.6100   35.5050 S   0  0  0  0  0  0  0  0  0  0  0  0
   42.4010   20.6910   37.3340 C   0  0  0  0  0  0  0  0  0  0  0  0
   42.7970   20.2060   38.3180 H   0  0  0  0  0  0  0  0  0  0  0  0
   41.5160   21.3960   37.3060 N   0  0  0  0  0  0  0  0  0  0  0  0
  1  4  1  6  0  0  0
  1  3  1  0  0  0  0
  1  2  1  0  0  0  0
  2  6  1  0  0  0  0
  2  5  1  0  0  0  0
  3  2  1  0  0  0  0
  3 24  1  0  0  0  0
  3  7  1  1  0  0  0
  8 16  1  0  0  0  0
  8 12  2  0  0  0  0
  9 10  2  0  0  0  0
  9  8  1  0  0  0  0
 10 11  1  0  0  0  0
 11 12  1  0  0  0  0
 11  1  1  0  0  0  0
 13  9  1  0  0  0  0
 14 10  1  0  0  0  0
 15 20  2  0  0  0  0
 15 16  1  0  0  0  0
 16 17  2  0  0  0  0
 17 18  1  0  0  0  0
 17 22  1  0  0  0  0
 19 23  1  0  0  0  0
 19 18  2  0  0  0  0
 20 19  1  0  0  0  0
 21 15  1  0  0  0  0
 24 25  2  0  0  0  0
 25 26  1  0  0  0  0
 25 29  1  0  0  0  0
 26 30  1  0  0  0  0
 27 26  1  0  0  0  0
 28 24  1  0  0  0  0
 28 27  2  0  0  0  0
 31 27  1  0  0  0  0
 31 37  1  0  0  0  0
 32 34  1  0  0  0  0
 32 31  2  0  0  0  0
 33 32  1  0  0  0  0
 34 35  1  0  0  0  0
 35 36  1  0  0  0  0
 37 35  2  0  0  0  0
M  END
>  <minimizedAffinity>
-5.57707739

$$$$

 OpenBabel03272500493D

 37 41  0  0  1  0  0  0  0  0999 V2000
   38.6170   26.5710   34.3490 C   0  0  1  0  0  0  0  0  0  0  0  0
   38.5540   27.2040   35.7820 C   0  0  0  0  0  0  0  0  0  0  0  0
   37.9180   25.8990   35.4620 C   0  0  2  0  0  0  0  0  0  0  0  0
   39.5700   26.1570   34.0240 H   0  0  0  0  0  0  0  0  0  0  0  0
   37.9640   28.1240   35.8300 H   0  0  0  0  0  0  0  0  0  0  0  0
   39.5550   27.2570   36.2550 H   0  0  0  0  0  0  0  0  0  0  0  0
   36.8020   25.9110   35.4640 H   0  0  0  0  0  0  0  0  0  0  0  0
   37.4060   28.3910   31.4800 C   0  0  0  0  0  0  0  0  0  0  0  0
   36.2080   28.0900   32.1060 C   0  0  0  0  0  0  0  0  0  0  0  0
   36.4950   27.3610   33.2750 C   0  0  0  0  0  0  0  0  0  0  0  0
   37.8390   27.2470   33.3200 N   0  0  0  0  0  0  0  0  0  0  0  0
   38.3220   27.8540   32.2680 N   0  0  0  0  0  0  0  0  0  0  0  0
   35.2000   28.3430   31.7960 H   0  0  0  0  0  0  0  0  0  0  0  0
   35.7810   26.9670   34.0020 H   0  0  0  0  0  0  0  0  0  0  0  0
   36.9900   30.4600   30.1260 C   0  0  0  0  0  0  0  0  0  0  0  0
   37.4900   29.1300   30.2540 C   0  0  0  0  0  0  0  0  0  0  0  0
   38.0640   28.5760   29.1380 C   0  0  0  0  0  0  0  0  0  0  0  0
   38.1300   29.3030   27.9870 N   0  0  0  0  0  0  0  0  0  0  0  0
   37.6420   30.5590   27.9110 C   0  0  0  0  0  0  0  0  0  0  0  0
   37.0630   31.1530   28.9910 N   0  0  0  0  0  0  0  0  0  0  0  0
   36.5390   30.8870   31.0130 H   0  0  0  0  0  0  0  0  0  0  0  0
   38.4750   27.5710   29.1280 H   0  0  0  0  0  0  0  0  0  0  0  0
   37.7100   31.1070   26.9820 H   0  0  0  0  0  0  0  0  0  0  0  0
   38.4830   24.6340   36.0280 C   0  0  0  0  0  0  0  0  0  0  0  0
   37.8720   23.8340   36.9800 C   0  0  0  0  0  0  0  0  0  0  0  0
   38.6980   22.7870   37.2370 N   0  0  0  0  0  0  0  0  0  0  0  0
   39.8150   22.9150   36.4660 C   0  0  0  0  0  0  0  0  0  0  0  0
   39.6600   24.0350   35.7480 N   0  0  0  0  0  0  0  0  0  0  0  0
   36.9040   24.0140   37.4380 H   0  0  0  0  0  0  0  0  0  0  0  0
   38.5080   22.0010   37.9220 H   0  0  0  0  0  0  0  0  0  0  0  0
   40.9720   21.9880   36.4360 C   0  0  0  0  0  0  0  0  0  0  0  0
   41.6300   21.6920   35.2260 C   0  0  0  0  0  0  0  0  0  0  0  0
   41.3810   22.0940   34.1980 H   0  0  0  0  0  0  0  0  0  0  0  0
   42.9500   20.5270   35.7370 S   0  0  0  0  0  0  0  0  0  0  0  0
   42.3720   20.6410   37.5420 C   0  0  0  0  0  0  0  0  0  0  0  0
   42.7200   20.1640   38.5490 H   0  0  0  0  0  0  0  0  0  0  0  0
   41.4990   21.3590   37.4680 N   0  0  0  0  0  0  0  0  0  0  0  0
  1  4  1  6  0  0  0
  1  3  1  0  0  0  0
  1  2  1  0  0  0  0
  2  5  1  0  0  0  0
  2  6  1  0  0  0  0
  3  7  1  6  0  0  0
  3  2  1  0  0  0  0
  3 24  1  0  0  0  0
  8  9  1  0  0  0  0
  8 12  2  0  0  0  0
  9 10  2  0  0  0  0
 10 11  1  0  0  0  0
 10 14  1  0  0  0  0
 11  1  1  0  0  0  0
 12 11  1  0  0  0  0
 13  9  1  0  0  0  0
 15 16  1  0  0  0  0
 15 21  1  0  0  0  0
 16  8  1  0  0  0  0
 17 16  2  0  0  0  0
 18 17  1  0  0  0  0
 19 18  2  0  0  0  0
 19 20  1  0  0  0  0
 20 15  2  0  0  0  0
 22 17  1  0  0  0  0
 23 19  1  0  0  0  0
 24 25  2  0  0  0  0
 25 26  1  0  0  0  0
 25 29  1  0  0  0  0
 26 30  1  0  0  0  0
 27 26  1  0  0  0  0
 28 24  1  0  0  0  0
 28 27  2  0  0  0  0
 31 27  1  0  0  0  0
 31 37  1  0  0  0  0
 32 34  1  0  0  0  0
 32 31  2  0  0  0  0
 33 32  1  0  0  0  0
 34 35  1  0  0  0  0
 35 36  1  0  0  0  0
 37 35  2  0  0  0  0
M  END
>  <minimizedAffinity>
-5.34287739

$$$$

 OpenBabel03272500493D

 37 41  0  0  1  0  0  0  0  0999 V2000
   37.7410   26.5560   33.7830 C   0  0  1  0  0  0  0  0  0  0  0  0
   39.2650   26.8120   33.5170 C   0  0  0  0  0  0  0  0  0  0  0  0
   38.7400   26.4810   34.8670 C   0  0  2  0  0  0  0  0  0  0  0  0
   37.3170   25.6220   33.4180 H   0  0  0  0  0  0  0  0  0  0  0  0
   39.4940   27.8440   33.2360 H   0  0  0  0  0  0  0  0  0  0  0  0
   39.7070   26.0330   32.8640 H   0  0  0  0  0  0  0  0  0  0  0  0
   38.7800   27.3200   35.6020 H   0  0  0  0  0  0  0  0  0  0  0  0
   35.7110   29.4850   34.3360 C   0  0  0  0  0  0  0  0  0  0  0  0
   35.5670   29.3390   32.9670 C   0  0  0  0  0  0  0  0  0  0  0  0
   36.3110   28.2150   32.5650 C   0  0  0  0  0  0  0  0  0  0  0  0
   36.8740   27.7220   33.6880 N   0  0  0  0  0  0  0  0  0  0  0  0
   36.5020   28.4840   34.6820 N   0  0  0  0  0  0  0  0  0  0  0  0
   34.9950   29.9510   32.2770 H   0  0  0  0  0  0  0  0  0  0  0  0
   36.4150   27.8170   31.5530 H   0  0  0  0  0  0  0  0  0  0  0  0
   35.8220   31.4150   35.9340 C   0  0  0  0  0  0  0  0  0  0  0  0
   35.0850   30.5350   35.0860 C   0  0  0  0  0  0  0  0  0  0  0  0
   33.7300   30.7380   35.0160 C   0  0  0  0  0  0  0  0  0  0  0  0
   33.1640   31.7440   35.7400 N   0  0  0  0  0  0  0  0  0  0  0  0
   33.9010   32.5520   36.5310 C   0  0  0  0  0  0  0  0  0  0  0  0
   35.2490   32.3920   36.6350 N   0  0  0  0  0  0  0  0  0  0  0  0
   36.8900   31.2450   35.9820 H   0  0  0  0  0  0  0  0  0  0  0  0
   33.0770   30.1250   34.4010 H   0  0  0  0  0  0  0  0  0  0  0  0
   33.4200   33.3400   37.0920 H   0  0  0  0  0  0  0  0  0  0  0  0
   39.0540   25.1560   35.4880 C   0  0  0  0  0  0  0  0  0  0  0  0
   38.2130   24.4370   36.3210 C   0  0  0  0  0  0  0  0  0  0  0  0
   38.8580   23.2960   36.6800 N   0  0  0  0  0  0  0  0  0  0  0  0
   40.0850   23.2850   36.0870 C   0  0  0  0  0  0  0  0  0  0  0  0
   40.1780   24.4160   35.3760 N   0  0  0  0  0  0  0  0  0  0  0  0
   37.2160   24.7350   36.6320 H   0  0  0  0  0  0  0  0  0  0  0  0
   38.4720   22.5390   37.3130 H   0  0  0  0  0  0  0  0  0  0  0  0
   41.1120   22.2230   36.2140 C   0  0  0  0  0  0  0  0  0  0  0  0
   41.8360   21.7800   35.0900 C   0  0  0  0  0  0  0  0  0  0  0  0
   41.7360   22.1500   34.0250 H   0  0  0  0  0  0  0  0  0  0  0  0
   42.9440   20.4930   35.7810 S   0  0  0  0  0  0  0  0  0  0  0  0
   42.2200   20.7810   37.5130 C   0  0  0  0  0  0  0  0  0  0  0  0
   42.4100   20.3230   38.5700 H   0  0  0  0  0  0  0  0  0  0  0  0
   41.4570   21.5950   37.3210 N   0  0  0  0  0  0  0  0  0  0  0  0
  1  4  1  6  0  0  0
  1  3  1  0  0  0  0
  2  1  1  0  0  0  0
  2  3  1  0  0  0  0
  3 24  1  0  0  0  0
  3  7  1  1  0  0  0
  5  2  1  0  0  0  0
  6  2  1  0  0  0  0
  8 12  2  0  0  0  0
  8 16  1  0  0  0  0
  9  8  1  0  0  0  0
 10  9  2  0  0  0  0
 10 11  1  0  0  0  0
 11  1  1  0  0  0  0
 11 12  1  0  0  0  0
 13  9  1  0  0  0  0
 14 10  1  0  0  0  0
 15 21  1  0  0  0  0
 15 20  1  0  0  0  0
 16 15  2  0  0  0  0
 17 16  1  0  0  0  0
 17 18  2  0  0  0  0
 18 19  1  0  0  0  0
 19 20  2  0  0  0  0
 19 23  1  0  0  0  0
 22 17  1  0  0  0  0
 24 25  2  0  0  0  0
 25 29  1  0  0  0  0
 25 26  1  0  0  0  0
 26 30  1  0  0  0  0
 27 31  1  0  0  0  0
 27 26  1  0  0  0  0
 28 24  1  0  0  0  0
 28 27  2  0  0  0  0
 31 37  1  0  0  0  0
 32 34  1  0  0  0  0
 32 31  2  0  0  0  0
 33 32  1  0  0  0  0
 34 35  1  0  0  0  0
 35 36  1  0  0  0  0
 37 35  2  0  0  0  0
M  END
>  <minimizedAffinity>
-5.31995773

$$$$

 OpenBabel03272500493D

 37 41  0  0  1  0  0  0  0  0999 V2000
   37.0620   27.7590   31.3630 C   0  0  1  0  0  0  0  0  0  0  0  0
   38.6100   27.5570   31.5080 C   0  0  0  0  0  0  0  0  0  0  0  0
   37.6270   26.6900   32.2090 C   0  0  2  0  0  0  0  0  0  0  0  0
   36.6030   27.4700   30.4190 H   0  0  0  0  0  0  0  0  0  0  0  0
   39.1130   28.3770   32.0280 H   0  0  0  0  0  0  0  0  0  0  0  0
   39.0770   27.2430   30.5530 H   0  0  0  0  0  0  0  0  0  0  0  0
   37.5940   26.8240   33.3160 H   0  0  0  0  0  0  0  0  0  0  0  0
   35.5850   30.2290   33.5370 C   0  0  0  0  0  0  0  0  0  0  0  0
   35.8360   31.0040   32.4170 C   0  0  0  0  0  0  0  0  0  0  0  0
   36.4280   30.1820   31.4390 C   0  0  0  0  0  0  0  0  0  0  0  0
   36.5150   28.9530   31.9910 N   0  0  0  0  0  0  0  0  0  0  0  0
   36.0180   29.0270   33.1970 N   0  0  0  0  0  0  0  0  0  0  0  0
   35.6340   32.0580   32.2640 H   0  0  0  0  0  0  0  0  0  0  0  0
   36.7520   30.4730   30.4370 H   0  0  0  0  0  0  0  0  0  0  0  0
   35.7170   31.5000   35.6950 C   0  0  0  0  0  0  0  0  0  0  0  0
   34.9830   30.7450   34.7320 C   0  0  0  0  0  0  0  0  0  0  0  0
   33.6550   30.5300   34.9990 C   0  0  0  0  0  0  0  0  0  0  0  0
   33.1110   31.0330   36.1430 N   0  0  0  0  0  0  0  0  0  0  0  0
   33.8450   31.7410   37.0280 C   0  0  0  0  0  0  0  0  0  0  0  0
   35.1670   31.9820   36.8070 N   0  0  0  0  0  0  0  0  0  0  0  0
   36.7640   31.6630   35.4730 H   0  0  0  0  0  0  0  0  0  0  0  0
   33.0060   29.9690   34.3330 H   0  0  0  0  0  0  0  0  0  0  0  0
   33.3820   32.1250   37.9250 H   0  0  0  0  0  0  0  0  0  0  0  0
   37.4640   25.2600   31.7960 C   0  0  0  0  0  0  0  0  0  0  0  0
   38.0160   24.6800   30.6660 C   0  0  0  0  0  0  0  0  0  0  0  0
   37.6340   23.3760   30.6380 N   0  0  0  0  0  0  0  0  0  0  0  0
   36.8540   23.1280   31.7280 C   0  0  0  0  0  0  0  0  0  0  0  0
   36.7680   24.2790   32.4080 N   0  0  0  0  0  0  0  0  0  0  0  0
   38.6420   25.1810   29.9330 H   0  0  0  0  0  0  0  0  0  0  0  0
   37.8990   22.6700   29.8950 H   0  0  0  0  0  0  0  0  0  0  0  0
   36.2280   21.8320   32.0820 C   0  0  0  0  0  0  0  0  0  0  0  0
   35.7650   20.9550   31.0810 C   0  0  0  0  0  0  0  0  0  0  0  0
   35.8090   21.1130   29.9620 H   0  0  0  0  0  0  0  0  0  0  0  0
   35.0980   19.5390   32.0360 S   0  0  0  0  0  0  0  0  0  0  0  0
   35.5690   20.3960   33.6640 C   0  0  0  0  0  0  0  0  0  0  0  0
   35.4710   20.1250   34.7940 H   0  0  0  0  0  0  0  0  0  0  0  0
   36.0330   21.3630   33.2990 N   0  0  0  0  0  0  0  0  0  0  0  0
  1  4  1  6  0  0  0
  1  2  1  0  0  0  0
  1 11  1  0  0  0  0
  1  3  1  0  0  0  0
  2  5  1  0  0  0  0
  2  3  1  0  0  0  0
  3  7  1  1  0  0  0
  6  2  1  0  0  0  0
  8 16  1  0  0  0  0
  9  8  1  0  0  0  0
 10 11  1  0  0  0  0
 10  9  2  0  0  0  0
 11 12  1  0  0  0  0
 12  8  2  0  0  0  0
 13  9  1  0  0  0  0
 14 10  1  0  0  0  0
 15 20  1  0  0  0  0
 16 17  1  0  0  0  0
 16 15  2  0  0  0  0
 17 18  2  0  0  0  0
 18 19  1  0  0  0  0
 19 23  1  0  0  0  0
 20 19  2  0  0  0  0
 21 15  1  0  0  0  0
 22 17  1  0  0  0  0
 24  3  1  0  0  0  0
 24 28  1  0  0  0  0
 25 24  2  0  0  0  0
 26 25  1  0  0  0  0
 26 27  1  0  0  0  0
 27 31  1  0  0  0  0
 27 28  2  0  0  0  0
 29 25  1  0  0  0  0
 30 26  1  0  0  0  0
 31 37  1  0  0  0  0
 32 34  1  0  0  0  0
 32 31  2  0  0  0  0
 33 32  1  0  0  0  0
 34 35  1  0  0  0  0
 35 36  1  0  0  0  0
 37 35  2  0  0  0  0
M  END
>  <minimizedAffinity>
-5.27346945

$$$$

 OpenBabel03272500493D

 37 41  0  0  1  0  0  0  0  0999 V2000
   36.6860   27.6330   31.6650 C   0  0  1  0  0  0  0  0  0  0  0  0
   38.1310   27.1590   32.0450 C   0  0  0  0  0  0  0  0  0  0  0  0
   36.9140   26.4580   32.5280 C   0  0  2  0  0  0  0  0  0  0  0  0
   36.3510   27.4570   30.6440 H   0  0  0  0  0  0  0  0  0  0  0  0
   38.6710   27.8630   32.6850 H   0  0  0  0  0  0  0  0  0  0  0  0
   38.6930   26.7950   31.1610 H   0  0  0  0  0  0  0  0  0  0  0  0
   36.7170   26.5640   33.6220 H   0  0  0  0  0  0  0  0  0  0  0  0
   35.4430   30.2780   33.7790 C   0  0  0  0  0  0  0  0  0  0  0  0
   35.7600   30.9990   32.6400 C   0  0  0  0  0  0  0  0  0  0  0  0
   36.2730   30.1040   31.6830 C   0  0  0  0  0  0  0  0  0  0  0  0
   36.2500   28.8870   32.2640 N   0  0  0  0  0  0  0  0  0  0  0  0
   35.7660   29.0340   33.4680 N   0  0  0  0  0  0  0  0  0  0  0  0
   35.6530   32.0640   32.4620 H   0  0  0  0  0  0  0  0  0  0  0  0
   36.6190   30.3410   30.6740 H   0  0  0  0  0  0  0  0  0  0  0  0
   33.5000   30.8240   35.2680 C   0  0  0  0  0  0  0  0  0  0  0  0
   34.8930   30.8740   34.9610 C   0  0  0  0  0  0  0  0  0  0  0  0
   35.6990   31.5270   35.8600 C   0  0  0  0  0  0  0  0  0  0  0  0
   35.1480   32.0830   36.9750 N   0  0  0  0  0  0  0  0  0  0  0  0
   33.8220   32.0120   37.2230 C   0  0  0  0  0  0  0  0  0  0  0  0
   32.9810   31.3760   36.3630 N   0  0  0  0  0  0  0  0  0  0  0  0
   32.8740   30.3070   34.5520 H   0  0  0  0  0  0  0  0  0  0  0  0
   36.7720   31.6220   35.7220 H   0  0  0  0  0  0  0  0  0  0  0  0
   33.4190   32.4650   38.1170 H   0  0  0  0  0  0  0  0  0  0  0  0
   36.5830   25.0920   32.0130 C   0  0  0  0  0  0  0  0  0  0  0  0
   35.4800   24.7670   31.2410 C   0  0  0  0  0  0  0  0  0  0  0  0
   35.5300   23.4340   30.9820 N   0  0  0  0  0  0  0  0  0  0  0  0
   36.6420   22.9170   31.5770 C   0  0  0  0  0  0  0  0  0  0  0  0
   37.2580   23.9360   32.1910 N   0  0  0  0  0  0  0  0  0  0  0  0
   34.7130   25.4570   30.9030 H   0  0  0  0  0  0  0  0  0  0  0  0
   34.8240   22.8870   30.4130 H   0  0  0  0  0  0  0  0  0  0  0  0
   37.0770   21.5000   31.5450 C   0  0  0  0  0  0  0  0  0  0  0  0
   36.1920   20.4820   31.1370 C   0  0  0  0  0  0  0  0  0  0  0  0
   35.1180   20.6040   30.8060 H   0  0  0  0  0  0  0  0  0  0  0  0
   37.2050   18.9600   31.2800 S   0  0  0  0  0  0  0  0  0  0  0  0
   38.6870   19.9860   31.8810 C   0  0  0  0  0  0  0  0  0  0  0  0
   39.7810   19.7390   32.2020 H   0  0  0  0  0  0  0  0  0  0  0  0
   38.2670   21.0380   31.8730 N   0  0  0  0  0  0  0  0  0  0  0  0
  1  4  1  6  0  0  0
  1  2  1  0  0  0  0
  1 11  1  0  0  0  0
  1  3  1  0  0  0  0
  2  3  1  0  0  0  0
  2  5  1  0  0  0  0
  3  7  1  1  0  0  0
  6  2  1  0  0  0  0
  8 16  1  0  0  0  0
  9  8  1  0  0  0  0
 10 11  1  0  0  0  0
 10  9  2  0  0  0  0
 11 12  1  0  0  0  0
 12  8  2  0  0  0  0
 13  9  1  0  0  0  0
 14 10  1  0  0  0  0
 15 20  1  0  0  0  0
 16 15  2  0  0  0  0
 16 17  1  0  0  0  0
 17 18  2  0  0  0  0
 18 19  1  0  0  0  0
 19 23  1  0  0  0  0
 20 19  2  0  0  0  0
 21 15  1  0  0  0  0
 22 17  1  0  0  0  0
 24 28  1  0  0  0  0
 24  3  1  0  0  0  0
 25 24  2  0  0  0  0
 26 25  1  0  0  0  0
 26 27  1  0  0  0  0
 27 28  2  0  0  0  0
 29 25  1  0  0  0  0
 30 26  1  0  0  0  0
 31 27  1  0  0  0  0
 31 37  1  0  0  0  0
 32 34  1  0  0  0  0
 32 31  2  0  0  0  0
 33 32  1  0  0  0  0
 34 35  1  0  0  0  0
 35 36  1  0  0  0  0
 37 35  2  0  0  0  0
M  END
>  <minimizedAffinity>
-5.17406368

$$$$

 OpenBabel03272500493D

 37 41  0  0  1  0  0  0  0  0999 V2000
   35.0060   29.6020   34.8340 C   0  0  1  0  0  0  0  0  0  0  0  0
   34.8270   29.5730   33.2770 C   0  0  0  0  0  0  0  0  0  0  0  0
   36.1190   29.2440   33.9330 C   0  0  2  0  0  0  0  0  0  0  0  0
   34.5400   28.8030   35.4080 H   0  0  0  0  0  0  0  0  0  0  0  0
   34.6510   30.5590   32.8360 H   0  0  0  0  0  0  0  0  0  0  0  0
   34.1240   28.7780   32.9560 H   0  0  0  0  0  0  0  0  0  0  0  0
   36.9280   29.9960   33.7730 H   0  0  0  0  0  0  0  0  0  0  0  0
   34.1800   32.6960   36.4930 C   0  0  0  0  0  0  0  0  0  0  0  0
   35.5230   32.9060   36.2330 C   0  0  0  0  0  0  0  0  0  0  0  0
   36.0240   31.7700   35.5700 C   0  0  0  0  0  0  0  0  0  0  0  0
   34.9830   30.9200   35.4520 N   0  0  0  0  0  0  0  0  0  0  0  0
   33.9430   31.4940   35.9960 N   0  0  0  0  0  0  0  0  0  0  0  0
   36.1320   33.7710   36.4730 H   0  0  0  0  0  0  0  0  0  0  0  0
   37.0460   31.6040   35.2210 H   0  0  0  0  0  0  0  0  0  0  0  0
   33.8640   34.5890   38.1080 C   0  0  0  0  0  0  0  0  0  0  0  0
   33.3480   33.6550   37.1600 C   0  0  0  0  0  0  0  0  0  0  0  0
   32.0000   33.7120   36.9090 C   0  0  0  0  0  0  0  0  0  0  0  0
   31.2360   34.6340   37.5590 N   0  0  0  0  0  0  0  0  0  0  0  0
   31.7670   35.4990   38.4490 C   0  0  0  0  0  0  0  0  0  0  0  0
   33.0990   35.4820   38.7330 N   0  0  0  0  0  0  0  0  0  0  0  0
   34.9280   34.5340   38.2980 H   0  0  0  0  0  0  0  0  0  0  0  0
   31.5070   33.0480   36.2060 H   0  0  0  0  0  0  0  0  0  0  0  0
   31.1320   36.2160   38.9470 H   0  0  0  0  0  0  0  0  0  0  0  0
   36.6280   27.8360   33.9160 C   0  0  0  0  0  0  0  0  0  0  0  0
   36.7100   27.0220   32.7980 C   0  0  0  0  0  0  0  0  0  0  0  0
   37.2150   25.8240   33.1920 N   0  0  0  0  0  0  0  0  0  0  0  0
   37.4510   25.8710   34.5330 C   0  0  0  0  0  0  0  0  0  0  0  0
   37.0890   27.0930   34.9440 N   0  0  0  0  0  0  0  0  0  0  0  0
   36.4210   27.2950   31.7880 H   0  0  0  0  0  0  0  0  0  0  0  0
   37.3960   24.9910   32.5620 H   0  0  0  0  0  0  0  0  0  0  0  0
   38.0010   24.7750   35.3670 C   0  0  0  0  0  0  0  0  0  0  0  0
   38.8580   23.8040   34.8110 C   0  0  0  0  0  0  0  0  0  0  0  0
   39.2100   23.7390   33.7380 H   0  0  0  0  0  0  0  0  0  0  0  0
   39.2370   22.7110   36.2330 S   0  0  0  0  0  0  0  0  0  0  0  0
   38.1470   23.7800   37.3630 C   0  0  0  0  0  0  0  0  0  0  0  0
   37.8500   23.7450   38.4910 H   0  0  0  0  0  0  0  0  0  0  0  0
   37.7760   24.5780   36.6510 N   0  0  0  0  0  0  0  0  0  0  0  0
  1  4  1  1  0  0  0
  1 11  1  0  0  0  0
  2  3  1  0  0  0  0
  2  1  1  0  0  0  0
  3  7  1  6  0  0  0
  3  1  1  0  0  0  0
  5  2  1  0  0  0  0
  6  2  1  0  0  0  0
  8 16  1  0  0  0  0
  9 13  1  0  0  0  0
  9  8  1  0  0  0  0
 10  9  2  0  0  0  0
 11 10  1  0  0  0  0
 11 12  1  0  0  0  0
 12  8  2  0  0  0  0
 14 10  1  0  0  0  0
 15 21  1  0  0  0  0
 15 20  1  0  0  0  0
 16 15  2  0  0  0  0
 17 16  1  0  0  0  0
 17 18  2  0  0  0  0
 18 19  1  0  0  0  0
 19 20  2  0  0  0  0
 19 23  1  0  0  0  0
 22 17  1  0  0  0  0
 24  3  1  0  0  0  0
 24 28  1  0  0  0  0
 25 26  1  0  0  0  0
 25 24  2  0  0  0  0
 26 27  1  0  0  0  0
 27 28  2  0  0  0  0
 27 31  1  0  0  0  0
 29 25  1  0  0  0  0
 30 26  1  0  0  0  0
 31 37  1  0  0  0  0
 32 31  2  0  0  0  0
 32 34  1  0  0  0  0
 33 32  1  0  0  0  0
 34 35  1  0  0  0  0
 35 36  1  0  0  0  0
 37 35  2  0  0  0  0
M  END
>  <minimizedAffinity>
-5.12358141

$$$$

 OpenBabel03272500493D

 37 41  0  0  1  0  0  0  0  0999 V2000
   36.7400   26.6240   32.4520 C   0  0  1  0  0  0  0  0  0  0  0  0
   37.7360   27.4350   31.5540 C   0  0  0  0  0  0  0  0  0  0  0  0
   36.3070   27.8140   31.6950 C   0  0  2  0  0  0  0  0  0  0  0  0
   36.8450   26.7190   33.5320 H   0  0  0  0  0  0  0  0  0  0  0  0
   38.0920   26.8810   30.6800 H   0  0  0  0  0  0  0  0  0  0  0  0
   38.5260   27.9300   32.1550 H   0  0  0  0  0  0  0  0  0  0  0  0
   35.6900   27.6570   30.7790 H   0  0  0  0  0  0  0  0  0  0  0  0
   36.5180   23.1190   31.6320 C   0  0  0  0  0  0  0  0  0  0  0  0
   35.3790   23.5920   31.0040 C   0  0  0  0  0  0  0  0  0  0  0  0
   35.3020   24.9800   31.2240 C   0  0  0  0  0  0  0  0  0  0  0  0
   36.3820   25.2980   31.9680 N   0  0  0  0  0  0  0  0  0  0  0  0
   37.0530   24.1970   32.1790 N   0  0  0  0  0  0  0  0  0  0  0  0
   34.6420   23.0400   30.4310 H   0  0  0  0  0  0  0  0  0  0  0  0
   34.5280   25.6650   30.8680 H   0  0  0  0  0  0  0  0  0  0  0  0
   36.0680   20.7100   31.1010 C   0  0  0  0  0  0  0  0  0  0  0  0
   36.9120   21.7400   31.6130 C   0  0  0  0  0  0  0  0  0  0  0  0
   38.1370   21.3520   32.0950 C   0  0  0  0  0  0  0  0  0  0  0  0
   38.4830   20.0340   32.0640 N   0  0  0  0  0  0  0  0  0  0  0  0
   37.6510   19.0920   31.5700 C   0  0  0  0  0  0  0  0  0  0  0  0
   36.4260   19.4270   31.0800 N   0  0  0  0  0  0  0  0  0  0  0  0
   35.1050   21.0280   30.7230 H   0  0  0  0  0  0  0  0  0  0  0  0
   38.8540   22.0560   32.5070 H   0  0  0  0  0  0  0  0  0  0  0  0
   37.9570   18.0570   31.5610 H   0  0  0  0  0  0  0  0  0  0  0  0
   35.9330   29.0610   32.4350 C   0  0  0  0  0  0  0  0  0  0  0  0
   36.1250   30.3550   31.9800 C   0  0  0  0  0  0  0  0  0  0  0  0
   35.6640   31.2050   32.9350 N   0  0  0  0  0  0  0  0  0  0  0  0
   35.1870   30.4690   33.9780 C   0  0  0  0  0  0  0  0  0  0  0  0
   35.3610   29.1820   33.6510 N   0  0  0  0  0  0  0  0  0  0  0  0
   36.5670   30.6380   31.0290 H   0  0  0  0  0  0  0  0  0  0  0  0
   35.6720   32.2630   32.8790 H   0  0  0  0  0  0  0  0  0  0  0  0
   34.5920   31.0010   35.2280 C   0  0  0  0  0  0  0  0  0  0  0  0
   33.2750   30.6690   35.6000 C   0  0  0  0  0  0  0  0  0  0  0  0
   32.5530   30.0050   35.0360 H   0  0  0  0  0  0  0  0  0  0  0  0
   33.0440   31.5670   37.1820 S   0  0  0  0  0  0  0  0  0  0  0  0
   34.8110   32.2530   37.0670 C   0  0  0  0  0  0  0  0  0  0  0  0
   35.4660   32.9520   37.7320 H   0  0  0  0  0  0  0  0  0  0  0  0
   35.1800   31.8000   36.0960 N   0  0  0  0  0  0  0  0  0  0  0  0
  1  4  1  1  0  0  0
  2  3  1  0  0  0  0
  2  6  1  0  0  0  0
  2  1  1  0  0  0  0
  3  7  1  6  0  0  0
  3 24  1  0  0  0  0
  3  1  1  0  0  0  0
  5  2  1  0  0  0  0
  8 12  2  0  0  0  0
  9 10  2  0  0  0  0
  9  8  1  0  0  0  0
 10 11  1  0  0  0  0
 11 12  1  0  0  0  0
 11  1  1  0  0  0  0
 13  9  1  0  0  0  0
 14 10  1  0  0  0  0
 15 16  1  0  0  0  0
 16  8  1  0  0  0  0
 16 17  2  0  0  0  0
 17 22  1  0  0  0  0
 18 17  1  0  0  0  0
 19 18  2  0  0  0  0
 20 15  2  0  0  0  0
 20 19  1  0  0  0  0
 21 15  1  0  0  0  0
 23 19  1  0  0  0  0
 24 28  1  0  0  0  0
 25 24  2  0  0  0  0
 25 26  1  0  0  0  0
 26 27  1  0  0  0  0
 27 31  1  0  0  0  0
 28 27  2  0  0  0  0
 29 25  1  0  0  0  0
 30 26  1  0  0  0  0
 31 32  2  0  0  0  0
 31 37  1  0  0  0  0
 32 34  1  0  0  0  0
 33 32  1  0  0  0  0
 35 34  1  0  0  0  0
 35 36  1  0  0  0  0
 37 35  2  0  0  0  0
M  END
>  <minimizedAffinity>
-5.11895561

$$$$

 OpenBabel03272500493D

 37 41  0  0  1  0  0  0  0  0999 V2000
   37.9460   26.7610   33.3990 C   0  0  1  0  0  0  0  0  0  0  0  0
   38.8290   26.7750   32.1030 C   0  0  0  0  0  0  0  0  0  0  0  0
   39.3580   27.1930   33.4270 C   0  0  2  0  0  0  0  0  0  0  0  0
   37.7030   25.7930   33.8310 H   0  0  0  0  0  0  0  0  0  0  0  0
   38.5100   27.5130   31.3620 H   0  0  0  0  0  0  0  0  0  0  0  0
   39.0020   25.7530   31.7100 H   0  0  0  0  0  0  0  0  0  0  0  0
   39.5700   28.2850   33.5210 H   0  0  0  0  0  0  0  0  0  0  0  0
   35.6270   29.3810   34.2760 C   0  0  0  0  0  0  0  0  0  0  0  0
   35.1820   29.0730   33.0010 C   0  0  0  0  0  0  0  0  0  0  0  0
   35.9930   28.0420   32.4910 C   0  0  0  0  0  0  0  0  0  0  0  0
   36.8910   27.7630   33.4590 N   0  0  0  0  0  0  0  0  0  0  0  0
   36.6430   28.5560   34.4670 N   0  0  0  0  0  0  0  0  0  0  0  0
   34.3610   29.5140   32.4460 H   0  0  0  0  0  0  0  0  0  0  0  0
   35.9160   27.5620   31.5120 H   0  0  0  0  0  0  0  0  0  0  0  0
   35.8010   31.3210   35.8550 C   0  0  0  0  0  0  0  0  0  0  0  0
   35.0270   30.3920   35.0960 C   0  0  0  0  0  0  0  0  0  0  0  0
   33.6630   30.5090   35.1840 C   0  0  0  0  0  0  0  0  0  0  0  0
   33.1220   31.4810   35.9720 N   0  0  0  0  0  0  0  0  0  0  0  0
   33.8940   32.3380   36.6740 C   0  0  0  0  0  0  0  0  0  0  0  0
   35.2520   32.2630   36.6200 N   0  0  0  0  0  0  0  0  0  0  0  0
   36.8760   31.2200   35.7780 H   0  0  0  0  0  0  0  0  0  0  0  0
   32.9840   29.8540   34.6470 H   0  0  0  0  0  0  0  0  0  0  0  0
   33.4320   33.0960   37.2890 H   0  0  0  0  0  0  0  0  0  0  0  0
   40.3720   26.3460   34.1300 C   0  0  0  0  0  0  0  0  0  0  0  0
   41.7000   26.6830   34.3350 C   0  0  0  0  0  0  0  0  0  0  0  0
   42.2920   25.6570   35.0000 N   0  0  0  0  0  0  0  0  0  0  0  0
   41.3620   24.6840   35.2150 C   0  0  0  0  0  0  0  0  0  0  0  0
   40.2160   25.1240   34.6810 N   0  0  0  0  0  0  0  0  0  0  0  0
   42.1800   27.6050   34.0200 H   0  0  0  0  0  0  0  0  0  0  0  0
   43.3070   25.6190   35.3030 H   0  0  0  0  0  0  0  0  0  0  0  0
   41.5880   23.3920   35.9060 C   0  0  0  0  0  0  0  0  0  0  0  0
   42.6970   22.5850   35.5870 C   0  0  0  0  0  0  0  0  0  0  0  0
   43.5000   22.8010   34.8190 H   0  0  0  0  0  0  0  0  0  0  0  0
   42.5060   21.1420   36.7020 S   0  0  0  0  0  0  0  0  0  0  0  0
   40.9200   21.8950   37.4260 C   0  0  0  0  0  0  0  0  0  0  0  0
   40.1530   21.5670   38.2420 H   0  0  0  0  0  0  0  0  0  0  0  0
   40.8300   22.8640   36.8470 N   0  0  0  0  0  0  0  0  0  0  0  0
  1  3  1  0  0  0  0
  1 11  1  0  0  0  0
  1  4  1  1  0  0  0
  2  1  1  0  0  0  0
  2  3  1  0  0  0  0
  3  7  1  1  0  0  0
  3 24  1  0  0  0  0
  5  2  1  0  0  0  0
  6  2  1  0  0  0  0
  8 12  2  0  0  0  0
  8 16  1  0  0  0  0
  9  8  1  0  0  0  0
 10  9  2  0  0  0  0
 10 11  1  0  0  0  0
 11 12  1  0  0  0  0
 13  9  1  0  0  0  0
 14 10  1  0  0  0  0
 15 20  1  0  0  0  0
 16 17  1  0  0  0  0
 16 15  2  0  0  0  0
 17 18  2  0  0  0  0
 18 19  1  0  0  0  0
 19 23  1  0  0  0  0
 20 19  2  0  0  0  0
 21 15  1  0  0  0  0
 22 17  1  0  0  0  0
 24 25  2  0  0  0  0
 24 28  1  0  0  0  0
 25 26  1  0  0  0  0
 26 27  1  0  0  0  0
 26 30  1  0  0  0  0
 27 31  1  0  0  0  0
 28 27  2  0  0  0  0
 29 25  1  0  0  0  0
 31 37  1  0  0  0  0
 32 31  2  0  0  0  0
 32 34  1  0  0  0  0
 33 32  1  0  0  0  0
 34 35  1  0  0  0  0
 35 36  1  0  0  0  0
 37 35  2  0  0  0  0
M  END
>  <minimizedAffinity>
-5.06053305

$$$$
