REMARK  Name = 
REMARK  6 active torsions:
REMARK  status: ('A' for Active; 'I' for Inactive)
REMARK    1  A    between atoms: C_1  and  O_6
REMARK    2  A    between atoms: C_2  and  S_7
REMARK    3  A    between atoms: C_5  and  O_14
REMARK    4  A    between atoms: S_7  and  C_12
REMARK    5  A    between atoms: O_14  and  C_17
REMARK    6  A    between atoms: C_21  and  C_34
REMARK                            x       y       z     vdW  Elec       q    Type
REMARK                         _______ _______ _______ _____ _____    ______ ____
ROOT
ATOM      1  C   UNL     1      32.167  28.526  47.426  0.00  0.00    +0.000 C 
ATOM      2  C   UNL     1      33.410  28.366  48.248  0.00  0.00    +0.000 C 
ATOM      3  O   UNL     1      33.807  27.067  48.167  0.00  0.00    +0.000 OA
ATOM      4  C   UNL     1      33.105  26.437  47.144  0.00  0.00    +0.000 C 
ATOM      5  C   UNL     1      32.508  27.522  46.278  0.00  0.00    +0.000 C 
ATOM      6  H   UNL     1      31.237  28.242  47.902  0.00  0.00    +0.000 HD
ATOM      7  H   UNL     1      33.196  28.721  49.274  0.00  0.00    +0.000 HD
ATOM      8  H   UNL     1      32.403  25.767  47.618  0.00  0.00    +0.000 HD
ATOM      9  H   UNL     1      33.860  25.881  46.531  0.00  0.00    +0.000 HD
ATOM     10  H   UNL     1      33.230  28.035  45.654  0.00  0.00    +0.000 HD
ENDROOT
BRANCH   1  11
ATOM     11  O   UNL     1      32.091  29.828  46.889  0.00  0.00    +0.000 OA
ATOM     12  H   UNL     1      32.506  29.883  45.998  0.00  0.00    +0.000 HD
ENDBRANCH   1  11
BRANCH   2  13
ATOM     13  S   UNL     1      34.719  29.411  47.497  0.00  0.00    +0.000 S 
BRANCH  13  18
ATOM     14  C   UNL     1      37.135  29.287  50.636  0.00  0.00    +0.000 A 
ATOM     15  C   UNL     1      37.633  30.588  50.755  0.00  0.00    +0.000 A 
ATOM     16  C   UNL     1      37.205  31.544  49.826  0.00  0.00    +0.000 A 
ATOM     17  N   UNL     1      36.332  31.158  48.862  0.00  0.00    +0.000 NA
ATOM     18  C   UNL     1      35.872  29.892  48.777  0.00  0.00    +0.000 A 
ATOM     19  N   UNL     1      36.266  28.940  49.661  0.00  0.00    +0.000 NA
ATOM     20  H   UNL     1      37.482  28.569  51.366  0.00  0.00    +0.000 HD
ATOM     21  H   UNL     1      38.329  30.889  51.526  0.00  0.00    +0.000 HD
ATOM     22  H   UNL     1      37.530  32.575  49.831  0.00  0.00    +0.000 HD
ENDBRANCH  13  18
ENDBRANCH   2  13
BRANCH   5  23
ATOM     23  O   UNL     1      31.362  27.043  45.691  0.00  0.00    +0.000 OA
BRANCH  23  26
ATOM     24 CL   UNL     1      29.882  29.111  44.213  0.00  0.00    +0.000 Cl
ATOM     25  C   UNL     1      29.333  28.124  45.551  0.00  0.00    +0.000 A 
ATOM     26  C   UNL     1      30.123  27.174  46.151  0.00  0.00    +0.000 A 
ATOM     27  C   UNL     1      29.566  26.423  47.187  0.00  0.00    +0.000 A 
ATOM     28  C   UNL     1      28.265  26.635  47.588  0.00  0.00    +0.000 A 
ATOM     29  C   UNL     1      27.467  27.587  46.990  0.00  0.00    +0.000 A 
ATOM     30  C   UNL     1      28.023  28.346  45.947  0.00  0.00    +0.000 A 
ATOM     31  H   UNL     1      30.092  25.651  47.721  0.00  0.00    +0.000 HD
ATOM     32  H   UNL     1      27.800  26.075  48.384  0.00  0.00    +0.000 HD
ATOM     33  H   UNL     1      26.453  27.746  47.309  0.00  0.00    +0.000 HD
BRANCH  30  34
ATOM     34  C   UNL     1      27.218  29.371  45.281  0.00  0.00    +0.000 A 
ATOM     35  C   UNL     1      26.959  29.302  43.917  0.00  0.00    +0.000 A 
ATOM     36  H   UNL     1      27.261  28.550  43.102  0.00  0.00    +0.000 HD
ATOM     37  S   UNL     1      25.902  30.823  43.553  0.00  0.00    +0.000 S 
ATOM     38  C   UNL     1      26.025  31.267  45.389  0.00  0.00    +0.000 A 
ATOM     39  H   UNL     1      25.636  32.142  46.163  0.00  0.00    +0.000 HD
ATOM     40  N   UNL     1      26.653  30.435  45.812  0.00  0.00    +0.000 NA
ENDBRANCH  30  34
ENDBRANCH  23  26
ENDBRANCH   5  23
TORSDOF 6
