REMARK  Name = 
REMARK  2 active torsions:
REMARK  status: ('A' for Active; 'I' for Inactive)
REMARK    1  A    between atoms: C_2  and  C_12
REMARK    2  A    between atoms: C_6  and  C_23
REMARK                            x       y       z     vdW  Elec       q    Type
REMARK                         _______ _______ _______ _____ _____    ______ ____
ROOT
ATOM      1  C   UNL     1      37.057  30.709  46.776  0.00  0.00    +0.000 A 
ATOM      2  C   UNL     1      37.707  31.145  47.923  0.00  0.00    +0.000 A 
ATOM      3  C   UNL     1      38.717  32.065  47.837  0.00  0.00    +0.000 A 
ATOM      4  C   UNL     1      39.056  32.537  46.568  0.00  0.00    +0.000 A 
ATOM      5  N   UNL     1      40.020  33.446  46.255  0.00  0.00    +0.000 N 
ATOM      6  C   UNL     1      39.994  33.596  44.927  0.00  0.00    +0.000 A 
ATOM      7  N   UNL     1      39.036  32.802  44.394  0.00  0.00    +0.000 NA
ATOM      8  C   UNL     1      38.438  32.133  45.396  0.00  0.00    +0.000 A 
ATOM      9  C   UNL     1      37.420  31.201  45.512  0.00  0.00    +0.000 A 
ATOM     10  H   UNL     1      36.257  29.989  46.769  0.00  0.00    +0.000 HD
ATOM     11  H   UNL     1      39.225  32.407  48.726  0.00  0.00    +0.000 HD
ATOM     12  H   UNL     1      40.649  33.922  46.942  0.00  0.00    +0.000 HD
ATOM     13  H   UNL     1      36.930  30.877  44.611  0.00  0.00    +0.000 HD
ENDROOT
BRANCH   2  16
ATOM     14  C   UNL     1      37.394  30.162  51.538  0.00  0.00    +0.000 A 
ATOM     15  C   UNL     1      37.918  30.757  50.391  0.00  0.00    +0.000 A 
ATOM     16  C   UNL     1      37.254  30.573  49.183  0.00  0.00    +0.000 A 
ATOM     17  N   UNL     1      36.116  29.817  49.169  0.00  0.00    +0.000 NA
ATOM     18  C   UNL     1      35.628  29.250  50.297  0.00  0.00    +0.000 A 
ATOM     19  N   UNL     1      36.256  29.418  51.469  0.00  0.00    +0.000 NA
ATOM     20  H   UNL     1      37.973  30.354  52.442  0.00  0.00    +0.000 HD
ATOM     21  H   UNL     1      38.803  31.342  50.414  0.00  0.00    +0.000 HD
ATOM     22  H   UNL     1      34.728  28.649  50.302  0.00  0.00    +0.000 HD
ENDBRANCH   2  16
BRANCH   6  23
ATOM     23  C   UNL     1      40.888  34.502  44.155  0.00  0.00    +0.000 A 
ATOM     24  C   UNL     1      40.565  34.831  42.781  0.00  0.00    +0.000 A 
ATOM     25  H   UNL     1      39.766  34.514  42.229  0.00  0.00    +0.000 HD
ATOM     26  S   UNL     1      41.967  35.945  42.342  0.00  0.00    +0.000 S 
ATOM     27  C   UNL     1      42.734  35.773  44.073  0.00  0.00    +0.000 A 
ATOM     28  H   UNL     1      43.641  36.272  44.349  0.00  0.00    +0.000 HD
ATOM     29  N   UNL     1      41.993  35.028  44.698  0.00  0.00    +0.000 NA
ENDBRANCH   6  23
TORSDOF 2
