REMARK  Name = 
REMARK  3 active torsions:
REMARK  status: ('A' for Active; 'I' for Inactive)
REMARK    1  A    between atoms: C_3  and  C_12
REMARK    2  A    between atoms: C_5  and  C_14
REMARK    3  A    between atoms: C_18  and  C_28
REMARK                            x       y       z     vdW  Elec       q    Type
REMARK                         _______ _______ _______ _____ _____    ______ ____
ROOT
ATOM      1 BR   UNL     1      37.306  29.328  51.024  0.00  0.00    +0.000 Br
ATOM      2  C   UNL     1      35.962  29.331  49.675  0.00  0.00    +0.000 A 
ATOM      3  C   UNL     1      35.991  30.261  48.642  0.00  0.00    +0.000 A 
ATOM      4  C   UNL     1      34.987  30.200  47.707  0.00  0.00    +0.000 A 
ATOM      5  C   UNL     1      33.962  29.273  47.740  0.00  0.00    +0.000 A 
ATOM      6  C   UNL     1      33.966  28.368  48.778  0.00  0.00    +0.000 A 
ATOM      7  C   UNL     1      34.960  28.405  49.731  0.00  0.00    +0.000 A 
ATOM      8  H   UNL     1      34.967  30.902  46.886  0.00  0.00    +0.000 HD
ATOM      9  H   UNL     1      33.191  27.613  48.865  0.00  0.00    +0.000 HD
ATOM     10  H   UNL     1      34.927  27.674  50.533  0.00  0.00    +0.000 HD
ENDROOT
BRANCH   3  15
ATOM     11  C   UNL     1      37.997  33.190  49.451  0.00  0.00    +0.000 A 
ATOM     12  C   UNL     1      39.022  33.165  48.470  0.00  0.00    +0.000 A 
ATOM     13  C   UNL     1      39.004  32.143  47.548  0.00  0.00    +0.000 A 
ATOM     14  N   UNL     1      38.013  31.214  47.625  0.00  0.00    +0.000 NA
ATOM     15  C   UNL     1      37.044  31.252  48.565  0.00  0.00    +0.000 A 
ATOM     16  N   UNL     1      37.050  32.251  49.475  0.00  0.00    +0.000 NA
ATOM     17  H   UNL     1      38.073  34.020  50.141  0.00  0.00    +0.000 HD
ATOM     18  H   UNL     1      39.822  33.874  48.371  0.00  0.00    +0.000 HD
ATOM     19  H   UNL     1      39.679  31.954  46.745  0.00  0.00    +0.000 HD
ENDBRANCH   3  15
BRANCH   5  20
ATOM     20  C   UNL     1      32.907  29.209  46.757  0.00  0.00    +0.000 A 
ATOM     21  C   UNL     1      32.267  28.047  46.359  0.00  0.00    +0.000 A 
ATOM     22  C   UNL     1      31.259  28.015  45.415  0.00  0.00    +0.000 A 
ATOM     23  N   UNL     1      30.874  29.173  44.849  0.00  0.00    +0.000 NA
ATOM     24  C   UNL     1      31.482  30.309  45.221  0.00  0.00    +0.000 A 
ATOM     25  N   UNL     1      32.462  30.312  46.144  0.00  0.00    +0.000 NA
ATOM     26  H   UNL     1      32.585  27.106  46.826  0.00  0.00    +0.000 HD
ATOM     27  H   UNL     1      30.834  27.056  45.184  0.00  0.00    +0.000 HD
BRANCH  24  28
ATOM     28  C   UNL     1      30.985  31.506  44.540  0.00  0.00    +0.000 A 
ATOM     29  C   UNL     1      30.352  32.384  45.515  0.00  0.00    +0.000 A 
ATOM     30  H   UNL     1      30.153  32.393  46.587  0.00  0.00    +0.000 HD
ATOM     31  S   UNL     1      29.785  33.846  44.459  0.00  0.00    +0.000 S 
ATOM     32  C   UNL     1      30.510  32.982  42.928  0.00  0.00    +0.000 A 
ATOM     33  H   UNL     1      30.690  33.052  41.732  0.00  0.00    +0.000 HD
ATOM     34  N   UNL     1      30.933  32.026  43.331  0.00  0.00    +0.000 NA
ENDBRANCH  24  28
ENDBRANCH   5  20
TORSDOF 3
