
     RDKit          3D

 32 34  0  0  0  0  0  0  0  0999 V2000
   39.4428   32.4768   47.1039 O   0  0  0  0  0  0  0  0  0  0  0  0
   38.3028   31.8262   46.4047 P   0  0  2  0  0  0  0  0  0  0  0  0
   37.7264   32.8505   45.1658 O   0  0  0  0  0  0  0  0  0  0  0  0
   37.0221   31.3977   47.4288 O   0  0  0  0  0  0  0  0  0  0  0  0
   37.6141   30.5351   50.9715 C   0  0  0  0  0  0  0  0  0  0  0  0
   37.7069   31.3039   49.8109 C   0  0  0  0  0  0  0  0  0  0  0  0
   37.0707   30.8341   48.6553 C   0  0  0  0  0  0  0  0  0  0  0  0
   36.3958   29.6491   48.7325 N   0  0  0  0  0  0  0  0  0  0  0  0
   36.3279   28.9326   49.8739 C   0  0  0  0  0  0  0  0  0  0  0  0
   36.9361   29.3768   50.9883 N   0  0  0  0  0  0  0  0  0  0  0  0
   38.8560   30.4580   45.6085 O   0  0  0  0  0  0  0  0  0  0  0  0
   36.6241   29.4506   44.0463 Cl  0  0  0  0  0  0  0  0  0  0  0  0
   38.2724   29.8342   43.4834 C   0  0  0  0  0  0  0  0  0  0  0  0
   39.2697   30.3126   44.3141 C   0  0  0  0  0  0  0  0  0  0  0  0
   40.4926   30.5631   43.7312 C   0  0  0  0  0  0  0  0  0  0  0  0
   40.7296   30.3559   42.3993 C   0  0  0  0  0  0  0  0  0  0  0  0
   39.7498   29.8871   41.5888 C   0  0  0  0  0  0  0  0  0  0  0  0
   38.5001   29.6166   42.1156 C   0  0  0  0  0  0  0  0  0  0  0  0
   38.5193   33.3067   44.7595 H   0  0  0  0  0  0  0  0  0  0  0  0
   38.1344   30.9877   51.7870 H   0  0  0  0  0  0  0  0  0  0  0  0
   38.2112   32.2295   49.6773 H   0  0  0  0  0  0  0  0  0  0  0  0
   35.7933   27.9939   49.9353 H   0  0  0  0  0  0  0  0  0  0  0  0
   41.2304   30.9343   44.4280 H   0  0  0  0  0  0  0  0  0  0  0  0
   41.7284   30.5882   42.0549 H   0  0  0  0  0  0  0  0  0  0  0  0
   39.9547   29.7303   40.5434 H   0  0  0  0  0  0  0  0  0  0  0  0
   37.4063   29.1025   41.2547 C   0  0  0  0  0  0  0  0  0  0  0  0
   36.0941   29.1317   41.7135 C   0  0  0  0  0  0  0  0  0  0  0  0
   35.6146   29.4729   42.6444 H   0  0  0  0  0  0  0  0  0  0  0  0
   35.1371   28.3812   40.2653 S   0  0  0  0  0  0  0  0  0  0  0  0
   36.7684   28.1827   39.3204 C   0  0  0  0  0  0  0  0  0  0  0  0
   37.1098   27.7647   38.2532 H   0  0  0  0  0  0  0  0  0  0  0  0
   37.5297   28.5919   40.0384 N   0  0  0  0  0  0  0  0  0  0  0  0
  2  1  2  0
  2  4  1  1
  3  2  1  0
  4  7  1  0
  5 10  2  0
  6  5  1  0
  7  8  1  0
  7  6  2  0
  8  9  2  0
  9 10  1  0
 11  2  1  0
 13 12  1  0
 13 14  2  0
 14 11  1  0
 15 14  1  0
 16 15  2  0
 17 18  2  0
 17 16  1  0
 18 13  1  0
  3 19  1  0
  5 20  1  0
  6 21  1  0
  9 22  1  0
 15 23  1  0
 16 24  1  0
 17 25  1  0
 26 27  2  0
 27 28  1  0
 27 29  1  0
 29 30  1  0
 30 31  1  0
 30 32  2  0
 32 26  1  0
 18 26  1  0
M  ISO  8  19   3  20  14  21  14  22  14  23  14  24  14  25  14  28  15
M  ISO  1  31  16
M  END
>  <DihAtoms>  (1) 
16,17,25,26

>  <DihDeg>  (1) 
0.00033734204152079583

$$$$
