REMARK  Name = 
REMARK  1 active torsions:
REMARK  status: ('A' for Active; 'I' for Inactive)
REMARK    1  A    between atoms: C_2  and  C_22
REMARK                            x       y       z     vdW  Elec       q    Type
REMARK                         _______ _______ _______ _____ _____    ______ ____
ROOT
ATOM      1  C   UNL     1      38.100  33.135  49.487  0.00  0.00    +0.000 A 
ATOM      2  C   UNL     1      38.950  33.054  48.382  0.00  0.00    +0.000 A 
ATOM      3  C   UNL     1      38.715  32.044  47.450  0.00  0.00    +0.000 A 
ATOM      4  N   UNL     1      37.675  31.189  47.658  0.00  0.00    +0.000 NA
ATOM      5  C   UNL     1      36.875  31.306  48.748  0.00  0.00    +0.000 A 
ATOM      6  N   UNL     1      37.075  32.262  49.656  0.00  0.00    +0.000 NA
ATOM      7  N   UNL     1      35.800  30.357  48.890  0.00  0.00    +0.000 N 
ATOM      8  C   UNL     1      34.725  30.197  47.940  0.00  0.00    +0.000 C 
ATOM      9  C   UNL     1      34.026  28.950  48.372  0.00  0.00    +0.000 C 
ATOM     10  C   UNL     1      34.888  28.311  49.437  0.00  0.00    +0.000 C 
ATOM     11  C   UNL     1      35.670  29.436  50.021  0.00  0.00    +0.000 C 
ATOM     12  H   UNL     1      38.263  33.914  50.226  0.00  0.00    +0.000 HD
ATOM     13  H   UNL     1      39.333  31.923  46.571  0.00  0.00    +0.000 HD
ATOM     14  H   UNL     1      34.036  31.059  48.077  0.00  0.00    +0.000 HD
ATOM     15  H   UNL     1      35.077  30.087  46.901  0.00  0.00    +0.000 HD
ATOM     16  H   UNL     1      33.031  29.169  48.784  0.00  0.00    +0.000 HD
ATOM     17  H   UNL     1      33.902  28.246  47.505  0.00  0.00    +0.000 HD
ATOM     18  H   UNL     1      35.577  27.596  48.946  0.00  0.00    +0.000 HD
ATOM     19  H   UNL     1      34.273  27.849  50.221  0.00  0.00    +0.000 HD
ATOM     20  H   UNL     1      35.176  29.927  50.877  0.00  0.00    +0.000 HD
ATOM     21  H   UNL     1      36.702  29.137  50.293  0.00  0.00    +0.000 HD
ENDROOT
BRANCH   2  22
ATOM     22  C   UNL     1      40.062  34.002  48.199  0.00  0.00    +0.000 A 
ATOM     23  C   UNL     1      41.246  33.621  47.524  0.00  0.00    +0.000 A 
ATOM     24  H   UNL     1      41.499  32.623  47.064  0.00  0.00    +0.000 HD
ATOM     25  S   UNL     1      42.268  35.139  47.580  0.00  0.00    +0.000 S 
ATOM     26  C   UNL     1      40.895  36.052  48.525  0.00  0.00    +0.000 A 
ATOM     27  H   UNL     1      40.803  37.127  48.938  0.00  0.00    +0.000 HD
ATOM     28  N   UNL     1      40.094  35.264  48.620  0.00  0.00    +0.000 NA
ENDBRANCH   2  22
TORSDOF 1
