
 OpenBabel03272510203D

 34 37  0  0  0  0  0  0  0  0999 V2000
   37.4360   29.1510   50.8220 Br  0  0  0  0  0  0  0  0  0  0  0  0
   36.0410   29.3020   49.5340 C   0  0  0  0  0  0  0  0  0  0  0  0
   36.0340   30.3390   48.6090 C   0  0  0  0  0  0  0  0  0  0  0  0
   34.9940   30.3810   47.7120 C   0  0  0  0  0  0  0  0  0  0  0  0
   33.9670   29.4560   47.6840 C   0  0  0  0  0  0  0  0  0  0  0  0
   34.0070   28.4430   48.6160 C   0  0  0  0  0  0  0  0  0  0  0  0
   35.0370   28.3760   49.5280 C   0  0  0  0  0  0  0  0  0  0  0  0
   34.9460   31.1680   46.9740 H   0  0  0  0  0  0  0  0  0  0  0  0
   33.2320   27.6840   48.6500 H   0  0  0  0  0  0  0  0  0  0  0  0
   35.0320   27.5620   50.2460 H   0  0  0  0  0  0  0  0  0  0  0  0
   38.0090   33.2390   49.5800 C   0  0  0  0  0  0  0  0  0  0  0  0
   39.0660   33.2470   48.6330 C   0  0  0  0  0  0  0  0  0  0  0  0
   39.0790   32.2570   47.6770 C   0  0  0  0  0  0  0  0  0  0  0  0
   38.0870   31.3260   47.6900 N   0  0  0  0  0  0  0  0  0  0  0  0
   37.0880   31.3320   48.5990 C   0  0  0  0  0  0  0  0  0  0  0  0
   37.0630   32.3000   49.5420 N   0  0  0  0  0  0  0  0  0  0  0  0
   38.0620   34.0460   50.2990 H   0  0  0  0  0  0  0  0  0  0  0  0
   39.8680   33.9590   48.5840 H   0  0  0  0  0  0  0  0  0  0  0  0
   39.7800   32.0950   46.8910 H   0  0  0  0  0  0  0  0  0  0  0  0
   32.8750   29.5000   46.7410 C   0  0  0  0  0  0  0  0  0  0  0  0
   32.0750   28.4200   46.4080 C   0  0  0  0  0  0  0  0  0  0  0  0
   31.0350   28.4900   45.5020 C   0  0  0  0  0  0  0  0  0  0  0  0
   30.7800   29.6710   44.9090 N   0  0  0  0  0  0  0  0  0  0  0  0
   31.5440   30.7290   45.2180 C   0  0  0  0  0  0  0  0  0  0  0  0
   32.5520   30.6320   46.1060 N   0  0  0  0  0  0  0  0  0  0  0  0
   32.2870   27.4600   46.8970 H   0  0  0  0  0  0  0  0  0  0  0  0
   30.4800   27.5880   45.3200 H   0  0  0  0  0  0  0  0  0  0  0  0
   31.1790   31.9590   44.5130 C   0  0  0  0  0  0  0  0  0  0  0  0
   30.1290   31.6660   43.5480 C   0  0  0  0  0  0  0  0  0  0  0  0
   29.5550   30.8010   43.2150 H   0  0  0  0  0  0  0  0  0  0  0  0
   29.8030   33.3510   42.7560 S   0  0  0  0  0  0  0  0  0  0  0  0
   31.1390   34.1040   43.8800 C   0  0  0  0  0  0  0  0  0  0  0  0
   31.7310   35.1140   44.1900 H   0  0  0  0  0  0  0  0  0  0  0  0
   31.5050   33.2350   44.4860 N   0  0  0  0  0  0  0  0  0  0  0  0
  2  1  1  0  0  0  0
  3  2  2  0  0  0  0
  4  3  1  0  0  0  0
  5  4  2  0  0  0  0
  5  6  1  0  0  0  0
  6  9  1  0  0  0  0
  6  7  2  0  0  0  0
  7  2  1  0  0  0  0
  7 10  1  0  0  0  0
  8  4  1  0  0  0  0
 11 17  1  0  0  0  0
 12 11  2  0  0  0  0
 13 14  2  0  0  0  0
 13 12  1  0  0  0  0
 14 15  1  0  0  0  0
 15  3  1  0  0  0  0
 15 16  2  0  0  0  0
 16 11  1  0  0  0  0
 18 12  1  0  0  0  0
 19 13  1  0  0  0  0
 20  5  1  0  0  0  0
 21 20  1  0  0  0  0
 21 26  1  0  0  0  0
 22 21  2  0  0  0  0
 23 24  2  0  0  0  0
 23 22  1  0  0  0  0
 24 25  1  0  0  0  0
 25 20  2  0  0  0  0
 27 22  1  0  0  0  0
 28 24  1  0  0  0  0
 29 28  2  0  0  0  0
 30 29  1  0  0  0  0
 31 29  1  0  0  0  0
 31 32  1  0  0  0  0
 32 33  1  0  0  0  0
 32 34  2  0  0  0  0
 34 28  1  0  0  0  0
M  END
>  <minimizedAffinity>
-6.34511709

>  <minimizedRMSD>
0.566259086

$$$$
