
 OpenBabel03272500563D

 33 35  0  0  0  0  0  0  0  0999 V2000
   38.1090   31.8820   47.4200 C   0  0  0  0  0  0  0  0  0  0  0  0
   38.6170   32.7910   48.3090 C   0  0  0  0  0  0  0  0  0  0  0  0
   38.1500   32.8720   49.6180 C   0  0  0  0  0  0  0  0  0  0  0  0
   37.0970   31.9550   50.0140 C   0  0  0  0  0  0  0  0  0  0  0  0
   36.6390   31.0790   49.0820 C   0  0  0  0  0  0  0  0  0  0  0  0
   37.0890   31.0050   47.8220 C   0  0  0  0  0  0  0  0  0  0  0  0
   39.4130   33.4970   48.0410 H   0  0  0  0  0  0  0  0  0  0  0  0
   38.5810   33.6060   50.2850 H   0  0  0  0  0  0  0  0  0  0  0  0
   36.8410   32.1310   51.0370 H   0  0  0  0  0  0  0  0  0  0  0  0
   35.8940   30.4890   49.5930 H   0  0  0  0  0  0  0  0  0  0  0  0
   39.9600   31.2200   45.9580 C   0  0  0  0  0  0  0  0  0  0  0  0
   38.7180   31.9010   46.1060 C   0  0  0  0  0  0  0  0  0  0  0  0
   38.2390   32.4960   44.9650 C   0  0  0  0  0  0  0  0  0  0  0  0
   38.9200   32.4190   43.8110 N   0  0  0  0  0  0  0  0  0  0  0  0
   40.0830   31.7760   43.6900 C   0  0  0  0  0  0  0  0  0  0  0  0
   40.5890   31.1840   44.7670 N   0  0  0  0  0  0  0  0  0  0  0  0
   40.3920   30.7270   46.8350 H   0  0  0  0  0  0  0  0  0  0  0  0
   37.2970   33.0130   45.0770 H   0  0  0  0  0  0  0  0  0  0  0  0
   40.6540   31.6990   42.7710 H   0  0  0  0  0  0  0  0  0  0  0  0
   35.0810   30.0730   47.0320 C   0  0  0  0  0  0  0  0  0  0  0  0
   34.5000   30.7560   47.9610 O   0  0  0  0  0  0  0  0  0  0  0  0
   36.5610   30.1180   46.9200 N   0  0  0  0  0  0  0  0  0  0  0  0
   37.0290   29.5130   46.2170 H   0  0  0  0  0  0  0  0  0  0  0  0
   34.3960   29.2630   46.0790 O   0  0  0  0  0  0  0  0  0  0  0  0
   33.2160   29.7100   45.5150 C   0  0  0  0  0  0  0  0  0  0  0  0
   33.3530   30.6810   44.7090 O   0  0  0  0  0  0  0  0  0  0  0  0
   31.8180   29.2460   45.7030 C   0  0  0  0  0  0  0  0  0  0  0  0
   31.6490   27.8930   45.9950 C   0  0  0  0  0  0  0  0  0  0  0  0
   32.2290   26.9850   46.1410 H   0  0  0  0  0  0  0  0  0  0  0  0
   29.8350   27.7560   46.1500 S   0  0  0  0  0  0  0  0  0  0  0  0
   29.6050   29.5970   45.7860 C   0  0  0  0  0  0  0  0  0  0  0  0
   28.7520   30.3680   45.6870 H   0  0  0  0  0  0  0  0  0  0  0  0
   30.6970   29.9280   45.6410 N   0  0  0  0  0  0  0  0  0  0  0  0
  1  6  2  0  0  0  0
  1  2  1  0  0  0  0
  2  3  2  0  0  0  0
  3  4  1  0  0  0  0
  3  8  1  0  0  0  0
  4  9  1  0  0  0  0
  5 10  1  0  0  0  0
  5  4  2  0  0  0  0
  6  5  1  0  0  0  0
  7  2  1  0  0  0  0
 11 12  1  0  0  0  0
 11 17  1  0  0  0  0
 12  1  1  0  0  0  0
 13 18  1  0  0  0  0
 13 12  2  0  0  0  0
 14 13  1  0  0  0  0
 15 14  2  0  0  0  0
 15 16  1  0  0  0  0
 16 11  2  0  0  0  0
 19 15  1  0  0  0  0
 20 21  2  0  0  0  0
 22 20  1  0  0  0  0
 22  6  1  0  0  0  0
 23 22  1  0  0  0  0
 24 20  1  0  0  0  0
 25 27  1  0  0  0  0
 25 24  1  0  0  0  0
 26 25  2  0  0  0  0
 27 28  2  0  0  0  0
 28 29  1  0  0  0  0
 28 30  1  0  0  0  0
 31 30  1  0  0  0  0
 32 31  1  0  0  0  0
 33 27  1  0  0  0  0
 33 31  2  0  0  0  0
M  END
>  <minimizedAffinity>
-5.32076883

>  <minimizedRMSD>
0.139300376

$$$$
