
 OpenBabel03272500563D

 33 35  0  0  0  0  0  0  0  0999 V2000
   38.1520   31.8770   47.4020 C   0  0  0  0  0  0  0  0  0  0  0  0
   38.6780   32.7660   48.3010 C   0  0  0  0  0  0  0  0  0  0  0  0
   38.2190   32.8330   49.6140 C   0  0  0  0  0  0  0  0  0  0  0  0
   37.1590   31.9230   50.0030 C   0  0  0  0  0  0  0  0  0  0  0  0
   36.6830   31.0660   49.0610 C   0  0  0  0  0  0  0  0  0  0  0  0
   37.1250   31.0060   47.7980 C   0  0  0  0  0  0  0  0  0  0  0  0
   39.4800   33.4660   48.0380 H   0  0  0  0  0  0  0  0  0  0  0  0
   38.6640   33.5520   50.2890 H   0  0  0  0  0  0  0  0  0  0  0  0
   36.9110   32.0860   51.0300 H   0  0  0  0  0  0  0  0  0  0  0  0
   35.9350   30.4780   49.5680 H   0  0  0  0  0  0  0  0  0  0  0  0
   40.0080   31.2530   45.9280 C   0  0  0  0  0  0  0  0  0  0  0  0
   38.7540   31.9080   46.0840 C   0  0  0  0  0  0  0  0  0  0  0  0
   38.2560   32.4940   44.9460 C   0  0  0  0  0  0  0  0  0  0  0  0
   38.9320   32.4310   43.7880 N   0  0  0  0  0  0  0  0  0  0  0  0
   40.1070   31.8110   43.6600 C   0  0  0  0  0  0  0  0  0  0  0  0
   40.6300   31.2290   44.7340 N   0  0  0  0  0  0  0  0  0  0  0  0
   40.4550   30.7680   46.8030 H   0  0  0  0  0  0  0  0  0  0  0  0
   37.3040   32.9920   45.0640 H   0  0  0  0  0  0  0  0  0  0  0  0
   40.6730   31.7450   42.7380 H   0  0  0  0  0  0  0  0  0  0  0  0
   35.1100   30.0410   47.0670 C   0  0  0  0  0  0  0  0  0  0  0  0
   34.5560   30.6660   48.0510 O   0  0  0  0  0  0  0  0  0  0  0  0
   36.5800   30.1390   46.8850 N   0  0  0  0  0  0  0  0  0  0  0  0
   37.0310   29.5790   46.1350 H   0  0  0  0  0  0  0  0  0  0  0  0
   34.4030   29.2470   46.1160 O   0  0  0  0  0  0  0  0  0  0  0  0
   33.0960   29.5590   45.7930 C   0  0  0  0  0  0  0  0  0  0  0  0
   32.9730   30.3760   44.8310 O   0  0  0  0  0  0  0  0  0  0  0  0
   31.8180   29.0990   46.3910 C   0  0  0  0  0  0  0  0  0  0  0  0
   31.9050   28.0530   47.3100 C   0  0  0  0  0  0  0  0  0  0  0  0
   32.6400   27.4030   47.7760 H   0  0  0  0  0  0  0  0  0  0  0  0
   30.1590   27.8160   47.7900 S   0  0  0  0  0  0  0  0  0  0  0  0
   29.5920   29.2050   46.6410 C   0  0  0  0  0  0  0  0  0  0  0  0
   28.6150   29.7320   46.3220 H   0  0  0  0  0  0  0  0  0  0  0  0
   30.5970   29.5390   46.1890 N   0  0  0  0  0  0  0  0  0  0  0  0
  1  6  2  0  0  0  0
  1  2  1  0  0  0  0
  2  3  2  0  0  0  0
  3  4  1  0  0  0  0
  3  8  1  0  0  0  0
  4  9  1  0  0  0  0
  5 10  1  0  0  0  0
  5  4  2  0  0  0  0
  6  5  1  0  0  0  0
  7  2  1  0  0  0  0
 11 12  1  0  0  0  0
 11 17  1  0  0  0  0
 12  1  1  0  0  0  0
 13 18  1  0  0  0  0
 13 12  2  0  0  0  0
 14 13  1  0  0  0  0
 15 14  2  0  0  0  0
 15 16  1  0  0  0  0
 16 11  2  0  0  0  0
 19 15  1  0  0  0  0
 20 21  2  0  0  0  0
 22 20  1  0  0  0  0
 22  6  1  0  0  0  0
 23 22  1  0  0  0  0
 24 20  1  0  0  0  0
 25 24  1  0  0  0  0
 25 27  1  0  0  0  0
 26 25  2  0  0  0  0
 27 28  2  0  0  0  0
 28 29  1  0  0  0  0
 28 30  1  0  0  0  0
 31 30  1  0  0  0  0
 32 31  1  0  0  0  0
 33 27  1  0  0  0  0
 33 31  2  0  0  0  0
M  END
>  <minimizedAffinity>
-5.62007618

>  <minimizedRMSD>
0.597192168

$$$$
