
 OpenBabel03272500573D

 33 35  0  0  0  0  0  0  0  0999 V2000
   38.1520   31.8710   47.3970 C   0  0  0  0  0  0  0  0  0  0  0  0
   38.6860   32.7500   48.3020 C   0  0  0  0  0  0  0  0  0  0  0  0
   38.2300   32.8120   49.6150 C   0  0  0  0  0  0  0  0  0  0  0  0
   37.1620   31.9080   50.0000 C   0  0  0  0  0  0  0  0  0  0  0  0
   36.6790   31.0610   49.0530 C   0  0  0  0  0  0  0  0  0  0  0  0
   37.1190   31.0050   47.7890 C   0  0  0  0  0  0  0  0  0  0  0  0
   39.4930   33.4460   48.0420 H   0  0  0  0  0  0  0  0  0  0  0  0
   38.6810   33.5230   50.2940 H   0  0  0  0  0  0  0  0  0  0  0  0
   36.9170   32.0660   51.0280 H   0  0  0  0  0  0  0  0  0  0  0  0
   35.9270   30.4750   49.5570 H   0  0  0  0  0  0  0  0  0  0  0  0
   40.0060   31.2510   45.9200 C   0  0  0  0  0  0  0  0  0  0  0  0
   38.7520   31.9060   46.0790 C   0  0  0  0  0  0  0  0  0  0  0  0
   38.2540   32.4960   44.9430 C   0  0  0  0  0  0  0  0  0  0  0  0
   38.9280   32.4360   43.7850 N   0  0  0  0  0  0  0  0  0  0  0  0
   40.1020   31.8160   43.6540 C   0  0  0  0  0  0  0  0  0  0  0  0
   40.6270   31.2310   44.7250 N   0  0  0  0  0  0  0  0  0  0  0  0
   40.4540   30.7630   46.7930 H   0  0  0  0  0  0  0  0  0  0  0  0
   37.3020   32.9940   45.0640 H   0  0  0  0  0  0  0  0  0  0  0  0
   40.6680   31.7530   42.7300 H   0  0  0  0  0  0  0  0  0  0  0  0
   35.0970   30.0500   47.0630 C   0  0  0  0  0  0  0  0  0  0  0  0
   34.5510   30.6650   48.0580 O   0  0  0  0  0  0  0  0  0  0  0  0
   36.5660   30.1480   46.8710 N   0  0  0  0  0  0  0  0  0  0  0  0
   37.0110   29.5950   46.1130 H   0  0  0  0  0  0  0  0  0  0  0  0
   34.3830   29.2670   46.1090 O   0  0  0  0  0  0  0  0  0  0  0  0
   33.1040   29.6340   45.7360 C   0  0  0  0  0  0  0  0  0  0  0  0
   33.0540   30.4750   44.7860 O   0  0  0  0  0  0  0  0  0  0  0  0
   31.7830   29.2120   46.2660 C   0  0  0  0  0  0  0  0  0  0  0  0
   31.7880   28.1340   47.1530 C   0  0  0  0  0  0  0  0  0  0  0  0
   32.4750   27.4390   47.6270 H   0  0  0  0  0  0  0  0  0  0  0  0
   30.0160   27.9580   47.5540 S   0  0  0  0  0  0  0  0  0  0  0  0
   29.5560   29.4050   46.4290 C   0  0  0  0  0  0  0  0  0  0  0  0
   28.6160   29.9840   46.0880 H   0  0  0  0  0  0  0  0  0  0  0  0
   30.5910   29.7090   46.0290 N   0  0  0  0  0  0  0  0  0  0  0  0
  1  6  2  0  0  0  0
  1  2  1  0  0  0  0
  2  3  2  0  0  0  0
  3  4  1  0  0  0  0
  3  8  1  0  0  0  0
  4  9  1  0  0  0  0
  5 10  1  0  0  0  0
  5  4  2  0  0  0  0
  6  5  1  0  0  0  0
  7  2  1  0  0  0  0
 11 12  1  0  0  0  0
 11 17  1  0  0  0  0
 12  1  1  0  0  0  0
 13 18  1  0  0  0  0
 13 12  2  0  0  0  0
 14 13  1  0  0  0  0
 15 14  2  0  0  0  0
 15 16  1  0  0  0  0
 16 11  2  0  0  0  0
 19 15  1  0  0  0  0
 20 21  2  0  0  0  0
 22 20  1  0  0  0  0
 22  6  1  0  0  0  0
 23 22  1  0  0  0  0
 24 20  1  0  0  0  0
 25 24  1  0  0  0  0
 25 27  1  0  0  0  0
 26 25  2  0  0  0  0
 27 28  2  0  0  0  0
 28 30  1  0  0  0  0
 28 29  1  0  0  0  0
 31 30  1  0  0  0  0
 32 31  1  0  0  0  0
 33 27  1  0  0  0  0
 33 31  2  0  0  0  0
M  END
>  <minimizedAffinity>
-5.62022829

>  <minimizedRMSD>
0.582270145

$$$$
