
 OpenBabel03272500573D

 33 35  0  0  0  0  0  0  0  0999 V2000
   38.1450   31.8800   47.4110 C   0  0  0  0  0  0  0  0  0  0  0  0
   38.6540   32.7770   48.3110 C   0  0  0  0  0  0  0  0  0  0  0  0
   38.1820   32.8470   49.6180 C   0  0  0  0  0  0  0  0  0  0  0  0
   37.1260   31.9300   50.0010 C   0  0  0  0  0  0  0  0  0  0  0  0
   36.6670   31.0640   49.0590 C   0  0  0  0  0  0  0  0  0  0  0  0
   37.1220   31.0020   47.8000 C   0  0  0  0  0  0  0  0  0  0  0  0
   39.4530   33.4840   48.0520 H   0  0  0  0  0  0  0  0  0  0  0  0
   38.6140   33.5730   50.2940 H   0  0  0  0  0  0  0  0  0  0  0  0
   36.8660   32.0950   51.0250 H   0  0  0  0  0  0  0  0  0  0  0  0
   35.9190   30.4720   49.5610 H   0  0  0  0  0  0  0  0  0  0  0  0
   40.0140   31.2530   45.9550 C   0  0  0  0  0  0  0  0  0  0  0  0
   38.7590   31.9100   46.0990 C   0  0  0  0  0  0  0  0  0  0  0  0
   38.2740   32.4960   44.9560 C   0  0  0  0  0  0  0  0  0  0  0  0
   38.9600   32.4320   43.8050 N   0  0  0  0  0  0  0  0  0  0  0  0
   40.1360   31.8110   43.6880 C   0  0  0  0  0  0  0  0  0  0  0  0
   40.6480   31.2290   44.7670 N   0  0  0  0  0  0  0  0  0  0  0  0
   40.4530   30.7680   46.8350 H   0  0  0  0  0  0  0  0  0  0  0  0
   37.3210   32.9950   45.0640 H   0  0  0  0  0  0  0  0  0  0  0  0
   40.7110   31.7450   42.7710 H   0  0  0  0  0  0  0  0  0  0  0  0
   35.1200   30.0260   47.0460 C   0  0  0  0  0  0  0  0  0  0  0  0
   34.5490   30.6580   48.0150 O   0  0  0  0  0  0  0  0  0  0  0  0
   36.5930   30.1260   46.8870 N   0  0  0  0  0  0  0  0  0  0  0  0
   37.0580   29.5600   46.1490 H   0  0  0  0  0  0  0  0  0  0  0  0
   34.4310   29.2230   46.0900 O   0  0  0  0  0  0  0  0  0  0  0  0
   33.1190   29.5110   45.7660 C   0  0  0  0  0  0  0  0  0  0  0  0
   32.9800   30.2660   44.7550 O   0  0  0  0  0  0  0  0  0  0  0  0
   31.8500   29.0880   46.4100 C   0  0  0  0  0  0  0  0  0  0  0  0
   30.6890   29.7250   45.9690 C   0  0  0  0  0  0  0  0  0  0  0  0
   30.3640   30.4860   45.2650 H   0  0  0  0  0  0  0  0  0  0  0  0
   29.4010   28.9240   46.9860 S   0  0  0  0  0  0  0  0  0  0  0  0
   30.6780   27.8370   47.8540 C   0  0  0  0  0  0  0  0  0  0  0  0
   30.7200   27.0160   48.6660 H   0  0  0  0  0  0  0  0  0  0  0  0
   31.6480   28.1860   47.3430 N   0  0  0  0  0  0  0  0  0  0  0  0
  1  6  2  0  0  0  0
  1  2  1  0  0  0  0
  2  3  2  0  0  0  0
  3  4  1  0  0  0  0
  3  8  1  0  0  0  0
  4  9  1  0  0  0  0
  5 10  1  0  0  0  0
  5  4  2  0  0  0  0
  6  5  1  0  0  0  0
  7  2  1  0  0  0  0
 11 12  1  0  0  0  0
 11 17  1  0  0  0  0
 12  1  1  0  0  0  0
 13 18  1  0  0  0  0
 13 12  2  0  0  0  0
 14 13  1  0  0  0  0
 15 14  2  0  0  0  0
 15 16  1  0  0  0  0
 16 11  2  0  0  0  0
 19 15  1  0  0  0  0
 20 21  2  0  0  0  0
 22 20  1  0  0  0  0
 22  6  1  0  0  0  0
 23 22  1  0  0  0  0
 24 20  1  0  0  0  0
 25 24  1  0  0  0  0
 25 27  1  0  0  0  0
 26 25  2  0  0  0  0
 27 33  1  0  0  0  0
 28 27  2  0  0  0  0
 28 30  1  0  0  0  0
 29 28  1  0  0  0  0
 30 31  1  0  0  0  0
 31 32  1  0  0  0  0
 33 31  2  0  0  0  0
M  END
>  <minimizedAffinity>
-5.6281209

>  <minimizedRMSD>
0.806130469

$$$$
