
     RDKit          3D

 39 42  0  0  0  0  0  0  0  0999 V2000
   38.2679   32.2881   47.3932 C   0  0  0  0  0  0  0  0  0  0  0  0
   37.9087   32.7311   48.6591 C   0  0  0  0  0  0  0  0  0  0  0  0
   38.6751   33.6845   49.3022 C   0  0  0  0  0  0  0  0  0  0  0  0
   39.8036   34.1997   48.6838 C   0  0  0  0  0  0  0  0  0  0  0  0
   40.1577   33.7561   47.4238 C   0  0  0  0  0  0  0  0  0  0  0  0
   39.3730   32.8068   46.8127 C   0  0  0  0  0  0  0  0  0  0  0  0
   39.7634   32.3375   45.4583 C   0  0  0  0  0  0  0  0  0  0  0  0
   40.6137   31.3244   45.0914 C   0  0  0  0  0  0  0  0  0  0  0  0
   40.6404   31.2878   43.6999 C   0  0  0  0  0  0  0  0  0  0  0  0
   39.7883   32.3005   43.3037 C   0  0  0  0  0  0  0  0  0  0  0  0
   39.2824   32.9062   44.3651 O   0  0  0  0  0  0  0  0  0  0  0  0
   36.7546   30.5189   46.2974 N   0  0  0  0  0  0  0  0  0  0  0  0
   37.4275   31.3047   46.7966 C   0  0  0  0  0  0  0  0  0  0  0  0
   36.8209   32.3112   49.3905 O   0  0  0  0  0  0  0  0  0  0  0  0
   36.7874   31.2063   50.1631 C   0  0  0  0  0  0  0  0  0  0  0  0
   35.6529   30.4248   49.9542 C   0  0  0  0  0  0  0  0  0  0  0  0
   35.4337   29.2596   50.6451 C   0  0  0  0  0  0  0  0  0  0  0  0
   36.3763   28.8884   51.5538 N   0  0  0  0  0  0  0  0  0  0  0  0
   37.4883   29.6569   51.7562 C   0  0  0  0  0  0  0  0  0  0  0  0
   37.6690   30.7758   51.0730 N   0  0  0  0  0  0  0  0  0  0  0  0
   34.1293   29.7207   48.1474 C   0  0  0  0  0  0  0  0  0  0  0  0
   34.5652   28.5148   47.8755 O   0  0  0  0  0  0  0  0  0  0  0  0
   34.6234   30.7093   49.0359 N   0  0  0  0  0  0  0  0  0  0  0  0
   38.4548   34.0745   50.2869 H   0  0  0  0  0  0  0  0  0  0  0  0
   40.4231   34.9363   49.1437 H   0  0  0  0  0  0  0  0  0  0  0  0
   41.0395   34.1581   46.9398 H   0  0  0  0  0  0  0  0  0  0  0  0
   41.1283   30.7145   45.8372 H   0  0  0  0  0  0  0  0  0  0  0  0
   41.2352   30.5780   43.1357 H   0  0  0  0  0  0  0  0  0  0  0  0
   39.5941   32.5281   42.2678 H   0  0  0  0  0  0  0  0  0  0  0  0
   34.5809   28.6092   50.5341 H   0  0  0  0  0  0  0  0  0  0  0  0
   38.2322   29.3541   52.4801 H   0  0  0  0  0  0  0  0  0  0  0  0
   34.2103   31.6627   49.0005 H   0  0  0  0  0  0  0  0  0  0  0  0
   32.9022   30.0882   47.3747 C   0  0  0  0  0  0  0  0  0  0  0  0
   33.0936   30.9564   46.3458 C   0  0  0  0  0  0  0  0  0  0  0  0
   33.8355   31.5450   45.8058 H   0  0  0  0  0  0  0  0  0  0  0  0
   31.4150   31.1996   45.6110 S   0  0  0  0  0  0  0  0  0  0  0  0
   30.7037   29.9961   46.9224 C   0  0  0  0  0  0  0  0  0  0  0  0
   29.7022   29.3863   47.4217 H   0  0  0  0  0  0  0  0  0  0  0  0
   31.6470   29.7273   47.4995 N   0  0  0  0  0  0  0  0  0  0  0  0
  1  2  2  0
  2  3  1  0
  2 14  1  0
  4  3  2  0
  5  4  1  0
  6  1  1  0
  6  5  2  0
  7  6  1  0
  8  7  2  0
  9  8  1  0
 10  9  2  0
 10 11  1  0
 11  7  1  0
 12 13  3  0
 13  1  1  0
 14 15  1  0
 15 20  2  0
 16 15  1  0
 16 17  2  0
 17 18  1  0
 18 19  2  0
 20 19  1  0
 21 23  1  0
 22 21  2  0
 23 16  1  0
  3 24  1  0
  4 25  1  0
  5 26  1  0
  8 27  1  0
  9 28  1  0
 10 29  1  0
 17 30  1  0
 19 31  1  0
 23 32  1  0
 33 34  2  0
 34 35  1  0
 34 36  1  0
 36 37  1  0
 37 38  1  0
 37 39  2  0
 39 33  1  0
 21 33  1  0
M  ISO  8  24  14  25  14  26  14  27  14  28  14  29  14  30  14  31  14
M  ISO  2  35  15  38  16
M  END
>  <DihAtoms>  (1) 
22,20,32,33

>  <DihDeg>  (1) 
-179.97504239457166

$$$$
