
 OpenBabel03272508153D

 28 30  0  0  0  0  0  0  0  0999 V2000
   35.3290   30.1870   44.2740 Cl  0  0  0  0  0  0  0  0  0  0  0  0
   36.9550   29.7450   43.8720 C   0  0  0  0  0  0  0  0  0  0  0  0
   37.0410   28.6050   43.1190 C   0  0  0  0  0  0  0  0  0  0  0  0
   38.3260   28.1630   42.7230 C   0  0  0  0  0  0  0  0  0  0  0  0
   39.4520   28.8390   43.0720 C   0  0  0  0  0  0  0  0  0  0  0  0
   39.3270   29.9850   43.8320 C   0  0  0  0  0  0  0  0  0  0  0  0
   40.7580   30.8860   44.2820 Cl  0  0  0  0  0  0  0  0  0  0  0  0
   38.0860   30.4200   44.2220 C   0  0  0  0  0  0  0  0  0  0  0  0
   38.4950   27.2760   42.1280 H   0  0  0  0  0  0  0  0  0  0  0  0
   40.4490   28.5230   42.7820 H   0  0  0  0  0  0  0  0  0  0  0  0
   35.4660   27.9840   41.3330 C   0  0  0  0  0  0  0  0  0  0  0  0
   35.9820   27.7110   42.6310 C   0  0  0  0  0  0  0  0  0  0  0  0
   35.4660   26.6450   43.3360 C   0  0  0  0  0  0  0  0  0  0  0  0
   34.4840   25.9000   42.7580 N   0  0  0  0  0  0  0  0  0  0  0  0
   34.0110   26.1860   41.5150 C   0  0  0  0  0  0  0  0  0  0  0  0
   34.5020   27.2220   40.8120 N   0  0  0  0  0  0  0  0  0  0  0  0
   35.8150   28.8010   40.7120 H   0  0  0  0  0  0  0  0  0  0  0  0
   35.8690   26.4510   44.3200 H   0  0  0  0  0  0  0  0  0  0  0  0
   33.2370   25.4730   41.2470 H   0  0  0  0  0  0  0  0  0  0  0  0
   37.9150   31.6120   45.0490 C   0  0  0  0  0  0  0  0  0  0  0  0
   37.7920   32.8110   44.6570 O   0  0  0  0  0  0  0  0  0  0  0  0
   37.8830   31.4130   46.5190 C   0  0  0  0  0  0  0  0  0  0  0  0
   38.6670   32.3930   47.3260 C   0  0  0  0  0  0  0  0  0  0  0  0
   39.2600   33.2290   47.1390 H   0  0  0  0  0  0  0  0  0  0  0  0
   38.4000   31.8230   49.0160 S   0  0  0  0  0  0  0  0  0  0  0  0
   37.3040   30.3880   48.4260 C   0  0  0  0  0  0  0  0  0  0  0  0
   36.7050   29.5140   48.8570 H   0  0  0  0  0  0  0  0  0  0  0  0
   37.2810   30.4950   47.2740 N   0  0  0  0  0  0  0  0  0  0  0  0
  2  8  1  0  0  0  0
  2  1  1  0  0  0  0
  3  2  2  0  0  0  0
  4  5  2  0  0  0  0
  4  3  1  0  0  0  0
  5  6  1  0  0  0  0
  6  8  2  0  0  0  0
  6  7  1  0  0  0  0
  8 20  1  0  0  0  0
  9  4  1  0  0  0  0
 10  5  1  0  0  0  0
 11 12  1  0  0  0  0
 12  3  1  0  0  0  0
 12 13  2  0  0  0  0
 13 18  1  0  0  0  0
 14 13  1  0  0  0  0
 15 14  2  0  0  0  0
 16 11  2  0  0  0  0
 16 15  1  0  0  0  0
 17 11  1  0  0  0  0
 19 15  1  0  0  0  0
 20 22  1  0  0  0  0
 21 20  2  0  0  0  0
 22 28  1  0  0  0  0
 22 23  2  0  0  0  0
 23 25  1  0  0  0  0
 24 23  1  0  0  0  0
 26 27  1  0  0  0  0
 26 25  1  0  0  0  0
 28 26  2  0  0  0  0
M  END
>  <minimizedAffinity>
-3.69724345

>  <minimizedRMSD>
5.41127872

$$$$
