REMARK  Name = 
REMARK  3 active torsions:
REMARK  status: ('A' for Active; 'I' for Inactive)
REMARK    1  A    between atoms: C_1  and  C_9
REMARK    2  A    between atoms: C_6  and  N_15
REMARK    3  A    between atoms: C_13  and  C_30
REMARK                            x       y       z     vdW  Elec       q    Type
REMARK                         _______ _______ _______ _____ _____    ______ ____
ROOT
ATOM      1  C   UNL     1      38.133  30.566  47.325  0.00  0.00    +0.000 C 
ATOM      2  C   UNL     1      37.507  30.741  46.022  0.00  0.00    +0.000 C 
ATOM      3  C   UNL     1      38.553  30.561  44.964  0.00  0.00    +0.000 C 
ATOM      4  C   UNL     1      39.808  31.262  45.330  0.00  0.00    +0.000 C 
ATOM      5  C   UNL     1      39.709  32.273  46.395  0.00  0.00    +0.000 C 
ATOM      6  C   UNL     1      38.938  31.830  47.638  0.00  0.00    +0.000 C 
ATOM      7  H   UNL     1      38.909  29.763  47.298  0.00  0.00    +0.000 HD
ATOM      8  H   UNL     1      37.122  31.793  45.889  0.00  0.00    +0.000 HD
ATOM      9  H   UNL     1      36.635  30.050  45.861  0.00  0.00    +0.000 HD
ATOM     10  H   UNL     1      38.158  30.859  43.971  0.00  0.00    +0.000 HD
ATOM     11  H   UNL     1      38.752  29.456  44.891  0.00  0.00    +0.000 HD
ATOM     12  H   UNL     1      40.169  31.777  44.415  0.00  0.00    +0.000 HD
ATOM     13  H   UNL     1      40.607  30.532  45.592  0.00  0.00    +0.000 HD
ATOM     14  H   UNL     1      40.725  32.550  46.742  0.00  0.00    +0.000 HD
ATOM     15  H   UNL     1      39.264  33.249  46.058  0.00  0.00    +0.000 HD
ATOM     16  H   UNL     1      39.656  31.552  48.439  0.00  0.00    +0.000 HD
ENDROOT
BRANCH   1  19
ATOM     17  C   UNL     1      36.937  29.627  50.713  0.00  0.00    +0.000 A 
ATOM     18  C   UNL     1      37.817  29.835  49.616  0.00  0.00    +0.000 A 
ATOM     19  C   UNL     1      37.236  30.365  48.471  0.00  0.00    +0.000 A 
ATOM     20  N   UNL     1      35.880  30.660  48.438  0.00  0.00    +0.000 NA
ATOM     21  C   UNL     1      35.089  30.446  49.498  0.00  0.00    +0.000 A 
ATOM     22  N   UNL     1      35.611  29.925  50.651  0.00  0.00    +0.000 NA
ATOM     23  H   UNL     1      37.328  29.214  51.641  0.00  0.00    +0.000 HD
ATOM     24  H   UNL     1      38.859  29.590  49.692  0.00  0.00    +0.000 HD
ATOM     25  H   UNL     1      34.057  30.717  49.341  0.00  0.00    +0.000 HD
ENDBRANCH   1  19
BRANCH   6  28
ATOM     26  C   UNL     1      38.274  33.805  49.246  0.00  0.00    +0.000 C 
ATOM     27  O   UNL     1      39.346  33.627  49.853  0.00  0.00    +0.000 OA
ATOM     28  N   UNL     1      38.144  32.914  48.144  0.00  0.00    +0.000 N 
ATOM     29  H   UNL     1      37.286  33.024  47.513  0.00  0.00    +0.000 HD
BRANCH  26  30
ATOM     30  C   UNL     1      37.280  34.799  49.618  0.00  0.00    +0.000 A 
ATOM     31  C   UNL     1      36.962  35.797  48.640  0.00  0.00    +0.000 A 
ATOM     32  H   UNL     1      37.318  35.940  47.703  0.00  0.00    +0.000 HD
ATOM     33  S   UNL     1      35.742  36.756  49.515  0.00  0.00    +0.000 S 
ATOM     34  C   UNL     1      35.836  35.668  51.084  0.00  0.00    +0.000 A 
ATOM     35  H   UNL     1      35.292  35.761  52.013  0.00  0.00    +0.000 HD
ATOM     36  N   UNL     1      36.698  34.773  50.815  0.00  0.00    +0.000 NA
ENDBRANCH  26  30
ENDBRANCH   6  28
TORSDOF 3
