
     RDKit          3D

 36 38  0  0  0  0  0  0  0  0999 V2000
   38.1330   30.5657   47.3251 C   0  0  1  0  0  0  0  0  0  0  0  0
   37.5067   30.7414   46.0217 C   0  0  0  0  0  0  0  0  0  0  0  0
   38.5535   30.5611   44.9642 C   0  0  0  0  0  0  0  0  0  0  0  0
   39.8082   31.2621   45.3302 C   0  0  0  0  0  0  0  0  0  0  0  0
   39.7090   32.2734   46.3948 C   0  0  0  0  0  0  0  0  0  0  0  0
   38.9383   31.8299   47.6378 C   0  0  1  0  0  0  0  0  0  0  0  0
   36.9374   29.6266   50.7130 C   0  0  0  0  0  0  0  0  0  0  0  0
   37.8173   29.8349   49.6158 C   0  0  0  0  0  0  0  0  0  0  0  0
   37.2357   30.3652   48.4707 C   0  0  0  0  0  0  0  0  0  0  0  0
   35.8801   30.6598   48.4380 N   0  0  0  0  0  0  0  0  0  0  0  0
   35.0889   30.4462   49.4978 C   0  0  0  0  0  0  0  0  0  0  0  0
   35.6109   29.9252   50.6515 N   0  0  0  0  0  0  0  0  0  0  0  0
   38.2740   33.8052   49.2464 C   0  0  0  0  0  0  0  0  0  0  0  0
   39.3461   33.6272   49.8533 O   0  0  0  0  0  0  0  0  0  0  0  0
   38.1441   32.9140   48.1437 N   0  0  0  0  0  0  0  0  0  0  0  0
   38.9091   29.7631   47.2981 H   0  0  0  0  0  0  0  0  0  0  0  0
   37.1217   31.7927   45.8886 H   0  0  0  0  0  0  0  0  0  0  0  0
   36.6353   30.0497   45.8606 H   0  0  0  0  0  0  0  0  0  0  0  0
   38.1584   30.8586   43.9708 H   0  0  0  0  0  0  0  0  0  0  0  0
   38.7524   29.4558   44.8913 H   0  0  0  0  0  0  0  0  0  0  0  0
   40.1688   31.7767   44.4150 H   0  0  0  0  0  0  0  0  0  0  0  0
   40.6070   30.5321   45.5922 H   0  0  0  0  0  0  0  0  0  0  0  0
   40.7250   32.5501   46.7424 H   0  0  0  0  0  0  0  0  0  0  0  0
   39.2637   33.2493   46.0576 H   0  0  0  0  0  0  0  0  0  0  0  0
   39.6556   31.5521   48.4394 H   0  0  0  0  0  0  0  0  0  0  0  0
   37.3284   29.2138   51.6409 H   0  0  0  0  0  0  0  0  0  0  0  0
   38.8591   29.5903   49.6921 H   0  0  0  0  0  0  0  0  0  0  0  0
   34.0571   30.7174   49.3411 H   0  0  0  0  0  0  0  0  0  0  0  0
   37.2860   33.0240   47.5127 H   0  0  0  0  0  0  0  0  0  0  0  0
   37.2797   34.7989   49.6180 C   0  0  0  0  0  0  0  0  0  0  0  0
   36.7183   35.5838   48.5590 C   0  0  0  0  0  0  0  0  0  0  0  0
   36.8959   35.5706   47.5618 H   0  0  0  0  0  0  0  0  0  0  0  0
   35.5916   36.6243   49.4647 S   0  0  0  0  0  0  0  0  0  0  0  0
   36.0413   35.8474   51.1524 C   0  0  0  0  0  0  0  0  0  0  0  0
   35.6582   36.0819   52.1359 H   0  0  0  0  0  0  0  0  0  0  0  0
   36.9152   34.9631   50.8877 N   0  0  0  0  0  0  0  0  0  0  0  0
  1  6  1  0
  1  9  1  0
  2  1  1  0
  3  4  1  0
  3  2  1  0
  4  5  1  0
  5  6  1  0
  6 15  1  0
  8  7  2  0
  9  8  1  0
 10  9  2  0
 10 11  1  0
 11 12  2  0
 12  7  1  0
 13 14  2  0
 15 13  1  0
  1 16  1  6
  2 17  1  0
  2 18  1  0
  3 19  1  0
  3 20  1  0
  4 21  1  0
  4 22  1  0
  5 23  1  0
  5 24  1  0
  6 25  1  1
  7 26  1  0
  8 27  1  0
 11 28  1  0
 15 29  1  0
 30 31  2  0
 31 32  1  0
 31 33  1  0
 33 34  1  0
 34 35  1  0
 34 36  2  0
 36 30  1  0
 13 30  1  0
M  ISO  8  16  13  17  13  18  13  19  13  20  13  21  13  22  13  23  13
M  ISO  7  24  13  25  13  26  14  27  14  28  14  32  15  35  16
M  END
>  <DihAtoms>  (1) 
13,12,29,30

>  <DihDeg>  (1) 
0.008412761495934968

$$$$
