
 OpenBabel03272507413D

 39 42  0  0  0  0  0  0  0  0999 V2000
   36.7860   32.2820   49.2510 O   0  0  0  0  0  0  0  0  0  0  0  0
   38.2580   32.2550   47.2710 C   0  0  0  0  0  0  0  0  0  0  0  0
   37.8900   32.6920   48.5370 C   0  0  0  0  0  0  0  0  0  0  0  0
   38.6610   33.6270   49.1980 C   0  0  0  0  0  0  0  0  0  0  0  0
   39.8060   34.1320   48.6000 C   0  0  0  0  0  0  0  0  0  0  0  0
   40.1690   33.6940   47.3400 C   0  0  0  0  0  0  0  0  0  0  0  0
   39.3780   32.7630   46.7100 C   0  0  0  0  0  0  0  0  0  0  0  0
   38.4350   34.0120   50.1840 H   0  0  0  0  0  0  0  0  0  0  0  0
   40.4300   34.8540   49.0750 H   0  0  0  0  0  0  0  0  0  0  0  0
   41.0620   34.0880   46.8710 H   0  0  0  0  0  0  0  0  0  0  0  0
   39.7780   32.3000   45.3560 C   0  0  0  0  0  0  0  0  0  0  0  0
   40.6040   31.2660   44.9900 C   0  0  0  0  0  0  0  0  0  0  0  0
   40.6550   31.2480   43.5990 C   0  0  0  0  0  0  0  0  0  0  0  0
   39.8420   32.2920   43.2020 C   0  0  0  0  0  0  0  0  0  0  0  0
   39.3360   32.8990   44.2630 O   0  0  0  0  0  0  0  0  0  0  0  0
   41.0850   30.6310   45.7360 H   0  0  0  0  0  0  0  0  0  0  0  0
   41.2380   30.5280   43.0360 H   0  0  0  0  0  0  0  0  0  0  0  0
   39.6750   32.5410   42.1660 H   0  0  0  0  0  0  0  0  0  0  0  0
   36.7330   30.5200   46.1390 N   0  0  0  0  0  0  0  0  0  0  0  0
   37.4110   31.2910   46.6550 C   0  0  0  0  0  0  0  0  0  0  0  0
   36.7580   31.2320   50.0970 C   0  0  0  0  0  0  0  0  0  0  0  0
   35.7260   30.3370   49.8280 C   0  0  0  0  0  0  0  0  0  0  0  0
   35.5290   29.2060   50.5790 C   0  0  0  0  0  0  0  0  0  0  0  0
   36.3890   28.9850   51.6100 N   0  0  0  0  0  0  0  0  0  0  0  0
   37.4010   29.8660   51.8710 C   0  0  0  0  0  0  0  0  0  0  0  0
   37.5630   30.9480   51.1280 N   0  0  0  0  0  0  0  0  0  0  0  0
   34.7520   28.4720   50.4260 H   0  0  0  0  0  0  0  0  0  0  0  0
   38.0800   29.6820   52.6930 H   0  0  0  0  0  0  0  0  0  0  0  0
   34.3350   29.3330   48.0550 C   0  0  0  0  0  0  0  0  0  0  0  0
   34.7490   28.0900   48.0540 O   0  0  0  0  0  0  0  0  0  0  0  0
   34.7870   30.4620   48.7850 N   0  0  0  0  0  0  0  0  0  0  0  0
   34.4130   31.4000   48.5350 H   0  0  0  0  0  0  0  0  0  0  0  0
   33.1910   29.5710   47.1220 C   0  0  0  0  0  0  0  0  0  0  0  0
   32.2890   28.5580   47.0270 C   0  0  0  0  0  0  0  0  0  0  0  0
   32.0350   27.5590   47.3810 H   0  0  0  0  0  0  0  0  0  0  0  0
   31.0270   29.1580   45.8160 S   0  0  0  0  0  0  0  0  0  0  0  0
   32.0180   30.7890   45.6430 C   0  0  0  0  0  0  0  0  0  0  0  0
   32.1470   31.9430   45.1170 H   0  0  0  0  0  0  0  0  0  0  0  0
   32.8810   30.5920   46.3580 N   0  0  0  0  0  0  0  0  0  0  0  0
  1 21  1  0  0  0  0
  2  3  1  0  0  0  0
  3  4  2  0  0  0  0
  3  1  1  0  0  0  0
  4  8  1  0  0  0  0
  5  9  1  0  0  0  0
  5  4  1  0  0  0  0
  6  5  2  0  0  0  0
  7  2  2  0  0  0  0
  7  6  1  0  0  0  0
 10  6  1  0  0  0  0
 11  7  1  0  0  0  0
 12 11  2  0  0  0  0
 12 16  1  0  0  0  0
 13 12  1  0  0  0  0
 14 13  2  0  0  0  0
 14 15  1  0  0  0  0
 15 11  1  0  0  0  0
 17 13  1  0  0  0  0
 18 14  1  0  0  0  0
 19 20  3  0  0  0  0
 20  2  1  0  0  0  0
 21 26  1  0  0  0  0
 22 21  2  0  0  0  0
 22 23  1  0  0  0  0
 23 24  2  0  0  0  0
 24 25  1  0  0  0  0
 25 28  1  0  0  0  0
 26 25  2  0  0  0  0
 27 23  1  0  0  0  0
 29 31  1  0  0  0  0
 30 29  2  0  0  0  0
 31 22  1  0  0  0  0
 32 31  1  0  0  0  0
 33 29  1  0  0  0  0
 34 33  2  0  0  0  0
 34 35  1  0  0  0  0
 36 34  1  0  0  0  0
 37 36  1  0  0  0  0
 37 39  2  0  0  0  0
 38 37  1  0  0  0  0
 39 33  1  0  0  0  0
M  END
>  <minimizedAffinity>
-6.02170277

>  <minimizedRMSD>
0.405632168

$$$$
