REMARK  Name = 
REMARK  3 active torsions:
REMARK  status: ('A' for Active; 'I' for Inactive)
REMARK    1  A    between atoms: C_3  and  C_10
REMARK    2  A    between atoms: C_8  and  C_15
REMARK    3  A    between atoms: C_15  and  C_22
REMARK                            x       y       z     vdW  Elec       q    Type
REMARK                         _______ _______ _______ _____ _____    ______ ____
ROOT
ATOM      1 CL   UNL     1      36.730  31.815  50.232  0.00  0.00    +0.000 Cl
ATOM      2  C   UNL     1      37.388  31.737  48.631  0.00  0.00    +0.000 A 
ATOM      3  C   UNL     1      36.733  30.855  47.814  0.00  0.00    +0.000 A 
ATOM      4  C   UNL     1      37.182  30.725  46.478  0.00  0.00    +0.000 A 
ATOM      5  C   UNL     1      38.231  31.447  46.004  0.00  0.00    +0.000 A 
ATOM      6  C   UNL     1      38.867  32.327  46.857  0.00  0.00    +0.000 A 
ATOM      7 CL   UNL     1      40.210  33.283  46.270  0.00  0.00    +0.000 Cl
ATOM      8  C   UNL     1      38.441  32.459  48.154  0.00  0.00    +0.000 A 
ATOM      9  H   UNL     1      36.729  30.056  45.759  0.00  0.00    +0.000 HD
ATOM     10  H   UNL     1      38.595  31.367  44.985  0.00  0.00    +0.000 HD
ENDROOT
BRANCH   3  12
ATOM     11  C   UNL     1      35.788  28.984  49.104  0.00  0.00    +0.000 A 
ATOM     12  C   UNL     1      35.594  29.970  48.096  0.00  0.00    +0.000 A 
ATOM     13  C   UNL     1      34.373  30.032  47.459  0.00  0.00    +0.000 A 
ATOM     14  N   UNL     1      33.406  29.146  47.823  0.00  0.00    +0.000 NA
ATOM     15  C   UNL     1      33.622  28.215  48.791  0.00  0.00    +0.000 A 
ATOM     16  N   UNL     1      34.806  28.139  49.424  0.00  0.00    +0.000 NA
ATOM     17  H   UNL     1      36.715  28.867  49.653  0.00  0.00    +0.000 HD
ATOM     18  H   UNL     1      34.243  30.787  46.696  0.00  0.00    +0.000 HD
ATOM     19  H   UNL     1      32.727  27.615  48.924  0.00  0.00    +0.000 HD
ENDBRANCH   3  12
BRANCH   8  20
ATOM     20  C   UNL     1      39.105  33.359  49.093  0.00  0.00    +0.000 C 
ATOM     21  O   UNL     1      39.372  34.586  48.927  0.00  0.00    +0.000 OA
BRANCH  20  22
ATOM     22  C   UNL     1      39.524  32.784  50.395  0.00  0.00    +0.000 A 
ATOM     23  C   UNL     1      38.739  31.610  50.873  0.00  0.00    +0.000 A 
ATOM     24  H   UNL     1      37.937  31.041  50.528  0.00  0.00    +0.000 HD
ATOM     25  S   UNL     1      39.520  31.221  52.451  0.00  0.00    +0.000 S 
ATOM     26  C   UNL     1      40.760  32.649  52.261  0.00  0.00    +0.000 A 
ATOM     27  H   UNL     1      41.633  33.126  52.823  0.00  0.00    +0.000 HD
ATOM     28  N   UNL     1      40.487  33.135  51.246  0.00  0.00    +0.000 NA
ENDBRANCH  20  22
ENDBRANCH   8  20
TORSDOF 3
