REMARK  Name = 
REMARK  5 active torsions:
REMARK  status: ('A' for Active; 'I' for Inactive)
REMARK    1  A    between atoms: C_11  and  C_12
REMARK    2  A    between atoms: C_11  and  C_16
REMARK    3  A    between atoms: C_16  and  O_17
REMARK    4  A    between atoms: O_17  and  C_18
REMARK    5  A    between atoms: C_18  and  C_31
REMARK                            x       y       z     vdW  Elec       q    Type
REMARK                         _______ _______ _______ _____ _____    ______ ____
ROOT
ATOM      1  C   UNL     1      36.683  29.908  49.038  0.00  0.00    +0.000 A 
ATOM      2  C   UNL     1      37.707  30.584  48.342  0.00  0.00    +0.000 A 
ATOM      3  C   UNL     1      37.473  30.898  46.994  0.00  0.00    +0.000 A 
ATOM      4  N   UNL     1      36.303  30.543  46.450  0.00  0.00    +0.000 NA
ATOM      5  C   UNL     1      35.341  29.895  47.147  0.00  0.00    +0.000 A 
ATOM      6  N   UNL     1      35.541  29.586  48.428  0.00  0.00    +0.000 NA
ATOM      7  N   UNL     1      38.450  31.568  46.244  0.00  0.00    +0.000 N 
ATOM      8  C   UNL     1      39.442  32.506  46.775  0.00  0.00    +0.000 C 
ATOM      9  C   UNL     1      40.132  33.132  45.612  0.00  0.00    +0.000 C 
ATOM     10  C   UNL     1      39.191  32.874  44.506  0.00  0.00    +0.000 C 
ATOM     11  C   UNL     1      38.699  31.495  44.834  0.00  0.00    +0.000 C 
ATOM     12  H   UNL     1      36.873  29.673  50.069  0.00  0.00    +0.000 HD
ATOM     13  H   UNL     1      38.638  30.861  48.792  0.00  0.00    +0.000 HD
ATOM     14  H   UNL     1      34.406  29.624  46.672  0.00  0.00    +0.000 HD
ATOM     15  H   UNL     1      38.944  33.233  47.449  0.00  0.00    +0.000 HD
ATOM     16  H   UNL     1      40.170  31.868  47.351  0.00  0.00    +0.000 HD
ATOM     17  H   UNL     1      40.209  34.234  45.853  0.00  0.00    +0.000 HD
ATOM     18  H   UNL     1      41.168  32.819  45.435  0.00  0.00    +0.000 HD
ATOM     19  H   UNL     1      39.644  32.935  43.493  0.00  0.00    +0.000 HD
ATOM     20  H   UNL     1      38.336  33.563  44.544  0.00  0.00    +0.000 HD
ENDROOT
BRANCH  11  21
ATOM     21  C   UNL     1      37.597  31.023  43.962  0.00  0.00    +0.000 C 
ATOM     22  F   UNL     1      36.468  31.747  44.342  0.00  0.00    +0.000 F 
ATOM     23  F   UNL     1      37.280  29.708  44.023  0.00  0.00    +0.000 F 
ATOM     24  F   UNL     1      37.903  31.451  42.682  0.00  0.00    +0.000 F 
ENDBRANCH  11  21
BRANCH  11  25
ATOM     25  C   UNL     1      39.838  30.548  44.674  0.00  0.00    +0.000 C 
ATOM     26  H   UNL     1      39.440  29.578  45.089  0.00  0.00    +0.000 HD
ATOM     27  H   UNL     1      40.606  30.862  45.446  0.00  0.00    +0.000 HD
BRANCH  25  28
ATOM     28  O   UNL     1      40.355  30.746  43.574  0.00  0.00    +0.000 OA
BRANCH  28  29
ATOM     29  C   UNL     1      40.911  30.061  42.553  0.00  0.00    +0.000 C 
ATOM     30  O   UNL     1      40.624  30.672  41.455  0.00  0.00    +0.000 OA
BRANCH  29  31
ATOM     31  C   UNL     1      41.741  28.848  42.273  0.00  0.00    +0.000 A 
ATOM     32  C   UNL     1      43.123  29.058  42.606  0.00  0.00    +0.000 A 
ATOM     33  H   UNL     1      43.864  29.729  42.980  0.00  0.00    +0.000 HD
ATOM     34  S   UNL     1      43.840  27.513  42.197  0.00  0.00    +0.000 S 
ATOM     35  C   UNL     1      42.220  26.736  41.620  0.00  0.00    +0.000 A 
ATOM     36  H   UNL     1      41.729  25.822  41.206  0.00  0.00    +0.000 HD
ATOM     37  N   UNL     1      41.538  27.638  41.809  0.00  0.00    +0.000 NA
ENDBRANCH  29  31
ENDBRANCH  28  29
ENDBRANCH  25  28
ENDBRANCH  11  25
TORSDOF 5
