
     RDKit          3D

 27 29  0  0  0  0  0  0  0  0999 V2000
   38.3718   30.5877   47.0965 C   0  0  2  0  0  0  0  0  0  0  0  0
   36.9789   30.5541   47.5207 C   0  0  0  0  0  0  0  0  0  0  0  0
   38.0873   31.1306   48.4215 C   0  0  1  0  0  0  0  0  0  0  0  0
   40.6074   32.6848   45.0221 C   0  0  0  0  0  0  0  0  0  0  0  0
   39.7267   33.1872   44.0275 C   0  0  0  0  0  0  0  0  0  0  0  0
   38.3531   32.7778   44.1058 C   0  0  0  0  0  0  0  0  0  0  0  0
   37.9658   31.9468   45.1049 N   0  0  0  0  0  0  0  0  0  0  0  0
   38.8643   31.5026   46.0245 C   0  0  0  0  0  0  0  0  0  0  0  0
   40.1722   31.8493   46.0095 N   0  0  0  0  0  0  0  0  0  0  0  0
   37.7010   30.5370   50.7884 C   0  0  0  0  0  0  0  0  0  0  0  0
   36.7357   31.3395   50.8048 O   0  0  0  0  0  0  0  0  0  0  0  0
   38.4096   30.2727   49.5659 N   0  0  0  0  0  0  0  0  0  0  0  0
   38.9874   29.6283   47.1164 H   0  0  0  0  0  0  0  0  0  0  0  0
   36.2423   31.2703   47.0743 H   0  0  0  0  0  0  0  0  0  0  0  0
   36.5065   29.6462   47.8875 H   0  0  0  0  0  0  0  0  0  0  0  0
   37.8440   32.1687   48.6883 H   0  0  0  0  0  0  0  0  0  0  0  0
   41.6208   33.0393   44.8940 H   0  0  0  0  0  0  0  0  0  0  0  0
   40.0576   33.8367   43.2561 H   0  0  0  0  0  0  0  0  0  0  0  0
   37.6450   33.1257   43.3831 H   0  0  0  0  0  0  0  0  0  0  0  0
   39.0954   29.5062   49.5603 H   0  0  0  0  0  0  0  0  0  0  0  0
   38.1283   29.8466   52.0293 C   0  0  0  0  0  0  0  0  0  0  0  0
   38.8745   30.6920   52.9961 C   0  0  0  0  0  0  0  0  0  0  0  0
   39.1597   31.6595   52.9884 H   0  0  0  0  0  0  0  0  0  0  0  0
   39.2010   29.5624   54.2964 S   0  0  0  0  0  0  0  0  0  0  0  0
   38.3258   28.1118   53.4312 C   0  0  0  0  0  0  0  0  0  0  0  0
   38.1417   27.0761   53.6765 H   0  0  0  0  0  0  0  0  0  0  0  0
   37.8891   28.5833   52.3001 N   0  0  0  0  0  0  0  0  0  0  0  0
  1  2  1  0
  1  3  1  0
  2  3  1  0
  3 12  1  0
  4  9  2  0
  5  6  2  0
  5  4  1  0
  6  7  1  0
  7  8  2  0
  8  1  1  0
  9  8  1  0
 10 11  2  0
 12 10  1  0
  1 13  1  1
  2 14  1  0
  2 15  1  0
  3 16  1  1
  4 17  1  0
  5 18  1  0
  6 19  1  0
 12 20  1  0
 21 22  2  0
 22 23  1  0
 22 24  1  0
 24 25  1  0
 25 26  1  0
 25 27  2  0
 27 21  1  0
 10 21  1  0
M  ISO  8  13  13  14  13  15  13  16  13  17  14  18  14  19  14  23  15
M  ISO  1  26  16
M  END
>  <DihAtoms>  (1) 
10,9,20,21

>  <DihDeg>  (1) 
-0.005542365542899558

$$$$
