
 OpenBabel03272509323D

 36 38  0  0  1  0  0  0  0  0999 V2000
   38.3560   25.9110   34.1830 C   0  0  2  0  0  0  0  0  0  0  0  0
   38.1930   27.2250   34.8870 C   0  0  0  0  0  0  0  0  0  0  0  0
   36.8500   27.8700   34.6240 C   0  0  0  0  0  0  0  0  0  0  0  0
   36.6390   28.0610   33.1220 C   0  0  0  0  0  0  0  0  0  0  0  0
   37.1710   26.9330   32.2820 C   0  0  0  0  0  0  0  0  0  0  0  0
   37.2820   25.6820   33.1750 C   0  0  1  0  0  0  0  0  0  0  0  0
   39.3540   25.8110   33.6460 H   0  0  0  0  0  0  0  0  0  0  0  0
   38.4640   27.2620   35.9240 H   0  0  0  0  0  0  0  0  0  0  0  0
   38.9240   27.9180   34.3490 H   0  0  0  0  0  0  0  0  0  0  0  0
   36.8750   28.8530   35.1030 H   0  0  0  0  0  0  0  0  0  0  0  0
   35.9980   27.2840   34.9860 H   0  0  0  0  0  0  0  0  0  0  0  0
   37.2070   28.9840   32.8610 H   0  0  0  0  0  0  0  0  0  0  0  0
   35.5600   28.2670   32.9520 H   0  0  0  0  0  0  0  0  0  0  0  0
   38.1610   27.1090   31.8590 H   0  0  0  0  0  0  0  0  0  0  0  0
   36.4160   26.6630   31.5140 H   0  0  0  0  0  0  0  0  0  0  0  0
   36.3190   25.6910   33.6260 H   0  0  0  0  0  0  0  0  0  0  0  0
   38.3580   24.7810   35.1480 C   0  0  0  0  0  0  0  0  0  0  0  0
   37.8130   25.0650   36.4160 C   0  0  0  0  0  0  0  0  0  0  0  0
   37.8000   24.0150   37.3410 C   0  0  0  0  0  0  0  0  0  0  0  0
   38.3110   22.7920   36.9650 N   0  0  0  0  0  0  0  0  0  0  0  0
   38.8290   22.5700   35.7180 C   0  0  0  0  0  0  0  0  0  0  0  0
   38.8430   23.5800   34.8240 N   0  0  0  0  0  0  0  0  0  0  0  0
   37.3810   25.9550   36.8290 H   0  0  0  0  0  0  0  0  0  0  0  0
   37.4170   24.0830   38.3460 H   0  0  0  0  0  0  0  0  0  0  0  0
   39.2120   21.5860   35.4880 H   0  0  0  0  0  0  0  0  0  0  0  0
   36.3810   23.7520   31.7630 C   0  0  0  0  0  0  0  0  0  0  0  0
   35.1820   24.1280   31.4720 O   0  0  0  0  0  0  0  0  0  0  0  0
   37.3870   24.4560   32.4710 N   0  0  0  0  0  0  0  0  0  0  0  0
   38.3500   23.9880   32.4570 H   0  0  0  0  0  0  0  0  0  0  0  0
   36.6910   22.3800   31.2600 C   0  0  0  0  0  0  0  0  0  0  0  0
   35.5630   21.4380   31.4040 C   0  0  0  0  0  0  0  0  0  0  0  0
   34.5660   21.3690   31.7480 H   0  0  0  0  0  0  0  0  0  0  0  0
   36.3420   19.8760   30.6780 S   0  0  0  0  0  0  0  0  0  0  0  0
   37.9490   20.7410   30.3360 C   0  0  0  0  0  0  0  0  0  0  0  0
   39.0320   20.6110   29.9050 H   0  0  0  0  0  0  0  0  0  0  0  0
   37.8500   22.0180   30.7350 N   0  0  0  0  0  0  0  0  0  0  0  0
  1  7  1  6  0  0  0
  1  2  1  0  0  0  0
  1 17  1  0  0  0  0
  2  8  1  0  0  0  0
  3  2  1  0  0  0  0
  3 11  1  0  0  0  0
  3 10  1  0  0  0  0
  4  3  1  0  0  0  0
  5  4  1  0  0  0  0
  5  6  1  0  0  0  0
  6 16  1  1  0  0  0
  6  1  1  0  0  0  0
  9  2  1  0  0  0  0
 12  4  1  0  0  0  0
 13  4  1  0  0  0  0
 14  5  1  0  0  0  0
 15  5  1  0  0  0  0
 17 18  1  0  0  0  0
 18 23  1  0  0  0  0
 18 19  2  0  0  0  0
 19 24  1  0  0  0  0
 20 19  1  0  0  0  0
 21 20  2  0  0  0  0
 22 17  2  0  0  0  0
 22 21  1  0  0  0  0
 25 21  1  0  0  0  0
 26 28  1  0  0  0  0
 27 26  2  0  0  0  0
 28  6  1  0  0  0  0
 29 28  1  0  0  0  0
 30 31  2  0  0  0  0
 30 26  1  0  0  0  0
 31 32  1  0  0  0  0
 33 31  1  0  0  0  0
 34 33  1  0  0  0  0
 34 36  2  0  0  0  0
 35 34  1  0  0  0  0
 36 30  1  0  0  0  0
M  END
>  <minimizedAffinity>
-5.07327414

$$$$

 OpenBabel03272509323D

 36 38  0  0  1  0  0  0  0  0999 V2000
   38.8780   25.7200   34.9480 C   0  0  2  0  0  0  0  0  0  0  0  0
   38.7670   27.1220   35.4690 C   0  0  0  0  0  0  0  0  0  0  0  0
   37.4010   27.7290   35.2370 C   0  0  0  0  0  0  0  0  0  0  0  0
   37.0560   27.7030   33.7470 C   0  0  0  0  0  0  0  0  0  0  0  0
   37.5210   26.4640   33.0340 C   0  0  0  0  0  0  0  0  0  0  0  0
   37.7210   25.3540   34.0840 C   0  0  1  0  0  0  0  0  0  0  0  0
   39.8260   25.5390   34.3450 H   0  0  0  0  0  0  0  0  0  0  0  0
   39.1290   27.3060   36.4620 H   0  0  0  0  0  0  0  0  0  0  0  0
   39.4420   27.7280   34.7740 H   0  0  0  0  0  0  0  0  0  0  0  0
   37.4610   28.7700   35.5660 H   0  0  0  0  0  0  0  0  0  0  0  0
   36.5900   27.2040   35.7540 H   0  0  0  0  0  0  0  0  0  0  0  0
   37.5910   28.5760   33.3080 H   0  0  0  0  0  0  0  0  0  0  0  0
   35.9650   27.8880   33.6470 H   0  0  0  0  0  0  0  0  0  0  0  0
   38.4680   26.5740   32.5040 H   0  0  0  0  0  0  0  0  0  0  0  0
   36.7040   26.0900   32.3830 H   0  0  0  0  0  0  0  0  0  0  0  0
   36.8020   25.4310   34.6130 H   0  0  0  0  0  0  0  0  0  0  0  0
   38.9750   24.7400   36.0610 C   0  0  0  0  0  0  0  0  0  0  0  0
   38.0790   24.9430   37.1290 C   0  0  0  0  0  0  0  0  0  0  0  0
   38.1490   24.0310   38.1880 C   0  0  0  0  0  0  0  0  0  0  0  0
   39.0700   23.0090   38.1250 N   0  0  0  0  0  0  0  0  0  0  0  0
   39.9190   22.8570   37.0610 C   0  0  0  0  0  0  0  0  0  0  0  0
   39.8540   23.7350   36.0400 N   0  0  0  0  0  0  0  0  0  0  0  0
   37.3170   25.6800   37.2980 H   0  0  0  0  0  0  0  0  0  0  0  0
   37.5290   24.0600   39.0690 H   0  0  0  0  0  0  0  0  0  0  0  0
   40.6180   22.0330   37.0750 H   0  0  0  0  0  0  0  0  0  0  0  0
   38.6350   23.5180   32.5580 C   0  0  0  0  0  0  0  0  0  0  0  0
   39.6610   24.0720   32.0050 O   0  0  0  0  0  0  0  0  0  0  0  0
   37.7740   24.0390   33.5560 N   0  0  0  0  0  0  0  0  0  0  0  0
   37.0810   23.3290   33.9590 H   0  0  0  0  0  0  0  0  0  0  0  0
   38.3720   22.1440   32.0350 C   0  0  0  0  0  0  0  0  0  0  0  0
   37.4200   22.1230   30.9070 C   0  0  0  0  0  0  0  0  0  0  0  0
   36.8250   22.7500   30.2990 H   0  0  0  0  0  0  0  0  0  0  0  0
   37.3630   20.2670   30.5570 S   0  0  0  0  0  0  0  0  0  0  0  0
   38.5660   19.8920   31.9200 C   0  0  0  0  0  0  0  0  0  0  0  0
   39.1460   19.0370   32.4750 H   0  0  0  0  0  0  0  0  0  0  0  0
   38.9210   21.0410   32.5150 N   0  0  0  0  0  0  0  0  0  0  0  0
  1  7  1  6  0  0  0
  1  2  1  0  0  0  0
  1 17  1  0  0  0  0
  2  8  1  0  0  0  0
  3  2  1  0  0  0  0
  3 10  1  0  0  0  0
  3 11  1  0  0  0  0
  4  3  1  0  0  0  0
  5  4  1  0  0  0  0
  5  6  1  0  0  0  0
  6 16  1  1  0  0  0
  6  1  1  0  0  0  0
  9  2  1  0  0  0  0
 12  4  1  0  0  0  0
 13  4  1  0  0  0  0
 14  5  1  0  0  0  0
 15  5  1  0  0  0  0
 17 18  1  0  0  0  0
 18 23  1  0  0  0  0
 18 19  2  0  0  0  0
 19 24  1  0  0  0  0
 20 19  1  0  0  0  0
 21 25  1  0  0  0  0
 21 20  2  0  0  0  0
 22 17  2  0  0  0  0
 22 21  1  0  0  0  0
 26 28  1  0  0  0  0
 27 26  2  0  0  0  0
 28 29  1  0  0  0  0
 28  6  1  0  0  0  0
 30 36  1  0  0  0  0
 30 26  1  0  0  0  0
 31 30  2  0  0  0  0
 32 31  1  0  0  0  0
 33 31  1  0  0  0  0
 33 34  1  0  0  0  0
 34 35  1  0  0  0  0
 34 36  2  0  0  0  0
M  END
>  <minimizedAffinity>
-4.77156639

$$$$

 OpenBabel03272509323D

 36 38  0  0  1  0  0  0  0  0999 V2000
   39.2570   25.3760   34.7470 C   0  0  2  0  0  0  0  0  0  0  0  0
   39.4720   26.7450   35.3210 C   0  0  0  0  0  0  0  0  0  0  0  0
   38.1770   27.4510   35.6580 C   0  0  0  0  0  0  0  0  0  0  0  0
   37.2870   27.5460   34.4190 C   0  0  0  0  0  0  0  0  0  0  0  0
   37.3370   26.3290   33.5360 C   0  0  0  0  0  0  0  0  0  0  0  0
   37.8300   25.1420   34.3860 C   0  0  1  0  0  0  0  0  0  0  0  0
   39.8820   25.1760   33.8180 H   0  0  0  0  0  0  0  0  0  0  0  0
   40.2010   26.8400   36.1010 H   0  0  0  0  0  0  0  0  0  0  0  0
   39.8770   27.3510   34.4410 H   0  0  0  0  0  0  0  0  0  0  0  0
   38.4460   28.4630   35.9760 H   0  0  0  0  0  0  0  0  0  0  0  0
   37.5860   26.9470   36.4290 H   0  0  0  0  0  0  0  0  0  0  0  0
   37.6830   28.4100   33.8380 H   0  0  0  0  0  0  0  0  0  0  0  0
   36.2600   27.8060   34.7550 H   0  0  0  0  0  0  0  0  0  0  0  0
   38.0130   26.4130   32.6850 H   0  0  0  0  0  0  0  0  0  0  0  0
   36.3040   26.0520   33.2400 H   0  0  0  0  0  0  0  0  0  0  0  0
   37.1940   25.2420   35.2320 H   0  0  0  0  0  0  0  0  0  0  0  0
   39.6900   24.3210   35.6990 C   0  0  0  0  0  0  0  0  0  0  0  0
   40.9870   23.8100   35.4910 C   0  0  0  0  0  0  0  0  0  0  0  0
   41.4190   22.8170   36.3770 C   0  0  0  0  0  0  0  0  0  0  0  0
   40.5700   22.4080   37.3810 N   0  0  0  0  0  0  0  0  0  0  0  0
   39.3180   22.9390   37.5390 C   0  0  0  0  0  0  0  0  0  0  0  0
   38.8980   23.8950   36.6860 N   0  0  0  0  0  0  0  0  0  0  0  0
   41.7430   24.0430   34.7670 H   0  0  0  0  0  0  0  0  0  0  0  0
   42.3820   22.3360   36.3420 H   0  0  0  0  0  0  0  0  0  0  0  0
   38.7020   22.5720   38.3490 H   0  0  0  0  0  0  0  0  0  0  0  0
   37.9100   23.3650   32.5500 C   0  0  0  0  0  0  0  0  0  0  0  0
   38.6650   23.8980   31.6510 O   0  0  0  0  0  0  0  0  0  0  0  0
   37.5650   23.8640   33.8320 N   0  0  0  0  0  0  0  0  0  0  0  0
   37.0420   23.1670   34.4530 H   0  0  0  0  0  0  0  0  0  0  0  0
   37.3540   22.0450   32.1270 C   0  0  0  0  0  0  0  0  0  0  0  0
   36.7990   21.2600   33.2470 C   0  0  0  0  0  0  0  0  0  0  0  0
   36.6400   21.2850   34.2910 H   0  0  0  0  0  0  0  0  0  0  0  0
   36.2240   19.7180   32.3180 S   0  0  0  0  0  0  0  0  0  0  0  0
   36.8070   20.3870   30.6860 C   0  0  0  0  0  0  0  0  0  0  0  0
   36.8910   20.1660   29.5370 H   0  0  0  0  0  0  0  0  0  0  0  0
   37.3480   21.5990   30.8810 N   0  0  0  0  0  0  0  0  0  0  0  0
  1  7  1  6  0  0  0
  1  2  1  0  0  0  0
  1 17  1  0  0  0  0
  2  3  1  0  0  0  0
  2  8  1  0  0  0  0
  3 10  1  0  0  0  0
  3 11  1  0  0  0  0
  4 13  1  0  0  0  0
  4  3  1  0  0  0  0
  5  6  1  0  0  0  0
  5  4  1  0  0  0  0
  6  1  1  0  0  0  0
  6 16  1  1  0  0  0
  9  2  1  0  0  0  0
 12  4  1  0  0  0  0
 14  5  1  0  0  0  0
 15  5  1  0  0  0  0
 17 22  1  0  0  0  0
 18 17  2  0  0  0  0
 18 19  1  0  0  0  0
 19 20  2  0  0  0  0
 20 21  1  0  0  0  0
 21 25  1  0  0  0  0
 22 21  2  0  0  0  0
 23 18  1  0  0  0  0
 24 19  1  0  0  0  0
 26 28  1  0  0  0  0
 27 26  2  0  0  0  0
 28  6  1  0  0  0  0
 28 29  1  0  0  0  0
 30 26  1  0  0  0  0
 30 31  2  0  0  0  0
 31 32  1  0  0  0  0
 33 31  1  0  0  0  0
 34 36  2  0  0  0  0
 34 33  1  0  0  0  0
 35 34  1  0  0  0  0
 36 30  1  0  0  0  0
M  END
>  <minimizedAffinity>
-4.76251364

$$$$

 OpenBabel03272509323D

 36 38  0  0  1  0  0  0  0  0999 V2000
   37.8590   26.3580   33.4630 C   0  0  2  0  0  0  0  0  0  0  0  0
   38.7020   25.4050   34.2570 C   0  0  0  0  0  0  0  0  0  0  0  0
   38.3220   25.3630   35.7210 C   0  0  0  0  0  0  0  0  0  0  0  0
   38.4120   26.7620   36.3320 C   0  0  0  0  0  0  0  0  0  0  0  0
   37.9580   27.8610   35.4110 C   0  0  0  0  0  0  0  0  0  0  0  0
   37.0390   27.2390   34.3410 C   0  0  1  0  0  0  0  0  0  0  0  0
   38.4680   27.0300   32.7770 H   0  0  0  0  0  0  0  0  0  0  0  0
   38.8500   24.4240   33.8490 H   0  0  0  0  0  0  0  0  0  0  0  0
   39.7340   25.8960   34.2700 H   0  0  0  0  0  0  0  0  0  0  0  0
   39.0530   24.7160   36.2160 H   0  0  0  0  0  0  0  0  0  0  0  0
   37.3030   25.0080   35.9040 H   0  0  0  0  0  0  0  0  0  0  0  0
   39.4930   26.9180   36.5500 H   0  0  0  0  0  0  0  0  0  0  0  0
   37.8690   26.7460   37.3010 H   0  0  0  0  0  0  0  0  0  0  0  0
   38.7630   28.3700   34.8800 H   0  0  0  0  0  0  0  0  0  0  0  0
   37.3030   28.5590   35.9720 H   0  0  0  0  0  0  0  0  0  0  0  0
   36.3890   26.6720   34.9620 H   0  0  0  0  0  0  0  0  0  0  0  0
   36.9560   25.6300   32.5350 C   0  0  0  0  0  0  0  0  0  0  0  0
   37.0720   24.2250   32.5520 C   0  0  0  0  0  0  0  0  0  0  0  0
   36.2280   23.5170   31.6880 C   0  0  0  0  0  0  0  0  0  0  0  0
   35.3530   24.2200   30.8900 N   0  0  0  0  0  0  0  0  0  0  0  0
   35.2820   25.5870   30.9130 C   0  0  0  0  0  0  0  0  0  0  0  0
   36.0930   26.2730   31.7440 N   0  0  0  0  0  0  0  0  0  0  0  0
   37.6930   23.5620   33.1210 H   0  0  0  0  0  0  0  0  0  0  0  0
   36.2040   22.4440   31.5920 H   0  0  0  0  0  0  0  0  0  0  0  0
   34.5720   26.0760   30.2610 H   0  0  0  0  0  0  0  0  0  0  0  0
   35.7150   29.4120   34.0960 C   0  0  0  0  0  0  0  0  0  0  0  0
   35.9900   30.0540   35.1800 O   0  0  0  0  0  0  0  0  0  0  0  0
   36.2240   28.1680   33.6450 N   0  0  0  0  0  0  0  0  0  0  0  0
   35.9520   27.9140   32.6410 H   0  0  0  0  0  0  0  0  0  0  0  0
   34.7190   30.1260   33.2420 C   0  0  0  0  0  0  0  0  0  0  0  0
   35.2160   31.4160   32.7230 C   0  0  0  0  0  0  0  0  0  0  0  0
   36.0570   32.0560   32.7320 H   0  0  0  0  0  0  0  0  0  0  0  0
   33.7080   31.9760   31.7310 S   0  0  0  0  0  0  0  0  0  0  0  0
   32.7480   30.4500   32.1770 C   0  0  0  0  0  0  0  0  0  0  0  0
   31.7270   29.8900   32.0430 H   0  0  0  0  0  0  0  0  0  0  0  0
   33.5090   29.6730   32.9620 N   0  0  0  0  0  0  0  0  0  0  0  0
  1  7  1  6  0  0  0
  1  2  1  0  0  0  0
  1  6  1  0  0  0  0
  2  9  1  0  0  0  0
  2  3  1  0  0  0  0
  3 11  1  0  0  0  0
  3 10  1  0  0  0  0
  3  4  1  0  0  0  0
  4 12  1  0  0  0  0
  4 13  1  0  0  0  0
  5 15  1  0  0  0  0
  5  4  1  0  0  0  0
  6 16  1  1  0  0  0
  6  5  1  0  0  0  0
  8  2  1  0  0  0  0
 14  5  1  0  0  0  0
 17 18  1  0  0  0  0
 17  1  1  0  0  0  0
 18 23  1  0  0  0  0
 19 18  2  0  0  0  0
 20 21  2  0  0  0  0
 20 19  1  0  0  0  0
 21 22  1  0  0  0  0
 22 17  2  0  0  0  0
 24 19  1  0  0  0  0
 25 21  1  0  0  0  0
 26 27  2  0  0  0  0
 28 26  1  0  0  0  0
 28  6  1  0  0  0  0
 29 28  1  0  0  0  0
 30 26  1  0  0  0  0
 31 32  1  0  0  0  0
 31 30  2  0  0  0  0
 33 34  1  0  0  0  0
 33 31  1  0  0  0  0
 34 36  2  0  0  0  0
 35 34  1  0  0  0  0
 36 30  1  0  0  0  0
M  END
>  <minimizedAffinity>
-4.73026228

$$$$

 OpenBabel03272509323D

 36 38  0  0  1  0  0  0  0  0999 V2000
   36.1950   25.7860   32.0410 C   0  0  2  0  0  0  0  0  0  0  0  0
   35.8970   26.5910   30.8110 C   0  0  0  0  0  0  0  0  0  0  0  0
   36.9070   27.6920   30.5700 C   0  0  0  0  0  0  0  0  0  0  0  0
   36.9840   28.6160   31.7850 C   0  0  0  0  0  0  0  0  0  0  0  0
   36.8670   27.9020   33.1040 C   0  0  0  0  0  0  0  0  0  0  0  0
   37.2450   26.4250   32.8840 C   0  0  1  0  0  0  0  0  0  0  0  0
   35.2830   25.6190   32.7000 H   0  0  0  0  0  0  0  0  0  0  0  0
   35.6650   26.0500   29.9150 H   0  0  0  0  0  0  0  0  0  0  0  0
   34.9470   27.1660   31.0830 H   0  0  0  0  0  0  0  0  0  0  0  0
   36.5440   28.2670   29.7130 H   0  0  0  0  0  0  0  0  0  0  0  0
   37.9240   27.3270   30.3900 H   0  0  0  0  0  0  0  0  0  0  0  0
   36.1140   29.3040   31.6860 H   0  0  0  0  0  0  0  0  0  0  0  0
   37.9100   29.2240   31.6930 H   0  0  0  0  0  0  0  0  0  0  0  0
   35.8670   27.9130   33.5380 H   0  0  0  0  0  0  0  0  0  0  0  0
   37.6420   28.2890   33.7980 H   0  0  0  0  0  0  0  0  0  0  0  0
   38.1550   26.5440   32.3460 H   0  0  0  0  0  0  0  0  0  0  0  0
   36.6330   24.4110   31.6880 C   0  0  0  0  0  0  0  0  0  0  0  0
   35.6030   23.4570   31.5700 C   0  0  0  0  0  0  0  0  0  0  0  0
   35.9900   22.1540   31.2340 C   0  0  0  0  0  0  0  0  0  0  0  0
   37.3280   21.8880   31.0440 N   0  0  0  0  0  0  0  0  0  0  0  0
   38.2900   22.8540   31.1720 C   0  0  0  0  0  0  0  0  0  0  0  0
   37.9200   24.1100   31.4950 N   0  0  0  0  0  0  0  0  0  0  0  0
   34.5380   23.5310   31.6800 H   0  0  0  0  0  0  0  0  0  0  0  0
   35.3170   21.3230   31.1100 H   0  0  0  0  0  0  0  0  0  0  0  0
   39.3220   22.5770   31.0070 H   0  0  0  0  0  0  0  0  0  0  0  0
   38.8370   25.5040   34.6590 C   0  0  0  0  0  0  0  0  0  0  0  0
   39.9700   26.0350   34.3480 O   0  0  0  0  0  0  0  0  0  0  0  0
   37.5660   25.7100   34.0660 N   0  0  0  0  0  0  0  0  0  0  0  0
   36.7500   25.2660   34.5980 H   0  0  0  0  0  0  0  0  0  0  0  0
   38.9420   24.5540   35.8060 C   0  0  0  0  0  0  0  0  0  0  0  0
   37.8980   24.7590   36.8300 C   0  0  0  0  0  0  0  0  0  0  0  0
   37.0600   25.3590   37.0660 H   0  0  0  0  0  0  0  0  0  0  0  0
   38.3720   23.4070   38.0620 S   0  0  0  0  0  0  0  0  0  0  0  0
   39.8070   22.8510   37.0220 C   0  0  0  0  0  0  0  0  0  0  0  0
   40.6940   22.0880   36.9450 H   0  0  0  0  0  0  0  0  0  0  0  0
   39.8660   23.6150   35.9200 N   0  0  0  0  0  0  0  0  0  0  0  0
  1  7  1  1  0  0  0
  1  6  1  0  0  0  0
  2  9  1  0  0  0  0
  2  1  1  0  0  0  0
  3  2  1  0  0  0  0
  3  4  1  0  0  0  0
  4  5  1  0  0  0  0
  5 14  1  0  0  0  0
  5 15  1  0  0  0  0
  6 16  1  6  0  0  0
  6  5  1  0  0  0  0
  6 28  1  0  0  0  0
  8  2  1  0  0  0  0
 10  3  1  0  0  0  0
 11  3  1  0  0  0  0
 12  4  1  0  0  0  0
 13  4  1  0  0  0  0
 17  1  1  0  0  0  0
 18 23  1  0  0  0  0
 18 17  1  0  0  0  0
 19 18  2  0  0  0  0
 20 21  2  0  0  0  0
 20 19  1  0  0  0  0
 21 22  1  0  0  0  0
 22 17  2  0  0  0  0
 24 19  1  0  0  0  0
 25 21  1  0  0  0  0
 26 30  1  0  0  0  0
 27 26  2  0  0  0  0
 28 29  1  0  0  0  0
 28 26  1  0  0  0  0
 30 36  1  0  0  0  0
 30 31  2  0  0  0  0
 31 32  1  0  0  0  0
 31 33  1  0  0  0  0
 34 33  1  0  0  0  0
 35 34  1  0  0  0  0
 36 34  2  0  0  0  0
M  END
>  <minimizedAffinity>
-4.71511316

$$$$

 OpenBabel03272509323D

 36 38  0  0  1  0  0  0  0  0999 V2000
   36.0570   27.9330   32.1340 C   0  0  2  0  0  0  0  0  0  0  0  0
   35.7450   29.2210   31.4320 C   0  0  0  0  0  0  0  0  0  0  0  0
   36.1890   30.4390   32.2130 C   0  0  0  0  0  0  0  0  0  0  0  0
   35.5470   30.4400   33.6010 C   0  0  0  0  0  0  0  0  0  0  0  0
   35.4380   29.0760   34.2250 C   0  0  0  0  0  0  0  0  0  0  0  0
   36.4720   28.1560   33.5480 C   0  0  1  0  0  0  0  0  0  0  0  0
   35.1820   27.2060   32.1460 H   0  0  0  0  0  0  0  0  0  0  0  0
   36.0060   29.2890   30.3940 H   0  0  0  0  0  0  0  0  0  0  0  0
   34.6050   29.2880   31.4720 H   0  0  0  0  0  0  0  0  0  0  0  0
   35.8320   31.3130   31.6600 H   0  0  0  0  0  0  0  0  0  0  0  0
   37.2710   30.4940   32.3700 H   0  0  0  0  0  0  0  0  0  0  0  0
   34.5160   30.8330   33.4470 H   0  0  0  0  0  0  0  0  0  0  0  0
   36.0980   31.1710   34.2310 H   0  0  0  0  0  0  0  0  0  0  0  0
   34.4640   28.6000   34.1070 H   0  0  0  0  0  0  0  0  0  0  0  0
   35.7650   29.1330   35.2840 H   0  0  0  0  0  0  0  0  0  0  0  0
   37.3360   28.7740   33.6050 H   0  0  0  0  0  0  0  0  0  0  0  0
   37.1300   27.1850   31.4300 C   0  0  0  0  0  0  0  0  0  0  0  0
   38.1150   27.9770   30.8070 C   0  0  0  0  0  0  0  0  0  0  0  0
   39.1390   27.2940   30.1400 C   0  0  0  0  0  0  0  0  0  0  0  0
   39.1240   25.9170   30.1340 N   0  0  0  0  0  0  0  0  0  0  0  0
   38.1410   25.1950   30.7570 C   0  0  0  0  0  0  0  0  0  0  0  0
   37.1530   25.8500   31.4000 N   0  0  0  0  0  0  0  0  0  0  0  0
   38.2490   29.0390   30.7450 H   0  0  0  0  0  0  0  0  0  0  0  0
   39.9570   27.7640   29.6210 H   0  0  0  0  0  0  0  0  0  0  0  0
   38.1910   24.1160   30.7130 H   0  0  0  0  0  0  0  0  0  0  0  0
   37.8190   26.7420   35.1980 C   0  0  0  0  0  0  0  0  0  0  0  0
   38.6410   27.5900   35.7160 O   0  0  0  0  0  0  0  0  0  0  0  0
   36.7750   26.9720   34.2660 N   0  0  0  0  0  0  0  0  0  0  0  0
   36.1360   26.1290   34.0990 H   0  0  0  0  0  0  0  0  0  0  0  0
   38.0470   25.3480   35.6830 C   0  0  0  0  0  0  0  0  0  0  0  0
   38.2320   24.3740   34.5890 C   0  0  0  0  0  0  0  0  0  0  0  0
   38.2640   24.2900   33.5360 H   0  0  0  0  0  0  0  0  0  0  0  0
   38.4810   22.7930   35.5940 S   0  0  0  0  0  0  0  0  0  0  0  0
   38.3010   23.6940   37.2070 C   0  0  0  0  0  0  0  0  0  0  0  0
   38.3000   23.5760   38.3740 H   0  0  0  0  0  0  0  0  0  0  0  0
   38.0850   24.9940   36.9570 N   0  0  0  0  0  0  0  0  0  0  0  0
  1  7  1  1  0  0  0
  1  6  1  0  0  0  0
  2  9  1  0  0  0  0
  2  1  1  0  0  0  0
  2  3  1  0  0  0  0
  3 11  1  0  0  0  0
  3  4  1  0  0  0  0
  4  5  1  0  0  0  0
  4 13  1  0  0  0  0
  5 15  1  0  0  0  0
  6 16  1  6  0  0  0
  6  5  1  0  0  0  0
  6 28  1  0  0  0  0
  8  2  1  0  0  0  0
 10  3  1  0  0  0  0
 12  4  1  0  0  0  0
 14  5  1  0  0  0  0
 17  1  1  0  0  0  0
 18 17  2  0  0  0  0
 19 18  1  0  0  0  0
 20 19  2  0  0  0  0
 20 21  1  0  0  0  0
 21 22  2  0  0  0  0
 22 17  1  0  0  0  0
 23 18  1  0  0  0  0
 24 19  1  0  0  0  0
 25 21  1  0  0  0  0
 26 30  1  0  0  0  0
 26 27  2  0  0  0  0
 28 26  1  0  0  0  0
 29 28  1  0  0  0  0
 30 36  1  0  0  0  0
 31 33  1  0  0  0  0
 31 30  2  0  0  0  0
 32 31  1  0  0  0  0
 33 34  1  0  0  0  0
 34 35  1  0  0  0  0
 36 34  2  0  0  0  0
M  END
>  <minimizedAffinity>
-4.70438242

$$$$

 OpenBabel03272509323D

 36 38  0  0  1  0  0  0  0  0999 V2000
   38.0230   25.8260   32.6990 C   0  0  2  0  0  0  0  0  0  0  0  0
   38.1900   27.3150   32.7550 C   0  0  0  0  0  0  0  0  0  0  0  0
   36.8730   28.0570   32.6850 C   0  0  0  0  0  0  0  0  0  0  0  0
   36.1130   27.6710   31.4160 C   0  0  0  0  0  0  0  0  0  0  0  0
   36.2420   26.2180   31.0450 C   0  0  0  0  0  0  0  0  0  0  0  0
   36.6380   25.4350   32.3110 C   0  0  1  0  0  0  0  0  0  0  0  0
   38.7370   25.3210   31.9710 H   0  0  0  0  0  0  0  0  0  0  0  0
   38.8370   27.7080   33.5140 H   0  0  0  0  0  0  0  0  0  0  0  0
   38.6860   27.5730   31.7580 H   0  0  0  0  0  0  0  0  0  0  0  0
   37.1160   29.1230   32.6390 H   0  0  0  0  0  0  0  0  0  0  0  0
   36.2030   27.8490   33.5260 H   0  0  0  0  0  0  0  0  0  0  0  0
   36.5730   28.2770   30.6030 H   0  0  0  0  0  0  0  0  0  0  0  0
   35.0600   28.0040   31.5340 H   0  0  0  0  0  0  0  0  0  0  0  0
   37.0020   26.0090   30.2910 H   0  0  0  0  0  0  0  0  0  0  0  0
   35.2430   25.8220   30.7710 H   0  0  0  0  0  0  0  0  0  0  0  0
   35.9210   25.8160   32.9970 H   0  0  0  0  0  0  0  0  0  0  0  0
   38.3500   25.2000   34.0070 C   0  0  0  0  0  0  0  0  0  0  0  0
   37.8610   25.8760   35.1420 C   0  0  0  0  0  0  0  0  0  0  0  0
   38.1540   25.3040   36.3860 C   0  0  0  0  0  0  0  0  0  0  0  0
   38.8870   24.1380   36.4250 N   0  0  0  0  0  0  0  0  0  0  0  0
   39.3380   23.5220   35.2880 C   0  0  0  0  0  0  0  0  0  0  0  0
   39.0580   24.0710   34.0890 N   0  0  0  0  0  0  0  0  0  0  0  0
   37.2800   26.7700   35.2520 H   0  0  0  0  0  0  0  0  0  0  0  0
   37.8480   25.7060   37.3370 H   0  0  0  0  0  0  0  0  0  0  0  0
   39.9070   22.6090   35.3900 H   0  0  0  0  0  0  0  0  0  0  0  0
   36.9480   23.1060   31.3050 C   0  0  0  0  0  0  0  0  0  0  0  0
   37.8550   23.2870   30.4050 O   0  0  0  0  0  0  0  0  0  0  0  0
   36.4210   24.0350   32.2360 N   0  0  0  0  0  0  0  0  0  0  0  0
   35.7810   23.6050   32.9790 H   0  0  0  0  0  0  0  0  0  0  0  0
   36.4220   21.7080   31.3180 C   0  0  0  0  0  0  0  0  0  0  0  0
   35.3310   21.5050   32.2920 C   0  0  0  0  0  0  0  0  0  0  0  0
   34.7540   22.0070   33.0210 H   0  0  0  0  0  0  0  0  0  0  0  0
   34.9650   19.6740   32.0020 S   0  0  0  0  0  0  0  0  0  0  0  0
   36.2760   19.5360   30.6960 C   0  0  0  0  0  0  0  0  0  0  0  0
   36.8000   18.8090   29.9390 H   0  0  0  0  0  0  0  0  0  0  0  0
   36.8690   20.7310   30.5470 N   0  0  0  0  0  0  0  0  0  0  0  0
  1  7  1  6  0  0  0
  1  2  1  0  0  0  0
  1 17  1  0  0  0  0
  2  8  1  0  0  0  0
  3  2  1  0  0  0  0
  3 11  1  0  0  0  0
  4 13  1  0  0  0  0
  4  3  1  0  0  0  0
  5  4  1  0  0  0  0
  5  6  1  0  0  0  0
  6  1  1  0  0  0  0
  6 16  1  1  0  0  0
  9  2  1  0  0  0  0
 10  3  1  0  0  0  0
 12  4  1  0  0  0  0
 14  5  1  0  0  0  0
 15  5  1  0  0  0  0
 17 22  2  0  0  0  0
 17 18  1  0  0  0  0
 18 23  1  0  0  0  0
 18 19  2  0  0  0  0
 19 20  1  0  0  0  0
 19 24  1  0  0  0  0
 21 25  1  0  0  0  0
 21 20  2  0  0  0  0
 22 21  1  0  0  0  0
 26 30  1  0  0  0  0
 26 28  1  0  0  0  0
 27 26  2  0  0  0  0
 28  6  1  0  0  0  0
 28 29  1  0  0  0  0
 30 31  2  0  0  0  0
 31 32  1  0  0  0  0
 33 31  1  0  0  0  0
 34 33  1  0  0  0  0
 35 34  1  0  0  0  0
 36 34  2  0  0  0  0
 36 30  1  0  0  0  0
M  END
>  <minimizedAffinity>
-4.67926836

$$$$

 OpenBabel03272509323D

 36 38  0  0  1  0  0  0  0  0999 V2000
   36.5780   26.4950   32.0310 C   0  0  2  0  0  0  0  0  0  0  0  0
   36.2430   27.5850   31.0570 C   0  0  0  0  0  0  0  0  0  0  0  0
   36.7220   28.9470   31.5100 C   0  0  0  0  0  0  0  0  0  0  0  0
   36.1380   29.2840   32.8830 C   0  0  0  0  0  0  0  0  0  0  0  0
   36.0490   28.1070   33.8150 C   0  0  0  0  0  0  0  0  0  0  0  0
   37.0520   27.0400   33.3350 C   0  0  1  0  0  0  0  0  0  0  0  0
   35.7020   25.8030   32.2480 H   0  0  0  0  0  0  0  0  0  0  0  0
   36.4610   27.4030   30.0230 H   0  0  0  0  0  0  0  0  0  0  0  0
   35.1060   27.6740   31.1250 H   0  0  0  0  0  0  0  0  0  0  0  0
   36.3460   29.6700   30.7810 H   0  0  0  0  0  0  0  0  0  0  0  0
   37.8100   29.0240   31.6070 H   0  0  0  0  0  0  0  0  0  0  0  0
   35.1030   29.6430   32.6800 H   0  0  0  0  0  0  0  0  0  0  0  0
   36.7170   30.1360   33.3000 H   0  0  0  0  0  0  0  0  0  0  0  0
   35.0700   27.6290   33.8510 H   0  0  0  0  0  0  0  0  0  0  0  0
   36.4190   28.4080   34.8170 H   0  0  0  0  0  0  0  0  0  0  0  0
   37.9190   27.6430   33.2110 H   0  0  0  0  0  0  0  0  0  0  0  0
   37.6190   25.5880   31.4830 C   0  0  0  0  0  0  0  0  0  0  0  0
   37.1380   24.4300   30.8400 C   0  0  0  0  0  0  0  0  0  0  0  0
   38.1000   23.5610   30.3120 C   0  0  0  0  0  0  0  0  0  0  0  0
   39.4330   23.8830   30.4490 N   0  0  0  0  0  0  0  0  0  0  0  0
   39.8460   25.0240   31.0840 C   0  0  0  0  0  0  0  0  0  0  0  0
   38.9210   25.8630   31.5930 N   0  0  0  0  0  0  0  0  0  0  0  0
   36.1450   24.0680   30.6590 H   0  0  0  0  0  0  0  0  0  0  0  0
   37.8830   22.6410   29.7960 H   0  0  0  0  0  0  0  0  0  0  0  0
   40.9070   25.2160   31.1550 H   0  0  0  0  0  0  0  0  0  0  0  0
   38.0940   26.2070   35.5150 C   0  0  0  0  0  0  0  0  0  0  0  0
   38.4830   27.2920   36.0940 O   0  0  0  0  0  0  0  0  0  0  0  0
   37.3790   26.0550   34.3000 N   0  0  0  0  0  0  0  0  0  0  0  0
   37.0440   25.0570   34.1040 H   0  0  0  0  0  0  0  0  0  0  0  0
   38.4770   24.9800   36.2750 C   0  0  0  0  0  0  0  0  0  0  0  0
   39.4720   24.1460   35.5720 C   0  0  0  0  0  0  0  0  0  0  0  0
   40.0450   24.0910   34.6860 H   0  0  0  0  0  0  0  0  0  0  0  0
   39.6740   22.7460   36.8250 S   0  0  0  0  0  0  0  0  0  0  0  0
   38.4480   23.5070   37.9940 C   0  0  0  0  0  0  0  0  0  0  0  0
   37.9090   23.3830   39.0270 H   0  0  0  0  0  0  0  0  0  0  0  0
   37.9890   24.6480   37.4590 N   0  0  0  0  0  0  0  0  0  0  0  0
  1  7  1  1  0  0  0
  1  6  1  0  0  0  0
  2  9  1  0  0  0  0
  2  3  1  0  0  0  0
  2  1  1  0  0  0  0
  3 11  1  0  0  0  0
  3  4  1  0  0  0  0
  4 13  1  0  0  0  0
  4  5  1  0  0  0  0
  5 14  1  0  0  0  0
  5 15  1  0  0  0  0
  6 16  1  6  0  0  0
  6  5  1  0  0  0  0
  6 28  1  0  0  0  0
  8  2  1  0  0  0  0
 10  3  1  0  0  0  0
 12  4  1  0  0  0  0
 17 22  1  0  0  0  0
 17  1  1  0  0  0  0
 18 17  2  0  0  0  0
 19 20  2  0  0  0  0
 19 18  1  0  0  0  0
 20 21  1  0  0  0  0
 21 25  1  0  0  0  0
 21 22  2  0  0  0  0
 23 18  1  0  0  0  0
 24 19  1  0  0  0  0
 26 27  2  0  0  0  0
 26 30  1  0  0  0  0
 28 26  1  0  0  0  0
 29 28  1  0  0  0  0
 30 36  1  0  0  0  0
 31 30  2  0  0  0  0
 31 33  1  0  0  0  0
 32 31  1  0  0  0  0
 33 34  1  0  0  0  0
 34 35  1  0  0  0  0
 36 34  2  0  0  0  0
M  END
>  <minimizedAffinity>
-4.62998486

$$$$

 OpenBabel03272509323D

 36 38  0  0  1  0  0  0  0  0999 V2000
   36.6710   25.1900   32.3000 C   0  0  2  0  0  0  0  0  0  0  0  0
   36.0320   26.1200   31.3130 C   0  0  0  0  0  0  0  0  0  0  0  0
   36.9960   27.1490   30.7650 C   0  0  0  0  0  0  0  0  0  0  0  0
   37.6160   27.9550   31.9070 C   0  0  0  0  0  0  0  0  0  0  0  0
   37.9160   27.1420   33.1370 C   0  0  0  0  0  0  0  0  0  0  0  0
   38.0210   25.6630   32.7180 C   0  0  1  0  0  0  0  0  0  0  0  0
   36.0530   25.0430   33.2440 H   0  0  0  0  0  0  0  0  0  0  0  0
   35.4290   25.6800   30.5440 H   0  0  0  0  0  0  0  0  0  0  0  0
   35.3180   26.7460   31.9490 H   0  0  0  0  0  0  0  0  0  0  0  0
   36.4090   27.8250   30.1360 H   0  0  0  0  0  0  0  0  0  0  0  0
   37.8290   26.7180   30.2000 H   0  0  0  0  0  0  0  0  0  0  0  0
   36.8510   28.7190   32.1750 H   0  0  0  0  0  0  0  0  0  0  0  0
   38.5030   28.4900   31.5050 H   0  0  0  0  0  0  0  0  0  0  0  0
   37.1530   27.1990   33.9140 H   0  0  0  0  0  0  0  0  0  0  0  0
   38.9290   27.4020   33.5070 H   0  0  0  0  0  0  0  0  0  0  0  0
   38.6760   25.7520   31.8850 H   0  0  0  0  0  0  0  0  0  0  0  0
   36.7950   23.8180   31.7420 C   0  0  0  0  0  0  0  0  0  0  0  0
   35.6190   23.0430   31.7700 C   0  0  0  0  0  0  0  0  0  0  0  0
   35.7100   21.7480   31.2460 C   0  0  0  0  0  0  0  0  0  0  0  0
   36.9180   21.3180   30.7440 N   0  0  0  0  0  0  0  0  0  0  0  0
   38.0320   22.1140   30.7410 C   0  0  0  0  0  0  0  0  0  0  0  0
   37.9480   23.3620   31.2450 N   0  0  0  0  0  0  0  0  0  0  0  0
   34.6270   23.2540   32.1170 H   0  0  0  0  0  0  0  0  0  0  0  0
   34.8970   21.0430   31.2000 H   0  0  0  0  0  0  0  0  0  0  0  0
   38.9490   21.7140   30.3310 H   0  0  0  0  0  0  0  0  0  0  0  0
   38.4470   24.7110   35.0520 C   0  0  0  0  0  0  0  0  0  0  0  0
   37.5050   25.2310   35.7630 O   0  0  0  0  0  0  0  0  0  0  0  0
   38.6740   24.8250   33.6570 N   0  0  0  0  0  0  0  0  0  0  0  0
   39.4400   24.1790   33.2780 H   0  0  0  0  0  0  0  0  0  0  0  0
   39.3950   23.8900   35.8630 C   0  0  0  0  0  0  0  0  0  0  0  0
   40.6730   23.6250   35.1730 C   0  0  0  0  0  0  0  0  0  0  0  0
   41.1950   23.8090   34.2730 H   0  0  0  0  0  0  0  0  0  0  0  0
   41.5530   22.5950   36.4920 S   0  0  0  0  0  0  0  0  0  0  0  0
   40.1120   22.7110   37.6580 C   0  0  0  0  0  0  0  0  0  0  0  0
   39.7090   22.3990   38.7140 H   0  0  0  0  0  0  0  0  0  0  0  0
   39.1420   23.4340   37.0780 N   0  0  0  0  0  0  0  0  0  0  0  0
  1  6  1  0  0  0  0
  1  7  1  1  0  0  0
  2  9  1  0  0  0  0
  2  1  1  0  0  0  0
  3  2  1  0  0  0  0
  3  4  1  0  0  0  0
  4 12  1  0  0  0  0
  4  5  1  0  0  0  0
  5 15  1  0  0  0  0
  5 14  1  0  0  0  0
  6 16  1  6  0  0  0
  6  5  1  0  0  0  0
  6 28  1  0  0  0  0
  8  2  1  0  0  0  0
 10  3  1  0  0  0  0
 11  3  1  0  0  0  0
 13  4  1  0  0  0  0
 17 18  1  0  0  0  0
 17  1  1  0  0  0  0
 18 23  1  0  0  0  0
 19 18  2  0  0  0  0
 20 19  1  0  0  0  0
 21 20  2  0  0  0  0
 21 22  1  0  0  0  0
 22 17  2  0  0  0  0
 24 19  1  0  0  0  0
 25 21  1  0  0  0  0
 26 27  2  0  0  0  0
 26 30  1  0  0  0  0
 28 26  1  0  0  0  0
 29 28  1  0  0  0  0
 30 36  1  0  0  0  0
 31 30  2  0  0  0  0
 31 33  1  0  0  0  0
 32 31  1  0  0  0  0
 33 34  1  0  0  0  0
 34 35  1  0  0  0  0
 36 34  2  0  0  0  0
M  END
>  <minimizedAffinity>
-4.56655312

$$$$
