
 OpenBabel03272506323D

 43 46  0  0  1  0  0  0  0  0999 V2000
   34.9900   29.9810   48.7360 C   0  0  1  0  0  0  0  0  0  0  0  0
   34.4200   30.1410   50.0570 C   0  0  0  0  0  0  0  0  0  0  0  0
   35.1050   29.4160   51.1950 C   0  0  0  0  0  0  0  0  0  0  0  0
   36.5960   29.3680   51.1190 C   0  0  0  0  0  0  0  0  0  0  0  0
   37.2100   29.2380   49.7740 C   0  0  0  0  0  0  0  0  0  0  0  0
   36.5000   30.0320   48.7410 C   0  0  2  0  0  0  0  0  0  0  0  0
   34.7220   30.8860   48.1060 H   0  0  0  0  0  0  0  0  0  0  0  0
   33.3530   29.9830   50.1810 H   0  0  0  0  0  0  0  0  0  0  0  0
   34.5610   31.2300   50.3380 H   0  0  0  0  0  0  0  0  0  0  0  0
   34.7280   28.3680   51.2670 H   0  0  0  0  0  0  0  0  0  0  0  0
   34.8240   29.8950   52.1570 H   0  0  0  0  0  0  0  0  0  0  0  0
   37.0250   30.2530   51.6550 H   0  0  0  0  0  0  0  0  0  0  0  0
   36.9380   28.4970   51.7220 H   0  0  0  0  0  0  0  0  0  0  0  0
   37.3480   28.1820   49.4300 H   0  0  0  0  0  0  0  0  0  0  0  0
   38.2410   29.6450   49.8330 H   0  0  0  0  0  0  0  0  0  0  0  0
   36.9450   29.8230   47.7700 H   0  0  0  0  0  0  0  0  0  0  0  0
   34.1540   27.5790   48.4730 C   0  0  0  0  0  0  0  0  0  0  0  0
   34.4900   28.8570   47.9260 C   0  0  0  0  0  0  0  0  0  0  0  0
   34.3180   28.9800   46.5570 C   0  0  0  0  0  0  0  0  0  0  0  0
   33.8570   27.9180   45.8290 N   0  0  0  0  0  0  0  0  0  0  0  0
   33.5590   26.7430   46.3980 C   0  0  0  0  0  0  0  0  0  0  0  0
   33.7100   26.5750   47.7400 N   0  0  0  0  0  0  0  0  0  0  0  0
   34.2770   27.4530   49.5410 H   0  0  0  0  0  0  0  0  0  0  0  0
   34.5330   29.8870   46.0230 H   0  0  0  0  0  0  0  0  0  0  0  0
   33.2040   25.9780   45.7230 H   0  0  0  0  0  0  0  0  0  0  0  0
   36.8270   31.5080   49.0930 C   0  0  0  0  0  0  0  0  0  0  0  0
   36.5650   32.1720   48.2240 H   0  0  0  0  0  0  0  0  0  0  0  0
   36.2980   31.8360   49.9900 H   0  0  0  0  0  0  0  0  0  0  0  0
   38.3410   31.6800   49.2370 C   0  0  0  0  0  0  0  0  0  0  0  0
   38.7490   30.7250   49.6460 H   0  0  0  0  0  0  0  0  0  0  0  0
   38.5110   32.5280   49.9140 H   0  0  0  0  0  0  0  0  0  0  0  0
   39.4210   33.1880   47.4710 C   0  0  0  0  0  0  0  0  0  0  0  0
   38.9380   31.9740   47.9110 C   0  0  0  0  0  0  0  0  0  0  0  0
   39.0250   30.9250   47.0110 C   0  0  0  0  0  0  0  0  0  0  0  0
   38.6590   29.9350   47.3000 H   0  0  0  0  0  0  0  0  0  0  0  0
   39.5450   30.9970   45.7340 C   0  0  0  0  0  0  0  0  0  0  0  0
   39.7130   30.1300   44.7420 N   0  0  0  0  0  0  0  0  0  0  0  0
   40.2840   30.7980   43.7260 C   0  0  0  0  0  0  0  0  0  0  0  0
   40.5130   30.2720   42.8010 H   0  0  0  0  0  0  0  0  0  0  0  0
   40.4660   32.0850   44.0970 N   0  0  0  0  0  0  0  0  0  0  0  0
   40.0140   32.2350   45.3440 C   0  0  0  0  0  0  0  0  0  0  0  0
   39.9540   33.3270   46.2060 C   0  0  0  0  0  0  0  0  0  0  0  0
   39.4380   29.1240   44.7910 H   0  0  0  0  0  0  0  0  0  0  0  0
  1  7  1  6  0  0  0
  1  6  1  0  0  0  0
  1  2  1  0  0  0  0
  2  8  1  0  0  0  0
  2  9  1  0  0  0  0
  2  3  1  0  0  0  0
  3 10  1  0  0  0  0
  3 11  1  0  0  0  0
  4  3  1  0  0  0  0
  4 12  1  0  0  0  0
  4 13  1  0  0  0  0
  5 15  1  0  0  0  0
  5  4  1  0  0  0  0
  6 16  1  6  0  0  0
  6 26  1  0  0  0  0
  6  5  1  0  0  0  0
 14  5  1  0  0  0  0
 17 23  1  0  0  0  0
 18 17  1  0  0  0  0
 18  1  1  0  0  0  0
 19 18  2  0  0  0  0
 20 21  2  0  0  0  0
 20 19  1  0  0  0  0
 21 22  1  0  0  0  0
 22 17  2  0  0  0  0
 24 19  1  0  0  0  0
 25 21  1  0  0  0  0
 26 29  1  0  0  0  0
 26 28  1  0  0  0  0
 27 26  1  0  0  0  0
 29 30  1  0  0  0  0
 29 31  1  0  0  0  0
 32 33  1  0  0  0  0
 33 29  1  0  0  0  0
 34 35  1  0  0  0  0
 34 33  2  0  0  0  0
 36 34  1  0  0  0  0
 37 43  1  0  0  0  0
 37 36  1  0  0  0  0
 38 40  2  0  0  0  0
 38 37  1  0  0  0  0
 39 38  1  0  0  0  0
 40 41  1  0  0  0  0
 41 36  2  0  0  0  0
 41 42  1  0  0  0  0
 42 32  2  0  0  0  0
M  END
>  <minimizedAffinity>
-6.90094185

>  <minimizedRMSD>
4.81013203

$$$$
