
 OpenBabel03272503303D

 37 40  0  0  1  0  0  0  0  0999 V2000
   35.2250   29.5120   48.0170 C   0  0  0  0  0  0  0  0  0  0  0  0
   35.0990   29.9490   46.6920 C   0  0  0  0  0  0  0  0  0  0  0  0
   33.9230   29.6140   46.0350 C   0  0  0  0  0  0  0  0  0  0  0  0
   32.9910   28.8900   46.7260 N   0  0  0  0  0  0  0  0  0  0  0  0
   33.1370   28.4900   47.9790 C   0  0  0  0  0  0  0  0  0  0  0  0
   34.2790   28.8100   48.6320 N   0  0  0  0  0  0  0  0  0  0  0  0
   35.8290   30.5130   46.1570 H   0  0  0  0  0  0  0  0  0  0  0  0
   33.6990   29.8830   45.0270 H   0  0  0  0  0  0  0  0  0  0  0  0
   36.4400   29.8550   48.7060 N   0  0  0  0  0  0  0  0  0  0  0  0
   37.5310   30.6410   48.1970 C   0  0  0  0  0  0  0  0  0  0  0  0
   38.1080   31.2580   49.4710 C   0  0  2  0  0  0  0  0  0  0  0  0
   37.1950   30.8300   50.6010 C   0  0  0  0  0  0  0  0  0  0  0  0
   36.7970   29.4690   50.0500 C   0  0  0  0  0  0  0  0  0  0  0  0
   38.2740   29.9640   47.7540 H   0  0  0  0  0  0  0  0  0  0  0  0
   37.2010   31.4220   47.4900 H   0  0  0  0  0  0  0  0  0  0  0  0
   39.0970   30.8050   49.6870 H   0  0  0  0  0  0  0  0  0  0  0  0
   37.7500   30.6560   51.5250 H   0  0  0  0  0  0  0  0  0  0  0  0
   36.3100   31.4860   50.7230 H   0  0  0  0  0  0  0  0  0  0  0  0
   35.8990   29.1520   50.6180 H   0  0  0  0  0  0  0  0  0  0  0  0
   37.6410   28.7880   50.1340 H   0  0  0  0  0  0  0  0  0  0  0  0
   38.2420   32.7520   49.3900 C   0  0  0  0  0  0  0  0  0  0  0  0
   37.0760   33.2850   49.8950 F   0  0  0  0  0  0  0  0  0  0  0  0
   38.2680   33.0920   48.0450 F   0  0  0  0  0  0  0  0  0  0  0  0
   39.3520   33.2440   50.0130 F   0  0  0  0  0  0  0  0  0  0  0  0
   31.8800   27.5510   48.8170 S   0  0  0  0  0  0  0  0  0  0  0  0
   30.3990   26.3370   46.6780 C   0  0  0  0  0  3  0  0  0  0  0  0
   30.5280   27.3030   47.6520 C   0  0  0  0  0  0  0  0  0  0  0  0
   29.5300   28.2500   47.8280 C   0  0  0  0  0  0  0  0  0  0  0  0
   29.5160   29.0630   48.5630 H   0  0  0  0  0  0  0  0  0  0  0  0
   28.3820   28.2490   47.0310 C   0  0  0  0  0  0  0  0  0  0  0  0
   27.2650   29.0210   46.9630 N   0  0  0  0  0  0  0  0  0  0  0  0
   26.4730   28.5520   45.9840 C   0  0  0  0  0  0  0  0  0  0  0  0
   25.5090   29.0020   45.7280 H   0  0  0  0  0  0  0  0  0  0  0  0
   27.0960   27.4780   45.4330 N   0  0  0  0  0  0  0  0  0  0  0  0
   28.2720   27.2760   46.0620 C   0  0  0  0  0  0  0  0  0  0  0  0
   29.2650   26.3490   45.9040 C   0  0  0  0  0  3  0  0  0  0  0  0
   27.0750   29.8490   47.5910 H   0  0  0  0  0  0  0  0  0  0  0  0
  1  6  1  0  0  0  0
  1  9  1  0  0  0  0
  2  1  2  0  0  0  0
  3  2  1  0  0  0  0
  3  4  2  0  0  0  0
  4  5  1  0  0  0  0
  5  6  2  0  0  0  0
  5 25  1  0  0  0  0
  7  2  1  0  0  0  0
  8  3  1  0  0  0  0
  9 13  1  0  0  0  0
 10  9  1  0  0  0  0
 10 11  1  0  0  0  0
 11 16  1  1  0  0  0
 11 12  1  0  0  0  0
 12 18  1  0  0  0  0
 12 17  1  0  0  0  0
 13 20  1  0  0  0  0
 13 12  1  0  0  0  0
 13 19  1  0  0  0  0
 14 10  1  0  0  0  0
 15 10  1  0  0  0  0
 21 11  1  0  0  0  0
 21 22  1  0  0  0  0
 21 24  1  0  0  0  0
 23 21  1  0  0  0  0
 26 27  1  0  0  0  0
 27 28  2  0  0  0  0
 27 25  1  0  0  0  0
 28 29  1  0  0  0  0
 30 28  1  0  0  0  0
 31 30  1  0  0  0  0
 31 37  1  0  0  0  0
 32 31  1  0  0  0  0
 33 32  1  0  0  0  0
 34 32  2  0  0  0  0
 34 35  1  0  0  0  0
 35 30  2  0  0  0  0
 36 35  1  0  0  0  0
 36 26  2  0  0  0  0
M  END
>  <minimizedAffinity>
-6.28790522

>  <minimizedRMSD>
0.367270082

$$$$
