
     RDKit          3D

 41 44  0  0  0  0  0  0  0  0999 V2000
   36.7166   31.1052   49.0932 C   0  0  0  0  0  0  0  0  0  0  0  0
   37.0642   32.1602   49.9385 C   0  0  0  0  0  0  0  0  0  0  0  0
   37.9921   33.1012   49.4678 C   0  0  0  0  0  0  0  0  0  0  0  0
   38.4859   32.9096   48.2104 N   0  0  0  0  0  0  0  0  0  0  0  0
   38.1234   31.8718   47.4194 C   0  0  0  0  0  0  0  0  0  0  0  0
   37.2395   30.9812   47.8762 N   0  0  0  0  0  0  0  0  0  0  0  0
   38.7146   31.7847   46.1206 N   0  0  0  0  0  0  0  0  0  0  0  0
   39.9538   31.0554   45.9749 C   0  0  0  0  0  0  0  0  0  0  0  0
   40.8250   31.9353   45.0850 C   0  0  0  0  0  0  0  0  0  0  0  0
   40.1633   31.8884   43.7251 C   0  0  0  0  0  0  0  0  0  0  0  0
   38.8883   32.6645   43.8191 C   0  0  0  0  0  0  0  0  0  0  0  0
   38.0637   32.4139   45.0361 C   0  0  1  0  0  0  0  0  0  0  0  0
   35.7242   30.0925   49.5874 C   0  0  0  0  0  0  0  0  0  0  0  0
   34.4416   30.6443   49.5674 F   0  0  0  0  0  0  0  0  0  0  0  0
   35.8453   28.9624   48.8440 F   0  0  0  0  0  0  0  0  0  0  0  0
   36.0135   29.8542   50.9228 F   0  0  0  0  0  0  0  0  0  0  0  0
   36.6548   32.2741   50.9158 H   0  0  0  0  0  0  0  0  0  0  0  0
   38.3119   33.9461   50.0629 H   0  0  0  0  0  0  0  0  0  0  0  0
   39.7933   30.1145   45.4217 H   0  0  0  0  0  0  0  0  0  0  0  0
   40.4504   30.8558   46.9466 H   0  0  0  0  0  0  0  0  0  0  0  0
   40.7287   32.9648   45.4636 H   0  0  0  0  0  0  0  0  0  0  0  0
   41.8714   31.5665   45.0585 H   0  0  0  0  0  0  0  0  0  0  0  0
   40.7946   32.3648   42.9465 H   0  0  0  0  0  0  0  0  0  0  0  0
   39.9904   30.8162   43.4965 H   0  0  0  0  0  0  0  0  0  0  0  0
   38.2991   32.4227   42.8967 H   0  0  0  0  0  0  0  0  0  0  0  0
   39.1609   33.7326   43.6840 H   0  0  0  0  0  0  0  0  0  0  0  0
   37.7482   33.4317   45.4153 H   0  0  0  0  0  0  0  0  0  0  0  0
   36.3061   31.7427   43.3621 C   0  0  0  0  0  0  0  0  0  0  0  0
   36.7924   31.7403   44.6556 C   0  0  0  0  0  0  0  0  0  0  0  0
   36.0075   31.0610   45.5844 C   0  0  0  0  0  0  0  0  0  0  0  0
   36.3308   31.0193   46.6211 H   0  0  0  0  0  0  0  0  0  0  0  0
   34.8279   30.4345   45.2381 C   0  0  0  0  0  0  0  0  0  0  0  0
   33.9341   29.7310   45.9860 N   0  0  0  0  0  0  0  0  0  0  0  0
   32.9623   29.3463   45.1205 C   0  0  0  0  0  0  0  0  0  0  0  0
   32.1037   28.7589   45.4484 H   0  0  0  0  0  0  0  0  0  0  0  0
   33.2248   29.7843   43.8791 N   0  0  0  0  0  0  0  0  0  0  0  0
   34.3776   30.4605   43.9349 C   0  0  0  0  0  0  0  0  0  0  0  0
   35.1312   31.1250   42.9891 C   0  0  0  0  0  0  0  0  0  0  0  0
   36.8436   32.2404   42.5824 H   0  0  0  0  0  0  0  0  0  0  0  0
   33.9816   29.5279   47.0080 H   0  0  0  0  0  0  0  0  0  0  0  0
   34.7603   31.1352   41.9654 H   0  0  0  0  0  0  0  0  0  0  0  0
  1 13  1  0
  1  2  2  0
  3  2  1  0
  4  3  2  0
  5  6  2  0
  5  4  1  0
  6  1  1  0
  7  5  1  0
  8  7  1  0
  9  8  1  0
 10 11  1  0
 10  9  1  0
 11 12  1  0
 12  7  1  0
 13 16  1  0
 14 13  1  0
 15 13  1  0
  2 17  1  0
  3 18  1  0
  8 19  1  0
  8 20  1  0
  9 21  1  0
  9 22  1  0
 10 23  1  0
 10 24  1  0
 11 25  1  0
 11 26  1  0
 12 27  1  1
 28 29  2  0
 29 30  1  0
 30 31  1  0
 30 32  2  0
 32 33  1  0
 33 34  1  0
 34 35  1  0
 34 36  2  0
 36 37  1  0
 37 38  2  0
 38 28  1  0
 37 32  1  0
 28 39  1  0
 33 40  1  0
 38 41  1  0
 12 29  1  0
M  ISO  8  17  14  18  14  19  13  20  13  21  13  22  13  23  13  24  13
M  ISO  5  25  13  26  13  27  13  31  15  35  14
M  END
>  <DihAtoms>  (1) 
10,11,28,27

>  <DihDeg>  (1) 
86.87045419697242

$$$$
