
 OpenBabel03272501573D

 34 37  0  0  0  0  0  0  0  0999 V2000
   32.9000   27.7550   47.9640 C   0  0  0  0  0  0  0  0  0  0  0  0
   32.1590   26.5850   47.9940 C   0  0  0  0  0  0  0  0  0  0  0  0
   30.8460   26.8290   47.6860 C   0  0  0  0  0  0  0  0  0  0  0  0
   30.8130   28.1570   47.4720 N   0  0  0  0  0  0  0  0  0  0  0  0
   32.0190   28.7060   47.6340 N   0  0  0  0  0  0  0  0  0  0  0  0
   32.5600   25.5960   48.2310 H   0  0  0  0  0  0  0  0  0  0  0  0
   30.0350   26.1170   47.6310 H   0  0  0  0  0  0  0  0  0  0  0  0
   28.5370   28.9530   47.8920 C   0  0  0  0  0  0  0  0  0  0  0  0
   29.6530   28.9150   47.1150 C   0  0  0  0  0  0  0  0  0  0  0  0
   29.6590   29.6440   45.9260 C   0  0  0  0  0  0  0  0  0  0  0  0
   30.5600   29.6010   45.3180 H   0  0  0  0  0  0  0  0  0  0  0  0
   28.6220   30.3990   45.4790 C   0  0  0  0  0  0  0  0  0  0  0  0
   28.4320   31.1670   44.3750 N   0  0  0  0  0  0  0  0  0  0  0  0
   27.1900   31.6830   44.4690 C   0  0  0  0  0  0  0  0  0  0  0  0
   26.8000   32.3340   43.7070 H   0  0  0  0  0  0  0  0  0  0  0  0
   26.6160   31.2400   45.6220 N   0  0  0  0  0  0  0  0  0  0  0  0
   27.4830   30.4450   46.2620 C   0  0  0  0  0  0  0  0  0  0  0  0
   27.4600   29.7230   47.4520 C   0  0  0  0  0  0  0  0  0  0  0  0
   29.1710   31.2740   43.6440 H   0  0  0  0  0  0  0  0  0  0  0  0
   34.3660   27.9200   48.2400 C   0  0  0  0  0  0  0  0  0  0  0  0
   34.7520   28.6830   47.5520 H   0  0  0  0  0  0  0  0  0  0  0  0
   34.9000   26.9430   48.1320 H   0  0  0  0  0  0  0  0  0  0  0  0
   34.4630   28.3530   49.6770 C   0  0  0  0  0  0  0  0  0  0  0  0
   34.4540   27.4990   50.3810 H   0  0  0  0  0  0  0  0  0  0  0  0
   33.5840   28.9900   49.9740 H   0  0  0  0  0  0  0  0  0  0  0  0
   37.2730   30.1510   51.2650 C   0  0  0  0  0  0  0  0  0  0  0  0
   38.0090   30.6160   50.1700 C   0  0  0  0  0  0  0  0  0  0  0  0
   37.5210   30.2990   48.8790 C   0  0  0  0  0  0  0  0  0  0  0  0
   36.3800   29.5710   48.7780 N   0  0  0  0  0  0  0  0  0  0  0  0
   35.7100   29.1490   49.8710 C   0  0  0  0  0  0  0  0  0  0  0  0
   36.1660   29.4440   51.0940 N   0  0  0  0  0  0  0  0  0  0  0  0
   37.6630   30.4030   52.2420 H   0  0  0  0  0  0  0  0  0  0  0  0
   38.9170   31.1950   50.2680 H   0  0  0  0  0  0  0  0  0  0  0  0
   38.0660   30.6430   48.0210 H   0  0  0  0  0  0  0  0  0  0  0  0
  1  2  1  0  0  0  0
  1 20  1  0  0  0  0
  2  6  1  0  0  0  0
  3  2  2  0  0  0  0
  4  5  1  0  0  0  0
  4  3  1  0  0  0  0
  5  1  2  0  0  0  0
  7  3  1  0  0  0  0
  9  4  1  0  0  0  0
  9  8  2  0  0  0  0
 10  9  1  0  0  0  0
 11 10  1  0  0  0  0
 12 10  2  0  0  0  0
 12 17  1  0  0  0  0
 13 14  1  0  0  0  0
 13 12  1  0  0  0  0
 14 16  2  0  0  0  0
 15 14  1  0  0  0  0
 16 17  1  0  0  0  0
 17 18  2  0  0  0  0
 18  8  1  0  0  0  0
 19 13  1  0  0  0  0
 20 23  1  0  0  0  0
 21 20  1  0  0  0  0
 22 20  1  0  0  0  0
 23 30  1  0  0  0  0
 23 25  1  0  0  0  0
 23 24  1  0  0  0  0
 26 32  1  0  0  0  0
 27 33  1  0  0  0  0
 27 26  2  0  0  0  0
 28 27  1  0  0  0  0
 29 28  2  0  0  0  0
 29 30  1  0  0  0  0
 30 31  2  0  0  0  0
 31 26  1  0  0  0  0
 34 28  1  0  0  0  0
M  END
>  <minimizedAffinity>
-5.3493681

>  <minimizedRMSD>
1.27134848

$$$$
