
     RDKit          3D

 29 31  0  0  0  0  0  0  0  0999 V2000
   37.3416   30.1530   51.3645 C   0  0  0  0  0  0  0  0  0  0  0  0
   37.9992   30.5177   50.1717 C   0  0  0  0  0  0  0  0  0  0  0  0
   37.4140   30.1543   48.9517 C   0  0  0  0  0  0  0  0  0  0  0  0
   36.2360   29.4656   48.9902 N   0  0  0  0  0  0  0  0  0  0  0  0
   35.6416   29.1375   50.1487 C   0  0  0  0  0  0  0  0  0  0  0  0
   36.1903   29.4787   51.3323 N   0  0  0  0  0  0  0  0  0  0  0  0
   37.8492   30.3872   47.6961 O   0  0  0  0  0  0  0  0  0  0  0  0
   39.0657   32.7270   48.1352 O   0  0  0  0  0  0  0  0  0  0  0  0
   38.6843   31.7142   47.0951 P   0  0  2  0  0  0  0  0  0  0  0  0
   37.8295   32.4615   45.8471 O   0  0  0  0  0  0  0  0  0  0  0  0
   40.1684   31.1753   46.4203 O   0  0  0  0  0  0  0  0  0  0  0  0
   37.9289   30.5111   52.2065 H   0  0  0  0  0  0  0  0  0  0  0  0
   38.9117   31.0497   50.0415 H   0  0  0  0  0  0  0  0  0  0  0  0
   34.7045   28.5900   50.2062 H   0  0  0  0  0  0  0  0  0  0  0  0
   38.0104   32.0364   44.9743 H   0  0  0  0  0  0  0  0  0  0  0  0
   41.1018   33.1714   47.0962 C   0  0  0  0  0  0  0  0  0  0  0  0
   41.2962   32.0015   46.3792 C   0  0  0  0  0  0  0  0  0  0  0  0
   42.4819   31.7450   45.7274 C   0  0  0  0  0  0  0  0  0  0  0  0
   42.5233   30.8001   45.1983 H   0  0  0  0  0  0  0  0  0  0  0  0
   43.4701   32.7019   45.8174 C   0  0  0  0  0  0  0  0  0  0  0  0
   44.6987   32.6844   45.2763 N   0  0  0  0  0  0  0  0  0  0  0  0
   45.2877   33.8413   45.6472 C   0  0  0  0  0  0  0  0  0  0  0  0
   46.3003   34.0874   45.3421 H   0  0  0  0  0  0  0  0  0  0  0  0
   44.4348   34.5417   46.3952 N   0  0  0  0  0  0  0  0  0  0  0  0
   43.2816   33.8666   46.5290 C   0  0  0  0  0  0  0  0  0  0  0  0
   42.0991   34.1292   47.1829 C   0  0  0  0  0  0  0  0  0  0  0  0
   40.1901   33.4379   47.6349 H   0  0  0  0  0  0  0  0  0  0  0  0
   45.1275   31.9223   44.6783 H   0  0  0  0  0  0  0  0  0  0  0  0
   41.9871   35.0537   47.7315 H   0  0  0  0  0  0  0  0  0  0  0  0
  2  1  2  0
  3  4  2  0
  3  2  1  0
  4  5  1  0
  5  6  2  0
  6  1  1  0
  7  3  1  0
  9  7  1  1
  9  8  2  0
 10  9  1  0
 11  9  1  0
  1 12  1  0
  2 13  1  0
  5 14  1  0
 10 15  1  0
 16 17  2  0
 17 18  1  0
 18 19  1  0
 18 20  2  0
 20 21  1  0
 21 22  1  0
 22 23  1  0
 22 24  2  0
 24 25  1  0
 25 26  2  0
 26 16  1  0
 25 20  1  0
 16 27  1  0
 21 28  1  0
 26 29  1  0
 11 17  1  0
M  ISO  6  12  14  13  14  14  14  15   3  19  15  23  14
M  END
>  <DihAtoms>  (1) 
8,10,16,15

>  <DihDeg>  (1) 
68.3655317106782

$$$$
