
 OpenBabel03272502593D

 37 40  0  0  1  0  0  0  0  0999 V2000
   35.7620   29.6640   48.7530 N   0  0  0  0  0  0  0  0  0  0  0  0
   36.6880   28.8860   49.5490 C   0  0  0  0  0  0  0  0  0  0  0  0
   37.2610   29.5110   50.7370 C   0  0  0  0  0  0  0  0  0  0  0  0
   37.3570   30.9840   50.7890 C   0  0  0  0  0  0  0  0  0  0  0  0
   36.4120   31.6940   49.8690 C   0  0  0  0  0  0  0  0  0  0  0  0
   36.3550   30.9730   48.5160 C   0  0  1  0  0  0  0  0  0  0  0  0
   36.1560   27.9410   49.8050 H   0  0  0  0  0  0  0  0  0  0  0  0
   37.5020   28.5830   48.8320 H   0  0  0  0  0  0  0  0  0  0  0  0
   36.6780   29.1640   51.6340 H   0  0  0  0  0  0  0  0  0  0  0  0
   38.2930   29.0910   50.9040 H   0  0  0  0  0  0  0  0  0  0  0  0
   37.1420   31.3630   51.8220 H   0  0  0  0  0  0  0  0  0  0  0  0
   38.3950   31.3280   50.5850 H   0  0  0  0  0  0  0  0  0  0  0  0
   36.6780   32.7520   49.7620 H   0  0  0  0  0  0  0  0  0  0  0  0
   35.3860   31.6120   50.2860 H   0  0  0  0  0  0  0  0  0  0  0  0
   35.7680   31.5790   47.8210 H   0  0  0  0  0  0  0  0  0  0  0  0
   34.4970   29.2120   48.2900 C   0  0  0  0  0  0  0  0  0  0  0  0
   33.9080   29.6090   47.0930 C   0  0  0  0  0  0  0  0  0  0  0  0
   32.6690   29.1010   46.7450 C   0  0  0  0  0  0  0  0  0  0  0  0
   32.0840   28.2280   47.6110 N   0  0  0  0  0  0  0  0  0  0  0  0
   32.6760   27.8660   48.7580 C   0  0  0  0  0  0  0  0  0  0  0  0
   33.8770   28.3600   49.0890 N   0  0  0  0  0  0  0  0  0  0  0  0
   34.4480   30.3060   46.4680 H   0  0  0  0  0  0  0  0  0  0  0  0
   32.2340   29.4270   45.8050 H   0  0  0  0  0  0  0  0  0  0  0  0
   32.1500   27.1550   49.4150 H   0  0  0  0  0  0  0  0  0  0  0  0
   37.6860   30.8590   48.1220 O   0  0  0  0  0  0  0  0  0  0  0  0
   39.5520   31.1130   46.8350 C   0  0  0  0  0  3  0  0  0  0  0  0
   38.1660   31.2900   46.9210 C   0  0  0  0  0  0  0  0  0  0  0  0
   37.5490   31.8470   45.8240 C   0  0  0  0  0  0  0  0  0  0  0  0
   36.4880   31.9580   45.9480 H   0  0  0  0  0  0  0  0  0  0  0  0
   38.2310   32.2120   44.7050 C   0  0  0  0  0  0  0  0  0  0  0  0
   37.8080   32.7630   43.5530 N   0  0  0  0  0  0  0  0  0  0  0  0
   38.8780   32.9330   42.7560 C   0  0  0  0  0  0  0  0  0  0  0  0
   38.7800   33.3650   41.7670 H   0  0  0  0  0  0  0  0  0  0  0  0
   39.9720   32.4930   43.4040 N   0  0  0  0  0  0  0  0  0  0  0  0
   39.5870   32.0420   44.6160 C   0  0  0  0  0  0  0  0  0  0  0  0
   40.2660   31.4810   45.7010 C   0  0  0  0  0  3  0  0  0  0  0  0
   36.8160   33.0090   43.3290 H   0  0  0  0  0  0  0  0  0  0  0  0
  1  2  1  0  0  0  0
  2  7  1  0  0  0  0
  2  3  1  0  0  0  0
  3  4  1  0  0  0  0
  3 10  1  0  0  0  0
  3  9  1  0  0  0  0
  4 11  1  0  0  0  0
  5 14  1  0  0  0  0
  5  4  1  0  0  0  0
  6 15  1  6  0  0  0
  6  1  1  0  0  0  0
  6  5  1  0  0  0  0
  8  2  1  0  0  0  0
 12  4  1  0  0  0  0
 13  5  1  0  0  0  0
 16  1  1  0  0  0  0
 16 21  1  0  0  0  0
 17 16  2  0  0  0  0
 18 17  1  0  0  0  0
 18 19  2  0  0  0  0
 19 20  1  0  0  0  0
 20 21  2  0  0  0  0
 20 24  1  0  0  0  0
 22 17  1  0  0  0  0
 23 18  1  0  0  0  0
 25  6  1  0  0  0  0
 26 27  1  0  0  0  0
 27 25  1  0  0  0  0
 28 29  1  0  0  0  0
 28 27  2  0  0  0  0
 30 28  1  0  0  0  0
 31 30  1  0  0  0  0
 32 34  2  0  0  0  0
 32 31  1  0  0  0  0
 33 32  1  0  0  0  0
 34 35  1  0  0  0  0
 35 30  2  0  0  0  0
 35 36  1  0  0  0  0
 36 26  2  0  0  0  0
 37 31  1  0  0  0  0
M  END
>  <minimizedAffinity>
-5.97665691

>  <minimizedRMSD>
1.33254421

$$$$
