
     RDKit          3D

 36 39  0  0  0  0  0  0  0  0999 V2000
   34.6662   28.3002   49.5615 C   0  0  0  0  0  0  0  0  0  0  0  0
   37.2784   30.1721   51.3855 C   0  0  0  0  0  0  0  0  0  0  0  0
   38.0720   30.6897   50.3574 C   0  0  0  0  0  0  0  0  0  0  0  0
   37.6923   30.3833   49.0282 C   0  0  0  0  0  0  0  0  0  0  0  0
   36.5924   29.6135   48.8298 N   0  0  0  0  0  0  0  0  0  0  0  0
   35.8623   29.1400   49.8618 C   0  0  0  0  0  0  0  0  0  0  0  0
   36.2158   29.4261   51.1215 N   0  0  0  0  0  0  0  0  0  0  0  0
   34.4471   28.2578   48.0745 C   0  0  0  0  0  0  0  0  0  0  0  0
   32.9581   28.2661   47.8839 C   0  0  0  0  0  0  0  0  0  0  0  0
   32.0028   27.6153   48.6484 C   0  0  0  0  0  0  0  0  0  0  0  0
   30.7430   27.8581   48.1684 C   0  0  0  0  0  0  0  0  0  0  0  0
   30.9583   28.6610   47.1091 N   0  0  0  0  0  0  0  0  0  0  0  0
   32.2591   28.9029   46.9390 N   0  0  0  0  0  0  0  0  0  0  0  0
   34.7989   27.2937   50.0022 H   0  0  0  0  0  0  0  0  0  0  0  0
   33.7790   28.7407   50.0958 H   0  0  0  0  0  0  0  0  0  0  0  0
   37.5846   30.4172   52.3938 H   0  0  0  0  0  0  0  0  0  0  0  0
   38.9463   31.3023   50.5326 H   0  0  0  0  0  0  0  0  0  0  0  0
   38.2830   30.7672   48.2186 H   0  0  0  0  0  0  0  0  0  0  0  0
   34.8535   29.1449   47.5719 H   0  0  0  0  0  0  0  0  0  0  0  0
   34.8898   27.3094   47.6830 H   0  0  0  0  0  0  0  0  0  0  0  0
   32.2185   26.9901   49.5194 H   0  0  0  0  0  0  0  0  0  0  0  0
   29.8039   27.4890   48.5542 H   0  0  0  0  0  0  0  0  0  0  0  0
   29.1526   30.2434   46.6286 C   0  0  0  0  0  0  0  0  0  0  0  0
   29.9445   29.2026   46.2549 C   0  0  0  0  0  0  0  0  0  0  0  0
   29.7571   28.6458   44.9903 C   0  0  0  0  0  0  0  0  0  0  0  0
   30.3999   27.8141   44.7092 H   0  0  0  0  0  0  0  0  0  0  0  0
   28.8311   29.0697   44.0910 C   0  0  0  0  0  0  0  0  0  0  0  0
   28.4957   28.6719   42.8361 N   0  0  0  0  0  0  0  0  0  0  0  0
   27.4897   29.4717   42.4305 C   0  0  0  0  0  0  0  0  0  0  0  0
   27.0442   29.3555   41.4585 H   0  0  0  0  0  0  0  0  0  0  0  0
   27.2037   30.3575   43.4249 N   0  0  0  0  0  0  0  0  0  0  0  0
   28.0207   30.1274   44.4607 C   0  0  0  0  0  0  0  0  0  0  0  0
   28.1951   30.6946   45.7203 C   0  0  0  0  0  0  0  0  0  0  0  0
   29.2645   30.7037   47.5991 H   0  0  0  0  0  0  0  0  0  0  0  0
   28.9852   27.8824   42.3591 H   0  0  0  0  0  0  0  0  0  0  0  0
   27.5421   31.5241   45.9797 H   0  0  0  0  0  0  0  0  0  0  0  0
  1  6  1  0
  3  2  2  0
  4  3  1  0
  5  4  2  0
  5  6  1  0
  6  7  2  0
  7  2  1  0
  8  1  1  0
  9  8  1  0
  9 10  1  0
 11 10  2  0
 12 11  1  0
 13 12  1  0
 13  9  2  0
  1 14  1  0
  1 15  1  0
  2 16  1  0
  3 17  1  0
  4 18  1  0
  8 19  1  0
  8 20  1  0
 10 21  1  0
 11 22  1  0
 23 24  2  0
 24 25  1  0
 25 26  1  0
 25 27  2  0
 27 28  1  0
 28 29  1  0
 29 30  1  0
 29 31  2  0
 31 32  1  0
 32 33  2  0
 33 23  1  0
 32 27  1  0
 23 34  1  0
 28 35  1  0
 33 36  1  0
 12 24  1  0
M  ISO  8  14   8  15   8  16  14  17  14  18  14  19   8  20   8  21  14
M  ISO  3  22  14  26  15  30  14
M  END
>  <DihAtoms>  (1) 
10,11,23,22

>  <DihDeg>  (1) 
166.02412327155193

$$$$
