
 OpenBabel03272509243D

 27 29  0  0  0  0  0  0  0  0999 V2000
   38.5200   31.8290   47.7640 C   0  0  0  0  0  0  0  0  0  0  0  0
   37.8140   32.5250   48.2190 H   0  0  0  0  0  0  0  0  0  0  0  0
   39.5250   31.8060   48.2340 H   0  0  0  0  0  0  0  0  0  0  0  0
   39.9260   32.8540   45.9910 C   0  0  0  0  0  3  0  0  0  0  0  0
   38.7150   32.2500   46.3370 C   0  0  0  0  0  0  0  0  0  0  0  0
   37.8050   32.1020   45.3100 C   0  0  0  0  0  0  0  0  0  0  0  0
   36.8690   31.6360   45.5800 H   0  0  0  0  0  0  0  0  0  0  0  0
   38.1180   32.5360   44.0510 C   0  0  0  0  0  0  0  0  0  0  0  0
   37.4070   32.5030   42.8970 N   0  0  0  0  0  0  0  0  0  0  0  0
   38.1550   33.0600   41.9040 C   0  0  0  0  0  0  0  0  0  0  0  0
   37.8860   33.1920   40.8580 H   0  0  0  0  0  0  0  0  0  0  0  0
   39.3370   33.4450   42.4270 N   0  0  0  0  0  0  0  0  0  0  0  0
   39.3230   33.1270   43.7380 C   0  0  0  0  0  0  0  0  0  0  0  0
   40.2660   33.2980   44.7300 C   0  0  0  0  0  3  0  0  0  0  0  0
   36.4380   32.1160   42.7700 H   0  0  0  0  0  0  0  0  0  0  0  0
   37.8960   30.4400   47.7480 C   0  0  0  0  0  0  0  0  0  0  0  0
   38.7030   29.6830   47.5470 H   0  0  0  0  0  0  0  0  0  0  0  0
   37.1040   30.4080   46.9950 H   0  0  0  0  0  0  0  0  0  0  0  0
   37.2940   30.1310   51.4900 C   0  0  0  0  0  0  0  0  0  0  0  0
   37.9000   30.4620   50.2780 C   0  0  0  0  0  0  0  0  0  0  0  0
   37.3100   30.1210   49.0740 C   0  0  0  0  0  0  0  0  0  0  0  0
   36.1270   29.4580   49.1440 N   0  0  0  0  0  0  0  0  0  0  0  0
   35.5430   29.1400   50.3230 C   0  0  0  0  0  0  0  0  0  0  0  0
   36.1290   29.4780   51.4920 N   0  0  0  0  0  0  0  0  0  0  0  0
   37.8220   30.4360   52.3960 H   0  0  0  0  0  0  0  0  0  0  0  0
   38.8420   30.9890   50.2800 H   0  0  0  0  0  0  0  0  0  0  0  0
   34.5970   28.6100   50.3020 H   0  0  0  0  0  0  0  0  0  0  0  0
  1  2  1  0  0  0  0
  1  3  1  0  0  0  0
  4  5  1  0  0  0  0
  5  1  1  0  0  0  0
  6  7  1  0  0  0  0
  6  5  2  0  0  0  0
  8  6  1  0  0  0  0
  9  8  1  0  0  0  0
 10 12  2  0  0  0  0
 10  9  1  0  0  0  0
 11 10  1  0  0  0  0
 12 13  1  0  0  0  0
 13  8  2  0  0  0  0
 13 14  1  0  0  0  0
 14  4  2  0  0  0  0
 15  9  1  0  0  0  0
 16  1  1  0  0  0  0
 16 21  1  0  0  0  0
 17 16  1  0  0  0  0
 18 16  1  0  0  0  0
 19 24  1  0  0  0  0
 19 25  1  0  0  0  0
 20 26  1  0  0  0  0
 20 19  2  0  0  0  0
 21 22  2  0  0  0  0
 21 20  1  0  0  0  0
 22 23  1  0  0  0  0
 23 24  2  0  0  0  0
 27 23  1  0  0  0  0
M  END
>  <minimizedAffinity>
-5.74138927

>  <minimizedRMSD>
1.65138197

$$$$
