
 OpenBabel03272504223D

 42 45  0  0  1  0  0  0  0  0999 V2000
   38.9270   32.3770   47.9040 C   0  0  2  0  0  0  0  0  0  0  0  0
   38.1700   31.3800   48.7650 C   0  0  1  0  0  0  0  0  0  0  0  0
   38.5480   31.9550   50.1420 C   0  0  0  0  0  0  0  0  0  0  0  0
   38.2310   33.2930   49.9580 O   0  0  0  0  0  0  0  0  0  0  0  0
   38.6530   33.6460   48.6980 C   0  0  0  0  0  0  0  0  0  0  0  0
   39.9980   32.0960   47.9460 H   0  0  0  0  0  0  0  0  0  0  0  0
   38.5060   30.3500   48.6540 H   0  0  0  0  0  0  0  0  0  0  0  0
   39.6440   31.8580   50.2340 H   0  0  0  0  0  0  0  0  0  0  0  0
   37.9780   31.4970   50.9500 H   0  0  0  0  0  0  0  0  0  0  0  0
   39.5420   34.2910   48.7750 H   0  0  0  0  0  0  0  0  0  0  0  0
   37.8440   34.2020   48.1480 H   0  0  0  0  0  0  0  0  0  0  0  0
   36.8300   31.5820   48.5290 O   0  0  0  0  0  0  0  0  0  0  0  0
   35.9720   29.7500   46.8900 O   0  0  0  0  0  0  0  0  0  0  0  0
   35.9850   30.1350   48.3390 P   0  0  1  0  0  0  0  0  0  0  0  0
   36.7620   28.8810   49.2150 O   0  0  0  0  0  0  0  0  0  0  0  0
   37.5480   28.5570   48.7180 H   0  0  0  0  0  0  0  0  0  0  0  0
   34.3970   30.3160   48.9250 O   0  0  0  0  0  0  0  0  0  0  0  0
   34.1260   29.2140   49.7110 C   0  0  0  0  0  0  0  0  0  0  0  0
   33.5650   29.6070   50.6020 H   0  0  0  0  0  0  0  0  0  0  0  0
   35.0530   28.7730   50.1140 H   0  0  0  0  0  0  0  0  0  0  0  0
   33.2630   28.2170   49.0420 C   0  0  0  0  0  0  0  0  0  0  0  0
   33.8870   27.3100   48.2190 C   0  0  0  0  0  0  0  0  0  0  0  0
   33.1280   26.3420   47.5580 C   0  0  0  0  0  0  0  0  0  0  0  0
   31.7820   26.3580   47.7740 N   0  0  0  0  0  0  0  0  0  0  0  0
   31.1910   27.2600   48.5870 C   0  0  0  0  0  0  0  0  0  0  0  0
   31.9300   28.1940   49.2240 N   0  0  0  0  0  0  0  0  0  0  0  0
   34.9300   27.2180   47.9880 H   0  0  0  0  0  0  0  0  0  0  0  0
   33.5280   25.5870   46.8920 H   0  0  0  0  0  0  0  0  0  0  0  0
   30.1140   27.2490   48.7410 H   0  0  0  0  0  0  0  0  0  0  0  0
   38.3650   32.3680   46.6540 O   0  0  0  0  0  0  0  0  0  0  0  0
   39.1560   32.9110   44.5470 C   0  0  0  0  0  3  0  0  0  0  0  0
   38.8800   31.9050   45.4670 C   0  0  0  0  0  0  0  0  0  0  0  0
   39.1460   30.5940   45.0950 C   0  0  0  0  0  0  0  0  0  0  0  0
   38.9020   29.8730   45.8660 H   0  0  0  0  0  0  0  0  0  0  0  0
   39.6680   30.3140   43.8450 C   0  0  0  0  0  0  0  0  0  0  0  0
   39.9880   29.1190   43.3120 N   0  0  0  0  0  0  0  0  0  0  0  0
   40.4520   29.4010   42.0810 C   0  0  0  0  0  0  0  0  0  0  0  0
   40.7900   28.5980   41.4140 H   0  0  0  0  0  0  0  0  0  0  0  0
   40.4190   30.7300   41.8660 N   0  0  0  0  0  0  0  0  0  0  0  0
   39.9240   31.3490   42.9690 C   0  0  0  0  0  0  0  0  0  0  0  0
   39.6770   32.6610   43.2930 C   0  0  0  0  0  3  0  0  0  0  0  0
   39.8950   28.1810   43.7540 H   0  0  0  0  0  0  0  0  0  0  0  0
  1  6  1  6  0  0  0
  1  5  1  0  0  0  0
  1  2  1  0  0  0  0
  2  7  1  6  0  0  0
  2  3  1  0  0  0  0
  3  8  1  0  0  0  0
  3  9  1  0  0  0  0
  4  3  1  0  0  0  0
  5 10  1  0  0  0  0
  5  4  1  0  0  0  0
 11  5  1  0  0  0  0
 12  2  1  0  0  0  0
 14 13  2  6  0  0  0
 14 12  1  0  0  0  0
 14 17  1  0  0  0  0
 14 15  1  0  0  0  0
 16 15  1  0  0  0  0
 17 18  1  0  0  0  0
 18 20  1  0  0  0  0
 18 19  1  0  0  0  0
 21 26  1  0  0  0  0
 21 18  1  0  0  0  0
 22 21  2  0  0  0  0
 23 24  2  0  0  0  0
 23 22  1  0  0  0  0
 24 25  1  0  0  0  0
 25 29  1  0  0  0  0
 25 26  2  0  0  0  0
 27 22  1  0  0  0  0
 28 23  1  0  0  0  0
 30  1  1  0  0  0  0
 31 32  1  0  0  0  0
 32 30  1  0  0  0  0
 33 32  2  0  0  0  0
 33 34  1  0  0  0  0
 35 33  1  0  0  0  0
 36 42  1  0  0  0  0
 36 35  1  0  0  0  0
 37 36  1  0  0  0  0
 38 37  1  0  0  0  0
 39 37  2  0  0  0  0
 39 40  1  0  0  0  0
 40 41  1  0  0  0  0
 40 35  2  0  0  0  0
 41 31  2  0  0  0  0
M  END
>  <minimizedAffinity>
-5.33831549

>  <minimizedRMSD>
0.621437013

$$$$
