
 OpenBabel03272509573D

 49 53  0  0  0  0  0  0  0  0999 V2000
   33.3860   27.9320   47.4100 C   0  0  0  0  0  0  0  0  0  0  0  0
   33.4770   28.0050   46.2890 H   0  0  0  0  0  0  0  0  0  0  0  0
   33.7510   26.9400   47.6740 H   0  0  0  0  0  0  0  0  0  0  0  0
   31.9420   28.0330   47.7530 C   0  0  0  0  0  0  0  0  0  0  0  0
   31.5380   27.5820   48.9990 C   0  0  0  0  0  0  0  0  0  0  0  0
   30.2220   27.6390   49.3940 C   0  0  0  0  0  0  0  0  0  0  0  0
   29.3090   28.1410   48.5620 N   0  0  0  0  0  0  0  0  0  0  0  0
   29.7160   28.5830   47.3370 C   0  0  0  0  0  0  0  0  0  0  0  0
   30.9980   28.5340   46.9360 N   0  0  0  0  0  0  0  0  0  0  0  0
   32.2740   27.1740   49.6780 H   0  0  0  0  0  0  0  0  0  0  0  0
   29.8700   27.2980   50.3590 H   0  0  0  0  0  0  0  0  0  0  0  0
   28.6780   29.1380   46.4240 C   0  0  0  0  0  0  0  0  0  0  0  0
   29.0290   30.1460   46.1180 H   0  0  0  0  0  0  0  0  0  0  0  0
   27.7040   29.2640   46.9380 H   0  0  0  0  0  0  0  0  0  0  0  0
   28.7780   28.7490   43.9080 C   0  0  0  0  0  3  0  0  0  0  0  0
   28.5550   28.2950   45.2050 C   0  0  0  0  0  0  0  0  0  0  0  0
   28.1920   26.9590   45.3690 C   0  0  0  0  0  0  0  0  0  0  0  0
   28.0150   26.5940   46.3890 H   0  0  0  0  0  0  0  0  0  0  0  0
   28.0510   26.0940   44.3110 C   0  0  0  0  0  0  0  0  0  0  0  0
   27.7240   24.8070   44.1900 N   0  0  0  0  0  0  0  0  0  0  0  0
   27.7230   24.4120   42.9120 C   0  0  0  0  0  0  0  0  0  0  0  0
   27.4830   23.3970   42.5890 H   0  0  0  0  0  0  0  0  0  0  0  0
   28.0680   25.5020   42.1690 N   0  0  0  0  0  0  0  0  0  0  0  0
   28.2720   26.5400   43.0070 C   0  0  0  0  0  0  0  0  0  0  0  0
   28.6300   27.8660   42.8730 C   0  0  0  0  0  3  0  0  0  0  0  0
   27.5030   24.2290   45.0440 H   0  0  0  0  0  0  0  0  0  0  0  0
   34.2160   28.9810   48.0940 C   0  0  0  0  0  0  0  0  0  0  0  0
   33.6440   29.8380   48.4740 H   0  0  0  0  0  0  0  0  0  0  0  0
   34.9140   29.3890   47.3350 H   0  0  0  0  0  0  0  0  0  0  0  0
   35.0310   28.4020   49.1020 O   0  0  0  0  0  0  0  0  0  0  0  0
   37.2110   30.0880   51.4370 C   0  0  0  0  0  0  0  0  0  0  0  0
   37.9900   30.8400   50.5330 C   0  0  0  0  0  0  0  0  0  0  0  0
   37.7240   30.7260   49.1820 C   0  0  0  0  0  0  0  0  0  0  0  0
   36.7080   29.8760   48.8390 N   0  0  0  0  0  0  0  0  0  0  0  0
   35.9750   29.1680   49.7010 C   0  0  0  0  0  0  0  0  0  0  0  0
   36.2390   29.2830   51.0130 N   0  0  0  0  0  0  0  0  0  0  0  0
   37.4470   30.2020   52.4840 H   0  0  0  0  0  0  0  0  0  0  0  0
   38.7840   31.5040   50.7980 H   0  0  0  0  0  0  0  0  0  0  0  0
   38.8010   33.4080   49.2090 F   0  0  0  0  0  0  0  0  0  0  0  0
   38.9280   32.6610   48.1120 C   0  0  0  0  0  0  0  0  0  0  0  0
   38.4200   31.4200   48.1220 C   0  0  0  0  0  0  0  0  0  0  0  0
   38.6070   30.7260   46.9270 C   0  0  0  0  0  0  0  0  0  0  0  0
   39.2480   31.2610   45.8460 C   0  0  0  0  0  0  0  0  0  0  0  0
   39.7490   32.5440   45.8920 C   0  0  0  0  0  0  0  0  0  0  0  0
   39.5780   33.2410   47.0510 C   0  0  0  0  0  0  0  0  0  0  0  0
   38.2540   29.6980   46.7670 H   0  0  0  0  0  0  0  0  0  0  0  0
   39.3950   30.7220   44.9120 H   0  0  0  0  0  0  0  0  0  0  0  0
   40.2610   32.9720   45.0290 H   0  0  0  0  0  0  0  0  0  0  0  0
   39.9680   34.2510   47.1020 H   0  0  0  0  0  0  0  0  0  0  0  0
  1  3  1  0  0  0  0
  1  4  1  0  0  0  0
  1 27  1  0  0  0  0
  2  1  1  0  0  0  0
  4  5  1  0  0  0  0
  5  6  2  0  0  0  0
  5 10  1  0  0  0  0
  6 11  1  0  0  0  0
  7  6  1  0  0  0  0
  8  7  2  0  0  0  0
  9  8  1  0  0  0  0
  9  4  2  0  0  0  0
 12 14  1  0  0  0  0
 12  8  1  0  0  0  0
 13 12  1  0  0  0  0
 15 16  1  0  0  0  0
 16 17  2  0  0  0  0
 16 12  1  0  0  0  0
 17 18  1  0  0  0  0
 19 17  1  0  0  0  0
 20 19  1  0  0  0  0
 20 26  1  0  0  0  0
 21 20  1  0  0  0  0
 22 21  1  0  0  0  0
 23 21  2  0  0  0  0
 23 24  1  0  0  0  0
 24 19  2  0  0  0  0
 25 24  1  0  0  0  0
 25 15  2  0  0  0  0
 27 28  1  0  0  0  0
 27 30  1  0  0  0  0
 29 27  1  0  0  0  0
 30 35  1  0  0  0  0
 31 37  1  0  0  0  0
 32 38  1  0  0  0  0
 32 31  2  0  0  0  0
 33 32  1  0  0  0  0
 34 33  2  0  0  0  0
 34 35  1  0  0  0  0
 35 36  2  0  0  0  0
 36 31  1  0  0  0  0
 40 41  1  0  0  0  0
 40 39  1  0  0  0  0
 41 33  1  0  0  0  0
 42 41  2  0  0  0  0
 43 44  2  0  0  0  0
 43 42  1  0  0  0  0
 44 45  1  0  0  0  0
 45 49  1  0  0  0  0
 45 40  2  0  0  0  0
 46 42  1  0  0  0  0
 47 43  1  0  0  0  0
 48 44  1  0  0  0  0
M  END
>  <minimizedAffinity>
-6.51289845

>  <minimizedRMSD>
0.559181869

$$$$
