
     RDKit          3D

 51 55  0  0  0  0  0  0  0  0999 V2000
   37.3368   30.1764   51.5188 C   0  0  0  0  0  0  0  0  0  0  0  0
   38.0591   30.8585   50.5171 C   0  0  0  0  0  0  0  0  0  0  0  0
   37.7042   30.6551   49.1968 C   0  0  0  0  0  0  0  0  0  0  0  0
   36.6640   29.7933   48.9805 N   0  0  0  0  0  0  0  0  0  0  0  0
   35.9861   29.1522   49.9339 C   0  0  0  0  0  0  0  0  0  0  0  0
   36.3350   29.3533   51.2154 N   0  0  0  0  0  0  0  0  0  0  0  0
   38.9426   33.2599   49.0193 F   0  0  0  0  0  0  0  0  0  0  0  0
   38.9125   32.4726   47.9444 C   0  0  0  0  0  0  0  0  0  0  0  0
   38.3333   31.2692   48.0492 C   0  0  0  0  0  0  0  0  0  0  0  0
   38.3565   30.5280   46.8682 C   0  0  0  0  0  0  0  0  0  0  0  0
   38.9178   30.9863   45.7106 C   0  0  0  0  0  0  0  0  0  0  0  0
   39.5003   32.2337   45.6604 C   0  0  0  0  0  0  0  0  0  0  0  0
   39.4894   32.9761   46.8030 C   0  0  0  0  0  0  0  0  0  0  0  0
   35.0010   28.3562   49.4519 O   0  0  0  0  0  0  0  0  0  0  0  0
   34.4412   28.6509   48.1812 C   0  0  0  0  0  0  0  0  0  0  0  0
   33.5563   27.5297   47.7126 C   0  0  0  0  0  0  0  0  0  0  0  0
   32.1134   27.8870   47.7536 C   0  0  0  0  0  0  0  0  0  0  0  0
   31.3733   27.4757   48.8500 C   0  0  0  0  0  0  0  0  0  0  0  0
   30.0331   27.7655   48.9641 C   0  0  0  0  0  0  0  0  0  0  0  0
   29.4271   28.4583   47.9999 N   0  0  0  0  0  0  0  0  0  0  0  0
   30.1644   28.8591   46.9238 C   0  0  0  0  0  0  0  0  0  0  0  0
   31.4742   28.5846   46.7966 N   0  0  0  0  0  0  0  0  0  0  0  0
   29.4652   29.6323   45.8587 C   0  0  0  0  0  0  0  0  0  0  0  0
   37.6414   30.3592   52.5384 H   0  0  0  0  0  0  0  0  0  0  0  0
   38.8709   31.5312   50.6835 H   0  0  0  0  0  0  0  0  0  0  0  0
   37.9246   29.5200   46.7817 H   0  0  0  0  0  0  0  0  0  0  0  0
   38.9371   30.4100   44.7879 H   0  0  0  0  0  0  0  0  0  0  0  0
   39.9493   32.6014   44.7364 H   0  0  0  0  0  0  0  0  0  0  0  0
   39.9437   33.9594   46.7795 H   0  0  0  0  0  0  0  0  0  0  0  0
   33.9683   29.6423   48.1634 H   0  0  0  0  0  0  0  0  0  0  0  0
   35.2963   28.7050   47.4763 H   0  0  0  0  0  0  0  0  0  0  0  0
   33.8044   27.2256   46.6569 H   0  0  0  0  0  0  0  0  0  0  0  0
   33.7264   26.6440   48.3255 H   0  0  0  0  0  0  0  0  0  0  0  0
   31.8593   26.9134   49.6354 H   0  0  0  0  0  0  0  0  0  0  0  0
   29.4244   27.4606   49.8055 H   0  0  0  0  0  0  0  0  0  0  0  0
   30.2320   30.2725   45.3754 H   0  0  0  0  0  0  0  0  0  0  0  0
   28.6855   30.2986   46.2789 H   0  0  0  0  0  0  0  0  0  0  0  0
   27.7749   27.9240   45.0108 C   0  0  0  0  0  0  0  0  0  0  0  0
   28.9088   28.7109   44.8305 C   0  0  0  0  0  0  0  0  0  0  0  0
   29.5662   28.6290   43.6034 C   0  0  0  0  0  0  0  0  0  0  0  0
   30.4613   29.2473   43.4551 H   0  0  0  0  0  0  0  0  0  0  0  0
   29.1371   27.8110   42.5864 C   0  0  0  0  0  0  0  0  0  0  0  0
   29.5652   27.5484   41.3510 N   0  0  0  0  0  0  0  0  0  0  0  0
   28.7855   26.6526   40.7346 C   0  0  0  0  0  0  0  0  0  0  0  0
   28.9555   26.2962   39.7181 H   0  0  0  0  0  0  0  0  0  0  0  0
   27.8025   26.3199   41.6201 N   0  0  0  0  0  0  0  0  0  0  0  0
   28.0007   27.0180   42.7576 C   0  0  0  0  0  0  0  0  0  0  0  0
   27.3701   27.1189   43.9815 C   0  0  0  0  0  0  0  0  0  0  0  0
   27.2676   27.9897   45.9629 H   0  0  0  0  0  0  0  0  0  0  0  0
   30.4229   28.0264   40.9702 H   0  0  0  0  0  0  0  0  0  0  0  0
   26.4813   26.4894   44.0964 H   0  0  0  0  0  0  0  0  0  0  0  0
  2  1  2  0
  3  2  1  0
  4  3  2  0
  4  5  1  0
  5  6  2  0
  6  1  1  0
  8  9  2  0
  8  7  1  0
  9  3  1  0
 10  9  1  0
 11 10  2  0
 12 11  1  0
 12 13  2  0
 13  8  1  0
 14  5  1  0
 15 14  1  0
 16 17  1  0
 16 15  1  0
 17 18  2  0
 18 19  1  0
 20 19  2  0
 21 20  1  0
 22 21  2  0
 22 17  1  0
 23 21  1  0
  1 24  1  0
  2 25  1  0
 10 26  1  0
 11 27  1  0
 12 28  1  0
 13 29  1  0
 15 30  1  0
 15 31  1  0
 16 32  1  0
 16 33  1  0
 18 34  1  0
 19 35  1  0
 23 36  1  0
 23 37  1  0
 38 39  2  0
 39 40  1  0
 40 41  1  0
 40 42  2  0
 42 43  1  0
 43 44  1  0
 44 45  1  0
 44 46  2  0
 46 47  1  0
 47 48  2  0
 48 38  1  0
 47 42  1  0
 38 49  1  0
 43 50  1  0
 48 51  1  0
 23 39  1  0
M  ISO  8  24  14  25  14  26  14  27  14  28  14  29  14  30   8  31   8
M  ISO  8  32   8  33   8  34  14  35  14  36   8  37   8  41  15  45  14
M  END
>  <DihAtoms>  (1) 
20,22,38,37

>  <DihDeg>  (1) 
90.00033796654118

$$$$
