
 OpenBabel03272500383D

 39 42  0  0  1  0  0  0  0  0999 V2000
   38.8990   23.3000   37.1710 C   0  0  0  0  0  0  0  0  0  0  0  0
   40.0850   22.5680   37.2330 C   0  0  0  0  0  0  0  0  0  0  0  0
   40.6630   22.1500   36.0250 C   0  0  0  0  0  0  0  0  0  0  0  0
   40.0150   22.4970   34.8750 N   0  0  0  0  0  0  0  0  0  0  0  0
   38.8640   23.2100   34.8570 C   0  0  0  0  0  0  0  0  0  0  0  0
   38.3210   23.6030   36.0120 N   0  0  0  0  0  0  0  0  0  0  0  0
   38.2840   23.5070   33.5840 N   0  0  0  0  0  0  0  0  0  0  0  0
   37.3430   22.5670   33.0190 C   0  0  0  0  0  0  0  0  0  0  0  0
   37.7450   22.4430   31.5530 C   0  0  0  0  0  0  0  0  0  0  0  0
   37.4000   23.7830   30.9410 C   0  0  0  0  0  0  0  0  0  0  0  0
   38.3740   24.7850   31.4720 C   0  0  0  0  0  0  0  0  0  0  0  0
   38.6540   24.7060   32.9350 C   0  0  1  0  0  0  0  0  0  0  0  0
   40.5610   22.3170   38.1530 H   0  0  0  0  0  0  0  0  0  0  0  0
   41.5810   21.5790   35.9890 H   0  0  0  0  0  0  0  0  0  0  0  0
   36.3200   22.9810   33.0280 H   0  0  0  0  0  0  0  0  0  0  0  0
   37.3680   21.5800   33.5240 H   0  0  0  0  0  0  0  0  0  0  0  0
   38.8420   22.3430   31.5320 H   0  0  0  0  0  0  0  0  0  0  0  0
   37.2130   21.6030   31.0620 H   0  0  0  0  0  0  0  0  0  0  0  0
   37.5000   23.7640   29.8350 H   0  0  0  0  0  0  0  0  0  0  0  0
   36.3550   24.0070   31.2420 H   0  0  0  0  0  0  0  0  0  0  0  0
   37.9680   25.7950   31.2100 H   0  0  0  0  0  0  0  0  0  0  0  0
   39.2870   24.6980   30.8440 H   0  0  0  0  0  0  0  0  0  0  0  0
   39.7770   24.7810   33.0440 H   0  0  0  0  0  0  0  0  0  0  0  0
   38.6440   26.3880   34.8080 C   0  0  0  0  0  3  0  0  0  0  0  0
   38.1250   25.9190   33.6170 C   0  0  0  0  0  0  0  0  0  0  0  0
   37.0690   26.6620   33.0950 C   0  0  0  0  0  0  0  0  0  0  0  0
   36.6140   26.3480   32.1590 H   0  0  0  0  0  0  0  0  0  0  0  0
   36.5750   27.7860   33.7220 C   0  0  0  0  0  0  0  0  0  0  0  0
   35.5660   28.6340   33.3790 N   0  0  0  0  0  0  0  0  0  0  0  0
   35.5230   29.5640   34.3660 C   0  0  0  0  0  0  0  0  0  0  0  0
   34.8000   30.3790   34.3530 H   0  0  0  0  0  0  0  0  0  0  0  0
   36.4610   29.3200   35.2950 N   0  0  0  0  0  0  0  0  0  0  0  0
   37.1200   28.2220   34.9110 C   0  0  0  0  0  0  0  0  0  0  0  0
   38.1690   27.5090   35.4570 C   0  0  0  0  0  3  0  0  0  0  0  0
   34.9530   28.5830   32.5360 H   0  0  0  0  0  0  0  0  0  0  0  0
   38.2720   23.7520   38.4590 C   0  0  0  0  0  0  0  0  0  0  0  0
   37.8510   25.0770   38.3370 F   0  0  0  0  0  0  0  0  0  0  0  0
   37.2760   22.8890   38.7880 F   0  0  0  0  0  0  0  0  0  0  0  0
   39.2740   23.7590   39.4200 F   0  0  0  0  0  0  0  0  0  0  0  0
  1  2  1  0  0  0  0
  1 36  1  0  0  0  0
  2 13  1  0  0  0  0
  3  2  2  0  0  0  0
  4  3  1  0  0  0  0
  5  4  2  0  0  0  0
  5  6  1  0  0  0  0
  6  1  2  0  0  0  0
  7  5  1  0  0  0  0
  8 15  1  0  0  0  0
  8 16  1  0  0  0  0
  8  7  1  0  0  0  0
  9  8  1  0  0  0  0
 10 20  1  0  0  0  0
 10 11  1  0  0  0  0
 10  9  1  0  0  0  0
 11 12  1  0  0  0  0
 12 23  1  1  0  0  0
 12  7  1  0  0  0  0
 12 25  1  0  0  0  0
 14  3  1  0  0  0  0
 17  9  1  0  0  0  0
 18  9  1  0  0  0  0
 19 10  1  0  0  0  0
 21 11  1  0  0  0  0
 22 11  1  0  0  0  0
 24 34  1  0  0  0  0
 25 24  2  0  0  0  0
 26 25  1  0  0  0  0
 26 28  2  0  0  0  0
 27 26  1  0  0  0  0
 28 33  1  0  0  0  0
 29 28  1  0  0  0  0
 29 30  1  0  0  0  0
 30 32  2  0  0  0  0
 31 30  1  0  0  0  0
 33 32  1  0  0  0  0
 33 34  2  0  0  0  0
 35 29  1  0  0  0  0
 36 38  1  0  0  0  0
 36 39  1  0  0  0  0
 37 36  1  0  0  0  0
M  END
>  <minimizedAffinity>
-6.4795146

$$$$

 OpenBabel03272500383D

 39 42  0  0  1  0  0  0  0  0999 V2000
   38.6230   24.2410   35.5920 C   0  0  0  0  0  0  0  0  0  0  0  0
   39.7940   23.5640   35.9370 C   0  0  0  0  0  0  0  0  0  0  0  0
   40.0200   22.3060   35.3600 C   0  0  0  0  0  0  0  0  0  0  0  0
   39.0700   21.8390   34.4980 N   0  0  0  0  0  0  0  0  0  0  0  0
   37.9460   22.5280   34.1870 C   0  0  0  0  0  0  0  0  0  0  0  0
   37.7400   23.7250   34.7420 N   0  0  0  0  0  0  0  0  0  0  0  0
   37.0290   21.9270   33.2700 N   0  0  0  0  0  0  0  0  0  0  0  0
   35.9850   21.0760   33.7950 C   0  0  0  0  0  0  0  0  0  0  0  0
   35.9650   19.8640   32.8710 C   0  0  0  0  0  0  0  0  0  0  0  0
   35.4370   20.3890   31.5530 C   0  0  0  0  0  0  0  0  0  0  0  0
   36.5020   21.2500   30.9530 C   0  0  0  0  0  0  0  0  0  0  0  0
   37.1800   22.1920   31.8900 C   0  0  1  0  0  0  0  0  0  0  0  0
   40.5120   23.9630   36.6160 H   0  0  0  0  0  0  0  0  0  0  0  0
   40.9020   21.7190   35.5780 H   0  0  0  0  0  0  0  0  0  0  0  0
   34.9980   21.5600   33.6980 H   0  0  0  0  0  0  0  0  0  0  0  0
   36.1690   20.7740   34.8460 H   0  0  0  0  0  0  0  0  0  0  0  0
   37.0140   19.5680   32.7120 H   0  0  0  0  0  0  0  0  0  0  0  0
   35.3330   19.0540   33.2870 H   0  0  0  0  0  0  0  0  0  0  0  0
   35.2250   19.5640   30.8410 H   0  0  0  0  0  0  0  0  0  0  0  0
   34.5140   20.9590   31.7890 H   0  0  0  0  0  0  0  0  0  0  0  0
   36.0200   21.8180   30.1160 H   0  0  0  0  0  0  0  0  0  0  0  0
   37.2050   20.5630   30.4340 H   0  0  0  0  0  0  0  0  0  0  0  0
   38.2870   22.1010   31.6790 H   0  0  0  0  0  0  0  0  0  0  0  0
   35.5360   24.0410   31.4220 C   0  0  0  0  0  3  0  0  0  0  0  0
   36.8390   23.5960   31.5300 C   0  0  0  0  0  0  0  0  0  0  0  0
   37.8180   24.5530   31.2770 C   0  0  0  0  0  0  0  0  0  0  0  0
   38.8650   24.2710   31.3450 H   0  0  0  0  0  0  0  0  0  0  0  0
   37.5090   25.8560   30.9430 C   0  0  0  0  0  0  0  0  0  0  0  0
   38.3070   26.9230   30.6630 N   0  0  0  0  0  0  0  0  0  0  0  0
   37.4590   27.9500   30.4030 C   0  0  0  0  0  0  0  0  0  0  0  0
   37.8260   28.9430   30.1450 H   0  0  0  0  0  0  0  0  0  0  0  0
   36.1800   27.5560   30.5120 N   0  0  0  0  0  0  0  0  0  0  0  0
   36.1940   26.2600   30.8460 C   0  0  0  0  0  0  0  0  0  0  0  0
   35.1980   25.3370   31.0900 C   0  0  0  0  0  3  0  0  0  0  0  0
   39.3500   26.9500   30.6500 H   0  0  0  0  0  0  0  0  0  0  0  0
   38.3730   25.5890   36.2040 C   0  0  0  0  0  0  0  0  0  0  0  0
   38.2010   25.4550   37.5820 F   0  0  0  0  0  0  0  0  0  0  0  0
   39.3890   26.4230   35.8580 F   0  0  0  0  0  0  0  0  0  0  0  0
   37.1570   26.0420   35.7110 F   0  0  0  0  0  0  0  0  0  0  0  0
  1  2  1  0  0  0  0
  1 36  1  0  0  0  0
  2 13  1  0  0  0  0
  3 14  1  0  0  0  0
  3  2  2  0  0  0  0
  4  3  1  0  0  0  0
  5  4  2  0  0  0  0
  5  6  1  0  0  0  0
  6  1  2  0  0  0  0
  7  8  1  0  0  0  0
  7  5  1  0  0  0  0
  8 16  1  0  0  0  0
  9 18  1  0  0  0  0
  9  8  1  0  0  0  0
 10 20  1  0  0  0  0
 10  9  1  0  0  0  0
 11 10  1  0  0  0  0
 11 12  1  0  0  0  0
 12 23  1  6  0  0  0
 12  7  1  0  0  0  0
 15  8  1  0  0  0  0
 17  9  1  0  0  0  0
 19 10  1  0  0  0  0
 21 11  1  0  0  0  0
 22 11  1  0  0  0  0
 24 25  1  0  0  0  0
 25 12  1  0  0  0  0
 26 27  1  0  0  0  0
 26 25  2  0  0  0  0
 28 26  1  0  0  0  0
 29 28  1  0  0  0  0
 30 32  2  0  0  0  0
 30 29  1  0  0  0  0
 31 30  1  0  0  0  0
 32 33  1  0  0  0  0
 33 28  2  0  0  0  0
 33 34  1  0  0  0  0
 34 24  2  0  0  0  0
 35 29  1  0  0  0  0
 36 37  1  0  0  0  0
 38 36  1  0  0  0  0
 39 36  1  0  0  0  0
M  END
>  <minimizedAffinity>
-6.26379871

$$$$

 OpenBabel03272500383D

 39 42  0  0  1  0  0  0  0  0999 V2000
   36.7420   20.9930   32.6390 C   0  0  0  0  0  0  0  0  0  0  0  0
   37.3670   20.0250   31.8510 C   0  0  0  0  0  0  0  0  0  0  0  0
   38.4870   20.4120   31.1000 C   0  0  0  0  0  0  0  0  0  0  0  0
   38.8810   21.7150   31.2010 N   0  0  0  0  0  0  0  0  0  0  0  0
   38.2480   22.6250   31.9790 C   0  0  0  0  0  0  0  0  0  0  0  0
   37.1820   22.2470   32.6900 N   0  0  0  0  0  0  0  0  0  0  0  0
   38.7610   23.9590   31.9960 N   0  0  0  0  0  0  0  0  0  0  0  0
   38.2580   24.9040   31.0250 C   0  0  0  0  0  0  0  0  0  0  0  0
   39.4950   25.6300   30.5080 C   0  0  0  0  0  0  0  0  0  0  0  0
   39.9730   26.4640   31.6770 C   0  0  0  0  0  0  0  0  0  0  0  0
   40.5370   25.5260   32.6970 C   0  0  0  0  0  0  0  0  0  0  0  0
   39.7350   24.2970   32.9620 C   0  0  1  0  0  0  0  0  0  0  0  0
   37.0270   19.0160   31.7990 H   0  0  0  0  0  0  0  0  0  0  0  0
   39.0250   19.7210   30.4650 H   0  0  0  0  0  0  0  0  0  0  0  0
   37.6270   25.6680   31.5110 H   0  0  0  0  0  0  0  0  0  0  0  0
   37.7080   24.4140   30.1960 H   0  0  0  0  0  0  0  0  0  0  0  0
   40.2590   24.8600   30.3170 H   0  0  0  0  0  0  0  0  0  0  0  0
   39.2540   26.2480   29.6190 H   0  0  0  0  0  0  0  0  0  0  0  0
   40.7800   27.1640   31.3760 H   0  0  0  0  0  0  0  0  0  0  0  0
   39.0870   27.0160   32.0540 H   0  0  0  0  0  0  0  0  0  0  0  0
   40.6610   26.1180   33.6400 H   0  0  0  0  0  0  0  0  0  0  0  0
   41.5810   25.3110   32.3820 H   0  0  0  0  0  0  0  0  0  0  0  0
   40.4720   23.4390   32.9700 H   0  0  0  0  0  0  0  0  0  0  0  0
   38.2870   25.3020   34.7610 C   0  0  0  0  0  3  0  0  0  0  0  0
   39.1870   24.3390   34.3460 C   0  0  0  0  0  0  0  0  0  0  0  0
   39.5490   23.4070   35.3140 C   0  0  0  0  0  0  0  0  0  0  0  0
   40.2540   22.6210   35.0550 H   0  0  0  0  0  0  0  0  0  0  0  0
   39.0450   23.4410   36.5980 C   0  0  0  0  0  0  0  0  0  0  0  0
   39.2710   22.6340   37.6710 N   0  0  0  0  0  0  0  0  0  0  0  0
   38.5060   23.1400   38.6720 C   0  0  0  0  0  0  0  0  0  0  0  0
   38.4880   22.6870   39.6630 H   0  0  0  0  0  0  0  0  0  0  0  0
   37.8250   24.2190   38.2550 N   0  0  0  0  0  0  0  0  0  0  0  0
   38.1490   24.4190   36.9730 C   0  0  0  0  0  0  0  0  0  0  0  0
   37.7680   25.3600   36.0370 C   0  0  0  0  0  3  0  0  0  0  0  0
   39.8980   21.8010   37.7190 H   0  0  0  0  0  0  0  0  0  0  0  0
   35.5420   20.5880   33.4460 C   0  0  0  0  0  0  0  0  0  0  0  0
   35.7040   21.0040   34.7680 F   0  0  0  0  0  0  0  0  0  0  0  0
   34.4260   21.0820   32.8500 F   0  0  0  0  0  0  0  0  0  0  0  0
   35.5240   19.2010   33.4840 F   0  0  0  0  0  0  0  0  0  0  0  0
  1  6  1  0  0  0  0
  1 36  1  0  0  0  0
  2  1  2  0  0  0  0
  3  4  2  0  0  0  0
  3  2  1  0  0  0  0
  4  5  1  0  0  0  0
  5  7  1  0  0  0  0
  5  6  2  0  0  0  0
  7 12  1  0  0  0  0
  8 15  1  0  0  0  0
  8  7  1  0  0  0  0
  9  8  1  0  0  0  0
  9 10  1  0  0  0  0
 10 20  1  0  0  0  0
 10 11  1  0  0  0  0
 11 12  1  0  0  0  0
 11 21  1  0  0  0  0
 12 23  1  6  0  0  0
 12 25  1  0  0  0  0
 13  2  1  0  0  0  0
 14  3  1  0  0  0  0
 16  8  1  0  0  0  0
 17  9  1  0  0  0  0
 18  9  1  0  0  0  0
 19 10  1  0  0  0  0
 22 11  1  0  0  0  0
 24 34  1  0  0  0  0
 25 24  2  0  0  0  0
 25 26  1  0  0  0  0
 26 28  2  0  0  0  0
 27 26  1  0  0  0  0
 28 33  1  0  0  0  0
 28 29  1  0  0  0  0
 29 35  1  0  0  0  0
 29 30  1  0  0  0  0
 30 31  1  0  0  0  0
 32 30  2  0  0  0  0
 33 32  1  0  0  0  0
 34 33  2  0  0  0  0
 36 39  1  0  0  0  0
 36 37  1  0  0  0  0
 38 36  1  0  0  0  0
M  END
>  <minimizedAffinity>
-6.02709007

$$$$

 OpenBabel03272500383D

 39 42  0  0  1  0  0  0  0  0999 V2000
   37.3270   25.7520   31.9570 C   0  0  0  0  0  0  0  0  0  0  0  0
   36.0880   26.2140   31.5120 C   0  0  0  0  0  0  0  0  0  0  0  0
   35.1130   25.2630   31.1760 C   0  0  0  0  0  0  0  0  0  0  0  0
   35.4560   23.9490   31.3130 N   0  0  0  0  0  0  0  0  0  0  0  0
   36.6720   23.5400   31.7490 C   0  0  0  0  0  0  0  0  0  0  0  0
   37.5930   24.4540   32.0660 N   0  0  0  0  0  0  0  0  0  0  0  0
   36.9060   22.1330   31.8470 N   0  0  0  0  0  0  0  0  0  0  0  0
   37.4350   21.4400   30.6950 C   0  0  0  0  0  0  0  0  0  0  0  0
   36.6090   20.1620   30.5930 C   0  0  0  0  0  0  0  0  0  0  0  0
   37.0240   19.3350   31.7900 C   0  0  0  0  0  0  0  0  0  0  0  0
   36.4660   19.9980   33.0090 C   0  0  0  0  0  0  0  0  0  0  0  0
   36.6120   21.4810   33.0660 C   0  0  1  0  0  0  0  0  0  0  0  0
   35.8580   27.2510   31.4180 H   0  0  0  0  0  0  0  0  0  0  0  0
   34.1290   25.5410   30.8240 H   0  0  0  0  0  0  0  0  0  0  0  0
   38.4770   21.1240   30.8700 H   0  0  0  0  0  0  0  0  0  0  0  0
   37.3590   22.0380   29.7640 H   0  0  0  0  0  0  0  0  0  0  0  0
   35.5560   20.4510   30.7390 H   0  0  0  0  0  0  0  0  0  0  0  0
   36.7970   19.6390   29.6330 H   0  0  0  0  0  0  0  0  0  0  0  0
   36.6060   18.3070   31.7410 H   0  0  0  0  0  0  0  0  0  0  0  0
   38.1330   19.3140   31.7900 H   0  0  0  0  0  0  0  0  0  0  0  0
   36.9730   19.5260   33.8900 H   0  0  0  0  0  0  0  0  0  0  0  0
   35.4120   19.6560   33.0980 H   0  0  0  0  0  0  0  0  0  0  0  0
   35.6070   21.8820   33.3950 H   0  0  0  0  0  0  0  0  0  0  0  0
   38.9190   21.8790   33.9940 C   0  0  0  0  0  3  0  0  0  0  0  0
   37.5480   21.8550   34.1620 C   0  0  0  0  0  0  0  0  0  0  0  0
   37.0980   22.2070   35.4310 C   0  0  0  0  0  0  0  0  0  0  0  0
   36.0300   22.2100   35.6330 H   0  0  0  0  0  0  0  0  0  0  0  0
   37.9590   22.5550   36.4510 C   0  0  0  0  0  0  0  0  0  0  0  0
   37.7210   22.9230   37.7400 N   0  0  0  0  0  0  0  0  0  0  0  0
   38.9430   23.1500   38.2840 C   0  0  0  0  0  0  0  0  0  0  0  0
   39.0580   23.4630   39.3220 H   0  0  0  0  0  0  0  0  0  0  0  0
   39.9150   22.9360   37.3830 N   0  0  0  0  0  0  0  0  0  0  0  0
   39.3220   22.5660   36.2430 C   0  0  0  0  0  0  0  0  0  0  0  0
   39.8030   22.2230   34.9950 C   0  0  0  0  0  3  0  0  0  0  0  0
   36.7960   23.0140   38.2140 H   0  0  0  0  0  0  0  0  0  0  0  0
   38.3770   26.7630   32.3190 C   0  0  0  0  0  0  0  0  0  0  0  0
   39.1610   27.0470   31.2000 F   0  0  0  0  0  0  0  0  0  0  0  0
   37.7680   27.8550   32.8510 F   0  0  0  0  0  0  0  0  0  0  0  0
   39.2260   26.1600   33.2360 F   0  0  0  0  0  0  0  0  0  0  0  0
  1  6  1  0  0  0  0
  1 36  1  0  0  0  0
  2  1  2  0  0  0  0
  3  4  2  0  0  0  0
  3  2  1  0  0  0  0
  4  5  1  0  0  0  0
  5  7  1  0  0  0  0
  5  6  2  0  0  0  0
  7 12  1  0  0  0  0
  8 15  1  0  0  0  0
  8  7  1  0  0  0  0
  9  8  1  0  0  0  0
  9 17  1  0  0  0  0
  9 10  1  0  0  0  0
 10 11  1  0  0  0  0
 11 12  1  0  0  0  0
 11 22  1  0  0  0  0
 11 21  1  0  0  0  0
 12 23  1  1  0  0  0
 12 25  1  0  0  0  0
 13  2  1  0  0  0  0
 14  3  1  0  0  0  0
 16  8  1  0  0  0  0
 18  9  1  0  0  0  0
 19 10  1  0  0  0  0
 20 10  1  0  0  0  0
 24 25  2  0  0  0  0
 24 34  1  0  0  0  0
 25 26  1  0  0  0  0
 26 27  1  0  0  0  0
 26 28  2  0  0  0  0
 28 29  1  0  0  0  0
 29 35  1  0  0  0  0
 29 30  1  0  0  0  0
 30 31  1  0  0  0  0
 32 30  2  0  0  0  0
 33 28  1  0  0  0  0
 33 32  1  0  0  0  0
 34 33  2  0  0  0  0
 36 38  1  0  0  0  0
 36 39  1  0  0  0  0
 37 36  1  0  0  0  0
M  END
>  <minimizedAffinity>
-5.90832949

$$$$

 OpenBabel03272500383D

 39 42  0  0  1  0  0  0  0  0999 V2000
   37.0000   22.3120   32.4200 C   0  0  0  0  0  0  0  0  0  0  0  0
   36.6650   22.7930   31.1530 C   0  0  0  0  0  0  0  0  0  0  0  0
   36.8240   24.1650   30.9070 C   0  0  0  0  0  0  0  0  0  0  0  0
   37.2990   24.9280   31.9340 N   0  0  0  0  0  0  0  0  0  0  0  0
   37.6150   24.4230   33.1500 C   0  0  0  0  0  0  0  0  0  0  0  0
   37.4590   23.1160   33.3750 N   0  0  0  0  0  0  0  0  0  0  0  0
   38.1030   25.3300   34.1420 N   0  0  0  0  0  0  0  0  0  0  0  0
   37.1480   25.9840   35.0080 C   0  0  0  0  0  0  0  0  0  0  0  0
   37.6000   27.4390   35.0630 C   0  0  0  0  0  0  0  0  0  0  0  0
   38.9010   27.4130   35.8370 C   0  0  0  0  0  0  0  0  0  0  0  0
   39.9310   26.7740   34.9610 C   0  0  0  0  0  0  0  0  0  0  0  0
   39.4960   25.5480   34.2340 C   0  0  1  0  0  0  0  0  0  0  0  0
   36.2960   22.1630   30.3760 H   0  0  0  0  0  0  0  0  0  0  0  0
   36.5860   24.6130   29.9520 H   0  0  0  0  0  0  0  0  0  0  0  0
   37.2220   25.5950   36.0380 H   0  0  0  0  0  0  0  0  0  0  0  0
   36.1070   25.9040   34.6350 H   0  0  0  0  0  0  0  0  0  0  0  0
   37.8370   27.7380   34.0290 H   0  0  0  0  0  0  0  0  0  0  0  0
   36.8340   28.0790   35.5460 H   0  0  0  0  0  0  0  0  0  0  0  0
   39.2500   28.4380   36.0810 H   0  0  0  0  0  0  0  0  0  0  0  0
   38.7070   26.8270   36.7590 H   0  0  0  0  0  0  0  0  0  0  0  0
   40.8090   26.5430   35.6190 H   0  0  0  0  0  0  0  0  0  0  0  0
   40.3110   27.5740   34.2890 H   0  0  0  0  0  0  0  0  0  0  0  0
   39.8590   25.6700   33.1690 H   0  0  0  0  0  0  0  0  0  0  0  0
   41.1860   23.6950   34.0080 C   0  0  0  0  0  3  0  0  0  0  0  0
   40.2330   24.3630   34.7530 C   0  0  0  0  0  0  0  0  0  0  0  0
   40.0070   23.8500   36.0270 C   0  0  0  0  0  0  0  0  0  0  0  0
   39.2700   24.3280   36.6670 H   0  0  0  0  0  0  0  0  0  0  0  0
   40.6860   22.7520   36.5130 C   0  0  0  0  0  0  0  0  0  0  0  0
   40.6110   22.1090   37.7110 N   0  0  0  0  0  0  0  0  0  0  0  0
   41.5100   21.0960   37.6350 C   0  0  0  0  0  0  0  0  0  0  0  0
   41.6650   20.4060   38.4640 H   0  0  0  0  0  0  0  0  0  0  0  0
   42.1300   21.0940   36.4440 N   0  0  0  0  0  0  0  0  0  0  0  0
   41.6310   22.1130   35.7370 C   0  0  0  0  0  0  0  0  0  0  0  0
   41.8800   22.5960   34.4680 C   0  0  0  0  0  3  0  0  0  0  0  0
   39.9930   22.3420   38.5190 H   0  0  0  0  0  0  0  0  0  0  0  0
   36.8340   20.8450   32.6930 C   0  0  0  0  0  0  0  0  0  0  0  0
   35.9230   20.2990   31.7880 F   0  0  0  0  0  0  0  0  0  0  0  0
   38.0570   20.2530   32.6630 F   0  0  0  0  0  0  0  0  0  0  0  0
   36.2450   20.7270   33.9430 F   0  0  0  0  0  0  0  0  0  0  0  0
  1 36  1  0  0  0  0
  1  6  1  0  0  0  0
  2  1  2  0  0  0  0
  3  2  1  0  0  0  0
  3  4  2  0  0  0  0
  4  5  1  0  0  0  0
  5  6  2  0  0  0  0
  5  7  1  0  0  0  0
  7 12  1  0  0  0  0
  7  8  1  0  0  0  0
  8  9  1  0  0  0  0
  8 15  1  0  0  0  0
  9 18  1  0  0  0  0
  9 10  1  0  0  0  0
 10 19  1  0  0  0  0
 10 20  1  0  0  0  0
 11 21  1  0  0  0  0
 11 10  1  0  0  0  0
 12 23  1  6  0  0  0
 12 25  1  0  0  0  0
 12 11  1  0  0  0  0
 13  2  1  0  0  0  0
 14  3  1  0  0  0  0
 16  8  1  0  0  0  0
 17  9  1  0  0  0  0
 22 11  1  0  0  0  0
 24 34  2  0  0  0  0
 24 25  1  0  0  0  0
 25 26  2  0  0  0  0
 26 28  1  0  0  0  0
 26 27  1  0  0  0  0
 28 29  1  0  0  0  0
 29 35  1  0  0  0  0
 30 29  1  0  0  0  0
 30 31  1  0  0  0  0
 32 30  2  0  0  0  0
 33 32  1  0  0  0  0
 33 28  2  0  0  0  0
 34 33  1  0  0  0  0
 36 39  1  0  0  0  0
 37 36  1  0  0  0  0
 38 36  1  0  0  0  0
M  END
>  <minimizedAffinity>
-5.89707899

$$$$

 OpenBabel03272500383D

 39 42  0  0  1  0  0  0  0  0999 V2000
   38.8780   23.1780   36.8340 C   0  0  0  0  0  0  0  0  0  0  0  0
   39.9600   22.7350   37.5950 C   0  0  0  0  0  0  0  0  0  0  0  0
   41.2440   22.8500   37.0410 C   0  0  0  0  0  0  0  0  0  0  0  0
   41.3340   23.3930   35.7920 N   0  0  0  0  0  0  0  0  0  0  0  0
   40.2570   23.8130   35.0850 C   0  0  0  0  0  0  0  0  0  0  0  0
   39.0390   23.6980   35.6210 N   0  0  0  0  0  0  0  0  0  0  0  0
   40.4870   24.3620   33.7860 N   0  0  0  0  0  0  0  0  0  0  0  0
   40.4910   23.4690   32.6490 C   0  0  0  0  0  0  0  0  0  0  0  0
   41.6940   23.8990   31.8170 C   0  0  0  0  0  0  0  0  0  0  0  0
   41.3180   25.2570   31.2650 C   0  0  0  0  0  0  0  0  0  0  0  0
   41.3350   26.2260   32.4040 C   0  0  0  0  0  0  0  0  0  0  0  0
   40.6980   25.7540   33.6660 C   0  0  1  0  0  0  0  0  0  0  0  0
   39.8480   22.3150   38.5690 H   0  0  0  0  0  0  0  0  0  0  0  0
   42.1330   22.5290   37.5670 H   0  0  0  0  0  0  0  0  0  0  0  0
   39.6010   23.6310   32.0180 H   0  0  0  0  0  0  0  0  0  0  0  0
   40.5720   22.4030   32.9440 H   0  0  0  0  0  0  0  0  0  0  0  0
   42.5300   24.0480   32.5180 H   0  0  0  0  0  0  0  0  0  0  0  0
   41.9110   23.1630   31.0160 H   0  0  0  0  0  0  0  0  0  0  0  0
   42.0530   25.6080   30.5090 H   0  0  0  0  0  0  0  0  0  0  0  0
   40.3090   25.1470   30.8180 H   0  0  0  0  0  0  0  0  0  0  0  0
   40.8290   27.1570   32.0390 H   0  0  0  0  0  0  0  0  0  0  0  0
   42.3940   26.5370   32.5350 H   0  0  0  0  0  0  0  0  0  0  0  0
   41.4110   26.0300   34.5000 H   0  0  0  0  0  0  0  0  0  0  0  0
   39.1630   27.0350   35.1980 C   0  0  0  0  0  3  0  0  0  0  0  0
   39.4700   26.5500   33.9410 C   0  0  0  0  0  0  0  0  0  0  0  0
   38.5480   26.8580   32.9440 C   0  0  0  0  0  0  0  0  0  0  0  0
   38.7280   26.5080   31.9300 H   0  0  0  0  0  0  0  0  0  0  0  0
   37.4090   27.5950   33.1920 C   0  0  0  0  0  0  0  0  0  0  0  0
   36.4020   27.9950   32.3670 N   0  0  0  0  0  0  0  0  0  0  0  0
   35.5450   28.6930   33.1540 C   0  0  0  0  0  0  0  0  0  0  0  0
   34.6340   29.1380   32.7530 H   0  0  0  0  0  0  0  0  0  0  0  0
   35.9850   28.7360   34.4210 N   0  0  0  0  0  0  0  0  0  0  0  0
   37.1380   28.0600   34.4620 C   0  0  0  0  0  0  0  0  0  0  0  0
   38.0310   27.7730   35.4750 C   0  0  0  0  0  3  0  0  0  0  0  0
   36.3060   27.8060   31.3450 H   0  0  0  0  0  0  0  0  0  0  0  0
   37.5000   23.0580   37.4190 C   0  0  0  0  0  0  0  0  0  0  0  0
   37.5890   22.6890   38.7610 F   0  0  0  0  0  0  0  0  0  0  0  0
   36.8360   24.2260   37.2160 F   0  0  0  0  0  0  0  0  0  0  0  0
   36.8720   22.0010   36.7740 F   0  0  0  0  0  0  0  0  0  0  0  0
  1 36  1  0  0  0  0
  1  2  1  0  0  0  0
  2 13  1  0  0  0  0
  3 14  1  0  0  0  0
  3  2  2  0  0  0  0
  4  3  1  0  0  0  0
  5  6  1  0  0  0  0
  5  4  2  0  0  0  0
  6  1  2  0  0  0  0
  7  5  1  0  0  0  0
  8 16  1  0  0  0  0
  8  7  1  0  0  0  0
  9 17  1  0  0  0  0
  9  8  1  0  0  0  0
 10  9  1  0  0  0  0
 10 11  1  0  0  0  0
 11 22  1  0  0  0  0
 11 12  1  0  0  0  0
 12  7  1  0  0  0  0
 12 25  1  0  0  0  0
 12 23  1  1  0  0  0
 15  8  1  0  0  0  0
 18  9  1  0  0  0  0
 19 10  1  0  0  0  0
 20 10  1  0  0  0  0
 21 11  1  0  0  0  0
 24 34  1  0  0  0  0
 25 24  2  0  0  0  0
 26 28  2  0  0  0  0
 26 25  1  0  0  0  0
 27 26  1  0  0  0  0
 28 33  1  0  0  0  0
 29 30  1  0  0  0  0
 29 28  1  0  0  0  0
 30 32  2  0  0  0  0
 31 30  1  0  0  0  0
 32 33  1  0  0  0  0
 33 34  2  0  0  0  0
 35 29  1  0  0  0  0
 36 37  1  0  0  0  0
 38 36  1  0  0  0  0
 39 36  1  0  0  0  0
M  END
>  <minimizedAffinity>
-5.83390713

$$$$

 OpenBabel03272500383D

 39 42  0  0  1  0  0  0  0  0999 V2000
   38.3830   24.8290   35.7790 C   0  0  0  0  0  0  0  0  0  0  0  0
   38.2750   26.0290   36.4830 C   0  0  0  0  0  0  0  0  0  0  0  0
   38.5750   27.2190   35.8030 C   0  0  0  0  0  0  0  0  0  0  0  0
   38.9510   27.1090   34.4960 N   0  0  0  0  0  0  0  0  0  0  0  0
   39.0430   25.9240   33.8470 C   0  0  0  0  0  0  0  0  0  0  0  0
   38.7560   24.7960   34.5030 N   0  0  0  0  0  0  0  0  0  0  0  0
   39.4500   25.9440   32.4770 N   0  0  0  0  0  0  0  0  0  0  0  0
   40.8610   25.8630   32.1750 C   0  0  0  0  0  0  0  0  0  0  0  0
   41.0920   26.9150   31.0960 C   0  0  0  0  0  0  0  0  0  0  0  0
   40.3830   26.3790   29.8710 C   0  0  0  0  0  0  0  0  0  0  0  0
   38.9120   26.4770   30.1260 C   0  0  0  0  0  0  0  0  0  0  0  0
   38.4570   26.0420   31.4770 C   0  0  1  0  0  0  0  0  0  0  0  0
   37.9770   26.0730   37.5060 H   0  0  0  0  0  0  0  0  0  0  0  0
   38.5150   28.1890   36.2800 H   0  0  0  0  0  0  0  0  0  0  0  0
   41.1100   24.8890   31.7200 H   0  0  0  0  0  0  0  0  0  0  0  0
   41.5000   26.0540   33.0610 H   0  0  0  0  0  0  0  0  0  0  0  0
   40.5570   27.8230   31.4170 H   0  0  0  0  0  0  0  0  0  0  0  0
   42.1760   27.0770   30.9200 H   0  0  0  0  0  0  0  0  0  0  0  0
   40.6130   26.9830   28.9690 H   0  0  0  0  0  0  0  0  0  0  0  0
   40.7220   25.3300   29.7460 H   0  0  0  0  0  0  0  0  0  0  0  0
   38.4100   25.8650   29.3330 H   0  0  0  0  0  0  0  0  0  0  0  0
   38.6200   27.5200   29.8770 H   0  0  0  0  0  0  0  0  0  0  0  0
   37.7360   26.8370   31.8350 H   0  0  0  0  0  0  0  0  0  0  0  0
   36.2600   24.8110   31.5300 C   0  0  0  0  0  3  0  0  0  0  0  0
   37.6320   24.8080   31.3600 C   0  0  0  0  0  0  0  0  0  0  0  0
   38.1920   23.5670   31.0710 C   0  0  0  0  0  0  0  0  0  0  0  0
   39.2670   23.4920   30.9250 H   0  0  0  0  0  0  0  0  0  0  0  0
   37.4330   22.4200   30.9620 C   0  0  0  0  0  0  0  0  0  0  0  0
   37.7870   21.1330   30.6900 N   0  0  0  0  0  0  0  0  0  0  0  0
   36.6270   20.4280   30.7080 C   0  0  0  0  0  0  0  0  0  0  0  0
   36.6080   19.3550   30.5210 H   0  0  0  0  0  0  0  0  0  0  0  0
   35.5840   21.2290   30.9790 N   0  0  0  0  0  0  0  0  0  0  0  0
   36.0670   22.4660   31.1390 C   0  0  0  0  0  0  0  0  0  0  0  0
   35.4770   23.6800   31.4260 C   0  0  0  0  0  3  0  0  0  0  0  0
   38.7450   20.7630   30.5070 H   0  0  0  0  0  0  0  0  0  0  0  0
   38.0640   23.5500   36.4980 C   0  0  0  0  0  0  0  0  0  0  0  0
   37.2860   23.8250   37.6230 F   0  0  0  0  0  0  0  0  0  0  0  0
   37.4770   22.6910   35.6230 F   0  0  0  0  0  0  0  0  0  0  0  0
   39.2620   23.0410   36.9790 F   0  0  0  0  0  0  0  0  0  0  0  0
  1  2  1  0  0  0  0
  1 36  1  0  0  0  0
  2 13  1  0  0  0  0
  3 14  1  0  0  0  0
  3  2  2  0  0  0  0
  4  3  1  0  0  0  0
  5  4  2  0  0  0  0
  5  6  1  0  0  0  0
  6  1  2  0  0  0  0
  7  5  1  0  0  0  0
  8  7  1  0  0  0  0
  8 16  1  0  0  0  0
  9 17  1  0  0  0  0
  9  8  1  0  0  0  0
 10 11  1  0  0  0  0
 10  9  1  0  0  0  0
 11 12  1  0  0  0  0
 12 23  1  1  0  0  0
 12  7  1  0  0  0  0
 15  8  1  0  0  0  0
 18  9  1  0  0  0  0
 19 10  1  0  0  0  0
 20 10  1  0  0  0  0
 21 11  1  0  0  0  0
 22 11  1  0  0  0  0
 25 12  1  0  0  0  0
 25 24  2  0  0  0  0
 26 25  1  0  0  0  0
 27 26  1  0  0  0  0
 28 26  2  0  0  0  0
 28 33  1  0  0  0  0
 29 30  1  0  0  0  0
 29 28  1  0  0  0  0
 30 32  2  0  0  0  0
 31 30  1  0  0  0  0
 32 33  1  0  0  0  0
 33 34  2  0  0  0  0
 34 24  1  0  0  0  0
 35 29  1  0  0  0  0
 36 39  1  0  0  0  0
 36 37  1  0  0  0  0
 38 36  1  0  0  0  0
M  END
>  <minimizedAffinity>
-5.78081703

$$$$

 OpenBabel03272500383D

 39 42  0  0  1  0  0  0  0  0999 V2000
   36.9200   22.4460   32.6870 C   0  0  0  0  0  0  0  0  0  0  0  0
   36.6530   21.6140   33.7750 C   0  0  0  0  0  0  0  0  0  0  0  0
   37.3990   21.8060   34.9480 C   0  0  0  0  0  0  0  0  0  0  0  0
   38.3320   22.8020   34.9330 N   0  0  0  0  0  0  0  0  0  0  0  0
   38.5610   23.5900   33.8560 C   0  0  0  0  0  0  0  0  0  0  0  0
   37.8460   23.3990   32.7440 N   0  0  0  0  0  0  0  0  0  0  0  0
   39.5690   24.5970   33.9690 N   0  0  0  0  0  0  0  0  0  0  0  0
   40.9280   24.2560   33.6150 C   0  0  0  0  0  0  0  0  0  0  0  0
   41.7850   24.8570   34.7240 C   0  0  0  0  0  0  0  0  0  0  0  0
   41.6770   26.3540   34.5300 C   0  0  0  0  0  0  0  0  0  0  0  0
   40.2920   26.7590   34.9200 C   0  0  0  0  0  0  0  0  0  0  0  0
   39.1940   25.8830   34.4210 C   0  0  1  0  0  0  0  0  0  0  0  0
   35.9140   20.8460   33.7470 H   0  0  0  0  0  0  0  0  0  0  0  0
   37.2520   21.2020   35.8330 H   0  0  0  0  0  0  0  0  0  0  0  0
   41.2290   24.7600   32.6800 H   0  0  0  0  0  0  0  0  0  0  0  0
   41.0870   23.1610   33.5360 H   0  0  0  0  0  0  0  0  0  0  0  0
   41.2900   24.6110   35.6770 H   0  0  0  0  0  0  0  0  0  0  0  0
   42.8320   24.4960   34.6610 H   0  0  0  0  0  0  0  0  0  0  0  0
   42.3890   26.9020   35.1830 H   0  0  0  0  0  0  0  0  0  0  0  0
   41.8890   26.5490   33.4580 H   0  0  0  0  0  0  0  0  0  0  0  0
   40.1490   27.8070   34.5490 H   0  0  0  0  0  0  0  0  0  0  0  0
   40.2970   26.8710   36.0260 H   0  0  0  0  0  0  0  0  0  0  0  0
   38.5050   25.7110   35.3010 H   0  0  0  0  0  0  0  0  0  0  0  0
   37.0860   27.0640   33.7130 C   0  0  0  0  0  3  0  0  0  0  0  0
   38.3650   26.6240   33.4310 C   0  0  0  0  0  0  0  0  0  0  0  0
   38.8280   26.9210   32.1520 C   0  0  0  0  0  0  0  0  0  0  0  0
   39.8270   26.6040   31.8630 H   0  0  0  0  0  0  0  0  0  0  0  0
   38.0650   27.6070   31.2300 C   0  0  0  0  0  0  0  0  0  0  0  0
   38.3320   27.9890   29.9510 N   0  0  0  0  0  0  0  0  0  0  0  0
   37.2170   28.6350   29.5250 C   0  0  0  0  0  0  0  0  0  0  0  0
   37.1470   29.0540   28.5210 H   0  0  0  0  0  0  0  0  0  0  0  0
   36.2830   28.6630   30.4880 N   0  0  0  0  0  0  0  0  0  0  0  0
   36.7920   28.0300   31.5510 C   0  0  0  0  0  0  0  0  0  0  0  0
   36.3010   27.7520   32.8110 C   0  0  0  0  0  3  0  0  0  0  0  0
   39.2080   27.8230   29.4080 H   0  0  0  0  0  0  0  0  0  0  0  0
   36.1270   22.2490   31.4280 C   0  0  0  0  0  0  0  0  0  0  0  0
   35.7960   23.4890   30.8810 F   0  0  0  0  0  0  0  0  0  0  0  0
   36.8340   21.4510   30.5860 F   0  0  0  0  0  0  0  0  0  0  0  0
   34.9230   21.6600   31.7900 F   0  0  0  0  0  0  0  0  0  0  0  0
  1  6  2  0  0  0  0
  1  2  1  0  0  0  0
  2  3  2  0  0  0  0
  3 14  1  0  0  0  0
  4  3  1  0  0  0  0
  5  7  1  0  0  0  0
  5  4  2  0  0  0  0
  6  5  1  0  0  0  0
  7 12  1  0  0  0  0
  8  7  1  0  0  0  0
  8  9  1  0  0  0  0
  9 17  1  0  0  0  0
 10  9  1  0  0  0  0
 10 11  1  0  0  0  0
 10 19  1  0  0  0  0
 11 22  1  0  0  0  0
 12 11  1  0  0  0  0
 12 23  1  1  0  0  0
 13  2  1  0  0  0  0
 15  8  1  0  0  0  0
 16  8  1  0  0  0  0
 18  9  1  0  0  0  0
 20 10  1  0  0  0  0
 21 11  1  0  0  0  0
 25 24  1  0  0  0  0
 25 12  1  0  0  0  0
 26 25  2  0  0  0  0
 27 26  1  0  0  0  0
 28 33  2  0  0  0  0
 28 26  1  0  0  0  0
 29 28  1  0  0  0  0
 30 29  1  0  0  0  0
 30 32  2  0  0  0  0
 31 30  1  0  0  0  0
 32 33  1  0  0  0  0
 33 34  1  0  0  0  0
 34 24  2  0  0  0  0
 35 29  1  0  0  0  0
 36 39  1  0  0  0  0
 36  1  1  0  0  0  0
 37 36  1  0  0  0  0
 38 36  1  0  0  0  0
M  END
>  <minimizedAffinity>
-5.77629232

$$$$

 OpenBabel03272500383D

 39 42  0  0  1  0  0  0  0  0999 V2000
   36.4300   28.4000   32.9080 C   0  0  0  0  0  0  0  0  0  0  0  0
   35.7280   28.3080   31.7050 C   0  0  0  0  0  0  0  0  0  0  0  0
   36.2630   27.5000   30.6910 C   0  0  0  0  0  0  0  0  0  0  0  0
   37.4370   26.8600   30.9630 N   0  0  0  0  0  0  0  0  0  0  0  0
   38.0890   26.9740   32.1450 C   0  0  0  0  0  0  0  0  0  0  0  0
   37.5720   27.7470   33.1040 N   0  0  0  0  0  0  0  0  0  0  0  0
   39.3130   26.2530   32.3030 N   0  0  0  0  0  0  0  0  0  0  0  0
   40.5480   26.8960   31.9180 C   0  0  0  0  0  0  0  0  0  0  0  0
   41.3220   25.8310   31.1500 C   0  0  0  0  0  0  0  0  0  0  0  0
   41.7070   24.8030   32.1910 C   0  0  0  0  0  0  0  0  0  0  0  0
   40.4590   24.0840   32.5960 C   0  0  0  0  0  0  0  0  0  0  0  0
   39.2630   24.9430   32.8310 C   0  0  1  0  0  0  0  0  0  0  0  0
   34.8110   28.8250   31.5320 H   0  0  0  0  0  0  0  0  0  0  0  0
   35.7780   27.3780   29.7320 H   0  0  0  0  0  0  0  0  0  0  0  0
   41.1560   27.1440   32.8050 H   0  0  0  0  0  0  0  0  0  0  0  0
   40.3840   27.7980   31.2940 H   0  0  0  0  0  0  0  0  0  0  0  0
   40.6070   25.3520   30.4610 H   0  0  0  0  0  0  0  0  0  0  0  0
   42.2050   26.2670   30.6400 H   0  0  0  0  0  0  0  0  0  0  0  0
   42.4140   24.0520   31.7810 H   0  0  0  0  0  0  0  0  0  0  0  0
   42.1640   25.3630   33.0330 H   0  0  0  0  0  0  0  0  0  0  0  0
   40.7090   23.5070   33.5230 H   0  0  0  0  0  0  0  0  0  0  0  0
   40.2910   23.2940   31.8320 H   0  0  0  0  0  0  0  0  0  0  0  0
   38.4020   24.4310   32.3040 H   0  0  0  0  0  0  0  0  0  0  0  0
   38.8710   26.0510   35.0580 C   0  0  0  0  0  3  0  0  0  0  0  0
   38.8950   24.9140   34.2730 C   0  0  0  0  0  0  0  0  0  0  0  0
   38.5510   23.7340   34.9260 C   0  0  0  0  0  0  0  0  0  0  0  0
   38.5490   22.8010   34.3680 H   0  0  0  0  0  0  0  0  0  0  0  0
   38.2100   23.7000   36.2620 C   0  0  0  0  0  0  0  0  0  0  0  0
   37.8490   22.6650   37.0700 N   0  0  0  0  0  0  0  0  0  0  0  0
   37.6260   23.2180   38.2890 C   0  0  0  0  0  0  0  0  0  0  0  0
   37.3190   22.6150   39.1440 H   0  0  0  0  0  0  0  0  0  0  0  0
   37.8350   24.5440   38.2590 N   0  0  0  0  0  0  0  0  0  0  0  0
   38.1980   24.8580   37.0110 C   0  0  0  0  0  0  0  0  0  0  0  0
   38.5340   26.0470   36.3950 C   0  0  0  0  0  3  0  0  0  0  0  0
   37.7610   21.6580   36.8110 H   0  0  0  0  0  0  0  0  0  0  0  0
   35.8650   29.2620   33.9990 C   0  0  0  0  0  0  0  0  0  0  0  0
   36.5740   29.0490   35.1820 F   0  0  0  0  0  0  0  0  0  0  0  0
   35.8720   30.5560   33.5840 F   0  0  0  0  0  0  0  0  0  0  0  0
   34.5740   28.8170   34.2450 F   0  0  0  0  0  0  0  0  0  0  0  0
  1  6  1  0  0  0  0
  1 36  1  0  0  0  0
  2  1  2  0  0  0  0
  3  4  2  0  0  0  0
  3  2  1  0  0  0  0
  4  5  1  0  0  0  0
  5  7  1  0  0  0  0
  5  6  2  0  0  0  0
  7 12  1  0  0  0  0
  8  7  1  0  0  0  0
  8 15  1  0  0  0  0
  9  8  1  0  0  0  0
  9 10  1  0  0  0  0
 10 11  1  0  0  0  0
 10 20  1  0  0  0  0
 11 12  1  0  0  0  0
 11 21  1  0  0  0  0
 12 23  1  6  0  0  0
 12 25  1  0  0  0  0
 13  2  1  0  0  0  0
 14  3  1  0  0  0  0
 16  8  1  0  0  0  0
 17  9  1  0  0  0  0
 18  9  1  0  0  0  0
 19 10  1  0  0  0  0
 22 11  1  0  0  0  0
 24 34  1  0  0  0  0
 25 26  1  0  0  0  0
 25 24  2  0  0  0  0
 26 28  2  0  0  0  0
 27 26  1  0  0  0  0
 28 33  1  0  0  0  0
 28 29  1  0  0  0  0
 29 30  1  0  0  0  0
 30 31  1  0  0  0  0
 32 30  2  0  0  0  0
 33 32  1  0  0  0  0
 34 33  2  0  0  0  0
 35 29  1  0  0  0  0
 36 39  1  0  0  0  0
 36 37  1  0  0  0  0
 38 36  1  0  0  0  0
M  END
>  <minimizedAffinity>
-5.65368843

$$$$
