
     RDKit          3D

 45 49  0  0  0  0  0  0  0  0999 V2000
   33.5507   29.8696   46.4947 N   0  0  0  0  0  0  0  0  0  0  0  0
   34.7824   29.7818   45.7250 C   0  0  0  0  0  0  0  0  0  0  0  0
   35.8417   30.0990   46.7399 C   0  0  0  0  0  0  0  0  0  0  0  0
   35.0426   30.5432   48.0400 C   0  0  1  0  0  0  0  0  0  0  0  0
   33.8734   29.6667   47.9234 C   0  0  0  0  0  0  0  0  0  0  0  0
   32.2513   30.1141   46.0051 C   0  0  0  0  0  0  0  0  0  0  0  0
   32.1099   31.2519   45.1949 C   0  0  0  0  0  0  0  0  0  0  0  0
   30.8415   31.5629   44.6816 C   0  0  0  0  0  0  0  0  0  0  0  0
   29.8116   30.7060   45.0215 N   0  0  0  0  0  0  0  0  0  0  0  0
   29.9896   29.6259   45.8005 C   0  0  0  0  0  0  0  0  0  0  0  0
   31.2161   29.3328   46.2920 N   0  0  0  0  0  0  0  0  0  0  0  0
   37.3813   32.0967   48.4620 F   0  0  0  0  0  0  0  0  0  0  0  0
   36.9725   31.1590   49.3388 C   0  0  0  0  0  0  0  0  0  0  0  0
   35.9027   30.3109   49.2074 C   0  0  0  0  0  0  0  0  0  0  0  0
   35.6537   29.3814   50.2319 C   0  0  0  0  0  0  0  0  0  0  0  0
   36.4525   29.3080   51.3535 C   0  0  0  0  0  0  0  0  0  0  0  0
   37.5279   30.1770   51.4627 C   0  0  0  0  0  0  0  0  0  0  0  0
   37.7924   31.1120   50.4449 C   0  0  0  0  0  0  0  0  0  0  0  0
   34.8991   28.7119   45.4114 H   0  0  0  0  0  0  0  0  0  0  0  0
   34.7753   30.4352   44.8403 H   0  0  0  0  0  0  0  0  0  0  0  0
   36.5074   30.9237   46.4979 H   0  0  0  0  0  0  0  0  0  0  0  0
   36.4579   29.2291   47.0165 H   0  0  0  0  0  0  0  0  0  0  0  0
   34.9201   31.5999   47.8141 H   0  0  0  0  0  0  0  0  0  0  0  0
   33.0082   29.9375   48.5409 H   0  0  0  0  0  0  0  0  0  0  0  0
   34.1500   28.5985   48.0010 H   0  0  0  0  0  0  0  0  0  0  0  0
   32.9417   31.8806   44.9632 H   0  0  0  0  0  0  0  0  0  0  0  0
   30.7147   32.4200   44.0668 H   0  0  0  0  0  0  0  0  0  0  0  0
   29.1605   28.9828   46.0422 H   0  0  0  0  0  0  0  0  0  0  0  0
   34.7918   28.7674   50.0216 H   0  0  0  0  0  0  0  0  0  0  0  0
   36.1890   28.5656   52.0928 H   0  0  0  0  0  0  0  0  0  0  0  0
   38.1325   30.0914   52.3558 H   0  0  0  0  0  0  0  0  0  0  0  0
   39.5773   32.1155   51.9065 C   0  0  0  0  0  0  0  0  0  0  0  0
   38.9501   31.9718   50.6681 C   0  0  0  0  0  0  0  0  0  0  0  0
   39.4334   32.6699   49.5846 C   0  0  0  0  0  0  0  0  0  0  0  0
   38.9834   32.5966   48.5931 H   0  0  0  0  0  0  0  0  0  0  0  0
   40.5271   33.5015   49.7286 C   0  0  0  0  0  0  0  0  0  0  0  0
   41.1979   34.2903   48.8499 N   0  0  0  0  0  0  0  0  0  0  0  0
   42.2169   34.9157   49.5025 C   0  0  0  0  0  0  0  0  0  0  0  0
   42.9334   35.6123   49.0705 H   0  0  0  0  0  0  0  0  0  0  0  0
   42.2091   34.5323   50.8108 N   0  0  0  0  0  0  0  0  0  0  0  0
   41.1751   33.6690   50.9420 C   0  0  0  0  0  0  0  0  0  0  0  0
   40.6695   32.9545   52.0205 C   0  0  0  0  0  0  0  0  0  0  0  0
   39.1684   31.5489   52.7398 H   0  0  0  0  0  0  0  0  0  0  0  0
   40.9881   34.4202   47.8184 H   0  0  0  0  0  0  0  0  0  0  0  0
   41.1518   33.0605   52.9887 H   0  0  0  0  0  0  0  0  0  0  0  0
  1  5  1  0
  2  1  1  0
  2  3  1  0
  3  4  1  0
  4 14  1  0
  5  4  1  0
  6 11  1  0
  6  1  1  0
  7  6  2  0
  8  9  2  0
  8  7  1  0
  9 10  1  0
 10 11  2  0
 12 13  1  0
 13 18  2  0
 14 13  1  0
 14 15  2  0
 15 16  1  0
 16 17  2  0
 18 17  1  0
  2 19  1  0
  2 20  1  0
  3 21  1  0
  3 22  1  0
  4 23  1  6
  5 24  1  0
  5 25  1  0
  7 26  1  0
  8 27  1  0
 10 28  1  0
 15 29  1  0
 16 30  1  0
 17 31  1  0
 32 33  2  0
 33 34  1  0
 34 35  1  0
 34 36  2  0
 36 37  1  0
 37 38  1  0
 38 39  1  0
 38 40  2  0
 40 41  1  0
 41 42  2  0
 42 32  1  0
 41 36  1  0
 32 43  1  0
 37 44  1  0
 42 45  1  0
 18 33  1  0
M  ISO  8  19  13  20  13  21  13  22  13  23  13  24  13  25  13  26  14
M  ISO  7  27  14  28  14  29  14  30  14  31  14  35  15  39  14
M  END
>  <DihAtoms>  (1) 
12,17,32,31

>  <DihDeg>  (1) 
-44.99902804471646

$$$$
