
     RDKit          3D

 29 31  0  0  0  0  0  0  0  0999 V2000
   35.6504   30.4733   49.7412 C   0  0  0  0  0  0  0  0  0  0  0  0
   35.9722   29.4786   50.6779 C   0  0  0  0  0  0  0  0  0  0  0  0
   37.2240   29.5049   51.2684 C   0  0  0  0  0  0  0  0  0  0  0  0
   38.0964   30.5026   50.9121 N   0  0  0  0  0  0  0  0  0  0  0  0
   37.7453   31.4579   49.9919 C   0  0  0  0  0  0  0  0  0  0  0  0
   36.5287   31.4347   49.4162 N   0  0  0  0  0  0  0  0  0  0  0  0
   34.4404   30.5709   49.0740 O   0  0  0  0  0  0  0  0  0  0  0  0
   35.5008   30.1532   46.6426 O   0  0  0  0  0  0  0  0  0  0  0  0
   34.2294   30.0343   47.4628 P   0  0  1  0  0  0  0  0  0  0  0  0
   33.7646   28.3943   47.5849 O   0  0  0  0  0  0  0  0  0  0  0  0
   33.0498   30.9452   46.6849 O   0  0  0  0  0  0  0  0  0  0  0  0
   35.2189   28.7597   50.8737 H   0  0  0  0  0  0  0  0  0  0  0  0
   37.4747   28.7511   51.9816 H   0  0  0  0  0  0  0  0  0  0  0  0
   38.4586   32.2374   49.7291 H   0  0  0  0  0  0  0  0  0  0  0  0
   33.0055   28.3355   48.1950 H   0  0  0  0  0  0  0  0  0  0  0  0
   30.7367   31.5608   46.1880 C   0  0  0  0  0  0  0  0  0  0  0  0
   31.7114   30.6644   46.5756 C   0  0  0  0  0  0  0  0  0  0  0  0
   31.3857   29.3431   46.8993 C   0  0  0  0  0  0  0  0  0  0  0  0
   32.0767   28.5817   47.2093 H   0  0  0  0  0  0  0  0  0  0  0  0
   30.0502   28.9638   46.8180 C   0  0  0  0  0  0  0  0  0  0  0  0
   29.3968   27.8130   47.0481 N   0  0  0  0  0  0  0  0  0  0  0  0
   28.0724   27.9693   46.8184 C   0  0  0  0  0  0  0  0  0  0  0  0
   27.2446   27.2700   46.8978 H   0  0  0  0  0  0  0  0  0  0  0  0
   27.8786   29.2602   46.4302 N   0  0  0  0  0  0  0  0  0  0  0  0
   29.0931   29.8765   46.4283 C   0  0  0  0  0  0  0  0  0  0  0  0
   29.3884   31.1959   46.1008 C   0  0  0  0  0  0  0  0  0  0  0  0
   31.0587   32.5850   45.9468 H   0  0  0  0  0  0  0  0  0  0  0  0
   29.8203   26.8973   47.3636 H   0  0  0  0  0  0  0  0  0  0  0  0
   28.6770   31.9346   45.7944 H   0  0  0  0  0  0  0  0  0  0  0  0
  1  2  2  0
  2  3  1  0
  4  3  2  0
  5  4  1  0
  6  1  1  0
  6  5  2  0
  7  1  1  0
  8  9  2  0
  9 10  1  1
  9  7  1  0
 11  9  1  0
  2 12  1  0
  3 13  1  0
  5 14  1  0
 10 15  1  0
 16 17  2  0
 17 18  1  0
 18 19  1  0
 18 20  2  0
 20 21  1  0
 21 22  1  0
 22 23  1  0
 22 24  2  0
 24 25  1  0
 25 26  2  0
 26 16  1  0
 25 20  1  0
 16 27  1  0
 21 28  1  0
 26 29  1  0
 11 17  1  0
M  ISO  6  12  14  13  14  14  14  15   3  19  15  23  14
M  END
>  <DihAtoms>  (1) 
8,10,16,15

>  <DihDeg>  (1) 
-44.845098753107344

$$$$
