
     RDKit          3D

 35 37  0  0  0  0  0  0  0  0999 V2000
   37.7283   30.5044   50.8317 C   0  0  0  0  0  0  0  0  0  0  0  0
   38.1140   31.2123   49.6113 C   0  0  0  0  0  0  0  0  0  0  0  0
   38.5401   32.5256   49.6114 C   0  0  0  0  0  0  0  0  0  0  0  0
   38.8862   33.1036   48.3716 C   0  0  0  0  0  0  0  0  0  0  0  0
   38.7821   32.3376   47.2411 N   0  0  0  0  0  0  0  0  0  0  0  0
   38.3540   31.0407   47.2979 C   0  0  0  0  0  0  0  0  0  0  0  0
   38.0224   30.4889   48.4912 N   0  0  0  0  0  0  0  0  0  0  0  0
   36.9553   29.2454   50.6209 C   0  0  0  0  0  0  0  0  0  0  0  0
   35.7067   29.3988   51.2351 O   0  0  0  0  0  0  0  0  0  0  0  0
   34.6794   30.5450   49.1339 O   0  0  0  0  0  0  0  0  0  0  0  0
   34.4507   29.3862   50.0879 P   0  0  2  0  0  0  0  0  0  0  0  0
   32.9646   29.6694   50.8255 O   0  0  0  0  0  0  0  0  0  0  0  0
   34.3951   27.9262   49.2796 O   0  0  0  0  0  0  0  0  0  0  0  0
   37.2442   31.2281   51.5320 H   0  0  0  0  0  0  0  0  0  0  0  0
   38.6911   30.2008   51.3357 H   0  0  0  0  0  0  0  0  0  0  0  0
   38.5913   33.0547   50.5536 H   0  0  0  0  0  0  0  0  0  0  0  0
   39.2183   34.1216   48.3576 H   0  0  0  0  0  0  0  0  0  0  0  0
   38.2968   30.4969   46.3655 H   0  0  0  0  0  0  0  0  0  0  0  0
   36.7689   29.0788   49.5545 H   0  0  0  0  0  0  0  0  0  0  0  0
   37.4479   28.3287   51.0072 H   0  0  0  0  0  0  0  0  0  0  0  0
   33.0967   29.4888   51.7879 H   0  0  0  0  0  0  0  0  0  0  0  0
   35.1316   26.8703   47.1466 C   0  0  0  0  0  0  0  0  0  0  0  0
   34.3606   27.6928   47.9295 C   0  0  0  0  0  0  0  0  0  0  0  0
   33.3539   28.4475   47.3154 C   0  0  0  0  0  0  0  0  0  0  0  0
   32.6673   29.1418   47.8175 H   0  0  0  0  0  0  0  0  0  0  0  0
   33.1356   28.3683   45.9366 C   0  0  0  0  0  0  0  0  0  0  0  0
   32.2820   28.9404   45.0684 N   0  0  0  0  0  0  0  0  0  0  0  0
   32.5487   28.4658   43.8224 C   0  0  0  0  0  0  0  0  0  0  0  0
   31.9945   28.7730   42.9304 H   0  0  0  0  0  0  0  0  0  0  0  0
   33.5831   27.5828   43.9024 N   0  0  0  0  0  0  0  0  0  0  0  0
   33.9404   27.5245   45.1950 C   0  0  0  0  0  0  0  0  0  0  0  0
   34.9385   26.7741   45.7932 C   0  0  0  0  0  0  0  0  0  0  0  0
   35.8757   26.3351   47.7161 H   0  0  0  0  0  0  0  0  0  0  0  0
   31.5640   29.6202   45.3558 H   0  0  0  0  0  0  0  0  0  0  0  0
   35.5993   26.0921   45.2389 H   0  0  0  0  0  0  0  0  0  0  0  0
  2  1  1  0
  3  2  2  0
  4  3  1  0
  5  6  1  0
  5  4  2  0
  6  7  2  0
  7  2  1  0
  8  1  1  0
  8  9  1  0
 10 11  2  0
 11 12  1  1
 11  9  1  0
 13 11  1  0
  1 14  1  0
  1 15  1  0
  3 16  1  0
  4 17  1  0
  6 18  1  0
  8 19  1  0
  8 20  1  0
 12 21  1  0
 22 23  2  0
 23 24  1  0
 24 25  1  0
 24 26  2  0
 26 27  1  0
 27 28  1  0
 28 29  1  0
 28 30  2  0
 30 31  1  0
 31 32  2  0
 32 22  1  0
 31 26  1  0
 22 33  1  0
 27 34  1  0
 32 35  1  0
 13 23  1  0
M  ISO  8  14   8  15   8  16  14  17  14  18  14  19   8  20   8  21   3
M  ISO  2  25  15  29  14
M  END
>  <DihAtoms>  (1) 
10,12,22,21

>  <DihDeg>  (1) 
54.176756576774025

$$$$
