
 OpenBabel03272508023D

 31 34  0  0  0  0  0  0  0  0999 V2000
   38.7980   30.5980   45.3010 C   0  0  0  0  0  0  0  0  0  0  0  0
   39.9140   31.3920   45.1360 C   0  0  0  0  0  0  0  0  0  0  0  0
   40.6060   30.9870   43.9880 C   0  0  0  0  0  0  0  0  0  0  0  0
   39.8630   29.9450   43.5000 N   0  0  0  0  0  0  0  0  0  0  0  0
   38.8150   29.7270   44.2690 N   0  0  0  0  0  0  0  0  0  0  0  0
   40.1720   32.1940   45.8170 H   0  0  0  0  0  0  0  0  0  0  0  0
   41.5040   31.4800   43.6860 H   0  0  0  0  0  0  0  0  0  0  0  0
   41.1350   29.8990   41.3890 C   0  0  0  0  0  3  0  0  0  0  0  0
   40.3140   29.3080   42.3170 C   0  0  0  0  0  0  0  0  0  0  0  0
   39.8500   28.0080   42.1680 C   0  0  0  0  0  0  0  0  0  0  0  0
   39.2050   27.4880   42.8570 H   0  0  0  0  0  0  0  0  0  0  0  0
   40.2080   27.2490   41.0500 C   0  0  0  0  0  0  0  0  0  0  0  0
   39.9270   25.9940   40.6330 N   0  0  0  0  0  0  0  0  0  0  0  0
   40.5710   25.8080   39.4500 C   0  0  0  0  0  0  0  0  0  0  0  0
   40.4860   24.8500   38.9170 H   0  0  0  0  0  0  0  0  0  0  0  0
   41.2440   26.9340   39.1390 N   0  0  0  0  0  0  0  0  0  0  0  0
   41.0400   27.8470   40.1090 C   0  0  0  0  0  0  0  0  0  0  0  0
   41.4810   29.1450   40.2960 C   0  0  0  0  0  3  0  0  0  0  0  0
   39.3260   25.3110   41.1360 H   0  0  0  0  0  0  0  0  0  0  0  0
   37.7990   30.6760   46.3670 C   0  0  0  0  0  0  0  0  0  0  0  0
   38.2300   31.2280   47.6150 C   0  0  0  0  0  0  0  0  0  0  0  0
   37.2690   31.3030   48.6380 C   0  0  0  0  0  0  0  0  0  0  0  0
   36.0170   30.8510   48.3750 N   0  0  0  0  0  0  0  0  0  0  0  0
   35.6520   30.3360   47.1830 C   0  0  0  0  0  0  0  0  0  0  0  0
   36.5570   30.2570   46.1940 N   0  0  0  0  0  0  0  0  0  0  0  0
   39.2510   31.5650   47.7350 H   0  0  0  0  0  0  0  0  0  0  0  0
   34.6310   29.9970   47.0560 H   0  0  0  0  0  0  0  0  0  0  0  0
   37.6730   31.8700   49.9500 C   0  0  0  0  0  0  0  0  0  0  0  0
   36.6230   32.6750   50.3530 F   0  0  0  0  0  0  0  0  0  0  0  0
   37.8740   30.9070   50.9110 F   0  0  0  0  0  0  0  0  0  0  0  0
   38.8030   32.6770   49.8390 F   0  0  0  0  0  0  0  0  0  0  0  0
  1 20  1  0  0  0  0
  2  1  1  0  0  0  0
  2  6  1  0  0  0  0
  3  2  2  0  0  0  0
  4  3  1  0  0  0  0
  4  5  1  0  0  0  0
  5  1  2  0  0  0  0
  7  3  1  0  0  0  0
  8  9  1  0  0  0  0
  9  4  1  0  0  0  0
 10  9  2  0  0  0  0
 10 11  1  0  0  0  0
 12 10  1  0  0  0  0
 13 12  1  0  0  0  0
 13 19  1  0  0  0  0
 14 13  1  0  0  0  0
 15 14  1  0  0  0  0
 16 14  2  0  0  0  0
 16 17  1  0  0  0  0
 17 18  1  0  0  0  0
 17 12  2  0  0  0  0
 18  8  2  0  0  0  0
 20 21  1  0  0  0  0
 21 26  1  0  0  0  0
 21 22  2  0  0  0  0
 22 28  1  0  0  0  0
 23 22  1  0  0  0  0
 24 23  2  0  0  0  0
 25 20  2  0  0  0  0
 25 24  1  0  0  0  0
 27 24  1  0  0  0  0
 28 29  1  0  0  0  0
 28 30  1  0  0  0  0
 31 28  1  0  0  0  0
M  END
>  <minimizedAffinity>
-6.30165958

>  <minimizedRMSD>
1.82382882

$$$$
