
 OpenBabel03272503303D

 37 40  0  0  1  0  0  0  0  0999 V2000
   35.2120   29.4710   47.9490 C   0  0  0  0  0  0  0  0  0  0  0  0
   35.1300   29.9290   46.6280 C   0  0  0  0  0  0  0  0  0  0  0  0
   33.9800   29.6000   45.9240 C   0  0  0  0  0  0  0  0  0  0  0  0
   33.0280   28.8610   46.5700 N   0  0  0  0  0  0  0  0  0  0  0  0
   33.1310   28.4410   47.8210 C   0  0  0  0  0  0  0  0  0  0  0  0
   34.2470   28.7550   48.5190 N   0  0  0  0  0  0  0  0  0  0  0  0
   35.8760   30.5040   46.1280 H   0  0  0  0  0  0  0  0  0  0  0  0
   33.7900   29.8850   44.9140 H   0  0  0  0  0  0  0  0  0  0  0  0
   36.4000   29.8070   48.6860 N   0  0  0  0  0  0  0  0  0  0  0  0
   37.5200   30.5770   48.2170 C   0  0  0  0  0  0  0  0  0  0  0  0
   38.0490   31.2000   49.5090 C   0  0  2  0  0  0  0  0  0  0  0  0
   37.0840   30.7920   50.6030 C   0  0  0  0  0  0  0  0  0  0  0  0
   36.6950   29.4310   50.0470 C   0  0  0  0  0  0  0  0  0  0  0  0
   38.2740   29.8870   47.8130 H   0  0  0  0  0  0  0  0  0  0  0  0
   37.2290   31.3550   47.4890 H   0  0  0  0  0  0  0  0  0  0  0  0
   39.0230   30.7390   49.7710 H   0  0  0  0  0  0  0  0  0  0  0  0
   37.5970   30.6210   51.5510 H   0  0  0  0  0  0  0  0  0  0  0  0
   36.2020   31.4590   50.6810 H   0  0  0  0  0  0  0  0  0  0  0  0
   35.7700   29.1290   50.5790 H   0  0  0  0  0  0  0  0  0  0  0  0
   37.5270   28.7420   50.1740 H   0  0  0  0  0  0  0  0  0  0  0  0
   38.2030   32.6920   49.4200 C   0  0  0  0  0  0  0  0  0  0  0  0
   37.0510   33.2430   49.9370 F   0  0  0  0  0  0  0  0  0  0  0  0
   38.2170   33.0260   48.0730 F   0  0  0  0  0  0  0  0  0  0  0  0
   39.3280   33.1710   50.0270 F   0  0  0  0  0  0  0  0  0  0  0  0
   31.8500   27.4830   48.5990 S   0  0  0  0  0  0  0  0  0  0  0  0
   30.0410   26.4620   46.6170 C   0  0  0  0  0  3  0  0  0  0  0  0
   30.4390   27.4610   47.4780 C   0  0  0  0  0  0  0  0  0  0  0  0
   29.7150   28.6410   47.5550 C   0  0  0  0  0  0  0  0  0  0  0  0
   29.9290   29.5050   48.1940 H   0  0  0  0  0  0  0  0  0  0  0  0
   28.5760   28.8460   46.7700 C   0  0  0  0  0  0  0  0  0  0  0  0
   27.6850   29.8610   46.6250 N   0  0  0  0  0  0  0  0  0  0  0  0
   26.7680   29.5050   45.7090 C   0  0  0  0  0  0  0  0  0  0  0  0
   25.9370   30.1540   45.4110 H   0  0  0  0  0  0  0  0  0  0  0  0
   27.0850   28.2580   45.2760 N   0  0  0  0  0  0  0  0  0  0  0  0
   28.1940   27.8340   45.9160 C   0  0  0  0  0  0  0  0  0  0  0  0
   28.9200   26.6760   45.8530 C   0  0  0  0  0  3  0  0  0  0  0  0
   27.7290   30.7720   47.1580 H   0  0  0  0  0  0  0  0  0  0  0  0
  1  6  1  0  0  0  0
  1  9  1  0  0  0  0
  2  1  2  0  0  0  0
  3  4  2  0  0  0  0
  3  2  1  0  0  0  0
  4  5  1  0  0  0  0
  5  6  2  0  0  0  0
  5 25  1  0  0  0  0
  7  2  1  0  0  0  0
  8  3  1  0  0  0  0
  9 13  1  0  0  0  0
 10  9  1  0  0  0  0
 10 11  1  0  0  0  0
 11 16  1  1  0  0  0
 11 12  1  0  0  0  0
 12 18  1  0  0  0  0
 12 17  1  0  0  0  0
 13 20  1  0  0  0  0
 13 19  1  0  0  0  0
 13 12  1  0  0  0  0
 14 10  1  0  0  0  0
 15 10  1  0  0  0  0
 21 11  1  0  0  0  0
 21 22  1  0  0  0  0
 21 24  1  0  0  0  0
 23 21  1  0  0  0  0
 26 27  1  0  0  0  0
 27 28  2  0  0  0  0
 27 25  1  0  0  0  0
 28 29  1  0  0  0  0
 30 28  1  0  0  0  0
 31 30  1  0  0  0  0
 31 37  1  0  0  0  0
 32 31  1  0  0  0  0
 33 32  1  0  0  0  0
 34 32  2  0  0  0  0
 34 35  1  0  0  0  0
 35 30  2  0  0  0  0
 36 35  1  0  0  0  0
 36 26  2  0  0  0  0
M  END
>  <minimizedAffinity>
-6.24254656

>  <minimizedRMSD>
0.60315311

$$$$
