
 OpenBabel03262520143D

 45 48  0  0  0  0  0  0  0  0999 V2000
   37.5050   27.8890   31.1620 C   0  0  0  0  0  0  0  0  0  0  0  0
   36.8290   27.1860   30.7170 H   0  0  0  0  0  0  0  0  0  0  0  0
   38.0680   28.3150   30.2570 H   0  0  0  0  0  0  0  0  0  0  0  0
   38.5850   27.2670   31.9680 C   0  0  0  0  0  0  0  0  0  0  0  0
   38.8270   27.9710   32.8030 H   0  0  0  0  0  0  0  0  0  0  0  0
   39.5130   27.2300   31.3580 H   0  0  0  0  0  0  0  0  0  0  0  0
   39.2740   26.9490   35.0380 Br  0  0  0  0  0  0  0  0  0  0  0  0
   38.5240   25.6230   33.8670 C   0  0  0  0  0  0  0  0  0  0  0  0
   38.2270   24.3740   34.3440 C   0  0  0  0  0  0  0  0  0  0  0  0
   37.7020   23.4610   33.4620 C   0  0  0  0  0  0  0  0  0  0  0  0
   37.4670   23.7600   32.1280 C   0  0  0  0  0  0  0  0  0  0  0  0
   37.7860   25.0510   31.6840 C   0  0  0  0  0  0  0  0  0  0  0  0
   38.3080   25.9620   32.5590 C   0  0  0  0  0  0  0  0  0  0  0  0
   37.4820   22.4740   33.8990 H   0  0  0  0  0  0  0  0  0  0  0  0
   37.0610   22.9450   31.5880 H   0  0  0  0  0  0  0  0  0  0  0  0
   37.5500   25.0740   30.6490 H   0  0  0  0  0  0  0  0  0  0  0  0
   39.8330   22.9210   37.2780 C   0  0  0  0  0  0  0  0  0  0  0  0
   38.9620   23.2930   38.3550 C   0  0  0  0  0  0  0  0  0  0  0  0
   37.8550   24.0300   38.0310 C   0  0  0  0  0  0  0  0  0  0  0  0
   37.6120   24.3850   36.7230 N   0  0  0  0  0  0  0  0  0  0  0  0
   38.4600   24.0120   35.7450 C   0  0  0  0  0  0  0  0  0  0  0  0
   39.5520   23.2880   36.0370 N   0  0  0  0  0  0  0  0  0  0  0  0
   40.7320   22.3390   37.4360 H   0  0  0  0  0  0  0  0  0  0  0  0
   39.2210   22.9770   39.3460 H   0  0  0  0  0  0  0  0  0  0  0  0
   37.1740   24.3300   38.8190 H   0  0  0  0  0  0  0  0  0  0  0  0
   37.0250   29.0400   31.8360 N   0  0  0  0  0  0  0  0  0  0  0  0
   37.7510   29.4860   32.4400 H   0  0  0  0  0  0  0  0  0  0  0  0
   35.7880   28.9340   32.5170 C   0  0  0  0  0  0  0  0  0  0  0  0
   35.1600   29.8610   32.4490 H   0  0  0  0  0  0  0  0  0  0  0  0
   35.1960   28.1340   32.0510 H   0  0  0  0  0  0  0  0  0  0  0  0
   36.0600   28.7130   33.9680 C   0  0  0  0  0  0  0  0  0  0  0  0
   35.6620   27.7430   34.3440 H   0  0  0  0  0  0  0  0  0  0  0  0
   37.0180   28.9870   34.3790 H   0  0  0  0  0  0  0  0  0  0  0  0
   33.7530   29.7400   34.3900 C   0  0  0  0  0  3  0  0  0  0  0  0
   35.1260   29.7150   34.6610 C   0  0  0  0  0  0  0  0  0  0  0  0
   35.6520   30.6250   35.5860 C   0  0  0  0  0  0  0  0  0  0  0  0
   36.7240   30.5860   35.7790 H   0  0  0  0  0  0  0  0  0  0  0  0
   34.8390   31.5370   36.2250 C   0  0  0  0  0  0  0  0  0  0  0  0
   35.1110   32.4810   37.1260 N   0  0  0  0  0  0  0  0  0  0  0  0
   33.9440   33.1140   37.4410 C   0  0  0  0  0  0  0  0  0  0  0  0
   33.7330   33.9240   38.1180 H   0  0  0  0  0  0  0  0  0  0  0  0
   32.9400   32.5430   36.7170 N   0  0  0  0  0  0  0  0  0  0  0  0
   33.4860   31.5550   35.9520 C   0  0  0  0  0  0  0  0  0  0  0  0
   32.9610   30.6600   35.0420 C   0  0  0  0  0  3  0  0  0  0  0  0
   36.0000   32.7560   37.5600 H   0  0  0  0  0  0  0  0  0  0  0  0
  1 26  1  0  0  0  0
  1  4  1  0  0  0  0
  2  1  1  0  0  0  0
  3  1  1  0  0  0  0
  4 13  1  0  0  0  0
  4  5  1  0  0  0  0
  6  4  1  0  0  0  0
  8  9  1  0  0  0  0
  8  7  1  0  0  0  0
  9 21  1  0  0  0  0
 10 14  1  0  0  0  0
 10  9  2  0  0  0  0
 11 10  1  0  0  0  0
 12 11  2  0  0  0  0
 12 13  1  0  0  0  0
 13  8  2  0  0  0  0
 15 11  1  0  0  0  0
 16 12  1  0  0  0  0
 17 23  1  0  0  0  0
 17 18  1  0  0  0  0
 18 24  1  0  0  0  0
 19 18  2  0  0  0  0
 19 25  1  0  0  0  0
 20 19  1  0  0  0  0
 21 22  1  0  0  0  0
 21 20  2  0  0  0  0
 22 17  2  0  0  0  0
 26 27  1  0  0  0  0
 26 28  1  0  0  0  0
 28 31  1  0  0  0  0
 29 28  1  0  0  0  0
 30 28  1  0  0  0  0
 31 32  1  0  0  0  0
 31 33  1  0  0  0  0
 31 35  1  0  0  0  0
 34 35  2  0  0  0  0
 34 44  1  0  0  0  0
 35 36  1  0  0  0  0
 36 37  1  0  0  0  0
 36 38  2  0  0  0  0
 38 39  1  0  0  0  0
 39 40  1  0  0  0  0
 39 45  1  0  0  0  0
 40 41  1  0  0  0  0
 42 40  2  0  0  0  0
 43 38  1  0  0  0  0
 43 42  1  0  0  0  0
 44 43  2  0  0  0  0
M  END
>  <minimizedAffinity>
-5.73886299

$$$$

 OpenBabel03262520143D

 45 48  0  0  0  0  0  0  0  0999 V2000
   36.1170   27.9030   31.7090 C   0  0  0  0  0  0  0  0  0  0  0  0
   35.7530   27.0770   31.1310 H   0  0  0  0  0  0  0  0  0  0  0  0
   36.5670   28.5970   30.9120 H   0  0  0  0  0  0  0  0  0  0  0  0
   37.2840   27.5770   32.5670 C   0  0  0  0  0  0  0  0  0  0  0  0
   37.1820   28.1700   33.5100 H   0  0  0  0  0  0  0  0  0  0  0  0
   38.2050   27.9730   32.0880 H   0  0  0  0  0  0  0  0  0  0  0  0
   38.3630   27.0470   35.4920 Br  0  0  0  0  0  0  0  0  0  0  0  0
   37.9080   25.7380   34.1610 C   0  0  0  0  0  0  0  0  0  0  0  0
   38.0400   24.4030   34.4370 C   0  0  0  0  0  0  0  0  0  0  0  0
   37.7110   23.5100   33.4470 C   0  0  0  0  0  0  0  0  0  0  0  0
   37.2560   23.9110   32.1990 C   0  0  0  0  0  0  0  0  0  0  0  0
   37.1370   25.2880   31.9610 C   0  0  0  0  0  0  0  0  0  0  0  0
   37.4640   26.1790   32.9450 C   0  0  0  0  0  0  0  0  0  0  0  0
   37.8350   22.4510   33.7220 H   0  0  0  0  0  0  0  0  0  0  0  0
   37.0480   23.0970   31.5550 H   0  0  0  0  0  0  0  0  0  0  0  0
   36.7930   25.3860   30.9610 H   0  0  0  0  0  0  0  0  0  0  0  0
   38.0160   23.5360   37.9790 C   0  0  0  0  0  0  0  0  0  0  0  0
   39.3480   23.0630   38.2170 C   0  0  0  0  0  0  0  0  0  0  0  0
   40.2050   23.0600   37.1500 C   0  0  0  0  0  0  0  0  0  0  0  0
   39.7820   23.4960   35.9140 N   0  0  0  0  0  0  0  0  0  0  0  0
   38.5190   23.9320   35.7390 C   0  0  0  0  0  0  0  0  0  0  0  0
   37.6600   23.9450   36.7700 N   0  0  0  0  0  0  0  0  0  0  0  0
   37.2680   23.5760   38.7610 H   0  0  0  0  0  0  0  0  0  0  0  0
   39.6010   22.7410   39.2080 H   0  0  0  0  0  0  0  0  0  0  0  0
   41.2200   22.7090   37.2920 H   0  0  0  0  0  0  0  0  0  0  0  0
   35.2300   28.7410   32.4280 N   0  0  0  0  0  0  0  0  0  0  0  0
   34.7760   29.4620   31.8250 H   0  0  0  0  0  0  0  0  0  0  0  0
   35.6990   29.3090   33.6380 C   0  0  0  0  0  0  0  0  0  0  0  0
   36.4130   28.6480   34.1950 H   0  0  0  0  0  0  0  0  0  0  0  0
   36.2590   30.2250   33.4030 H   0  0  0  0  0  0  0  0  0  0  0  0
   34.5340   29.5320   34.5430 C   0  0  0  0  0  0  0  0  0  0  0  0
   33.5730   29.6640   33.9930 H   0  0  0  0  0  0  0  0  0  0  0  0
   34.4470   28.9610   35.4520 H   0  0  0  0  0  0  0  0  0  0  0  0
   35.6850   31.8180   34.4800 C   0  0  0  0  0  3  0  0  0  0  0  0
   34.7710   30.9480   35.0860 C   0  0  0  0  0  0  0  0  0  0  0  0
   34.0600   31.3860   36.2100 C   0  0  0  0  0  0  0  0  0  0  0  0
   33.3540   30.6890   36.6640 H   0  0  0  0  0  0  0  0  0  0  0  0
   34.2510   32.6520   36.7220 C   0  0  0  0  0  0  0  0  0  0  0  0
   33.6970   33.2740   37.7620 N   0  0  0  0  0  0  0  0  0  0  0  0
   34.2350   34.5260   37.8410 C   0  0  0  0  0  0  0  0  0  0  0  0
   34.0610   35.3350   38.5300 H   0  0  0  0  0  0  0  0  0  0  0  0
   35.1350   34.6690   36.8270 N   0  0  0  0  0  0  0  0  0  0  0  0
   35.1550   33.5030   36.1190 C   0  0  0  0  0  0  0  0  0  0  0  0
   35.8580   33.0790   35.0100 C   0  0  0  0  0  3  0  0  0  0  0  0
   32.9920   32.9540   38.4360 H   0  0  0  0  0  0  0  0  0  0  0  0
  1 26  1  0  0  0  0
  1  4  1  0  0  0  0
  2  1  1  0  0  0  0
  3  1  1  0  0  0  0
  4 13  1  0  0  0  0
  4  5  1  0  0  0  0
  6  4  1  0  0  0  0
  8  9  1  0  0  0  0
  8  7  1  0  0  0  0
  9 21  1  0  0  0  0
 10 14  1  0  0  0  0
 10  9  2  0  0  0  0
 11 10  1  0  0  0  0
 12 11  2  0  0  0  0
 12 13  1  0  0  0  0
 13  8  2  0  0  0  0
 15 11  1  0  0  0  0
 16 12  1  0  0  0  0
 17 18  1  0  0  0  0
 17 23  1  0  0  0  0
 18 24  1  0  0  0  0
 19 25  1  0  0  0  0
 19 18  2  0  0  0  0
 20 19  1  0  0  0  0
 21 20  2  0  0  0  0
 21 22  1  0  0  0  0
 22 17  2  0  0  0  0
 26 28  1  0  0  0  0
 27 26  1  0  0  0  0
 28 29  1  0  0  0  0
 28 31  1  0  0  0  0
 30 28  1  0  0  0  0
 31 35  1  0  0  0  0
 31 33  1  0  0  0  0
 32 31  1  0  0  0  0
 34 44  2  0  0  0  0
 34 35  1  0  0  0  0
 35 36  2  0  0  0  0
 36 37  1  0  0  0  0
 36 38  1  0  0  0  0
 38 39  1  0  0  0  0
 39 40  1  0  0  0  0
 39 45  1  0  0  0  0
 40 41  1  0  0  0  0
 42 40  2  0  0  0  0
 43 38  2  0  0  0  0
 43 42  1  0  0  0  0
 44 43  1  0  0  0  0
M  END
>  <minimizedAffinity>
-5.66530466

$$$$

 OpenBabel03262520143D

 45 48  0  0  0  0  0  0  0  0999 V2000
   42.3990   26.0300   33.8250 C   0  0  0  0  0  0  0  0  0  0  0  0
   43.0390   26.0650   32.9660 H   0  0  0  0  0  0  0  0  0  0  0  0
   41.7130   25.1370   33.5990 H   0  0  0  0  0  0  0  0  0  0  0  0
   41.4490   27.1670   33.9220 C   0  0  0  0  0  0  0  0  0  0  0  0
   41.4850   27.7170   32.9480 H   0  0  0  0  0  0  0  0  0  0  0  0
   41.8340   27.8950   34.6670 H   0  0  0  0  0  0  0  0  0  0  0  0
   39.6840   26.3730   31.4210 Br  0  0  0  0  0  0  0  0  0  0  0  0
   39.1280   26.4720   33.2570 C   0  0  0  0  0  0  0  0  0  0  0  0
   37.8340   26.1800   33.6000 C   0  0  0  0  0  0  0  0  0  0  0  0
   37.4870   26.2760   34.9260 C   0  0  0  0  0  0  0  0  0  0  0  0
   38.3900   26.6530   35.9100 C   0  0  0  0  0  0  0  0  0  0  0  0
   39.7020   26.9420   35.5130 C   0  0  0  0  0  0  0  0  0  0  0  0
   40.0520   26.8470   34.1940 C   0  0  0  0  0  0  0  0  0  0  0  0
   36.4360   26.0300   35.1450 H   0  0  0  0  0  0  0  0  0  0  0  0
   37.9590   26.6760   36.8760 H   0  0  0  0  0  0  0  0  0  0  0  0
   40.2240   27.2190   36.3960 H   0  0  0  0  0  0  0  0  0  0  0  0
   35.2180   26.4650   31.0750 C   0  0  0  0  0  0  0  0  0  0  0  0
   34.9690   25.1050   30.6980 C   0  0  0  0  0  0  0  0  0  0  0  0
   35.7090   24.1400   31.3260 C   0  0  0  0  0  0  0  0  0  0  0  0
   36.6460   24.4870   32.2730 N   0  0  0  0  0  0  0  0  0  0  0  0
   36.8450   25.7800   32.5950 C   0  0  0  0  0  0  0  0  0  0  0  0
   36.1320   26.7450   31.9940 N   0  0  0  0  0  0  0  0  0  0  0  0
   34.6830   27.2960   30.6340 H   0  0  0  0  0  0  0  0  0  0  0  0
   34.2220   24.9170   29.9520 H   0  0  0  0  0  0  0  0  0  0  0  0
   35.5470   23.1010   31.0660 H   0  0  0  0  0  0  0  0  0  0  0  0
   42.9150   25.7440   35.1130 N   0  0  0  0  0  0  0  0  0  0  0  0
   43.8930   26.0870   35.2420 H   0  0  0  0  0  0  0  0  0  0  0  0
   42.7690   24.4230   35.6010 C   0  0  0  0  0  0  0  0  0  0  0  0
   43.7460   23.9130   35.8110 H   0  0  0  0  0  0  0  0  0  0  0  0
   42.2360   24.4590   36.5620 H   0  0  0  0  0  0  0  0  0  0  0  0
   42.0800   23.6050   34.5610 C   0  0  0  0  0  0  0  0  0  0  0  0
   41.8050   24.1930   33.6540 H   0  0  0  0  0  0  0  0  0  0  0  0
   42.4250   22.6060   34.3520 H   0  0  0  0  0  0  0  0  0  0  0  0
   39.5880   23.0440   34.3780 C   0  0  0  0  0  3  0  0  0  0  0  0
   40.7000   23.3340   35.1780 C   0  0  0  0  0  0  0  0  0  0  0  0
   40.5440   23.3770   36.5680 C   0  0  0  0  0  0  0  0  0  0  0  0
   41.4250   23.6060   37.1680 H   0  0  0  0  0  0  0  0  0  0  0  0
   39.3180   23.1380   37.1520 C   0  0  0  0  0  0  0  0  0  0  0  0
   38.9390   23.1250   38.4300 N   0  0  0  0  0  0  0  0  0  0  0  0
   37.6060   22.8330   38.4720 C   0  0  0  0  0  0  0  0  0  0  0  0
   36.9250   22.7290   39.2990 H   0  0  0  0  0  0  0  0  0  0  0  0
   37.1660   22.6650   37.1930 N   0  0  0  0  0  0  0  0  0  0  0  0
   38.2260   22.8530   36.3570 C   0  0  0  0  0  0  0  0  0  0  0  0
   38.3730   22.8090   34.9860 C   0  0  0  0  0  3  0  0  0  0  0  0
   39.4750   23.2920   39.2900 H   0  0  0  0  0  0  0  0  0  0  0  0
  1  4  1  0  0  0  0
  1 26  1  0  0  0  0
  2  1  1  0  0  0  0
  3  1  1  0  0  0  0
  4 13  1  0  0  0  0
  4  6  1  0  0  0  0
  5  4  1  0  0  0  0
  7  8  1  0  0  0  0
  8  9  2  0  0  0  0
  8 13  1  0  0  0  0
  9 10  1  0  0  0  0
 10 14  1  0  0  0  0
 10 11  2  0  0  0  0
 11 15  1  0  0  0  0
 12 11  1  0  0  0  0
 12 16  1  0  0  0  0
 13 12  2  0  0  0  0
 17 22  1  0  0  0  0
 18 17  2  0  0  0  0
 18 19  1  0  0  0  0
 19 20  2  0  0  0  0
 20 21  1  0  0  0  0
 21  9  1  0  0  0  0
 22 21  2  0  0  0  0
 23 17  1  0  0  0  0
 24 18  1  0  0  0  0
 25 19  1  0  0  0  0
 26 27  1  0  0  0  0
 26 28  1  0  0  0  0
 28 29  1  0  0  0  0
 28 30  1  0  0  0  0
 31 35  1  0  0  0  0
 31 28  1  0  0  0  0
 32 31  1  0  0  0  0
 33 31  1  0  0  0  0
 34 44  2  0  0  0  0
 34 35  1  0  0  0  0
 35 36  2  0  0  0  0
 36 38  1  0  0  0  0
 36 37  1  0  0  0  0
 38 39  1  0  0  0  0
 39 40  1  0  0  0  0
 39 45  1  0  0  0  0
 40 41  1  0  0  0  0
 42 40  2  0  0  0  0
 43 38  2  0  0  0  0
 43 42  1  0  0  0  0
 44 43  1  0  0  0  0
M  END
>  <minimizedAffinity>
-5.65588903

$$$$

 OpenBabel03262520143D

 45 48  0  0  0  0  0  0  0  0999 V2000
   38.6160   27.8380   31.1930 C   0  0  0  0  0  0  0  0  0  0  0  0
   38.9990   26.9700   30.6930 H   0  0  0  0  0  0  0  0  0  0  0  0
   39.5670   28.3590   31.5700 H   0  0  0  0  0  0  0  0  0  0  0  0
   37.8780   27.5390   32.4470 C   0  0  0  0  0  0  0  0  0  0  0  0
   36.8100   27.8260   32.2820 H   0  0  0  0  0  0  0  0  0  0  0  0
   38.2310   28.2270   33.2440 H   0  0  0  0  0  0  0  0  0  0  0  0
   38.5740   27.1130   35.5020 Br  0  0  0  0  0  0  0  0  0  0  0  0
   38.1620   25.7620   34.1990 C   0  0  0  0  0  0  0  0  0  0  0  0
   38.1480   24.4400   34.5600 C   0  0  0  0  0  0  0  0  0  0  0  0
   37.8570   23.5150   33.5880 C   0  0  0  0  0  0  0  0  0  0  0  0
   37.5810   23.8710   32.2750 C   0  0  0  0  0  0  0  0  0  0  0  0
   37.6060   25.2350   31.9520 C   0  0  0  0  0  0  0  0  0  0  0  0
   37.8950   26.1580   32.9170 C   0  0  0  0  0  0  0  0  0  0  0  0
   37.8600   22.4690   33.9320 H   0  0  0  0  0  0  0  0  0  0  0  0
   37.3780   23.0370   31.6560 H   0  0  0  0  0  0  0  0  0  0  0  0
   37.3860   25.2960   30.9140 H   0  0  0  0  0  0  0  0  0  0  0  0
   39.9390   22.9880   37.3860 C   0  0  0  0  0  0  0  0  0  0  0  0
   39.0450   23.1920   38.4880 C   0  0  0  0  0  0  0  0  0  0  0  0
   37.8600   23.8210   38.2180 C   0  0  0  0  0  0  0  0  0  0  0  0
   37.5640   24.2310   36.9380 N   0  0  0  0  0  0  0  0  0  0  0  0
   38.4360   24.0170   35.9330 C   0  0  0  0  0  0  0  0  0  0  0  0
   39.6050   23.4010   36.1720 N   0  0  0  0  0  0  0  0  0  0  0  0
   40.8980   22.5000   37.5010 H   0  0  0  0  0  0  0  0  0  0  0  0
   39.3490   22.8430   39.4560 H   0  0  0  0  0  0  0  0  0  0  0  0
   37.1600   23.9920   39.0270 H   0  0  0  0  0  0  0  0  0  0  0  0
   37.9310   28.8520   30.4800 N   0  0  0  0  0  0  0  0  0  0  0  0
   38.4500   29.7580   30.4670 H   0  0  0  0  0  0  0  0  0  0  0  0
   36.5610   29.0530   30.7780 C   0  0  0  0  0  0  0  0  0  0  0  0
   35.9040   29.0670   29.8690 H   0  0  0  0  0  0  0  0  0  0  0  0
   36.2070   28.2140   31.3920 H   0  0  0  0  0  0  0  0  0  0  0  0
   36.4060   30.3850   31.4320 C   0  0  0  0  0  0  0  0  0  0  0  0
   37.2740   30.6580   32.0760 H   0  0  0  0  0  0  0  0  0  0  0  0
   35.9930   31.2090   30.8750 H   0  0  0  0  0  0  0  0  0  0  0  0
   35.5270   30.4200   33.8370 C   0  0  0  0  0  3  0  0  0  0  0  0
   35.3130   30.1410   32.4820 C   0  0  0  0  0  0  0  0  0  0  0  0
   34.0730   29.6290   32.0820 C   0  0  0  0  0  0  0  0  0  0  0  0
   33.9320   29.4190   31.0210 H   0  0  0  0  0  0  0  0  0  0  0  0
   33.0710   29.3980   33.0010 C   0  0  0  0  0  0  0  0  0  0  0  0
   31.8330   28.9250   32.8550 N   0  0  0  0  0  0  0  0  0  0  0  0
   31.2460   28.8920   34.0860 C   0  0  0  0  0  0  0  0  0  0  0  0
   30.2640   28.5790   34.3990 H   0  0  0  0  0  0  0  0  0  0  0  0
   32.1440   29.3560   35.0000 N   0  0  0  0  0  0  0  0  0  0  0  0
   33.2900   29.6760   34.3350 C   0  0  0  0  0  0  0  0  0  0  0  0
   34.5100   30.1810   34.7360 C   0  0  0  0  0  3  0  0  0  0  0  0
   31.3300   28.6160   32.0150 H   0  0  0  0  0  0  0  0  0  0  0  0
  1  3  1  0  0  0  0
  1  4  1  0  0  0  0
  2  1  1  0  0  0  0
  4 13  1  0  0  0  0
  4  6  1  0  0  0  0
  5  4  1  0  0  0  0
  8  9  1  0  0  0  0
  8  7  1  0  0  0  0
  9 21  1  0  0  0  0
 10 14  1  0  0  0  0
 10  9  2  0  0  0  0
 11 10  1  0  0  0  0
 12 11  2  0  0  0  0
 12 13  1  0  0  0  0
 13  8  2  0  0  0  0
 15 11  1  0  0  0  0
 16 12  1  0  0  0  0
 17 23  1  0  0  0  0
 17 18  1  0  0  0  0
 18 24  1  0  0  0  0
 19 18  2  0  0  0  0
 19 25  1  0  0  0  0
 20 19  1  0  0  0  0
 21 22  1  0  0  0  0
 21 20  2  0  0  0  0
 22 17  2  0  0  0  0
 26 28  1  0  0  0  0
 26  1  1  0  0  0  0
 27 26  1  0  0  0  0
 28 30  1  0  0  0  0
 28 31  1  0  0  0  0
 29 28  1  0  0  0  0
 31 32  1  0  0  0  0
 31 35  1  0  0  0  0
 33 31  1  0  0  0  0
 34 44  1  0  0  0  0
 35 34  2  0  0  0  0
 36 35  1  0  0  0  0
 36 38  2  0  0  0  0
 37 36  1  0  0  0  0
 38 43  1  0  0  0  0
 39 38  1  0  0  0  0
 39 40  1  0  0  0  0
 40 41  1  0  0  0  0
 40 42  2  0  0  0  0
 43 44  2  0  0  0  0
 43 42  1  0  0  0  0
 45 39  1  0  0  0  0
M  END
>  <minimizedAffinity>
-5.62877846

$$$$

 OpenBabel03262520143D

 45 48  0  0  0  0  0  0  0  0999 V2000
   39.3290   23.4130   38.3770 C   0  0  0  0  0  0  0  0  0  0  0  0
   39.2420   23.7650   39.3860 H   0  0  0  0  0  0  0  0  0  0  0  0
   40.0540   24.1660   37.9020 H   0  0  0  0  0  0  0  0  0  0  0  0
   38.0950   23.5780   37.5680 C   0  0  0  0  0  0  0  0  0  0  0  0
   37.2850   23.9200   38.2600 H   0  0  0  0  0  0  0  0  0  0  0  0
   37.7580   22.5790   37.2180 H   0  0  0  0  0  0  0  0  0  0  0  0
   38.0360   22.3170   34.6680 Br  0  0  0  0  0  0  0  0  0  0  0  0
   38.1250   24.1810   35.1290 C   0  0  0  0  0  0  0  0  0  0  0  0
   38.1710   25.1310   34.1440 C   0  0  0  0  0  0  0  0  0  0  0  0
   38.2440   26.4480   34.5280 C   0  0  0  0  0  0  0  0  0  0  0  0
   38.2710   26.8380   35.8600 C   0  0  0  0  0  0  0  0  0  0  0  0
   38.2220   25.8310   36.8340 C   0  0  0  0  0  0  0  0  0  0  0  0
   38.1490   24.5190   36.4550 C   0  0  0  0  0  0  0  0  0  0  0  0
   38.2780   27.1690   33.6970 H   0  0  0  0  0  0  0  0  0  0  0  0
   38.3290   27.8880   35.9810 H   0  0  0  0  0  0  0  0  0  0  0  0
   38.2680   26.3260   37.7730 H   0  0  0  0  0  0  0  0  0  0  0  0
   39.3830   24.3170   30.8020 C   0  0  0  0  0  0  0  0  0  0  0  0
   38.1810   24.0870   30.0570 C   0  0  0  0  0  0  0  0  0  0  0  0
   36.9970   24.2200   30.7320 C   0  0  0  0  0  0  0  0  0  0  0  0
   36.9900   24.5600   32.0660 N   0  0  0  0  0  0  0  0  0  0  0  0
   38.1470   24.7670   32.7250 C   0  0  0  0  0  0  0  0  0  0  0  0
   39.3210   24.6430   32.0850 N   0  0  0  0  0  0  0  0  0  0  0  0
   40.3660   24.2350   30.3550 H   0  0  0  0  0  0  0  0  0  0  0  0
   38.2700   23.8260   29.0210 H   0  0  0  0  0  0  0  0  0  0  0  0
   36.0680   24.0540   30.2010 H   0  0  0  0  0  0  0  0  0  0  0  0
   39.9090   22.1530   38.0890 N   0  0  0  0  0  0  0  0  0  0  0  0
   40.4600   21.7690   38.8890 H   0  0  0  0  0  0  0  0  0  0  0  0
   40.6190   22.0210   36.8710 C   0  0  0  0  0  0  0  0  0  0  0  0
   40.4040   21.0620   36.3300 H   0  0  0  0  0  0  0  0  0  0  0  0
   40.3070   22.8260   36.1910 H   0  0  0  0  0  0  0  0  0  0  0  0
   42.0820   22.0190   37.1690 C   0  0  0  0  0  0  0  0  0  0  0  0
   42.3100   22.2760   38.2290 H   0  0  0  0  0  0  0  0  0  0  0  0
   42.7100   21.2470   36.7570 H   0  0  0  0  0  0  0  0  0  0  0  0
   43.8620   23.7980   36.7010 C   0  0  0  0  0  3  0  0  0  0  0  0
   42.5960   23.2660   36.4350 C   0  0  0  0  0  0  0  0  0  0  0  0
   41.7860   23.8860   35.4770 C   0  0  0  0  0  0  0  0  0  0  0  0
   40.8030   23.4520   35.2880 H   0  0  0  0  0  0  0  0  0  0  0  0
   42.2190   25.0070   34.8000 C   0  0  0  0  0  0  0  0  0  0  0  0
   41.6320   25.7530   33.8640 N   0  0  0  0  0  0  0  0  0  0  0  0
   42.4930   26.7550   33.5220 C   0  0  0  0  0  0  0  0  0  0  0  0
   42.4030   27.5610   32.8130 H   0  0  0  0  0  0  0  0  0  0  0  0
   43.6270   26.6160   34.2640 N   0  0  0  0  0  0  0  0  0  0  0  0
   43.4690   25.5260   35.0690 C   0  0  0  0  0  0  0  0  0  0  0  0
   44.2730   24.9190   36.0120 C   0  0  0  0  0  3  0  0  0  0  0  0
   40.7090   25.6690   33.4220 H   0  0  0  0  0  0  0  0  0  0  0  0
  1  2  1  0  0  0  0
  3  1  1  0  0  0  0
  4  5  1  0  0  0  0
  4  1  1  0  0  0  0
  6  4  1  0  0  0  0
  7  8  1  0  0  0  0
  8 13  1  0  0  0  0
  9 10  1  0  0  0  0
  9  8  2  0  0  0  0
 10 11  2  0  0  0  0
 11 15  1  0  0  0  0
 11 12  1  0  0  0  0
 12 16  1  0  0  0  0
 13 12  2  0  0  0  0
 13  4  1  0  0  0  0
 14 10  1  0  0  0  0
 17 22  1  0  0  0  0
 18 19  1  0  0  0  0
 18 17  2  0  0  0  0
 19 20  2  0  0  0  0
 20 21  1  0  0  0  0
 21  9  1  0  0  0  0
 22 21  2  0  0  0  0
 23 17  1  0  0  0  0
 24 18  1  0  0  0  0
 25 19  1  0  0  0  0
 26  1  1  0  0  0  0
 26 27  1  0  0  0  0
 28 31  1  0  0  0  0
 28 26  1  0  0  0  0
 29 28  1  0  0  0  0
 30 28  1  0  0  0  0
 31 32  1  0  0  0  0
 33 31  1  0  0  0  0
 35 34  1  0  0  0  0
 35 31  1  0  0  0  0
 36 35  2  0  0  0  0
 37 36  1  0  0  0  0
 38 43  2  0  0  0  0
 38 36  1  0  0  0  0
 39 38  1  0  0  0  0
 40 39  1  0  0  0  0
 40 42  2  0  0  0  0
 41 40  1  0  0  0  0
 42 43  1  0  0  0  0
 43 44  1  0  0  0  0
 44 34  2  0  0  0  0
 45 39  1  0  0  0  0
M  END
>  <minimizedAffinity>
-5.59419632

$$$$

 OpenBabel03262520143D

 45 48  0  0  0  0  0  0  0  0999 V2000
   37.0710   26.6050   30.9890 C   0  0  0  0  0  0  0  0  0  0  0  0
   37.3400   25.7420   30.4130 H   0  0  0  0  0  0  0  0  0  0  0  0
   38.0860   26.9950   31.3580 H   0  0  0  0  0  0  0  0  0  0  0  0
   36.3540   26.2930   32.2510 C   0  0  0  0  0  0  0  0  0  0  0  0
   35.9780   25.2420   32.1710 H   0  0  0  0  0  0  0  0  0  0  0  0
   35.4340   26.9130   32.3050 H   0  0  0  0  0  0  0  0  0  0  0  0
   37.9770   23.7190   33.1100 Br  0  0  0  0  0  0  0  0  0  0  0  0
   37.8860   25.4020   34.0310 C   0  0  0  0  0  0  0  0  0  0  0  0
   38.5760   25.5840   35.2010 C   0  0  0  0  0  0  0  0  0  0  0  0
   38.4680   26.8030   35.8240 C   0  0  0  0  0  0  0  0  0  0  0  0
   37.6960   27.8380   35.3140 C   0  0  0  0  0  0  0  0  0  0  0  0
   37.0080   27.6070   34.1160 C   0  0  0  0  0  0  0  0  0  0  0  0
   37.1130   26.3940   33.4930 C   0  0  0  0  0  0  0  0  0  0  0  0
   39.0440   26.8950   36.7590 H   0  0  0  0  0  0  0  0  0  0  0  0
   37.7230   28.7070   35.9170 H   0  0  0  0  0  0  0  0  0  0  0  0
   36.4730   28.5000   33.9050 H   0  0  0  0  0  0  0  0  0  0  0  0
   39.5580   22.7950   37.3360 C   0  0  0  0  0  0  0  0  0  0  0  0
   40.8950   22.5030   36.9110 C   0  0  0  0  0  0  0  0  0  0  0  0
   41.4100   23.2770   35.9060 C   0  0  0  0  0  0  0  0  0  0  0  0
   40.6560   24.2830   35.3450 N   0  0  0  0  0  0  0  0  0  0  0  0
   39.4020   24.5200   35.7780 C   0  0  0  0  0  0  0  0  0  0  0  0
   38.8750   23.7750   36.7630 N   0  0  0  0  0  0  0  0  0  0  0  0
   39.0660   22.2380   38.1230 H   0  0  0  0  0  0  0  0  0  0  0  0
   41.4170   21.7040   37.3990 H   0  0  0  0  0  0  0  0  0  0  0  0
   42.4180   23.0860   35.5590 H   0  0  0  0  0  0  0  0  0  0  0  0
   36.4720   27.7350   30.3810 N   0  0  0  0  0  0  0  0  0  0  0  0
   36.4360   27.6630   29.3400 H   0  0  0  0  0  0  0  0  0  0  0  0
   36.9200   29.0150   30.7890 C   0  0  0  0  0  0  0  0  0  0  0  0
   37.2420   29.0550   31.8620 H   0  0  0  0  0  0  0  0  0  0  0  0
   37.8080   29.2830   30.1990 H   0  0  0  0  0  0  0  0  0  0  0  0
   35.7910   29.9820   30.6490 C   0  0  0  0  0  0  0  0  0  0  0  0
   36.1280   31.0090   30.3770 H   0  0  0  0  0  0  0  0  0  0  0  0
   34.8810   29.6720   30.1640 H   0  0  0  0  0  0  0  0  0  0  0  0
   34.2460   29.4620   32.6230 C   0  0  0  0  0  3  0  0  0  0  0  0
   35.3200   30.1890   32.0950 C   0  0  0  0  0  0  0  0  0  0  0  0
   35.9740   31.1210   32.9090 C   0  0  0  0  0  0  0  0  0  0  0  0
   36.8060   31.6750   32.4740 H   0  0  0  0  0  0  0  0  0  0  0  0
   35.5740   31.3300   34.2120 C   0  0  0  0  0  0  0  0  0  0  0  0
   36.0370   32.1500   35.1550 N   0  0  0  0  0  0  0  0  0  0  0  0
   35.2860   31.9670   36.2790 C   0  0  0  0  0  0  0  0  0  0  0  0
   35.3320   32.4300   37.2510 H   0  0  0  0  0  0  0  0  0  0  0  0
   34.3450   31.0170   36.0150 N   0  0  0  0  0  0  0  0  0  0  0  0
   34.5140   30.6090   34.7250 C   0  0  0  0  0  0  0  0  0  0  0  0
   33.8660   29.6880   33.9280 C   0  0  0  0  0  3  0  0  0  0  0  0
   36.8090   32.8270   35.1340 H   0  0  0  0  0  0  0  0  0  0  0  0
  1  3  1  0  0  0  0
  1  4  1  0  0  0  0
  2  1  1  0  0  0  0
  4  6  1  0  0  0  0
  4 13  1  0  0  0  0
  5  4  1  0  0  0  0
  7  8  1  0  0  0  0
  8  9  1  0  0  0  0
  9 21  1  0  0  0  0
  9 10  2  0  0  0  0
 10 14  1  0  0  0  0
 11 10  1  0  0  0  0
 11 15  1  0  0  0  0
 12 11  2  0  0  0  0
 13  8  2  0  0  0  0
 13 12  1  0  0  0  0
 16 12  1  0  0  0  0
 17 23  1  0  0  0  0
 18 17  1  0  0  0  0
 18 24  1  0  0  0  0
 19 18  2  0  0  0  0
 20 21  2  0  0  0  0
 20 19  1  0  0  0  0
 21 22  1  0  0  0  0
 22 17  2  0  0  0  0
 25 19  1  0  0  0  0
 26 28  1  0  0  0  0
 26  1  1  0  0  0  0
 27 26  1  0  0  0  0
 28 29  1  0  0  0  0
 30 28  1  0  0  0  0
 31 28  1  0  0  0  0
 31 35  1  0  0  0  0
 32 31  1  0  0  0  0
 33 31  1  0  0  0  0
 34 44  1  0  0  0  0
 35 34  2  0  0  0  0
 35 36  1  0  0  0  0
 36 38  2  0  0  0  0
 37 36  1  0  0  0  0
 38 43  1  0  0  0  0
 38 39  1  0  0  0  0
 39 40  1  0  0  0  0
 40 41  1  0  0  0  0
 42 40  2  0  0  0  0
 43 42  1  0  0  0  0
 44 43  2  0  0  0  0
 45 39  1  0  0  0  0
M  END
>  <minimizedAffinity>
-5.48130226

$$$$

 OpenBabel03262520143D

 45 48  0  0  0  0  0  0  0  0999 V2000
   38.2440   27.2800   30.1810 C   0  0  0  0  0  0  0  0  0  0  0  0
   38.6380   27.5230   29.2150 H   0  0  0  0  0  0  0  0  0  0  0  0
   38.6350   28.1330   30.8420 H   0  0  0  0  0  0  0  0  0  0  0  0
   38.8490   26.0720   30.7980 C   0  0  0  0  0  0  0  0  0  0  0  0
   39.6820   25.7370   30.1290 H   0  0  0  0  0  0  0  0  0  0  0  0
   38.1120   25.2420   30.7610 H   0  0  0  0  0  0  0  0  0  0  0  0
   37.6360   24.1610   33.0060 Br  0  0  0  0  0  0  0  0  0  0  0  0
   39.0160   25.4790   33.2330 C   0  0  0  0  0  0  0  0  0  0  0  0
   39.5880   25.6700   34.4630 C   0  0  0  0  0  0  0  0  0  0  0  0
   40.5630   26.6320   34.5720 C   0  0  0  0  0  0  0  0  0  0  0  0
   40.9790   27.4010   33.4940 C   0  0  0  0  0  0  0  0  0  0  0  0
   40.3660   27.1700   32.2550 C   0  0  0  0  0  0  0  0  0  0  0  0
   39.3950   26.2140   32.1430 C   0  0  0  0  0  0  0  0  0  0  0  0
   40.9880   26.7430   35.5820 H   0  0  0  0  0  0  0  0  0  0  0  0
   41.7370   28.0930   33.7510 H   0  0  0  0  0  0  0  0  0  0  0  0
   40.8060   27.8580   31.5760 H   0  0  0  0  0  0  0  0  0  0  0  0
   39.5690   23.0100   36.9570 C   0  0  0  0  0  0  0  0  0  0  0  0
   38.4690   23.3560   37.8070 C   0  0  0  0  0  0  0  0  0  0  0  0
   37.7740   24.4920   37.4910 C   0  0  0  0  0  0  0  0  0  0  0  0
   38.1360   25.2510   36.4010 N   0  0  0  0  0  0  0  0  0  0  0  0
   39.1790   24.8840   35.6300 C   0  0  0  0  0  0  0  0  0  0  0  0
   39.8770   23.7740   35.9190 N   0  0  0  0  0  0  0  0  0  0  0  0
   40.1780   22.1300   37.1270 H   0  0  0  0  0  0  0  0  0  0  0  0
   38.2490   22.7130   38.6370 H   0  0  0  0  0  0  0  0  0  0  0  0
   36.9350   24.7850   38.1110 H   0  0  0  0  0  0  0  0  0  0  0  0
   36.8480   27.2750   30.4220 N   0  0  0  0  0  0  0  0  0  0  0  0
   36.2860   27.1640   29.5490 H   0  0  0  0  0  0  0  0  0  0  0  0
   36.3200   28.3030   31.2410 C   0  0  0  0  0  0  0  0  0  0  0  0
   37.0090   29.1800   31.3580 H   0  0  0  0  0  0  0  0  0  0  0  0
   35.4090   28.6970   30.7690 H   0  0  0  0  0  0  0  0  0  0  0  0
   36.0980   27.7540   32.6110 C   0  0  0  0  0  0  0  0  0  0  0  0
   35.2780   27.0000   32.6520 H   0  0  0  0  0  0  0  0  0  0  0  0
   36.9440   27.5200   33.2360 H   0  0  0  0  0  0  0  0  0  0  0  0
   34.2170   29.4440   33.0090 C   0  0  0  0  0  3  0  0  0  0  0  0
   35.4680   28.9310   33.3690 C   0  0  0  0  0  0  0  0  0  0  0  0
   36.1540   29.5070   34.4440 C   0  0  0  0  0  0  0  0  0  0  0  0
   37.1270   29.0900   34.7040 H   0  0  0  0  0  0  0  0  0  0  0  0
   35.6150   30.5660   35.1440 C   0  0  0  0  0  0  0  0  0  0  0  0
   36.0770   31.2620   36.1830 N   0  0  0  0  0  0  0  0  0  0  0  0
   35.1500   32.2130   36.5000 C   0  0  0  0  0  0  0  0  0  0  0  0
   35.1390   32.9700   37.2650 H   0  0  0  0  0  0  0  0  0  0  0  0
   34.1030   32.0930   35.6360 N   0  0  0  0  0  0  0  0  0  0  0  0
   34.3800   31.0660   34.7820 C   0  0  0  0  0  0  0  0  0  0  0  0
   33.6980   30.5020   33.7240 C   0  0  0  0  0  3  0  0  0  0  0  0
   36.9530   31.1750   36.7120 H   0  0  0  0  0  0  0  0  0  0  0  0
  1 26  1  0  0  0  0
  1  4  1  0  0  0  0
  1  3  1  0  0  0  0
  2  1  1  0  0  0  0
  4 13  1  0  0  0  0
  5  4  1  0  0  0  0
  6  4  1  0  0  0  0
  7  8  1  0  0  0  0
  8  9  1  0  0  0  0
  9 10  2  0  0  0  0
  9 21  1  0  0  0  0
 10 14  1  0  0  0  0
 11 15  1  0  0  0  0
 11 10  1  0  0  0  0
 12 11  2  0  0  0  0
 13 12  1  0  0  0  0
 13  8  2  0  0  0  0
 16 12  1  0  0  0  0
 17 23  1  0  0  0  0
 17 18  1  0  0  0  0
 18 24  1  0  0  0  0
 19 18  2  0  0  0  0
 19 25  1  0  0  0  0
 20 19  1  0  0  0  0
 21 22  1  0  0  0  0
 21 20  2  0  0  0  0
 22 17  2  0  0  0  0
 26 28  1  0  0  0  0
 27 26  1  0  0  0  0
 28 29  1  0  0  0  0
 28 31  1  0  0  0  0
 30 28  1  0  0  0  0
 31 32  1  0  0  0  0
 31 33  1  0  0  0  0
 31 35  1  0  0  0  0
 34 35  2  0  0  0  0
 34 44  1  0  0  0  0
 35 36  1  0  0  0  0
 36 37  1  0  0  0  0
 36 38  2  0  0  0  0
 38 39  1  0  0  0  0
 39 40  1  0  0  0  0
 39 45  1  0  0  0  0
 40 41  1  0  0  0  0
 42 40  2  0  0  0  0
 43 38  1  0  0  0  0
 43 42  1  0  0  0  0
 44 43  2  0  0  0  0
M  END
>  <minimizedAffinity>
-5.43270826

$$$$

 OpenBabel03262520143D

 45 48  0  0  0  0  0  0  0  0999 V2000
   36.3560   25.1180   31.0040 C   0  0  0  0  0  0  0  0  0  0  0  0
   35.7240   25.2490   31.8610 H   0  0  0  0  0  0  0  0  0  0  0  0
   35.6040   25.0050   30.1440 H   0  0  0  0  0  0  0  0  0  0  0  0
   37.0890   23.8270   30.9820 C   0  0  0  0  0  0  0  0  0  0  0  0
   38.1700   24.0590   30.8090 H   0  0  0  0  0  0  0  0  0  0  0  0
   36.7800   23.2540   30.0810 H   0  0  0  0  0  0  0  0  0  0  0  0
   39.0810   24.5390   33.3320 Br  0  0  0  0  0  0  0  0  0  0  0  0
   37.7660   23.1380   33.3010 C   0  0  0  0  0  0  0  0  0  0  0  0
   37.6150   22.3120   34.3830 C   0  0  0  0  0  0  0  0  0  0  0  0
   36.6680   21.3210   34.3040 C   0  0  0  0  0  0  0  0  0  0  0  0
   35.8720   21.1350   33.1820 C   0  0  0  0  0  0  0  0  0  0  0  0
   36.0620   22.0030   32.0990 C   0  0  0  0  0  0  0  0  0  0  0  0
   37.0040   22.9910   32.1740 C   0  0  0  0  0  0  0  0  0  0  0  0
   36.5890   20.6880   35.2020 H   0  0  0  0  0  0  0  0  0  0  0  0
   35.1950   20.3280   33.2870 H   0  0  0  0  0  0  0  0  0  0  0  0
   35.3790   21.6910   31.3470 H   0  0  0  0  0  0  0  0  0  0  0  0
   40.4400   21.9790   36.6650 C   0  0  0  0  0  0  0  0  0  0  0  0
   40.0270   22.7220   37.8190 C   0  0  0  0  0  0  0  0  0  0  0  0
   38.7920   23.3100   37.7700 C   0  0  0  0  0  0  0  0  0  0  0  0
   38.0020   23.1790   36.6500 N   0  0  0  0  0  0  0  0  0  0  0  0
   38.4340   22.4700   35.5880 C   0  0  0  0  0  0  0  0  0  0  0  0
   39.6410   21.8840   35.6130 N   0  0  0  0  0  0  0  0  0  0  0  0
   41.3990   21.4800   36.6110 H   0  0  0  0  0  0  0  0  0  0  0  0
   40.7000   22.7770   38.6530 H   0  0  0  0  0  0  0  0  0  0  0  0
   38.4460   23.8790   38.6240 H   0  0  0  0  0  0  0  0  0  0  0  0
   37.2210   26.1520   30.5680 N   0  0  0  0  0  0  0  0  0  0  0  0
   38.1970   25.8200   30.4010 H   0  0  0  0  0  0  0  0  0  0  0  0
   37.2120   27.3670   31.2960 C   0  0  0  0  0  0  0  0  0  0  0  0
   38.2340   27.7110   31.6030 H   0  0  0  0  0  0  0  0  0  0  0  0
   36.8080   28.1610   30.6530 H   0  0  0  0  0  0  0  0  0  0  0  0
   36.4390   27.1610   32.5560 C   0  0  0  0  0  0  0  0  0  0  0  0
   35.4190   26.7460   32.3790 H   0  0  0  0  0  0  0  0  0  0  0  0
   36.9320   26.7630   33.4270 H   0  0  0  0  0  0  0  0  0  0  0  0
   35.8890   28.8950   34.3570 C   0  0  0  0  0  3  0  0  0  0  0  0
   36.1110   28.5910   33.0090 C   0  0  0  0  0  0  0  0  0  0  0  0
   36.0350   29.6160   32.0600 C   0  0  0  0  0  0  0  0  0  0  0  0
   36.2120   29.3530   31.0170 H   0  0  0  0  0  0  0  0  0  0  0  0
   35.7430   30.9110   32.4360 C   0  0  0  0  0  0  0  0  0  0  0  0
   35.6190   32.0290   31.7210 N   0  0  0  0  0  0  0  0  0  0  0  0
   35.3210   33.0480   32.5790 C   0  0  0  0  0  0  0  0  0  0  0  0
   35.1430   34.0960   32.4060 H   0  0  0  0  0  0  0  0  0  0  0  0
   35.2620   32.5390   33.8410 N   0  0  0  0  0  0  0  0  0  0  0  0
   35.5240   31.2030   33.7670 C   0  0  0  0  0  0  0  0  0  0  0  0
   35.5990   30.1960   34.7080 C   0  0  0  0  0  3  0  0  0  0  0  0
   35.7110   32.1920   30.7110 H   0  0  0  0  0  0  0  0  0  0  0  0
  1  2  1  0  0  0  0
  3  1  1  0  0  0  0
  4  1  1  0  0  0  0
  4 13  1  0  0  0  0
  5  4  1  0  0  0  0
  6  4  1  0  0  0  0
  8  7  1  0  0  0  0
  8  9  1  0  0  0  0
  9 21  1  0  0  0  0
 10  9  2  0  0  0  0
 10 14  1  0  0  0  0
 11 15  1  0  0  0  0
 11 10  1  0  0  0  0
 12 13  1  0  0  0  0
 12 11  2  0  0  0  0
 13  8  2  0  0  0  0
 16 12  1  0  0  0  0
 17 18  1  0  0  0  0
 18 24  1  0  0  0  0
 19 18  2  0  0  0  0
 19 25  1  0  0  0  0
 20 19  1  0  0  0  0
 21 22  1  0  0  0  0
 21 20  2  0  0  0  0
 22 17  2  0  0  0  0
 23 17  1  0  0  0  0
 26  1  1  0  0  0  0
 26 28  1  0  0  0  0
 27 26  1  0  0  0  0
 28 29  1  0  0  0  0
 28 31  1  0  0  0  0
 30 28  1  0  0  0  0
 31 35  1  0  0  0  0
 31 33  1  0  0  0  0
 32 31  1  0  0  0  0
 34 44  1  0  0  0  0
 35 34  2  0  0  0  0
 36 38  2  0  0  0  0
 36 35  1  0  0  0  0
 37 36  1  0  0  0  0
 38 43  1  0  0  0  0
 39 38  1  0  0  0  0
 39 40  1  0  0  0  0
 40 42  2  0  0  0  0
 41 40  1  0  0  0  0
 43 42  1  0  0  0  0
 43 44  2  0  0  0  0
 45 39  1  0  0  0  0
M  END
>  <minimizedAffinity>
-5.38101292

$$$$

 OpenBabel03262520143D

 45 48  0  0  0  0  0  0  0  0999 V2000
   36.2090   26.0140   31.6570 C   0  0  0  0  0  0  0  0  0  0  0  0
   35.2940   26.3100   31.1820 H   0  0  0  0  0  0  0  0  0  0  0  0
   35.8750   25.7630   32.7270 H   0  0  0  0  0  0  0  0  0  0  0  0
   37.1750   27.1240   31.8590 C   0  0  0  0  0  0  0  0  0  0  0  0
   36.5900   28.0780   31.8710 H   0  0  0  0  0  0  0  0  0  0  0  0
   37.8210   27.2060   30.9600 H   0  0  0  0  0  0  0  0  0  0  0  0
   40.2300   26.4050   31.4770 Br  0  0  0  0  0  0  0  0  0  0  0  0
   39.3230   26.8120   33.1220 C   0  0  0  0  0  0  0  0  0  0  0  0
   40.0120   26.8090   34.3060 C   0  0  0  0  0  0  0  0  0  0  0  0
   39.3140   27.0960   35.4530 C   0  0  0  0  0  0  0  0  0  0  0  0
   37.9560   27.3840   35.4500 C   0  0  0  0  0  0  0  0  0  0  0  0
   37.2920   27.3750   34.2150 C   0  0  0  0  0  0  0  0  0  0  0  0
   37.9850   27.0900   33.0720 C   0  0  0  0  0  0  0  0  0  0  0  0
   39.9170   27.0810   36.3750 H   0  0  0  0  0  0  0  0  0  0  0  0
   37.5750   27.5820   36.4170 H   0  0  0  0  0  0  0  0  0  0  0  0
   36.2760   27.6020   34.4260 H   0  0  0  0  0  0  0  0  0  0  0  0
   43.1080   25.0330   35.0550 C   0  0  0  0  0  0  0  0  0  0  0  0
   44.1220   25.8780   34.4980 C   0  0  0  0  0  0  0  0  0  0  0  0
   43.7040   27.0280   33.8850 C   0  0  0  0  0  0  0  0  0  0  0  0
   42.3630   27.3360   33.8200 N   0  0  0  0  0  0  0  0  0  0  0  0
   41.4460   26.5090   34.3590 C   0  0  0  0  0  0  0  0  0  0  0  0
   41.8310   25.3750   34.9650 N   0  0  0  0  0  0  0  0  0  0  0  0
   43.3420   24.1030   35.5590 H   0  0  0  0  0  0  0  0  0  0  0  0
   45.1450   25.5690   34.5900 H   0  0  0  0  0  0  0  0  0  0  0  0
   44.4420   27.6930   33.4520 H   0  0  0  0  0  0  0  0  0  0  0  0
   36.9100   24.8570   31.2390 N   0  0  0  0  0  0  0  0  0  0  0  0
   36.6290   24.5360   30.2860 H   0  0  0  0  0  0  0  0  0  0  0  0
   36.9820   23.7700   32.1440 C   0  0  0  0  0  0  0  0  0  0  0  0
   36.7800   24.0600   33.2080 H   0  0  0  0  0  0  0  0  0  0  0  0
   36.2060   23.0390   31.8790 H   0  0  0  0  0  0  0  0  0  0  0  0
   38.3670   23.2150   32.1120 C   0  0  0  0  0  0  0  0  0  0  0  0
   38.4020   22.1470   31.7930 H   0  0  0  0  0  0  0  0  0  0  0  0
   39.1750   23.8160   31.7300 H   0  0  0  0  0  0  0  0  0  0  0  0
   39.8920   22.4240   34.0110 C   0  0  0  0  0  3  0  0  0  0  0  0
   38.7390   23.1010   33.5970 C   0  0  0  0  0  0  0  0  0  0  0  0
   37.9120   23.6860   34.5630 C   0  0  0  0  0  0  0  0  0  0  0  0
   37.0200   24.2070   34.2150 H   0  0  0  0  0  0  0  0  0  0  0  0
   38.2190   23.6010   35.9050 C   0  0  0  0  0  0  0  0  0  0  0  0
   37.5920   24.0720   36.9830 N   0  0  0  0  0  0  0  0  0  0  0  0
   38.3150   23.7120   38.0830 C   0  0  0  0  0  0  0  0  0  0  0  0
   38.1550   23.8920   39.1320 H   0  0  0  0  0  0  0  0  0  0  0  0
   39.4050   23.0080   37.6650 N   0  0  0  0  0  0  0  0  0  0  0  0
   39.3570   22.9310   36.3040 C   0  0  0  0  0  0  0  0  0  0  0  0
   40.1770   22.3530   35.3570 C   0  0  0  0  0  3  0  0  0  0  0  0
   36.7230   24.6120   37.0700 H   0  0  0  0  0  0  0  0  0  0  0  0
  1  4  1  0  0  0  0
  1  3  1  0  0  0  0
  2  1  1  0  0  0  0
  4  5  1  0  0  0  0
  4 13  1  0  0  0  0
  6  4  1  0  0  0  0
  7  8  1  0  0  0  0
  8  9  1  0  0  0  0
  9 21  1  0  0  0  0
  9 10  2  0  0  0  0
 10 14  1  0  0  0  0
 11 10  1  0  0  0  0
 11 15  1  0  0  0  0
 12 16  1  0  0  0  0
 12 11  2  0  0  0  0
 13  8  2  0  0  0  0
 13 12  1  0  0  0  0
 17 23  1  0  0  0  0
 18 24  1  0  0  0  0
 18 17  2  0  0  0  0
 19 18  1  0  0  0  0
 20 19  2  0  0  0  0
 20 21  1  0  0  0  0
 21 22  2  0  0  0  0
 22 17  1  0  0  0  0
 25 19  1  0  0  0  0
 26  1  1  0  0  0  0
 26 28  1  0  0  0  0
 27 26  1  0  0  0  0
 28 29  1  0  0  0  0
 30 28  1  0  0  0  0
 31 28  1  0  0  0  0
 31 35  1  0  0  0  0
 32 31  1  0  0  0  0
 33 31  1  0  0  0  0
 34 44  1  0  0  0  0
 35 34  2  0  0  0  0
 35 36  1  0  0  0  0
 36 38  2  0  0  0  0
 37 36  1  0  0  0  0
 38 43  1  0  0  0  0
 38 39  1  0  0  0  0
 39 45  1  0  0  0  0
 39 40  1  0  0  0  0
 40 41  1  0  0  0  0
 42 40  2  0  0  0  0
 43 42  1  0  0  0  0
 44 43  2  0  0  0  0
M  END
>  <minimizedAffinity>
-5.37258005

$$$$
