
     RDKit          3D

 33 36  0  0  0  0  0  0  0  0999 V2000
   37.9113   30.8696   46.7291 C   0  0  0  0  0  0  0  0  0  0  0  0
   38.0668   31.0392   48.1405 C   0  0  0  0  0  0  0  0  0  0  0  0
   36.9294   30.8138   48.9351 C   0  0  0  0  0  0  0  0  0  0  0  0
   35.7772   30.4552   48.3139 N   0  0  0  0  0  0  0  0  0  0  0  0
   35.6725   30.3057   46.9777 C   0  0  0  0  0  0  0  0  0  0  0  0
   36.7496   30.5174   46.2054 N   0  0  0  0  0  0  0  0  0  0  0  0
   39.0947   31.1041   45.9024 C   0  0  0  0  0  0  0  0  0  0  0  0
   39.9147   32.2127   45.9039 C   0  0  0  0  0  0  0  0  0  0  0  0
   40.9354   32.0380   44.9621 C   0  0  0  0  0  0  0  0  0  0  0  0
   40.6827   30.8053   44.4207 N   0  0  0  0  0  0  0  0  0  0  0  0
   39.6122   30.2708   44.9729 N   0  0  0  0  0  0  0  0  0  0  0  0
   37.0460   30.9786   50.4056 C   0  0  0  0  0  0  0  0  0  0  0  0
   36.5587   32.2433   50.6836 F   0  0  0  0  0  0  0  0  0  0  0  0
   36.2993   30.0630   51.1090 F   0  0  0  0  0  0  0  0  0  0  0  0
   38.3735   30.9370   50.8272 F   0  0  0  0  0  0  0  0  0  0  0  0
   39.0262   31.3280   48.5500 H   0  0  0  0  0  0  0  0  0  0  0  0
   34.7149   30.0169   46.5616 H   0  0  0  0  0  0  0  0  0  0  0  0
   39.7522   33.0652   46.5545 H   0  0  0  0  0  0  0  0  0  0  0  0
   41.6779   32.7900   44.8106 H   0  0  0  0  0  0  0  0  0  0  0  0
   42.7947   30.8738   43.1513 C   0  0  0  0  0  0  0  0  0  0  0  0
   41.5611   30.3320   43.4142 C   0  0  0  0  0  0  0  0  0  0  0  0
   41.0627   29.2516   42.6987 C   0  0  0  0  0  0  0  0  0  0  0  0
   40.1056   28.7807   42.8547 H   0  0  0  0  0  0  0  0  0  0  0  0
   41.8138   28.6721   41.6714 C   0  0  0  0  0  0  0  0  0  0  0  0
   41.6091   27.6426   40.8189 N   0  0  0  0  0  0  0  0  0  0  0  0
   42.7126   27.5469   40.0301 C   0  0  0  0  0  0  0  0  0  0  0  0
   42.7719   26.7709   39.2527 H   0  0  0  0  0  0  0  0  0  0  0  0
   43.5897   28.5048   40.3893 N   0  0  0  0  0  0  0  0  0  0  0  0
   43.0640   29.2202   41.4039 C   0  0  0  0  0  0  0  0  0  0  0  0
   43.5229   30.2973   42.1412 C   0  0  0  0  0  0  0  0  0  0  0  0
   43.1323   31.7159   43.7409 H   0  0  0  0  0  0  0  0  0  0  0  0
   40.7583   27.0455   40.7871 H   0  0  0  0  0  0  0  0  0  0  0  0
   44.5133   30.6995   41.8987 H   0  0  0  0  0  0  0  0  0  0  0  0
  1  2  2  0
  2  3  1  0
  3 12  1  0
  4  3  2  0
  5  4  1  0
  6  1  1  0
  6  5  2  0
  7  1  1  0
  8  7  1  0
  9  8  2  0
 10  9  1  0
 10 11  1  0
 11  7  2  0
 12 13  1  0
 12 15  1  0
 12 14  1  0
  2 16  1  0
  5 17  1  0
  8 18  1  0
  9 19  1  0
 20 21  2  0
 21 22  1  0
 22 23  1  0
 22 24  2  0
 24 25  1  0
 25 26  1  0
 26 27  1  0
 26 28  2  0
 28 29  1  0
 29 30  2  0
 30 20  1  0
 29 24  1  0
 20 31  1  0
 25 32  1  0
 30 33  1  0
 10 21  1  0
M  ISO  6  16  14  17  14  18  14  19  14  23  15  27  14
M  END
>  <DihAtoms>  (1) 
8,9,20,19

>  <DihDeg>  (1) 
-90.06295449917607

$$$$
