
 OpenBabel03272509593D

 49 53  0  0  0  0  0  0  0  0999 V2000
   36.8960   22.2850   32.3560 C   0  0  0  0  0  0  0  0  0  0  0  0
   37.2590   21.8710   31.3730 H   0  0  0  0  0  0  0  0  0  0  0  0
   35.9560   21.7730   32.5640 H   0  0  0  0  0  0  0  0  0  0  0  0
   36.6350   23.7360   32.1670 C   0  0  0  0  0  0  0  0  0  0  0  0
   35.6600   24.1090   31.2570 C   0  0  0  0  0  0  0  0  0  0  0  0
   35.3590   25.4310   31.0240 C   0  0  0  0  0  0  0  0  0  0  0  0
   36.0170   26.3800   31.6890 N   0  0  0  0  0  0  0  0  0  0  0  0
   36.9750   26.0040   32.5840 C   0  0  0  0  0  0  0  0  0  0  0  0
   37.2820   24.7170   32.8240 N   0  0  0  0  0  0  0  0  0  0  0  0
   35.1240   23.3430   30.7140 H   0  0  0  0  0  0  0  0  0  0  0  0
   34.6030   25.7580   30.3210 H   0  0  0  0  0  0  0  0  0  0  0  0
   37.6970   27.0830   33.3150 C   0  0  0  0  0  0  0  0  0  0  0  0
   37.6850   26.8040   34.3900 H   0  0  0  0  0  0  0  0  0  0  0  0
   37.1850   28.0610   33.2160 H   0  0  0  0  0  0  0  0  0  0  0  0
   39.5160   27.2350   31.5370 C   0  0  0  0  0  3  0  0  0  0  0  0
   39.1140   27.1540   32.8670 C   0  0  0  0  0  0  0  0  0  0  0  0
   40.1100   27.1370   33.8440 C   0  0  0  0  0  0  0  0  0  0  0  0
   39.8000   27.0730   34.8950 H   0  0  0  0  0  0  0  0  0  0  0  0
   41.4480   27.1980   33.5390 C   0  0  0  0  0  0  0  0  0  0  0  0
   42.5730   27.1990   34.2560 N   0  0  0  0  0  0  0  0  0  0  0  0
   43.6580   27.2750   33.4760 C   0  0  0  0  0  0  0  0  0  0  0  0
   44.6800   27.2910   33.8570 H   0  0  0  0  0  0  0  0  0  0  0  0
   43.2090   27.3270   32.1890 N   0  0  0  0  0  0  0  0  0  0  0  0
   41.8610   27.2800   32.2080 C   0  0  0  0  0  0  0  0  0  0  0  0
   40.8540   27.2950   31.2620 C   0  0  0  0  0  3  0  0  0  0  0  0
   42.5370   27.1440   35.3060 H   0  0  0  0  0  0  0  0  0  0  0  0
   37.8790   22.0140   33.4590 C   0  0  0  0  0  0  0  0  0  0  0  0
   38.7210   22.7180   33.5020 H   0  0  0  0  0  0  0  0  0  0  0  0
   38.3220   21.0160   33.2610 H   0  0  0  0  0  0  0  0  0  0  0  0
   37.2180   21.9050   34.7110 O   0  0  0  0  0  0  0  0  0  0  0  0
   38.0850   23.2530   37.9470 C   0  0  0  0  0  0  0  0  0  0  0  0
   39.4860   23.1010   37.9000 C   0  0  0  0  0  0  0  0  0  0  0  0
   40.0500   22.5470   36.7660 C   0  0  0  0  0  0  0  0  0  0  0  0
   39.1780   22.1910   35.7740 N   0  0  0  0  0  0  0  0  0  0  0  0
   37.8520   22.3390   35.8270 C   0  0  0  0  0  0  0  0  0  0  0  0
   37.3100   22.8770   36.9310 N   0  0  0  0  0  0  0  0  0  0  0  0
   37.6800   23.6890   38.8470 H   0  0  0  0  0  0  0  0  0  0  0  0
   40.1690   23.3780   38.6720 H   0  0  0  0  0  0  0  0  0  0  0  0
   42.0280   24.4040   35.7690 F   0  0  0  0  0  0  0  0  0  0  0  0
   42.3950   23.1640   36.0890 C   0  0  0  0  0  0  0  0  0  0  0  0
   41.4610   22.3190   36.5490 C   0  0  0  0  0  0  0  0  0  0  0  0
   41.9510   21.0490   36.8530 C   0  0  0  0  0  0  0  0  0  0  0  0
   43.2610   20.6980   36.6970 C   0  0  0  0  0  0  0  0  0  0  0  0
   44.1790   21.6080   36.2180 C   0  0  0  0  0  0  0  0  0  0  0  0
   43.7220   22.8560   35.9140 C   0  0  0  0  0  0  0  0  0  0  0  0
   41.3180   20.2380   37.2420 H   0  0  0  0  0  0  0  0  0  0  0  0
   43.6460   19.7080   36.9330 H   0  0  0  0  0  0  0  0  0  0  0  0
   45.2260   21.3290   36.0930 H   0  0  0  0  0  0  0  0  0  0  0  0
   44.4320   23.5830   35.5380 H   0  0  0  0  0  0  0  0  0  0  0  0
  1  3  1  0  0  0  0
  1 27  1  0  0  0  0
  2  1  1  0  0  0  0
  4  1  1  0  0  0  0
  4  9  1  0  0  0  0
  5  4  2  0  0  0  0
  6  5  1  0  0  0  0
  6  7  2  0  0  0  0
  7  8  1  0  0  0  0
  8  9  2  0  0  0  0
  8 12  1  0  0  0  0
 10  5  1  0  0  0  0
 11  6  1  0  0  0  0
 12 13  1  0  0  0  0
 14 12  1  0  0  0  0
 15 16  1  0  0  0  0
 16 12  1  0  0  0  0
 16 17  2  0  0  0  0
 17 18  1  0  0  0  0
 19 17  1  0  0  0  0
 19 20  1  0  0  0  0
 20 26  1  0  0  0  0
 21 22  1  0  0  0  0
 21 20  1  0  0  0  0
 23 24  1  0  0  0  0
 23 21  2  0  0  0  0
 24 19  2  0  0  0  0
 25 15  2  0  0  0  0
 25 24  1  0  0  0  0
 27 28  1  0  0  0  0
 27 30  1  0  0  0  0
 29 27  1  0  0  0  0
 30 35  1  0  0  0  0
 31 37  1  0  0  0  0
 32 31  1  0  0  0  0
 32 38  1  0  0  0  0
 33 32  2  0  0  0  0
 34 35  2  0  0  0  0
 34 33  1  0  0  0  0
 35 36  1  0  0  0  0
 36 31  2  0  0  0  0
 39 40  1  0  0  0  0
 40 41  1  0  0  0  0
 41 33  1  0  0  0  0
 41 42  2  0  0  0  0
 42 46  1  0  0  0  0
 43 42  1  0  0  0  0
 43 47  1  0  0  0  0
 44 43  2  0  0  0  0
 45 40  2  0  0  0  0
 45 44  1  0  0  0  0
 48 44  1  0  0  0  0
 49 45  1  0  0  0  0
M  END
>  <minimizedAffinity>
-6.69802237

$$$$

 OpenBabel03272509593D

 49 53  0  0  0  0  0  0  0  0999 V2000
   37.0990   25.7430   31.0050 C   0  0  0  0  0  0  0  0  0  0  0  0
   36.0780   26.1290   30.7290 H   0  0  0  0  0  0  0  0  0  0  0  0
   37.7000   25.8170   30.0990 H   0  0  0  0  0  0  0  0  0  0  0  0
   36.9540   24.3120   31.3850 C   0  0  0  0  0  0  0  0  0  0  0  0
   35.7340   23.7000   31.1530 C   0  0  0  0  0  0  0  0  0  0  0  0
   35.5180   22.3800   31.4760 C   0  0  0  0  0  0  0  0  0  0  0  0
   36.5030   21.6690   32.0240 N   0  0  0  0  0  0  0  0  0  0  0  0
   37.7020   22.2810   32.2480 C   0  0  0  0  0  0  0  0  0  0  0  0
   37.9300   23.5690   31.9390 N   0  0  0  0  0  0  0  0  0  0  0  0
   34.9300   24.2720   30.7100 H   0  0  0  0  0  0  0  0  0  0  0  0
   34.5780   21.8680   31.3090 H   0  0  0  0  0  0  0  0  0  0  0  0
   38.7880   21.4660   32.8610 C   0  0  0  0  0  0  0  0  0  0  0  0
   39.6910   21.6140   32.2320 H   0  0  0  0  0  0  0  0  0  0  0  0
   38.5460   20.3840   32.8520 H   0  0  0  0  0  0  0  0  0  0  0  0
   40.3660   22.2550   34.7000 C   0  0  0  0  0  3  0  0  0  0  0  0
   39.0890   21.9540   34.2340 C   0  0  0  0  0  0  0  0  0  0  0  0
   38.0220   22.1220   35.1160 C   0  0  0  0  0  0  0  0  0  0  0  0
   37.0120   21.8860   34.7550 H   0  0  0  0  0  0  0  0  0  0  0  0
   38.1890   22.5670   36.4050 C   0  0  0  0  0  0  0  0  0  0  0  0
   37.3670   22.8090   37.4270 N   0  0  0  0  0  0  0  0  0  0  0  0
   38.0290   23.2420   38.5060 C   0  0  0  0  0  0  0  0  0  0  0  0
   37.5490   23.5000   39.4510 H   0  0  0  0  0  0  0  0  0  0  0  0
   39.3490   23.2820   38.1610 N   0  0  0  0  0  0  0  0  0  0  0  0
   39.4650   22.8720   36.8810 C   0  0  0  0  0  0  0  0  0  0  0  0
   40.5030   22.6960   35.9870 C   0  0  0  0  0  3  0  0  0  0  0  0
   36.3300   22.6560   37.3260 H   0  0  0  0  0  0  0  0  0  0  0  0
   37.7180   26.5690   32.0980 C   0  0  0  0  0  0  0  0  0  0  0  0
   38.4640   27.2970   31.7500 H   0  0  0  0  0  0  0  0  0  0  0  0
   38.2600   25.8690   32.7670 H   0  0  0  0  0  0  0  0  0  0  0  0
   36.7180   27.1800   32.8990 O   0  0  0  0  0  0  0  0  0  0  0  0
   36.3750   30.5350   31.6080 C   0  0  0  0  0  0  0  0  0  0  0  0
   35.6750   31.1310   32.6780 C   0  0  0  0  0  0  0  0  0  0  0  0
   35.3630   30.3510   33.7750 C   0  0  0  0  0  0  0  0  0  0  0  0
   35.7700   29.0460   33.7200 N   0  0  0  0  0  0  0  0  0  0  0  0
   36.4320   28.4900   32.7030 C   0  0  0  0  0  0  0  0  0  0  0  0
   36.7330   29.2530   31.6400 N   0  0  0  0  0  0  0  0  0  0  0  0
   36.6030   31.1740   30.7690 H   0  0  0  0  0  0  0  0  0  0  0  0
   35.3570   32.1490   32.7230 H   0  0  0  0  0  0  0  0  0  0  0  0
   32.6810   29.6700   34.6090 F   0  0  0  0  0  0  0  0  0  0  0  0
   33.4130   30.4930   35.3600 C   0  0  0  0  0  0  0  0  0  0  0  0
   34.6540   30.7960   34.9540 C   0  0  0  0  0  0  0  0  0  0  0  0
   35.3310   31.6630   35.8110 C   0  0  0  0  0  0  0  0  0  0  0  0
   34.7810   32.1590   36.9580 C   0  0  0  0  0  0  0  0  0  0  0  0
   33.4980   31.8150   37.3260 C   0  0  0  0  0  0  0  0  0  0  0  0
   32.8180   30.9680   36.5040 C   0  0  0  0  0  0  0  0  0  0  0  0
   36.3580   32.0100   35.6260 H   0  0  0  0  0  0  0  0  0  0  0  0
   35.3070   32.8360   37.6280 H   0  0  0  0  0  0  0  0  0  0  0  0
   33.0580   32.2100   38.2420 H   0  0  0  0  0  0  0  0  0  0  0  0
   31.8090   30.6870   36.7800 H   0  0  0  0  0  0  0  0  0  0  0  0
  1  4  1  0  0  0  0
  1 27  1  0  0  0  0
  2  1  1  0  0  0  0
  3  1  1  0  0  0  0
  4  9  1  0  0  0  0
  5  4  2  0  0  0  0
  5  6  1  0  0  0  0
  6  7  2  0  0  0  0
  7  8  1  0  0  0  0
  8 12  1  0  0  0  0
  9  8  2  0  0  0  0
 10  5  1  0  0  0  0
 11  6  1  0  0  0  0
 12 16  1  0  0  0  0
 13 12  1  0  0  0  0
 14 12  1  0  0  0  0
 15 25  1  0  0  0  0
 16 15  2  0  0  0  0
 16 17  1  0  0  0  0
 17 19  2  0  0  0  0
 18 17  1  0  0  0  0
 19 24  1  0  0  0  0
 19 20  1  0  0  0  0
 20 21  1  0  0  0  0
 21 22  1  0  0  0  0
 23 21  2  0  0  0  0
 24 23  1  0  0  0  0
 25 24  2  0  0  0  0
 26 20  1  0  0  0  0
 27 29  1  0  0  0  0
 27 30  1  0  0  0  0
 28 27  1  0  0  0  0
 31 36  2  0  0  0  0
 31 32  1  0  0  0  0
 32 38  1  0  0  0  0
 32 33  2  0  0  0  0
 33 41  1  0  0  0  0
 34 33  1  0  0  0  0
 35 30  1  0  0  0  0
 35 34  2  0  0  0  0
 36 35  1  0  0  0  0
 37 31  1  0  0  0  0
 39 40  1  0  0  0  0
 40 45  1  0  0  0  0
 41 40  2  0  0  0  0
 41 42  1  0  0  0  0
 42 43  2  0  0  0  0
 43 44  1  0  0  0  0
 43 47  1  0  0  0  0
 44 48  1  0  0  0  0
 45 49  1  0  0  0  0
 45 44  2  0  0  0  0
 46 42  1  0  0  0  0
M  END
>  <minimizedAffinity>
-6.65184212

$$$$

 OpenBabel03272509593D

 49 53  0  0  0  0  0  0  0  0999 V2000
   36.3580   28.0450   33.0600 C   0  0  0  0  0  0  0  0  0  0  0  0
   35.9560   27.7320   34.0650 H   0  0  0  0  0  0  0  0  0  0  0  0
   37.3440   28.4680   33.2530 H   0  0  0  0  0  0  0  0  0  0  0  0
   35.4630   29.1070   32.5270 C   0  0  0  0  0  0  0  0  0  0  0  0
   35.9700   29.9590   31.5610 C   0  0  0  0  0  0  0  0  0  0  0  0
   35.2080   30.9670   31.0170 C   0  0  0  0  0  0  0  0  0  0  0  0
   33.9500   31.1310   31.4260 N   0  0  0  0  0  0  0  0  0  0  0  0
   33.4580   30.2870   32.3780 C   0  0  0  0  0  0  0  0  0  0  0  0
   34.1900   29.2970   32.9200 N   0  0  0  0  0  0  0  0  0  0  0  0
   36.9900   29.8310   31.2250 H   0  0  0  0  0  0  0  0  0  0  0  0
   35.5700   31.6500   30.2600 H   0  0  0  0  0  0  0  0  0  0  0  0
   32.0500   30.4900   32.8200 C   0  0  0  0  0  0  0  0  0  0  0  0
   31.4130   29.8780   32.1470 H   0  0  0  0  0  0  0  0  0  0  0  0
   31.7340   31.5470   32.7120 H   0  0  0  0  0  0  0  0  0  0  0  0
   32.1370   30.7470   35.3540 C   0  0  0  0  0  3  0  0  0  0  0  0
   31.8670   29.9980   34.2120 C   0  0  0  0  0  0  0  0  0  0  0  0
   31.3940   28.6980   34.3880 C   0  0  0  0  0  0  0  0  0  0  0  0
   31.1790   28.1010   33.4910 H   0  0  0  0  0  0  0  0  0  0  0  0
   31.1890   28.1440   35.6280 C   0  0  0  0  0  0  0  0  0  0  0  0
   30.7580   26.9610   36.0670 N   0  0  0  0  0  0  0  0  0  0  0  0
   30.7350   26.9060   37.4050 C   0  0  0  0  0  0  0  0  0  0  0  0
   30.4140   26.0310   37.9710 H   0  0  0  0  0  0  0  0  0  0  0  0
   31.1740   28.1180   37.8510 N   0  0  0  0  0  0  0  0  0  0  0  0
   31.4570   28.8880   36.7790 C   0  0  0  0  0  0  0  0  0  0  0  0
   31.9240   30.1710   36.5760 C   0  0  0  0  0  3  0  0  0  0  0  0
   30.4850   26.2060   35.3870 H   0  0  0  0  0  0  0  0  0  0  0  0
   36.4780   26.8720   32.1290 C   0  0  0  0  0  0  0  0  0  0  0  0
   36.3240   27.1140   31.0690 H   0  0  0  0  0  0  0  0  0  0  0  0
   35.6750   26.1570   32.4020 H   0  0  0  0  0  0  0  0  0  0  0  0
   37.7020   26.1830   32.3410 O   0  0  0  0  0  0  0  0  0  0  0  0
   37.3420   22.5930   32.4940 C   0  0  0  0  0  0  0  0  0  0  0  0
   37.7090   22.3750   33.8390 C   0  0  0  0  0  0  0  0  0  0  0  0
   38.0570   23.4670   34.6110 C   0  0  0  0  0  0  0  0  0  0  0  0
   38.0120   24.6830   33.9860 N   0  0  0  0  0  0  0  0  0  0  0  0
   37.6630   24.8800   32.7140 C   0  0  0  0  0  0  0  0  0  0  0  0
   37.3260   23.8160   31.9680 N   0  0  0  0  0  0  0  0  0  0  0  0
   37.0760   21.7170   31.9220 H   0  0  0  0  0  0  0  0  0  0  0  0
   37.7450   21.4260   34.3280 H   0  0  0  0  0  0  0  0  0  0  0  0
   40.3400   22.1300   35.7740 F   0  0  0  0  0  0  0  0  0  0  0  0
   39.5090   22.8140   36.5610 C   0  0  0  0  0  0  0  0  0  0  0  0
   38.4570   23.4260   36.0000 C   0  0  0  0  0  0  0  0  0  0  0  0
   37.6540   24.1130   36.9100 C   0  0  0  0  0  0  0  0  0  0  0  0
   37.9160   24.1580   38.2490 C   0  0  0  0  0  0  0  0  0  0  0  0
   39.0130   23.5080   38.7720 C   0  0  0  0  0  0  0  0  0  0  0  0
   39.8120   22.8310   37.9000 C   0  0  0  0  0  0  0  0  0  0  0  0
   36.7520   24.6700   36.6160 H   0  0  0  0  0  0  0  0  0  0  0  0
   37.2910   24.6930   38.9620 H   0  0  0  0  0  0  0  0  0  0  0  0
   39.2230   23.5440   39.8420 H   0  0  0  0  0  0  0  0  0  0  0  0
   40.6790   22.3160   38.2960 H   0  0  0  0  0  0  0  0  0  0  0  0
  1  3  1  0  0  0  0
  1  2  1  0  0  0  0
  4  9  1  0  0  0  0
  4  1  1  0  0  0  0
  5  4  2  0  0  0  0
  6  7  2  0  0  0  0
  6  5  1  0  0  0  0
  7  8  1  0  0  0  0
  8 12  1  0  0  0  0
  8  9  2  0  0  0  0
 10  5  1  0  0  0  0
 11  6  1  0  0  0  0
 12 16  1  0  0  0  0
 13 12  1  0  0  0  0
 14 12  1  0  0  0  0
 15 25  1  0  0  0  0
 16 17  1  0  0  0  0
 16 15  2  0  0  0  0
 17 19  2  0  0  0  0
 18 17  1  0  0  0  0
 19 20  1  0  0  0  0
 19 24  1  0  0  0  0
 20 21  1  0  0  0  0
 21 23  2  0  0  0  0
 21 22  1  0  0  0  0
 24 23  1  0  0  0  0
 25 24  2  0  0  0  0
 26 20  1  0  0  0  0
 27 30  1  0  0  0  0
 27 29  1  0  0  0  0
 27  1  1  0  0  0  0
 28 27  1  0  0  0  0
 30 35  1  0  0  0  0
 31 32  1  0  0  0  0
 32 38  1  0  0  0  0
 32 33  2  0  0  0  0
 33 41  1  0  0  0  0
 34 33  1  0  0  0  0
 35 34  2  0  0  0  0
 36 31  2  0  0  0  0
 36 35  1  0  0  0  0
 37 31  1  0  0  0  0
 39 40  1  0  0  0  0
 40 45  1  0  0  0  0
 41 40  2  0  0  0  0
 41 42  1  0  0  0  0
 42 43  2  0  0  0  0
 43 44  1  0  0  0  0
 43 47  1  0  0  0  0
 44 48  1  0  0  0  0
 45 49  1  0  0  0  0
 45 44  2  0  0  0  0
 46 42  1  0  0  0  0
M  END
>  <minimizedAffinity>
-6.62699842

$$$$

 OpenBabel03272509593D

 49 53  0  0  0  0  0  0  0  0999 V2000
   37.2870   26.9550   35.0370 C   0  0  0  0  0  0  0  0  0  0  0  0
   36.4270   26.4300   35.5410 H   0  0  0  0  0  0  0  0  0  0  0  0
   37.7970   27.5120   35.8220 H   0  0  0  0  0  0  0  0  0  0  0  0
   36.7170   27.9080   34.0470 C   0  0  0  0  0  0  0  0  0  0  0  0
   37.1510   27.8190   32.7350 C   0  0  0  0  0  0  0  0  0  0  0  0
   36.6730   28.6630   31.7600 C   0  0  0  0  0  0  0  0  0  0  0  0
   35.7710   29.5910   32.0790 N   0  0  0  0  0  0  0  0  0  0  0  0
   35.3490   29.6710   33.3750 C   0  0  0  0  0  0  0  0  0  0  0  0
   35.8050   28.8540   34.3400 N   0  0  0  0  0  0  0  0  0  0  0  0
   37.8830   27.0690   32.4700 H   0  0  0  0  0  0  0  0  0  0  0  0
   36.9880   28.6220   30.7250 H   0  0  0  0  0  0  0  0  0  0  0  0
   34.3400   30.7150   33.7080 C   0  0  0  0  0  0  0  0  0  0  0  0
   34.1830   31.3120   32.7840 H   0  0  0  0  0  0  0  0  0  0  0  0
   34.7060   31.4050   34.4950 H   0  0  0  0  0  0  0  0  0  0  0  0
   32.2830   29.2870   33.2340 C   0  0  0  0  0  3  0  0  0  0  0  0
   33.0460   30.0840   34.0830 C   0  0  0  0  0  0  0  0  0  0  0  0
   32.5620   30.3040   35.3720 C   0  0  0  0  0  0  0  0  0  0  0  0
   33.1590   30.9320   36.0480 H   0  0  0  0  0  0  0  0  0  0  0  0
   31.3790   29.7690   35.8220 C   0  0  0  0  0  0  0  0  0  0  0  0
   30.7050   29.8190   36.9710 N   0  0  0  0  0  0  0  0  0  0  0  0
   29.5700   29.1110   36.9120 C   0  0  0  0  0  0  0  0  0  0  0  0
   28.8690   29.0170   37.7430 H   0  0  0  0  0  0  0  0  0  0  0  0
   29.5110   28.5770   35.6590 N   0  0  0  0  0  0  0  0  0  0  0  0
   30.6070   28.9690   34.9780 C   0  0  0  0  0  0  0  0  0  0  0  0
   31.1100   28.7670   33.7080 C   0  0  0  0  0  3  0  0  0  0  0  0
   31.0790   30.3690   37.7870 H   0  0  0  0  0  0  0  0  0  0  0  0
   38.2350   25.9710   34.4100 C   0  0  0  0  0  0  0  0  0  0  0  0
   39.2970   26.1760   34.6050 H   0  0  0  0  0  0  0  0  0  0  0  0
   38.1030   26.0490   33.3110 H   0  0  0  0  0  0  0  0  0  0  0  0
   37.8820   24.6400   34.7520 O   0  0  0  0  0  0  0  0  0  0  0  0
   38.2260   23.5580   38.1810 C   0  0  0  0  0  0  0  0  0  0  0  0
   39.5230   23.0070   38.1270 C   0  0  0  0  0  0  0  0  0  0  0  0
   40.2010   23.0380   36.9230 C   0  0  0  0  0  0  0  0  0  0  0  0
   39.5380   23.6130   35.8740 N   0  0  0  0  0  0  0  0  0  0  0  0
   38.3100   24.1320   35.9340 C   0  0  0  0  0  0  0  0  0  0  0  0
   37.6550   24.0990   37.1060 N   0  0  0  0  0  0  0  0  0  0  0  0
   37.7260   23.5170   39.1370 H   0  0  0  0  0  0  0  0  0  0  0  0
   40.0430   22.5580   38.9440 H   0  0  0  0  0  0  0  0  0  0  0  0
   42.5230   24.4570   35.9490 F   0  0  0  0  0  0  0  0  0  0  0  0
   42.6210   23.1600   36.2390 C   0  0  0  0  0  0  0  0  0  0  0  0
   41.5310   22.5220   36.6890 C   0  0  0  0  0  0  0  0  0  0  0  0
   41.7430   21.1710   36.9620 C   0  0  0  0  0  0  0  0  0  0  0  0
   42.9480   20.5540   36.7870 C   0  0  0  0  0  0  0  0  0  0  0  0
   44.0360   21.2600   36.3200 C   0  0  0  0  0  0  0  0  0  0  0  0
   43.8520   22.5820   36.0470 C   0  0  0  0  0  0  0  0  0  0  0  0
   40.9550   20.5030   37.3390 H   0  0  0  0  0  0  0  0  0  0  0  0
   43.1160   19.5000   36.9980 H   0  0  0  0  0  0  0  0  0  0  0  0
   44.9990   20.7680   36.1790 H   0  0  0  0  0  0  0  0  0  0  0  0
   44.6980   23.1510   35.6800 H   0  0  0  0  0  0  0  0  0  0  0  0
  1  2  1  0  0  0  0
  1  3  1  0  0  0  0
  4  9  1  0  0  0  0
  4  1  1  0  0  0  0
  5  4  2  0  0  0  0
  6  7  2  0  0  0  0
  6  5  1  0  0  0  0
  7  8  1  0  0  0  0
  8 12  1  0  0  0  0
  8  9  2  0  0  0  0
 10  5  1  0  0  0  0
 11  6  1  0  0  0  0
 12 16  1  0  0  0  0
 12 14  1  0  0  0  0
 13 12  1  0  0  0  0
 15 25  2  0  0  0  0
 15 16  1  0  0  0  0
 16 17  2  0  0  0  0
 17 19  1  0  0  0  0
 17 18  1  0  0  0  0
 19 20  1  0  0  0  0
 20 26  1  0  0  0  0
 21 20  1  0  0  0  0
 21 22  1  0  0  0  0
 23 21  2  0  0  0  0
 24 23  1  0  0  0  0
 24 19  2  0  0  0  0
 25 24  1  0  0  0  0
 27 28  1  0  0  0  0
 27 30  1  0  0  0  0
 27  1  1  0  0  0  0
 29 27  1  0  0  0  0
 30 35  1  0  0  0  0
 31 37  1  0  0  0  0
 32 31  1  0  0  0  0
 32 38  1  0  0  0  0
 33 32  2  0  0  0  0
 34 35  2  0  0  0  0
 34 33  1  0  0  0  0
 35 36  1  0  0  0  0
 36 31  2  0  0  0  0
 39 40  1  0  0  0  0
 40 41  1  0  0  0  0
 41 33  1  0  0  0  0
 41 42  2  0  0  0  0
 42 46  1  0  0  0  0
 43 42  1  0  0  0  0
 43 47  1  0  0  0  0
 44 43  2  0  0  0  0
 45 40  2  0  0  0  0
 45 44  1  0  0  0  0
 48 44  1  0  0  0  0
 49 45  1  0  0  0  0
M  END
>  <minimizedAffinity>
-6.51995277

$$$$

 OpenBabel03272509593D

 49 53  0  0  0  0  0  0  0  0999 V2000
   38.9730   26.6520   33.6680 C   0  0  0  0  0  0  0  0  0  0  0  0
   39.0330   27.1000   34.7000 H   0  0  0  0  0  0  0  0  0  0  0  0
   39.9190   26.8940   33.1830 H   0  0  0  0  0  0  0  0  0  0  0  0
   37.8630   27.3280   32.9450 C   0  0  0  0  0  0  0  0  0  0  0  0
   37.8220   27.2140   31.5650 C   0  0  0  0  0  0  0  0  0  0  0  0
   36.8290   27.8100   30.8220 C   0  0  0  0  0  0  0  0  0  0  0  0
   35.8810   28.5140   31.4400 N   0  0  0  0  0  0  0  0  0  0  0  0
   35.9290   28.6210   32.7990 C   0  0  0  0  0  0  0  0  0  0  0  0
   36.8920   28.0450   33.5400 N   0  0  0  0  0  0  0  0  0  0  0  0
   38.5890   26.6440   31.0590 H   0  0  0  0  0  0  0  0  0  0  0  0
   36.7650   27.7410   29.7440 H   0  0  0  0  0  0  0  0  0  0  0  0
   34.8580   29.4130   33.4670 C   0  0  0  0  0  0  0  0  0  0  0  0
   34.4520   28.7770   34.2810 H   0  0  0  0  0  0  0  0  0  0  0  0
   34.0250   29.6450   32.7740 H   0  0  0  0  0  0  0  0  0  0  0  0
   35.6450   30.8200   35.4410 C   0  0  0  0  0  3  0  0  0  0  0  0
   35.4290   30.6450   34.0760 C   0  0  0  0  0  0  0  0  0  0  0  0
   35.7720   31.6950   33.2270 C   0  0  0  0  0  0  0  0  0  0  0  0
   35.6050   31.5640   32.1490 H   0  0  0  0  0  0  0  0  0  0  0  0
   36.3070   32.8750   33.6840 C   0  0  0  0  0  0  0  0  0  0  0  0
   36.7120   34.0070   33.1070 N   0  0  0  0  0  0  0  0  0  0  0  0
   37.1690   34.8870   34.0060 C   0  0  0  0  0  0  0  0  0  0  0  0
   37.5500   35.8770   33.7480 H   0  0  0  0  0  0  0  0  0  0  0  0
   37.0530   34.2910   35.2270 N   0  0  0  0  0  0  0  0  0  0  0  0
   36.5270   33.0610   35.0500 C   0  0  0  0  0  0  0  0  0  0  0  0
   36.1780   32.0050   35.8690 C   0  0  0  0  0  3  0  0  0  0  0  0
   36.6510   34.1260   32.0630 H   0  0  0  0  0  0  0  0  0  0  0  0
   38.7970   25.1610   33.7290 C   0  0  0  0  0  0  0  0  0  0  0  0
   39.7290   24.5990   33.8790 H   0  0  0  0  0  0  0  0  0  0  0  0
   38.4000   24.8410   32.7440 H   0  0  0  0  0  0  0  0  0  0  0  0
   37.8080   24.8070   34.6830 O   0  0  0  0  0  0  0  0  0  0  0  0
   38.0550   23.6850   38.1070 C   0  0  0  0  0  0  0  0  0  0  0  0
   39.3430   23.1090   38.0750 C   0  0  0  0  0  0  0  0  0  0  0  0
   40.0480   23.1400   36.8870 C   0  0  0  0  0  0  0  0  0  0  0  0
   39.4180   23.7380   35.8300 N   0  0  0  0  0  0  0  0  0  0  0  0
   38.2000   24.2800   35.8680 C   0  0  0  0  0  0  0  0  0  0  0  0
   37.5190   24.2470   37.0250 N   0  0  0  0  0  0  0  0  0  0  0  0
   37.5340   23.6430   39.0510 H   0  0  0  0  0  0  0  0  0  0  0  0
   39.8360   22.6430   38.8990 H   0  0  0  0  0  0  0  0  0  0  0  0
   42.3690   24.4760   35.8000 F   0  0  0  0  0  0  0  0  0  0  0  0
   42.4620   23.2010   36.1760 C   0  0  0  0  0  0  0  0  0  0  0  0
   41.3730   22.6010   36.6770 C   0  0  0  0  0  0  0  0  0  0  0  0
   41.5790   21.2700   37.0380 C   0  0  0  0  0  0  0  0  0  0  0  0
   42.7800   20.6360   36.8950 C   0  0  0  0  0  0  0  0  0  0  0  0
   43.8670   21.3020   36.3710 C   0  0  0  0  0  0  0  0  0  0  0  0
   43.6880   22.6040   36.0110 C   0  0  0  0  0  0  0  0  0  0  0  0
   40.7910   20.6340   37.4660 H   0  0  0  0  0  0  0  0  0  0  0  0
   42.9430   19.5970   37.1750 H   0  0  0  0  0  0  0  0  0  0  0  0
   44.8260   20.7960   36.2560 H   0  0  0  0  0  0  0  0  0  0  0  0
   44.5340   23.1410   35.6000 H   0  0  0  0  0  0  0  0  0  0  0  0
  1 27  1  0  0  0  0
  1  2  1  0  0  0  0
  3  1  1  0  0  0  0
  4  9  1  0  0  0  0
  4  1  1  0  0  0  0
  5  4  2  0  0  0  0
  6  7  2  0  0  0  0
  6  5  1  0  0  0  0
  7  8  1  0  0  0  0
  8 12  1  0  0  0  0
  8  9  2  0  0  0  0
 10  5  1  0  0  0  0
 11  6  1  0  0  0  0
 12 16  1  0  0  0  0
 12 13  1  0  0  0  0
 14 12  1  0  0  0  0
 15 25  1  0  0  0  0
 16 15  2  0  0  0  0
 17 19  2  0  0  0  0
 17 16  1  0  0  0  0
 18 17  1  0  0  0  0
 19 24  1  0  0  0  0
 20 19  1  0  0  0  0
 20 21  1  0  0  0  0
 21 23  2  0  0  0  0
 22 21  1  0  0  0  0
 24 23  1  0  0  0  0
 24 25  2  0  0  0  0
 26 20  1  0  0  0  0
 27 28  1  0  0  0  0
 27 30  1  0  0  0  0
 29 27  1  0  0  0  0
 30 35  1  0  0  0  0
 31 37  1  0  0  0  0
 32 31  1  0  0  0  0
 32 38  1  0  0  0  0
 33 32  2  0  0  0  0
 34 35  2  0  0  0  0
 34 33  1  0  0  0  0
 35 36  1  0  0  0  0
 36 31  2  0  0  0  0
 39 40  1  0  0  0  0
 40 41  1  0  0  0  0
 41 33  1  0  0  0  0
 41 42  2  0  0  0  0
 42 46  1  0  0  0  0
 43 42  1  0  0  0  0
 43 47  1  0  0  0  0
 44 43  2  0  0  0  0
 45 40  2  0  0  0  0
 45 44  1  0  0  0  0
 48 44  1  0  0  0  0
 49 45  1  0  0  0  0
M  END
>  <minimizedAffinity>
-6.45978928

$$$$

 OpenBabel03272509593D

 49 53  0  0  0  0  0  0  0  0999 V2000
   36.6870   20.8500   32.8090 C   0  0  0  0  0  0  0  0  0  0  0  0
   36.4810   19.7420   32.8070 H   0  0  0  0  0  0  0  0  0  0  0  0
   37.6810   20.9680   32.3770 H   0  0  0  0  0  0  0  0  0  0  0  0
   36.7080   21.3040   34.2250 C   0  0  0  0  0  0  0  0  0  0  0  0
   35.7600   20.7810   35.0890 C   0  0  0  0  0  0  0  0  0  0  0  0
   35.7120   21.1490   36.4130 C   0  0  0  0  0  0  0  0  0  0  0  0
   36.5960   22.0290   36.8820 N   0  0  0  0  0  0  0  0  0  0  0  0
   37.5260   22.5390   36.0240 C   0  0  0  0  0  0  0  0  0  0  0  0
   37.5870   22.1900   34.7270 N   0  0  0  0  0  0  0  0  0  0  0  0
   35.0400   20.0670   34.7140 H   0  0  0  0  0  0  0  0  0  0  0  0
   34.9860   20.7600   37.1170 H   0  0  0  0  0  0  0  0  0  0  0  0
   38.5040   23.5210   36.5710 C   0  0  0  0  0  0  0  0  0  0  0  0
   38.3150   23.5840   37.6640 H   0  0  0  0  0  0  0  0  0  0  0  0
   38.3530   24.5330   36.1450 H   0  0  0  0  0  0  0  0  0  0  0  0
   40.8180   23.6340   35.5100 C   0  0  0  0  0  3  0  0  0  0  0  0
   39.8950   23.0360   36.3650 C   0  0  0  0  0  0  0  0  0  0  0  0
   40.3060   21.9080   37.0730 C   0  0  0  0  0  0  0  0  0  0  0  0
   39.5830   21.4320   37.7490 H   0  0  0  0  0  0  0  0  0  0  0  0
   41.5680   21.3780   36.9570 C   0  0  0  0  0  0  0  0  0  0  0  0
   42.2020   20.3390   37.5030 N   0  0  0  0  0  0  0  0  0  0  0  0
   43.4590   20.2340   37.0560 C   0  0  0  0  0  0  0  0  0  0  0  0
   44.1540   19.4550   37.3730 H   0  0  0  0  0  0  0  0  0  0  0  0
   43.6460   21.2600   36.1770 N   0  0  0  0  0  0  0  0  0  0  0  0
   42.5000   21.9690   36.1030 C   0  0  0  0  0  0  0  0  0  0  0  0
   42.0670   23.0850   35.4140 C   0  0  0  0  0  3  0  0  0  0  0  0
   41.7100   19.7160   38.1950 H   0  0  0  0  0  0  0  0  0  0  0  0
   35.6790   21.5950   31.9800 C   0  0  0  0  0  0  0  0  0  0  0  0
   34.8850   22.0840   32.5590 H   0  0  0  0  0  0  0  0  0  0  0  0
   35.1730   20.8460   31.3350 H   0  0  0  0  0  0  0  0  0  0  0  0
   36.3220   22.5000   31.0950 O   0  0  0  0  0  0  0  0  0  0  0  0
   35.1070   25.9000   30.9920 C   0  0  0  0  0  0  0  0  0  0  0  0
   36.0490   26.5140   31.8440 C   0  0  0  0  0  0  0  0  0  0  0  0
   37.0420   25.7310   32.4010 C   0  0  0  0  0  0  0  0  0  0  0  0
   37.0180   24.4040   32.0680 N   0  0  0  0  0  0  0  0  0  0  0  0
   36.1230   23.8300   31.2610 C   0  0  0  0  0  0  0  0  0  0  0  0
   35.1600   24.5960   30.7230 N   0  0  0  0  0  0  0  0  0  0  0  0
   34.3470   26.5420   30.5750 H   0  0  0  0  0  0  0  0  0  0  0  0
   36.0700   27.5490   32.1050 H   0  0  0  0  0  0  0  0  0  0  0  0
   36.8120   26.4790   35.1830 F   0  0  0  0  0  0  0  0  0  0  0  0
   38.0000   26.5440   34.5820 C   0  0  0  0  0  0  0  0  0  0  0  0
   38.0830   26.1930   33.2910 C   0  0  0  0  0  0  0  0  0  0  0  0
   39.3690   26.2980   32.7600 C   0  0  0  0  0  0  0  0  0  0  0  0
   40.4440   26.7190   33.4890 C   0  0  0  0  0  0  0  0  0  0  0  0
   40.3000   27.0700   34.8130 C   0  0  0  0  0  0  0  0  0  0  0  0
   39.0520   26.9750   35.3530 C   0  0  0  0  0  0  0  0  0  0  0  0
   39.6110   26.0470   31.7180 H   0  0  0  0  0  0  0  0  0  0  0  0
   41.4480   26.8020   33.0770 H   0  0  0  0  0  0  0  0  0  0  0  0
   41.1580   27.4070   35.3960 H   0  0  0  0  0  0  0  0  0  0  0  0
   38.9230   27.2460   36.3940 H   0  0  0  0  0  0  0  0  0  0  0  0
  1  4  1  0  0  0  0
  2  1  1  0  0  0  0
  3  1  1  0  0  0  0
  4  9  2  0  0  0  0
  4  5  1  0  0  0  0
  5  6  2  0  0  0  0
  6  7  1  0  0  0  0
  6 11  1  0  0  0  0
  8 12  1  0  0  0  0
  8  7  2  0  0  0  0
  9  8  1  0  0  0  0
 10  5  1  0  0  0  0
 12 13  1  0  0  0  0
 14 12  1  0  0  0  0
 15 16  1  0  0  0  0
 16 12  1  0  0  0  0
 16 17  2  0  0  0  0
 17 18  1  0  0  0  0
 19 17  1  0  0  0  0
 19 20  1  0  0  0  0
 20 26  1  0  0  0  0
 21 22  1  0  0  0  0
 21 20  1  0  0  0  0
 23 21  2  0  0  0  0
 24 23  1  0  0  0  0
 24 19  2  0  0  0  0
 25 15  2  0  0  0  0
 25 24  1  0  0  0  0
 27 28  1  0  0  0  0
 27  1  1  0  0  0  0
 29 27  1  0  0  0  0
 30 35  1  0  0  0  0
 30 27  1  0  0  0  0
 31 32  1  0  0  0  0
 32 38  1  0  0  0  0
 32 33  2  0  0  0  0
 33 41  1  0  0  0  0
 34 33  1  0  0  0  0
 35 34  2  0  0  0  0
 36 31  2  0  0  0  0
 36 35  1  0  0  0  0
 37 31  1  0  0  0  0
 40 39  1  0  0  0  0
 40 45  1  0  0  0  0
 41 40  2  0  0  0  0
 42 41  1  0  0  0  0
 42 43  2  0  0  0  0
 43 44  1  0  0  0  0
 44 45  2  0  0  0  0
 44 48  1  0  0  0  0
 45 49  1  0  0  0  0
 46 42  1  0  0  0  0
 47 43  1  0  0  0  0
M  END
>  <minimizedAffinity>
-6.45169067

$$$$

 OpenBabel03272509593D

 49 53  0  0  0  0  0  0  0  0999 V2000
   36.8770   22.2370   32.1290 C   0  0  0  0  0  0  0  0  0  0  0  0
   36.0190   21.6020   31.7690 H   0  0  0  0  0  0  0  0  0  0  0  0
   36.9460   22.0630   33.2030 H   0  0  0  0  0  0  0  0  0  0  0  0
   36.5230   23.6600   31.8830 C   0  0  0  0  0  0  0  0  0  0  0  0
   35.3780   23.9260   31.1510 C   0  0  0  0  0  0  0  0  0  0  0  0
   34.9800   25.2150   30.8790 C   0  0  0  0  0  0  0  0  0  0  0  0
   35.7100   26.2350   31.3290 N   0  0  0  0  0  0  0  0  0  0  0  0
   36.8360   25.9630   32.0500 C   0  0  0  0  0  0  0  0  0  0  0  0
   37.2390   24.7100   32.3250 N   0  0  0  0  0  0  0  0  0  0  0  0
   34.7820   23.1030   30.7820 H   0  0  0  0  0  0  0  0  0  0  0  0
   34.0920   25.4610   30.3110 H   0  0  0  0  0  0  0  0  0  0  0  0
   37.6360   27.1200   32.5430 C   0  0  0  0  0  0  0  0  0  0  0  0
   38.4520   27.2800   31.8060 H   0  0  0  0  0  0  0  0  0  0  0  0
   38.1060   26.9070   33.5240 H   0  0  0  0  0  0  0  0  0  0  0  0
   36.7060   29.2760   31.5520 C   0  0  0  0  0  3  0  0  0  0  0  0
   36.7970   28.3480   32.5860 C   0  0  0  0  0  0  0  0  0  0  0  0
   36.0510   28.5890   33.7390 C   0  0  0  0  0  0  0  0  0  0  0  0
   36.1190   27.8610   34.5590 H   0  0  0  0  0  0  0  0  0  0  0  0
   35.2440   29.6920   33.8840 C   0  0  0  0  0  0  0  0  0  0  0  0
   34.4480   30.1500   34.8500 N   0  0  0  0  0  0  0  0  0  0  0  0
   33.8590   31.3010   34.5040 C   0  0  0  0  0  0  0  0  0  0  0  0
   33.1680   31.8480   35.1470 H   0  0  0  0  0  0  0  0  0  0  0  0
   34.2980   31.6000   33.2480 N   0  0  0  0  0  0  0  0  0  0  0  0
   35.1460   30.6280   32.8520 C   0  0  0  0  0  0  0  0  0  0  0  0
   35.8950   30.3640   31.7230 C   0  0  0  0  0  3  0  0  0  0  0  0
   34.3430   29.6190   35.7530 H   0  0  0  0  0  0  0  0  0  0  0  0
   38.1660   21.8400   31.4650 C   0  0  0  0  0  0  0  0  0  0  0  0
   38.7780   22.6840   31.1190 H   0  0  0  0  0  0  0  0  0  0  0  0
   37.8980   21.2620   30.5570 H   0  0  0  0  0  0  0  0  0  0  0  0
   38.9070   20.9520   32.2880 O   0  0  0  0  0  0  0  0  0  0  0  0
   42.0220   22.0130   33.7770 C   0  0  0  0  0  0  0  0  0  0  0  0
   41.5320   22.5860   34.9690 C   0  0  0  0  0  0  0  0  0  0  0  0
   40.1680   22.5750   35.1920 C   0  0  0  0  0  0  0  0  0  0  0  0
   39.4040   21.9980   34.2150 N   0  0  0  0  0  0  0  0  0  0  0  0
   39.8760   21.4580   33.0900 C   0  0  0  0  0  0  0  0  0  0  0  0
   41.2020   21.4710   32.8780 N   0  0  0  0  0  0  0  0  0  0  0  0
   43.0910   22.0380   33.6360 H   0  0  0  0  0  0  0  0  0  0  0  0
   42.1270   23.0370   35.7330 H   0  0  0  0  0  0  0  0  0  0  0  0
   40.5700   21.8840   37.9700 F   0  0  0  0  0  0  0  0  0  0  0  0
   39.6680   22.8110   37.6480 C   0  0  0  0  0  0  0  0  0  0  0  0
   39.4980   23.1160   36.3540 C   0  0  0  0  0  0  0  0  0  0  0  0
   38.5320   24.0960   36.1280 C   0  0  0  0  0  0  0  0  0  0  0  0
   37.8250   24.6910   37.1330 C   0  0  0  0  0  0  0  0  0  0  0  0
   38.0400   24.3370   38.4470 C   0  0  0  0  0  0  0  0  0  0  0  0
   38.9800   23.3810   38.6910 C   0  0  0  0  0  0  0  0  0  0  0  0
   38.2700   24.4630   35.1250 H   0  0  0  0  0  0  0  0  0  0  0  0
   37.0700   25.4560   36.9600 H   0  0  0  0  0  0  0  0  0  0  0  0
   37.4750   24.8120   39.2510 H   0  0  0  0  0  0  0  0  0  0  0  0
   39.1620   23.0930   39.7200 H   0  0  0  0  0  0  0  0  0  0  0  0
  1  3  1  0  0  0  0
  2  1  1  0  0  0  0
  4  1  1  0  0  0  0
  4  9  1  0  0  0  0
  5  4  2  0  0  0  0
  6  5  1  0  0  0  0
  6  7  2  0  0  0  0
  7  8  1  0  0  0  0
  8  9  2  0  0  0  0
  8 12  1  0  0  0  0
 10  5  1  0  0  0  0
 11  6  1  0  0  0  0
 12 16  1  0  0  0  0
 12 14  1  0  0  0  0
 13 12  1  0  0  0  0
 15 25  2  0  0  0  0
 15 16  1  0  0  0  0
 16 17  2  0  0  0  0
 17 19  1  0  0  0  0
 17 18  1  0  0  0  0
 19 20  1  0  0  0  0
 20 26  1  0  0  0  0
 21 20  1  0  0  0  0
 21 22  1  0  0  0  0
 23 21  2  0  0  0  0
 24 23  1  0  0  0  0
 24 19  2  0  0  0  0
 25 24  1  0  0  0  0
 27  1  1  0  0  0  0
 27 30  1  0  0  0  0
 28 27  1  0  0  0  0
 29 27  1  0  0  0  0
 30 35  1  0  0  0  0
 31 32  1  0  0  0  0
 32 33  2  0  0  0  0
 32 38  1  0  0  0  0
 33 41  1  0  0  0  0
 34 33  1  0  0  0  0
 35 34  2  0  0  0  0
 36 35  1  0  0  0  0
 36 31  2  0  0  0  0
 37 31  1  0  0  0  0
 40 39  1  0  0  0  0
 40 45  1  0  0  0  0
 41 40  2  0  0  0  0
 42 41  1  0  0  0  0
 42 43  2  0  0  0  0
 43 44  1  0  0  0  0
 44 45  2  0  0  0  0
 44 48  1  0  0  0  0
 45 49  1  0  0  0  0
 46 42  1  0  0  0  0
 47 43  1  0  0  0  0
M  END
>  <minimizedAffinity>
-6.4454217

$$$$

 OpenBabel03272509593D

 49 53  0  0  0  0  0  0  0  0999 V2000
   36.5750   22.5690   31.6600 C   0  0  0  0  0  0  0  0  0  0  0  0
   35.7230   22.2040   31.0200 H   0  0  0  0  0  0  0  0  0  0  0  0
   36.4340   22.1060   32.6360 H   0  0  0  0  0  0  0  0  0  0  0  0
   36.4420   24.0440   31.7910 C   0  0  0  0  0  0  0  0  0  0  0  0
   35.5060   24.6860   30.9960 C   0  0  0  0  0  0  0  0  0  0  0  0
   35.3220   26.0470   31.0570 C   0  0  0  0  0  0  0  0  0  0  0  0
   36.0570   26.7720   31.9000 N   0  0  0  0  0  0  0  0  0  0  0  0
   36.9750   26.1320   32.6800 C   0  0  0  0  0  0  0  0  0  0  0  0
   37.1690   24.8020   32.6330 N   0  0  0  0  0  0  0  0  0  0  0  0
   34.9080   24.1030   30.3100 H   0  0  0  0  0  0  0  0  0  0  0  0
   34.6000   26.5820   30.4520 H   0  0  0  0  0  0  0  0  0  0  0  0
   37.7850   26.9630   33.6140 C   0  0  0  0  0  0  0  0  0  0  0  0
   37.7810   26.4380   34.5930 H   0  0  0  0  0  0  0  0  0  0  0  0
   37.3370   27.9650   33.7680 H   0  0  0  0  0  0  0  0  0  0  0  0
   39.5660   27.1560   31.8010 C   0  0  0  0  0  3  0  0  0  0  0  0
   39.1920   27.0550   33.1390 C   0  0  0  0  0  0  0  0  0  0  0  0
   40.2070   27.0380   34.0950 C   0  0  0  0  0  0  0  0  0  0  0  0
   39.9200   26.9590   35.1520 H   0  0  0  0  0  0  0  0  0  0  0  0
   41.5390   27.1180   33.7650 C   0  0  0  0  0  0  0  0  0  0  0  0
   42.6770   27.1240   34.4580 N   0  0  0  0  0  0  0  0  0  0  0  0
   43.7460   27.2220   33.6580 C   0  0  0  0  0  0  0  0  0  0  0  0
   44.7750   27.2450   34.0190 H   0  0  0  0  0  0  0  0  0  0  0  0
   43.2700   27.2830   32.3810 N   0  0  0  0  0  0  0  0  0  0  0  0
   41.9230   27.2200   32.4260 C   0  0  0  0  0  0  0  0  0  0  0  0
   40.8980   27.2340   31.5010 C   0  0  0  0  0  3  0  0  0  0  0  0
   42.6640   27.0560   35.5080 H   0  0  0  0  0  0  0  0  0  0  0  0
   37.9030   22.1590   31.0870 C   0  0  0  0  0  0  0  0  0  0  0  0
   38.4750   22.9780   30.6330 H   0  0  0  0  0  0  0  0  0  0  0  0
   37.6950   21.4380   30.2700 H   0  0  0  0  0  0  0  0  0  0  0  0
   38.6690   21.4480   32.0480 O   0  0  0  0  0  0  0  0  0  0  0  0
   41.6660   23.1030   33.1980 C   0  0  0  0  0  0  0  0  0  0  0  0
   41.2460   23.4850   34.4900 C   0  0  0  0  0  0  0  0  0  0  0  0
   39.9650   23.1530   34.8890 C   0  0  0  0  0  0  0  0  0  0  0  0
   39.2080   22.4720   33.9760 N   0  0  0  0  0  0  0  0  0  0  0  0
   39.6130   22.1150   32.7560 C   0  0  0  0  0  0  0  0  0  0  0  0
   40.8590   22.4390   32.3730 N   0  0  0  0  0  0  0  0  0  0  0  0
   42.6720   23.3780   32.9200 H   0  0  0  0  0  0  0  0  0  0  0  0
   41.8350   24.0160   35.2040 H   0  0  0  0  0  0  0  0  0  0  0  0
   40.4750   21.9000   37.4430 F   0  0  0  0  0  0  0  0  0  0  0  0
   39.5940   22.8970   37.3660 C   0  0  0  0  0  0  0  0  0  0  0  0
   39.3730   23.4640   36.1710 C   0  0  0  0  0  0  0  0  0  0  0  0
   38.4350   24.4950   36.2020 C   0  0  0  0  0  0  0  0  0  0  0  0
   37.8010   24.8920   37.3440 C   0  0  0  0  0  0  0  0  0  0  0  0
   38.0660   24.2720   38.5460 C   0  0  0  0  0  0  0  0  0  0  0  0
   38.9800   23.2610   38.5390 C   0  0  0  0  0  0  0  0  0  0  0  0
   38.1390   25.0660   35.3100 H   0  0  0  0  0  0  0  0  0  0  0  0
   37.0680   25.6960   37.3710 H   0  0  0  0  0  0  0  0  0  0  0  0
   37.5590   24.5880   39.4590 H   0  0  0  0  0  0  0  0  0  0  0  0
   39.2000   22.7650   39.4770 H   0  0  0  0  0  0  0  0  0  0  0  0
  1  4  1  0  0  0  0
  1  3  1  0  0  0  0
  2  1  1  0  0  0  0
  4  9  1  0  0  0  0
  5  6  1  0  0  0  0
  5  4  2  0  0  0  0
  6  7  2  0  0  0  0
  7  8  1  0  0  0  0
  8 12  1  0  0  0  0
  9  8  2  0  0  0  0
 10  5  1  0  0  0  0
 11  6  1  0  0  0  0
 12 14  1  0  0  0  0
 12 13  1  0  0  0  0
 15 16  1  0  0  0  0
 16 12  1  0  0  0  0
 16 17  2  0  0  0  0
 17 18  1  0  0  0  0
 19 17  1  0  0  0  0
 19 20  1  0  0  0  0
 20 26  1  0  0  0  0
 21 22  1  0  0  0  0
 21 20  1  0  0  0  0
 23 24  1  0  0  0  0
 23 21  2  0  0  0  0
 24 19  2  0  0  0  0
 25 15  2  0  0  0  0
 25 24  1  0  0  0  0
 27  1  1  0  0  0  0
 27 30  1  0  0  0  0
 28 27  1  0  0  0  0
 29 27  1  0  0  0  0
 30 35  1  0  0  0  0
 31 32  1  0  0  0  0
 32 33  2  0  0  0  0
 32 38  1  0  0  0  0
 33 41  1  0  0  0  0
 34 33  1  0  0  0  0
 35 34  2  0  0  0  0
 36 35  1  0  0  0  0
 36 31  2  0  0  0  0
 37 31  1  0  0  0  0
 40 39  1  0  0  0  0
 40 45  1  0  0  0  0
 41 42  1  0  0  0  0
 41 40  2  0  0  0  0
 42 43  2  0  0  0  0
 43 47  1  0  0  0  0
 43 44  1  0  0  0  0
 44 48  1  0  0  0  0
 45 44  2  0  0  0  0
 45 49  1  0  0  0  0
 46 42  1  0  0  0  0
M  END
>  <minimizedAffinity>
-6.38827324

$$$$

 OpenBabel03272509593D

 49 53  0  0  0  0  0  0  0  0999 V2000
   35.5220   28.1240   31.8830 C   0  0  0  0  0  0  0  0  0  0  0  0
   35.1640   27.2940   32.5550 H   0  0  0  0  0  0  0  0  0  0  0  0
   34.9700   28.0090   30.9500 H   0  0  0  0  0  0  0  0  0  0  0  0
   36.9710   27.9070   31.6280 C   0  0  0  0  0  0  0  0  0  0  0  0
   37.4320   28.0620   30.3310 C   0  0  0  0  0  0  0  0  0  0  0  0
   38.7580   27.8780   30.0120 C   0  0  0  0  0  0  0  0  0  0  0  0
   39.6230   27.5440   30.9690 N   0  0  0  0  0  0  0  0  0  0  0  0
   39.1590   27.3940   32.2430 C   0  0  0  0  0  0  0  0  0  0  0  0
   37.8680   27.5690   32.5730 N   0  0  0  0  0  0  0  0  0  0  0  0
   36.7350   28.3320   29.5510 H   0  0  0  0  0  0  0  0  0  0  0  0
   39.1540   27.9920   29.0110 H   0  0  0  0  0  0  0  0  0  0  0  0
   40.1450   27.0200   33.2960 C   0  0  0  0  0  0  0  0  0  0  0  0
   40.6260   27.9630   33.6320 H   0  0  0  0  0  0  0  0  0  0  0  0
   40.9420   26.3600   32.8980 H   0  0  0  0  0  0  0  0  0  0  0  0
   38.9930   27.1180   35.5670 C   0  0  0  0  0  3  0  0  0  0  0  0
   39.4510   26.4070   34.4610 C   0  0  0  0  0  0  0  0  0  0  0  0
   39.2450   25.0280   34.4470 C   0  0  0  0  0  0  0  0  0  0  0  0
   39.6030   24.4610   33.5770 H   0  0  0  0  0  0  0  0  0  0  0  0
   38.6150   24.3620   35.4700 C   0  0  0  0  0  0  0  0  0  0  0  0
   38.2970   23.0880   35.7040 N   0  0  0  0  0  0  0  0  0  0  0  0
   37.6700   22.9400   36.8770 C   0  0  0  0  0  0  0  0  0  0  0  0
   37.3220   21.9810   37.2630 H   0  0  0  0  0  0  0  0  0  0  0  0
   37.5790   24.1840   37.4290 N   0  0  0  0  0  0  0  0  0  0  0  0
   38.1520   25.0660   36.5840 C   0  0  0  0  0  0  0  0  0  0  0  0
   38.3700   26.4300   36.5710 C   0  0  0  0  0  3  0  0  0  0  0  0
   38.5400   22.3400   35.0050 H   0  0  0  0  0  0  0  0  0  0  0  0
   35.2380   29.4730   32.4810 C   0  0  0  0  0  0  0  0  0  0  0  0
   36.1330   30.0460   32.7580 H   0  0  0  0  0  0  0  0  0  0  0  0
   34.6810   29.2980   33.4250 H   0  0  0  0  0  0  0  0  0  0  0  0
   34.3670   30.2230   31.6470 O   0  0  0  0  0  0  0  0  0  0  0  0
   30.9790   31.4000   32.0610 C   0  0  0  0  0  0  0  0  0  0  0  0
   30.6350   30.7220   33.2500 C   0  0  0  0  0  0  0  0  0  0  0  0
   31.5820   29.9050   33.8380 C   0  0  0  0  0  0  0  0  0  0  0  0
   32.7890   29.8270   33.1980 N   0  0  0  0  0  0  0  0  0  0  0  0
   33.1060   30.4720   32.0740 C   0  0  0  0  0  0  0  0  0  0  0  0
   32.1820   31.2650   31.5070 N   0  0  0  0  0  0  0  0  0  0  0  0
   30.2150   32.0300   31.6310 H   0  0  0  0  0  0  0  0  0  0  0  0
   29.6940   30.7820   33.7510 H   0  0  0  0  0  0  0  0  0  0  0  0
   30.6400   27.1860   34.1110 F   0  0  0  0  0  0  0  0  0  0  0  0
   30.9670   27.8800   35.2010 C   0  0  0  0  0  0  0  0  0  0  0  0
   31.4010   29.1400   35.0510 C   0  0  0  0  0  0  0  0  0  0  0  0
   31.7150   29.7740   36.2520 C   0  0  0  0  0  0  0  0  0  0  0  0
   31.5920   29.1680   37.4700 C   0  0  0  0  0  0  0  0  0  0  0  0
   31.1390   27.8710   37.5650 C   0  0  0  0  0  0  0  0  0  0  0  0
   30.8260   27.2310   36.4030 C   0  0  0  0  0  0  0  0  0  0  0  0
   32.0860   30.8080   36.3080 H   0  0  0  0  0  0  0  0  0  0  0  0
   31.8360   29.6610   38.4090 H   0  0  0  0  0  0  0  0  0  0  0  0
   31.0400   27.3860   38.5370 H   0  0  0  0  0  0  0  0  0  0  0  0
   30.4700   26.2090   36.4620 H   0  0  0  0  0  0  0  0  0  0  0  0
  1 27  1  0  0  0  0
  1  2  1  0  0  0  0
  3  1  1  0  0  0  0
  4  1  1  0  0  0  0
  4  9  1  0  0  0  0
  5  4  2  0  0  0  0
  6  5  1  0  0  0  0
  6  7  2  0  0  0  0
  7  8  1  0  0  0  0
  8  9  2  0  0  0  0
  8 12  1  0  0  0  0
 10  5  1  0  0  0  0
 11  6  1  0  0  0  0
 12 13  1  0  0  0  0
 12 16  1  0  0  0  0
 14 12  1  0  0  0  0
 15 25  1  0  0  0  0
 16 15  2  0  0  0  0
 17 16  1  0  0  0  0
 17 19  2  0  0  0  0
 18 17  1  0  0  0  0
 19 20  1  0  0  0  0
 19 24  1  0  0  0  0
 20 21  1  0  0  0  0
 21 22  1  0  0  0  0
 21 23  2  0  0  0  0
 24 23  1  0  0  0  0
 25 24  2  0  0  0  0
 26 20  1  0  0  0  0
 27 28  1  0  0  0  0
 27 29  1  0  0  0  0
 30 35  1  0  0  0  0
 30 27  1  0  0  0  0
 31 32  1  0  0  0  0
 32 38  1  0  0  0  0
 32 33  2  0  0  0  0
 33 41  1  0  0  0  0
 34 33  1  0  0  0  0
 35 34  2  0  0  0  0
 36 31  2  0  0  0  0
 36 35  1  0  0  0  0
 37 31  1  0  0  0  0
 39 40  1  0  0  0  0
 40 45  1  0  0  0  0
 41 40  2  0  0  0  0
 41 42  1  0  0  0  0
 42 46  1  0  0  0  0
 42 43  2  0  0  0  0
 43 44  1  0  0  0  0
 43 47  1  0  0  0  0
 44 48  1  0  0  0  0
 45 49  1  0  0  0  0
 45 44  2  0  0  0  0
M  END
>  <minimizedAffinity>
-6.24863482

$$$$
