
 OpenBabel03262522243D

 38 41  0  0  0  0  0  0  0  0999 V2000
   38.2080   30.5520   49.5190 C   0  0  0  0  0  0  0  0  0  0  0  0
   38.0400   31.2010   48.2780 C   0  0  0  0  0  0  0  0  0  0  0  0
   36.9240   30.8940   47.5260 C   0  0  0  0  0  0  0  0  0  0  0  0
   36.0590   29.9900   48.0240 N   0  0  0  0  0  0  0  0  0  0  0  0
   36.2390   29.3990   49.1810 C   0  0  0  0  0  0  0  0  0  0  0  0
   37.3320   29.6590   49.9840 N   0  0  0  0  0  0  0  0  0  0  0  0
   39.0640   30.7500   50.1560 H   0  0  0  0  0  0  0  0  0  0  0  0
   36.8290   31.4020   46.5970 H   0  0  0  0  0  0  0  0  0  0  0  0
   39.0350   32.0870   47.9560 O   0  0  0  0  0  0  0  0  0  0  0  0
   39.5690   32.0100   46.6550 C   0  0  0  0  0  0  0  0  0  0  0  0
   40.0170   30.8880   45.9850 C   0  0  0  0  0  0  0  0  0  0  0  0
   40.5000   31.0100   44.7320 C   0  0  0  0  0  0  0  0  0  0  0  0
   40.5320   32.2490   44.1600 C   0  0  0  0  0  0  0  0  0  0  0  0
   40.0850   33.3700   44.8260 C   0  0  0  0  0  0  0  0  0  0  0  0
   39.6100   33.2090   46.0750 N   0  0  0  0  0  0  0  0  0  0  0  0
   39.9270   29.9690   46.5760 H   0  0  0  0  0  0  0  0  0  0  0  0
   40.8430   30.1040   44.2400 H   0  0  0  0  0  0  0  0  0  0  0  0
   40.9200   32.3680   43.1440 H   0  0  0  0  0  0  0  0  0  0  0  0
   40.1310   34.7270   44.1680 C   0  0  0  0  0  0  0  0  0  0  0  0
   40.7410   34.6240   43.2480 H   0  0  0  0  0  0  0  0  0  0  0  0
   40.6930   35.4570   44.8140 H   0  0  0  0  0  0  0  0  0  0  0  0
   39.1040   35.0790   43.9840 H   0  0  0  0  0  0  0  0  0  0  0  0
   34.9000   28.2370   49.5640 S   0  0  0  0  0  0  0  0  0  0  0  0
   33.3960   29.0550   48.9040 C   0  0  0  0  0  0  0  0  0  0  0  0
   33.2350   30.0410   49.3550 H   0  0  0  0  0  0  0  0  0  0  0  0
   32.5470   28.3730   49.1600 H   0  0  0  0  0  0  0  0  0  0  0  0
   33.7610   27.9270   46.7130 C   0  0  0  0  0  0  0  0  0  0  0  0
   33.4850   29.0760   47.4270 C   0  0  0  0  0  0  0  0  0  0  0  0
   33.3070   30.1960   46.6430 C   0  0  0  0  0  0  0  0  0  0  0  0
   33.0850   31.1370   47.1370 H   0  0  0  0  0  0  0  0  0  0  0  0
   33.3950   30.1970   45.2690 C   0  0  0  0  0  0  0  0  0  0  0  0
   33.2520   31.1940   44.3630 N   0  0  0  0  0  0  0  0  0  0  0  0
   33.4500   30.6000   43.1480 C   0  0  0  0  0  0  0  0  0  0  0  0
   33.4290   31.0140   42.1480 H   0  0  0  0  0  0  0  0  0  0  0  0
   33.7000   29.2980   43.3420 N   0  0  0  0  0  0  0  0  0  0  0  0
   33.6750   29.0040   44.6530 C   0  0  0  0  0  0  0  0  0  0  0  0
   33.8730   27.8080   45.3430 C   0  0  0  0  0  0  0  0  0  0  0  0
   33.0420   32.1930   44.4910 H   0  0  0  0  0  0  0  0  0  0  0  0
  1  6  1  0  0  0  0
  1  7  1  0  0  0  0
  2  1  2  0  0  0  0
  3  4  2  0  0  0  0
  3  2  1  0  0  0  0
  4  5  1  0  0  0  0
  5 23  1  0  0  0  0
  5  6  2  0  0  0  0
  8  3  1  0  0  0  0
  9  2  1  0  0  0  0
 10  9  1  0  0  0  0
 11 16  1  0  0  0  0
 11 10  2  0  0  0  0
 12 11  1  0  0  0  0
 13 12  2  0  0  0  0
 13 14  1  0  0  0  0
 14 15  2  0  0  0  0
 15 10  1  0  0  0  0
 17 12  1  0  0  0  0
 18 13  1  0  0  0  0
 19 21  1  0  0  0  0
 19 14  1  0  0  0  0
 20 19  1  0  0  0  0
 22 19  1  0  0  0  0
 24 26  1  0  0  0  0
 24 25  1  0  0  0  0
 24 23  1  0  0  0  0
 27 28  1  0  0  0  0
 28 24  1  0  0  0  0
 29 30  1  0  0  0  0
 29 28  2  0  0  0  0
 31 29  1  0  0  0  0
 32 38  1  0  0  0  0
 32 31  1  0  0  0  0
 33 35  2  0  0  0  0
 33 32  1  0  0  0  0
 34 33  1  0  0  0  0
 35 36  1  0  0  0  0
 36 31  2  0  0  0  0
 36 37  1  0  0  0  0
 37 27  2  0  0  0  0
M  END
>  <minimizedAffinity>
-4.77748537

>  <minimizedRMSD>
3.18896532

$$$$
