
     RDKit          3D

 38 41  0  0  0  0  0  0  0  0999 V2000
   37.9913   31.3922   47.6386 C   0  0  0  0  0  0  0  0  0  0  0  0
   37.0719   31.3200   48.6687 C   0  0  0  0  0  0  0  0  0  0  0  0
   37.1966   32.3525   49.6155 C   0  0  0  0  0  0  0  0  0  0  0  0
   38.1744   33.3520   49.5002 C   0  0  0  0  0  0  0  0  0  0  0  0
   39.0598   33.3256   48.4064 C   0  0  0  0  0  0  0  0  0  0  0  0
   38.9520   32.3144   47.4621 C   0  0  0  0  0  0  0  0  0  0  0  0
   34.9396   30.3496   47.9865 C   0  0  0  0  0  0  0  0  0  0  0  0
   36.0779   30.3092   48.7913 C   0  0  0  0  0  0  0  0  0  0  0  0
   36.1912   29.2518   49.7023 C   0  0  0  0  0  0  0  0  0  0  0  0
   35.1981   28.3323   49.7534 N   0  0  0  0  0  0  0  0  0  0  0  0
   34.1031   28.4119   48.9472 C   0  0  0  0  0  0  0  0  0  0  0  0
   33.9806   29.4143   48.0733 N   0  0  0  0  0  0  0  0  0  0  0  0
   37.3820   29.1574   50.5852 C   0  0  0  0  0  0  0  0  0  0  0  0
   37.9465   30.4045   46.6422 O   0  0  0  0  0  0  0  0  0  0  0  0
   39.8507   32.3561   46.4242 O   0  0  0  0  0  0  0  0  0  0  0  0
   36.5180   32.3688   50.4496 H   0  0  0  0  0  0  0  0  0  0  0  0
   38.2320   34.1253   50.2523 H   0  0  0  0  0  0  0  0  0  0  0  0
   39.8078   34.1079   48.3371 H   0  0  0  0  0  0  0  0  0  0  0  0
   34.8275   31.1589   47.2719 H   0  0  0  0  0  0  0  0  0  0  0  0
   33.3648   27.6268   49.0654 H   0  0  0  0  0  0  0  0  0  0  0  0
   38.3255   29.3259   50.0026 H   0  0  0  0  0  0  0  0  0  0  0  0
   37.3175   30.0178   51.2945 H   0  0  0  0  0  0  0  0  0  0  0  0
   37.3847   28.1844   51.0842 H   0  0  0  0  0  0  0  0  0  0  0  0
   37.8454   29.4198   46.8694 H   0  0  0  0  0  0  0  0  0  0  0  0
   41.6808   30.7032   46.8487 C   0  0  0  0  0  0  0  0  0  0  0  0
   40.7783   31.4124   46.0846 C   0  0  0  0  0  0  0  0  0  0  0  0
   40.7498   31.1755   44.7051 C   0  0  0  0  0  0  0  0  0  0  0  0
   40.1031   31.6482   43.9720 H   0  0  0  0  0  0  0  0  0  0  0  0
   41.6101   30.2458   44.1083 C   0  0  0  0  0  0  0  0  0  0  0  0
   41.8239   29.8037   42.8566 N   0  0  0  0  0  0  0  0  0  0  0  0
   42.7975   28.8783   42.8439 C   0  0  0  0  0  0  0  0  0  0  0  0
   43.1755   28.3531   41.9723 H   0  0  0  0  0  0  0  0  0  0  0  0
   43.2113   28.7321   44.1299 N   0  0  0  0  0  0  0  0  0  0  0  0
   42.4931   29.5640   44.9195 C   0  0  0  0  0  0  0  0  0  0  0  0
   42.5369   29.7829   46.2808 C   0  0  0  0  0  0  0  0  0  0  0  0
   41.6276   30.9548   47.8878 H   0  0  0  0  0  0  0  0  0  0  0  0
   41.3030   30.1357   42.0114 H   0  0  0  0  0  0  0  0  0  0  0  0
   43.2054   29.2774   46.9505 H   0  0  0  0  0  0  0  0  0  0  0  0
  1  2  2  0
  2  8  1  0
  2  3  1  0
  4  3  2  0
  5  4  1  0
  6  1  1  0
  6  5  2  0
  7 12  2  0
  7  8  1  0
  8  9  2  0
  9 10  1  0
  9 13  1  0
 11 10  2  0
 12 11  1  0
 14  1  1  0
 15  6  1  0
  3 16  1  0
  4 17  1  0
  5 18  1  0
  7 19  1  0
 11 20  1  0
 13 21  1  0
 13 22  1  0
 13 23  1  0
 14 24  1  0
 25 26  2  0
 26 27  1  0
 27 28  1  0
 27 29  2  0
 29 30  1  0
 30 31  1  0
 31 32  1  0
 31 33  2  0
 33 34  1  0
 34 35  2  0
 35 25  1  0
 34 29  1  0
 25 36  1  0
 30 37  1  0
 35 38  1  0
 15 26  1  0
M  ISO  8  16  14  17  14  18  14  19  14  20  14  21   8  22   8  23   8
M  ISO  3  24   3  28  15  32  14
M  END
>  <DihAtoms>  (1) 
5,14,25,24

>  <DihDeg>  (1) 
-1.1999792417454458

$$$$
