
 OpenBabel03272509243D

 27 29  0  0  0  0  0  0  0  0999 V2000
   38.5250   31.8260   47.7640 C   0  0  0  0  0  0  0  0  0  0  0  0
   37.8220   32.5250   48.2220 H   0  0  0  0  0  0  0  0  0  0  0  0
   39.5300   31.7980   48.2320 H   0  0  0  0  0  0  0  0  0  0  0  0
   39.9290   32.8520   45.9910 C   0  0  0  0  0  0  0  0  0  0  0  0
   38.7200   32.2480   46.3380 C   0  0  0  0  0  0  0  0  0  0  0  0
   37.8080   32.1020   45.3110 C   0  0  0  0  0  0  0  0  0  0  0  0
   36.8730   31.6350   45.5820 H   0  0  0  0  0  0  0  0  0  0  0  0
   38.1200   32.5360   44.0520 C   0  0  0  0  0  0  0  0  0  0  0  0
   37.4090   32.5050   42.8990 N   0  0  0  0  0  0  0  0  0  0  0  0
   38.1550   33.0620   41.9050 C   0  0  0  0  0  0  0  0  0  0  0  0
   37.8860   33.1960   40.8600 H   0  0  0  0  0  0  0  0  0  0  0  0
   39.3380   33.4470   42.4280 N   0  0  0  0  0  0  0  0  0  0  0  0
   39.3250   33.1290   43.7390 C   0  0  0  0  0  0  0  0  0  0  0  0
   40.2680   33.2980   44.7310 C   0  0  0  0  0  0  0  0  0  0  0  0
   36.4390   32.1180   42.7720 H   0  0  0  0  0  0  0  0  0  0  0  0
   37.8950   30.4400   47.7470 C   0  0  0  0  0  0  0  0  0  0  0  0
   38.6990   29.6790   47.5440 H   0  0  0  0  0  0  0  0  0  0  0  0
   37.1010   30.4120   46.9960 H   0  0  0  0  0  0  0  0  0  0  0  0
   37.2960   30.1330   51.4900 C   0  0  0  0  0  0  0  0  0  0  0  0
   37.9010   30.4630   50.2780 C   0  0  0  0  0  0  0  0  0  0  0  0
   37.3100   30.1220   49.0730 C   0  0  0  0  0  0  0  0  0  0  0  0
   36.1270   29.4580   49.1450 N   0  0  0  0  0  0  0  0  0  0  0  0
   35.5440   29.1400   50.3240 C   0  0  0  0  0  0  0  0  0  0  0  0
   36.1310   29.4790   51.4930 N   0  0  0  0  0  0  0  0  0  0  0  0
   37.8250   30.4370   52.3950 H   0  0  0  0  0  0  0  0  0  0  0  0
   38.8420   30.9900   50.2780 H   0  0  0  0  0  0  0  0  0  0  0  0
   34.5980   28.6100   50.3050 H   0  0  0  0  0  0  0  0  0  0  0  0
  1  2  1  0  0  0  0
  1  3  1  0  0  0  0
  4  5  1  0  0  0  0
  5  1  1  0  0  0  0
  6  7  1  0  0  0  0
  6  5  2  0  0  0  0
  8  6  1  0  0  0  0
  9  8  1  0  0  0  0
 10 12  2  0  0  0  0
 10  9  1  0  0  0  0
 11 10  1  0  0  0  0
 12 13  1  0  0  0  0
 13  8  2  0  0  0  0
 13 14  1  0  0  0  0
 14  4  2  0  0  0  0
 15  9  1  0  0  0  0
 16  1  1  0  0  0  0
 16 21  1  0  0  0  0
 17 16  1  0  0  0  0
 18 16  1  0  0  0  0
 19 24  1  0  0  0  0
 19 25  1  0  0  0  0
 20 26  1  0  0  0  0
 20 19  2  0  0  0  0
 21 22  2  0  0  0  0
 21 20  1  0  0  0  0
 22 23  1  0  0  0  0
 23 24  2  0  0  0  0
 27 23  1  0  0  0  0
M  END
>  <minimizedAffinity>
-5.7495923

>  <minimizedRMSD>
1.70556223

$$$$
