
 OpenBabel03272506323D

 43 46  0  0  1  0  0  0  0  0999 V2000
   35.2650   30.5030   48.9080 C   0  0  1  0  0  0  0  0  0  0  0  0
   34.9080   30.1900   50.2750 C   0  0  0  0  0  0  0  0  0  0  0  0
   35.6440   29.0430   50.9340 C   0  0  0  0  0  0  0  0  0  0  0  0
   37.0920   28.9260   50.5830 C   0  0  0  0  0  0  0  0  0  0  0  0
   37.4920   29.2730   49.1970 C   0  0  0  0  0  0  0  0  0  0  0  0
   36.7550   30.4450   48.6640 C   0  0  2  0  0  0  0  0  0  0  0  0
   35.0320   31.5950   48.7060 H   0  0  0  0  0  0  0  0  0  0  0  0
   33.8570   30.0700   50.5190 H   0  0  0  0  0  0  0  0  0  0  0  0
   35.2260   31.0790   50.9020 H   0  0  0  0  0  0  0  0  0  0  0  0
   35.1490   28.0740   50.6870 H   0  0  0  0  0  0  0  0  0  0  0  0
   35.5640   29.1400   52.0360 H   0  0  0  0  0  0  0  0  0  0  0  0
   37.7010   29.5110   51.3190 H   0  0  0  0  0  0  0  0  0  0  0  0
   37.3980   27.8700   50.7600 H   0  0  0  0  0  0  0  0  0  0  0  0
   37.4440   28.4200   48.4750 H   0  0  0  0  0  0  0  0  0  0  0  0
   38.5660   29.5560   49.2160 H   0  0  0  0  0  0  0  0  0  0  0  0
   37.0310   30.5890   47.6210 H   0  0  0  0  0  0  0  0  0  0  0  0
   33.4440   28.8960   48.1070 C   0  0  0  0  0  0  0  0  0  0  0  0
   34.5160   29.8060   47.8480 C   0  0  0  0  0  0  0  0  0  0  0  0
   34.8220   29.9970   46.5100 C   0  0  0  0  0  0  0  0  0  0  0  0
   34.1140   29.3330   45.5470 N   0  0  0  0  0  0  0  0  0  0  0  0
   33.1180   28.4900   45.8510 C   0  0  0  0  0  0  0  0  0  0  0  0
   32.7820   28.2720   47.1520 N   0  0  0  0  0  0  0  0  0  0  0  0
   33.1820   28.7260   49.1440 H   0  0  0  0  0  0  0  0  0  0  0  0
   35.6040   30.6560   46.1800 H   0  0  0  0  0  0  0  0  0  0  0  0
   32.6320   28.0230   45.0080 H   0  0  0  0  0  0  0  0  0  0  0  0
   37.3150   31.6520   49.4640 C   0  0  0  0  0  0  0  0  0  0  0  0
   36.5260   32.4490   49.5500 H   0  0  0  0  0  0  0  0  0  0  0  0
   37.6590   31.3550   50.4560 H   0  0  0  0  0  0  0  0  0  0  0  0
   38.4290   32.3300   48.6600 C   0  0  0  0  0  0  0  0  0  0  0  0
   37.9790   32.6950   47.7070 H   0  0  0  0  0  0  0  0  0  0  0  0
   39.2120   31.5790   48.4890 H   0  0  0  0  0  0  0  0  0  0  0  0
   38.6440   33.8330   50.7240 C   0  0  0  0  0  3  0  0  0  0  0  0
   38.9870   33.4630   49.4400 C   0  0  0  0  0  0  0  0  0  0  0  0
   39.9550   34.2370   48.8230 C   0  0  0  0  0  0  0  0  0  0  0  0
   40.2720   33.9940   47.8050 H   0  0  0  0  0  0  0  0  0  0  0  0
   40.5930   35.3280   49.3800 C   0  0  0  0  0  0  0  0  0  0  0  0
   41.5230   36.1800   48.9660 N   0  0  0  0  0  0  0  0  0  0  0  0
   41.7420   37.0460   49.9690 C   0  0  0  0  0  0  0  0  0  0  0  0
   42.4760   37.8380   49.8410 H   0  0  0  0  0  0  0  0  0  0  0  0
   40.9390   36.7240   51.0070 N   0  0  0  0  0  0  0  0  0  0  0  0
   40.2120   35.6560   50.6660 C   0  0  0  0  0  0  0  0  0  0  0  0
   39.2430   34.9150   51.3360 C   0  0  0  0  0  3  0  0  0  0  0  0
   41.9750   36.1420   48.0230 H   0  0  0  0  0  0  0  0  0  0  0  0
  1  7  1  6  0  0  0
  1  2  1  0  0  0  0
  2  8  1  0  0  0  0
  2  9  1  0  0  0  0
  2  3  1  0  0  0  0
  3 11  1  0  0  0  0
  4 13  1  0  0  0  0
  4  3  1  0  0  0  0
  4 12  1  0  0  0  0
  5 15  1  0  0  0  0
  5  4  1  0  0  0  0
  6 16  1  6  0  0  0
  6  1  1  0  0  0  0
  6  5  1  0  0  0  0
  6 26  1  0  0  0  0
 10  3  1  0  0  0  0
 14  5  1  0  0  0  0
 17 23  1  0  0  0  0
 18 17  1  0  0  0  0
 18  1  1  0  0  0  0
 19 18  2  0  0  0  0
 20 21  2  0  0  0  0
 20 19  1  0  0  0  0
 21 22  1  0  0  0  0
 22 17  2  0  0  0  0
 24 19  1  0  0  0  0
 25 21  1  0  0  0  0
 26 27  1  0  0  0  0
 26 28  1  0  0  0  0
 29 33  1  0  0  0  0
 29 26  1  0  0  0  0
 30 29  1  0  0  0  0
 31 29  1  0  0  0  0
 32 42  1  0  0  0  0
 33 32  2  0  0  0  0
 34 36  2  0  0  0  0
 34 33  1  0  0  0  0
 35 34  1  0  0  0  0
 36 41  1  0  0  0  0
 37 36  1  0  0  0  0
 37 38  1  0  0  0  0
 38 40  2  0  0  0  0
 39 38  1  0  0  0  0
 41 40  1  0  0  0  0
 41 42  2  0  0  0  0
 43 37  1  0  0  0  0
M  END
>  <minimizedAffinity>
13.9212427

>  <minimizedRMSD>
1.29663408

$$$$
