
 OpenBabel03272510123D

 38 42  0  0  0  0  0  0  0  0999 V2000
   36.6850   29.3500   49.9270 O   0  0  0  0  0  0  0  0  0  0  0  0
   32.7030   28.1870   49.1790 C   0  0  0  0  0  0  0  0  0  0  0  0
   33.0000   29.1020   50.1270 C   0  0  0  0  0  0  0  0  0  0  0  0
   34.2750   29.5300   50.4260 C   0  0  0  0  0  0  0  0  0  0  0  0
   35.3380   29.0300   49.7510 C   0  0  0  0  0  0  0  0  0  0  0  0
   35.0400   28.0800   48.7650 C   0  0  0  0  0  0  0  0  0  0  0  0
   33.7750   27.6930   48.5090 N   0  0  0  0  0  0  0  0  0  0  0  0
   32.2120   29.5540   50.7150 H   0  0  0  0  0  0  0  0  0  0  0  0
   34.4970   30.2650   51.1900 H   0  0  0  0  0  0  0  0  0  0  0  0
   35.8250   27.6220   48.1740 H   0  0  0  0  0  0  0  0  0  0  0  0
   30.2730   27.8690   49.7180 C   0  0  0  0  0  0  0  0  0  0  0  0
   31.3770   27.7350   48.8600 C   0  0  0  0  0  0  0  0  0  0  0  0
   31.1140   27.1290   47.6610 C   0  0  0  0  0  0  0  0  0  0  0  0
   29.8680   26.6930   47.3340 N   0  0  0  0  0  0  0  0  0  0  0  0
   28.8460   26.8600   48.2220 C   0  0  0  0  0  0  0  0  0  0  0  0
   29.0380   27.4510   49.4250 N   0  0  0  0  0  0  0  0  0  0  0  0
   30.4280   28.3410   50.6780 H   0  0  0  0  0  0  0  0  0  0  0  0
   31.9340   27.0060   46.9730 H   0  0  0  0  0  0  0  0  0  0  0  0
   27.8320   26.5360   48.0230 H   0  0  0  0  0  0  0  0  0  0  0  0
   37.3340   30.2430   49.0880 C   0  0  0  0  0  0  0  0  0  0  0  0
   38.0460   31.2390   49.7640 C   0  0  0  0  0  0  0  0  0  0  0  0
   38.6500   32.0690   48.8220 C   0  0  0  0  0  0  0  0  0  0  0  0
   38.2870   31.5530   47.6380 N   0  0  0  0  0  0  0  0  0  0  0  0
   37.5260   30.4970   47.7790 N   0  0  0  0  0  0  0  0  0  0  0  0
   38.2200   31.4900   50.8230 H   0  0  0  0  0  0  0  0  0  0  0  0
   39.2780   32.9420   48.9340 H   0  0  0  0  0  0  0  0  0  0  0  0
   39.8970   32.6900   46.1900 C   0  0  0  0  0  0  0  0  0  0  0  0
   38.6720   32.0740   46.3650 C   0  0  0  0  0  0  0  0  0  0  0  0
   37.7750   31.9450   45.2970 C   0  0  0  0  0  0  0  0  0  0  0  0
   36.8060   31.4720   45.3870 H   0  0  0  0  0  0  0  0  0  0  0  0
   38.1990   32.4720   44.0710 C   0  0  0  0  0  0  0  0  0  0  0  0
   37.5450   32.4870   42.8950 N   0  0  0  0  0  0  0  0  0  0  0  0
   38.3720   33.1020   42.0330 C   0  0  0  0  0  0  0  0  0  0  0  0
   38.2510   33.3320   40.9690 H   0  0  0  0  0  0  0  0  0  0  0  0
   39.5130   33.4750   42.6110 N   0  0  0  0  0  0  0  0  0  0  0  0
   39.4230   33.0840   43.9090 C   0  0  0  0  0  0  0  0  0  0  0  0
   40.2880   33.2000   44.9680 C   0  0  0  0  0  0  0  0  0  0  0  0
   36.6040   32.1210   42.6270 H   0  0  0  0  0  0  0  0  0  0  0  0
  2  3  1  0  0  0  0
  3  4  2  0  0  0  0
  3  8  1  0  0  0  0
  4  9  1  0  0  0  0
  5  1  1  0  0  0  0
  5  4  1  0  0  0  0
  6  5  2  0  0  0  0
  7  6  1  0  0  0  0
  7  2  2  0  0  0  0
 10  6  1  0  0  0  0
 11 17  1  0  0  0  0
 12  2  1  0  0  0  0
 12 11  2  0  0  0  0
 13 12  1  0  0  0  0
 14 13  2  0  0  0  0
 14 15  1  0  0  0  0
 15 16  2  0  0  0  0
 16 11  1  0  0  0  0
 18 13  1  0  0  0  0
 19 15  1  0  0  0  0
 20 21  1  0  0  0  0
 20  1  1  0  0  0  0
 21 25  1  0  0  0  0
 22 26  1  0  0  0  0
 22 21  2  0  0  0  0
 23 24  1  0  0  0  0
 23 22  1  0  0  0  0
 24 20  2  0  0  0  0
 27 28  1  0  0  0  0
 28 23  1  0  0  0  0
 29 30  1  0  0  0  0
 29 28  2  0  0  0  0
 31 29  1  0  0  0  0
 32 31  1  0  0  0  0
 33 35  2  0  0  0  0
 33 32  1  0  0  0  0
 34 33  1  0  0  0  0
 35 36  1  0  0  0  0
 36 31  2  0  0  0  0
 36 37  1  0  0  0  0
 37 27  2  0  0  0  0
 38 32  1  0  0  0  0
M  END
>  <minimizedAffinity>
-6.39225864

>  <minimizedRMSD>
2.30277586

$$$$
