
 OpenBabel03272508033D

 31 34  0  0  0  0  0  0  0  0999 V2000
   37.3520   26.3320   34.2470 C   0  0  0  0  0  0  0  0  0  0  0  0
   37.2130   26.5750   32.8960 C   0  0  0  0  0  0  0  0  0  0  0  0
   36.6510   27.8420   32.7070 C   0  0  0  0  0  0  0  0  0  0  0  0
   36.4690   28.3210   33.9780 N   0  0  0  0  0  0  0  0  0  0  0  0
   36.8800   27.4370   34.8650 N   0  0  0  0  0  0  0  0  0  0  0  0
   37.5100   25.8610   32.1360 H   0  0  0  0  0  0  0  0  0  0  0  0
   36.4620   28.2180   31.7260 H   0  0  0  0  0  0  0  0  0  0  0  0
   35.3550   30.3330   33.0940 C   0  0  0  0  0  3  0  0  0  0  0  0
   35.9050   29.6120   34.1240 C   0  0  0  0  0  0  0  0  0  0  0  0
   35.9540   30.1020   35.4220 C   0  0  0  0  0  0  0  0  0  0  0  0
   36.3710   29.5880   36.2730 H   0  0  0  0  0  0  0  0  0  0  0  0
   35.4360   31.3650   35.7260 C   0  0  0  0  0  0  0  0  0  0  0  0
   35.3380   32.0960   36.8590 N   0  0  0  0  0  0  0  0  0  0  0  0
   34.7290   33.2670   36.5310 C   0  0  0  0  0  0  0  0  0  0  0  0
   34.5420   34.0280   37.3040 H   0  0  0  0  0  0  0  0  0  0  0  0
   34.4540   33.2600   35.2120 N   0  0  0  0  0  0  0  0  0  0  0  0
   34.8790   32.0960   34.6830 C   0  0  0  0  0  0  0  0  0  0  0  0
   34.8500   31.5710   33.4030 C   0  0  0  0  0  3  0  0  0  0  0  0
   35.6730   31.8020   37.7990 H   0  0  0  0  0  0  0  0  0  0  0  0
   37.8950   25.1330   34.8860 C   0  0  0  0  0  0  0  0  0  0  0  0
   37.8080   25.0670   36.3120 C   0  0  0  0  0  0  0  0  0  0  0  0
   38.3300   23.9150   36.9250 C   0  0  0  0  0  0  0  0  0  0  0  0
   38.8750   22.9590   36.1310 N   0  0  0  0  0  0  0  0  0  0  0  0
   38.9380   23.0610   34.7880 C   0  0  0  0  0  0  0  0  0  0  0  0
   38.4430   24.1550   34.1860 N   0  0  0  0  0  0  0  0  0  0  0  0
   37.3560   25.8790   36.8660 H   0  0  0  0  0  0  0  0  0  0  0  0
   39.3890   22.2520   34.2270 H   0  0  0  0  0  0  0  0  0  0  0  0
   38.2600   23.8050   38.4040 C   0  0  0  0  0  0  0  0  0  0  0  0
   39.5100   23.3730   38.8100 F   0  0  0  0  0  0  0  0  0  0  0  0
   37.9970   25.0060   39.0200 F   0  0  0  0  0  0  0  0  0  0  0  0
   37.3320   22.8470   38.8080 F   0  0  0  0  0  0  0  0  0  0  0  0
  1  5  2  0  0  0  0
  1 20  1  0  0  0  0
  2  1  1  0  0  0  0
  3  2  2  0  0  0  0
  3  4  1  0  0  0  0
  4  9  1  0  0  0  0
  4  5  1  0  0  0  0
  6  2  1  0  0  0  0
  7  3  1  0  0  0  0
  8 18  2  0  0  0  0
  8  9  1  0  0  0  0
  9 10  2  0  0  0  0
 10 12  1  0  0  0  0
 10 11  1  0  0  0  0
 12 13  1  0  0  0  0
 13 19  1  0  0  0  0
 14 13  1  0  0  0  0
 14 15  1  0  0  0  0
 16 14  2  0  0  0  0
 17 16  1  0  0  0  0
 17 12  2  0  0  0  0
 18 17  1  0  0  0  0
 20 21  1  0  0  0  0
 21 26  1  0  0  0  0
 21 22  2  0  0  0  0
 22 28  1  0  0  0  0
 23 22  1  0  0  0  0
 24 23  2  0  0  0  0
 25 24  1  0  0  0  0
 25 20  2  0  0  0  0
 27 24  1  0  0  0  0
 28 31  1  0  0  0  0
 28 29  1  0  0  0  0
 28 30  1  0  0  0  0
M  END
>  <minimizedAffinity>
-6.43666029

$$$$

 OpenBabel03272508033D

 31 34  0  0  0  0  0  0  0  0999 V2000
   37.7810   25.8990   34.0310 C   0  0  0  0  0  0  0  0  0  0  0  0
   38.2260   26.2530   32.7740 C   0  0  0  0  0  0  0  0  0  0  0  0
   37.6120   27.4480   32.3830 C   0  0  0  0  0  0  0  0  0  0  0  0
   36.8050   27.7720   33.4420 N   0  0  0  0  0  0  0  0  0  0  0  0
   36.9110   26.8660   34.3940 N   0  0  0  0  0  0  0  0  0  0  0  0
   38.9420   25.6620   32.2150 H   0  0  0  0  0  0  0  0  0  0  0  0
   37.8250   27.8910   31.4350 H   0  0  0  0  0  0  0  0  0  0  0  0
   35.6040   29.6820   34.4330 C   0  0  0  0  0  3  0  0  0  0  0  0
   36.0350   28.9580   33.3490 C   0  0  0  0  0  0  0  0  0  0  0  0
   35.7440   29.3370   32.0460 C   0  0  0  0  0  0  0  0  0  0  0  0
   36.0520   28.8140   31.1550 H   0  0  0  0  0  0  0  0  0  0  0  0
   34.9910   30.4870   31.7910 C   0  0  0  0  0  0  0  0  0  0  0  0
   34.5560   31.1000   30.6670 N   0  0  0  0  0  0  0  0  0  0  0  0
   33.8570   32.2010   31.0530 C   0  0  0  0  0  0  0  0  0  0  0  0
   33.4040   32.8600   30.2980 H   0  0  0  0  0  0  0  0  0  0  0  0
   33.8600   32.2690   32.3980 N   0  0  0  0  0  0  0  0  0  0  0  0
   34.5540   31.2220   32.8870 C   0  0  0  0  0  0  0  0  0  0  0  0
   34.8660   30.8090   34.1710 C   0  0  0  0  0  3  0  0  0  0  0  0
   34.7330   30.7740   29.6950 H   0  0  0  0  0  0  0  0  0  0  0  0
   38.1650   24.7250   34.8140 C   0  0  0  0  0  0  0  0  0  0  0  0
   38.0180   24.8200   36.2340 C   0  0  0  0  0  0  0  0  0  0  0  0
   38.3870   23.6920   36.9860 C   0  0  0  0  0  0  0  0  0  0  0  0
   38.8530   22.6040   36.3210 N   0  0  0  0  0  0  0  0  0  0  0  0
   38.9770   22.5550   34.9790 C   0  0  0  0  0  0  0  0  0  0  0  0
   38.6280   23.6250   34.2450 N   0  0  0  0  0  0  0  0  0  0  0  0
   37.6370   25.7290   36.6800 H   0  0  0  0  0  0  0  0  0  0  0  0
   39.3570   21.6480   34.5260 H   0  0  0  0  0  0  0  0  0  0  0  0
   38.2500   23.7470   38.4630 C   0  0  0  0  0  0  0  0  0  0  0  0
   39.4910   23.4100   38.9710 F   0  0  0  0  0  0  0  0  0  0  0  0
   37.9190   25.0000   38.9240 F   0  0  0  0  0  0  0  0  0  0  0  0
   37.3340   22.8090   38.9330 F   0  0  0  0  0  0  0  0  0  0  0  0
  1  5  2  0  0  0  0
  1 20  1  0  0  0  0
  2  1  1  0  0  0  0
  3  2  2  0  0  0  0
  3  4  1  0  0  0  0
  4  5  1  0  0  0  0
  6  2  1  0  0  0  0
  7  3  1  0  0  0  0
  9  4  1  0  0  0  0
  9  8  2  0  0  0  0
 10  9  1  0  0  0  0
 11 10  1  0  0  0  0
 12 10  2  0  0  0  0
 12 17  1  0  0  0  0
 13 14  1  0  0  0  0
 13 12  1  0  0  0  0
 14 16  2  0  0  0  0
 15 14  1  0  0  0  0
 16 17  1  0  0  0  0
 17 18  2  0  0  0  0
 18  8  1  0  0  0  0
 19 13  1  0  0  0  0
 20 21  1  0  0  0  0
 21 26  1  0  0  0  0
 21 22  2  0  0  0  0
 22 28  1  0  0  0  0
 23 22  1  0  0  0  0
 24 23  2  0  0  0  0
 25 20  2  0  0  0  0
 25 24  1  0  0  0  0
 27 24  1  0  0  0  0
 28 30  1  0  0  0  0
 28 31  1  0  0  0  0
 28 29  1  0  0  0  0
M  END
>  <minimizedAffinity>
-6.36504936

$$$$

 OpenBabel03272508033D

 31 34  0  0  0  0  0  0  0  0999 V2000
   37.6330   26.1170   34.2180 C   0  0  0  0  0  0  0  0  0  0  0  0
   36.8850   27.1600   34.7210 C   0  0  0  0  0  0  0  0  0  0  0  0
   36.7200   28.1340   33.7300 C   0  0  0  0  0  0  0  0  0  0  0  0
   37.3900   27.6280   32.6480 N   0  0  0  0  0  0  0  0  0  0  0  0
   37.9170   26.4560   32.9410 N   0  0  0  0  0  0  0  0  0  0  0  0
   36.5040   27.1770   35.7360 H   0  0  0  0  0  0  0  0  0  0  0  0
   36.1670   29.0270   33.9240 H   0  0  0  0  0  0  0  0  0  0  0  0
   36.5100   29.3990   31.1780 C   0  0  0  0  0  3  0  0  0  0  0  0
   37.4070   28.3990   31.4590 C   0  0  0  0  0  0  0  0  0  0  0  0
   38.4260   28.0540   30.5820 C   0  0  0  0  0  0  0  0  0  0  0  0
   39.1600   27.2810   30.7420 H   0  0  0  0  0  0  0  0  0  0  0  0
   38.5720   28.7260   29.3640 C   0  0  0  0  0  0  0  0  0  0  0  0
   39.4380   28.6240   28.3290 N   0  0  0  0  0  0  0  0  0  0  0  0
   39.0770   29.5590   27.4100 C   0  0  0  0  0  0  0  0  0  0  0  0
   39.6460   29.6610   26.4740 H   0  0  0  0  0  0  0  0  0  0  0  0
   38.0040   30.2300   27.8690 N   0  0  0  0  0  0  0  0  0  0  0  0
   37.6650   29.7390   29.0780 C   0  0  0  0  0  0  0  0  0  0  0  0
   36.6640   30.0520   29.9810 C   0  0  0  0  0  3  0  0  0  0  0  0
   40.2270   27.9490   28.2660 H   0  0  0  0  0  0  0  0  0  0  0  0
   38.0390   24.8950   34.9130 C   0  0  0  0  0  0  0  0  0  0  0  0
   37.9460   24.9040   36.3400 C   0  0  0  0  0  0  0  0  0  0  0  0
   38.3370   23.7300   37.0080 C   0  0  0  0  0  0  0  0  0  0  0  0
   38.7710   22.6840   36.2600 N   0  0  0  0  0  0  0  0  0  0  0  0
   38.8440   22.7170   34.9140 C   0  0  0  0  0  0  0  0  0  0  0  0
   38.4750   23.8310   34.2610 N   0  0  0  0  0  0  0  0  0  0  0  0
   37.5880   25.7860   36.8550 H   0  0  0  0  0  0  0  0  0  0  0  0
   39.2020   21.8380   34.3920 H   0  0  0  0  0  0  0  0  0  0  0  0
   38.2550   23.6960   38.4900 C   0  0  0  0  0  0  0  0  0  0  0  0
   39.5130   23.3250   38.9280 F   0  0  0  0  0  0  0  0  0  0  0  0
   37.9490   24.9190   39.0380 F   0  0  0  0  0  0  0  0  0  0  0  0
   37.3530   22.7330   38.9360 F   0  0  0  0  0  0  0  0  0  0  0  0
  1  2  1  0  0  0  0
  1 20  1  0  0  0  0
  2  6  1  0  0  0  0
  3  7  1  0  0  0  0
  3  2  2  0  0  0  0
  4  5  1  0  0  0  0
  4  3  1  0  0  0  0
  5  1  2  0  0  0  0
  8  9  1  0  0  0  0
  9  4  1  0  0  0  0
 10 11  1  0  0  0  0
 10  9  2  0  0  0  0
 12 10  1  0  0  0  0
 13 12  1  0  0  0  0
 14 16  2  0  0  0  0
 14 13  1  0  0  0  0
 15 14  1  0  0  0  0
 16 17  1  0  0  0  0
 17 12  2  0  0  0  0
 17 18  1  0  0  0  0
 18  8  2  0  0  0  0
 19 13  1  0  0  0  0
 20 21  1  0  0  0  0
 21 26  1  0  0  0  0
 21 22  2  0  0  0  0
 22 28  1  0  0  0  0
 23 22  1  0  0  0  0
 24 23  2  0  0  0  0
 25 20  2  0  0  0  0
 25 24  1  0  0  0  0
 27 24  1  0  0  0  0
 28 29  1  0  0  0  0
 28 31  1  0  0  0  0
 28 30  1  0  0  0  0
M  END
>  <minimizedAffinity>
-6.21212626

$$$$

 OpenBabel03272508033D

 31 34  0  0  0  0  0  0  0  0999 V2000
   36.7430   27.2310   33.7350 C   0  0  0  0  0  0  0  0  0  0  0  0
   37.0930   26.2920   32.7870 C   0  0  0  0  0  0  0  0  0  0  0  0
   37.7560   25.2280   33.4100 C   0  0  0  0  0  0  0  0  0  0  0  0
   37.7800   25.5780   34.7340 N   0  0  0  0  0  0  0  0  0  0  0  0
   37.1880   26.7430   34.9130 N   0  0  0  0  0  0  0  0  0  0  0  0
   36.8660   26.4050   31.7330 H   0  0  0  0  0  0  0  0  0  0  0  0
   38.1100   24.3950   32.8440 H   0  0  0  0  0  0  0  0  0  0  0  0
   37.9270   24.4250   36.9070 C   0  0  0  0  0  3  0  0  0  0  0  0
   38.3980   24.6850   35.6440 C   0  0  0  0  0  0  0  0  0  0  0  0
   39.5430   24.0800   35.1460 C   0  0  0  0  0  0  0  0  0  0  0  0
   39.9640   24.2400   34.1660 H   0  0  0  0  0  0  0  0  0  0  0  0
   40.2650   23.1720   35.9270 C   0  0  0  0  0  0  0  0  0  0  0  0
   41.3850   22.4400   35.7290 N   0  0  0  0  0  0  0  0  0  0  0  0
   41.6080   21.7290   36.8670 C   0  0  0  0  0  0  0  0  0  0  0  0
   42.4750   21.0560   36.9370 H   0  0  0  0  0  0  0  0  0  0  0  0
   40.6380   22.0170   37.7570 N   0  0  0  0  0  0  0  0  0  0  0  0
   39.7900   22.9080   37.2060 C   0  0  0  0  0  0  0  0  0  0  0  0
   38.6430   23.5320   37.6650 C   0  0  0  0  0  3  0  0  0  0  0  0
   41.9580   22.4360   34.8600 H   0  0  0  0  0  0  0  0  0  0  0  0
   36.0370   28.4940   33.5190 C   0  0  0  0  0  0  0  0  0  0  0  0
   35.9890   29.4030   34.6220 C   0  0  0  0  0  0  0  0  0  0  0  0
   35.3110   30.6160   34.4140 C   0  0  0  0  0  0  0  0  0  0  0  0
   34.7540   30.8370   33.1960 N   0  0  0  0  0  0  0  0  0  0  0  0
   34.8210   29.9520   32.1810 C   0  0  0  0  0  0  0  0  0  0  0  0
   35.4660   28.7880   32.3630 N   0  0  0  0  0  0  0  0  0  0  0  0
   36.4630   29.1430   35.5600 H   0  0  0  0  0  0  0  0  0  0  0  0
   34.3490   30.2060   31.2400 H   0  0  0  0  0  0  0  0  0  0  0  0
   35.2380   31.5900   35.5330 C   0  0  0  0  0  0  0  0  0  0  0  0
   36.4690   31.5350   36.1610 F   0  0  0  0  0  0  0  0  0  0  0  0
   35.0260   32.8800   35.1070 F   0  0  0  0  0  0  0  0  0  0  0  0
   34.2710   31.2310   36.4680 F   0  0  0  0  0  0  0  0  0  0  0  0
  1  5  2  0  0  0  0
  2  3  2  0  0  0  0
  2  1  1  0  0  0  0
  3  4  1  0  0  0  0
  4  5  1  0  0  0  0
  4  9  1  0  0  0  0
  6  2  1  0  0  0  0
  7  3  1  0  0  0  0
  8 18  1  0  0  0  0
  9  8  2  0  0  0  0
 10  9  1  0  0  0  0
 10 12  2  0  0  0  0
 11 10  1  0  0  0  0
 12 17  1  0  0  0  0
 13 12  1  0  0  0  0
 13 14  1  0  0  0  0
 14 15  1  0  0  0  0
 14 16  2  0  0  0  0
 17 18  2  0  0  0  0
 17 16  1  0  0  0  0
 19 13  1  0  0  0  0
 20  1  1  0  0  0  0
 20 21  1  0  0  0  0
 21 26  1  0  0  0  0
 22 21  2  0  0  0  0
 22 28  1  0  0  0  0
 23 22  1  0  0  0  0
 24 25  1  0  0  0  0
 24 23  2  0  0  0  0
 25 20  2  0  0  0  0
 27 24  1  0  0  0  0
 28 29  1  0  0  0  0
 28 31  1  0  0  0  0
 30 28  1  0  0  0  0
M  END
>  <minimizedAffinity>
-5.99851656

$$$$

 OpenBabel03272508033D

 31 34  0  0  0  0  0  0  0  0999 V2000
   37.9410   25.2450   35.0310 C   0  0  0  0  0  0  0  0  0  0  0  0
   37.9670   24.8670   33.7050 C   0  0  0  0  0  0  0  0  0  0  0  0
   37.4330   25.8940   32.9180 C   0  0  0  0  0  0  0  0  0  0  0  0
   37.0990   26.8680   33.8220 N   0  0  0  0  0  0  0  0  0  0  0  0
   37.3990   26.4820   35.0460 N   0  0  0  0  0  0  0  0  0  0  0  0
   38.3530   23.9100   33.3720 H   0  0  0  0  0  0  0  0  0  0  0  0
   37.3640   25.7940   31.8570 H   0  0  0  0  0  0  0  0  0  0  0  0
   36.5420   28.4350   32.0030 C   0  0  0  0  0  3  0  0  0  0  0  0
   36.5220   28.0630   33.3240 C   0  0  0  0  0  0  0  0  0  0  0  0
   35.9210   28.8450   34.3010 C   0  0  0  0  0  0  0  0  0  0  0  0
   35.8700   28.6100   35.3520 H   0  0  0  0  0  0  0  0  0  0  0  0
   35.3070   30.0550   33.9650 C   0  0  0  0  0  0  0  0  0  0  0  0
   34.6570   31.0100   34.6680 N   0  0  0  0  0  0  0  0  0  0  0  0
   34.2760   31.9720   33.7850 C   0  0  0  0  0  0  0  0  0  0  0  0
   33.7250   32.8560   34.1350 H   0  0  0  0  0  0  0  0  0  0  0  0
   34.6850   31.6160   32.5510 N   0  0  0  0  0  0  0  0  0  0  0  0
   35.3270   30.4340   32.6270 C   0  0  0  0  0  0  0  0  0  0  0  0
   35.9370   29.6250   31.6840 C   0  0  0  0  0  3  0  0  0  0  0  0
   34.4890   30.9950   35.6950 H   0  0  0  0  0  0  0  0  0  0  0  0
   38.4020   24.4750   36.1860 C   0  0  0  0  0  0  0  0  0  0  0  0
   39.5870   23.6930   36.0080 C   0  0  0  0  0  0  0  0  0  0  0  0
   40.0290   22.9530   37.1190 C   0  0  0  0  0  0  0  0  0  0  0  0
   39.3090   23.0300   38.2670 N   0  0  0  0  0  0  0  0  0  0  0  0
   38.1960   23.7800   38.3930 C   0  0  0  0  0  0  0  0  0  0  0  0
   37.7600   24.4930   37.3410 N   0  0  0  0  0  0  0  0  0  0  0  0
   40.0980   23.6910   35.0550 H   0  0  0  0  0  0  0  0  0  0  0  0
   37.6800   23.7870   39.3440 H   0  0  0  0  0  0  0  0  0  0  0  0
   41.2560   22.1270   36.9790 C   0  0  0  0  0  0  0  0  0  0  0  0
   42.3120   23.0190   36.9750 F   0  0  0  0  0  0  0  0  0  0  0  0
   41.4330   21.2500   38.0230 F   0  0  0  0  0  0  0  0  0  0  0  0
   41.2810   21.4400   35.7680 F   0  0  0  0  0  0  0  0  0  0  0  0
  1  5  2  0  0  0  0
  1 20  1  0  0  0  0
  2  1  1  0  0  0  0
  3  2  2  0  0  0  0
  3  4  1  0  0  0  0
  4  5  1  0  0  0  0
  6  2  1  0  0  0  0
  7  3  1  0  0  0  0
  8  9  1  0  0  0  0
  9  4  1  0  0  0  0
  9 10  2  0  0  0  0
 10 11  1  0  0  0  0
 12 10  1  0  0  0  0
 12 13  1  0  0  0  0
 13 19  1  0  0  0  0
 14 15  1  0  0  0  0
 14 13  1  0  0  0  0
 16 17  1  0  0  0  0
 16 14  2  0  0  0  0
 17 12  2  0  0  0  0
 18  8  2  0  0  0  0
 18 17  1  0  0  0  0
 20 25  1  0  0  0  0
 21 20  2  0  0  0  0
 21 22  1  0  0  0  0
 22 23  2  0  0  0  0
 23 24  1  0  0  0  0
 24 27  1  0  0  0  0
 25 24  2  0  0  0  0
 26 21  1  0  0  0  0
 28 22  1  0  0  0  0
 28 30  1  0  0  0  0
 29 28  1  0  0  0  0
 31 28  1  0  0  0  0
M  END
>  <minimizedAffinity>
-5.99241018

$$$$

 OpenBabel03272508033D

 31 34  0  0  0  0  0  0  0  0999 V2000
   37.9160   25.4570   35.1780 C   0  0  0  0  0  0  0  0  0  0  0  0
   38.0710   25.2540   33.8230 C   0  0  0  0  0  0  0  0  0  0  0  0
   37.5240   26.3360   33.1260 C   0  0  0  0  0  0  0  0  0  0  0  0
   37.0510   27.1640   34.1100 N   0  0  0  0  0  0  0  0  0  0  0  0
   37.2840   26.6450   35.2980 N   0  0  0  0  0  0  0  0  0  0  0  0
   38.5510   24.3740   33.4100 H   0  0  0  0  0  0  0  0  0  0  0  0
   37.5430   26.3690   32.0580 H   0  0  0  0  0  0  0  0  0  0  0  0
   35.8280   29.2510   34.5840 C   0  0  0  0  0  3  0  0  0  0  0  0
   36.4270   28.3730   33.7140 C   0  0  0  0  0  0  0  0  0  0  0  0
   36.4690   28.6050   32.3460 C   0  0  0  0  0  0  0  0  0  0  0  0
   36.9210   27.9580   31.6120 H   0  0  0  0  0  0  0  0  0  0  0  0
   35.8940   29.7580   31.8020 C   0  0  0  0  0  0  0  0  0  0  0  0
   35.7760   30.2510   30.5490 N   0  0  0  0  0  0  0  0  0  0  0  0
   35.1070   31.4320   30.6420 C   0  0  0  0  0  0  0  0  0  0  0  0
   34.8930   32.0190   29.7370 H   0  0  0  0  0  0  0  0  0  0  0  0
   34.8140   31.6650   31.9360 N   0  0  0  0  0  0  0  0  0  0  0  0
   35.2880   30.6470   32.6820 C   0  0  0  0  0  0  0  0  0  0  0  0
   35.2680   30.3790   34.0390 C   0  0  0  0  0  3  0  0  0  0  0  0
   36.1370   29.7980   29.6850 H   0  0  0  0  0  0  0  0  0  0  0  0
   38.3430   24.5760   36.2660 C   0  0  0  0  0  0  0  0  0  0  0  0
   39.5420   23.8250   36.0540 C   0  0  0  0  0  0  0  0  0  0  0  0
   39.9520   22.9790   37.1000 C   0  0  0  0  0  0  0  0  0  0  0  0
   39.1890   22.9340   38.2210 N   0  0  0  0  0  0  0  0  0  0  0  0
   38.0640   23.6590   38.3810 C   0  0  0  0  0  0  0  0  0  0  0  0
   37.6580   24.4720   37.3920 N   0  0  0  0  0  0  0  0  0  0  0  0
   40.0870   23.9240   35.1250 H   0  0  0  0  0  0  0  0  0  0  0  0
   37.5130   23.5640   39.3090 H   0  0  0  0  0  0  0  0  0  0  0  0
   41.1910   22.1810   36.9220 C   0  0  0  0  0  0  0  0  0  0  0  0
   42.2240   23.0990   36.8540 F   0  0  0  0  0  0  0  0  0  0  0  0
   41.4370   21.3320   37.9750 F   0  0  0  0  0  0  0  0  0  0  0  0
   41.1810   21.4690   35.7260 F   0  0  0  0  0  0  0  0  0  0  0  0
  1  5  2  0  0  0  0
  1 20  1  0  0  0  0
  2  1  1  0  0  0  0
  3  2  2  0  0  0  0
  3  4  1  0  0  0  0
  4  5  1  0  0  0  0
  6  2  1  0  0  0  0
  7  3  1  0  0  0  0
  9  4  1  0  0  0  0
  9  8  2  0  0  0  0
 10  9  1  0  0  0  0
 11 10  1  0  0  0  0
 12 10  2  0  0  0  0
 12 17  1  0  0  0  0
 13 14  1  0  0  0  0
 13 12  1  0  0  0  0
 14 16  2  0  0  0  0
 15 14  1  0  0  0  0
 16 17  1  0  0  0  0
 17 18  2  0  0  0  0
 18  8  1  0  0  0  0
 19 13  1  0  0  0  0
 20 25  1  0  0  0  0
 21 20  2  0  0  0  0
 21 22  1  0  0  0  0
 22 23  2  0  0  0  0
 23 24  1  0  0  0  0
 24 27  1  0  0  0  0
 25 24  2  0  0  0  0
 26 21  1  0  0  0  0
 28 22  1  0  0  0  0
 28 30  1  0  0  0  0
 29 28  1  0  0  0  0
 31 28  1  0  0  0  0
M  END
>  <minimizedAffinity>
-5.94239569

$$$$

 OpenBabel03272508033D

 31 34  0  0  0  0  0  0  0  0999 V2000
   38.9390   24.9270   33.6980 C   0  0  0  0  0  0  0  0  0  0  0  0
   39.4910   24.9020   32.4350 C   0  0  0  0  0  0  0  0  0  0  0  0
   38.9260   25.9230   31.6610 C   0  0  0  0  0  0  0  0  0  0  0  0
   38.0380   26.5320   32.5080 N   0  0  0  0  0  0  0  0  0  0  0  0
   38.0540   25.9470   33.6890 N   0  0  0  0  0  0  0  0  0  0  0  0
   40.2450   24.1830   32.1350 H   0  0  0  0  0  0  0  0  0  0  0  0
   39.2230   26.0710   30.6460 H   0  0  0  0  0  0  0  0  0  0  0  0
   37.5700   28.2740   30.8280 C   0  0  0  0  0  3  0  0  0  0  0  0
   37.2930   27.6290   32.0080 C   0  0  0  0  0  0  0  0  0  0  0  0
   36.2370   28.0080   32.8250 C   0  0  0  0  0  0  0  0  0  0  0  0
   35.9670   27.5450   33.7610 H   0  0  0  0  0  0  0  0  0  0  0  0
   35.4080   29.0760   32.4670 C   0  0  0  0  0  0  0  0  0  0  0  0
   34.3320   29.6660   33.0350 N   0  0  0  0  0  0  0  0  0  0  0  0
   33.9430   30.6750   32.2080 C   0  0  0  0  0  0  0  0  0  0  0  0
   33.0780   31.3000   32.4700 H   0  0  0  0  0  0  0  0  0  0  0  0
   34.7680   30.7070   31.1430 N   0  0  0  0  0  0  0  0  0  0  0  0
   35.6880   29.7300   31.2720 C   0  0  0  0  0  0  0  0  0  0  0  0
   36.7500   29.3200   30.4860 C   0  0  0  0  0  3  0  0  0  0  0  0
   33.8960   29.3880   33.9370 H   0  0  0  0  0  0  0  0  0  0  0  0
   39.2430   24.0390   34.8200 C   0  0  0  0  0  0  0  0  0  0  0  0
   38.6710   24.3810   36.0870 C   0  0  0  0  0  0  0  0  0  0  0  0
   38.9630   23.5270   37.1640 C   0  0  0  0  0  0  0  0  0  0  0  0
   39.7590   22.4520   36.9310 N   0  0  0  0  0  0  0  0  0  0  0  0
   40.2790   22.1650   35.7210 C   0  0  0  0  0  0  0  0  0  0  0  0
   40.0090   22.9710   34.6800 N   0  0  0  0  0  0  0  0  0  0  0  0
   38.0470   25.2590   36.1800 H   0  0  0  0  0  0  0  0  0  0  0  0
   40.9040   21.2870   35.6200 H   0  0  0  0  0  0  0  0  0  0  0  0
   38.3900   23.8440   38.4970 C   0  0  0  0  0  0  0  0  0  0  0  0
   37.3650   22.9360   38.6930 F   0  0  0  0  0  0  0  0  0  0  0  0
   39.2980   23.6990   39.5190 F   0  0  0  0  0  0  0  0  0  0  0  0
   37.8330   25.1200   38.5300 F   0  0  0  0  0  0  0  0  0  0  0  0
  1 20  1  0  0  0  0
  2  1  1  0  0  0  0
  3  2  2  0  0  0  0
  3  4  1  0  0  0  0
  4  5  1  0  0  0  0
  5  1  2  0  0  0  0
  6  2  1  0  0  0  0
  7  3  1  0  0  0  0
  8  9  1  0  0  0  0
  9  4  1  0  0  0  0
  9 10  2  0  0  0  0
 10 11  1  0  0  0  0
 12 10  1  0  0  0  0
 12 13  1  0  0  0  0
 13 19  1  0  0  0  0
 14 15  1  0  0  0  0
 14 13  1  0  0  0  0
 16 17  1  0  0  0  0
 16 14  2  0  0  0  0
 17 12  2  0  0  0  0
 18  8  2  0  0  0  0
 18 17  1  0  0  0  0
 20 21  1  0  0  0  0
 21 26  1  0  0  0  0
 21 22  2  0  0  0  0
 22 28  1  0  0  0  0
 23 22  1  0  0  0  0
 24 23  2  0  0  0  0
 25 20  2  0  0  0  0
 25 24  1  0  0  0  0
 27 24  1  0  0  0  0
 28 31  1  0  0  0  0
 28 29  1  0  0  0  0
 28 30  1  0  0  0  0
M  END
>  <minimizedAffinity>
-5.85552549

$$$$

 OpenBabel03272508033D

 31 34  0  0  0  0  0  0  0  0999 V2000
   38.0190   24.9260   34.6760 C   0  0  0  0  0  0  0  0  0  0  0  0
   37.7780   24.3440   33.4490 C   0  0  0  0  0  0  0  0  0  0  0  0
   37.3750   25.3290   32.5390 C   0  0  0  0  0  0  0  0  0  0  0  0
   37.3890   26.4870   33.2720 N   0  0  0  0  0  0  0  0  0  0  0  0
   37.7650   26.2420   34.5110 N   0  0  0  0  0  0  0  0  0  0  0  0
   37.8980   23.2830   33.2660 H   0  0  0  0  0  0  0  0  0  0  0  0
   37.1400   25.0800   31.5280 H   0  0  0  0  0  0  0  0  0  0  0  0
   36.1490   28.6120   33.1380 C   0  0  0  0  0  3  0  0  0  0  0  0
   37.0210   27.6890   32.6170 C   0  0  0  0  0  0  0  0  0  0  0  0
   37.6250   27.8610   31.3800 C   0  0  0  0  0  0  0  0  0  0  0  0
   38.3160   27.1760   30.9160 H   0  0  0  0  0  0  0  0  0  0  0  0
   37.3610   29.0000   30.6120 C   0  0  0  0  0  0  0  0  0  0  0  0
   37.7820   29.4410   29.4050 N   0  0  0  0  0  0  0  0  0  0  0  0
   37.1720   30.6350   29.1780 C   0  0  0  0  0  0  0  0  0  0  0  0
   37.3660   31.1870   28.2470 H   0  0  0  0  0  0  0  0  0  0  0  0
   36.3850   30.9290   30.2310 N   0  0  0  0  0  0  0  0  0  0  0  0
   36.4780   29.9360   31.1380 C   0  0  0  0  0  0  0  0  0  0  0  0
   35.8970   29.7260   32.3760 C   0  0  0  0  0  3  0  0  0  0  0  0
   38.4480   28.9450   28.7790 H   0  0  0  0  0  0  0  0  0  0  0  0
   38.4580   24.2630   35.9040 C   0  0  0  0  0  0  0  0  0  0  0  0
   39.6880   23.5360   35.8410 C   0  0  0  0  0  0  0  0  0  0  0  0
   40.1090   22.9000   37.0210 C   0  0  0  0  0  0  0  0  0  0  0  0
   39.3280   23.0180   38.1250 N   0  0  0  0  0  0  0  0  0  0  0  0
   38.1730   23.7140   38.1430 C   0  0  0  0  0  0  0  0  0  0  0  0
   37.7560   24.3270   37.0230 N   0  0  0  0  0  0  0  0  0  0  0  0
   40.2470   23.4960   34.9150 H   0  0  0  0  0  0  0  0  0  0  0  0
   37.6090   23.7580   39.0660 H   0  0  0  0  0  0  0  0  0  0  0  0
   41.3810   22.1340   37.0000 C   0  0  0  0  0  0  0  0  0  0  0  0
   41.3580   21.3960   35.8310 F   0  0  0  0  0  0  0  0  0  0  0  0
   42.4930   22.9430   36.9800 F   0  0  0  0  0  0  0  0  0  0  0  0
   41.4630   21.2370   38.0630 F   0  0  0  0  0  0  0  0  0  0  0  0
  1 20  1  0  0  0  0
  2  1  1  0  0  0  0
  3  4  1  0  0  0  0
  3  2  2  0  0  0  0
  4  5  1  0  0  0  0
  5  1  2  0  0  0  0
  6  2  1  0  0  0  0
  7  3  1  0  0  0  0
  9  8  1  0  0  0  0
  9  4  1  0  0  0  0
 10  9  2  0  0  0  0
 11 10  1  0  0  0  0
 12 17  2  0  0  0  0
 12 10  1  0  0  0  0
 13 12  1  0  0  0  0
 14 13  1  0  0  0  0
 14 16  2  0  0  0  0
 15 14  1  0  0  0  0
 16 17  1  0  0  0  0
 17 18  1  0  0  0  0
 18  8  2  0  0  0  0
 19 13  1  0  0  0  0
 20 25  1  0  0  0  0
 21 20  2  0  0  0  0
 21 22  1  0  0  0  0
 22 23  2  0  0  0  0
 23 24  1  0  0  0  0
 24 27  1  0  0  0  0
 25 24  2  0  0  0  0
 26 21  1  0  0  0  0
 28 22  1  0  0  0  0
 28 31  1  0  0  0  0
 29 28  1  0  0  0  0
 30 28  1  0  0  0  0
M  END
>  <minimizedAffinity>
-5.8438344

$$$$

 OpenBabel03272508033D

 31 34  0  0  0  0  0  0  0  0999 V2000
   36.1160   28.5940   33.6000 C   0  0  0  0  0  0  0  0  0  0  0  0
   36.5740   28.0420   32.4220 C   0  0  0  0  0  0  0  0  0  0  0  0
   37.3180   26.8910   32.7070 C   0  0  0  0  0  0  0  0  0  0  0  0
   37.2780   26.7960   34.0730 N   0  0  0  0  0  0  0  0  0  0  0  0
   36.5770   27.7890   34.5820 N   0  0  0  0  0  0  0  0  0  0  0  0
   36.3630   28.4700   31.4490 H   0  0  0  0  0  0  0  0  0  0  0  0
   37.7610   26.3160   31.9240 H   0  0  0  0  0  0  0  0  0  0  0  0
   38.7900   24.8510   34.0110 C   0  0  0  0  0  3  0  0  0  0  0  0
   37.9540   25.7090   34.6810 C   0  0  0  0  0  0  0  0  0  0  0  0
   37.6970   25.5780   36.0390 C   0  0  0  0  0  0  0  0  0  0  0  0
   37.0530   26.2160   36.6220 H   0  0  0  0  0  0  0  0  0  0  0  0
   38.2920   24.5510   36.7790 C   0  0  0  0  0  0  0  0  0  0  0  0
   38.2410   24.1730   38.0760 N   0  0  0  0  0  0  0  0  0  0  0  0
   39.0440   23.0830   38.2100 C   0  0  0  0  0  0  0  0  0  0  0  0
   39.1590   22.5990   39.1900 H   0  0  0  0  0  0  0  0  0  0  0  0
   39.5840   22.7910   37.0110 N   0  0  0  0  0  0  0  0  0  0  0  0
   39.1380   23.6820   36.1020 C   0  0  0  0  0  0  0  0  0  0  0  0
   39.3680   23.8470   34.7470 C   0  0  0  0  0  3  0  0  0  0  0  0
   37.6850   24.6410   38.8210 H   0  0  0  0  0  0  0  0  0  0  0  0
   35.3020   29.7980   33.7610 C   0  0  0  0  0  0  0  0  0  0  0  0
   35.6440   30.6680   34.8450 C   0  0  0  0  0  0  0  0  0  0  0  0
   34.8610   31.8250   35.0000 C   0  0  0  0  0  0  0  0  0  0  0  0
   33.8470   32.0320   34.1220 N   0  0  0  0  0  0  0  0  0  0  0  0
   33.5570   31.1870   33.1130 C   0  0  0  0  0  0  0  0  0  0  0  0
   34.2950   30.0760   32.9510 N   0  0  0  0  0  0  0  0  0  0  0  0
   36.4710   30.4220   35.4970 H   0  0  0  0  0  0  0  0  0  0  0  0
   32.7300   31.4270   32.4560 H   0  0  0  0  0  0  0  0  0  0  0  0
   35.1820   32.7550   36.1110 C   0  0  0  0  0  0  0  0  0  0  0  0
   34.3080   33.8190   35.9780 F   0  0  0  0  0  0  0  0  0  0  0  0
   34.9930   32.1930   37.3520 F   0  0  0  0  0  0  0  0  0  0  0  0
   36.4760   33.2590   36.0060 F   0  0  0  0  0  0  0  0  0  0  0  0
  1 20  1  0  0  0  0
  1  5  2  0  0  0  0
  2  3  2  0  0  0  0
  2  1  1  0  0  0  0
  3  4  1  0  0  0  0
  4  5  1  0  0  0  0
  4  9  1  0  0  0  0
  6  2  1  0  0  0  0
  7  3  1  0  0  0  0
  8  9  2  0  0  0  0
  8 18  1  0  0  0  0
  9 10  1  0  0  0  0
 10 11  1  0  0  0  0
 10 12  2  0  0  0  0
 12 13  1  0  0  0  0
 13 14  1  0  0  0  0
 13 19  1  0  0  0  0
 14 15  1  0  0  0  0
 16 14  2  0  0  0  0
 17 12  1  0  0  0  0
 17 16  1  0  0  0  0
 18 17  2  0  0  0  0
 20 21  1  0  0  0  0
 21 22  2  0  0  0  0
 21 26  1  0  0  0  0
 22 28  1  0  0  0  0
 23 22  1  0  0  0  0
 24 23  2  0  0  0  0
 25 24  1  0  0  0  0
 25 20  2  0  0  0  0
 27 24  1  0  0  0  0
 28 30  1  0  0  0  0
 29 28  1  0  0  0  0
 31 28  1  0  0  0  0
M  END
>  <minimizedAffinity>
-5.76759148

$$$$
