
 OpenBabel03272503303D

 37 40  0  0  1  0  0  0  0  0999 V2000
   35.2950   29.5540   48.0120 C   0  0  0  0  0  0  0  0  0  0  0  0
   35.1550   29.9940   46.6900 C   0  0  0  0  0  0  0  0  0  0  0  0
   33.9760   29.6520   46.0410 C   0  0  0  0  0  0  0  0  0  0  0  0
   33.0560   28.9200   46.7380 N   0  0  0  0  0  0  0  0  0  0  0  0
   33.2150   28.5170   47.9890 C   0  0  0  0  0  0  0  0  0  0  0  0
   34.3590   28.8440   48.6330 N   0  0  0  0  0  0  0  0  0  0  0  0
   35.8760   30.5650   46.1510 H   0  0  0  0  0  0  0  0  0  0  0  0
   33.7420   29.9230   45.0370 H   0  0  0  0  0  0  0  0  0  0  0  0
   36.5130   29.9050   48.6930 N   0  0  0  0  0  0  0  0  0  0  0  0
   37.5900   30.7060   48.1800 C   0  0  0  0  0  0  0  0  0  0  0  0
   38.1740   31.3190   49.4530 C   0  0  2  0  0  0  0  0  0  0  0  0
   37.2760   30.8720   50.5880 C   0  0  0  0  0  0  0  0  0  0  0  0
   36.8870   29.5120   50.0300 C   0  0  0  0  0  0  0  0  0  0  0  0
   38.3360   30.0400   47.7240 H   0  0  0  0  0  0  0  0  0  0  0  0
   37.2460   31.4900   47.4820 H   0  0  0  0  0  0  0  0  0  0  0  0
   39.1700   30.8750   49.6560 H   0  0  0  0  0  0  0  0  0  0  0  0
   37.8410   30.6960   51.5060 H   0  0  0  0  0  0  0  0  0  0  0  0
   36.3850   31.5180   50.7240 H   0  0  0  0  0  0  0  0  0  0  0  0
   35.9980   29.1810   50.6040 H   0  0  0  0  0  0  0  0  0  0  0  0
   37.7390   28.8390   50.1010 H   0  0  0  0  0  0  0  0  0  0  0  0
   38.2910   32.8150   49.3840 C   0  0  0  0  0  0  0  0  0  0  0  0
   37.1110   33.3310   49.8740 F   0  0  0  0  0  0  0  0  0  0  0  0
   38.3320   33.1640   48.0410 F   0  0  0  0  0  0  0  0  0  0  0  0
   39.3860   33.3160   50.0250 F   0  0  0  0  0  0  0  0  0  0  0  0
   31.9720   27.5660   48.8340 S   0  0  0  0  0  0  0  0  0  0  0  0
   30.4510   26.4950   46.6480 C   0  0  0  0  0  3  0  0  0  0  0  0
   30.5830   27.3700   47.7030 C   0  0  0  0  0  0  0  0  0  0  0  0
   29.5570   28.2520   48.0060 C   0  0  0  0  0  0  0  0  0  0  0  0
   29.5410   28.9920   48.8140 H   0  0  0  0  0  0  0  0  0  0  0  0
   28.3770   28.2770   47.2560 C   0  0  0  0  0  0  0  0  0  0  0  0
   27.2290   29.0030   47.3040 N   0  0  0  0  0  0  0  0  0  0  0  0
   26.4160   28.5930   46.3160 C   0  0  0  0  0  0  0  0  0  0  0  0
   25.4250   29.0240   46.1390 H   0  0  0  0  0  0  0  0  0  0  0  0
   27.0570   27.6030   45.6410 N   0  0  0  0  0  0  0  0  0  0  0  0
   28.2650   27.3940   46.2040 C   0  0  0  0  0  0  0  0  0  0  0  0
   29.2870   26.5290   45.9200 C   0  0  0  0  0  3  0  0  0  0  0  0
   27.0330   29.7600   48.0130 H   0  0  0  0  0  0  0  0  0  0  0  0
  1  6  1  0  0  0  0
  1  9  1  0  0  0  0
  2  1  2  0  0  0  0
  3  2  1  0  0  0  0
  3  4  2  0  0  0  0
  4  5  1  0  0  0  0
  5  6  2  0  0  0  0
  5 25  1  0  0  0  0
  7  2  1  0  0  0  0
  8  3  1  0  0  0  0
  9 13  1  0  0  0  0
 10  9  1  0  0  0  0
 10 11  1  0  0  0  0
 11 16  1  1  0  0  0
 11 12  1  0  0  0  0
 12 18  1  0  0  0  0
 12 17  1  0  0  0  0
 13 20  1  0  0  0  0
 13 12  1  0  0  0  0
 13 19  1  0  0  0  0
 14 10  1  0  0  0  0
 15 10  1  0  0  0  0
 21 11  1  0  0  0  0
 21 22  1  0  0  0  0
 21 24  1  0  0  0  0
 23 21  1  0  0  0  0
 26 27  1  0  0  0  0
 27 28  2  0  0  0  0
 27 25  1  0  0  0  0
 28 29  1  0  0  0  0
 30 31  1  0  0  0  0
 30 28  1  0  0  0  0
 31 37  1  0  0  0  0
 32 31  1  0  0  0  0
 33 32  1  0  0  0  0
 34 35  1  0  0  0  0
 34 32  2  0  0  0  0
 35 30  2  0  0  0  0
 36 35  1  0  0  0  0
 36 26  2  0  0  0  0
M  END
>  <minimizedAffinity>
-6.30146551

>  <minimizedRMSD>
0.426910907

$$$$
