REMARK  Name = 
REMARK  4 active torsions:
REMARK  status: ('A' for Active; 'I' for Inactive)
REMARK    1  A    between atoms: C_1  and  C_8
REMARK    2  A    between atoms: C_4  and  O_13
REMARK    3  A    between atoms: O_13  and  C_14
REMARK    4  A    between atoms: N_17  and  C_28
REMARK                            x       y       z     vdW  Elec       q    Type
REMARK                         _______ _______ _______ _____ _____    ______ ____
ROOT
ATOM      1  O   UNL     1      37.753  30.048  49.225  0.00  0.00    +0.000 OA
ENDROOT
BRANCH   1   5
ATOM      2  C   UNL     1      33.843  28.784  48.282  0.00  0.00    +0.000 A 
ATOM      3  C   UNL     1      34.439  28.418  49.437  0.00  0.00    +0.000 A 
ATOM      4  C   UNL     1      35.711  28.792  49.812  0.00  0.00    +0.000 A 
ATOM      5  C   UNL     1      36.457  29.581  49.001  0.00  0.00    +0.000 A 
ATOM      6  C   UNL     1      35.847  29.966  47.800  0.00  0.00    +0.000 A 
ATOM      7  N   UNL     1      34.599  29.574  47.477  0.00  0.00    +0.000 NA
ATOM      8  H   UNL     1      33.916  27.788  50.145  0.00  0.00    +0.000 HD
ATOM      9  H   UNL     1      36.175  28.490  50.743  0.00  0.00    +0.000 HD
ATOM     10  H   UNL     1      36.366  30.596  47.086  0.00  0.00    +0.000 HD
BRANCH   2  12
ATOM     11  C   UNL     1      31.643  27.647  48.684  0.00  0.00    +0.000 A 
ATOM     12  C   UNL     1      32.518  28.400  47.883  0.00  0.00    +0.000 A 
ATOM     13  C   UNL     1      32.023  28.760  46.658  0.00  0.00    +0.000 A 
ATOM     14  N   UNL     1      30.772  28.410  46.257  0.00  0.00    +0.000 NA
ATOM     15  C   UNL     1      29.981  27.677  47.093  0.00  0.00    +0.000 A 
ATOM     16  N   UNL     1      30.409  27.288  48.317  0.00  0.00    +0.000 NA
ATOM     17  H   UNL     1      31.986  27.337  49.661  0.00  0.00    +0.000 HD
ATOM     18  H   UNL     1      32.663  29.339  46.012  0.00  0.00    +0.000 HD
ATOM     19  H   UNL     1      28.977  27.367  46.834  0.00  0.00    +0.000 HD
ENDBRANCH   2  12
ENDBRANCH   1   5
BRANCH   1  20
ATOM     20  C   UNL     1      38.163  31.293  48.775  0.00  0.00    +0.000 A 
ATOM     21  C   UNL     1      37.880  32.336  49.663  0.00  0.00    +0.000 A 
ATOM     22  C   UNL     1      38.335  33.529  49.105  0.00  0.00    +0.000 A 
ATOM     23  N   UNL     1      38.864  33.168  47.927  0.00  0.00    +0.000 N 
ATOM     24  N   UNL     1      38.771  31.878  47.725  0.00  0.00    +0.000 NA
ATOM     25  H   UNL     1      37.401  32.409  50.653  0.00  0.00    +0.000 HD
ATOM     26  H   UNL     1      38.308  34.547  49.470  0.00  0.00    +0.000 HD
BRANCH  23  28
ATOM     27  C   UNL     1      39.133  35.407  46.980  0.00  0.00    +0.000 A 
ATOM     28  C   UNL     1      39.464  34.064  46.989  0.00  0.00    +0.000 A 
ATOM     29  C   UNL     1      40.393  33.548  46.079  0.00  0.00    +0.000 A 
ATOM     30  H   UNL     1      40.681  32.506  46.049  0.00  0.00    +0.000 HD
ATOM     31  C   UNL     1      40.950  34.467  45.181  0.00  0.00    +0.000 A 
ATOM     32  N   UNL     1      41.858  34.246  44.212  0.00  0.00    +0.000 N 
ATOM     33  C   UNL     1      42.064  35.441  43.635  0.00  0.00    +0.000 A 
ATOM     34  H   UNL     1      42.719  35.731  42.806  0.00  0.00    +0.000 HD
ATOM     35  N   UNL     1      41.330  36.403  44.195  0.00  0.00    +0.000 NA
ATOM     36  C   UNL     1      40.613  35.803  45.182  0.00  0.00    +0.000 A 
ATOM     37  C   UNL     1      39.700  36.290  46.082  0.00  0.00    +0.000 A 
ATOM     38  H   UNL     1      42.342  33.372  43.911  0.00  0.00    +0.000 HD
ENDBRANCH  23  28
ENDBRANCH   1  20
TORSDOF 4
