
 OpenBabel03262522253D

 38 41  0  0  0  0  0  0  0  0999 V2000
   37.0690   25.1390   32.7510 C   0  0  0  0  0  0  0  0  0  0  0  0
   38.0410   25.2580   33.7670 C   0  0  0  0  0  0  0  0  0  0  0  0
   38.3540   26.5210   34.2260 C   0  0  0  0  0  0  0  0  0  0  0  0
   37.7100   27.5680   33.6770 N   0  0  0  0  0  0  0  0  0  0  0  0
   36.8100   27.4300   32.7330 C   0  0  0  0  0  0  0  0  0  0  0  0
   36.4500   26.1970   32.2260 N   0  0  0  0  0  0  0  0  0  0  0  0
   36.7800   24.1730   32.3480 H   0  0  0  0  0  0  0  0  0  0  0  0
   39.0890   26.5730   34.9930 H   0  0  0  0  0  0  0  0  0  0  0  0
   38.5760   24.0680   34.1890 O   0  0  0  0  0  0  0  0  0  0  0  0
   38.6330   23.8460   35.5780 C   0  0  0  0  0  0  0  0  0  0  0  0
   37.7840   24.3340   36.5530 C   0  0  0  0  0  0  0  0  0  0  0  0
   37.9980   24.0120   37.8450 C   0  0  0  0  0  0  0  0  0  0  0  0
   39.0570   23.2070   38.1520 C   0  0  0  0  0  0  0  0  0  0  0  0
   39.9050   22.7180   37.1820 C   0  0  0  0  0  0  0  0  0  0  0  0
   39.6600   23.0620   35.9030 N   0  0  0  0  0  0  0  0  0  0  0  0
   36.9840   24.9650   36.1490 H   0  0  0  0  0  0  0  0  0  0  0  0
   37.3070   24.4160   38.5800 H   0  0  0  0  0  0  0  0  0  0  0  0
   39.2470   22.9340   39.1950 H   0  0  0  0  0  0  0  0  0  0  0  0
   41.0670   21.8300   37.5510 C   0  0  0  0  0  0  0  0  0  0  0  0
   41.1710   21.8680   38.6540 H   0  0  0  0  0  0  0  0  0  0  0  0
   42.0290   22.2550   37.1500 H   0  0  0  0  0  0  0  0  0  0  0  0
   40.8930   20.8170   37.1560 H   0  0  0  0  0  0  0  0  0  0  0  0
   36.1320   29.0270   32.2050 S   0  0  0  0  0  0  0  0  0  0  0  0
   34.4930   29.1090   33.0260 C   0  0  0  0  0  0  0  0  0  0  0  0
   34.1270   28.1160   33.3120 H   0  0  0  0  0  0  0  0  0  0  0  0
   33.8030   29.5690   32.2740 H   0  0  0  0  0  0  0  0  0  0  0  0
   35.7970   30.3880   34.7200 C   0  0  0  0  0  3  0  0  0  0  0  0
   34.5810   30.0650   34.1520 C   0  0  0  0  0  0  0  0  0  0  0  0
   33.5040   30.7050   34.7290 C   0  0  0  0  0  0  0  0  0  0  0  0
   32.5140   30.4990   34.3320 H   0  0  0  0  0  0  0  0  0  0  0  0
   33.6050   31.5910   35.7780 C   0  0  0  0  0  0  0  0  0  0  0  0
   32.6630   32.2940   36.4500 N   0  0  0  0  0  0  0  0  0  0  0  0
   33.3550   33.0050   37.3900 C   0  0  0  0  0  0  0  0  0  0  0  0
   33.0080   33.7000   38.1460 H   0  0  0  0  0  0  0  0  0  0  0  0
   34.6580   32.7250   37.2670 N   0  0  0  0  0  0  0  0  0  0  0  0
   34.8590   31.8450   36.2720 C   0  0  0  0  0  0  0  0  0  0  0  0
   36.0190   31.2570   35.7680 C   0  0  0  0  0  3  0  0  0  0  0  0
   31.6410   32.3310   36.3340 H   0  0  0  0  0  0  0  0  0  0  0  0
  1  2  1  0  0  0  0
  2  9  1  0  0  0  0
  2  3  2  0  0  0  0
  3  8  1  0  0  0  0
  4  3  1  0  0  0  0
  5  4  2  0  0  0  0
  6  5  1  0  0  0  0
  6  1  2  0  0  0  0
  7  1  1  0  0  0  0
  9 10  1  0  0  0  0
 10 15  2  0  0  0  0
 10 11  1  0  0  0  0
 11 12  2  0  0  0  0
 12 13  1  0  0  0  0
 12 17  1  0  0  0  0
 13 18  1  0  0  0  0
 14 19  1  0  0  0  0
 14 13  2  0  0  0  0
 15 14  1  0  0  0  0
 16 11  1  0  0  0  0
 19 20  1  0  0  0  0
 21 19  1  0  0  0  0
 22 19  1  0  0  0  0
 23  5  1  0  0  0  0
 23 24  1  0  0  0  0
 24 25  1  0  0  0  0
 24 28  1  0  0  0  0
 26 24  1  0  0  0  0
 27 37  1  0  0  0  0
 28 27  2  0  0  0  0
 28 29  1  0  0  0  0
 29 31  2  0  0  0  0
 30 29  1  0  0  0  0
 31 36  1  0  0  0  0
 31 32  1  0  0  0  0
 32 33  1  0  0  0  0
 33 34  1  0  0  0  0
 35 33  2  0  0  0  0
 36 35  1  0  0  0  0
 37 36  2  0  0  0  0
 38 32  1  0  0  0  0
M  END
>  <minimizedAffinity>
-6.03074789

$$$$

 OpenBabel03262522253D

 38 41  0  0  0  0  0  0  0  0999 V2000
   37.2040   25.7500   32.9190 C   0  0  0  0  0  0  0  0  0  0  0  0
   37.7970   25.7110   34.1990 C   0  0  0  0  0  0  0  0  0  0  0  0
   37.6490   26.8090   35.0210 C   0  0  0  0  0  0  0  0  0  0  0  0
   36.9450   27.8570   34.5510 N   0  0  0  0  0  0  0  0  0  0  0  0
   36.4040   27.8690   33.3560 C   0  0  0  0  0  0  0  0  0  0  0  0
   36.5130   26.8050   32.4830 N   0  0  0  0  0  0  0  0  0  0  0  0
   37.2850   24.9180   32.2260 H   0  0  0  0  0  0  0  0  0  0  0  0
   38.1070   26.7450   35.9780 H   0  0  0  0  0  0  0  0  0  0  0  0
   38.4700   24.5500   34.4820 O   0  0  0  0  0  0  0  0  0  0  0  0
   38.5460   24.1660   35.8350 C   0  0  0  0  0  0  0  0  0  0  0  0
   37.7140   24.5370   36.8730 C   0  0  0  0  0  0  0  0  0  0  0  0
   37.9450   24.0640   38.1140 C   0  0  0  0  0  0  0  0  0  0  0  0
   39.0050   23.2250   38.3070 C   0  0  0  0  0  0  0  0  0  0  0  0
   39.8370   22.8520   37.2740 C   0  0  0  0  0  0  0  0  0  0  0  0
   39.5740   23.3450   36.0490 N   0  0  0  0  0  0  0  0  0  0  0  0
   36.9100   25.2140   36.5590 H   0  0  0  0  0  0  0  0  0  0  0  0
   37.2670   24.3810   38.9020 H   0  0  0  0  0  0  0  0  0  0  0  0
   39.2090   22.8300   39.3080 H   0  0  0  0  0  0  0  0  0  0  0  0
   41.0000   21.9230   37.5180 C   0  0  0  0  0  0  0  0  0  0  0  0
   41.1200   21.8300   38.6160 H   0  0  0  0  0  0  0  0  0  0  0  0
   41.9580   22.3900   37.1560 H   0  0  0  0  0  0  0  0  0  0  0  0
   40.8150   20.9650   37.0080 H   0  0  0  0  0  0  0  0  0  0  0  0
   35.5270   29.4210   33.0250 S   0  0  0  0  0  0  0  0  0  0  0  0
   34.4980   29.6800   34.5220 C   0  0  0  0  0  0  0  0  0  0  0  0
   34.6240   28.8710   35.2510 H   0  0  0  0  0  0  0  0  0  0  0  0
   33.4400   29.7070   34.1580 H   0  0  0  0  0  0  0  0  0  0  0  0
   34.0260   31.5680   36.0780 C   0  0  0  0  0  3  0  0  0  0  0  0
   34.7880   31.0270   35.0620 C   0  0  0  0  0  0  0  0  0  0  0  0
   35.8070   31.8480   34.6260 C   0  0  0  0  0  0  0  0  0  0  0  0
   36.4500   31.4870   33.8290 H   0  0  0  0  0  0  0  0  0  0  0  0
   36.0620   33.1000   35.1400 C   0  0  0  0  0  0  0  0  0  0  0  0
   37.0060   34.0200   34.8300 N   0  0  0  0  0  0  0  0  0  0  0  0
   36.7670   35.0700   35.6710 C   0  0  0  0  0  0  0  0  0  0  0  0
   37.2760   36.0210   35.7760 H   0  0  0  0  0  0  0  0  0  0  0  0
   35.7170   34.7690   36.4470 N   0  0  0  0  0  0  0  0  0  0  0  0
   35.2460   33.5470   36.1470 C   0  0  0  0  0  0  0  0  0  0  0  0
   34.1860   32.8050   36.6680 C   0  0  0  0  0  3  0  0  0  0  0  0
   37.7610   33.9990   34.1310 H   0  0  0  0  0  0  0  0  0  0  0  0
  1  2  1  0  0  0  0
  2  9  1  0  0  0  0
  2  3  2  0  0  0  0
  3  8  1  0  0  0  0
  4  3  1  0  0  0  0
  5  4  2  0  0  0  0
  6  1  2  0  0  0  0
  6  5  1  0  0  0  0
  7  1  1  0  0  0  0
  9 10  1  0  0  0  0
 10 15  2  0  0  0  0
 10 11  1  0  0  0  0
 11 12  2  0  0  0  0
 12 13  1  0  0  0  0
 12 17  1  0  0  0  0
 13 18  1  0  0  0  0
 14 19  1  0  0  0  0
 14 13  2  0  0  0  0
 15 14  1  0  0  0  0
 16 11  1  0  0  0  0
 19 20  1  0  0  0  0
 21 19  1  0  0  0  0
 22 19  1  0  0  0  0
 23  5  1  0  0  0  0
 23 24  1  0  0  0  0
 24 28  1  0  0  0  0
 24 25  1  0  0  0  0
 26 24  1  0  0  0  0
 27 37  1  0  0  0  0
 28 27  2  0  0  0  0
 29 28  1  0  0  0  0
 29 31  2  0  0  0  0
 30 29  1  0  0  0  0
 31 36  1  0  0  0  0
 32 31  1  0  0  0  0
 32 33  1  0  0  0  0
 33 34  1  0  0  0  0
 33 35  2  0  0  0  0
 36 35  1  0  0  0  0
 36 37  2  0  0  0  0
 38 32  1  0  0  0  0
M  END
>  <minimizedAffinity>
-5.86558199

$$$$

 OpenBabel03262522253D

 38 41  0  0  0  0  0  0  0  0999 V2000
   36.1950   25.1720   31.8290 C   0  0  0  0  0  0  0  0  0  0  0  0
   36.5520   24.0210   31.0960 C   0  0  0  0  0  0  0  0  0  0  0  0
   37.8560   23.9030   30.6600 C   0  0  0  0  0  0  0  0  0  0  0  0
   38.7130   24.8970   30.9610 N   0  0  0  0  0  0  0  0  0  0  0  0
   38.3560   25.9580   31.6430 C   0  0  0  0  0  0  0  0  0  0  0  0
   37.0690   26.1410   32.1100 N   0  0  0  0  0  0  0  0  0  0  0  0
   35.1860   25.3240   32.2000 H   0  0  0  0  0  0  0  0  0  0  0  0
   38.0900   23.0220   30.1120 H   0  0  0  0  0  0  0  0  0  0  0  0
   35.5300   23.1290   30.8980 O   0  0  0  0  0  0  0  0  0  0  0  0
   35.6970   21.8330   31.4240 C   0  0  0  0  0  0  0  0  0  0  0  0
   35.9170   20.6570   30.7330 C   0  0  0  0  0  0  0  0  0  0  0  0
   36.0530   19.5000   31.4130 C   0  0  0  0  0  0  0  0  0  0  0  0
   35.9680   19.5290   32.7750 C   0  0  0  0  0  0  0  0  0  0  0  0
   35.7490   20.7000   33.4670 C   0  0  0  0  0  0  0  0  0  0  0  0
   35.6180   21.8350   32.7540 N   0  0  0  0  0  0  0  0  0  0  0  0
   35.9590   20.7980   29.6470 H   0  0  0  0  0  0  0  0  0  0  0  0
   36.2250   18.5990   30.8320 H   0  0  0  0  0  0  0  0  0  0  0  0
   36.0760   18.6000   33.3450 H   0  0  0  0  0  0  0  0  0  0  0  0
   35.6610   20.7010   34.9730 C   0  0  0  0  0  0  0  0  0  0  0  0
   35.5940   19.6430   35.2970 H   0  0  0  0  0  0  0  0  0  0  0  0
   34.6960   21.1730   35.3090 H   0  0  0  0  0  0  0  0  0  0  0  0
   36.5250   21.2400   35.3900 H   0  0  0  0  0  0  0  0  0  0  0  0
   39.7370   27.1090   31.8790 S   0  0  0  0  0  0  0  0  0  0  0  0
   40.7780   26.3020   33.1570 C   0  0  0  0  0  0  0  0  0  0  0  0
   41.6110   26.9410   33.4710 H   0  0  0  0  0  0  0  0  0  0  0  0
   41.1700   25.3690   32.6790 H   0  0  0  0  0  0  0  0  0  0  0  0
   39.2470   26.7860   35.0610 C   0  0  0  0  0  3  0  0  0  0  0  0
   39.9020   25.8660   34.2670 C   0  0  0  0  0  0  0  0  0  0  0  0
   39.6590   24.5530   34.6100 C   0  0  0  0  0  0  0  0  0  0  0  0
   40.1410   23.7740   34.0270 H   0  0  0  0  0  0  0  0  0  0  0  0
   38.8420   24.1660   35.6480 C   0  0  0  0  0  0  0  0  0  0  0  0
   38.5020   22.9390   36.1110 N   0  0  0  0  0  0  0  0  0  0  0  0
   37.6600   23.1780   37.1620 C   0  0  0  0  0  0  0  0  0  0  0  0
   37.1480   22.4920   37.8250 H   0  0  0  0  0  0  0  0  0  0  0  0
   37.5150   24.5010   37.3040 N   0  0  0  0  0  0  0  0  0  0  0  0
   38.2360   25.1560   36.3790 C   0  0  0  0  0  0  0  0  0  0  0  0
   38.4070   26.5170   36.1230 C   0  0  0  0  0  3  0  0  0  0  0  0
   38.7780   22.0010   35.7930 H   0  0  0  0  0  0  0  0  0  0  0  0
  1  6  1  0  0  0  0
  1  7  1  0  0  0  0
  2  1  2  0  0  0  0
  3  4  2  0  0  0  0
  3  2  1  0  0  0  0
  4  5  1  0  0  0  0
  5 23  1  0  0  0  0
  5  6  2  0  0  0  0
  8  3  1  0  0  0  0
  9  2  1  0  0  0  0
  9 10  1  0  0  0  0
 10 15  1  0  0  0  0
 11 12  1  0  0  0  0
 11 10  2  0  0  0  0
 12 13  2  0  0  0  0
 13 18  1  0  0  0  0
 13 14  1  0  0  0  0
 14 19  1  0  0  0  0
 15 14  2  0  0  0  0
 16 11  1  0  0  0  0
 17 12  1  0  0  0  0
 19 20  1  0  0  0  0
 19 21  1  0  0  0  0
 19 22  1  0  0  0  0
 23 24  1  0  0  0  0
 24 25  1  0  0  0  0
 24 28  1  0  0  0  0
 26 24  1  0  0  0  0
 27 37  1  0  0  0  0
 28 29  1  0  0  0  0
 28 27  2  0  0  0  0
 29 31  2  0  0  0  0
 30 29  1  0  0  0  0
 31 32  1  0  0  0  0
 31 36  1  0  0  0  0
 32 33  1  0  0  0  0
 33 35  2  0  0  0  0
 33 34  1  0  0  0  0
 36 35  1  0  0  0  0
 37 36  2  0  0  0  0
 38 32  1  0  0  0  0
M  END
>  <minimizedAffinity>
-5.74211502

$$$$

 OpenBabel03262522253D

 38 41  0  0  0  0  0  0  0  0999 V2000
   35.7480   24.8530   31.5620 C   0  0  0  0  0  0  0  0  0  0  0  0
   36.3010   23.6870   30.9930 C   0  0  0  0  0  0  0  0  0  0  0  0
   37.6560   23.6690   30.7300 C   0  0  0  0  0  0  0  0  0  0  0  0
   38.3710   24.7690   31.0330 N   0  0  0  0  0  0  0  0  0  0  0  0
   37.8310   25.8420   31.5610 C   0  0  0  0  0  0  0  0  0  0  0  0
   36.4830   25.9280   31.8500 N   0  0  0  0  0  0  0  0  0  0  0  0
   34.6890   24.9290   31.7930 H   0  0  0  0  0  0  0  0  0  0  0  0
   38.0390   22.7740   30.3020 H   0  0  0  0  0  0  0  0  0  0  0  0
   35.4010   22.6790   30.7620 O   0  0  0  0  0  0  0  0  0  0  0  0
   35.5820   21.4790   31.4760 C   0  0  0  0  0  0  0  0  0  0  0  0
   35.3560   21.2470   32.8200 C   0  0  0  0  0  0  0  0  0  0  0  0
   35.5880   20.0210   33.3320 C   0  0  0  0  0  0  0  0  0  0  0  0
   36.0440   19.0400   32.4990 C   0  0  0  0  0  0  0  0  0  0  0  0
   36.2690   19.2690   31.1590 C   0  0  0  0  0  0  0  0  0  0  0  0
   36.0260   20.5050   30.6840 N   0  0  0  0  0  0  0  0  0  0  0  0
   34.9930   22.1320   33.3540 H   0  0  0  0  0  0  0  0  0  0  0  0
   35.3990   19.8810   34.3920 H   0  0  0  0  0  0  0  0  0  0  0  0
   36.2390   18.0380   32.8960 H   0  0  0  0  0  0  0  0  0  0  0  0
   36.7720   18.1650   30.2630 C   0  0  0  0  0  0  0  0  0  0  0  0
   37.0840   17.3270   30.9180 H   0  0  0  0  0  0  0  0  0  0  0  0
   37.7110   18.4870   29.7320 H   0  0  0  0  0  0  0  0  0  0  0  0
   35.9880   17.8940   29.5390 H   0  0  0  0  0  0  0  0  0  0  0  0
   39.0580   27.1470   31.8470 S   0  0  0  0  0  0  0  0  0  0  0  0
   40.3080   26.3540   32.9310 C   0  0  0  0  0  0  0  0  0  0  0  0
   41.1880   26.9920   33.0770 H   0  0  0  0  0  0  0  0  0  0  0  0
   40.6020   25.4090   32.4090 H   0  0  0  0  0  0  0  0  0  0  0  0
   38.9540   26.8610   34.9600 C   0  0  0  0  0  3  0  0  0  0  0  0
   39.6450   25.9470   34.1900 C   0  0  0  0  0  0  0  0  0  0  0  0
   39.6480   24.6670   34.7040 C   0  0  0  0  0  0  0  0  0  0  0  0
   40.1730   23.8940   34.1500 H   0  0  0  0  0  0  0  0  0  0  0  0
   39.0270   24.3060   35.8780 C   0  0  0  0  0  0  0  0  0  0  0  0
   38.9360   23.1140   36.5140 N   0  0  0  0  0  0  0  0  0  0  0  0
   38.1960   23.3660   37.6360 C   0  0  0  0  0  0  0  0  0  0  0  0
   37.8760   22.7060   38.4330 H   0  0  0  0  0  0  0  0  0  0  0  0
   37.8670   24.6640   37.6510 N   0  0  0  0  0  0  0  0  0  0  0  0
   38.3670   25.2890   36.5710 C   0  0  0  0  0  0  0  0  0  0  0  0
   38.2960   26.6160   36.1480 C   0  0  0  0  0  3  0  0  0  0  0  0
   39.3130   22.1900   36.2660 H   0  0  0  0  0  0  0  0  0  0  0  0
  1  7  1  0  0  0  0
  1  6  1  0  0  0  0
  2  1  2  0  0  0  0
  3  2  1  0  0  0  0
  3  4  2  0  0  0  0
  4  5  1  0  0  0  0
  5 23  1  0  0  0  0
  5  6  2  0  0  0  0
  8  3  1  0  0  0  0
  9  2  1  0  0  0  0
  9 10  1  0  0  0  0
 10 11  1  0  0  0  0
 11 12  2  0  0  0  0
 11 16  1  0  0  0  0
 12 17  1  0  0  0  0
 13 18  1  0  0  0  0
 13 12  1  0  0  0  0
 14 13  2  0  0  0  0
 15 14  1  0  0  0  0
 15 10  2  0  0  0  0
 19 20  1  0  0  0  0
 19 14  1  0  0  0  0
 21 19  1  0  0  0  0
 22 19  1  0  0  0  0
 23 24  1  0  0  0  0
 24 25  1  0  0  0  0
 24 28  1  0  0  0  0
 26 24  1  0  0  0  0
 27 37  1  0  0  0  0
 28 29  1  0  0  0  0
 28 27  2  0  0  0  0
 29 31  2  0  0  0  0
 30 29  1  0  0  0  0
 31 32  1  0  0  0  0
 31 36  1  0  0  0  0
 32 33  1  0  0  0  0
 33 35  2  0  0  0  0
 33 34  1  0  0  0  0
 36 35  1  0  0  0  0
 37 36  2  0  0  0  0
 38 32  1  0  0  0  0
M  END
>  <minimizedAffinity>
-5.71399879

$$$$

 OpenBabel03262522253D

 38 41  0  0  0  0  0  0  0  0999 V2000
   36.3950   25.0810   31.2120 C   0  0  0  0  0  0  0  0  0  0  0  0
   37.2040   24.0360   31.7050 C   0  0  0  0  0  0  0  0  0  0  0  0
   37.8310   24.2160   32.9210 C   0  0  0  0  0  0  0  0  0  0  0  0
   37.6330   25.3810   33.5660 N   0  0  0  0  0  0  0  0  0  0  0  0
   36.8760   26.3370   33.0850 C   0  0  0  0  0  0  0  0  0  0  0  0
   36.2190   26.2250   31.8750 N   0  0  0  0  0  0  0  0  0  0  0  0
   35.8750   25.0000   30.2620 H   0  0  0  0  0  0  0  0  0  0  0  0
   38.4320   23.4070   33.2630 H   0  0  0  0  0  0  0  0  0  0  0  0
   37.2730   22.9330   30.8940 O   0  0  0  0  0  0  0  0  0  0  0  0
   36.4810   21.8240   31.2490 C   0  0  0  0  0  0  0  0  0  0  0  0
   35.3830   21.7960   32.0870 C   0  0  0  0  0  0  0  0  0  0  0  0
   34.7450   20.6290   32.3100 C   0  0  0  0  0  0  0  0  0  0  0  0
   35.2090   19.5020   31.6960 C   0  0  0  0  0  0  0  0  0  0  0  0
   36.3040   19.5260   30.8590 C   0  0  0  0  0  0  0  0  0  0  0  0
   36.9140   20.7100   30.6600 N   0  0  0  0  0  0  0  0  0  0  0  0
   35.1350   22.7790   32.5030 H   0  0  0  0  0  0  0  0  0  0  0  0
   33.8870   20.6500   32.9760 H   0  0  0  0  0  0  0  0  0  0  0  0
   34.7050   18.5450   31.8640 H   0  0  0  0  0  0  0  0  0  0  0  0
   36.7930   18.2640   30.1930 C   0  0  0  0  0  0  0  0  0  0  0  0
   36.2640   17.4160   30.6700 H   0  0  0  0  0  0  0  0  0  0  0  0
   37.8820   18.0970   30.4210 H   0  0  0  0  0  0  0  0  0  0  0  0
   36.6280   18.3370   29.1070 H   0  0  0  0  0  0  0  0  0  0  0  0
   36.8150   27.7750   34.1890 S   0  0  0  0  0  0  0  0  0  0  0  0
   35.5950   28.8940   33.3980 C   0  0  0  0  0  0  0  0  0  0  0  0
   34.8050   28.3380   32.8790 H   0  0  0  0  0  0  0  0  0  0  0  0
   36.1790   29.5040   32.6640 H   0  0  0  0  0  0  0  0  0  0  0  0
   35.9620   30.6180   35.1580 C   0  0  0  0  0  3  0  0  0  0  0  0
   35.0930   29.8380   34.4210 C   0  0  0  0  0  0  0  0  0  0  0  0
   33.7640   30.0290   34.7330 C   0  0  0  0  0  0  0  0  0  0  0  0
   33.0220   29.4480   34.1910 H   0  0  0  0  0  0  0  0  0  0  0  0
   33.3150   30.9110   35.6900 C   0  0  0  0  0  0  0  0  0  0  0  0
   32.0650   31.2150   36.1130 N   0  0  0  0  0  0  0  0  0  0  0  0
   32.2390   32.1610   37.0840 C   0  0  0  0  0  0  0  0  0  0  0  0
   31.5150   32.6880   37.6930 H   0  0  0  0  0  0  0  0  0  0  0  0
   33.5500   32.4000   37.2200 N   0  0  0  0  0  0  0  0  0  0  0  0
   34.2580   31.6400   36.3680 C   0  0  0  0  0  0  0  0  0  0  0  0
   35.6300   31.5320   36.1380 C   0  0  0  0  0  3  0  0  0  0  0  0
   31.1490   30.8530   35.8150 H   0  0  0  0  0  0  0  0  0  0  0  0
  1  2  2  0  0  0  0
  1  6  1  0  0  0  0
  2  3  1  0  0  0  0
  3  8  1  0  0  0  0
  3  4  2  0  0  0  0
  5  4  1  0  0  0  0
  5 23  1  0  0  0  0
  6  5  2  0  0  0  0
  7  1  1  0  0  0  0
  9 10  1  0  0  0  0
  9  2  1  0  0  0  0
 10 11  1  0  0  0  0
 11 12  2  0  0  0  0
 11 16  1  0  0  0  0
 12 17  1  0  0  0  0
 13 18  1  0  0  0  0
 13 12  1  0  0  0  0
 14 13  2  0  0  0  0
 15 14  1  0  0  0  0
 15 10  2  0  0  0  0
 19 21  1  0  0  0  0
 19 20  1  0  0  0  0
 19 14  1  0  0  0  0
 22 19  1  0  0  0  0
 24 23  1  0  0  0  0
 24 28  1  0  0  0  0
 25 24  1  0  0  0  0
 26 24  1  0  0  0  0
 27 37  1  0  0  0  0
 28 29  1  0  0  0  0
 28 27  2  0  0  0  0
 29 31  2  0  0  0  0
 30 29  1  0  0  0  0
 31 32  1  0  0  0  0
 31 36  1  0  0  0  0
 32 33  1  0  0  0  0
 33 35  2  0  0  0  0
 33 34  1  0  0  0  0
 36 35  1  0  0  0  0
 37 36  2  0  0  0  0
 38 32  1  0  0  0  0
M  END
>  <minimizedAffinity>
-5.71044445

$$$$

 OpenBabel03262522253D

 38 41  0  0  0  0  0  0  0  0999 V2000
   38.0040   25.4810   31.4860 C   0  0  0  0  0  0  0  0  0  0  0  0
   36.8790   24.6860   31.1860 C   0  0  0  0  0  0  0  0  0  0  0  0
   35.6410   25.2950   31.1450 C   0  0  0  0  0  0  0  0  0  0  0  0
   35.5810   26.6170   31.3950 N   0  0  0  0  0  0  0  0  0  0  0  0
   36.6440   27.3340   31.6730 C   0  0  0  0  0  0  0  0  0  0  0  0
   37.9120   26.7890   31.7300 N   0  0  0  0  0  0  0  0  0  0  0  0
   39.0050   25.0610   31.5330 H   0  0  0  0  0  0  0  0  0  0  0  0
   34.8150   24.6660   30.9150 H   0  0  0  0  0  0  0  0  0  0  0  0
   37.1570   23.3620   30.9630 O   0  0  0  0  0  0  0  0  0  0  0  0
   36.5730   22.4260   31.8380 C   0  0  0  0  0  0  0  0  0  0  0  0
   35.5430   21.5430   31.5760 C   0  0  0  0  0  0  0  0  0  0  0  0
   35.1130   20.7140   32.5490 C   0  0  0  0  0  0  0  0  0  0  0  0
   35.7130   20.7760   33.7740 C   0  0  0  0  0  0  0  0  0  0  0  0
   36.7400   21.6550   34.0380 C   0  0  0  0  0  0  0  0  0  0  0  0
   37.1430   22.4660   33.0420 N   0  0  0  0  0  0  0  0  0  0  0  0
   35.1660   21.6140   30.5490 H   0  0  0  0  0  0  0  0  0  0  0  0
   34.3010   20.0360   32.3020 H   0  0  0  0  0  0  0  0  0  0  0  0
   35.3770   20.1110   34.5770 H   0  0  0  0  0  0  0  0  0  0  0  0
   37.3850   21.7000   35.4010 C   0  0  0  0  0  0  0  0  0  0  0  0
   36.7510   21.0980   36.0830 H   0  0  0  0  0  0  0  0  0  0  0  0
   37.3540   22.7450   35.8160 H   0  0  0  0  0  0  0  0  0  0  0  0
   38.4230   21.3400   35.3270 H   0  0  0  0  0  0  0  0  0  0  0  0
   36.2290   29.0760   31.9610 S   0  0  0  0  0  0  0  0  0  0  0  0
   34.5980   29.0140   32.8000 C   0  0  0  0  0  0  0  0  0  0  0  0
   34.2990   27.9860   33.0380 H   0  0  0  0  0  0  0  0  0  0  0  0
   33.8720   29.4660   32.0770 H   0  0  0  0  0  0  0  0  0  0  0  0
   35.8300   30.2090   34.6040 C   0  0  0  0  0  3  0  0  0  0  0  0
   34.6390   29.9160   33.9710 C   0  0  0  0  0  0  0  0  0  0  0  0
   33.5390   30.5320   34.5300 C   0  0  0  0  0  0  0  0  0  0  0  0
   32.5670   30.3480   34.0840 H   0  0  0  0  0  0  0  0  0  0  0  0
   33.5960   31.3680   35.6230 C   0  0  0  0  0  0  0  0  0  0  0  0
   32.6270   32.0420   36.2860 N   0  0  0  0  0  0  0  0  0  0  0  0
   33.2790   32.7080   37.2870 C   0  0  0  0  0  0  0  0  0  0  0  0
   32.9020   33.3680   38.0580 H   0  0  0  0  0  0  0  0  0  0  0  0
   34.5870   32.4300   37.2060 N   0  0  0  0  0  0  0  0  0  0  0  0
   34.8290   31.5960   36.1800 C   0  0  0  0  0  0  0  0  0  0  0  0
   36.0090   31.0290   35.7000 C   0  0  0  0  0  3  0  0  0  0  0  0
   31.6120   32.0880   36.1280 H   0  0  0  0  0  0  0  0  0  0  0  0
  1  7  1  0  0  0  0
  1  6  1  0  0  0  0
  2  1  2  0  0  0  0
  3  2  1  0  0  0  0
  3  4  2  0  0  0  0
  4  5  1  0  0  0  0
  5  6  2  0  0  0  0
  5 23  1  0  0  0  0
  8  3  1  0  0  0  0
  9  2  1  0  0  0  0
  9 10  1  0  0  0  0
 10 15  1  0  0  0  0
 11 10  2  0  0  0  0
 11 12  1  0  0  0  0
 12 13  2  0  0  0  0
 13 14  1  0  0  0  0
 13 18  1  0  0  0  0
 14 19  1  0  0  0  0
 15 14  2  0  0  0  0
 16 11  1  0  0  0  0
 17 12  1  0  0  0  0
 19 21  1  0  0  0  0
 19 20  1  0  0  0  0
 22 19  1  0  0  0  0
 23 24  1  0  0  0  0
 24 25  1  0  0  0  0
 24 28  1  0  0  0  0
 26 24  1  0  0  0  0
 27 37  1  0  0  0  0
 28 29  1  0  0  0  0
 28 27  2  0  0  0  0
 29 31  2  0  0  0  0
 30 29  1  0  0  0  0
 31 36  1  0  0  0  0
 31 32  1  0  0  0  0
 32 33  1  0  0  0  0
 33 34  1  0  0  0  0
 35 33  2  0  0  0  0
 36 35  1  0  0  0  0
 37 36  2  0  0  0  0
 38 32  1  0  0  0  0
M  END
>  <minimizedAffinity>
-5.61208582

$$$$

 OpenBabel03262522253D

 38 41  0  0  0  0  0  0  0  0999 V2000
   35.4270   28.6030   33.0260 C   0  0  0  0  0  0  0  0  0  0  0  0
   35.4670   29.8930   32.4570 C   0  0  0  0  0  0  0  0  0  0  0  0
   36.4120   30.1490   31.4850 C   0  0  0  0  0  0  0  0  0  0  0  0
   37.2440   29.1490   31.1360 N   0  0  0  0  0  0  0  0  0  0  0  0
   37.1870   27.9580   31.6810 C   0  0  0  0  0  0  0  0  0  0  0  0
   36.2670   27.6330   32.6590 N   0  0  0  0  0  0  0  0  0  0  0  0
   34.7080   28.3390   33.7940 H   0  0  0  0  0  0  0  0  0  0  0  0
   36.4130   31.1320   31.0770 H   0  0  0  0  0  0  0  0  0  0  0  0
   34.5330   30.7660   32.9520 O   0  0  0  0  0  0  0  0  0  0  0  0
   34.7340   31.2500   34.2590 C   0  0  0  0  0  0  0  0  0  0  0  0
   35.8350   31.9210   34.7570 C   0  0  0  0  0  0  0  0  0  0  0  0
   35.8500   32.3110   36.0480 C   0  0  0  0  0  0  0  0  0  0  0  0
   34.7660   32.0270   36.8290 C   0  0  0  0  0  0  0  0  0  0  0  0
   33.6670   31.3590   36.3350 C   0  0  0  0  0  0  0  0  0  0  0  0
   33.6890   30.9850   35.0420 N   0  0  0  0  0  0  0  0  0  0  0  0
   36.6210   32.0720   34.0080 H   0  0  0  0  0  0  0  0  0  0  0  0
   36.7340   32.8350   36.3990 H   0  0  0  0  0  0  0  0  0  0  0  0
   34.7590   32.3360   37.8790 H   0  0  0  0  0  0  0  0  0  0  0  0
   32.4840   31.0600   37.2220 C   0  0  0  0  0  0  0  0  0  0  0  0
   32.7930   31.2790   38.2640 H   0  0  0  0  0  0  0  0  0  0  0  0
   32.2520   29.9590   37.2100 H   0  0  0  0  0  0  0  0  0  0  0  0
   31.6160   31.6460   36.8830 H   0  0  0  0  0  0  0  0  0  0  0  0
   38.4400   26.8390   30.9970 S   0  0  0  0  0  0  0  0  0  0  0  0
   39.8170   26.9180   32.2070 C   0  0  0  0  0  0  0  0  0  0  0  0
   40.2460   27.9240   32.2750 H   0  0  0  0  0  0  0  0  0  0  0  0
   40.5870   26.1970   31.8330 H   0  0  0  0  0  0  0  0  0  0  0  0
   39.2380   27.1880   34.6150 C   0  0  0  0  0  3  0  0  0  0  0  0
   39.3360   26.3810   33.4990 C   0  0  0  0  0  0  0  0  0  0  0  0
   38.9510   25.0750   33.7160 C   0  0  0  0  0  0  0  0  0  0  0  0
   39.0000   24.3810   32.8810 H   0  0  0  0  0  0  0  0  0  0  0  0
   38.5070   24.5920   34.9260 C   0  0  0  0  0  0  0  0  0  0  0  0
   38.0980   23.3570   35.3030 N   0  0  0  0  0  0  0  0  0  0  0  0
   37.7750   23.4780   36.6260 C   0  0  0  0  0  0  0  0  0  0  0  0
   37.4030   22.7460   37.3310 H   0  0  0  0  0  0  0  0  0  0  0  0
   37.9890   24.7450   37.0060 N   0  0  0  0  0  0  0  0  0  0  0  0
   38.4470   25.4750   35.9750 C   0  0  0  0  0  0  0  0  0  0  0  0
   38.8100   26.8180   35.8730 C   0  0  0  0  0  3  0  0  0  0  0  0
   38.0220   22.4820   34.7670 H   0  0  0  0  0  0  0  0  0  0  0  0
  1  7  1  0  0  0  0
  2  9  1  0  0  0  0
  2  1  2  0  0  0  0
  3  2  1  0  0  0  0
  4  3  2  0  0  0  0
  4  5  1  0  0  0  0
  5  6  2  0  0  0  0
  6  1  1  0  0  0  0
  8  3  1  0  0  0  0
  9 10  1  0  0  0  0
 10 11  2  0  0  0  0
 10 15  1  0  0  0  0
 11 12  1  0  0  0  0
 12 17  1  0  0  0  0
 12 13  2  0  0  0  0
 13 18  1  0  0  0  0
 14 13  1  0  0  0  0
 14 19  1  0  0  0  0
 15 14  2  0  0  0  0
 16 11  1  0  0  0  0
 19 20  1  0  0  0  0
 21 19  1  0  0  0  0
 22 19  1  0  0  0  0
 23  5  1  0  0  0  0
 23 24  1  0  0  0  0
 24 25  1  0  0  0  0
 24 28  1  0  0  0  0
 26 24  1  0  0  0  0
 27 37  1  0  0  0  0
 28 29  1  0  0  0  0
 28 27  2  0  0  0  0
 29 31  2  0  0  0  0
 30 29  1  0  0  0  0
 31 32  1  0  0  0  0
 31 36  1  0  0  0  0
 32 33  1  0  0  0  0
 33 35  2  0  0  0  0
 33 34  1  0  0  0  0
 36 35  1  0  0  0  0
 37 36  2  0  0  0  0
 38 32  1  0  0  0  0
M  END
>  <minimizedAffinity>
-5.58401299

$$$$

 OpenBabel03262522253D

 38 41  0  0  0  0  0  0  0  0999 V2000
   35.0950   28.6460   32.3450 C   0  0  0  0  0  0  0  0  0  0  0  0
   34.9930   29.2570   33.6120 C   0  0  0  0  0  0  0  0  0  0  0  0
   35.9450   28.9510   34.5630 C   0  0  0  0  0  0  0  0  0  0  0  0
   36.9180   28.0840   34.2240 N   0  0  0  0  0  0  0  0  0  0  0  0
   36.9900   27.5290   33.0390 C   0  0  0  0  0  0  0  0  0  0  0  0
   36.0720   27.7900   32.0400 N   0  0  0  0  0  0  0  0  0  0  0  0
   34.3780   28.8450   31.5550 H   0  0  0  0  0  0  0  0  0  0  0  0
   35.8370   29.4310   35.5070 H   0  0  0  0  0  0  0  0  0  0  0  0
   33.9280   30.1090   33.7530 O   0  0  0  0  0  0  0  0  0  0  0  0
   33.2370   30.0780   34.9790 C   0  0  0  0  0  0  0  0  0  0  0  0
   33.2360   31.0320   35.9790 C   0  0  0  0  0  0  0  0  0  0  0  0
   32.5070   30.8270   37.0950 C   0  0  0  0  0  0  0  0  0  0  0  0
   31.7870   29.6730   37.2020 C   0  0  0  0  0  0  0  0  0  0  0  0
   31.7850   28.7200   36.2070 C   0  0  0  0  0  0  0  0  0  0  0  0
   32.5250   28.9600   35.1080 N   0  0  0  0  0  0  0  0  0  0  0  0
   33.8630   31.9010   35.7450 H   0  0  0  0  0  0  0  0  0  0  0  0
   32.5350   31.6010   37.8570 H   0  0  0  0  0  0  0  0  0  0  0  0
   31.1890   29.4880   38.1000 H   0  0  0  0  0  0  0  0  0  0  0  0
   30.9780   27.4540   36.3530 C   0  0  0  0  0  0  0  0  0  0  0  0
   30.6360   27.4040   37.4060 H   0  0  0  0  0  0  0  0  0  0  0  0
   31.6360   26.5510   36.2150 H   0  0  0  0  0  0  0  0  0  0  0  0
   30.1580   27.4560   35.6190 H   0  0  0  0  0  0  0  0  0  0  0  0
   38.4110   26.4110   32.9000 S   0  0  0  0  0  0  0  0  0  0  0  0
   37.7100   24.7510   33.2480 C   0  0  0  0  0  0  0  0  0  0  0  0
   37.8400   24.0660   32.4020 H   0  0  0  0  0  0  0  0  0  0  0  0
   36.6200   24.9210   33.4390 H   0  0  0  0  0  0  0  0  0  0  0  0
   37.8460   24.7390   35.7350 C   0  0  0  0  0  3  0  0  0  0  0  0
   38.2850   24.2570   34.5180 C   0  0  0  0  0  0  0  0  0  0  0  0
   39.2770   23.3040   34.6160 C   0  0  0  0  0  0  0  0  0  0  0  0
   39.6710   22.8790   33.6970 H   0  0  0  0  0  0  0  0  0  0  0  0
   39.8020   22.8570   35.8070 C   0  0  0  0  0  0  0  0  0  0  0  0
   40.7650   21.9430   36.0750 N   0  0  0  0  0  0  0  0  0  0  0  0
   40.8610   21.9180   37.4380 C   0  0  0  0  0  0  0  0  0  0  0  0
   41.4990   21.3340   38.0900 H   0  0  0  0  0  0  0  0  0  0  0  0
   39.9810   22.7900   37.9470 N   0  0  0  0  0  0  0  0  0  0  0  0
   39.2980   23.3990   36.9620 C   0  0  0  0  0  0  0  0  0  0  0  0
   38.2950   24.3670   36.9860 C   0  0  0  0  0  3  0  0  0  0  0  0
   41.3350   21.3620   35.4450 H   0  0  0  0  0  0  0  0  0  0  0  0
  1  2  1  0  0  0  0
  2  9  1  0  0  0  0
  2  3  2  0  0  0  0
  3  8  1  0  0  0  0
  4  3  1  0  0  0  0
  5  4  2  0  0  0  0
  6  1  2  0  0  0  0
  6  5  1  0  0  0  0
  7  1  1  0  0  0  0
  9 10  1  0  0  0  0
 10 15  2  0  0  0  0
 10 11  1  0  0  0  0
 11 12  2  0  0  0  0
 12 13  1  0  0  0  0
 12 17  1  0  0  0  0
 13 18  1  0  0  0  0
 14 19  1  0  0  0  0
 14 13  2  0  0  0  0
 15 14  1  0  0  0  0
 16 11  1  0  0  0  0
 19 20  1  0  0  0  0
 21 19  1  0  0  0  0
 22 19  1  0  0  0  0
 23  5  1  0  0  0  0
 23 24  1  0  0  0  0
 24 26  1  0  0  0  0
 24 28  1  0  0  0  0
 25 24  1  0  0  0  0
 27 37  1  0  0  0  0
 28 29  1  0  0  0  0
 28 27  2  0  0  0  0
 29 31  2  0  0  0  0
 30 29  1  0  0  0  0
 31 32  1  0  0  0  0
 31 36  1  0  0  0  0
 32 33  1  0  0  0  0
 33 35  2  0  0  0  0
 33 34  1  0  0  0  0
 36 37  2  0  0  0  0
 36 35  1  0  0  0  0
 38 32  1  0  0  0  0
M  END
>  <minimizedAffinity>
-5.51633215

$$$$

 OpenBabel03262522253D

 38 41  0  0  0  0  0  0  0  0999 V2000
   35.3290   25.1040   31.1950 C   0  0  0  0  0  0  0  0  0  0  0  0
   36.3840   26.0270   31.0370 C   0  0  0  0  0  0  0  0  0  0  0  0
   37.6680   25.5360   30.9120 C   0  0  0  0  0  0  0  0  0  0  0  0
   37.8370   24.2010   30.9490 N   0  0  0  0  0  0  0  0  0  0  0  0
   36.8390   23.3640   31.0980 C   0  0  0  0  0  0  0  0  0  0  0  0
   35.5300   23.7860   31.2290 N   0  0  0  0  0  0  0  0  0  0  0  0
   34.2980   25.4280   31.2980 H   0  0  0  0  0  0  0  0  0  0  0  0
   38.4380   26.2600   30.7930 H   0  0  0  0  0  0  0  0  0  0  0  0
   35.9970   27.3430   31.0240 O   0  0  0  0  0  0  0  0  0  0  0  0
   35.8930   27.9940   32.2690 C   0  0  0  0  0  0  0  0  0  0  0  0
   36.6890   27.8260   33.3860 C   0  0  0  0  0  0  0  0  0  0  0  0
   36.4350   28.5430   34.4990 C   0  0  0  0  0  0  0  0  0  0  0  0
   35.3900   29.4210   34.4860 C   0  0  0  0  0  0  0  0  0  0  0  0
   34.5950   29.5920   33.3740 C   0  0  0  0  0  0  0  0  0  0  0  0
   34.8790   28.8580   32.2820 N   0  0  0  0  0  0  0  0  0  0  0  0
   37.4850   27.0860   33.2390 H   0  0  0  0  0  0  0  0  0  0  0  0
   37.0840   28.3810   35.3550 H   0  0  0  0  0  0  0  0  0  0  0  0
   35.1680   30.0140   35.3800 H   0  0  0  0  0  0  0  0  0  0  0  0
   33.4470   30.5710   33.3900 C   0  0  0  0  0  0  0  0  0  0  0  0
   33.3000   30.8850   34.4420 H   0  0  0  0  0  0  0  0  0  0  0  0
   32.4890   30.0570   33.1000 H   0  0  0  0  0  0  0  0  0  0  0  0
   33.6670   31.4030   32.7040 H   0  0  0  0  0  0  0  0  0  0  0  0
   37.3970   21.6380   31.1100 S   0  0  0  0  0  0  0  0  0  0  0  0
   36.8090   20.9890   32.7220 C   0  0  0  0  0  0  0  0  0  0  0  0
   36.7520   19.8940   32.7270 H   0  0  0  0  0  0  0  0  0  0  0  0
   35.7880   21.4260   32.8660 H   0  0  0  0  0  0  0  0  0  0  0  0
   38.9990   21.8090   33.5780 C   0  0  0  0  0  3  0  0  0  0  0  0
   37.6600   21.5530   33.7930 C   0  0  0  0  0  0  0  0  0  0  0  0
   37.2240   21.8690   35.0620 C   0  0  0  0  0  0  0  0  0  0  0  0
   36.1790   21.6940   35.3030 H   0  0  0  0  0  0  0  0  0  0  0  0
   38.0310   22.3910   36.0470 C   0  0  0  0  0  0  0  0  0  0  0  0
   37.7670   22.7510   37.3260 N   0  0  0  0  0  0  0  0  0  0  0  0
   38.9570   23.2040   37.8210 C   0  0  0  0  0  0  0  0  0  0  0  0
   39.2130   23.5910   38.7990 H   0  0  0  0  0  0  0  0  0  0  0  0
   39.8850   23.1120   36.8590 N   0  0  0  0  0  0  0  0  0  0  0  0
   39.3490   22.6090   35.7340 C   0  0  0  0  0  0  0  0  0  0  0  0
   39.9010   22.3290   34.4840 C   0  0  0  0  0  3  0  0  0  0  0  0
   36.8910   22.7170   37.8660 H   0  0  0  0  0  0  0  0  0  0  0  0
  1  6  1  0  0  0  0
  1  7  1  0  0  0  0
  2  1  2  0  0  0  0
  3  4  2  0  0  0  0
  3  2  1  0  0  0  0
  4  5  1  0  0  0  0
  5 23  1  0  0  0  0
  5  6  2  0  0  0  0
  8  3  1  0  0  0  0
  9  2  1  0  0  0  0
  9 10  1  0  0  0  0
 10 15  2  0  0  0  0
 10 11  1  0  0  0  0
 11 12  2  0  0  0  0
 12 17  1  0  0  0  0
 13 12  1  0  0  0  0
 13 18  1  0  0  0  0
 14 19  1  0  0  0  0
 14 13  2  0  0  0  0
 15 14  1  0  0  0  0
 16 11  1  0  0  0  0
 19 20  1  0  0  0  0
 21 19  1  0  0  0  0
 22 19  1  0  0  0  0
 23 24  1  0  0  0  0
 24 25  1  0  0  0  0
 24 26  1  0  0  0  0
 24 28  1  0  0  0  0
 27 28  2  0  0  0  0
 27 37  1  0  0  0  0
 28 29  1  0  0  0  0
 29 30  1  0  0  0  0
 29 31  2  0  0  0  0
 31 32  1  0  0  0  0
 32 33  1  0  0  0  0
 32 38  1  0  0  0  0
 33 34  1  0  0  0  0
 35 33  2  0  0  0  0
 36 31  1  0  0  0  0
 36 35  1  0  0  0  0
 37 36  2  0  0  0  0
M  END
>  <minimizedAffinity>
-5.48077059

$$$$
