
 OpenBabel03262521463D

 33 35  0  0  0  0  0  0  0  0999 V2000
   34.6730   30.6700   49.2680 O   0  0  0  0  0  0  0  0  0  0  0  0
   34.4480   29.4510   50.1440 P   0  0  2  0  0  0  0  0  0  0  0  0
   32.9490   29.6690   50.8770 O   0  0  0  0  0  0  0  0  0  0  0  0
   33.0700   29.4310   51.8290 H   0  0  0  0  0  0  0  0  0  0  0  0
   35.6880   29.4060   51.3070 O   0  0  0  0  0  0  0  0  0  0  0  0
   36.9390   29.2260   50.7060 C   0  0  0  0  0  0  0  0  0  0  0  0
   36.7580   29.0230   49.6450 H   0  0  0  0  0  0  0  0  0  0  0  0
   37.4260   28.3220   51.1280 H   0  0  0  0  0  0  0  0  0  0  0  0
   37.7160   30.4880   50.8770 C   0  0  0  0  0  0  0  0  0  0  0  0
   37.2420   31.2300   51.5650 H   0  0  0  0  0  0  0  0  0  0  0  0
   38.6850   30.1960   51.3760 H   0  0  0  0  0  0  0  0  0  0  0  0
   38.0880   31.1660   49.6340 C   0  0  0  0  0  0  0  0  0  0  0  0
   38.5370   32.4710   49.6000 C   0  0  0  0  0  0  0  0  0  0  0  0
   38.8670   33.0190   48.3420 C   0  0  0  0  0  0  0  0  0  0  0  0
   38.7240   32.2340   47.2290 N   0  0  0  0  0  0  0  0  0  0  0  0
   38.2740   30.9460   47.3210 C   0  0  0  0  0  0  0  0  0  0  0  0
   37.9590   30.4230   48.5310 N   0  0  0  0  0  0  0  0  0  0  0  0
   38.6180   33.0170   50.5310 H   0  0  0  0  0  0  0  0  0  0  0  0
   39.2160   34.0300   48.3010 H   0  0  0  0  0  0  0  0  0  0  0  0
   38.1870   30.3850   46.4000 H   0  0  0  0  0  0  0  0  0  0  0  0
   34.4210   28.0440   49.2460 O   0  0  0  0  0  0  0  0  0  0  0  0
   34.2590   28.7850   46.8730 C   0  0  0  0  0  3  0  0  0  0  0  0
   34.1800   27.8850   47.9050 C   0  0  0  0  0  0  0  0  0  0  0  0
   33.7940   26.5710   47.6180 C   0  0  0  0  0  0  0  0  0  0  0  0
   33.6900   25.7520   48.3420 H   0  0  0  0  0  0  0  0  0  0  0  0
   33.4970   26.1790   46.3090 C   0  0  0  0  0  0  0  0  0  0  0  0
   33.1110   25.0340   45.7160 N   0  0  0  0  0  0  0  0  0  0  0  0
   32.9710   25.2620   44.3830 C   0  0  0  0  0  0  0  0  0  0  0  0
   32.6640   24.4910   43.6700 H   0  0  0  0  0  0  0  0  0  0  0  0
   33.2720   26.5660   44.1280 N   0  0  0  0  0  0  0  0  0  0  0  0
   33.5930   27.1250   45.3060 C   0  0  0  0  0  0  0  0  0  0  0  0
   33.9730   28.4280   45.5810 C   0  0  0  0  0  3  0  0  0  0  0  0
   32.9620   24.1590   46.2370 H   0  0  0  0  0  0  0  0  0  0  0  0
  2  1  2  6  0  0  0
  2  3  1  0  0  0  0
  2  5  1  0  0  0  0
  3  4  1  0  0  0  0
  6  9  1  0  0  0  0
  6  8  1  0  0  0  0
  6  5  1  0  0  0  0
  7  6  1  0  0  0  0
  9 11  1  0  0  0  0
  9 10  1  0  0  0  0
 12  9  1  0  0  0  0
 13 12  1  0  0  0  0
 13 18  1  0  0  0  0
 14 13  2  0  0  0  0
 15 16  2  0  0  0  0
 15 14  1  0  0  0  0
 16 17  1  0  0  0  0
 17 12  2  0  0  0  0
 19 14  1  0  0  0  0
 20 16  1  0  0  0  0
 21  2  1  0  0  0  0
 22 23  1  0  0  0  0
 23 21  1  0  0  0  0
 24 23  2  0  0  0  0
 24 25  1  0  0  0  0
 26 24  1  0  0  0  0
 27 33  1  0  0  0  0
 27 26  1  0  0  0  0
 28 27  1  0  0  0  0
 29 28  1  0  0  0  0
 30 28  2  0  0  0  0
 30 31  1  0  0  0  0
 31 32  1  0  0  0  0
 31 26  2  0  0  0  0
 32 22  2  0  0  0  0
M  END
>  <minimizedAffinity>
-5.32790852

>  <minimizedRMSD>
0.614871919

$$$$
