
 OpenBabel03272508513D

 32 35  0  0  1  0  0  0  0  0999 V2000
   38.2760   31.3360   43.0550 C   0  0  2  0  0  0  0  0  0  0  0  0
   36.8810   31.5660   43.4160 C   0  0  0  0  0  0  0  0  0  0  0  0
   38.0140   32.4520   43.9600 C   0  0  1  0  0  0  0  0  0  0  0  0
   38.9230   30.5290   43.5330 H   0  0  0  0  0  0  0  0  0  0  0  0
   36.3850   30.9620   44.1700 H   0  0  0  0  0  0  0  0  0  0  0  0
   36.2370   31.9630   42.6050 H   0  0  0  0  0  0  0  0  0  0  0  0
   37.7730   33.5000   43.7010 H   0  0  0  0  0  0  0  0  0  0  0  0
   40.2470   31.0710   39.9220 C   0  0  0  0  0  0  0  0  0  0  0  0
   39.7590   32.1780   39.1860 C   0  0  0  0  0  0  0  0  0  0  0  0
   38.7510   33.0140   39.7670 C   0  0  0  0  0  0  0  0  0  0  0  0
   38.3130   32.6930   41.0110 N   0  0  0  0  0  0  0  0  0  0  0  0
   38.8090   31.6200   41.6840 C   0  0  0  0  0  0  0  0  0  0  0  0
   39.7560   30.8080   41.1760 N   0  0  0  0  0  0  0  0  0  0  0  0
   41.0020   30.5030   39.4030 H   0  0  0  0  0  0  0  0  0  0  0  0
   40.1380   32.3950   38.1960 H   0  0  0  0  0  0  0  0  0  0  0  0
   38.3640   33.8620   39.2250 H   0  0  0  0  0  0  0  0  0  0  0  0
   37.4380   31.3060   46.0690 C   0  0  0  0  0  0  0  0  0  0  0  0
   36.5890   30.6270   45.4410 O   0  0  0  0  0  0  0  0  0  0  0  0
   38.3050   32.2230   45.3800 N   0  0  0  0  0  0  0  0  0  0  0  0
   39.1050   32.7240   45.8110 H   0  0  0  0  0  0  0  0  0  0  0  0
   38.4310   31.8880   48.3340 C   0  0  0  0  0  3  0  0  0  0  0  0
   37.5690   31.1840   47.5180 C   0  0  0  0  0  0  0  0  0  0  0  0
   36.7550   30.2710   48.1850 C   0  0  0  0  0  0  0  0  0  0  0  0
   36.0610   29.6920   47.5940 H   0  0  0  0  0  0  0  0  0  0  0  0
   36.7560   30.0380   49.5450 C   0  0  0  0  0  0  0  0  0  0  0  0
   36.0500   29.2100   50.3270 N   0  0  0  0  0  0  0  0  0  0  0  0
   36.4920   29.4250   51.5900 C   0  0  0  0  0  0  0  0  0  0  0  0
   36.1200   28.9080   52.4750 H   0  0  0  0  0  0  0  0  0  0  0  0
   37.4670   30.3810   51.5910 N   0  0  0  0  0  0  0  0  0  0  0  0
   37.6350   30.7660   50.3170 C   0  0  0  0  0  0  0  0  0  0  0  0
   38.4600   31.6830   49.6970 C   0  0  0  0  0  3  0  0  0  0  0  0
   35.3110   28.5360   50.0370 H   0  0  0  0  0  0  0  0  0  0  0  0
  1  2  1  0  0  0  0
  1  4  1  1  0  0  0
  1  3  1  0  0  0  0
  2  3  1  0  0  0  0
  2  5  1  0  0  0  0
  3  7  1  6  0  0  0
  3 19  1  0  0  0  0
  6  2  1  0  0  0  0
  8 13  1  0  0  0  0
  9 10  1  0  0  0  0
  9  8  2  0  0  0  0
 10 11  2  0  0  0  0
 11 12  1  0  0  0  0
 12  1  1  0  0  0  0
 13 12  2  0  0  0  0
 14  8  1  0  0  0  0
 15  9  1  0  0  0  0
 16 10  1  0  0  0  0
 17 22  1  0  0  0  0
 18 17  2  0  0  0  0
 19 20  1  0  0  0  0
 19 17  1  0  0  0  0
 21 31  1  0  0  0  0
 22 23  1  0  0  0  0
 22 21  2  0  0  0  0
 23 25  2  0  0  0  0
 24 23  1  0  0  0  0
 25 30  1  0  0  0  0
 25 26  1  0  0  0  0
 26 27  1  0  0  0  0
 27 29  2  0  0  0  0
 27 28  1  0  0  0  0
 30 29  1  0  0  0  0
 31 30  2  0  0  0  0
 32 26  1  0  0  0  0
M  END
>  <minimizedAffinity>
-5.23949385

>  <minimizedRMSD>
4.84869385

$$$$
