REMARK  Name = 
REMARK  3 active torsions:
REMARK  status: ('A' for Active; 'I' for Inactive)
REMARK    1  A    between atoms: N_1  and  C_6
REMARK    2  A    between atoms: C_4  and  C_14
REMARK    3  A    between atoms: C_18  and  C_33
REMARK                            x       y       z     vdW  Elec       q    Type
REMARK                         _______ _______ _______ _____ _____    ______ ____
ROOT
ATOM      1  F   UNL     1      37.381  32.097  48.462  0.00  0.00    +0.000 F 
ATOM      2  C   UNL     1      36.972  31.159  49.339  0.00  0.00    +0.000 A 
ATOM      3  C   UNL     1      35.903  30.311  49.207  0.00  0.00    +0.000 A 
ATOM      4  C   UNL     1      35.654  29.381  50.232  0.00  0.00    +0.000 A 
ATOM      5  C   UNL     1      36.453  29.308  51.353  0.00  0.00    +0.000 A 
ATOM      6  C   UNL     1      37.528  30.177  51.463  0.00  0.00    +0.000 A 
ATOM      7  C   UNL     1      37.792  31.112  50.445  0.00  0.00    +0.000 A 
ATOM      8  H   UNL     1      34.792  28.767  50.022  0.00  0.00    +0.000 HD
ATOM      9  H   UNL     1      36.189  28.566  52.093  0.00  0.00    +0.000 HD
ATOM     10  H   UNL     1      38.133  30.091  52.356  0.00  0.00    +0.000 HD
ENDROOT
BRANCH   3  14
ATOM     11  N   UNL     1      33.551  29.870  46.495  0.00  0.00    +0.000 N 
ATOM     12  C   UNL     1      34.782  29.782  45.725  0.00  0.00    +0.000 C 
ATOM     13  C   UNL     1      35.842  30.099  46.740  0.00  0.00    +0.000 C 
ATOM     14  C   UNL     1      35.043  30.543  48.040  0.00  0.00    +0.000 C 
ATOM     15  C   UNL     1      33.873  29.667  47.923  0.00  0.00    +0.000 C 
ATOM     16  H   UNL     1      34.899  28.712  45.411  0.00  0.00    +0.000 HD
ATOM     17  H   UNL     1      34.775  30.435  44.840  0.00  0.00    +0.000 HD
ATOM     18  H   UNL     1      36.507  30.924  46.498  0.00  0.00    +0.000 HD
ATOM     19  H   UNL     1      36.458  29.229  47.017  0.00  0.00    +0.000 HD
ATOM     20  H   UNL     1      34.920  31.600  47.814  0.00  0.00    +0.000 HD
ATOM     21  H   UNL     1      33.008  29.938  48.541  0.00  0.00    +0.000 HD
ATOM     22  H   UNL     1      34.150  28.599  48.001  0.00  0.00    +0.000 HD
BRANCH  11  23
ATOM     23  C   UNL     1      32.251  30.114  46.005  0.00  0.00    +0.000 A 
ATOM     24  C   UNL     1      32.110  31.252  45.195  0.00  0.00    +0.000 A 
ATOM     25  C   UNL     1      30.841  31.563  44.682  0.00  0.00    +0.000 A 
ATOM     26  N   UNL     1      29.812  30.706  45.022  0.00  0.00    +0.000 NA
ATOM     27  C   UNL     1      29.990  29.626  45.800  0.00  0.00    +0.000 A 
ATOM     28  N   UNL     1      31.216  29.333  46.292  0.00  0.00    +0.000 NA
ATOM     29  H   UNL     1      32.942  31.881  44.963  0.00  0.00    +0.000 HD
ATOM     30  H   UNL     1      30.715  32.420  44.067  0.00  0.00    +0.000 HD
ATOM     31  H   UNL     1      29.160  28.983  46.042  0.00  0.00    +0.000 HD
ENDBRANCH  11  23
ENDBRANCH   3  14
BRANCH   7  33
ATOM     32  C   UNL     1      39.577  32.115  51.907  0.00  0.00    +0.000 A 
ATOM     33  C   UNL     1      38.950  31.972  50.668  0.00  0.00    +0.000 A 
ATOM     34  C   UNL     1      39.433  32.670  49.585  0.00  0.00    +0.000 A 
ATOM     35  H   UNL     1      38.983  32.597  48.593  0.00  0.00    +0.000 HD
ATOM     36  C   UNL     1      40.527  33.502  49.729  0.00  0.00    +0.000 A 
ATOM     37  N   UNL     1      41.198  34.290  48.850  0.00  0.00    +0.000 N 
ATOM     38  C   UNL     1      42.217  34.916  49.502  0.00  0.00    +0.000 A 
ATOM     39  H   UNL     1      42.933  35.612  49.071  0.00  0.00    +0.000 HD
ATOM     40  N   UNL     1      42.209  34.532  50.811  0.00  0.00    +0.000 NA
ATOM     41  C   UNL     1      41.175  33.669  50.942  0.00  0.00    +0.000 A 
ATOM     42  C   UNL     1      40.669  32.955  52.020  0.00  0.00    +0.000 A 
ATOM     43  H   UNL     1      40.988  34.420  47.818  0.00  0.00    +0.000 HD
ENDBRANCH   7  33
TORSDOF 3
