
 OpenBabel03262521463D

 33 35  0  0  0  0  0  0  0  0999 V2000
   34.6860   30.6250   49.1770 O   0  0  0  0  0  0  0  0  0  0  0  0
   34.4340   29.4300   50.0800 P   0  0  2  0  0  0  0  0  0  0  0  0
   32.9830   29.7390   50.8750 O   0  0  0  0  0  0  0  0  0  0  0  0
   33.1340   29.5060   51.8230 H   0  0  0  0  0  0  0  0  0  0  0  0
   35.7210   29.3330   51.1880 O   0  0  0  0  0  0  0  0  0  0  0  0
   36.9510   29.2270   50.5280 C   0  0  0  0  0  0  0  0  0  0  0  0
   36.7320   29.1120   49.4600 H   0  0  0  0  0  0  0  0  0  0  0  0
   37.4660   28.2990   50.8510 H   0  0  0  0  0  0  0  0  0  0  0  0
   37.7150   30.4840   50.7780 C   0  0  0  0  0  0  0  0  0  0  0  0
   37.2170   31.1920   51.4830 H   0  0  0  0  0  0  0  0  0  0  0  0
   38.6700   30.1740   51.2920 H   0  0  0  0  0  0  0  0  0  0  0  0
   38.1200   31.2180   49.5780 C   0  0  0  0  0  0  0  0  0  0  0  0
   38.5480   32.5300   49.6130 C   0  0  0  0  0  0  0  0  0  0  0  0
   38.9130   33.1350   48.3920 C   0  0  0  0  0  0  0  0  0  0  0  0
   38.8240   32.3940   47.2430 N   0  0  0  0  0  0  0  0  0  0  0  0
   38.3930   31.0970   47.2650 C   0  0  0  0  0  0  0  0  0  0  0  0
   38.0430   30.5200   48.4410 N   0  0  0  0  0  0  0  0  0  0  0  0
   38.5870   33.0380   50.5680 H   0  0  0  0  0  0  0  0  0  0  0  0
   39.2470   34.1520   48.4050 H   0  0  0  0  0  0  0  0  0  0  0  0
   38.3480   30.5740   46.3200 H   0  0  0  0  0  0  0  0  0  0  0  0
   34.2920   28.0160   49.2040 O   0  0  0  0  0  0  0  0  0  0  0  0
   33.8540   27.8970   46.7540 C   0  0  0  0  0  3  0  0  0  0  0  0
   33.5400   27.7720   48.0830 C   0  0  0  0  0  0  0  0  0  0  0  0
   32.2580   27.3280   48.4280 C   0  0  0  0  0  0  0  0  0  0  0  0
   31.8730   27.1840   49.4460 H   0  0  0  0  0  0  0  0  0  0  0  0
   31.3160   27.0170   47.4420 C   0  0  0  0  0  0  0  0  0  0  0  0
   30.0440   26.5810   47.4370 N   0  0  0  0  0  0  0  0  0  0  0  0
   29.6330   26.4560   46.1470 C   0  0  0  0  0  0  0  0  0  0  0  0
   28.6320   26.1170   45.8650 H   0  0  0  0  0  0  0  0  0  0  0  0
   30.6570   26.8180   45.3260 N   0  0  0  0  0  0  0  0  0  0  0  0
   31.6840   27.1600   46.1180 C   0  0  0  0  0  0  0  0  0  0  0  0
   32.9500   27.5990   45.7680 C   0  0  0  0  0  3  0  0  0  0  0  0
   29.5150   26.3890   48.3010 H   0  0  0  0  0  0  0  0  0  0  0  0
  2  1  2  6  0  0  0
  2  3  1  0  0  0  0
  2  5  1  0  0  0  0
  3  4  1  0  0  0  0
  6  9  1  0  0  0  0
  6  8  1  0  0  0  0
  6  5  1  0  0  0  0
  7  6  1  0  0  0  0
  9 11  1  0  0  0  0
  9 10  1  0  0  0  0
 12 13  1  0  0  0  0
 12  9  1  0  0  0  0
 13 18  1  0  0  0  0
 14 19  1  0  0  0  0
 14 13  2  0  0  0  0
 15 16  2  0  0  0  0
 15 14  1  0  0  0  0
 16 17  1  0  0  0  0
 17 12  2  0  0  0  0
 20 16  1  0  0  0  0
 21  2  1  0  0  0  0
 22 23  1  0  0  0  0
 23 24  2  0  0  0  0
 23 21  1  0  0  0  0
 24 25  1  0  0  0  0
 26 24  1  0  0  0  0
 27 26  1  0  0  0  0
 27 33  1  0  0  0  0
 28 27  1  0  0  0  0
 29 28  1  0  0  0  0
 30 31  1  0  0  0  0
 30 28  2  0  0  0  0
 31 26  2  0  0  0  0
 32 31  1  0  0  0  0
 32 22  2  0  0  0  0
M  END
>  <minimizedAffinity>
-5.44785976

>  <minimizedRMSD>
1.61279655

$$$$
