REMARK  Name = 
REMARK  4 active torsions:
REMARK  status: ('A' for Active; 'I' for Inactive)
REMARK    1  A    between atoms: C_1  and  C_8
REMARK    2  A    between atoms: C_6  and  C_13
REMARK    3  A    between atoms: C_13  and  C_14
REMARK    4  A    between atoms: C_14  and  C_33
REMARK                            x       y       z     vdW  Elec       q    Type
REMARK                         _______ _______ _______ _____ _____    ______ ____
ROOT
ATOM      1  C   UNL     1      35.289  30.623  48.962  0.00  0.00    +0.000 C 
ATOM      2  C   UNL     1      34.790  30.168  50.242  0.00  0.00    +0.000 C 
ATOM      3  C   UNL     1      35.629  29.153  50.988  0.00  0.00    +0.000 C 
ATOM      4  C   UNL     1      37.107  29.344  50.883  0.00  0.00    +0.000 C 
ATOM      5  C   UNL     1      37.645  29.842  49.593  0.00  0.00    +0.000 C 
ATOM      6  C   UNL     1      36.779  30.874  48.971  0.00  0.00    +0.000 C 
ATOM      7  H   UNL     1      34.874  31.657  48.750  0.00  0.00    +0.000 HD
ATOM      8  H   UNL     1      33.760  29.829  50.303  0.00  0.00    +0.000 HD
ATOM      9  H   UNL     1      34.815  31.065  50.934  0.00  0.00    +0.000 HD
ATOM     10  H   UNL     1      35.388  28.121  50.638  0.00  0.00    +0.000 HD
ATOM     11  H   UNL     1      35.355  29.169  52.063  0.00  0.00    +0.000 HD
ATOM     12  H   UNL     1      37.459  29.994  51.725  0.00  0.00    +0.000 HD
ATOM     13  H   UNL     1      37.590  28.361  51.084  0.00  0.00    +0.000 HD
ATOM     14  H   UNL     1      37.888  29.038  48.853  0.00  0.00    +0.000 HD
ATOM     15  H   UNL     1      38.621  30.329  49.799  0.00  0.00    +0.000 HD
ATOM     16  H   UNL     1      37.183  31.129  47.993  0.00  0.00    +0.000 HD
ENDROOT
BRANCH   1  18
ATOM     17  C   UNL     1      33.989  28.735  47.829  0.00  0.00    +0.000 A 
ATOM     18  C   UNL     1      34.878  29.854  47.775  0.00  0.00    +0.000 A 
ATOM     19  C   UNL     1      35.346  30.179  46.512  0.00  0.00    +0.000 A 
ATOM     20  N   UNL     1      34.952  29.444  45.428  0.00  0.00    +0.000 NA
ATOM     21  C   UNL     1      34.116  28.404  45.541  0.00  0.00    +0.000 A 
ATOM     22  N   UNL     1      33.629  28.048  46.761  0.00  0.00    +0.000 NA
ATOM     23  H   UNL     1      33.606  28.457  48.803  0.00  0.00    +0.000 HD
ATOM     24  H   UNL     1      36.019  30.998  46.334  0.00  0.00    +0.000 HD
ATOM     25  H   UNL     1      33.876  27.900  44.617  0.00  0.00    +0.000 HD
ENDBRANCH   1  18
BRANCH   6  26
ATOM     26  C   UNL     1      36.946  32.120  49.882  0.00  0.00    +0.000 C 
ATOM     27  H   UNL     1      36.026  32.764  49.816  0.00  0.00    +0.000 HD
ATOM     28  H   UNL     1      37.135  31.840  50.920  0.00  0.00    +0.000 HD
BRANCH  26  29
ATOM     29  C   UNL     1      38.057  33.017  49.329  0.00  0.00    +0.000 C 
ATOM     30  H   UNL     1      37.758  33.323  48.299  0.00  0.00    +0.000 HD
ATOM     31  H   UNL     1      38.985  32.429  49.335  0.00  0.00    +0.000 HD
BRANCH  29  33
ATOM     32  C   UNL     1      37.716  34.374  51.475  0.00  0.00    +0.000 A 
ATOM     33  C   UNL     1      38.216  34.208  50.200  0.00  0.00    +0.000 A 
ATOM     34  C   UNL     1      38.941  35.272  49.689  0.00  0.00    +0.000 A 
ATOM     35  H   UNL     1      39.364  35.201  48.682  0.00  0.00    +0.000 HD
ATOM     36  C   UNL     1      39.198  36.461  50.342  0.00  0.00    +0.000 A 
ATOM     37  N   UNL     1      39.854  37.574  50.033  0.00  0.00    +0.000 N 
ATOM     38  C   UNL     1      39.757  38.396  51.091  0.00  0.00    +0.000 A 
ATOM     39  H   UNL     1      40.229  39.376  51.053  0.00  0.00    +0.000 HD
ATOM     40  N   UNL     1      39.036  37.783  52.056  0.00  0.00    +0.000 NA
ATOM     41  C   UNL     1      38.675  36.576  51.614  0.00  0.00    +0.000 A 
ATOM     42  C   UNL     1      37.938  35.539  52.179  0.00  0.00    +0.000 A 
ATOM     43  H   UNL     1      40.341  37.735  49.122  0.00  0.00    +0.000 HD
ENDBRANCH  29  33
ENDBRANCH  26  29
ENDBRANCH   6  26
TORSDOF 4
