
 OpenBabel03272509573D

 49 53  0  0  0  0  0  0  0  0999 V2000
   33.5700   27.5550   47.6890 C   0  0  0  0  0  0  0  0  0  0  0  0
   33.7750   27.3070   46.6100 H   0  0  0  0  0  0  0  0  0  0  0  0
   33.7920   26.6480   48.2500 H   0  0  0  0  0  0  0  0  0  0  0  0
   32.1220   27.8690   47.8150 C   0  0  0  0  0  0  0  0  0  0  0  0
   31.4710   27.4810   48.9740 C   0  0  0  0  0  0  0  0  0  0  0  0
   30.1330   27.7330   49.1670 C   0  0  0  0  0  0  0  0  0  0  0  0
   29.4400   28.3670   48.2210 N   0  0  0  0  0  0  0  0  0  0  0  0
   30.0900   28.7460   47.0820 C   0  0  0  0  0  0  0  0  0  0  0  0
   31.3970   28.5070   46.8770 N   0  0  0  0  0  0  0  0  0  0  0  0
   32.0270   26.9660   49.7450 H   0  0  0  0  0  0  0  0  0  0  0  0
   29.5920   27.4450   50.0600 H   0  0  0  0  0  0  0  0  0  0  0  0
   29.2960   29.4520   46.0380 C   0  0  0  0  0  0  0  0  0  0  0  0
   30.0250   29.9650   45.3760 H   0  0  0  0  0  0  0  0  0  0  0  0
   28.6370   30.2270   46.4770 H   0  0  0  0  0  0  0  0  0  0  0  0
   29.0700   27.3170   44.6660 C   0  0  0  0  0  3  0  0  0  0  0  0
   28.5300   28.4740   45.2200 C   0  0  0  0  0  0  0  0  0  0  0  0
   27.1770   28.7300   44.9910 C   0  0  0  0  0  0  0  0  0  0  0  0
   26.7450   29.6420   45.4260 H   0  0  0  0  0  0  0  0  0  0  0  0
   26.3790   27.8930   44.2500 C   0  0  0  0  0  0  0  0  0  0  0  0
   25.0960   27.9000   43.8880 N   0  0  0  0  0  0  0  0  0  0  0  0
   24.7840   26.8320   43.1440 C   0  0  0  0  0  0  0  0  0  0  0  0
   23.7880   26.6410   42.7440 H   0  0  0  0  0  0  0  0  0  0  0  0
   25.9270   26.0980   43.0210 N   0  0  0  0  0  0  0  0  0  0  0  0
   26.9130   26.7310   43.6910 C   0  0  0  0  0  0  0  0  0  0  0  0
   28.2530   26.5010   43.9320 C   0  0  0  0  0  3  0  0  0  0  0  0
   24.4610   28.6850   44.1870 H   0  0  0  0  0  0  0  0  0  0  0  0
   34.4470   28.6790   48.1670 C   0  0  0  0  0  0  0  0  0  0  0  0
   33.9700   29.6680   48.1480 H   0  0  0  0  0  0  0  0  0  0  0  0
   35.3070   28.7370   47.4690 H   0  0  0  0  0  0  0  0  0  0  0  0
   34.9970   28.3830   49.4420 O   0  0  0  0  0  0  0  0  0  0  0  0
   37.3430   30.1830   51.5150 C   0  0  0  0  0  0  0  0  0  0  0  0
   38.0710   30.8620   50.5150 C   0  0  0  0  0  0  0  0  0  0  0  0
   37.7150   30.6650   49.1940 C   0  0  0  0  0  0  0  0  0  0  0  0
   36.6700   29.8100   48.9750 N   0  0  0  0  0  0  0  0  0  0  0  0
   35.9870   29.1710   49.9270 C   0  0  0  0  0  0  0  0  0  0  0  0
   36.3360   29.3670   51.2080 N   0  0  0  0  0  0  0  0  0  0  0  0
   37.6480   30.3620   52.5350 H   0  0  0  0  0  0  0  0  0  0  0  0
   38.8870   31.5300   50.6840 H   0  0  0  0  0  0  0  0  0  0  0  0
   38.9270   33.2820   49.0100 F   0  0  0  0  0  0  0  0  0  0  0  0
   38.9170   32.4870   47.9400 C   0  0  0  0  0  0  0  0  0  0  0  0
   38.3490   31.2770   48.0480 C   0  0  0  0  0  0  0  0  0  0  0  0
   38.3930   30.5280   46.8730 C   0  0  0  0  0  0  0  0  0  0  0  0
   38.9620   30.9830   45.7190 C   0  0  0  0  0  0  0  0  0  0  0  0
   39.5300   32.2380   45.6640 C   0  0  0  0  0  0  0  0  0  0  0  0
   39.4990   32.9880   46.8010 C   0  0  0  0  0  0  0  0  0  0  0  0
   37.9740   29.5140   46.7910 H   0  0  0  0  0  0  0  0  0  0  0  0
   38.9970   30.4010   44.8000 H   0  0  0  0  0  0  0  0  0  0  0  0
   39.9840   32.6030   44.7420 H   0  0  0  0  0  0  0  0  0  0  0  0
   39.9430   33.9760   46.7750 H   0  0  0  0  0  0  0  0  0  0  0  0
  1  4  1  0  0  0  0
  1 27  1  0  0  0  0
  1  3  1  0  0  0  0
  2  1  1  0  0  0  0
  4  5  1  0  0  0  0
  5  6  2  0  0  0  0
  5 10  1  0  0  0  0
  6 11  1  0  0  0  0
  7  6  1  0  0  0  0
  8  7  2  0  0  0  0
  9  8  1  0  0  0  0
  9  4  2  0  0  0  0
 12 14  1  0  0  0  0
 12  8  1  0  0  0  0
 13 12  1  0  0  0  0
 15 16  1  0  0  0  0
 16 12  1  0  0  0  0
 17 16  2  0  0  0  0
 17 18  1  0  0  0  0
 19 17  1  0  0  0  0
 20 26  1  0  0  0  0
 20 19  1  0  0  0  0
 21 20  1  0  0  0  0
 22 21  1  0  0  0  0
 23 21  2  0  0  0  0
 23 24  1  0  0  0  0
 24 25  1  0  0  0  0
 24 19  2  0  0  0  0
 25 15  2  0  0  0  0
 27 30  1  0  0  0  0
 28 27  1  0  0  0  0
 29 27  1  0  0  0  0
 30 35  1  0  0  0  0
 31 37  1  0  0  0  0
 32 38  1  0  0  0  0
 32 31  2  0  0  0  0
 33 32  1  0  0  0  0
 34 33  2  0  0  0  0
 34 35  1  0  0  0  0
 35 36  2  0  0  0  0
 36 31  1  0  0  0  0
 40 41  1  0  0  0  0
 40 39  1  0  0  0  0
 41 33  1  0  0  0  0
 42 41  2  0  0  0  0
 43 42  1  0  0  0  0
 44 43  2  0  0  0  0
 44 45  1  0  0  0  0
 45 40  2  0  0  0  0
 46 42  1  0  0  0  0
 47 43  1  0  0  0  0
 48 44  1  0  0  0  0
 49 45  1  0  0  0  0
M  END
>  <minimizedAffinity>
-6.92889452

>  <minimizedRMSD>
0.590591788

$$$$
