
 OpenBabel03272503483D

 27 29  0  0  0  0  0  0  0  0999 V2000
   37.1300   28.0830   35.1400 O   0  0  0  0  0  0  0  0  0  0  0  0
   38.0080   26.8490   35.0050 P   0  0  2  0  0  0  0  0  0  0  0  0
   39.4600   27.1900   35.7920 O   0  0  0  0  0  0  0  0  0  0  0  0
   39.8790   26.3830   36.1770 H   0  0  0  0  0  0  0  0  0  0  0  0
   38.2930   26.3980   33.3830 O   0  0  0  0  0  0  0  0  0  0  0  0
   37.3000   25.8280   32.5890 C   0  0  0  0  0  0  0  0  0  0  0  0
   37.1390   24.4570   32.3900 C   0  0  0  0  0  0  0  0  0  0  0  0
   36.0880   24.0470   31.5590 C   0  0  0  0  0  0  0  0  0  0  0  0
   35.2820   24.9820   30.9910 N   0  0  0  0  0  0  0  0  0  0  0  0
   35.4830   26.3180   31.2180 C   0  0  0  0  0  0  0  0  0  0  0  0
   36.4840   26.7370   32.0120 N   0  0  0  0  0  0  0  0  0  0  0  0
   37.8250   23.8040   32.8820 H   0  0  0  0  0  0  0  0  0  0  0  0
   35.9580   22.9860   31.4030 H   0  0  0  0  0  0  0  0  0  0  0  0
   34.8350   27.0660   30.7610 H   0  0  0  0  0  0  0  0  0  0  0  0
   37.2400   25.5100   35.7380 O   0  0  0  0  0  0  0  0  0  0  0  0
   38.0210   24.3820   37.7850 C   0  0  0  0  0  3  0  0  0  0  0  0
   38.0790   24.6180   36.4280 C   0  0  0  0  0  0  0  0  0  0  0  0
   38.9810   23.9900   35.6040 C   0  0  0  0  0  0  0  0  0  0  0  0
   39.0510   24.1550   34.5230 H   0  0  0  0  0  0  0  0  0  0  0  0
   39.8900   23.0750   36.1090 C   0  0  0  0  0  0  0  0  0  0  0  0
   40.8610   22.3320   35.5400 N   0  0  0  0  0  0  0  0  0  0  0  0
   41.4260   21.6210   36.5320 C   0  0  0  0  0  0  0  0  0  0  0  0
   42.2530   20.9290   36.3280 H   0  0  0  0  0  0  0  0  0  0  0  0
   40.8160   21.9180   37.6950 N   0  0  0  0  0  0  0  0  0  0  0  0
   39.8480   22.8260   37.4690 C   0  0  0  0  0  0  0  0  0  0  0  0
   38.9390   23.4660   38.2660 C   0  0  0  0  0  3  0  0  0  0  0  0
   41.1010   22.3330   34.5220 H   0  0  0  0  0  0  0  0  0  0  0  0
  2  1  2  1  0  0  0
  2 15  1  0  0  0  0
  2  3  1  0  0  0  0
  3  4  1  0  0  0  0
  5  2  1  0  0  0  0
  6  5  1  0  0  0  0
  7  6  1  0  0  0  0
  7 12  1  0  0  0  0
  8  7  2  0  0  0  0
  9 10  2  0  0  0  0
  9  8  1  0  0  0  0
 10 11  1  0  0  0  0
 11  6  2  0  0  0  0
 13  8  1  0  0  0  0
 14 10  1  0  0  0  0
 15 17  1  0  0  0  0
 16 26  1  0  0  0  0
 17 16  2  0  0  0  0
 18 20  2  0  0  0  0
 18 17  1  0  0  0  0
 19 18  1  0  0  0  0
 20 25  1  0  0  0  0
 21 20  1  0  0  0  0
 21 22  1  0  0  0  0
 22 24  2  0  0  0  0
 23 22  1  0  0  0  0
 25 24  1  0  0  0  0
 25 26  2  0  0  0  0
 27 21  1  0  0  0  0
M  END
>  <minimizedAffinity>
-5.2385788

$$$$

 OpenBabel03272503483D

 27 29  0  0  0  0  0  0  0  0999 V2000
   39.3160   27.1930   35.6010 O   0  0  0  0  0  0  0  0  0  0  0  0
   38.1110   26.6030   34.8860 P   0  0  2  0  0  0  0  0  0  0  0  0
   36.9750   27.8410   34.7330 O   0  0  0  0  0  0  0  0  0  0  0  0
   36.4140   27.7400   33.9270 H   0  0  0  0  0  0  0  0  0  0  0  0
   37.4360   25.2620   35.6980 O   0  0  0  0  0  0  0  0  0  0  0  0
   38.1910   24.4540   36.5450 C   0  0  0  0  0  0  0  0  0  0  0  0
   37.9270   24.2710   37.9030 C   0  0  0  0  0  0  0  0  0  0  0  0
   38.7860   23.4240   38.6150 C   0  0  0  0  0  0  0  0  0  0  0  0
   39.8220   22.8250   37.9700 N   0  0  0  0  0  0  0  0  0  0  0  0
   40.0380   23.0390   36.6350 C   0  0  0  0  0  0  0  0  0  0  0  0
   39.2280   23.8470   35.9280 N   0  0  0  0  0  0  0  0  0  0  0  0
   37.0880   24.7860   38.3150 H   0  0  0  0  0  0  0  0  0  0  0  0
   38.5850   23.2770   39.6670 H   0  0  0  0  0  0  0  0  0  0  0  0
   40.8690   22.5580   36.1200 H   0  0  0  0  0  0  0  0  0  0  0  0
   38.5750   26.0350   33.3430 O   0  0  0  0  0  0  0  0  0  0  0  0
   36.4720   25.6090   32.1320 C   0  0  0  0  0  3  0  0  0  0  0  0
   37.6590   25.1890   32.6940 C   0  0  0  0  0  0  0  0  0  0  0  0
   38.0660   23.8770   32.6730 C   0  0  0  0  0  0  0  0  0  0  0  0
   39.0030   23.5130   33.1100 H   0  0  0  0  0  0  0  0  0  0  0  0
   37.2880   22.8990   32.0750 C   0  0  0  0  0  0  0  0  0  0  0  0
   37.4450   21.5700   31.9160 N   0  0  0  0  0  0  0  0  0  0  0  0
   36.3580   21.1360   31.2520 C   0  0  0  0  0  0  0  0  0  0  0  0
   36.2400   20.0770   30.9950 H   0  0  0  0  0  0  0  0  0  0  0  0
   35.5430   22.1800   31.0050 N   0  0  0  0  0  0  0  0  0  0  0  0
   36.0940   23.3010   31.5070 C   0  0  0  0  0  0  0  0  0  0  0  0
   35.7130   24.6150   31.5420 C   0  0  0  0  0  3  0  0  0  0  0  0
   38.2630   21.0150   32.2540 H   0  0  0  0  0  0  0  0  0  0  0  0
  2  1  2  1  0  0  0
  2  5  1  0  0  0  0
  3  2  1  0  0  0  0
  4  3  1  0  0  0  0
  5  6  1  0  0  0  0
  6  7  1  0  0  0  0
  7 12  1  0  0  0  0
  7  8  2  0  0  0  0
  8 13  1  0  0  0  0
  9  8  1  0  0  0  0
 10  9  2  0  0  0  0
 11  6  2  0  0  0  0
 11 10  1  0  0  0  0
 14 10  1  0  0  0  0
 15  2  1  0  0  0  0
 16 17  1  0  0  0  0
 17 15  1  0  0  0  0
 18 17  2  0  0  0  0
 18 19  1  0  0  0  0
 20 18  1  0  0  0  0
 21 20  1  0  0  0  0
 21 27  1  0  0  0  0
 22 21  1  0  0  0  0
 23 22  1  0  0  0  0
 24 22  2  0  0  0  0
 24 25  1  0  0  0  0
 25 26  1  0  0  0  0
 25 20  2  0  0  0  0
 26 16  2  0  0  0  0
M  END
>  <minimizedAffinity>
-4.99332094

$$$$

 OpenBabel03272503483D

 27 29  0  0  0  0  0  0  0  0999 V2000
   39.5630   27.3140   33.5930 O   0  0  0  0  0  0  0  0  0  0  0  0
   38.7720   26.5750   34.6610 P   0  0  2  0  0  0  0  0  0  0  0  0
   38.9100   27.4730   36.0830 O   0  0  0  0  0  0  0  0  0  0  0  0
   38.1150   27.3850   36.6630 H   0  0  0  0  0  0  0  0  0  0  0  0
   39.3030   24.9720   34.9060 O   0  0  0  0  0  0  0  0  0  0  0  0
   39.1830   24.3330   36.1380 C   0  0  0  0  0  0  0  0  0  0  0  0
   40.0170   23.3060   36.5790 C   0  0  0  0  0  0  0  0  0  0  0  0
   39.7600   22.7680   37.8470 C   0  0  0  0  0  0  0  0  0  0  0  0
   38.7280   23.2590   38.5840 N   0  0  0  0  0  0  0  0  0  0  0  0
   37.9380   24.2690   38.1040 C   0  0  0  0  0  0  0  0  0  0  0  0
   38.1640   24.8020   36.8900 N   0  0  0  0  0  0  0  0  0  0  0  0
   40.8000   22.9920   35.9240 H   0  0  0  0  0  0  0  0  0  0  0  0
   40.4040   21.9730   38.1930 H   0  0  0  0  0  0  0  0  0  0  0  0
   37.1110   24.6600   38.6970 H   0  0  0  0  0  0  0  0  0  0  0  0
   37.1330   26.4620   34.1920 O   0  0  0  0  0  0  0  0  0  0  0  0
   36.7080   27.1400   31.8610 C   0  0  0  0  0  3  0  0  0  0  0  0
   36.7040   27.3810   33.2180 C   0  0  0  0  0  0  0  0  0  0  0  0
   36.2720   28.5680   33.7590 C   0  0  0  0  0  0  0  0  0  0  0  0
   36.2570   28.7900   34.8320 H   0  0  0  0  0  0  0  0  0  0  0  0
   35.8140   29.5950   32.9500 C   0  0  0  0  0  0  0  0  0  0  0  0
   35.3440   30.8310   33.2100 N   0  0  0  0  0  0  0  0  0  0  0  0
   35.0470   31.3830   32.0200 C   0  0  0  0  0  0  0  0  0  0  0  0
   34.6410   32.4000   31.9560 H   0  0  0  0  0  0  0  0  0  0  0  0
   35.3280   30.5030   31.0400 N   0  0  0  0  0  0  0  0  0  0  0  0
   35.8110   29.3710   31.5850 C   0  0  0  0  0  0  0  0  0  0  0  0
   36.2460   28.1790   31.0740 C   0  0  0  0  0  3  0  0  0  0  0  0
   35.2430   31.2490   34.1630 H   0  0  0  0  0  0  0  0  0  0  0  0
  2  1  2  6  0  0  0
  2  5  1  0  0  0  0
  2  3  1  0  0  0  0
  3  4  1  0  0  0  0
  5  6  1  0  0  0  0
  6  7  2  0  0  0  0
  6 11  1  0  0  0  0
  7  8  1  0  0  0  0
  8 13  1  0  0  0  0
  8  9  2  0  0  0  0
 10  9  1  0  0  0  0
 10 14  1  0  0  0  0
 11 10  2  0  0  0  0
 12  7  1  0  0  0  0
 15  2  1  0  0  0  0
 16 17  1  0  0  0  0
 17 18  2  0  0  0  0
 17 15  1  0  0  0  0
 18 19  1  0  0  0  0
 20 21  1  0  0  0  0
 20 18  1  0  0  0  0
 21 27  1  0  0  0  0
 22 21  1  0  0  0  0
 23 22  1  0  0  0  0
 24 25  1  0  0  0  0
 24 22  2  0  0  0  0
 25 20  2  0  0  0  0
 26 25  1  0  0  0  0
 26 16  2  0  0  0  0
M  END
>  <minimizedAffinity>
-4.94825506

$$$$

 OpenBabel03272503483D

 27 29  0  0  0  0  0  0  0  0999 V2000
   39.3460   26.5770   33.7660 O   0  0  0  0  0  0  0  0  0  0  0  0
   38.0480   25.9850   34.2910 P   0  0  2  0  0  0  0  0  0  0  0  0
   37.5880   26.9110   35.6230 O   0  0  0  0  0  0  0  0  0  0  0  0
   36.6070   26.9460   35.7380 H   0  0  0  0  0  0  0  0  0  0  0  0
   38.1830   24.3380   34.7190 O   0  0  0  0  0  0  0  0  0  0  0  0
   38.5210   23.9350   36.0090 C   0  0  0  0  0  0  0  0  0  0  0  0
   39.6300   23.1500   36.3260 C   0  0  0  0  0  0  0  0  0  0  0  0
   39.8270   22.8310   37.6760 C   0  0  0  0  0  0  0  0  0  0  0  0
   38.9490   23.2910   38.6070 N   0  0  0  0  0  0  0  0  0  0  0  0
   37.8760   24.0590   38.2430 C   0  0  0  0  0  0  0  0  0  0  0  0
   37.6640   24.3790   36.9540 N   0  0  0  0  0  0  0  0  0  0  0  0
   40.2590   22.8390   35.5210 H   0  0  0  0  0  0  0  0  0  0  0  0
   40.6850   22.2240   37.9260 H   0  0  0  0  0  0  0  0  0  0  0  0
   37.1730   24.4270   38.9910 H   0  0  0  0  0  0  0  0  0  0  0  0
   36.8470   26.0590   33.0770 O   0  0  0  0  0  0  0  0  0  0  0  0
   36.3760   28.4490   32.7070 C   0  0  0  0  0  3  0  0  0  0  0  0
   36.8400   27.2210   32.2860 C   0  0  0  0  0  0  0  0  0  0  0  0
   37.3490   27.0120   31.0270 C   0  0  0  0  0  0  0  0  0  0  0  0
   37.7250   26.0490   30.6640 H   0  0  0  0  0  0  0  0  0  0  0  0
   37.4210   28.0450   30.1070 C   0  0  0  0  0  0  0  0  0  0  0  0
   37.8640   28.1150   28.8360 N   0  0  0  0  0  0  0  0  0  0  0  0
   37.6840   29.3890   28.4410 C   0  0  0  0  0  0  0  0  0  0  0  0
   37.9680   29.7110   27.4320 H   0  0  0  0  0  0  0  0  0  0  0  0
   37.1390   30.0940   29.4500 N   0  0  0  0  0  0  0  0  0  0  0  0
   36.9600   29.2840   30.5110 C   0  0  0  0  0  0  0  0  0  0  0  0
   36.4580   29.4640   31.7710 C   0  0  0  0  0  3  0  0  0  0  0  0
   38.2640   27.3170   28.2930 H   0  0  0  0  0  0  0  0  0  0  0  0
  2  1  2  6  0  0  0
  2  5  1  0  0  0  0
  2  3  1  0  0  0  0
  3  4  1  0  0  0  0
  5  6  1  0  0  0  0
  6  7  2  0  0  0  0
  6 11  1  0  0  0  0
  7  8  1  0  0  0  0
  8 13  1  0  0  0  0
  8  9  2  0  0  0  0
 10  9  1  0  0  0  0
 10 14  1  0  0  0  0
 11 10  2  0  0  0  0
 12  7  1  0  0  0  0
 15  2  1  0  0  0  0
 17 16  1  0  0  0  0
 17 15  1  0  0  0  0
 18 17  2  0  0  0  0
 19 18  1  0  0  0  0
 20 25  2  0  0  0  0
 20 18  1  0  0  0  0
 21 20  1  0  0  0  0
 22 21  1  0  0  0  0
 22 24  2  0  0  0  0
 23 22  1  0  0  0  0
 24 25  1  0  0  0  0
 25 26  1  0  0  0  0
 26 16  2  0  0  0  0
 27 21  1  0  0  0  0
M  END
>  <minimizedAffinity>
-4.92777491

$$$$

 OpenBabel03272503483D

 27 29  0  0  0  0  0  0  0  0999 V2000
   36.9630   26.1570   31.3590 O   0  0  0  0  0  0  0  0  0  0  0  0
   37.4200   24.7140   31.5050 P   0  0  2  0  0  0  0  0  0  0  0  0
   37.8270   24.1680   29.9620 O   0  0  0  0  0  0  0  0  0  0  0  0
   38.5420   23.4870   29.9800 H   0  0  0  0  0  0  0  0  0  0  0  0
   36.2410   23.7020   32.2110 O   0  0  0  0  0  0  0  0  0  0  0  0
   36.1780   22.3380   31.9380 C   0  0  0  0  0  0  0  0  0  0  0  0
   35.0550   21.5400   32.1550 C   0  0  0  0  0  0  0  0  0  0  0  0
   35.1580   20.1820   31.8270 C   0  0  0  0  0  0  0  0  0  0  0  0
   36.3240   19.7030   31.3190 N   0  0  0  0  0  0  0  0  0  0  0  0
   37.3990   20.5290   31.1250 C   0  0  0  0  0  0  0  0  0  0  0  0
   37.3260   21.8360   31.4320 N   0  0  0  0  0  0  0  0  0  0  0  0
   34.1860   22.0120   32.5580 H   0  0  0  0  0  0  0  0  0  0  0  0
   34.2900   19.5600   31.9920 H   0  0  0  0  0  0  0  0  0  0  0  0
   38.3330   20.1430   30.7180 H   0  0  0  0  0  0  0  0  0  0  0  0
   38.7810   24.6420   32.5350 O   0  0  0  0  0  0  0  0  0  0  0  0
   38.1240   25.9940   34.4880 C   0  0  0  0  0  3  0  0  0  0  0  0
   38.5270   24.8100   33.9070 C   0  0  0  0  0  0  0  0  0  0  0  0
   38.7230   23.6580   34.6310 C   0  0  0  0  0  0  0  0  0  0  0  0
   39.0420   22.7030   34.2000 H   0  0  0  0  0  0  0  0  0  0  0  0
   38.5200   23.6350   36.0010 C   0  0  0  0  0  0  0  0  0  0  0  0
   38.6360   22.6660   36.9310 N   0  0  0  0  0  0  0  0  0  0  0  0
   38.3080   23.2280   38.1090 C   0  0  0  0  0  0  0  0  0  0  0  0
   38.3220   22.6420   39.0360 H   0  0  0  0  0  0  0  0  0  0  0  0
   37.9950   24.5220   37.9100 N   0  0  0  0  0  0  0  0  0  0  0  0
   38.1170   24.8130   36.6010 C   0  0  0  0  0  0  0  0  0  0  0  0
   37.9290   25.9450   35.8560 C   0  0  0  0  0  3  0  0  0  0  0  0
   38.9260   21.6800   36.7410 H   0  0  0  0  0  0  0  0  0  0  0  0
  2  1  2  6  0  0  0
  2  5  1  0  0  0  0
  2 15  1  0  0  0  0
  3  4  1  0  0  0  0
  3  2  1  0  0  0  0
  6  7  1  0  0  0  0
  6  5  1  0  0  0  0
  7 12  1  0  0  0  0
  8 13  1  0  0  0  0
  8  7  2  0  0  0  0
  9  8  1  0  0  0  0
 10  9  2  0  0  0  0
 10 11  1  0  0  0  0
 11  6  2  0  0  0  0
 14 10  1  0  0  0  0
 15 17  1  0  0  0  0
 16 26  1  0  0  0  0
 17 16  2  0  0  0  0
 17 18  1  0  0  0  0
 18 20  2  0  0  0  0
 19 18  1  0  0  0  0
 20 25  1  0  0  0  0
 20 21  1  0  0  0  0
 21 22  1  0  0  0  0
 22 23  1  0  0  0  0
 24 22  2  0  0  0  0
 25 24  1  0  0  0  0
 26 25  2  0  0  0  0
 27 21  1  0  0  0  0
M  END
>  <minimizedAffinity>
-4.77604151

$$$$

 OpenBabel03272503483D

 27 29  0  0  0  0  0  0  0  0999 V2000
   41.7710   24.7500   33.0280 O   0  0  0  0  0  0  0  0  0  0  0  0
   41.2070   25.0360   34.4110 P   0  0  2  0  0  0  0  0  0  0  0  0
   42.3960   24.6010   35.5260 O   0  0  0  0  0  0  0  0  0  0  0  0
   42.3600   25.1490   36.3470 H   0  0  0  0  0  0  0  0  0  0  0  0
   39.7490   24.2080   34.7290 O   0  0  0  0  0  0  0  0  0  0  0  0
   39.3560   23.8740   36.0240 C   0  0  0  0  0  0  0  0  0  0  0  0
   38.1560   24.2740   36.6120 C   0  0  0  0  0  0  0  0  0  0  0  0
   37.9130   23.8520   37.9260 C   0  0  0  0  0  0  0  0  0  0  0  0
   38.8360   23.0840   38.5640 N   0  0  0  0  0  0  0  0  0  0  0  0
   39.9990   22.7190   37.9410 C   0  0  0  0  0  0  0  0  0  0  0  0
   40.2570   23.1110   36.6800 N   0  0  0  0  0  0  0  0  0  0  0  0
   37.4980   24.8760   36.0270 H   0  0  0  0  0  0  0  0  0  0  0  0
   36.9840   24.1580   38.3860 H   0  0  0  0  0  0  0  0  0  0  0  0
   40.7380   22.1030   38.4540 H   0  0  0  0  0  0  0  0  0  0  0  0
   40.8450   26.7000   34.5530 O   0  0  0  0  0  0  0  0  0  0  0  0
   38.5860   27.3860   35.2610 C   0  0  0  0  0  3  0  0  0  0  0  0
   39.5130   27.0670   34.2920 C   0  0  0  0  0  0  0  0  0  0  0  0
   39.2170   27.0770   32.9500 C   0  0  0  0  0  0  0  0  0  0  0  0
   39.9300   26.8290   32.1570 H   0  0  0  0  0  0  0  0  0  0  0  0
   37.9490   27.4140   32.5030 C   0  0  0  0  0  0  0  0  0  0  0  0
   37.4010   27.5020   31.2750 N   0  0  0  0  0  0  0  0  0  0  0  0
   36.1220   27.8780   31.4560 C   0  0  0  0  0  0  0  0  0  0  0  0
   35.4510   28.0220   30.6010 H   0  0  0  0  0  0  0  0  0  0  0  0
   35.8830   28.0190   32.7740 N   0  0  0  0  0  0  0  0  0  0  0  0
   37.0060   27.7360   33.4610 C   0  0  0  0  0  0  0  0  0  0  0  0
   37.3290   27.7180   34.7900 C   0  0  0  0  0  3  0  0  0  0  0  0
   37.9000   27.3100   30.3770 H   0  0  0  0  0  0  0  0  0  0  0  0
  2  1  2  6  0  0  0
  2 15  1  0  0  0  0
  2  5  1  0  0  0  0
  2  3  1  0  0  0  0
  3  4  1  0  0  0  0
  5  6  1  0  0  0  0
  6  7  2  0  0  0  0
  6 11  1  0  0  0  0
  7  8  1  0  0  0  0
  8 13  1  0  0  0  0
  8  9  2  0  0  0  0
 10 14  1  0  0  0  0
 10  9  1  0  0  0  0
 11 10  2  0  0  0  0
 12  7  1  0  0  0  0
 17 15  1  0  0  0  0
 17 16  2  0  0  0  0
 18 17  1  0  0  0  0
 19 18  1  0  0  0  0
 20 18  2  0  0  0  0
 20 25  1  0  0  0  0
 21 22  1  0  0  0  0
 21 20  1  0  0  0  0
 22 24  2  0  0  0  0
 23 22  1  0  0  0  0
 24 25  1  0  0  0  0
 25 26  2  0  0  0  0
 26 16  1  0  0  0  0
 27 21  1  0  0  0  0
M  END
>  <minimizedAffinity>
-4.75562906

$$$$

 OpenBabel03272503483D

 27 29  0  0  0  0  0  0  0  0999 V2000
   38.8200   27.4480   35.8240 O   0  0  0  0  0  0  0  0  0  0  0  0
   39.5280   26.6340   34.7520 P   0  0  2  0  0  0  0  0  0  0  0  0
   41.1770   26.6810   35.1080 O   0  0  0  0  0  0  0  0  0  0  0  0
   41.6480   25.8640   34.8150 H   0  0  0  0  0  0  0  0  0  0  0  0
   39.2370   27.2060   33.1700 O   0  0  0  0  0  0  0  0  0  0  0  0
   37.9910   27.0840   32.5580 C   0  0  0  0  0  0  0  0  0  0  0  0
   36.9470   27.9970   32.7040 C   0  0  0  0  0  0  0  0  0  0  0  0
   35.7560   27.7260   32.0190 C   0  0  0  0  0  0  0  0  0  0  0  0
   35.6640   26.6070   31.2530 N   0  0  0  0  0  0  0  0  0  0  0  0
   36.7200   25.7410   31.1430 C   0  0  0  0  0  0  0  0  0  0  0  0
   37.8740   25.9790   31.7910 N   0  0  0  0  0  0  0  0  0  0  0  0
   37.1190   28.8460   33.3280 H   0  0  0  0  0  0  0  0  0  0  0  0
   34.9440   28.4310   32.1280 H   0  0  0  0  0  0  0  0  0  0  0  0
   36.6440   24.8440   30.5290 H   0  0  0  0  0  0  0  0  0  0  0  0
   38.9630   25.0220   34.7820 O   0  0  0  0  0  0  0  0  0  0  0  0
   40.9160   23.6680   34.1310 C   0  0  0  0  0  3  0  0  0  0  0  0
   39.9310   24.0330   35.0240 C   0  0  0  0  0  0  0  0  0  0  0  0
   39.8010   23.4510   36.2620 C   0  0  0  0  0  0  0  0  0  0  0  0
   39.0310   23.7190   36.9940 H   0  0  0  0  0  0  0  0  0  0  0  0
   40.6690   22.4530   36.6750 C   0  0  0  0  0  0  0  0  0  0  0  0
   40.7660   21.7300   37.8090 N   0  0  0  0  0  0  0  0  0  0  0  0
   41.8120   20.9000   37.6420 C   0  0  0  0  0  0  0  0  0  0  0  0
   42.1050   20.1980   38.4320 H   0  0  0  0  0  0  0  0  0  0  0  0
   42.3530   21.1070   36.4270 N   0  0  0  0  0  0  0  0  0  0  0  0
   41.6620   22.0730   35.7920 C   0  0  0  0  0  0  0  0  0  0  0  0
   41.7690   22.6700   34.5660 C   0  0  0  0  0  3  0  0  0  0  0  0
   40.1340   21.8210   38.6370 H   0  0  0  0  0  0  0  0  0  0  0  0
  2 15  1  0  0  0  0
  2  3  1  0  0  0  0
  2  1  2  1  0  0  0
  4  3  1  0  0  0  0
  5  2  1  0  0  0  0
  6  7  1  0  0  0  0
  6  5  1  0  0  0  0
  7 12  1  0  0  0  0
  8 13  1  0  0  0  0
  8  7  2  0  0  0  0
  9  8  1  0  0  0  0
 10  9  2  0  0  0  0
 10 11  1  0  0  0  0
 11  6  2  0  0  0  0
 14 10  1  0  0  0  0
 15 17  1  0  0  0  0
 16 26  2  0  0  0  0
 16 17  1  0  0  0  0
 17 18  2  0  0  0  0
 18 20  1  0  0  0  0
 18 19  1  0  0  0  0
 20 21  1  0  0  0  0
 21 27  1  0  0  0  0
 22 21  1  0  0  0  0
 22 23  1  0  0  0  0
 24 22  2  0  0  0  0
 25 24  1  0  0  0  0
 25 20  2  0  0  0  0
 26 25  1  0  0  0  0
M  END
>  <minimizedAffinity>
-4.71231651

$$$$

 OpenBabel03272503483D

 27 29  0  0  0  0  0  0  0  0999 V2000
   36.1830   27.5760   32.9420 O   0  0  0  0  0  0  0  0  0  0  0  0
   37.2400   27.2830   31.8890 P   0  0  2  0  0  0  0  0  0  0  0  0
   37.6500   28.7580   31.1800 O   0  0  0  0  0  0  0  0  0  0  0  0
   38.5870   28.7790   30.8690 H   0  0  0  0  0  0  0  0  0  0  0  0
   36.7210   26.1690   30.7050 O   0  0  0  0  0  0  0  0  0  0  0  0
   36.7050   24.7960   30.9380 C   0  0  0  0  0  0  0  0  0  0  0  0
   35.6380   24.1050   31.5140 C   0  0  0  0  0  0  0  0  0  0  0  0
   35.7830   22.7220   31.6810 C   0  0  0  0  0  0  0  0  0  0  0  0
   36.9340   22.1170   31.2820 N   0  0  0  0  0  0  0  0  0  0  0  0
   37.9520   22.8410   30.7220 C   0  0  0  0  0  0  0  0  0  0  0  0
   37.8380   24.1710   30.5510 N   0  0  0  0  0  0  0  0  0  0  0  0
   34.7780   24.6720   31.7930 H   0  0  0  0  0  0  0  0  0  0  0  0
   34.9600   22.1820   32.1260 H   0  0  0  0  0  0  0  0  0  0  0  0
   38.8740   22.3550   30.4030 H   0  0  0  0  0  0  0  0  0  0  0  0
   38.6120   26.5810   32.6270 O   0  0  0  0  0  0  0  0  0  0  0  0
   38.5500   27.1670   35.0200 C   0  0  0  0  0  3  0  0  0  0  0  0
   38.4810   26.2550   33.9880 C   0  0  0  0  0  0  0  0  0  0  0  0
   38.2740   24.9130   34.1970 C   0  0  0  0  0  0  0  0  0  0  0  0
   38.2140   24.1650   33.4000 H   0  0  0  0  0  0  0  0  0  0  0  0
   38.1230   24.4060   35.4780 C   0  0  0  0  0  0  0  0  0  0  0  0
   37.9140   23.1640   35.9560 N   0  0  0  0  0  0  0  0  0  0  0  0
   37.8500   23.2780   37.2960 C   0  0  0  0  0  0  0  0  0  0  0  0
   37.6840   22.3980   37.9280 H   0  0  0  0  0  0  0  0  0  0  0  0
   38.0160   24.5690   37.6390 N   0  0  0  0  0  0  0  0  0  0  0  0
   38.1900   25.3060   36.5260 C   0  0  0  0  0  0  0  0  0  0  0  0
   38.3960   26.6370   36.2880 C   0  0  0  0  0  3  0  0  0  0  0  0
   37.8250   22.3010   35.3730 H   0  0  0  0  0  0  0  0  0  0  0  0
  2 15  1  0  0  0  0
  2  1  2  1  0  0  0
  3  2  1  0  0  0  0
  4  3  1  0  0  0  0
  5  6  1  0  0  0  0
  5  2  1  0  0  0  0
  6  7  1  0  0  0  0
  7  8  2  0  0  0  0
  7 12  1  0  0  0  0
  8 13  1  0  0  0  0
  9  8  1  0  0  0  0
 10  9  2  0  0  0  0
 11 10  1  0  0  0  0
 11  6  2  0  0  0  0
 14 10  1  0  0  0  0
 15 17  1  0  0  0  0
 16 26  1  0  0  0  0
 17 18  1  0  0  0  0
 17 16  2  0  0  0  0
 18 20  2  0  0  0  0
 19 18  1  0  0  0  0
 20 21  1  0  0  0  0
 20 25  1  0  0  0  0
 21 22  1  0  0  0  0
 22 24  2  0  0  0  0
 22 23  1  0  0  0  0
 25 24  1  0  0  0  0
 26 25  2  0  0  0  0
 27 21  1  0  0  0  0
M  END
>  <minimizedAffinity>
-4.68152618

$$$$

 OpenBabel03272503483D

 27 29  0  0  0  0  0  0  0  0999 V2000
   36.1010   29.9240   31.5690 O   0  0  0  0  0  0  0  0  0  0  0  0
   36.4690   28.5600   32.1310 P   0  0  2  0  0  0  0  0  0  0  0  0
   38.0460   28.2310   31.6290 O   0  0  0  0  0  0  0  0  0  0  0  0
   38.5360   27.6670   32.2750 H   0  0  0  0  0  0  0  0  0  0  0  0
   35.4070   27.3190   31.6370 O   0  0  0  0  0  0  0  0  0  0  0  0
   35.7750   25.9750   31.6690 C   0  0  0  0  0  0  0  0  0  0  0  0
   35.1030   24.9570   30.9920 C   0  0  0  0  0  0  0  0  0  0  0  0
   35.6030   23.6560   31.1300 C   0  0  0  0  0  0  0  0  0  0  0  0
   36.7020   23.4390   31.9000 N   0  0  0  0  0  0  0  0  0  0  0  0
   37.3250   24.4740   32.5440 C   0  0  0  0  0  0  0  0  0  0  0  0
   36.8650   25.7330   32.4290 N   0  0  0  0  0  0  0  0  0  0  0  0
   34.2500   25.2310   30.4120 H   0  0  0  0  0  0  0  0  0  0  0  0
   35.0860   22.8630   30.6070 H   0  0  0  0  0  0  0  0  0  0  0  0
   38.2060   24.2990   33.1620 H   0  0  0  0  0  0  0  0  0  0  0  0
   36.3890   28.5980   33.8380 O   0  0  0  0  0  0  0  0  0  0  0  0
   34.0770   29.4040   34.1170 C   0  0  0  0  0  3  0  0  0  0  0  0
   35.4270   29.4610   34.3910 C   0  0  0  0  0  0  0  0  0  0  0  0
   35.9710   30.3860   35.2500 C   0  0  0  0  0  0  0  0  0  0  0  0
   37.0380   30.4560   35.4880 H   0  0  0  0  0  0  0  0  0  0  0  0
   35.1730   31.3200   35.8890 C   0  0  0  0  0  0  0  0  0  0  0  0
   35.4390   32.3150   36.7590 N   0  0  0  0  0  0  0  0  0  0  0  0
   34.2590   32.8970   37.0420 C   0  0  0  0  0  0  0  0  0  0  0  0
   34.2020   33.7450   37.7360 H   0  0  0  0  0  0  0  0  0  0  0  0
   33.2810   32.2730   36.3600 N   0  0  0  0  0  0  0  0  0  0  0  0
   33.8160   31.2790   35.6260 C   0  0  0  0  0  0  0  0  0  0  0  0
   33.3010   30.3470   34.7680 C   0  0  0  0  0  3  0  0  0  0  0  0
   36.3880   32.5600   37.1220 H   0  0  0  0  0  0  0  0  0  0  0  0
  2  1  2  6  0  0  0
  2 15  1  0  0  0  0
  3  2  1  0  0  0  0
  3  4  1  0  0  0  0
  5  6  1  0  0  0  0
  5  2  1  0  0  0  0
  6 11  1  0  0  0  0
  7  8  1  0  0  0  0
  7  6  2  0  0  0  0
  8  9  2  0  0  0  0
  9 10  1  0  0  0  0
 10 14  1  0  0  0  0
 11 10  2  0  0  0  0
 12  7  1  0  0  0  0
 13  8  1  0  0  0  0
 15 17  1  0  0  0  0
 16 17  2  0  0  0  0
 16 26  1  0  0  0  0
 17 18  1  0  0  0  0
 18 19  1  0  0  0  0
 18 20  2  0  0  0  0
 20 21  1  0  0  0  0
 21 22  1  0  0  0  0
 21 27  1  0  0  0  0
 22 23  1  0  0  0  0
 24 22  2  0  0  0  0
 25 20  1  0  0  0  0
 25 24  1  0  0  0  0
 26 25  2  0  0  0  0
M  END
>  <minimizedAffinity>
-4.62064934

$$$$
