REMARK  Name = 
REMARK  5 active torsions:
REMARK  status: ('A' for Active; 'I' for Inactive)
REMARK    1  A    between atoms: C_3  and  O_7
REMARK    2  A    between atoms: O_7  and  P_9
REMARK    3  A    between atoms: P_9  and  O_10
REMARK    4  A    between atoms: P_9  and  O_11
REMARK    5  A    between atoms: O_11  and  C_17
REMARK                            x       y       z     vdW  Elec       q    Type
REMARK                         _______ _______ _______ _____ _____    ______ ____
ROOT
ATOM      1  O   UNL     1      39.066  32.727  48.135  0.00  0.00    +0.000 OA
ATOM      2  P   UNL     1      38.684  31.714  47.095  0.00  0.00    +0.000 P 
ENDROOT
BRANCH   2   3
ATOM      3  O   UNL     1      37.830  32.462  45.847  0.00  0.00    +0.000 OA
ATOM      4  H   UNL     1      38.010  32.036  44.974  0.00  0.00    +0.000 HD
ENDBRANCH   2   3
BRANCH   2   5
ATOM      5  O   UNL     1      37.849  30.387  47.696  0.00  0.00    +0.000 OA
BRANCH   5   8
ATOM      6  C   UNL     1      37.342  30.153  51.364  0.00  0.00    +0.000 A 
ATOM      7  C   UNL     1      37.999  30.518  50.172  0.00  0.00    +0.000 A 
ATOM      8  C   UNL     1      37.414  30.154  48.952  0.00  0.00    +0.000 A 
ATOM      9  N   UNL     1      36.236  29.466  48.990  0.00  0.00    +0.000 NA
ATOM     10  C   UNL     1      35.642  29.137  50.149  0.00  0.00    +0.000 A 
ATOM     11  N   UNL     1      36.190  29.479  51.332  0.00  0.00    +0.000 NA
ATOM     12  H   UNL     1      37.929  30.511  52.206  0.00  0.00    +0.000 HD
ATOM     13  H   UNL     1      38.912  31.050  50.041  0.00  0.00    +0.000 HD
ATOM     14  H   UNL     1      34.705  28.590  50.206  0.00  0.00    +0.000 HD
ENDBRANCH   5   8
ENDBRANCH   2   5
BRANCH   2  15
ATOM     15  O   UNL     1      40.168  31.175  46.420  0.00  0.00    +0.000 OA
BRANCH  15  17
ATOM     16  C   UNL     1      41.102  33.171  47.096  0.00  0.00    +0.000 A 
ATOM     17  C   UNL     1      41.296  32.002  46.379  0.00  0.00    +0.000 A 
ATOM     18  C   UNL     1      42.482  31.745  45.727  0.00  0.00    +0.000 A 
ATOM     19  H   UNL     1      42.523  30.800  45.198  0.00  0.00    +0.000 HD
ATOM     20  C   UNL     1      43.470  32.702  45.817  0.00  0.00    +0.000 A 
ATOM     21  N   UNL     1      44.699  32.684  45.276  0.00  0.00    +0.000 N 
ATOM     22  C   UNL     1      45.288  33.841  45.647  0.00  0.00    +0.000 A 
ATOM     23  H   UNL     1      46.300  34.087  45.342  0.00  0.00    +0.000 HD
ATOM     24  N   UNL     1      44.435  34.542  46.395  0.00  0.00    +0.000 NA
ATOM     25  C   UNL     1      43.282  33.867  46.529  0.00  0.00    +0.000 A 
ATOM     26  C   UNL     1      42.099  34.129  47.183  0.00  0.00    +0.000 A 
ATOM     27  H   UNL     1      45.127  31.922  44.678  0.00  0.00    +0.000 HD
ENDBRANCH  15  17
ENDBRANCH   2  15
TORSDOF 5
