
 OpenBabel03272500453D

 28 31  0  0  0  0  0  0  0  0999 V2000
   37.5170   31.2840   48.4320 C   0  0  0  0  0  0  0  0  0  0  0  0
   37.6810   30.2740   49.3950 C   0  0  0  0  0  0  0  0  0  0  0  0
   36.6020   29.3990   49.3140 C   0  0  0  0  0  0  0  0  0  0  0  0
   35.8260   29.8890   48.3240 N   0  0  0  0  0  0  0  0  0  0  0  0
   36.3770   30.9840   47.8260 N   0  0  0  0  0  0  0  0  0  0  0  0
   38.5090   30.1860   50.0910 H   0  0  0  0  0  0  0  0  0  0  0  0
   36.4550   28.5160   49.9380 H   0  0  0  0  0  0  0  0  0  0  0  0
   34.4840   27.9960   48.6370 C   0  0  0  0  0  0  0  0  0  0  0  0
   34.6200   29.2190   47.9740 C   0  0  0  0  0  0  0  0  0  0  0  0
   33.6460   29.6520   47.0970 C   0  0  0  0  0  0  0  0  0  0  0  0
   33.8480   30.5950   46.6480 H   0  0  0  0  0  0  0  0  0  0  0  0
   32.5350   28.8560   46.8850 C   0  0  0  0  0  0  0  0  0  0  0  0
   31.4690   29.0770   46.0790 N   0  0  0  0  0  0  0  0  0  0  0  0
   30.6640   27.9940   46.2360 C   0  0  0  0  0  0  0  0  0  0  0  0
   29.7160   27.8110   45.7510 H   0  0  0  0  0  0  0  0  0  0  0  0
   31.1820   27.1060   47.1030 N   0  0  0  0  0  0  0  0  0  0  0  0
   32.3630   27.6350   47.5230 C   0  0  0  0  0  0  0  0  0  0  0  0
   33.3590   27.2240   48.4000 C   0  0  0  0  0  0  0  0  0  0  0  0
   31.3180   29.9080   45.4770 H   0  0  0  0  0  0  0  0  0  0  0  0
   39.1990   32.5420   47.0790 C   0  0  0  0  0  0  0  0  0  0  0  0
   38.4650   32.3560   48.2520 C   0  0  0  0  0  0  0  0  0  0  0  0
   38.6730   33.2660   49.2980 C   0  0  0  0  0  0  0  0  0  0  0  0
   39.5780   34.2740   49.1050 N   0  0  0  0  0  0  0  0  0  0  0  0
   40.2610   34.4050   47.9420 C   0  0  0  0  0  0  0  0  0  0  0  0
   40.0780   33.5430   46.9250 N   0  0  0  0  0  0  0  0  0  0  0  0
   39.0600   31.8560   46.2550 H   0  0  0  0  0  0  0  0  0  0  0  0
   38.1220   33.1510   50.2210 H   0  0  0  0  0  0  0  0  0  0  0  0
   40.9060   35.2680   48.0350 H   0  0  0  0  0  0  0  0  0  0  0  0
  1  2  1  0  0  0  0
  2  6  1  0  0  0  0
  3  2  2  0  0  0  0
  3  7  1  0  0  0  0
  4  3  1  0  0  0  0
  5  4  1  0  0  0  0
  5  1  2  0  0  0  0
  9  4  1  0  0  0  0
  9  8  2  0  0  0  0
 10  9  1  0  0  0  0
 11 10  1  0  0  0  0
 12 10  2  0  0  0  0
 12 17  1  0  0  0  0
 13 14  1  0  0  0  0
 13 12  1  0  0  0  0
 14 16  2  0  0  0  0
 15 14  1  0  0  0  0
 16 17  1  0  0  0  0
 17 18  2  0  0  0  0
 18  8  1  0  0  0  0
 19 13  1  0  0  0  0
 20 21  1  0  0  0  0
 21  1  1  0  0  0  0
 21 22  2  0  0  0  0
 22 27  1  0  0  0  0
 23 22  1  0  0  0  0
 24 28  1  0  0  0  0
 24 23  2  0  0  0  0
 25 20  2  0  0  0  0
 25 24  1  0  0  0  0
 26 20  1  0  0  0  0
M  END
>  <minimizedAffinity>
-5.54840994

>  <minimizedRMSD>
9.02766514

$$$$
