
 OpenBabel03272509583D

 49 53  0  0  0  0  0  0  0  0999 V2000
   33.4480   27.8850   47.4560 C   0  0  0  0  0  0  0  0  0  0  0  0
   33.6780   27.8300   46.3550 H   0  0  0  0  0  0  0  0  0  0  0  0
   33.7270   26.9150   47.8670 H   0  0  0  0  0  0  0  0  0  0  0  0
   31.9810   28.0790   47.6030 C   0  0  0  0  0  0  0  0  0  0  0  0
   31.3540   27.4920   48.6890 C   0  0  0  0  0  0  0  0  0  0  0  0
   30.0000   27.6220   48.8960 C   0  0  0  0  0  0  0  0  0  0  0  0
   29.2700   28.3310   48.0350 N   0  0  0  0  0  0  0  0  0  0  0  0
   29.8960   28.9060   46.9680 C   0  0  0  0  0  0  0  0  0  0  0  0
   31.2180   28.7880   46.7510 N   0  0  0  0  0  0  0  0  0  0  0  0
   31.9410   26.9150   49.3900 H   0  0  0  0  0  0  0  0  0  0  0  0
   29.4770   27.1780   49.7340 H   0  0  0  0  0  0  0  0  0  0  0  0
   29.0590   29.6930   46.0190 C   0  0  0  0  0  0  0  0  0  0  0  0
   29.7540   30.1390   45.2760 H   0  0  0  0  0  0  0  0  0  0  0  0
   28.5320   30.5240   46.5280 H   0  0  0  0  0  0  0  0  0  0  0  0
   26.7280   28.9170   45.3420 C   0  0  0  0  0  3  0  0  0  0  0  0
   28.1140   28.7980   45.2980 C   0  0  0  0  0  0  0  0  0  0  0  0
   28.6510   27.7700   44.5230 C   0  0  0  0  0  0  0  0  0  0  0  0
   29.7430   27.6700   44.4840 H   0  0  0  0  0  0  0  0  0  0  0  0
   27.8690   26.8880   43.8180 C   0  0  0  0  0  0  0  0  0  0  0  0
   28.1150   25.8460   43.0220 N   0  0  0  0  0  0  0  0  0  0  0  0
   26.9860   25.2960   42.5610 C   0  0  0  0  0  0  0  0  0  0  0  0
   26.9590   24.4320   41.8940 H   0  0  0  0  0  0  0  0  0  0  0  0
   25.9570   26.0210   43.0850 N   0  0  0  0  0  0  0  0  0  0  0  0
   26.4770   26.9990   43.8570 C   0  0  0  0  0  0  0  0  0  0  0  0
   25.9730   28.0250   44.6310 C   0  0  0  0  0  3  0  0  0  0  0  0
   29.1050   25.5470   42.8250 H   0  0  0  0  0  0  0  0  0  0  0  0
   34.2430   28.9710   48.1260 C   0  0  0  0  0  0  0  0  0  0  0  0
   33.6580   29.8580   48.4030 H   0  0  0  0  0  0  0  0  0  0  0  0
   35.0000   29.3180   47.3930 H   0  0  0  0  0  0  0  0  0  0  0  0
   34.9740   28.4550   49.2280 O   0  0  0  0  0  0  0  0  0  0  0  0
   37.3200   30.1210   51.4110 C   0  0  0  0  0  0  0  0  0  0  0  0
   38.0740   30.8300   50.4520 C   0  0  0  0  0  0  0  0  0  0  0  0
   37.7350   30.6960   49.1190 C   0  0  0  0  0  0  0  0  0  0  0  0
   36.6790   29.8700   48.8470 N   0  0  0  0  0  0  0  0  0  0  0  0
   35.9700   29.2040   49.7610 C   0  0  0  0  0  0  0  0  0  0  0  0
   36.3030   29.3380   51.0550 N   0  0  0  0  0  0  0  0  0  0  0  0
   37.6120   30.2500   52.4420 H   0  0  0  0  0  0  0  0  0  0  0  0
   38.8990   31.4740   50.6620 H   0  0  0  0  0  0  0  0  0  0  0  0
   38.9080   33.3360   49.0360 F   0  0  0  0  0  0  0  0  0  0  0  0
   38.9480   32.5660   47.9490 C   0  0  0  0  0  0  0  0  0  0  0  0
   38.3970   31.3450   48.0100 C   0  0  0  0  0  0  0  0  0  0  0  0
   38.4940   30.6240   46.8200 C   0  0  0  0  0  0  0  0  0  0  0  0
   39.0930   31.1160   45.6960 C   0  0  0  0  0  0  0  0  0  0  0  0
   39.6420   32.3800   45.6900 C   0  0  0  0  0  0  0  0  0  0  0  0
   39.5600   33.1030   46.8430 C   0  0  0  0  0  0  0  0  0  0  0  0
   38.0950   29.6070   46.6990 H   0  0  0  0  0  0  0  0  0  0  0  0
   39.1700   30.5560   44.7670 H   0  0  0  0  0  0  0  0  0  0  0  0
   40.1210   32.7740   44.7930 H   0  0  0  0  0  0  0  0  0  0  0  0
   39.9880   34.0980   46.8540 H   0  0  0  0  0  0  0  0  0  0  0  0
  1  4  1  0  0  0  0
  1  3  1  0  0  0  0
  1 27  1  0  0  0  0
  2  1  1  0  0  0  0
  4  5  1  0  0  0  0
  5  6  2  0  0  0  0
  5 10  1  0  0  0  0
  6 11  1  0  0  0  0
  7  6  1  0  0  0  0
  8  7  2  0  0  0  0
  9  8  1  0  0  0  0
  9  4  2  0  0  0  0
 12 14  1  0  0  0  0
 12  8  1  0  0  0  0
 13 12  1  0  0  0  0
 16 15  1  0  0  0  0
 16 12  1  0  0  0  0
 17 16  2  0  0  0  0
 18 17  1  0  0  0  0
 19 24  2  0  0  0  0
 19 17  1  0  0  0  0
 20 19  1  0  0  0  0
 21 20  1  0  0  0  0
 21 23  2  0  0  0  0
 22 21  1  0  0  0  0
 23 24  1  0  0  0  0
 24 25  1  0  0  0  0
 25 15  2  0  0  0  0
 26 20  1  0  0  0  0
 27 28  1  0  0  0  0
 27 30  1  0  0  0  0
 29 27  1  0  0  0  0
 30 35  1  0  0  0  0
 31 37  1  0  0  0  0
 32 38  1  0  0  0  0
 32 31  2  0  0  0  0
 33 32  1  0  0  0  0
 34 33  2  0  0  0  0
 34 35  1  0  0  0  0
 35 36  2  0  0  0  0
 36 31  1  0  0  0  0
 40 41  1  0  0  0  0
 40 39  1  0  0  0  0
 41 33  1  0  0  0  0
 42 41  2  0  0  0  0
 43 42  1  0  0  0  0
 44 43  2  0  0  0  0
 44 45  1  0  0  0  0
 45 49  1  0  0  0  0
 45 40  2  0  0  0  0
 46 42  1  0  0  0  0
 47 43  1  0  0  0  0
 48 44  1  0  0  0  0
M  END
>  <minimizedAffinity>
-6.7753067

>  <minimizedRMSD>
0.882460475

$$$$
