
     RDKit          3D

 39 42  0  0  0  0  0  0  0  0999 V2000
   32.6824   30.3020   46.5702 Cl  0  0  0  0  0  0  0  0  0  0  0  0
   32.6302   28.5523   46.7283 C   0  0  0  0  0  0  0  0  0  0  0  0
   33.5096   27.9152   47.5954 C   0  0  0  0  0  0  0  0  0  0  0  0
   33.5122   26.5197   47.7569 C   0  0  0  0  0  0  0  0  0  0  0  0
   32.5804   25.8144   46.9955 C   0  0  0  0  0  0  0  0  0  0  0  0
   31.7092   26.4185   46.1397 C   0  0  0  0  0  0  0  0  0  0  0  0
   30.5901   25.4252   45.2420 Cl  0  0  0  0  0  0  0  0  0  0  0  0
   31.7409   27.8028   46.0105 C   0  0  0  0  0  0  0  0  0  0  0  0
   35.3965   29.2936   50.4407 C   0  0  0  0  0  0  0  0  0  0  0  0
   36.3346   30.1242   49.7883 C   0  0  0  0  0  0  0  0  0  0  0  0
   36.3018   30.1973   48.4043 C   0  0  0  0  0  0  0  0  0  0  0  0
   35.3530   29.4535   47.7547 N   0  0  0  0  0  0  0  0  0  0  0  0
   34.4821   28.6804   48.3840 C   0  0  0  0  0  0  0  0  0  0  0  0
   34.4986   28.5971   49.7145 N   0  0  0  0  0  0  0  0  0  0  0  0
   37.3030   30.9098   50.5966 C   0  0  0  0  0  0  0  0  0  0  0  0
   38.5947   30.7640   50.1276 F   0  0  0  0  0  0  0  0  0  0  0  0
   36.9478   32.2505   50.5492 F   0  0  0  0  0  0  0  0  0  0  0  0
   37.2896   30.5382   51.9303 F   0  0  0  0  0  0  0  0  0  0  0  0
   30.7977   28.4780   45.0835 C   0  0  0  0  0  0  0  0  0  0  0  0
   29.8302   27.5743   44.6361 F   0  0  0  0  0  0  0  0  0  0  0  0
   31.4253   29.0767   44.0393 F   0  0  0  0  0  0  0  0  0  0  0  0
   30.0903   29.4564   45.7853 F   0  0  0  0  0  0  0  0  0  0  0  0
   34.2022   26.0325   48.4359 H   0  0  0  0  0  0  0  0  0  0  0  0
   32.5695   24.7298   47.1092 H   0  0  0  0  0  0  0  0  0  0  0  0
   35.4442   29.2554   51.5113 H   0  0  0  0  0  0  0  0  0  0  0  0
   38.2521   31.4928   48.1936 C   0  0  0  0  0  0  0  0  0  0  0  0
   37.1149   31.0003   47.5299 C   0  0  0  0  0  0  0  0  0  0  0  0
   37.0364   31.4361   46.2334 C   0  0  0  0  0  0  0  0  0  0  0  0
   36.1866   31.1315   45.6878 H   0  0  0  0  0  0  0  0  0  0  0  0
   37.9661   32.2596   45.6476 C   0  0  0  0  0  0  0  0  0  0  0  0
   37.9959   32.7472   44.3955 N   0  0  0  0  0  0  0  0  0  0  0  0
   39.0982   33.5022   44.2932 C   0  0  0  0  0  0  0  0  0  0  0  0
   39.3978   34.0363   43.3855 H   0  0  0  0  0  0  0  0  0  0  0  0
   39.7412   33.4857   45.4554 N   0  0  0  0  0  0  0  0  0  0  0  0
   39.0693   32.7219   46.3300 C   0  0  0  0  0  0  0  0  0  0  0  0
   39.2051   32.3206   47.6399 C   0  0  0  0  0  0  0  0  0  0  0  0
   38.5069   31.2663   49.2432 H   0  0  0  0  0  0  0  0  0  0  0  0
   37.2921   32.5799   43.6190 H   0  0  0  0  0  0  0  0  0  0  0  0
   40.0758   32.6948   48.1556 H   0  0  0  0  0  0  0  0  0  0  0  0
  1  2  1  0
  2  3  2  0
  3  4  1  0
  3 13  1  0
  5  4  2  0
  6  5  1  0
  7  6  1  0
  8  6  2  0
  8  2  1  0
 10  9  2  0
 10 15  1  0
 11 10  1  0
 12 13  1  0
 12 11  2  0
 13 14  2  0
 14  9  1  0
 15 18  1  0
 16 15  1  0
 17 15  1  0
 19 22  1  0
 19  8  1  0
 20 19  1  0
 21 19  1  0
  4 23  1  0
  5 24  1  0
  9 25  1  0
 26 27  2  0
 27 28  1  0
 28 29  1  0
 28 30  2  0
 30 31  1  0
 31 32  1  0
 32 33  1  0
 32 34  2  0
 34 35  1  0
 35 36  2  0
 36 26  1  0
 35 30  1  0
 26 37  1  0
 31 38  1  0
 36 39  1  0
 11 27  1  0
M  ISO  5  23  14  24  14  25  14  29  15  33  14
M  END
>  <DihAtoms>  (1) 
9,10,26,25

>  <DihDeg>  (1) 
-118.915655013127

$$$$
