
 OpenBabel03272504213D

 42 45  0  0  1  0  0  0  0  0999 V2000
   38.8810   32.4330   47.8780 C   0  0  2  0  0  0  0  0  0  0  0  0
   38.1960   31.4020   48.7600 C   0  0  1  0  0  0  0  0  0  0  0  0
   38.6880   31.9220   50.1220 C   0  0  0  0  0  0  0  0  0  0  0  0
   38.3610   33.2670   50.0170 O   0  0  0  0  0  0  0  0  0  0  0  0
   38.6770   33.6700   48.7420 C   0  0  0  0  0  0  0  0  0  0  0  0
   39.9520   32.1520   47.8210 H   0  0  0  0  0  0  0  0  0  0  0  0
   38.5190   30.3770   48.5800 H   0  0  0  0  0  0  0  0  0  0  0  0
   39.7880   31.8230   50.1190 H   0  0  0  0  0  0  0  0  0  0  0  0
   38.1860   31.4330   50.9560 H   0  0  0  0  0  0  0  0  0  0  0  0
   39.5710   34.3110   48.7700 H   0  0  0  0  0  0  0  0  0  0  0  0
   37.8260   34.2460   48.2830 H   0  0  0  0  0  0  0  0  0  0  0  0
   36.8410   31.6120   48.6430 O   0  0  0  0  0  0  0  0  0  0  0  0
   35.9490   29.8510   46.9460 O   0  0  0  0  0  0  0  0  0  0  0  0
   35.9860   30.1780   48.4080 P   0  0  1  0  0  0  0  0  0  0  0  0
   36.7690   28.8860   49.2230 O   0  0  0  0  0  0  0  0  0  0  0  0
   37.5460   28.5790   48.7010 H   0  0  0  0  0  0  0  0  0  0  0  0
   34.4070   30.3440   49.0250 O   0  0  0  0  0  0  0  0  0  0  0  0
   34.1440   29.2140   49.7740 C   0  0  0  0  0  0  0  0  0  0  0  0
   33.5840   29.5740   50.6790 H   0  0  0  0  0  0  0  0  0  0  0  0
   35.0740   28.7650   50.1590 H   0  0  0  0  0  0  0  0  0  0  0  0
   33.2840   28.2360   49.0740 C   0  0  0  0  0  0  0  0  0  0  0  0
   33.9130   27.3450   48.2370 C   0  0  0  0  0  0  0  0  0  0  0  0
   33.1580   26.3960   47.5470 C   0  0  0  0  0  0  0  0  0  0  0  0
   31.8090   26.4130   47.7490 N   0  0  0  0  0  0  0  0  0  0  0  0
   31.2130   27.2980   48.5760 C   0  0  0  0  0  0  0  0  0  0  0  0
   31.9490   28.2140   49.2410 N   0  0  0  0  0  0  0  0  0  0  0  0
   34.9580   27.2540   48.0150 H   0  0  0  0  0  0  0  0  0  0  0  0
   33.5610   25.6540   46.8690 H   0  0  0  0  0  0  0  0  0  0  0  0
   30.1340   27.2880   48.7170 H   0  0  0  0  0  0  0  0  0  0  0  0
   38.2180   32.4730   46.6800 O   0  0  0  0  0  0  0  0  0  0  0  0
   39.9280   31.5910   45.3920 C   0  0  0  0  0  3  0  0  0  0  0  0
   38.6830   32.2090   45.4140 C   0  0  0  0  0  0  0  0  0  0  0  0
   38.0710   32.4810   44.1970 C   0  0  0  0  0  0  0  0  0  0  0  0
   37.1050   32.9630   44.3020 H   0  0  0  0  0  0  0  0  0  0  0  0
   38.6940   32.1420   43.0100 C   0  0  0  0  0  0  0  0  0  0  0  0
   38.2620   32.3250   41.7470 N   0  0  0  0  0  0  0  0  0  0  0  0
   39.2380   31.8200   40.9700 C   0  0  0  0  0  0  0  0  0  0  0  0
   39.1470   31.8370   39.8760 H   0  0  0  0  0  0  0  0  0  0  0  0
   40.2390   31.3440   41.7330 N   0  0  0  0  0  0  0  0  0  0  0  0
   39.9310   31.5300   43.0430 C   0  0  0  0  0  0  0  0  0  0  0  0
   40.5730   31.2420   44.2220 C   0  0  0  0  0  3  0  0  0  0  0  0
   37.3680   32.7590   41.4380 H   0  0  0  0  0  0  0  0  0  0  0  0
  1  6  1  6  0  0  0
  1  5  1  0  0  0  0
  1  2  1  0  0  0  0
  2  7  1  6  0  0  0
  2  3  1  0  0  0  0
  3  9  1  0  0  0  0
  4  3  1  0  0  0  0
  5 10  1  0  0  0  0
  5  4  1  0  0  0  0
  8  3  1  0  0  0  0
 11  5  1  0  0  0  0
 12  2  1  0  0  0  0
 14 13  2  6  0  0  0
 14 12  1  0  0  0  0
 14 17  1  0  0  0  0
 14 15  1  0  0  0  0
 16 15  1  0  0  0  0
 17 18  1  0  0  0  0
 18 20  1  0  0  0  0
 18 19  1  0  0  0  0
 21 26  1  0  0  0  0
 21 18  1  0  0  0  0
 22 21  2  0  0  0  0
 23 24  2  0  0  0  0
 23 22  1  0  0  0  0
 24 25  1  0  0  0  0
 25 29  1  0  0  0  0
 25 26  2  0  0  0  0
 27 22  1  0  0  0  0
 28 23  1  0  0  0  0
 30  1  1  0  0  0  0
 31 32  1  0  0  0  0
 32 30  1  0  0  0  0
 33 34  1  0  0  0  0
 33 32  2  0  0  0  0
 35 40  2  0  0  0  0
 35 33  1  0  0  0  0
 36 35  1  0  0  0  0
 37 39  2  0  0  0  0
 37 36  1  0  0  0  0
 38 37  1  0  0  0  0
 39 40  1  0  0  0  0
 40 41  1  0  0  0  0
 41 31  2  0  0  0  0
 42 36  1  0  0  0  0
M  END
>  <minimizedAffinity>
-5.27398014

>  <minimizedRMSD>
0.248471707

$$$$
