
     RDKit          3D

 33 36  0  0  0  0  0  0  0  0999 V2000
   37.9113   30.8696   46.7291 C   0  0  0  0  0  0  0  0  0  0  0  0
   38.0668   31.0392   48.1405 C   0  0  0  0  0  0  0  0  0  0  0  0
   36.9294   30.8138   48.9351 C   0  0  0  0  0  0  0  0  0  0  0  0
   35.7772   30.4552   48.3139 N   0  0  0  0  0  0  0  0  0  0  0  0
   35.6725   30.3057   46.9777 C   0  0  0  0  0  0  0  0  0  0  0  0
   36.7496   30.5174   46.2054 N   0  0  0  0  0  0  0  0  0  0  0  0
   39.0947   31.1041   45.9024 C   0  0  0  0  0  0  0  0  0  0  0  0
   39.9147   32.2127   45.9039 C   0  0  0  0  0  0  0  0  0  0  0  0
   40.9354   32.0380   44.9621 C   0  0  0  0  0  0  0  0  0  0  0  0
   40.6827   30.8053   44.4207 N   0  0  0  0  0  0  0  0  0  0  0  0
   39.6122   30.2708   44.9729 N   0  0  0  0  0  0  0  0  0  0  0  0
   37.0460   30.9786   50.4056 C   0  0  0  0  0  0  0  0  0  0  0  0
   36.5587   32.2433   50.6836 F   0  0  0  0  0  0  0  0  0  0  0  0
   36.2993   30.0630   51.1090 F   0  0  0  0  0  0  0  0  0  0  0  0
   38.3735   30.9370   50.8272 F   0  0  0  0  0  0  0  0  0  0  0  0
   39.0262   31.3280   48.5500 H   0  0  0  0  0  0  0  0  0  0  0  0
   34.7149   30.0169   46.5616 H   0  0  0  0  0  0  0  0  0  0  0  0
   39.7522   33.0652   46.5545 H   0  0  0  0  0  0  0  0  0  0  0  0
   41.6779   32.7900   44.8106 H   0  0  0  0  0  0  0  0  0  0  0  0
   42.6466   31.0312   42.9481 C   0  0  0  0  0  0  0  0  0  0  0  0
   41.5611   30.3320   43.4142 C   0  0  0  0  0  0  0  0  0  0  0  0
   41.2282   29.0756   42.9259 C   0  0  0  0  0  0  0  0  0  0  0  0
   40.3923   28.4762   43.2480 H   0  0  0  0  0  0  0  0  0  0  0  0
   42.0008   28.4734   41.9281 C   0  0  0  0  0  0  0  0  0  0  0  0
   41.9360   27.2953   41.2675 N   0  0  0  0  0  0  0  0  0  0  0  0
   42.9783   27.2646   40.3947 C   0  0  0  0  0  0  0  0  0  0  0  0
   43.1288   26.3916   39.7426 H   0  0  0  0  0  0  0  0  0  0  0  0
   43.6798   28.4090   40.5130 N   0  0  0  0  0  0  0  0  0  0  0  0
   43.1010   29.1808   41.4548 C   0  0  0  0  0  0  0  0  0  0  0  0
   43.3974   30.4306   41.9690 C   0  0  0  0  0  0  0  0  0  0  0  0
   42.8586   32.0068   43.3652 H   0  0  0  0  0  0  0  0  0  0  0  0
   41.2147   26.5605   41.4135 H   0  0  0  0  0  0  0  0  0  0  0  0
   44.2730   30.9548   41.5688 H   0  0  0  0  0  0  0  0  0  0  0  0
  1  2  2  0
  2  3  1  0
  3 12  1  0
  4  3  2  0
  5  4  1  0
  6  1  1  0
  6  5  2  0
  7  1  1  0
  8  7  1  0
  9  8  2  0
 10  9  1  0
 10 11  1  0
 11  7  2  0
 12 13  1  0
 12 15  1  0
 12 14  1  0
  2 16  1  0
  5 17  1  0
  8 18  1  0
  9 19  1  0
 20 21  2  0
 21 22  1  0
 22 23  1  0
 22 24  2  0
 24 25  1  0
 25 26  1  0
 26 27  1  0
 26 28  2  0
 28 29  1  0
 29 30  2  0
 30 20  1  0
 29 24  1  0
 20 31  1  0
 25 32  1  0
 30 33  1  0
 10 21  1  0
M  ISO  6  16  14  17  14  18  14  19  14  23  15  27  14
M  END
>  <DihAtoms>  (1) 
8,9,20,19

>  <DihDeg>  (1) 
-90.06295449917607

$$$$
