
 OpenBabel03272504223D

 42 45  0  0  1  0  0  0  0  0999 V2000
   38.8970   32.4150   47.8740 C   0  0  2  0  0  0  0  0  0  0  0  0
   38.1910   31.4000   48.7570 C   0  0  1  0  0  0  0  0  0  0  0  0
   38.6500   31.9440   50.1210 C   0  0  0  0  0  0  0  0  0  0  0  0
   38.3250   33.2860   49.9850 O   0  0  0  0  0  0  0  0  0  0  0  0
   38.6720   33.6670   48.7110 C   0  0  0  0  0  0  0  0  0  0  0  0
   39.9690   32.1340   47.8470 H   0  0  0  0  0  0  0  0  0  0  0  0
   38.5190   30.3720   48.6040 H   0  0  0  0  0  0  0  0  0  0  0  0
   39.7500   31.8450   50.1460 H   0  0  0  0  0  0  0  0  0  0  0  0
   38.1280   31.4690   50.9510 H   0  0  0  0  0  0  0  0  0  0  0  0
   39.5650   34.3100   48.7490 H   0  0  0  0  0  0  0  0  0  0  0  0
   37.8320   34.2340   48.2210 H   0  0  0  0  0  0  0  0  0  0  0  0
   36.8400   31.6070   48.6040 O   0  0  0  0  0  0  0  0  0  0  0  0
   35.9670   29.8250   46.9190 O   0  0  0  0  0  0  0  0  0  0  0  0
   35.9900   30.1680   48.3780 P   0  0  1  0  0  0  0  0  0  0  0  0
   36.7690   28.8870   49.2130 O   0  0  0  0  0  0  0  0  0  0  0  0
   37.5520   28.5760   48.7020 H   0  0  0  0  0  0  0  0  0  0  0  0
   34.4060   30.3360   48.9780 O   0  0  0  0  0  0  0  0  0  0  0  0
   34.1410   29.2180   49.7430 C   0  0  0  0  0  0  0  0  0  0  0  0
   33.5820   29.5910   50.6440 H   0  0  0  0  0  0  0  0  0  0  0  0
   35.0710   28.7730   50.1350 H   0  0  0  0  0  0  0  0  0  0  0  0
   33.2800   28.2300   49.0580 C   0  0  0  0  0  0  0  0  0  0  0  0
   33.9070   27.3320   48.2270 C   0  0  0  0  0  0  0  0  0  0  0  0
   33.1500   26.3740   47.5500 C   0  0  0  0  0  0  0  0  0  0  0  0
   31.8030   26.3900   47.7600 N   0  0  0  0  0  0  0  0  0  0  0  0
   31.2090   27.2830   48.5800 C   0  0  0  0  0  0  0  0  0  0  0  0
   31.9460   28.2070   49.2330 N   0  0  0  0  0  0  0  0  0  0  0  0
   34.9510   27.2410   48.0010 H   0  0  0  0  0  0  0  0  0  0  0  0
   33.5520   25.6260   46.8780 H   0  0  0  0  0  0  0  0  0  0  0  0
   30.1310   27.2720   48.7280 H   0  0  0  0  0  0  0  0  0  0  0  0
   38.2630   32.4340   46.6600 O   0  0  0  0  0  0  0  0  0  0  0  0
   37.9700   32.4830   44.3630 C   0  0  0  0  0  3  0  0  0  0  0  0
   38.7020   31.9870   45.4370 C   0  0  0  0  0  0  0  0  0  0  0  0
   39.7550   31.1260   45.1600 C   0  0  0  0  0  0  0  0  0  0  0  0
   40.2740   30.7860   46.0490 H   0  0  0  0  0  0  0  0  0  0  0  0
   40.0550   30.7850   43.8550 C   0  0  0  0  0  0  0  0  0  0  0  0
   41.0290   29.9740   43.3960 N   0  0  0  0  0  0  0  0  0  0  0  0
   40.8860   29.9800   42.0580 C   0  0  0  0  0  0  0  0  0  0  0  0
   41.5590   29.3950   41.4200 H   0  0  0  0  0  0  0  0  0  0  0  0
   39.8550   30.7730   41.7070 N   0  0  0  0  0  0  0  0  0  0  0  0
   39.2980   31.3050   42.8250 C   0  0  0  0  0  0  0  0  0  0  0  0
   38.2460   32.1590   43.0500 C   0  0  0  0  0  3  0  0  0  0  0  0
   41.7380   29.4550   43.9530 H   0  0  0  0  0  0  0  0  0  0  0  0
  1  6  1  6  0  0  0
  1  5  1  0  0  0  0
  1  2  1  0  0  0  0
  2  7  1  6  0  0  0
  2  3  1  0  0  0  0
  3  8  1  0  0  0  0
  3  9  1  0  0  0  0
  4  3  1  0  0  0  0
  5 10  1  0  0  0  0
  5  4  1  0  0  0  0
 11  5  1  0  0  0  0
 12  2  1  0  0  0  0
 14 13  2  6  0  0  0
 14 12  1  0  0  0  0
 14 17  1  0  0  0  0
 14 15  1  0  0  0  0
 16 15  1  0  0  0  0
 17 18  1  0  0  0  0
 18 20  1  0  0  0  0
 18 19  1  0  0  0  0
 21 26  1  0  0  0  0
 21 18  1  0  0  0  0
 22 21  2  0  0  0  0
 23 24  2  0  0  0  0
 23 22  1  0  0  0  0
 24 25  1  0  0  0  0
 25 29  1  0  0  0  0
 25 26  2  0  0  0  0
 27 22  1  0  0  0  0
 28 23  1  0  0  0  0
 30  1  1  0  0  0  0
 31 32  1  0  0  0  0
 32 30  1  0  0  0  0
 33 32  2  0  0  0  0
 33 34  1  0  0  0  0
 35 33  1  0  0  0  0
 36 35  1  0  0  0  0
 36 42  1  0  0  0  0
 37 36  1  0  0  0  0
 38 37  1  0  0  0  0
 39 37  2  0  0  0  0
 39 40  1  0  0  0  0
 40 41  1  0  0  0  0
 40 35  2  0  0  0  0
 41 31  2  0  0  0  0
M  END
>  <minimizedAffinity>
-5.35185623

>  <minimizedRMSD>
0.63125211

$$$$
