
 OpenBabel03262521483D

 33 35  0  0  0  0  0  0  0  0999 V2000
   36.7160   27.9020   34.6940 O   0  0  0  0  0  0  0  0  0  0  0  0
   37.9580   27.0880   35.0140 P   0  0  2  0  0  0  0  0  0  0  0  0
   38.6590   27.8110   36.3630 O   0  0  0  0  0  0  0  0  0  0  0  0
   39.6270   27.8650   36.1730 H   0  0  0  0  0  0  0  0  0  0  0  0
   38.9990   27.1750   33.6720 O   0  0  0  0  0  0  0  0  0  0  0  0
   38.2810   27.3430   32.4830 C   0  0  0  0  0  0  0  0  0  0  0  0
   38.6510   28.2600   32.0120 H   0  0  0  0  0  0  0  0  0  0  0  0
   37.2100   27.5130   32.7180 H   0  0  0  0  0  0  0  0  0  0  0  0
   38.5470   26.1590   31.6150 C   0  0  0  0  0  0  0  0  0  0  0  0
   38.7690   26.4110   30.5500 H   0  0  0  0  0  0  0  0  0  0  0  0
   39.4910   25.6840   32.0120 H   0  0  0  0  0  0  0  0  0  0  0  0
   37.5230   25.1150   31.6500 C   0  0  0  0  0  0  0  0  0  0  0  0
   37.7850   23.8220   32.0610 C   0  0  0  0  0  0  0  0  0  0  0  0
   36.7170   22.9010   32.0530 C   0  0  0  0  0  0  0  0  0  0  0  0
   35.4840   23.3330   31.6400 N   0  0  0  0  0  0  0  0  0  0  0  0
   35.2800   24.6250   31.2430 C   0  0  0  0  0  0  0  0  0  0  0  0
   36.3090   25.5070   31.2520 N   0  0  0  0  0  0  0  0  0  0  0  0
   38.7910   23.5710   32.3710 H   0  0  0  0  0  0  0  0  0  0  0  0
   36.9070   21.8960   32.3690 H   0  0  0  0  0  0  0  0  0  0  0  0
   34.2800   24.8950   30.9310 H   0  0  0  0  0  0  0  0  0  0  0  0
   37.5780   25.5030   35.3740 O   0  0  0  0  0  0  0  0  0  0  0  0
   38.0770   24.2000   37.4390 C   0  0  0  0  0  3  0  0  0  0  0  0
   38.2750   24.6060   36.1430 C   0  0  0  0  0  0  0  0  0  0  0  0
   39.3460   24.0570   35.4260 C   0  0  0  0  0  0  0  0  0  0  0  0
   39.6180   24.2900   34.3880 H   0  0  0  0  0  0  0  0  0  0  0  0
   40.1950   23.1150   36.0140 C   0  0  0  0  0  0  0  0  0  0  0  0
   41.2750   22.4190   35.6140 N   0  0  0  0  0  0  0  0  0  0  0  0
   41.6920   21.6350   36.6440 C   0  0  0  0  0  0  0  0  0  0  0  0
   42.5550   20.9660   36.5800 H   0  0  0  0  0  0  0  0  0  0  0  0
   40.8650   21.8360   37.7080 N   0  0  0  0  0  0  0  0  0  0  0  0
   39.9510   22.7400   37.3210 C   0  0  0  0  0  0  0  0  0  0  0  0
   38.8960   23.2780   38.0380 C   0  0  0  0  0  3  0  0  0  0  0  0
   41.6790   22.5070   34.6700 H   0  0  0  0  0  0  0  0  0  0  0  0
  2  1  2  6  0  0  0
  2 21  1  0  0  0  0
  2  3  1  0  0  0  0
  4  3  1  0  0  0  0
  5  2  1  0  0  0  0
  6  8  1  0  0  0  0
  6  5  1  0  0  0  0
  7  6  1  0  0  0  0
  9 12  1  0  0  0  0
  9 11  1  0  0  0  0
  9  6  1  0  0  0  0
 10  9  1  0  0  0  0
 12 13  1  0  0  0  0
 13 18  1  0  0  0  0
 14 13  2  0  0  0  0
 14 19  1  0  0  0  0
 15 14  1  0  0  0  0
 16 17  1  0  0  0  0
 16 15  2  0  0  0  0
 17 12  2  0  0  0  0
 20 16  1  0  0  0  0
 21 23  1  0  0  0  0
 22 32  1  0  0  0  0
 23 22  2  0  0  0  0
 24 26  2  0  0  0  0
 24 23  1  0  0  0  0
 25 24  1  0  0  0  0
 26 31  1  0  0  0  0
 27 26  1  0  0  0  0
 27 28  1  0  0  0  0
 28 30  2  0  0  0  0
 29 28  1  0  0  0  0
 31 30  1  0  0  0  0
 31 32  2  0  0  0  0
 33 27  1  0  0  0  0
M  END
>  <minimizedAffinity>
-5.33241367

$$$$

 OpenBabel03262521483D

 33 35  0  0  0  0  0  0  0  0999 V2000
   36.2970   26.7140   32.3630 O   0  0  0  0  0  0  0  0  0  0  0  0
   37.3370   25.8240   31.7060 P   0  0  2  0  0  0  0  0  0  0  0  0
   38.2710   26.8310   30.7350 O   0  0  0  0  0  0  0  0  0  0  0  0
   38.3780   26.3590   29.8730 H   0  0  0  0  0  0  0  0  0  0  0  0
   36.5160   24.6680   30.7660 O   0  0  0  0  0  0  0  0  0  0  0  0
   36.8520   23.3670   31.1570 C   0  0  0  0  0  0  0  0  0  0  0  0
   37.6140   23.4530   31.9390 H   0  0  0  0  0  0  0  0  0  0  0  0
   37.3250   22.8340   30.3060 H   0  0  0  0  0  0  0  0  0  0  0  0
   35.6200   22.7160   31.6900 C   0  0  0  0  0  0  0  0  0  0  0  0
   35.2440   23.1580   32.6450 H   0  0  0  0  0  0  0  0  0  0  0  0
   34.8080   22.9110   30.9320 H   0  0  0  0  0  0  0  0  0  0  0  0
   35.6960   21.2620   31.8390 C   0  0  0  0  0  0  0  0  0  0  0  0
   35.3910   20.6140   33.0200 C   0  0  0  0  0  0  0  0  0  0  0  0
   35.5010   19.2080   33.0450 C   0  0  0  0  0  0  0  0  0  0  0  0
   35.9020   18.5630   31.9050 N   0  0  0  0  0  0  0  0  0  0  0  0
   36.1920   19.2540   30.7620 C   0  0  0  0  0  0  0  0  0  0  0  0
   36.0850   20.6060   30.7420 N   0  0  0  0  0  0  0  0  0  0  0  0
   35.0830   21.2060   33.8720 H   0  0  0  0  0  0  0  0  0  0  0  0
   35.2680   18.6930   33.9550 H   0  0  0  0  0  0  0  0  0  0  0  0
   36.5020   18.6790   29.9000 H   0  0  0  0  0  0  0  0  0  0  0  0
   38.3180   25.0860   32.8380 O   0  0  0  0  0  0  0  0  0  0  0  0
   38.3510   26.2590   35.0360 C   0  0  0  0  0  3  0  0  0  0  0  0
   38.2650   25.1700   34.2060 C   0  0  0  0  0  0  0  0  0  0  0  0
   38.0930   23.9040   34.7800 C   0  0  0  0  0  0  0  0  0  0  0  0
   38.0080   22.9530   34.2370 H   0  0  0  0  0  0  0  0  0  0  0  0
   38.0110   23.7490   36.1660 C   0  0  0  0  0  0  0  0  0  0  0  0
   37.8520   22.7090   37.0060 N   0  0  0  0  0  0  0  0  0  0  0  0
   37.8470   23.1790   38.2820 C   0  0  0  0  0  0  0  0  0  0  0  0
   37.7320   22.5350   39.1590 H   0  0  0  0  0  0  0  0  0  0  0  0
   38.0040   24.5320   38.2500 N   0  0  0  0  0  0  0  0  0  0  0  0
   38.1030   24.8780   36.9570 C   0  0  0  0  0  0  0  0  0  0  0  0
   38.2730   26.1340   36.3990 C   0  0  0  0  0  3  0  0  0  0  0  0
   37.7560   21.7370   36.6790 H   0  0  0  0  0  0  0  0  0  0  0  0
  2  1  2  1  0  0  0
  2 21  1  0  0  0  0
  3  2  1  0  0  0  0
  4  3  1  0  0  0  0
  5  6  1  0  0  0  0
  5  2  1  0  0  0  0
  6  9  1  0  0  0  0
  6  7  1  0  0  0  0
  8  6  1  0  0  0  0
  9 12  1  0  0  0  0
  9 10  1  0  0  0  0
 11  9  1  0  0  0  0
 12 13  1  0  0  0  0
 13 14  2  0  0  0  0
 13 18  1  0  0  0  0
 14 19  1  0  0  0  0
 15 14  1  0  0  0  0
 16 15  2  0  0  0  0
 17 16  1  0  0  0  0
 17 12  2  0  0  0  0
 20 16  1  0  0  0  0
 21 23  1  0  0  0  0
 22 32  1  0  0  0  0
 23 24  1  0  0  0  0
 23 22  2  0  0  0  0
 24 26  2  0  0  0  0
 25 24  1  0  0  0  0
 26 31  1  0  0  0  0
 26 27  1  0  0  0  0
 27 28  1  0  0  0  0
 28 29  1  0  0  0  0
 30 28  2  0  0  0  0
 31 30  1  0  0  0  0
 32 31  2  0  0  0  0
 33 27  1  0  0  0  0
M  END
>  <minimizedAffinity>
-5.05654621

$$$$

 OpenBabel03262521483D

 33 35  0  0  0  0  0  0  0  0999 V2000
   36.9660   27.0520   34.6980 O   0  0  0  0  0  0  0  0  0  0  0  0
   38.3860   26.7460   35.1390 P   0  0  2  0  0  0  0  0  0  0  0  0
   38.6760   27.7040   36.4920 O   0  0  0  0  0  0  0  0  0  0  0  0
   39.5730   28.0980   36.3630 H   0  0  0  0  0  0  0  0  0  0  0  0
   39.4310   27.1670   33.8650 O   0  0  0  0  0  0  0  0  0  0  0  0
   38.9060   26.7720   32.6290 C   0  0  0  0  0  0  0  0  0  0  0  0
   37.9070   27.2150   32.5480 H   0  0  0  0  0  0  0  0  0  0  0  0
   38.7700   25.6710   32.6180 H   0  0  0  0  0  0  0  0  0  0  0  0
   39.8050   27.3000   31.5600 C   0  0  0  0  0  0  0  0  0  0  0  0
   40.5700   28.0280   31.9230 H   0  0  0  0  0  0  0  0  0  0  0  0
   40.3920   26.4150   31.1790 H   0  0  0  0  0  0  0  0  0  0  0  0
   39.1240   27.8680   30.3960 C   0  0  0  0  0  0  0  0  0  0  0  0
   39.6460   27.8030   29.1190 C   0  0  0  0  0  0  0  0  0  0  0  0
   38.9000   28.3870   28.0740 C   0  0  0  0  0  0  0  0  0  0  0  0
   37.7050   28.9830   28.3780 N   0  0  0  0  0  0  0  0  0  0  0  0
   37.2340   29.0190   29.6610 C   0  0  0  0  0  0  0  0  0  0  0  0
   37.9550   28.4570   30.6630 N   0  0  0  0  0  0  0  0  0  0  0  0
   40.5990   27.3110   28.9720 H   0  0  0  0  0  0  0  0  0  0  0  0
   39.2940   28.3430   27.0790 H   0  0  0  0  0  0  0  0  0  0  0  0
   36.2830   29.5070   29.8260 H   0  0  0  0  0  0  0  0  0  0  0  0
   38.5670   25.1390   35.5550 O   0  0  0  0  0  0  0  0  0  0  0  0
   40.9300   24.5370   35.0410 C   0  0  0  0  0  3  0  0  0  0  0  0
   39.7220   24.4100   35.6800 C   0  0  0  0  0  0  0  0  0  0  0  0
   39.5710   23.3910   36.6290 C   0  0  0  0  0  0  0  0  0  0  0  0
   38.6650   23.1780   37.2120 H   0  0  0  0  0  0  0  0  0  0  0  0
   40.6250   22.5210   36.9220 C   0  0  0  0  0  0  0  0  0  0  0  0
   40.8020   21.4760   37.7520 N   0  0  0  0  0  0  0  0  0  0  0  0
   42.0700   21.0100   37.5990 C   0  0  0  0  0  0  0  0  0  0  0  0
   42.4700   20.1610   38.1610 H   0  0  0  0  0  0  0  0  0  0  0  0
   42.7050   21.7690   36.6630 N   0  0  0  0  0  0  0  0  0  0  0  0
   41.8210   22.6920   36.2510 C   0  0  0  0  0  0  0  0  0  0  0  0
   41.9790   23.6960   35.3110 C   0  0  0  0  0  3  0  0  0  0  0  0
   40.0610   21.1290   38.3780 H   0  0  0  0  0  0  0  0  0  0  0  0
  2  1  2  6  0  0  0
  2 21  1  0  0  0  0
  2  3  1  0  0  0  0
  4  3  1  0  0  0  0
  5  2  1  0  0  0  0
  6  5  1  0  0  0  0
  7  6  1  0  0  0  0
  8  6  1  0  0  0  0
  9 10  1  0  0  0  0
  9  6  1  0  0  0  0
 11  9  1  0  0  0  0
 12 17  1  0  0  0  0
 12  9  1  0  0  0  0
 13 12  2  0  0  0  0
 14 15  2  0  0  0  0
 14 13  1  0  0  0  0
 15 16  1  0  0  0  0
 16 20  1  0  0  0  0
 16 17  2  0  0  0  0
 18 13  1  0  0  0  0
 19 14  1  0  0  0  0
 21 23  1  0  0  0  0
 22 32  2  0  0  0  0
 22 23  1  0  0  0  0
 23 24  2  0  0  0  0
 24 26  1  0  0  0  0
 24 25  1  0  0  0  0
 26 27  1  0  0  0  0
 27 33  1  0  0  0  0
 28 27  1  0  0  0  0
 28 29  1  0  0  0  0
 30 28  2  0  0  0  0
 31 30  1  0  0  0  0
 31 26  2  0  0  0  0
 32 31  1  0  0  0  0
M  END
>  <minimizedAffinity>
-4.9576335

$$$$

 OpenBabel03262521483D

 33 35  0  0  0  0  0  0  0  0999 V2000
   35.0490   20.8650   31.7960 O   0  0  0  0  0  0  0  0  0  0  0  0
   36.5070   21.2180   32.0260 P   0  0  2  0  0  0  0  0  0  0  0  0
   37.3900   19.8360   31.6500 O   0  0  0  0  0  0  0  0  0  0  0  0
   38.0540   19.7280   32.3740 H   0  0  0  0  0  0  0  0  0  0  0  0
   36.6930   21.6260   33.6670 O   0  0  0  0  0  0  0  0  0  0  0  0
   38.0360   21.8650   33.9800 C   0  0  0  0  0  0  0  0  0  0  0  0
   38.6020   21.7870   33.0450 H   0  0  0  0  0  0  0  0  0  0  0  0
   38.4090   21.0620   34.6490 H   0  0  0  0  0  0  0  0  0  0  0  0
   38.1370   23.2430   34.5450 C   0  0  0  0  0  0  0  0  0  0  0  0
   38.8490   23.9110   34.0010 H   0  0  0  0  0  0  0  0  0  0  0  0
   37.1210   23.7140   34.4060 H   0  0  0  0  0  0  0  0  0  0  0  0
   38.4240   23.3110   35.9780 C   0  0  0  0  0  0  0  0  0  0  0  0
   37.5930   23.9500   36.8780 C   0  0  0  0  0  0  0  0  0  0  0  0
   37.9730   23.9510   38.2360 C   0  0  0  0  0  0  0  0  0  0  0  0
   39.1390   23.3230   38.5890 N   0  0  0  0  0  0  0  0  0  0  0  0
   39.9250   22.7060   37.6570 C   0  0  0  0  0  0  0  0  0  0  0  0
   39.5560   22.7070   36.3520 N   0  0  0  0  0  0  0  0  0  0  0  0
   36.6910   24.4200   36.5080 H   0  0  0  0  0  0  0  0  0  0  0  0
   37.3380   24.4430   38.9440 H   0  0  0  0  0  0  0  0  0  0  0  0
   40.8300   22.2310   38.0080 H   0  0  0  0  0  0  0  0  0  0  0  0
   37.0000   22.4710   31.0390 O   0  0  0  0  0  0  0  0  0  0  0  0
   35.3340   24.3230   31.0550 C   0  0  0  0  0  3  0  0  0  0  0  0
   36.5940   23.7810   31.0460 C   0  0  0  0  0  0  0  0  0  0  0  0
   37.6940   24.6470   31.0450 C   0  0  0  0  0  0  0  0  0  0  0  0
   38.7520   24.3510   31.0400 H   0  0  0  0  0  0  0  0  0  0  0  0
   37.5170   26.0330   31.0530 C   0  0  0  0  0  0  0  0  0  0  0  0
   38.3330   27.1030   31.0550 N   0  0  0  0  0  0  0  0  0  0  0  0
   37.5720   28.2290   31.0630 C   0  0  0  0  0  0  0  0  0  0  0  0
   37.9930   29.2400   31.0670 H   0  0  0  0  0  0  0  0  0  0  0  0
   36.2580   27.8700   31.0670 N   0  0  0  0  0  0  0  0  0  0  0  0
   36.2260   26.5270   31.0620 C   0  0  0  0  0  0  0  0  0  0  0  0
   35.1330   25.6790   31.0620 C   0  0  0  0  0  3  0  0  0  0  0  0
   39.3600   27.0220   31.0500 H   0  0  0  0  0  0  0  0  0  0  0  0
  2  1  2  6  0  0  0
  2  5  1  0  0  0  0
  3  2  1  0  0  0  0
  3  4  1  0  0  0  0
  5  6  1  0  0  0  0
  6  9  1  0  0  0  0
  6  8  1  0  0  0  0
  7  6  1  0  0  0  0
  9 12  1  0  0  0  0
 10  9  1  0  0  0  0
 11  9  1  0  0  0  0
 12 17  2  0  0  0  0
 12 13  1  0  0  0  0
 13 14  2  0  0  0  0
 14 15  1  0  0  0  0
 14 19  1  0  0  0  0
 16 20  1  0  0  0  0
 16 15  2  0  0  0  0
 17 16  1  0  0  0  0
 18 13  1  0  0  0  0
 21 23  1  0  0  0  0
 21  2  1  0  0  0  0
 22 32  1  0  0  0  0
 23 22  2  0  0  0  0
 24 23  1  0  0  0  0
 24 26  2  0  0  0  0
 25 24  1  0  0  0  0
 26 27  1  0  0  0  0
 26 31  1  0  0  0  0
 27 28  1  0  0  0  0
 28 30  2  0  0  0  0
 28 29  1  0  0  0  0
 31 30  1  0  0  0  0
 32 31  2  0  0  0  0
 33 27  1  0  0  0  0
M  END
>  <minimizedAffinity>
-4.92442942

$$$$

 OpenBabel03262521483D

 33 35  0  0  0  0  0  0  0  0999 V2000
   41.1130   23.7240   33.8660 O   0  0  0  0  0  0  0  0  0  0  0  0
   42.0340   24.5940   34.7030 P   0  0  2  0  0  0  0  0  0  0  0  0
   43.4640   24.7430   33.8290 O   0  0  0  0  0  0  0  0  0  0  0  0
   44.1980   24.6040   34.4770 H   0  0  0  0  0  0  0  0  0  0  0  0
   42.3080   23.7940   36.1790 O   0  0  0  0  0  0  0  0  0  0  0  0
   42.0380   22.4250   36.0710 C   0  0  0  0  0  0  0  0  0  0  0  0
   43.0030   21.9060   36.0930 H   0  0  0  0  0  0  0  0  0  0  0  0
   41.5830   22.2140   35.0820 H   0  0  0  0  0  0  0  0  0  0  0  0
   41.1990   22.0290   37.2400 C   0  0  0  0  0  0  0  0  0  0  0  0
   41.1420   20.9270   37.4120 H   0  0  0  0  0  0  0  0  0  0  0  0
   41.7150   22.4460   38.1530 H   0  0  0  0  0  0  0  0  0  0  0  0
   39.8440   22.5810   37.2520 C   0  0  0  0  0  0  0  0  0  0  0  0
   39.3370   23.2980   38.3180 C   0  0  0  0  0  0  0  0  0  0  0  0
   38.0160   23.7810   38.2160 C   0  0  0  0  0  0  0  0  0  0  0  0
   37.3090   23.5160   37.0730 N   0  0  0  0  0  0  0  0  0  0  0  0
   37.8600   22.8010   36.0460 C   0  0  0  0  0  0  0  0  0  0  0  0
   39.1300   22.3380   36.1480 N   0  0  0  0  0  0  0  0  0  0  0  0
   39.9690   23.4590   39.1820 H   0  0  0  0  0  0  0  0  0  0  0  0
   37.6110   24.3380   39.0360 H   0  0  0  0  0  0  0  0  0  0  0  0
   37.2430   22.6300   35.1750 H   0  0  0  0  0  0  0  0  0  0  0  0
   41.3840   26.1110   34.9580 O   0  0  0  0  0  0  0  0  0  0  0  0
   39.0760   26.6600   35.7200 C   0  0  0  0  0  3  0  0  0  0  0  0
   40.0860   26.5260   34.8010 C   0  0  0  0  0  0  0  0  0  0  0  0
   39.8220   26.8500   33.4640 C   0  0  0  0  0  0  0  0  0  0  0  0
   40.5340   26.7910   32.6300 H   0  0  0  0  0  0  0  0  0  0  0  0
   38.5580   27.3000   33.0720 C   0  0  0  0  0  0  0  0  0  0  0  0
   37.9960   27.6810   31.9090 N   0  0  0  0  0  0  0  0  0  0  0  0
   36.7020   28.0240   32.1450 C   0  0  0  0  0  0  0  0  0  0  0  0
   36.0200   28.3720   31.3640 H   0  0  0  0  0  0  0  0  0  0  0  0
   36.4410   27.8590   33.4720 N   0  0  0  0  0  0  0  0  0  0  0  0
   37.5760   27.4170   34.0360 C   0  0  0  0  0  0  0  0  0  0  0  0
   37.8280   27.0990   35.3600 C   0  0  0  0  0  3  0  0  0  0  0  0
   38.5110   27.6910   31.0170 H   0  0  0  0  0  0  0  0  0  0  0  0
  2  1  2  6  0  0  0
  2 21  1  0  0  0  0
  2  5  1  0  0  0  0
  3  4  1  0  0  0  0
  3  2  1  0  0  0  0
  6  7  1  0  0  0  0
  6  5  1  0  0  0  0
  6  9  1  0  0  0  0
  8  6  1  0  0  0  0
  9 12  1  0  0  0  0
  9 10  1  0  0  0  0
  9 11  1  0  0  0  0
 12 13  1  0  0  0  0
 13 18  1  0  0  0  0
 14 13  2  0  0  0  0
 14 19  1  0  0  0  0
 15 14  1  0  0  0  0
 16 17  1  0  0  0  0
 16 15  2  0  0  0  0
 17 12  2  0  0  0  0
 20 16  1  0  0  0  0
 23 21  1  0  0  0  0
 23 22  2  0  0  0  0
 24 23  1  0  0  0  0
 25 24  1  0  0  0  0
 26 24  2  0  0  0  0
 26 31  1  0  0  0  0
 27 28  1  0  0  0  0
 27 26  1  0  0  0  0
 28 30  2  0  0  0  0
 29 28  1  0  0  0  0
 30 31  1  0  0  0  0
 31 32  2  0  0  0  0
 32 22  1  0  0  0  0
 33 27  1  0  0  0  0
M  END
>  <minimizedAffinity>
-4.8739996

$$$$

 OpenBabel03262521483D

 33 35  0  0  0  0  0  0  0  0999 V2000
   38.2720   27.4100   32.0460 O   0  0  0  0  0  0  0  0  0  0  0  0
   36.9060   26.8210   32.3490 P   0  0  2  0  0  0  0  0  0  0  0  0
   35.8250   28.1100   32.3400 O   0  0  0  0  0  0  0  0  0  0  0  0
   35.2490   27.9920   33.1350 H   0  0  0  0  0  0  0  0  0  0  0  0
   36.9770   26.1020   33.8890 O   0  0  0  0  0  0  0  0  0  0  0  0
   38.2880   25.7390   34.2180 C   0  0  0  0  0  0  0  0  0  0  0  0
   38.5600   26.3010   35.1180 H   0  0  0  0  0  0  0  0  0  0  0  0
   38.9770   26.0680   33.4130 H   0  0  0  0  0  0  0  0  0  0  0  0
   38.3020   24.2710   34.4880 C   0  0  0  0  0  0  0  0  0  0  0  0
   37.3840   23.7330   34.1480 H   0  0  0  0  0  0  0  0  0  0  0  0
   39.1430   23.8450   33.8680 H   0  0  0  0  0  0  0  0  0  0  0  0
   38.5870   23.8940   35.8730 C   0  0  0  0  0  0  0  0  0  0  0  0
   39.6550   23.0920   36.2250 C   0  0  0  0  0  0  0  0  0  0  0  0
   39.8300   22.7940   37.5920 C   0  0  0  0  0  0  0  0  0  0  0  0
   38.9380   23.3120   38.4940 N   0  0  0  0  0  0  0  0  0  0  0  0
   37.8970   24.1010   38.0900 C   0  0  0  0  0  0  0  0  0  0  0  0
   37.7320   24.3840   36.7750 N   0  0  0  0  0  0  0  0  0  0  0  0
   40.3100   22.7270   35.4440 H   0  0  0  0  0  0  0  0  0  0  0  0
   40.6550   22.1740   37.8780 H   0  0  0  0  0  0  0  0  0  0  0  0
   37.2330   24.4740   38.8580 H   0  0  0  0  0  0  0  0  0  0  0  0
   36.4450   25.7090   31.1920 O   0  0  0  0  0  0  0  0  0  0  0  0
   37.9520   23.7920   30.6810 C   0  0  0  0  0  3  0  0  0  0  0  0
   36.7840   24.3840   31.0910 C   0  0  0  0  0  0  0  0  0  0  0  0
   35.7210   23.5630   31.4860 C   0  0  0  0  0  0  0  0  0  0  0  0
   34.7360   23.9020   31.8360 H   0  0  0  0  0  0  0  0  0  0  0  0
   35.8430   22.1710   31.4660 C   0  0  0  0  0  0  0  0  0  0  0  0
   35.0400   21.1350   31.7720 N   0  0  0  0  0  0  0  0  0  0  0  0
   35.7190   19.9790   31.5460 C   0  0  0  0  0  0  0  0  0  0  0  0
   35.2900   18.9860   31.7170 H   0  0  0  0  0  0  0  0  0  0  0  0
   36.9660   20.2850   31.0930 N   0  0  0  0  0  0  0  0  0  0  0  0
   37.0400   21.6250   31.0450 C   0  0  0  0  0  0  0  0  0  0  0  0
   38.0970   22.4290   30.6520 C   0  0  0  0  0  3  0  0  0  0  0  0
   34.0770   21.2570   32.1160 H   0  0  0  0  0  0  0  0  0  0  0  0
  2  1  2  6  0  0  0
  2  5  1  0  0  0  0
  3  2  1  0  0  0  0
  3  4  1  0  0  0  0
  5  6  1  0  0  0  0
  6  9  1  0  0  0  0
  6  7  1  0  0  0  0
  8  6  1  0  0  0  0
  9 12  1  0  0  0  0
 10  9  1  0  0  0  0
 11  9  1  0  0  0  0
 12 13  2  0  0  0  0
 12 17  1  0  0  0  0
 13 14  1  0  0  0  0
 14 19  1  0  0  0  0
 14 15  2  0  0  0  0
 16 15  1  0  0  0  0
 16 20  1  0  0  0  0
 17 16  2  0  0  0  0
 18 13  1  0  0  0  0
 21  2  1  0  0  0  0
 22 23  1  0  0  0  0
 23 21  1  0  0  0  0
 23 24  2  0  0  0  0
 24 25  1  0  0  0  0
 26 24  1  0  0  0  0
 26 27  1  0  0  0  0
 27 33  1  0  0  0  0
 28 29  1  0  0  0  0
 28 27  1  0  0  0  0
 30 28  2  0  0  0  0
 31 30  1  0  0  0  0
 31 26  2  0  0  0  0
 32 22  2  0  0  0  0
 32 31  1  0  0  0  0
M  END
>  <minimizedAffinity>
-4.83268499

$$$$

 OpenBabel03262521483D

 33 35  0  0  0  0  0  0  0  0999 V2000
   39.4260   26.9960   34.2200 O   0  0  0  0  0  0  0  0  0  0  0  0
   38.1340   26.6880   34.9560 P   0  0  2  0  0  0  0  0  0  0  0  0
   38.2040   27.5400   36.4060 O   0  0  0  0  0  0  0  0  0  0  0  0
   37.9040   26.9130   37.1080 H   0  0  0  0  0  0  0  0  0  0  0  0
   38.0830   25.0120   35.2420 O   0  0  0  0  0  0  0  0  0  0  0  0
   38.3260   24.7210   36.5890 C   0  0  0  0  0  0  0  0  0  0  0  0
   37.5020   25.1560   37.1650 H   0  0  0  0  0  0  0  0  0  0  0  0
   39.2540   25.2330   36.9180 H   0  0  0  0  0  0  0  0  0  0  0  0
   38.3480   23.2360   36.7400 C   0  0  0  0  0  0  0  0  0  0  0  0
   37.9650   22.8690   37.7230 H   0  0  0  0  0  0  0  0  0  0  0  0
   37.6290   22.8310   35.9700 H   0  0  0  0  0  0  0  0  0  0  0  0
   39.6370   22.6000   36.4660 C   0  0  0  0  0  0  0  0  0  0  0  0
   40.1120   22.3910   35.1860 C   0  0  0  0  0  0  0  0  0  0  0  0
   41.3690   21.7670   35.0450 C   0  0  0  0  0  0  0  0  0  0  0  0
   42.0490   21.4030   36.1780 N   0  0  0  0  0  0  0  0  0  0  0  0
   41.5320   21.6330   37.4220 C   0  0  0  0  0  0  0  0  0  0  0  0
   40.3230   22.2330   37.5530 N   0  0  0  0  0  0  0  0  0  0  0  0
   39.5050   22.7120   34.3490 H   0  0  0  0  0  0  0  0  0  0  0  0
   41.7490   21.6000   34.0580 H   0  0  0  0  0  0  0  0  0  0  0  0
   42.1240   21.3190   38.2700 H   0  0  0  0  0  0  0  0  0  0  0  0
   36.7980   27.1880   34.0880 O   0  0  0  0  0  0  0  0  0  0  0  0
   36.2010   29.2760   32.8670 C   0  0  0  0  0  3  0  0  0  0  0  0
   36.7430   28.0220   33.0020 C   0  0  0  0  0  0  0  0  0  0  0  0
   37.3580   27.4370   31.8880 C   0  0  0  0  0  0  0  0  0  0  0  0
   37.8310   26.4460   31.8560 H   0  0  0  0  0  0  0  0  0  0  0  0
   37.4210   28.1110   30.6660 C   0  0  0  0  0  0  0  0  0  0  0  0
   37.9230   27.8390   29.4470 N   0  0  0  0  0  0  0  0  0  0  0  0
   37.6800   28.8990   28.6310 C   0  0  0  0  0  0  0  0  0  0  0  0
   37.9880   28.9330   27.5810 H   0  0  0  0  0  0  0  0  0  0  0  0
   37.0160   29.8540   29.3400 N   0  0  0  0  0  0  0  0  0  0  0  0
   36.8600   29.3710   30.5830 C   0  0  0  0  0  0  0  0  0  0  0  0
   36.2490   29.9570   31.6780 C   0  0  0  0  0  3  0  0  0  0  0  0
   38.4030   26.9550   29.2250 H   0  0  0  0  0  0  0  0  0  0  0  0
  2  1  2  6  0  0  0
  2  5  1  0  0  0  0
  2  3  1  0  0  0  0
  3  4  1  0  0  0  0
  5  6  1  0  0  0  0
  6  9  1  0  0  0  0
  6  8  1  0  0  0  0
  6  7  1  0  0  0  0
  9 10  1  0  0  0  0
 11  9  1  0  0  0  0
 12  9  1  0  0  0  0
 12 17  1  0  0  0  0
 13 12  2  0  0  0  0
 14 13  1  0  0  0  0
 14 15  2  0  0  0  0
 15 16  1  0  0  0  0
 16 17  2  0  0  0  0
 16 20  1  0  0  0  0
 18 13  1  0  0  0  0
 19 14  1  0  0  0  0
 21  2  1  0  0  0  0
 22 23  1  0  0  0  0
 23 21  1  0  0  0  0
 24 23  2  0  0  0  0
 25 24  1  0  0  0  0
 26 24  1  0  0  0  0
 27 26  1  0  0  0  0
 28 30  2  0  0  0  0
 28 27  1  0  0  0  0
 29 28  1  0  0  0  0
 30 31  1  0  0  0  0
 31 26  2  0  0  0  0
 31 32  1  0  0  0  0
 32 22  2  0  0  0  0
 33 27  1  0  0  0  0
M  END
>  <minimizedAffinity>
-4.81408882

$$$$

 OpenBabel03262521483D

 33 35  0  0  0  0  0  0  0  0999 V2000
   35.9100   24.8510   31.9160 O   0  0  0  0  0  0  0  0  0  0  0  0
   37.3820   25.1160   32.1780 P   0  0  2  0  0  0  0  0  0  0  0  0
   38.2230   24.3690   30.9270 O   0  0  0  0  0  0  0  0  0  0  0  0
   38.9790   23.8930   31.3500 H   0  0  0  0  0  0  0  0  0  0  0  0
   37.7800   24.4160   33.6770 O   0  0  0  0  0  0  0  0  0  0  0  0
   38.2660   23.1140   33.5140 C   0  0  0  0  0  0  0  0  0  0  0  0
   39.3600   23.1740   33.5540 H   0  0  0  0  0  0  0  0  0  0  0  0
   38.0020   22.7430   32.5030 H   0  0  0  0  0  0  0  0  0  0  0  0
   37.7420   22.2850   34.6390 C   0  0  0  0  0  0  0  0  0  0  0  0
   36.6280   22.2760   34.7210 H   0  0  0  0  0  0  0  0  0  0  0  0
   38.0330   21.2200   34.4070 H   0  0  0  0  0  0  0  0  0  0  0  0
   38.3110   22.5840   35.9530 C   0  0  0  0  0  0  0  0  0  0  0  0
   39.6290   22.3240   36.2740 C   0  0  0  0  0  0  0  0  0  0  0  0
   40.0660   22.6550   37.5740 C   0  0  0  0  0  0  0  0  0  0  0  0
   39.1670   23.2130   38.4440 N   0  0  0  0  0  0  0  0  0  0  0  0
   37.8720   23.4490   38.0740 C   0  0  0  0  0  0  0  0  0  0  0  0
   37.4560   23.1290   36.8240 N   0  0  0  0  0  0  0  0  0  0  0  0
   40.2690   21.8810   35.5220 H   0  0  0  0  0  0  0  0  0  0  0  0
   41.0860   22.4590   37.8360 H   0  0  0  0  0  0  0  0  0  0  0  0
   37.2190   23.8920   38.8130 H   0  0  0  0  0  0  0  0  0  0  0  0
   37.7230   26.7500   32.1720 O   0  0  0  0  0  0  0  0  0  0  0  0
   36.4460   28.1820   33.7610 C   0  0  0  0  0  3  0  0  0  0  0  0
   36.9140   27.7980   32.5300 C   0  0  0  0  0  0  0  0  0  0  0  0
   36.5480   28.5540   31.4090 C   0  0  0  0  0  0  0  0  0  0  0  0
   36.8500   28.3610   30.3710 H   0  0  0  0  0  0  0  0  0  0  0  0
   35.7230   29.6750   31.5380 C   0  0  0  0  0  0  0  0  0  0  0  0
   35.2040   30.5830   30.6910 N   0  0  0  0  0  0  0  0  0  0  0  0
   34.4570   31.4660   31.4070 C   0  0  0  0  0  0  0  0  0  0  0  0
   33.9240   32.3080   30.9550 H   0  0  0  0  0  0  0  0  0  0  0  0
   34.5040   31.1130   32.7220 N   0  0  0  0  0  0  0  0  0  0  0  0
   35.2790   30.0190   32.8000 C   0  0  0  0  0  0  0  0  0  0  0  0
   35.6350   29.2780   33.9130 C   0  0  0  0  0  3  0  0  0  0  0  0
   35.3770   30.5640   29.6760 H   0  0  0  0  0  0  0  0  0  0  0  0
  2  1  2  6  0  0  0
  2  5  1  0  0  0  0
  3  4  1  0  0  0  0
  3  2  1  0  0  0  0
  6  7  1  0  0  0  0
  6  5  1  0  0  0  0
  6  9  1  0  0  0  0
  8  6  1  0  0  0  0
  9 10  1  0  0  0  0
  9 12  1  0  0  0  0
 11  9  1  0  0  0  0
 12 13  2  0  0  0  0
 12 17  1  0  0  0  0
 13 14  1  0  0  0  0
 14 19  1  0  0  0  0
 14 15  2  0  0  0  0
 16 15  1  0  0  0  0
 16 20  1  0  0  0  0
 17 16  2  0  0  0  0
 18 13  1  0  0  0  0
 21  2  1  0  0  0  0
 21 23  1  0  0  0  0
 22 32  1  0  0  0  0
 23 22  2  0  0  0  0
 24 26  2  0  0  0  0
 24 23  1  0  0  0  0
 25 24  1  0  0  0  0
 26 31  1  0  0  0  0
 27 28  1  0  0  0  0
 27 26  1  0  0  0  0
 28 30  2  0  0  0  0
 29 28  1  0  0  0  0
 30 31  1  0  0  0  0
 31 32  2  0  0  0  0
 33 27  1  0  0  0  0
M  END
>  <minimizedAffinity>
-4.80495644

$$$$

 OpenBabel03262521483D

 33 35  0  0  0  0  0  0  0  0999 V2000
   35.3980   21.2730   33.0010 O   0  0  0  0  0  0  0  0  0  0  0  0
   36.9000   21.4900   32.9620 P   0  0  2  0  0  0  0  0  0  0  0  0
   37.5710   20.0430   32.4240 O   0  0  0  0  0  0  0  0  0  0  0  0
   38.3430   19.8620   33.0140 H   0  0  0  0  0  0  0  0  0  0  0  0
   37.4170   21.8460   34.5430 O   0  0  0  0  0  0  0  0  0  0  0  0
   38.7720   22.1940   34.5650 C   0  0  0  0  0  0  0  0  0  0  0  0
   38.9520   22.8410   33.7000 H   0  0  0  0  0  0  0  0  0  0  0  0
   39.3920   21.2850   34.4200 H   0  0  0  0  0  0  0  0  0  0  0  0
   39.0350   22.9300   35.8370 C   0  0  0  0  0  0  0  0  0  0  0  0
   38.3490   22.6560   36.6760 H   0  0  0  0  0  0  0  0  0  0  0  0
   40.0630   22.6120   36.1780 H   0  0  0  0  0  0  0  0  0  0  0  0
   39.0790   24.3870   35.7180 C   0  0  0  0  0  0  0  0  0  0  0  0
   38.1420   25.2150   36.3060 C   0  0  0  0  0  0  0  0  0  0  0  0
   38.2870   26.6050   36.1220 C   0  0  0  0  0  0  0  0  0  0  0  0
   39.3410   27.0600   35.3750 N   0  0  0  0  0  0  0  0  0  0  0  0
   40.2400   26.1960   34.8140 C   0  0  0  0  0  0  0  0  0  0  0  0
   40.0970   24.8600   34.9930 N   0  0  0  0  0  0  0  0  0  0  0  0
   37.3420   24.7660   36.8800 H   0  0  0  0  0  0  0  0  0  0  0  0
   37.5680   27.2580   36.5730 H   0  0  0  0  0  0  0  0  0  0  0  0
   41.0470   26.6270   34.2370 H   0  0  0  0  0  0  0  0  0  0  0  0
   37.3170   22.7150   31.9070 O   0  0  0  0  0  0  0  0  0  0  0  0
   35.5770   24.2790   31.0510 C   0  0  0  0  0  3  0  0  0  0  0  0
   36.7190   23.9370   31.7300 C   0  0  0  0  0  0  0  0  0  0  0  0
   37.4450   24.9480   32.3720 C   0  0  0  0  0  0  0  0  0  0  0  0
   38.3710   24.8150   32.9480 H   0  0  0  0  0  0  0  0  0  0  0  0
   37.0180   26.2780   32.3250 C   0  0  0  0  0  0  0  0  0  0  0  0
   37.4700   27.4460   32.8180 N   0  0  0  0  0  0  0  0  0  0  0  0
   36.6180   28.4350   32.4380 C   0  0  0  0  0  0  0  0  0  0  0  0
   36.7580   29.4860   32.7090 H   0  0  0  0  0  0  0  0  0  0  0  0
   35.6150   27.8880   31.6960 N   0  0  0  0  0  0  0  0  0  0  0  0
   35.8610   26.5700   31.6290 C   0  0  0  0  0  0  0  0  0  0  0  0
   35.1370   25.5770   30.9910 C   0  0  0  0  0  3  0  0  0  0  0  0
   38.3270   27.5190   33.3840 H   0  0  0  0  0  0  0  0  0  0  0  0
  2  1  2  1  0  0  0
  2  5  1  0  0  0  0
  3  2  1  0  0  0  0
  3  4  1  0  0  0  0
  5  6  1  0  0  0  0
  6  9  1  0  0  0  0
  7  6  1  0  0  0  0
  8  6  1  0  0  0  0
  9 11  1  0  0  0  0
  9 10  1  0  0  0  0
 12  9  1  0  0  0  0
 12 13  1  0  0  0  0
 13 18  1  0  0  0  0
 14 13  2  0  0  0  0
 14 19  1  0  0  0  0
 15 14  1  0  0  0  0
 16 17  1  0  0  0  0
 16 15  2  0  0  0  0
 17 12  2  0  0  0  0
 20 16  1  0  0  0  0
 21  2  1  0  0  0  0
 22 23  1  0  0  0  0
 23 21  1  0  0  0  0
 23 24  2  0  0  0  0
 24 25  1  0  0  0  0
 26 24  1  0  0  0  0
 26 27  1  0  0  0  0
 27 33  1  0  0  0  0
 28 29  1  0  0  0  0
 28 27  1  0  0  0  0
 30 28  2  0  0  0  0
 31 30  1  0  0  0  0
 31 26  2  0  0  0  0
 32 22  2  0  0  0  0
 32 31  1  0  0  0  0
M  END
>  <minimizedAffinity>
-4.79577684

$$$$
