
 OpenBabel03272503303D

 37 40  0  0  1  0  0  0  0  0999 V2000
   35.0900   29.4820   47.9140 C   0  0  0  0  0  0  0  0  0  0  0  0
   34.9760   30.0290   46.6290 C   0  0  0  0  0  0  0  0  0  0  0  0
   33.8130   29.7400   45.9300 C   0  0  0  0  0  0  0  0  0  0  0  0
   32.8800   28.9500   46.5440 N   0  0  0  0  0  0  0  0  0  0  0  0
   33.0150   28.4460   47.7600 C   0  0  0  0  0  0  0  0  0  0  0  0
   34.1440   28.7200   48.4530 N   0  0  0  0  0  0  0  0  0  0  0  0
   35.7070   30.6440   46.1550 H   0  0  0  0  0  0  0  0  0  0  0  0
   33.5990   30.0920   44.9460 H   0  0  0  0  0  0  0  0  0  0  0  0
   36.2920   29.7770   48.6460 N   0  0  0  0  0  0  0  0  0  0  0  0
   37.4240   30.5330   48.1830 C   0  0  0  0  0  0  0  0  0  0  0  0
   37.9790   31.1160   49.4830 C   0  0  2  0  0  0  0  0  0  0  0  0
   37.0160   30.7040   50.5770 C   0  0  0  0  0  0  0  0  0  0  0  0
   36.5920   29.3640   49.9960 C   0  0  0  0  0  0  0  0  0  0  0  0
   38.1590   29.8360   47.7560 H   0  0  0  0  0  0  0  0  0  0  0  0
   37.1430   31.3320   47.4750 H   0  0  0  0  0  0  0  0  0  0  0  0
   38.9450   30.6280   49.7260 H   0  0  0  0  0  0  0  0  0  0  0  0
   37.5330   30.5010   51.5170 H   0  0  0  0  0  0  0  0  0  0  0  0
   36.1480   31.3880   50.6780 H   0  0  0  0  0  0  0  0  0  0  0  0
   35.6660   29.0700   50.5300 H   0  0  0  0  0  0  0  0  0  0  0  0
   37.4100   28.6550   50.1000 H   0  0  0  0  0  0  0  0  0  0  0  0
   38.1640   32.6050   49.4260 C   0  0  0  0  0  0  0  0  0  0  0  0
   37.0170   33.1700   49.9410 F   0  0  0  0  0  0  0  0  0  0  0  0
   38.1980   32.9650   48.0860 F   0  0  0  0  0  0  0  0  0  0  0  0
   39.2910   33.0490   50.0530 F   0  0  0  0  0  0  0  0  0  0  0  0
   31.7570   27.4260   48.4980 S   0  0  0  0  0  0  0  0  0  0  0  0
   29.2950   28.7370   47.8190 C   0  0  0  0  0  3  0  0  0  0  0  0
   30.2220   27.7390   47.6090 C   0  0  0  0  0  0  0  0  0  0  0  0
   30.0230   26.8100   46.6000 C   0  0  0  0  0  0  0  0  0  0  0  0
   30.6830   25.9740   46.3340 H   0  0  0  0  0  0  0  0  0  0  0  0
   28.8930   26.8590   45.7780 C   0  0  0  0  0  0  0  0  0  0  0  0
   28.4340   26.1150   44.7390 N   0  0  0  0  0  0  0  0  0  0  0  0
   27.2650   26.6320   44.3190 C   0  0  0  0  0  0  0  0  0  0  0  0
   26.6900   26.2110   43.4890 H   0  0  0  0  0  0  0  0  0  0  0  0
   26.9890   27.7080   45.1010 N   0  0  0  0  0  0  0  0  0  0  0  0
   27.9790   27.8650   46.0050 C   0  0  0  0  0  0  0  0  0  0  0  0
   28.1890   28.7740   47.0050 C   0  0  0  0  0  3  0  0  0  0  0  0
   28.9320   25.2730   44.3430 H   0  0  0  0  0  0  0  0  0  0  0  0
  1  6  1  0  0  0  0
  1  9  1  0  0  0  0
  2  1  2  0  0  0  0
  3  4  2  0  0  0  0
  3  2  1  0  0  0  0
  4  5  1  0  0  0  0
  5  6  2  0  0  0  0
  5 25  1  0  0  0  0
  7  2  1  0  0  0  0
  8  3  1  0  0  0  0
  9 13  1  0  0  0  0
 10  9  1  0  0  0  0
 10 11  1  0  0  0  0
 11 16  1  1  0  0  0
 11 12  1  0  0  0  0
 12 18  1  0  0  0  0
 12 17  1  0  0  0  0
 13 20  1  0  0  0  0
 13 19  1  0  0  0  0
 13 12  1  0  0  0  0
 14 10  1  0  0  0  0
 15 10  1  0  0  0  0
 21 11  1  0  0  0  0
 21 22  1  0  0  0  0
 21 24  1  0  0  0  0
 23 21  1  0  0  0  0
 27 26  1  0  0  0  0
 27 25  1  0  0  0  0
 28 27  2  0  0  0  0
 29 28  1  0  0  0  0
 30 35  2  0  0  0  0
 30 28  1  0  0  0  0
 31 30  1  0  0  0  0
 32 31  1  0  0  0  0
 32 34  2  0  0  0  0
 33 32  1  0  0  0  0
 34 35  1  0  0  0  0
 35 36  1  0  0  0  0
 36 26  2  0  0  0  0
 37 31  1  0  0  0  0
M  END
>  <minimizedAffinity>
-6.09937

>  <minimizedRMSD>
1.10000253

$$$$
