
     RDKit          3D

 44 47  0  0  0  0  0  0  0  0999 V2000
   36.0416   29.9402   46.9705 O   0  0  0  0  0  0  0  0  0  0  0  0
   36.0374   30.2219   48.4425 P   0  0  2  0  0  0  0  0  0  0  0  0
   36.8018   28.9081   49.2386 O   0  0  0  0  0  0  0  0  0  0  0  0
   34.4411   30.3643   49.0202 O   0  0  0  0  0  0  0  0  0  0  0  0
   34.1784   29.2342   49.7683 C   0  0  0  0  0  0  0  0  0  0  0  0
   33.3156   28.2574   49.0679 C   0  0  0  0  0  0  0  0  0  0  0  0
   33.9412   27.3776   48.2160 C   0  0  0  0  0  0  0  0  0  0  0  0
   33.1827   26.4307   47.5248 C   0  0  0  0  0  0  0  0  0  0  0  0
   31.8365   26.4376   47.7429 N   0  0  0  0  0  0  0  0  0  0  0  0
   31.2451   27.3120   48.5848 C   0  0  0  0  0  0  0  0  0  0  0  0
   31.9833   28.2260   49.2510 N   0  0  0  0  0  0  0  0  0  0  0  0
   36.8800   31.6509   48.7448 O   0  0  0  0  0  0  0  0  0  0  0  0
   38.8413   32.4840   47.8073 C   0  0  2  0  0  0  0  0  0  0  0  0
   38.2429   31.4635   48.7596 C   0  0  1  0  0  0  0  0  0  0  0  0
   38.8310   32.0192   50.0693 C   0  0  0  0  0  0  0  0  0  0  0  0
   38.4747   33.3562   49.9629 O   0  0  0  0  0  0  0  0  0  0  0  0
   38.6850   33.7364   48.6591 C   0  0  0  0  0  0  0  0  0  0  0  0
   38.0855   32.4888   46.6645 O   0  0  0  0  0  0  0  0  0  0  0  0
   37.5936   28.6187   48.7303 H   0  0  0  0  0  0  0  0  0  0  0  0
   33.6195   29.5929   50.6745 H   0  0  0  0  0  0  0  0  0  0  0  0
   35.1088   28.7827   50.1515 H   0  0  0  0  0  0  0  0  0  0  0  0
   34.9845   27.2956   47.9811 H   0  0  0  0  0  0  0  0  0  0  0  0
   33.5828   25.6984   46.8347 H   0  0  0  0  0  0  0  0  0  0  0  0
   30.1683   27.2939   48.7391 H   0  0  0  0  0  0  0  0  0  0  0  0
   39.9077   32.2167   47.6717 H   0  0  0  0  0  0  0  0  0  0  0  0
   38.5668   30.4394   48.5772 H   0  0  0  0  0  0  0  0  0  0  0  0
   39.9290   31.9351   49.9820 H   0  0  0  0  0  0  0  0  0  0  0  0
   38.4033   31.5397   50.9494 H   0  0  0  0  0  0  0  0  0  0  0  0
   39.5677   34.3907   48.6044 H   0  0  0  0  0  0  0  0  0  0  0  0
   37.7923   34.2900   48.2563 H   0  0  0  0  0  0  0  0  0  0  0  0
   39.2488   31.0743   45.2461 C   0  0  0  0  0  0  0  0  0  0  0  0
   38.4556   32.2102   45.3701 C   0  0  0  0  0  0  0  0  0  0  0  0
   38.1390   32.9093   44.2130 C   0  0  0  0  0  0  0  0  0  0  0  0
   37.5190   33.7798   44.3956 H   0  0  0  0  0  0  0  0  0  0  0  0
   38.6050   32.4768   42.9851 C   0  0  0  0  0  0  0  0  0  0  0  0
   38.4045   33.0181   41.7672 N   0  0  0  0  0  0  0  0  0  0  0  0
   39.0708   32.2158   40.9168 C   0  0  0  0  0  0  0  0  0  0  0  0
   39.0775   32.4250   39.8397 H   0  0  0  0  0  0  0  0  0  0  0  0
   39.6620   31.2126   41.5924 N   0  0  0  0  0  0  0  0  0  0  0  0
   39.3889   31.3432   42.9165 C   0  0  0  0  0  0  0  0  0  0  0  0
   39.7279   30.6194   44.0346 C   0  0  0  0  0  0  0  0  0  0  0  0
   39.5513   30.4575   46.1011 H   0  0  0  0  0  0  0  0  0  0  0  0
   37.8548   33.8705   41.5337 H   0  0  0  0  0  0  0  0  0  0  0  0
   40.3451   29.7335   43.9472 H   0  0  0  0  0  0  0  0  0  0  0  0
  2  1  2  0
  2 12  1  6
  2  4  1  0
  2  3  1  0
  4  5  1  0
  6 11  1  0
  6  5  1  0
  7  6  2  0
  8  9  2  0
  8  7  1  0
  9 10  1  0
 10 11  2  0
 13 18  1  0
 13 17  1  0
 13 14  1  0
 14 12  1  0
 14 15  1  0
 16 15  1  0
 17 16  1  0
  3 19  1  0
  5 20  1  0
  5 21  1  0
  7 22  1  0
  8 23  1  0
 10 24  1  0
 13 25  1  6
 14 26  1  6
 15 27  1  0
 15 28  1  0
 17 29  1  0
 17 30  1  0
 31 32  2  0
 32 33  1  0
 33 34  1  0
 33 35  2  0
 35 36  1  0
 36 37  1  0
 37 38  1  0
 37 39  2  0
 39 40  1  0
 40 41  2  0
 41 31  1  0
 40 35  1  0
 31 42  1  0
 36 43  1  0
 41 44  1  0
 18 32  1  0
M  ISO  8  19   3  20   8  21   8  22  14  23  14  24  14  25  13  26  13
M  ISO  6  27  13  28  13  29  13  30  13  34  15  38  14
M  END
>  <DihAtoms>  (1) 
12,17,31,30

>  <DihDeg>  (1) 
179.99903049521666

$$$$
