
 OpenBabel03272504223D

 42 45  0  0  1  0  0  0  0  0999 V2000
   38.8270   32.4050   47.8630 C   0  0  2  0  0  0  0  0  0  0  0  0
   38.1770   31.3830   48.7800 C   0  0  1  0  0  0  0  0  0  0  0  0
   38.7230   31.9150   50.1170 C   0  0  0  0  0  0  0  0  0  0  0  0
   38.3920   33.2580   50.0140 O   0  0  0  0  0  0  0  0  0  0  0  0
   38.6580   33.6500   48.7240 C   0  0  0  0  0  0  0  0  0  0  0  0
   39.8940   32.1230   47.7660 H   0  0  0  0  0  0  0  0  0  0  0  0
   38.4920   30.3560   48.5980 H   0  0  0  0  0  0  0  0  0  0  0  0
   39.8220   31.8140   50.0710 H   0  0  0  0  0  0  0  0  0  0  0  0
   38.2540   31.4320   50.9750 H   0  0  0  0  0  0  0  0  0  0  0  0
   39.5530   34.2910   48.7100 H   0  0  0  0  0  0  0  0  0  0  0  0
   37.7900   34.2220   48.2940 H   0  0  0  0  0  0  0  0  0  0  0  0
   36.8190   31.5930   48.7160 O   0  0  0  0  0  0  0  0  0  0  0  0
   35.8970   29.8510   47.0150 O   0  0  0  0  0  0  0  0  0  0  0  0
   35.9580   30.1620   48.4800 P   0  0  1  0  0  0  0  0  0  0  0  0
   36.7520   28.8610   49.2670 O   0  0  0  0  0  0  0  0  0  0  0  0
   37.5190   28.5580   48.7300 H   0  0  0  0  0  0  0  0  0  0  0  0
   34.3890   30.3240   49.1230 O   0  0  0  0  0  0  0  0  0  0  0  0
   34.1220   29.1710   49.8350 C   0  0  0  0  0  0  0  0  0  0  0  0
   33.5620   29.5030   50.7510 H   0  0  0  0  0  0  0  0  0  0  0  0
   35.0510   28.7070   50.2060 H   0  0  0  0  0  0  0  0  0  0  0  0
   33.2610   28.2180   49.1020 C   0  0  0  0  0  0  0  0  0  0  0  0
   33.8930   27.3340   48.2600 C   0  0  0  0  0  0  0  0  0  0  0  0
   33.1360   26.4080   47.5390 C   0  0  0  0  0  0  0  0  0  0  0  0
   31.7850   26.4400   47.7190 N   0  0  0  0  0  0  0  0  0  0  0  0
   31.1870   27.3190   48.5520 C   0  0  0  0  0  0  0  0  0  0  0  0
   31.9230   28.2120   49.2470 N   0  0  0  0  0  0  0  0  0  0  0  0
   34.9400   27.2320   48.0540 H   0  0  0  0  0  0  0  0  0  0  0  0
   33.5410   25.6730   46.8540 H   0  0  0  0  0  0  0  0  0  0  0  0
   30.1050   27.3210   48.6750 H   0  0  0  0  0  0  0  0  0  0  0  0
   38.1170   32.4350   46.6920 O   0  0  0  0  0  0  0  0  0  0  0  0
   39.5410   33.0150   44.9600 C   0  0  0  0  0  3  0  0  0  0  0  0
   38.5320   32.1690   45.4100 C   0  0  0  0  0  0  0  0  0  0  0  0
   38.0750   31.1870   44.5410 C   0  0  0  0  0  0  0  0  0  0  0  0
   37.2910   30.5720   44.9660 H   0  0  0  0  0  0  0  0  0  0  0  0
   38.6170   31.0670   43.2750 C   0  0  0  0  0  0  0  0  0  0  0  0
   38.3060   30.1860   42.3030 N   0  0  0  0  0  0  0  0  0  0  0  0
   39.1210   30.4970   41.2780 C   0  0  0  0  0  0  0  0  0  0  0  0
   39.0820   29.9300   40.3400 H   0  0  0  0  0  0  0  0  0  0  0  0
   39.9070   31.5390   41.6100 N   0  0  0  0  0  0  0  0  0  0  0  0
   39.6160   31.9320   42.8770 C   0  0  0  0  0  0  0  0  0  0  0  0
   40.0990   32.9190   43.7030 C   0  0  0  0  0  3  0  0  0  0  0  0
   37.5930   29.4290   42.3370 H   0  0  0  0  0  0  0  0  0  0  0  0
  1  6  1  6  0  0  0
  1  5  1  0  0  0  0
  1  2  1  0  0  0  0
  2  7  1  6  0  0  0
  2  3  1  0  0  0  0
  3  9  1  0  0  0  0
  4  3  1  0  0  0  0
  5  4  1  0  0  0  0
  8  3  1  0  0  0  0
 10  5  1  0  0  0  0
 11  5  1  0  0  0  0
 12  2  1  0  0  0  0
 14 13  2  6  0  0  0
 14 12  1  0  0  0  0
 14 17  1  0  0  0  0
 14 15  1  0  0  0  0
 16 15  1  0  0  0  0
 17 18  1  0  0  0  0
 18 20  1  0  0  0  0
 18 19  1  0  0  0  0
 21 26  1  0  0  0  0
 21 18  1  0  0  0  0
 22 21  2  0  0  0  0
 23 24  2  0  0  0  0
 23 22  1  0  0  0  0
 24 25  1  0  0  0  0
 25 29  1  0  0  0  0
 25 26  2  0  0  0  0
 27 22  1  0  0  0  0
 28 23  1  0  0  0  0
 30  1  1  0  0  0  0
 31 32  1  0  0  0  0
 32 30  1  0  0  0  0
 33 34  1  0  0  0  0
 33 32  2  0  0  0  0
 35 33  1  0  0  0  0
 36 42  1  0  0  0  0
 36 35  1  0  0  0  0
 37 39  2  0  0  0  0
 37 36  1  0  0  0  0
 38 37  1  0  0  0  0
 39 40  1  0  0  0  0
 40 35  2  0  0  0  0
 40 41  1  0  0  0  0
 41 31  2  0  0  0  0
M  END
>  <minimizedAffinity>
-5.10512304

>  <minimizedRMSD>
0.216964498

$$$$
