
 OpenBabel03272502593D

 37 40  0  0  1  0  0  0  0  0999 V2000
   35.7320   29.5690   48.8910 N   0  0  0  0  0  0  0  0  0  0  0  0
   36.5970   28.7510   49.7150 C   0  0  0  0  0  0  0  0  0  0  0  0
   37.1310   29.3390   50.9390 C   0  0  0  0  0  0  0  0  0  0  0  0
   37.2670   30.8070   51.0220 C   0  0  0  0  0  0  0  0  0  0  0  0
   36.3870   31.5600   50.0720 C   0  0  0  0  0  0  0  0  0  0  0  0
   36.3720   30.8640   48.7050 C   0  0  1  0  0  0  0  0  0  0  0  0
   36.0280   27.8170   49.9280 H   0  0  0  0  0  0  0  0  0  0  0  0
   37.4350   28.4360   49.0310 H   0  0  0  0  0  0  0  0  0  0  0  0
   36.4970   28.9940   51.8010 H   0  0  0  0  0  0  0  0  0  0  0  0
   38.1420   28.8860   51.1460 H   0  0  0  0  0  0  0  0  0  0  0  0
   37.0150   31.1750   52.0510 H   0  0  0  0  0  0  0  0  0  0  0  0
   38.3230   31.1240   50.8720 H   0  0  0  0  0  0  0  0  0  0  0  0
   36.6870   32.6120   49.9970 H   0  0  0  0  0  0  0  0  0  0  0  0
   35.3400   31.5010   50.4390 H   0  0  0  0  0  0  0  0  0  0  0  0
   35.8360   31.4980   47.9950 H   0  0  0  0  0  0  0  0  0  0  0  0
   34.4770   29.1620   48.3610 C   0  0  0  0  0  0  0  0  0  0  0  0
   33.9520   29.6050   47.1510 C   0  0  0  0  0  0  0  0  0  0  0  0
   32.7170   29.1390   46.7370 C   0  0  0  0  0  0  0  0  0  0  0  0
   32.0730   28.2590   47.5520 N   0  0  0  0  0  0  0  0  0  0  0  0
   32.6060   27.8510   48.7130 C   0  0  0  0  0  0  0  0  0  0  0  0
   33.8030   28.3060   49.1090 N   0  0  0  0  0  0  0  0  0  0  0  0
   34.5350   30.3050   46.5700 H   0  0  0  0  0  0  0  0  0  0  0  0
   32.3310   29.5010   45.7890 H   0  0  0  0  0  0  0  0  0  0  0  0
   32.0340   27.1360   49.3270 H   0  0  0  0  0  0  0  0  0  0  0  0
   37.7170   30.7180   48.3710 O   0  0  0  0  0  0  0  0  0  0  0  0
   38.2630   30.2990   46.1950 C   0  0  0  0  0  3  0  0  0  0  0  0
   38.2820   31.2290   47.2410 C   0  0  0  0  0  0  0  0  0  0  0  0
   38.8480   32.4530   46.9640 C   0  0  0  0  0  0  0  0  0  0  0  0
   38.8350   33.1250   47.8020 H   0  0  0  0  0  0  0  0  0  0  0  0
   39.3650   32.7630   45.7440 C   0  0  0  0  0  0  0  0  0  0  0  0
   39.9480   33.8880   45.2900 N   0  0  0  0  0  0  0  0  0  0  0  0
   40.2900   33.6880   44.0040 C   0  0  0  0  0  0  0  0  0  0  0  0
   40.7790   34.4630   43.4250 H   0  0  0  0  0  0  0  0  0  0  0  0
   39.9230   32.4430   43.6480 N   0  0  0  0  0  0  0  0  0  0  0  0
   39.3470   31.8550   44.7170 C   0  0  0  0  0  0  0  0  0  0  0  0
   38.7860   30.5960   44.9430 C   0  0  0  0  0  3  0  0  0  0  0  0
   40.1020   34.7560   45.8510 H   0  0  0  0  0  0  0  0  0  0  0  0
  1  2  1  0  0  0  0
  2  7  1  0  0  0  0
  2  3  1  0  0  0  0
  3  4  1  0  0  0  0
  3 10  1  0  0  0  0
  3  9  1  0  0  0  0
  4 11  1  0  0  0  0
  5 14  1  0  0  0  0
  5  4  1  0  0  0  0
  6 15  1  6  0  0  0
  6  1  1  0  0  0  0
  6  5  1  0  0  0  0
  8  2  1  0  0  0  0
 12  4  1  0  0  0  0
 13  5  1  0  0  0  0
 16  1  1  0  0  0  0
 16 21  1  0  0  0  0
 17 16  2  0  0  0  0
 18 17  1  0  0  0  0
 18 19  2  0  0  0  0
 19 20  1  0  0  0  0
 20 21  2  0  0  0  0
 20 24  1  0  0  0  0
 22 17  1  0  0  0  0
 23 18  1  0  0  0  0
 25  6  1  0  0  0  0
 26 27  1  0  0  0  0
 27 25  1  0  0  0  0
 28 27  2  0  0  0  0
 28 29  1  0  0  0  0
 30 28  1  0  0  0  0
 31 30  1  0  0  0  0
 31 37  1  0  0  0  0
 32 31  1  0  0  0  0
 33 32  1  0  0  0  0
 34 32  2  0  0  0  0
 34 35  1  0  0  0  0
 35 36  1  0  0  0  0
 35 30  2  0  0  0  0
 36 26  2  0  0  0  0
M  END
>  <minimizedAffinity>
-6.12598658

>  <minimizedRMSD>
1.16710925

$$$$
