
 OpenBabel03272509583D

 49 53  0  0  0  0  0  0  0  0999 V2000
   33.4810   27.7920   47.5170 C   0  0  0  0  0  0  0  0  0  0  0  0
   33.6120   27.7260   46.4000 H   0  0  0  0  0  0  0  0  0  0  0  0
   33.8020   26.8280   47.9120 H   0  0  0  0  0  0  0  0  0  0  0  0
   32.0310   27.9780   47.7910 C   0  0  0  0  0  0  0  0  0  0  0  0
   31.5190   27.4480   48.9640 C   0  0  0  0  0  0  0  0  0  0  0  0
   30.1890   27.5760   49.2910 C   0  0  0  0  0  0  0  0  0  0  0  0
   29.3690   28.2250   48.4650 N   0  0  0  0  0  0  0  0  0  0  0  0
   29.8820   28.7430   47.3120 C   0  0  0  0  0  0  0  0  0  0  0  0
   31.1790   28.6280   46.9770 N   0  0  0  0  0  0  0  0  0  0  0  0
   32.1790   26.9200   49.6380 H   0  0  0  0  0  0  0  0  0  0  0  0
   29.7540   27.1760   50.1990 H   0  0  0  0  0  0  0  0  0  0  0  0
   28.9470   29.4640   46.4040 C   0  0  0  0  0  0  0  0  0  0  0  0
   29.5630   30.1670   45.8040 H   0  0  0  0  0  0  0  0  0  0  0  0
   28.2060   30.0650   46.9680 H   0  0  0  0  0  0  0  0  0  0  0  0
   28.9560   27.5060   44.7730 C   0  0  0  0  0  3  0  0  0  0  0  0
   28.2890   28.5080   45.4720 C   0  0  0  0  0  0  0  0  0  0  0  0
   26.9110   28.6200   45.2860 C   0  0  0  0  0  0  0  0  0  0  0  0
   26.3790   29.4080   45.8350 H   0  0  0  0  0  0  0  0  0  0  0  0
   26.2060   27.7890   44.4500 C   0  0  0  0  0  0  0  0  0  0  0  0
   24.9250   27.6800   44.0990 N   0  0  0  0  0  0  0  0  0  0  0  0
   24.7310   26.6830   43.2290 C   0  0  0  0  0  0  0  0  0  0  0  0
   23.7570   26.4210   42.8120 H   0  0  0  0  0  0  0  0  0  0  0  0
   25.9520   26.1190   43.0060 N   0  0  0  0  0  0  0  0  0  0  0  0
   26.8670   26.7810   43.7440 C   0  0  0  0  0  0  0  0  0  0  0  0
   28.2290   26.6930   43.9480 C   0  0  0  0  0  3  0  0  0  0  0  0
   24.2040   28.3360   44.5000 H   0  0  0  0  0  0  0  0  0  0  0  0
   34.3240   28.8900   48.1020 C   0  0  0  0  0  0  0  0  0  0  0  0
   33.8000   29.8480   48.2280 H   0  0  0  0  0  0  0  0  0  0  0  0
   35.1490   29.0820   47.3860 H   0  0  0  0  0  0  0  0  0  0  0  0
   34.9430   28.4650   49.3070 O   0  0  0  0  0  0  0  0  0  0  0  0
   37.3030   30.1420   51.4650 C   0  0  0  0  0  0  0  0  0  0  0  0
   38.0570   30.8380   50.4970 C   0  0  0  0  0  0  0  0  0  0  0  0
   37.7130   30.6920   49.1670 C   0  0  0  0  0  0  0  0  0  0  0  0
   36.6520   29.8690   48.9070 N   0  0  0  0  0  0  0  0  0  0  0  0
   35.9440   29.2140   49.8290 C   0  0  0  0  0  0  0  0  0  0  0  0
   36.2820   29.3600   51.1200 N   0  0  0  0  0  0  0  0  0  0  0  0
   37.5990   30.2800   52.4940 H   0  0  0  0  0  0  0  0  0  0  0  0
   38.8850   31.4810   50.6980 H   0  0  0  0  0  0  0  0  0  0  0  0
   38.8860   33.3310   49.0500 F   0  0  0  0  0  0  0  0  0  0  0  0
   38.9240   32.5480   47.9730 C   0  0  0  0  0  0  0  0  0  0  0  0
   38.3740   31.3280   48.0490 C   0  0  0  0  0  0  0  0  0  0  0  0
   38.4690   30.5930   46.8680 C   0  0  0  0  0  0  0  0  0  0  0  0
   39.0680   31.0710   45.7380 C   0  0  0  0  0  0  0  0  0  0  0  0
   39.6170   32.3350   45.7160 C   0  0  0  0  0  0  0  0  0  0  0  0
   39.5350   33.0720   46.8600 C   0  0  0  0  0  0  0  0  0  0  0  0
   38.0700   29.5740   46.7600 H   0  0  0  0  0  0  0  0  0  0  0  0
   39.1430   30.5000   44.8150 H   0  0  0  0  0  0  0  0  0  0  0  0
   40.0950   32.7180   44.8130 H   0  0  0  0  0  0  0  0  0  0  0  0
   39.9630   34.0670   46.8580 H   0  0  0  0  0  0  0  0  0  0  0  0
  1  4  1  0  0  0  0
  1  3  1  0  0  0  0
  1 27  1  0  0  0  0
  2  1  1  0  0  0  0
  4  5  1  0  0  0  0
  5  6  2  0  0  0  0
  5 10  1  0  0  0  0
  6 11  1  0  0  0  0
  7  6  1  0  0  0  0
  8  7  2  0  0  0  0
  9  8  1  0  0  0  0
  9  4  2  0  0  0  0
 12 14  1  0  0  0  0
 12  8  1  0  0  0  0
 13 12  1  0  0  0  0
 15 16  1  0  0  0  0
 16 12  1  0  0  0  0
 17 16  2  0  0  0  0
 17 18  1  0  0  0  0
 19 17  1  0  0  0  0
 20 19  1  0  0  0  0
 20 26  1  0  0  0  0
 21 20  1  0  0  0  0
 22 21  1  0  0  0  0
 23 21  2  0  0  0  0
 23 24  1  0  0  0  0
 24 25  1  0  0  0  0
 24 19  2  0  0  0  0
 25 15  2  0  0  0  0
 27 28  1  0  0  0  0
 27 30  1  0  0  0  0
 29 27  1  0  0  0  0
 30 35  1  0  0  0  0
 31 37  1  0  0  0  0
 32 38  1  0  0  0  0
 32 31  2  0  0  0  0
 33 32  1  0  0  0  0
 34 33  2  0  0  0  0
 34 35  1  0  0  0  0
 35 36  2  0  0  0  0
 36 31  1  0  0  0  0
 40 41  1  0  0  0  0
 40 39  1  0  0  0  0
 41 33  1  0  0  0  0
 42 41  2  0  0  0  0
 43 42  1  0  0  0  0
 44 43  2  0  0  0  0
 44 45  1  0  0  0  0
 45 40  2  0  0  0  0
 46 42  1  0  0  0  0
 47 43  1  0  0  0  0
 48 44  1  0  0  0  0
 49 45  1  0  0  0  0
M  END
>  <minimizedAffinity>
-7.04916191

>  <minimizedRMSD>
1.10852706

$$$$
