REMARK  Name = 
REMARK  4 active torsions:
REMARK  status: ('A' for Active; 'I' for Inactive)
REMARK    1  A    between atoms: C_1  and  C_6
REMARK    2  A    between atoms: C_1  and  C_8
REMARK    3  A    between atoms: C_8  and  C_9
REMARK    4  A    between atoms: N_12  and  C_24
REMARK                            x       y       z     vdW  Elec       q    Type
REMARK                         _______ _______ _______ _____ _____    ______ ____
ROOT
ATOM      1  C   UNL     1      32.958  28.266  47.884  0.00  0.00    +0.000 A 
ATOM      2  C   UNL     1      32.003  27.615  48.648  0.00  0.00    +0.000 A 
ATOM      3  C   UNL     1      30.743  27.858  48.168  0.00  0.00    +0.000 A 
ATOM      4  N   UNL     1      30.958  28.661  47.109  0.00  0.00    +0.000 N 
ATOM      5  N   UNL     1      32.259  28.903  46.939  0.00  0.00    +0.000 NA
ATOM      6  H   UNL     1      32.218  26.990  49.519  0.00  0.00    +0.000 HD
ATOM      7  H   UNL     1      29.804  27.489  48.554  0.00  0.00    +0.000 HD
ENDROOT
BRANCH   4   9
ATOM      8  C   UNL     1      29.153  30.243  46.629  0.00  0.00    +0.000 A 
ATOM      9  C   UNL     1      29.945  29.203  46.255  0.00  0.00    +0.000 A 
ATOM     10  C   UNL     1      29.757  28.646  44.990  0.00  0.00    +0.000 A 
ATOM     11  H   UNL     1      30.400  27.814  44.709  0.00  0.00    +0.000 HD
ATOM     12  C   UNL     1      28.831  29.070  44.091  0.00  0.00    +0.000 A 
ATOM     13  N   UNL     1      28.496  28.672  42.836  0.00  0.00    +0.000 N 
ATOM     14  C   UNL     1      27.490  29.472  42.431  0.00  0.00    +0.000 A 
ATOM     15  H   UNL     1      27.044  29.355  41.459  0.00  0.00    +0.000 HD
ATOM     16  N   UNL     1      27.204  30.358  43.425  0.00  0.00    +0.000 NA
ATOM     17  C   UNL     1      28.021  30.127  44.461  0.00  0.00    +0.000 A 
ATOM     18  C   UNL     1      28.195  30.695  45.720  0.00  0.00    +0.000 A 
ATOM     19  H   UNL     1      28.985  27.882  42.359  0.00  0.00    +0.000 HD
ENDBRANCH   4   9
BRANCH   1  20
ATOM     20  C   UNL     1      34.447  28.258  48.075  0.00  0.00    +0.000 C 
ATOM     21  H   UNL     1      34.853  29.145  47.572  0.00  0.00    +0.000 HD
ATOM     22  H   UNL     1      34.890  27.309  47.683  0.00  0.00    +0.000 HD
BRANCH  20  23
ATOM     23  C   UNL     1      34.666  28.300  49.562  0.00  0.00    +0.000 C 
ATOM     24  H   UNL     1      34.799  27.294  50.002  0.00  0.00    +0.000 HD
ATOM     25  H   UNL     1      33.779  28.741  50.096  0.00  0.00    +0.000 HD
BRANCH  23  30
ATOM     26  C   UNL     1      37.278  30.172  51.386  0.00  0.00    +0.000 A 
ATOM     27  C   UNL     1      38.072  30.690  50.357  0.00  0.00    +0.000 A 
ATOM     28  C   UNL     1      37.692  30.383  49.028  0.00  0.00    +0.000 A 
ATOM     29  N   UNL     1      36.592  29.613  48.830  0.00  0.00    +0.000 NA
ATOM     30  C   UNL     1      35.862  29.140  49.862  0.00  0.00    +0.000 A 
ATOM     31  N   UNL     1      36.216  29.426  51.121  0.00  0.00    +0.000 NA
ATOM     32  H   UNL     1      37.585  30.417  52.394  0.00  0.00    +0.000 HD
ATOM     33  H   UNL     1      38.946  31.302  50.533  0.00  0.00    +0.000 HD
ATOM     34  H   UNL     1      38.283  30.767  48.219  0.00  0.00    +0.000 HD
ENDBRANCH  23  30
ENDBRANCH  20  23
ENDBRANCH   1  20
TORSDOF 4
