
 OpenBabel03272504223D

 42 45  0  0  1  0  0  0  0  0999 V2000
   38.8590   32.3690   47.8700 C   0  0  2  0  0  0  0  0  0  0  0  0
   38.1800   31.3780   48.8010 C   0  0  1  0  0  0  0  0  0  0  0  0
   38.7040   31.9400   50.1340 C   0  0  0  0  0  0  0  0  0  0  0  0
   38.3900   33.2840   49.9880 O   0  0  0  0  0  0  0  0  0  0  0  0
   38.6870   33.6380   48.6930 C   0  0  0  0  0  0  0  0  0  0  0  0
   39.9250   32.0730   47.8020 H   0  0  0  0  0  0  0  0  0  0  0  0
   38.4870   30.3440   48.6520 H   0  0  0  0  0  0  0  0  0  0  0  0
   39.8030   31.8270   50.1130 H   0  0  0  0  0  0  0  0  0  0  0  0
   38.2130   31.4860   50.9940 H   0  0  0  0  0  0  0  0  0  0  0  0
   39.5880   34.2690   48.6810 H   0  0  0  0  0  0  0  0  0  0  0  0
   37.8340   34.2080   48.2310 H   0  0  0  0  0  0  0  0  0  0  0  0
   36.8250   31.6010   48.7020 O   0  0  0  0  0  0  0  0  0  0  0  0
   35.8610   29.8650   47.0200 O   0  0  0  0  0  0  0  0  0  0  0  0
   35.9540   30.1740   48.4830 P   0  0  1  0  0  0  0  0  0  0  0  0
   36.7590   28.8680   49.2530 O   0  0  0  0  0  0  0  0  0  0  0  0
   37.5140   28.5630   48.6990 H   0  0  0  0  0  0  0  0  0  0  0  0
   34.4000   30.3410   49.1600 O   0  0  0  0  0  0  0  0  0  0  0  0
   34.1370   29.1820   49.8630 C   0  0  0  0  0  0  0  0  0  0  0  0
   33.5820   29.5050   50.7850 H   0  0  0  0  0  0  0  0  0  0  0  0
   35.0680   28.7150   50.2250 H   0  0  0  0  0  0  0  0  0  0  0  0
   33.2710   28.2350   49.1260 C   0  0  0  0  0  0  0  0  0  0  0  0
   33.8990   27.3430   48.2900 C   0  0  0  0  0  0  0  0  0  0  0  0
   33.1380   26.4240   47.5670 C   0  0  0  0  0  0  0  0  0  0  0  0
   31.7860   26.4690   47.7380 N   0  0  0  0  0  0  0  0  0  0  0  0
   31.1910   27.3550   48.5650 C   0  0  0  0  0  0  0  0  0  0  0  0
   31.9320   28.2430   49.2630 N   0  0  0  0  0  0  0  0  0  0  0  0
   34.9470   27.2320   48.0910 H   0  0  0  0  0  0  0  0  0  0  0  0
   33.5400   25.6830   46.8860 H   0  0  0  0  0  0  0  0  0  0  0  0
   30.1100   27.3690   48.6810 H   0  0  0  0  0  0  0  0  0  0  0  0
   38.1730   32.3750   46.6850 O   0  0  0  0  0  0  0  0  0  0  0  0
   38.8620   30.5850   45.3850 C   0  0  0  0  0  3  0  0  0  0  0  0
   38.5710   31.9440   45.4410 C   0  0  0  0  0  0  0  0  0  0  0  0
   38.7100   32.6860   44.2760 C   0  0  0  0  0  0  0  0  0  0  0  0
   38.4650   33.7340   44.4050 H   0  0  0  0  0  0  0  0  0  0  0  0
   39.1260   32.0780   43.1060 C   0  0  0  0  0  0  0  0  0  0  0  0
   39.3180   32.6280   41.8900 N   0  0  0  0  0  0  0  0  0  0  0  0
   39.7200   31.6100   41.1080 C   0  0  0  0  0  0  0  0  0  0  0  0
   39.9510   31.7760   40.0490 H   0  0  0  0  0  0  0  0  0  0  0  0
   39.7740   30.4700   41.8220 N   0  0  0  0  0  0  0  0  0  0  0  0
   39.4030   30.7260   43.1040 C   0  0  0  0  0  0  0  0  0  0  0  0
   39.2790   29.9520   44.2320 C   0  0  0  0  0  3  0  0  0  0  0  0
   39.1840   33.6230   41.6150 H   0  0  0  0  0  0  0  0  0  0  0  0
  1  6  1  6  0  0  0
  1  5  1  0  0  0  0
  1  2  1  0  0  0  0
  2  7  1  6  0  0  0
  2  3  1  0  0  0  0
  3  9  1  0  0  0  0
  4  3  1  0  0  0  0
  5  4  1  0  0  0  0
  8  3  1  0  0  0  0
 10  5  1  0  0  0  0
 11  5  1  0  0  0  0
 12  2  1  0  0  0  0
 14 13  2  6  0  0  0
 14 12  1  0  0  0  0
 14 17  1  0  0  0  0
 14 15  1  0  0  0  0
 16 15  1  0  0  0  0
 17 18  1  0  0  0  0
 18 20  1  0  0  0  0
 18 19  1  0  0  0  0
 21 26  1  0  0  0  0
 21 18  1  0  0  0  0
 22 21  2  0  0  0  0
 23 24  2  0  0  0  0
 23 22  1  0  0  0  0
 24 25  1  0  0  0  0
 25 29  1  0  0  0  0
 25 26  2  0  0  0  0
 27 22  1  0  0  0  0
 28 23  1  0  0  0  0
 30  1  1  0  0  0  0
 31 32  1  0  0  0  0
 32 30  1  0  0  0  0
 33 34  1  0  0  0  0
 33 32  2  0  0  0  0
 35 33  1  0  0  0  0
 36 35  1  0  0  0  0
 37 39  2  0  0  0  0
 37 36  1  0  0  0  0
 38 37  1  0  0  0  0
 39 40  1  0  0  0  0
 40 35  2  0  0  0  0
 40 41  1  0  0  0  0
 41 31  2  0  0  0  0
 42 36  1  0  0  0  0
M  END
>  <minimizedAffinity>
-5.15484715

>  <minimizedRMSD>
0.369887531

$$$$
