
 OpenBabel03272502403D

 43 47  0  0  1  0  0  0  0  0999 V2000
   36.2660   27.3460   35.0270 F   0  0  0  0  0  0  0  0  0  0  0  0
   36.6160   27.7550   33.7910 C   0  0  0  0  0  0  0  0  0  0  0  0
   37.4230   27.0980   32.8980 C   0  0  0  0  0  0  0  0  0  0  0  0
   37.6490   27.6860   31.6410 C   0  0  0  0  0  0  0  0  0  0  0  0
   37.0840   28.8950   31.2940 C   0  0  0  0  0  0  0  0  0  0  0  0
   36.2720   29.5390   32.2150 C   0  0  0  0  0  0  0  0  0  0  0  0
   36.0340   28.9630   33.4770 C   0  0  0  0  0  0  0  0  0  0  0  0
   38.2960   27.0830   31.0220 H   0  0  0  0  0  0  0  0  0  0  0  0
   37.3130   29.2760   30.3090 H   0  0  0  0  0  0  0  0  0  0  0  0
   35.8460   30.4850   31.9090 H   0  0  0  0  0  0  0  0  0  0  0  0
   39.7960   24.7830   34.3430 N   0  0  0  0  0  0  0  0  0  0  0  0
   40.0300   24.4790   32.9400 C   0  0  0  0  0  0  0  0  0  0  0  0
   38.9810   25.2900   32.2360 C   0  0  0  0  0  0  0  0  0  0  0  0
   38.0730   25.8810   33.3990 C   0  0  1  0  0  0  0  0  0  0  0  0
   39.0930   26.0790   34.4330 C   0  0  0  0  0  0  0  0  0  0  0  0
   41.0370   24.8940   32.6760 H   0  0  0  0  0  0  0  0  0  0  0  0
   40.0010   23.3990   32.7300 H   0  0  0  0  0  0  0  0  0  0  0  0
   38.3110   24.7430   31.5780 H   0  0  0  0  0  0  0  0  0  0  0  0
   39.3910   26.1460   31.6760 H   0  0  0  0  0  0  0  0  0  0  0  0
   37.3780   25.0520   33.5130 H   0  0  0  0  0  0  0  0  0  0  0  0
   38.7180   26.2290   35.4530 H   0  0  0  0  0  0  0  0  0  0  0  0
   39.8460   26.8300   34.1290 H   0  0  0  0  0  0  0  0  0  0  0  0
   40.1540   23.9980   35.4600 C   0  0  0  0  0  0  0  0  0  0  0  0
   39.1230   23.7400   36.3770 C   0  0  0  0  0  0  0  0  0  0  0  0
   39.4110   22.9760   37.5190 C   0  0  0  0  0  0  0  0  0  0  0  0
   40.7120   22.5300   37.6500 N   0  0  0  0  0  0  0  0  0  0  0  0
   41.6690   22.7980   36.7470 C   0  0  0  0  0  0  0  0  0  0  0  0
   41.3850   23.5370   35.6490 N   0  0  0  0  0  0  0  0  0  0  0  0
   38.1330   24.1110   36.2260 H   0  0  0  0  0  0  0  0  0  0  0  0
   38.6440   22.7700   38.2240 H   0  0  0  0  0  0  0  0  0  0  0  0
   42.6720   22.4310   36.8870 H   0  0  0  0  0  0  0  0  0  0  0  0
   33.7840   29.5240   34.4560 C   0  0  0  0  0  3  0  0  0  0  0  0
   35.1620   29.7290   34.3620 C   0  0  0  0  0  0  0  0  0  0  0  0
   35.7510   30.7020   35.1370 C   0  0  0  0  0  0  0  0  0  0  0  0
   36.8220   30.9070   35.1050 H   0  0  0  0  0  0  0  0  0  0  0  0
   34.9800   31.4630   35.9950 C   0  0  0  0  0  0  0  0  0  0  0  0
   35.2920   32.4670   36.8560 N   0  0  0  0  0  0  0  0  0  0  0  0
   34.1550   32.8880   37.4760 C   0  0  0  0  0  0  0  0  0  0  0  0
   34.0770   33.6790   38.2210 H   0  0  0  0  0  0  0  0  0  0  0  0
   33.1000   32.1550   37.0190 N   0  0  0  0  0  0  0  0  0  0  0  0
   33.6120   31.2870   36.1150 C   0  0  0  0  0  0  0  0  0  0  0  0
   33.0400   30.3000   35.3230 C   0  0  0  0  0  3  0  0  0  0  0  0
   36.2520   32.8790   37.0370 H   0  0  0  0  0  0  0  0  0  0  0  0
  2  1  1  0  0  0  0
  3 14  1  0  0  0  0
  3  2  2  0  0  0  0
  4  3  1  0  0  0  0
  5  4  2  0  0  0  0
  5  6  1  0  0  0  0
  6  7  2  0  0  0  0
  7  2  1  0  0  0  0
  7 33  1  0  0  0  0
  8  4  1  0  0  0  0
  9  5  1  0  0  0  0
 10  6  1  0  0  0  0
 11 15  1  0  0  0  0
 11 23  1  0  0  0  0
 12 11  1  0  0  0  0
 13 12  1  0  0  0  0
 13 14  1  0  0  0  0
 14 20  1  1  0  0  0
 14 15  1  0  0  0  0
 15 21  1  0  0  0  0
 16 12  1  0  0  0  0
 17 12  1  0  0  0  0
 18 13  1  0  0  0  0
 19 13  1  0  0  0  0
 22 15  1  0  0  0  0
 23 28  2  0  0  0  0
 23 24  1  0  0  0  0
 24 25  2  0  0  0  0
 25 26  1  0  0  0  0
 25 30  1  0  0  0  0
 27 31  1  0  0  0  0
 27 26  2  0  0  0  0
 28 27  1  0  0  0  0
 29 24  1  0  0  0  0
 32 42  1  0  0  0  0
 33 32  2  0  0  0  0
 33 34  1  0  0  0  0
 34 36  2  0  0  0  0
 35 34  1  0  0  0  0
 36 41  1  0  0  0  0
 36 37  1  0  0  0  0
 37 43  1  0  0  0  0
 37 38  1  0  0  0  0
 38 39  1  0  0  0  0
 40 38  2  0  0  0  0
 41 40  1  0  0  0  0
 42 41  2  0  0  0  0
M  END
>  <minimizedAffinity>
-6.58855534

$$$$

 OpenBabel03272502403D

 43 47  0  0  1  0  0  0  0  0999 V2000
   36.4030   27.6040   35.2270 F   0  0  0  0  0  0  0  0  0  0  0  0
   36.6000   27.9440   33.9380 C   0  0  0  0  0  0  0  0  0  0  0  0
   37.2410   27.2080   32.9760 C   0  0  0  0  0  0  0  0  0  0  0  0
   37.3230   27.7330   31.6740 C   0  0  0  0  0  0  0  0  0  0  0  0
   36.7790   28.9580   31.3520 C   0  0  0  0  0  0  0  0  0  0  0  0
   36.1350   29.6830   32.3430 C   0  0  0  0  0  0  0  0  0  0  0  0
   36.0430   29.1710   33.6510 C   0  0  0  0  0  0  0  0  0  0  0  0
   37.8460   27.0710   31.0010 H   0  0  0  0  0  0  0  0  0  0  0  0
   36.8890   29.2870   30.3280 H   0  0  0  0  0  0  0  0  0  0  0  0
   35.7200   30.6400   32.0540 H   0  0  0  0  0  0  0  0  0  0  0  0
   39.6350   24.8380   34.2930 N   0  0  0  0  0  0  0  0  0  0  0  0
   39.7930   24.5360   32.8790 C   0  0  0  0  0  0  0  0  0  0  0  0
   38.7270   25.3720   32.2310 C   0  0  0  0  0  0  0  0  0  0  0  0
   37.8900   25.9760   33.4390 C   0  0  1  0  0  0  0  0  0  0  0  0
   38.9640   26.1490   34.4230 C   0  0  0  0  0  0  0  0  0  0  0  0
   40.7940   24.9310   32.5670 H   0  0  0  0  0  0  0  0  0  0  0  0
   39.7320   23.4580   32.6680 H   0  0  0  0  0  0  0  0  0  0  0  0
   38.0140   24.8410   31.6060 H   0  0  0  0  0  0  0  0  0  0  0  0
   39.1270   26.2210   31.6540 H   0  0  0  0  0  0  0  0  0  0  0  0
   37.1850   25.1600   33.5850 H   0  0  0  0  0  0  0  0  0  0  0  0
   38.6440   26.3010   35.4610 H   0  0  0  0  0  0  0  0  0  0  0  0
   39.7170   26.8860   34.0840 H   0  0  0  0  0  0  0  0  0  0  0  0
   40.0320   24.0420   35.3880 C   0  0  0  0  0  0  0  0  0  0  0  0
   39.0450   23.8060   36.3580 C   0  0  0  0  0  0  0  0  0  0  0  0
   39.3730   23.0310   37.4810 C   0  0  0  0  0  0  0  0  0  0  0  0
   40.6680   22.5530   37.5430 N   0  0  0  0  0  0  0  0  0  0  0  0
   41.5830   22.8020   36.5910 C   0  0  0  0  0  0  0  0  0  0  0  0
   41.2590   23.5500   35.5120 N   0  0  0  0  0  0  0  0  0  0  0  0
   38.0570   24.2010   36.2590 H   0  0  0  0  0  0  0  0  0  0  0  0
   38.6390   22.8420   38.2260 H   0  0  0  0  0  0  0  0  0  0  0  0
   42.5830   22.4100   36.6780 H   0  0  0  0  0  0  0  0  0  0  0  0
   35.9840   30.9400   35.4390 C   0  0  0  0  0  3  0  0  0  0  0  0
   35.3420   30.0190   34.6090 C   0  0  0  0  0  0  0  0  0  0  0  0
   33.9740   29.8890   34.6820 C   0  0  0  0  0  0  0  0  0  0  0  0
   33.4190   29.1860   34.0580 H   0  0  0  0  0  0  0  0  0  0  0  0
   33.2510   30.6630   35.5690 C   0  0  0  0  0  0  0  0  0  0  0  0
   31.9230   30.7390   35.8440 N   0  0  0  0  0  0  0  0  0  0  0  0
   31.7240   31.6730   36.8140 C   0  0  0  0  0  0  0  0  0  0  0  0
   30.7680   31.9640   37.2500 H   0  0  0  0  0  0  0  0  0  0  0  0
   32.9260   32.2080   37.1710 N   0  0  0  0  0  0  0  0  0  0  0  0
   33.8540   31.5870   36.4070 C   0  0  0  0  0  0  0  0  0  0  0  0
   35.2350   31.7000   36.3160 C   0  0  0  0  0  3  0  0  0  0  0  0
   31.1440   30.1760   35.3950 H   0  0  0  0  0  0  0  0  0  0  0  0
  2  1  1  0  0  0  0
  3 14  1  0  0  0  0
  3  2  2  0  0  0  0
  4  3  1  0  0  0  0
  5  4  2  0  0  0  0
  5  6  1  0  0  0  0
  6  7  2  0  0  0  0
  7  2  1  0  0  0  0
  7 33  1  0  0  0  0
  8  4  1  0  0  0  0
  9  5  1  0  0  0  0
 10  6  1  0  0  0  0
 11 15  1  0  0  0  0
 11 23  1  0  0  0  0
 12 11  1  0  0  0  0
 13 12  1  0  0  0  0
 13 14  1  0  0  0  0
 14 20  1  1  0  0  0
 14 15  1  0  0  0  0
 15 21  1  0  0  0  0
 16 12  1  0  0  0  0
 17 12  1  0  0  0  0
 18 13  1  0  0  0  0
 19 13  1  0  0  0  0
 22 15  1  0  0  0  0
 23 28  2  0  0  0  0
 23 24  1  0  0  0  0
 24 25  2  0  0  0  0
 25 26  1  0  0  0  0
 25 30  1  0  0  0  0
 27 31  1  0  0  0  0
 27 26  2  0  0  0  0
 28 27  1  0  0  0  0
 29 24  1  0  0  0  0
 32 42  1  0  0  0  0
 33 34  1  0  0  0  0
 33 32  2  0  0  0  0
 34 36  2  0  0  0  0
 35 34  1  0  0  0  0
 36 37  1  0  0  0  0
 36 41  1  0  0  0  0
 37 38  1  0  0  0  0
 38 40  2  0  0  0  0
 38 39  1  0  0  0  0
 41 40  1  0  0  0  0
 42 41  2  0  0  0  0
 43 37  1  0  0  0  0
M  END
>  <minimizedAffinity>
-6.5607667

$$$$

 OpenBabel03272502403D

 43 47  0  0  1  0  0  0  0  0999 V2000
   37.5640   27.4880   35.7390 F   0  0  0  0  0  0  0  0  0  0  0  0
   37.2280   27.0880   34.4970 C   0  0  0  0  0  0  0  0  0  0  0  0
   36.6180   27.8350   33.5230 C   0  0  0  0  0  0  0  0  0  0  0  0
   36.3700   27.2360   32.2740 C   0  0  0  0  0  0  0  0  0  0  0  0
   36.7240   25.9290   32.0160 C   0  0  0  0  0  0  0  0  0  0  0  0
   37.3410   25.1940   33.0180 C   0  0  0  0  0  0  0  0  0  0  0  0
   37.5970   25.7800   34.2710 C   0  0  0  0  0  0  0  0  0  0  0  0
   35.8890   27.9140   31.5870 H   0  0  0  0  0  0  0  0  0  0  0  0
   36.4960   25.5470   31.0310 H   0  0  0  0  0  0  0  0  0  0  0  0
   37.6040   24.1730   32.7790 H   0  0  0  0  0  0  0  0  0  0  0  0
   34.5740   30.6910   34.3840 N   0  0  0  0  0  0  0  0  0  0  0  0
   34.9300   31.0860   33.0300 C   0  0  0  0  0  0  0  0  0  0  0  0
   35.9110   30.0280   32.6140 C   0  0  0  0  0  0  0  0  0  0  0  0
   36.1710   29.1730   33.9280 C   0  0  1  0  0  0  0  0  0  0  0  0
   34.8410   29.2460   34.5390 C   0  0  0  0  0  0  0  0  0  0  0  0
   34.0070   30.9820   32.4020 H   0  0  0  0  0  0  0  0  0  0  0  0
   35.3080   32.1180   32.9760 H   0  0  0  0  0  0  0  0  0  0  0  0
   36.8850   30.3790   32.2850 H   0  0  0  0  0  0  0  0  0  0  0  0
   35.5160   29.3400   31.8500 H   0  0  0  0  0  0  0  0  0  0  0  0
   36.9720   29.7670   34.3640 H   0  0  0  0  0  0  0  0  0  0  0  0
   34.7840   28.9700   35.6000 H   0  0  0  0  0  0  0  0  0  0  0  0
   34.0740   28.7490   33.9160 H   0  0  0  0  0  0  0  0  0  0  0  0
   34.0640   31.5160   35.4090 C   0  0  0  0  0  0  0  0  0  0  0  0
   35.0240   32.1910   36.1800 C   0  0  0  0  0  0  0  0  0  0  0  0
   34.5890   33.0200   37.2260 C   0  0  0  0  0  0  0  0  0  0  0  0
   33.2230   33.1060   37.4160 N   0  0  0  0  0  0  0  0  0  0  0  0
   32.3380   32.4430   36.6540 C   0  0  0  0  0  0  0  0  0  0  0  0
   32.7640   31.6450   35.6480 N   0  0  0  0  0  0  0  0  0  0  0  0
   36.0700   32.0880   35.9880 H   0  0  0  0  0  0  0  0  0  0  0  0
   35.3000   33.5390   37.8200 H   0  0  0  0  0  0  0  0  0  0  0  0
   31.2800   32.5380   36.8360 H   0  0  0  0  0  0  0  0  0  0  0  0
   37.6660   24.5280   36.4530 C   0  0  0  0  0  3  0  0  0  0  0  0
   38.2520   24.9130   35.2460 C   0  0  0  0  0  0  0  0  0  0  0  0
   39.5150   24.4620   34.9380 C   0  0  0  0  0  0  0  0  0  0  0  0
   40.0230   24.7310   34.0100 H   0  0  0  0  0  0  0  0  0  0  0  0
   40.1900   23.6390   35.8200 C   0  0  0  0  0  0  0  0  0  0  0  0
   41.4180   23.0610   35.7720 N   0  0  0  0  0  0  0  0  0  0  0  0
   41.6100   22.3330   36.9070 C   0  0  0  0  0  0  0  0  0  0  0  0
   42.4960   21.7530   37.1650 H   0  0  0  0  0  0  0  0  0  0  0  0
   40.5030   22.4370   37.6960 N   0  0  0  0  0  0  0  0  0  0  0  0
   39.6400   23.2350   37.0250 C   0  0  0  0  0  0  0  0  0  0  0  0
   38.3640   23.7030   37.3140 C   0  0  0  0  0  3  0  0  0  0  0  0
   42.1340   23.1430   34.9940 H   0  0  0  0  0  0  0  0  0  0  0  0
  2  1  1  0  0  0  0
  3 14  1  0  0  0  0
  3  2  2  0  0  0  0
  4  3  1  0  0  0  0
  5  4  2  0  0  0  0
  5  6  1  0  0  0  0
  6  7  2  0  0  0  0
  7  2  1  0  0  0  0
  7 33  1  0  0  0  0
  8  4  1  0  0  0  0
  9  5  1  0  0  0  0
 10  6  1  0  0  0  0
 11 15  1  0  0  0  0
 11 23  1  0  0  0  0
 12 11  1  0  0  0  0
 13 12  1  0  0  0  0
 13 14  1  0  0  0  0
 14 20  1  1  0  0  0
 14 15  1  0  0  0  0
 15 21  1  0  0  0  0
 16 12  1  0  0  0  0
 17 12  1  0  0  0  0
 18 13  1  0  0  0  0
 19 13  1  0  0  0  0
 22 15  1  0  0  0  0
 23 28  2  0  0  0  0
 23 24  1  0  0  0  0
 24 25  2  0  0  0  0
 25 26  1  0  0  0  0
 25 30  1  0  0  0  0
 27 31  1  0  0  0  0
 27 26  2  0  0  0  0
 28 27  1  0  0  0  0
 29 24  1  0  0  0  0
 32 42  1  0  0  0  0
 33 32  2  0  0  0  0
 34 33  1  0  0  0  0
 34 36  2  0  0  0  0
 35 34  1  0  0  0  0
 36 41  1  0  0  0  0
 37 36  1  0  0  0  0
 37 38  1  0  0  0  0
 38 39  1  0  0  0  0
 38 40  2  0  0  0  0
 41 42  2  0  0  0  0
 41 40  1  0  0  0  0
 43 37  1  0  0  0  0
M  END
>  <minimizedAffinity>
-6.37560415

$$$$

 OpenBabel03272502403D

 43 47  0  0  1  0  0  0  0  0999 V2000
   36.0160   27.9970   33.9160 F   0  0  0  0  0  0  0  0  0  0  0  0
   36.2730   28.7300   32.8150 C   0  0  0  0  0  0  0  0  0  0  0  0
   36.8460   28.2990   31.6470 C   0  0  0  0  0  0  0  0  0  0  0  0
   37.0100   29.2220   30.5990 C   0  0  0  0  0  0  0  0  0  0  0  0
   36.6110   30.5360   30.7230 C   0  0  0  0  0  0  0  0  0  0  0  0
   36.0340   30.9480   31.9150 C   0  0  0  0  0  0  0  0  0  0  0  0
   35.8610   30.0350   32.9720 C   0  0  0  0  0  0  0  0  0  0  0  0
   37.4680   28.7740   29.7310 H   0  0  0  0  0  0  0  0  0  0  0  0
   36.7760   31.1780   29.8700 H   0  0  0  0  0  0  0  0  0  0  0  0
   35.7330   31.9850   31.9760 H   0  0  0  0  0  0  0  0  0  0  0  0
   37.2760   24.7730   32.3290 N   0  0  0  0  0  0  0  0  0  0  0  0
   38.3260   25.2860   33.1950 C   0  0  0  0  0  0  0  0  0  0  0  0
   38.3380   26.7550   32.8820 C   0  0  0  0  0  0  0  0  0  0  0  0
   37.3460   26.9180   31.6520 C   0  0  1  0  0  0  0  0  0  0  0  0
   36.3630   25.8830   31.9860 C   0  0  0  0  0  0  0  0  0  0  0  0
   37.9770   25.1510   34.2520 H   0  0  0  0  0  0  0  0  0  0  0  0
   39.2860   24.7710   33.0470 H   0  0  0  0  0  0  0  0  0  0  0  0
   39.2900   27.1690   32.5600 H   0  0  0  0  0  0  0  0  0  0  0  0
   37.9490   27.3810   33.7010 H   0  0  0  0  0  0  0  0  0  0  0  0
   38.0440   26.7230   30.8400 H   0  0  0  0  0  0  0  0  0  0  0  0
   35.6940   25.5760   31.1730 H   0  0  0  0  0  0  0  0  0  0  0  0
   35.8310   26.1120   32.9290 H   0  0  0  0  0  0  0  0  0  0  0  0
   37.1220   23.4500   31.8630 C   0  0  0  0  0  0  0  0  0  0  0  0
   35.8030   23.0470   31.6040 C   0  0  0  0  0  0  0  0  0  0  0  0
   35.5730   21.7390   31.1490 C   0  0  0  0  0  0  0  0  0  0  0  0
   36.6880   20.9380   30.9890 N   0  0  0  0  0  0  0  0  0  0  0  0
   37.9350   21.3640   31.2470 C   0  0  0  0  0  0  0  0  0  0  0  0
   38.1480   22.6260   31.6870 N   0  0  0  0  0  0  0  0  0  0  0  0
   34.9760   23.7100   31.7450 H   0  0  0  0  0  0  0  0  0  0  0  0
   34.5820   21.4160   30.9470 H   0  0  0  0  0  0  0  0  0  0  0  0
   38.7770   20.7070   31.1100 H   0  0  0  0  0  0  0  0  0  0  0  0
   35.9650   31.1280   35.2370 C   0  0  0  0  0  3  0  0  0  0  0  0
   35.2410   30.5800   34.1760 C   0  0  0  0  0  0  0  0  0  0  0  0
   33.8670   30.5430   34.2480 C   0  0  0  0  0  0  0  0  0  0  0  0
   33.2500   30.1260   33.4490 H   0  0  0  0  0  0  0  0  0  0  0  0
   33.2190   31.0420   35.3610 C   0  0  0  0  0  0  0  0  0  0  0  0
   31.9040   31.1300   35.6900 N   0  0  0  0  0  0  0  0  0  0  0  0
   31.7910   31.7120   36.9160 C   0  0  0  0  0  0  0  0  0  0  0  0
   30.8660   31.9210   37.4530 H   0  0  0  0  0  0  0  0  0  0  0  0
   33.0370   32.0050   37.3860 N   0  0  0  0  0  0  0  0  0  0  0  0
   33.9030   31.5930   36.4320 C   0  0  0  0  0  0  0  0  0  0  0  0
   35.2890   31.6190   36.3370 C   0  0  0  0  0  3  0  0  0  0  0  0
   31.0770   30.8080   35.1090 H   0  0  0  0  0  0  0  0  0  0  0  0
  2  7  1  0  0  0  0
  2  1  1  0  0  0  0
  3 14  1  0  0  0  0
  3  2  2  0  0  0  0
  4  5  2  0  0  0  0
  4  3  1  0  0  0  0
  5  6  1  0  0  0  0
  6 10  1  0  0  0  0
  6  7  2  0  0  0  0
  7 33  1  0  0  0  0
  8  4  1  0  0  0  0
  9  5  1  0  0  0  0
 11 12  1  0  0  0  0
 12 16  1  0  0  0  0
 13 12  1  0  0  0  0
 13 19  1  0  0  0  0
 14 20  1  6  0  0  0
 14 15  1  0  0  0  0
 14 13  1  0  0  0  0
 15 11  1  0  0  0  0
 15 22  1  0  0  0  0
 17 12  1  0  0  0  0
 18 13  1  0  0  0  0
 21 15  1  0  0  0  0
 23 11  1  0  0  0  0
 24 29  1  0  0  0  0
 24 23  2  0  0  0  0
 25 24  1  0  0  0  0
 26 25  2  0  0  0  0
 26 27  1  0  0  0  0
 27 28  2  0  0  0  0
 28 23  1  0  0  0  0
 30 25  1  0  0  0  0
 31 27  1  0  0  0  0
 32 42  1  0  0  0  0
 33 34  1  0  0  0  0
 33 32  2  0  0  0  0
 34 36  2  0  0  0  0
 35 34  1  0  0  0  0
 36 37  1  0  0  0  0
 36 41  1  0  0  0  0
 37 38  1  0  0  0  0
 38 40  2  0  0  0  0
 38 39  1  0  0  0  0
 41 40  1  0  0  0  0
 42 41  2  0  0  0  0
 43 37  1  0  0  0  0
M  END
>  <minimizedAffinity>
-6.2720809

$$$$

 OpenBabel03272502403D

 43 47  0  0  1  0  0  0  0  0999 V2000
   36.1910   27.7880   34.9060 F   0  0  0  0  0  0  0  0  0  0  0  0
   36.3880   28.2350   33.6510 C   0  0  0  0  0  0  0  0  0  0  0  0
   36.9780   27.5600   32.6130 C   0  0  0  0  0  0  0  0  0  0  0  0
   37.0700   28.1990   31.3640 C   0  0  0  0  0  0  0  0  0  0  0  0
   36.5870   29.4750   31.1650 C   0  0  0  0  0  0  0  0  0  0  0  0
   35.9960   30.1370   32.2310 C   0  0  0  0  0  0  0  0  0  0  0  0
   35.8940   29.5110   33.4870 C   0  0  0  0  0  0  0  0  0  0  0  0
   37.5490   27.5760   30.6240 H   0  0  0  0  0  0  0  0  0  0  0  0
   36.7010   29.8910   30.1750 H   0  0  0  0  0  0  0  0  0  0  0  0
   35.6280   31.1360   32.0390 H   0  0  0  0  0  0  0  0  0  0  0  0
   39.2660   24.9560   33.6460 N   0  0  0  0  0  0  0  0  0  0  0  0
   39.3640   24.7670   32.2070 C   0  0  0  0  0  0  0  0  0  0  0  0
   38.3310   25.7140   31.6670 C   0  0  0  0  0  0  0  0  0  0  0  0
   37.5670   26.2580   32.9500 C   0  0  1  0  0  0  0  0  0  0  0  0
   38.6770   26.2870   33.9070 C   0  0  0  0  0  0  0  0  0  0  0  0
   40.3780   25.1320   31.8950 H   0  0  0  0  0  0  0  0  0  0  0  0
   39.2340   23.7170   31.9080 H   0  0  0  0  0  0  0  0  0  0  0  0
   37.5700   25.2790   31.0250 H   0  0  0  0  0  0  0  0  0  0  0  0
   38.7620   26.5860   31.1500 H   0  0  0  0  0  0  0  0  0  0  0  0
   36.8190   25.4740   33.0510 H   0  0  0  0  0  0  0  0  0  0  0  0
   38.3960   26.3670   34.9640 H   0  0  0  0  0  0  0  0  0  0  0  0
   39.4610   27.0060   33.6050 H   0  0  0  0  0  0  0  0  0  0  0  0
   39.6470   24.0490   34.6560 C   0  0  0  0  0  0  0  0  0  0  0  0
   40.9940   24.1070   35.0480 C   0  0  0  0  0  0  0  0  0  0  0  0
   41.4470   23.2240   36.0410 C   0  0  0  0  0  0  0  0  0  0  0  0
   40.5110   22.3510   36.5630 N   0  0  0  0  0  0  0  0  0  0  0  0
   39.2300   22.3290   36.1600 C   0  0  0  0  0  0  0  0  0  0  0  0
   38.8010   23.1830   35.2010 N   0  0  0  0  0  0  0  0  0  0  0  0
   41.6760   24.8030   34.6110 H   0  0  0  0  0  0  0  0  0  0  0  0
   42.4620   23.2530   36.3510 H   0  0  0  0  0  0  0  0  0  0  0  0
   38.5320   21.6320   36.5920 H   0  0  0  0  0  0  0  0  0  0  0  0
   35.9550   31.0470   35.4790 C   0  0  0  0  0  3  0  0  0  0  0  0
   35.2510   30.3020   34.5320 C   0  0  0  0  0  0  0  0  0  0  0  0
   33.8750   30.2990   34.5660 C   0  0  0  0  0  0  0  0  0  0  0  0
   33.2730   29.7350   33.8510 H   0  0  0  0  0  0  0  0  0  0  0  0
   33.2050   31.0270   35.5310 C   0  0  0  0  0  0  0  0  0  0  0  0
   31.8840   31.2000   35.7920 N   0  0  0  0  0  0  0  0  0  0  0  0
   31.7480   32.0240   36.8670 C   0  0  0  0  0  0  0  0  0  0  0  0
   30.8120   32.3530   37.3190 H   0  0  0  0  0  0  0  0  0  0  0  0
   32.9850   32.3910   37.3070 N   0  0  0  0  0  0  0  0  0  0  0  0
   33.8700   31.7780   36.4860 C   0  0  0  0  0  0  0  0  0  0  0  0
   35.2580   31.7650   36.4320 C   0  0  0  0  0  3  0  0  0  0  0  0
   31.0670   30.7760   35.2640 H   0  0  0  0  0  0  0  0  0  0  0  0
  2  1  1  0  0  0  0
  3 14  1  0  0  0  0
  3  2  2  0  0  0  0
  4  3  1  0  0  0  0
  5  4  2  0  0  0  0
  5  6  1  0  0  0  0
  6  7  2  0  0  0  0
  7  2  1  0  0  0  0
  7 33  1  0  0  0  0
  8  4  1  0  0  0  0
  9  5  1  0  0  0  0
 10  6  1  0  0  0  0
 11 15  1  0  0  0  0
 11 23  1  0  0  0  0
 12 11  1  0  0  0  0
 13 12  1  0  0  0  0
 13 14  1  0  0  0  0
 14 20  1  1  0  0  0
 14 15  1  0  0  0  0
 15 21  1  0  0  0  0
 16 12  1  0  0  0  0
 17 12  1  0  0  0  0
 18 13  1  0  0  0  0
 19 13  1  0  0  0  0
 22 15  1  0  0  0  0
 23 24  2  0  0  0  0
 23 28  1  0  0  0  0
 24 25  1  0  0  0  0
 25 30  1  0  0  0  0
 25 26  2  0  0  0  0
 27 26  1  0  0  0  0
 27 31  1  0  0  0  0
 28 27  2  0  0  0  0
 29 24  1  0  0  0  0
 32 42  1  0  0  0  0
 33 34  1  0  0  0  0
 33 32  2  0  0  0  0
 34 36  2  0  0  0  0
 35 34  1  0  0  0  0
 36 37  1  0  0  0  0
 36 41  1  0  0  0  0
 37 38  1  0  0  0  0
 38 40  2  0  0  0  0
 38 39  1  0  0  0  0
 41 40  1  0  0  0  0
 42 41  2  0  0  0  0
 43 37  1  0  0  0  0
M  END
>  <minimizedAffinity>
-6.27095604

$$$$

 OpenBabel03272502403D

 43 47  0  0  1  0  0  0  0  0999 V2000
   36.3700   27.1110   34.9180 F   0  0  0  0  0  0  0  0  0  0  0  0
   37.0040   27.3360   33.7500 C   0  0  0  0  0  0  0  0  0  0  0  0
   36.6660   28.2490   32.7860 C   0  0  0  0  0  0  0  0  0  0  0  0
   37.4750   28.3450   31.6400 C   0  0  0  0  0  0  0  0  0  0  0  0
   38.5860   27.5480   31.4690 C   0  0  0  0  0  0  0  0  0  0  0  0
   38.9070   26.6310   32.4590 C   0  0  0  0  0  0  0  0  0  0  0  0
   38.1090   26.5240   33.6130 C   0  0  0  0  0  0  0  0  0  0  0  0
   37.1160   29.0950   30.9520 H   0  0  0  0  0  0  0  0  0  0  0  0
   39.1500   27.6860   30.5580 H   0  0  0  0  0  0  0  0  0  0  0  0
   39.7860   26.0230   32.2910 H   0  0  0  0  0  0  0  0  0  0  0  0
   34.0190   30.7120   32.6730 N   0  0  0  0  0  0  0  0  0  0  0  0
   34.5810   31.0630   33.9680 C   0  0  0  0  0  0  0  0  0  0  0  0
   35.6150   29.9970   34.1910 C   0  0  0  0  0  0  0  0  0  0  0  0
   35.4030   28.9670   33.0000 C   0  0  1  0  0  0  0  0  0  0  0  0
   35.0070   29.8960   31.9370 C   0  0  0  0  0  0  0  0  0  0  0  0
   35.1050   32.0460   33.8450 H   0  0  0  0  0  0  0  0  0  0  0  0
   33.8160   31.1410   34.7540 H   0  0  0  0  0  0  0  0  0  0  0  0
   35.5200   29.4210   35.1080 H   0  0  0  0  0  0  0  0  0  0  0  0
   36.6490   30.3680   34.1210 H   0  0  0  0  0  0  0  0  0  0  0  0
   34.6360   28.3400   33.4490 H   0  0  0  0  0  0  0  0  0  0  0  0
   34.5320   29.4430   31.0570 H   0  0  0  0  0  0  0  0  0  0  0  0
   35.8210   30.6000   31.6820 H   0  0  0  0  0  0  0  0  0  0  0  0
   32.7490   31.0610   32.1690 C   0  0  0  0  0  0  0  0  0  0  0  0
   31.6710   30.8690   33.0470 C   0  0  0  0  0  0  0  0  0  0  0  0
   30.3760   31.1840   32.6080 C   0  0  0  0  0  0  0  0  0  0  0  0
   30.2640   31.6700   31.3190 N   0  0  0  0  0  0  0  0  0  0  0  0
   31.3230   31.8400   30.5100 C   0  0  0  0  0  0  0  0  0  0  0  0
   32.5680   31.5320   30.9400 N   0  0  0  0  0  0  0  0  0  0  0  0
   31.8150   30.4900   34.0360 H   0  0  0  0  0  0  0  0  0  0  0  0
   29.5480   31.0460   33.2590 H   0  0  0  0  0  0  0  0  0  0  0  0
   31.1920   32.2210   29.5110 H   0  0  0  0  0  0  0  0  0  0  0  0
   39.5170   24.5630   34.3210 C   0  0  0  0  0  3  0  0  0  0  0  0
   38.5450   25.5280   34.5870 C   0  0  0  0  0  0  0  0  0  0  0  0
   37.9520   25.5620   35.8290 C   0  0  0  0  0  0  0  0  0  0  0  0
   37.1860   26.2940   36.0930 H   0  0  0  0  0  0  0  0  0  0  0  0
   38.3190   24.6450   36.7960 C   0  0  0  0  0  0  0  0  0  0  0  0
   37.9080   24.4530   38.0760 N   0  0  0  0  0  0  0  0  0  0  0  0
   38.5910   23.4030   38.6080 C   0  0  0  0  0  0  0  0  0  0  0  0
   38.4850   23.0030   39.6170 H   0  0  0  0  0  0  0  0  0  0  0  0
   39.4520   22.9100   37.6720 N   0  0  0  0  0  0  0  0  0  0  0  0
   39.2800   23.6740   36.5680 C   0  0  0  0  0  0  0  0  0  0  0  0
   39.8640   23.6600   35.3080 C   0  0  0  0  0  3  0  0  0  0  0  0
   37.1760   25.0110   38.6030 H   0  0  0  0  0  0  0  0  0  0  0  0
  2  1  1  0  0  0  0
  3 14  1  0  0  0  0
  3  2  2  0  0  0  0
  4  3  1  0  0  0  0
  5  4  2  0  0  0  0
  5  6  1  0  0  0  0
  6  7  2  0  0  0  0
  7  2  1  0  0  0  0
  7 33  1  0  0  0  0
  8  4  1  0  0  0  0
  9  5  1  0  0  0  0
 10  6  1  0  0  0  0
 11 12  1  0  0  0  0
 12 13  1  0  0  0  0
 12 17  1  0  0  0  0
 13 18  1  0  0  0  0
 14 20  1  1  0  0  0
 14 13  1  0  0  0  0
 15 11  1  0  0  0  0
 15 14  1  0  0  0  0
 16 12  1  0  0  0  0
 19 13  1  0  0  0  0
 21 15  1  0  0  0  0
 22 15  1  0  0  0  0
 23 11  1  0  0  0  0
 23 24  1  0  0  0  0
 24 29  1  0  0  0  0
 25 24  2  0  0  0  0
 25 30  1  0  0  0  0
 26 25  1  0  0  0  0
 27 28  1  0  0  0  0
 27 26  2  0  0  0  0
 28 23  2  0  0  0  0
 31 27  1  0  0  0  0
 32 33  2  0  0  0  0
 32 42  1  0  0  0  0
 33 34  1  0  0  0  0
 34 35  1  0  0  0  0
 34 36  2  0  0  0  0
 36 37  1  0  0  0  0
 37 43  1  0  0  0  0
 37 38  1  0  0  0  0
 38 39  1  0  0  0  0
 40 38  2  0  0  0  0
 41 36  1  0  0  0  0
 41 40  1  0  0  0  0
 42 41  2  0  0  0  0
M  END
>  <minimizedAffinity>
-6.24871731

$$$$

 OpenBabel03272502403D

 43 47  0  0  1  0  0  0  0  0999 V2000
   36.6980   27.5900   35.2500 F   0  0  0  0  0  0  0  0  0  0  0  0
   36.8900   27.8780   33.9480 C   0  0  0  0  0  0  0  0  0  0  0  0
   37.7120   27.2250   33.0670 C   0  0  0  0  0  0  0  0  0  0  0  0
   37.7550   27.6700   31.7330 C   0  0  0  0  0  0  0  0  0  0  0  0
   36.9980   28.7380   31.3020 C   0  0  0  0  0  0  0  0  0  0  0  0
   36.1750   29.3830   32.2130 C   0  0  0  0  0  0  0  0  0  0  0  0
   36.1180   28.9480   33.5500 C   0  0  0  0  0  0  0  0  0  0  0  0
   38.4320   27.0840   31.1320 H   0  0  0  0  0  0  0  0  0  0  0  0
   37.0930   29.0160   30.2620 H   0  0  0  0  0  0  0  0  0  0  0  0
   35.5950   30.2160   31.8390 H   0  0  0  0  0  0  0  0  0  0  0  0
   40.5140   25.0650   33.8190 N   0  0  0  0  0  0  0  0  0  0  0  0
   39.7690   24.1560   32.9620 C   0  0  0  0  0  0  0  0  0  0  0  0
   38.4940   24.9040   32.6990 C   0  0  0  0  0  0  0  0  0  0  0  0
   38.5660   26.1800   33.6430 C   0  0  1  0  0  0  0  0  0  0  0  0
   40.0090   26.4370   33.6020 C   0  0  0  0  0  0  0  0  0  0  0  0
   40.3360   24.0710   31.9980 H   0  0  0  0  0  0  0  0  0  0  0  0
   39.6400   23.1600   33.4110 H   0  0  0  0  0  0  0  0  0  0  0  0
   37.5730   24.3880   32.9590 H   0  0  0  0  0  0  0  0  0  0  0  0
   38.4050   25.2690   31.6640 H   0  0  0  0  0  0  0  0  0  0  0  0
   38.1460   25.7480   34.5490 H   0  0  0  0  0  0  0  0  0  0  0  0
   40.4000   27.1040   34.3800 H   0  0  0  0  0  0  0  0  0  0  0  0
   40.3490   26.7050   32.5840 H   0  0  0  0  0  0  0  0  0  0  0  0
   41.5450   24.7360   34.7240 C   0  0  0  0  0  0  0  0  0  0  0  0
   41.3530   23.5570   35.4620 C   0  0  0  0  0  0  0  0  0  0  0  0
   42.3330   23.1750   36.3910 C   0  0  0  0  0  0  0  0  0  0  0  0
   43.4310   24.0060   36.5050 N   0  0  0  0  0  0  0  0  0  0  0  0
   43.5760   25.1260   35.7790 C   0  0  0  0  0  0  0  0  0  0  0  0
   42.6260   25.4890   34.8860 N   0  0  0  0  0  0  0  0  0  0  0  0
   40.4830   22.9500   35.3320 H   0  0  0  0  0  0  0  0  0  0  0  0
   42.2050   22.2860   36.9580 H   0  0  0  0  0  0  0  0  0  0  0  0
   44.4480   25.7470   35.8990 H   0  0  0  0  0  0  0  0  0  0  0  0
   33.8470   29.4470   34.5100 C   0  0  0  0  0  3  0  0  0  0  0  0
   35.2160   29.6990   34.4170 C   0  0  0  0  0  0  0  0  0  0  0  0
   35.7660   30.7080   35.1750 C   0  0  0  0  0  0  0  0  0  0  0  0
   36.8300   30.9500   35.1430 H   0  0  0  0  0  0  0  0  0  0  0  0
   34.9660   31.4570   36.0160 C   0  0  0  0  0  0  0  0  0  0  0  0
   35.2370   32.4880   36.8570 N   0  0  0  0  0  0  0  0  0  0  0  0
   34.0840   32.8800   37.4660 C   0  0  0  0  0  0  0  0  0  0  0  0
   33.9740   33.6830   38.1950 H   0  0  0  0  0  0  0  0  0  0  0  0
   33.0580   32.1010   37.0190 N   0  0  0  0  0  0  0  0  0  0  0  0
   33.6040   31.2350   36.1350 C   0  0  0  0  0  0  0  0  0  0  0  0
   33.0710   30.2130   35.3600 C   0  0  0  0  0  3  0  0  0  0  0  0
   36.1820   32.9370   37.0340 H   0  0  0  0  0  0  0  0  0  0  0  0
  2  1  1  0  0  0  0
  3 14  1  0  0  0  0
  3  2  2  0  0  0  0
  4  3  1  0  0  0  0
  5  4  2  0  0  0  0
  5  6  1  0  0  0  0
  6  7  2  0  0  0  0
  7  2  1  0  0  0  0
  7 33  1  0  0  0  0
  8  4  1  0  0  0  0
  9  5  1  0  0  0  0
 10  6  1  0  0  0  0
 11 23  1  0  0  0  0
 12 17  1  0  0  0  0
 12 11  1  0  0  0  0
 13 18  1  0  0  0  0
 13 12  1  0  0  0  0
 13 14  1  0  0  0  0
 14 20  1  1  0  0  0
 15 14  1  0  0  0  0
 15 11  1  0  0  0  0
 15 21  1  0  0  0  0
 16 12  1  0  0  0  0
 19 13  1  0  0  0  0
 22 15  1  0  0  0  0
 23 28  2  0  0  0  0
 23 24  1  0  0  0  0
 24 25  2  0  0  0  0
 25 26  1  0  0  0  0
 25 30  1  0  0  0  0
 27 31  1  0  0  0  0
 27 26  2  0  0  0  0
 28 27  1  0  0  0  0
 29 24  1  0  0  0  0
 32 42  1  0  0  0  0
 33 32  2  0  0  0  0
 33 34  1  0  0  0  0
 34 36  2  0  0  0  0
 35 34  1  0  0  0  0
 36 41  1  0  0  0  0
 36 37  1  0  0  0  0
 37 43  1  0  0  0  0
 37 38  1  0  0  0  0
 38 39  1  0  0  0  0
 40 38  2  0  0  0  0
 41 40  1  0  0  0  0
 42 41  2  0  0  0  0
M  END
>  <minimizedAffinity>
-6.22058153

$$$$

 OpenBabel03272502403D

 43 47  0  0  1  0  0  0  0  0999 V2000
   36.8800   27.8730   35.2910 F   0  0  0  0  0  0  0  0  0  0  0  0
   36.8710   28.1060   33.9640 C   0  0  0  0  0  0  0  0  0  0  0  0
   37.5180   27.3880   32.9920 C   0  0  0  0  0  0  0  0  0  0  0  0
   37.3640   27.7830   31.6510 C   0  0  0  0  0  0  0  0  0  0  0  0
   36.5860   28.8660   31.3010 C   0  0  0  0  0  0  0  0  0  0  0  0
   35.9420   29.5770   32.3020 C   0  0  0  0  0  0  0  0  0  0  0  0
   36.0850   29.1930   33.6490 C   0  0  0  0  0  0  0  0  0  0  0  0
   37.9140   27.1480   30.9750 H   0  0  0  0  0  0  0  0  0  0  0  0
   36.5240   29.1020   30.2480 H   0  0  0  0  0  0  0  0  0  0  0  0
   35.3410   30.4200   31.9900 H   0  0  0  0  0  0  0  0  0  0  0  0
   40.4260   25.3270   33.6040 N   0  0  0  0  0  0  0  0  0  0  0  0
   39.7900   24.5010   32.5900 C   0  0  0  0  0  0  0  0  0  0  0  0
   38.4790   25.1950   32.3580 C   0  0  0  0  0  0  0  0  0  0  0  0
   38.4150   26.3290   33.4700 C   0  0  1  0  0  0  0  0  0  0  0  0
   39.8360   26.6810   33.5470 C   0  0  0  0  0  0  0  0  0  0  0  0
   40.4080   24.5880   31.6580 H   0  0  0  0  0  0  0  0  0  0  0  0
   39.7110   23.4460   32.8920 H   0  0  0  0  0  0  0  0  0  0  0  0
   37.5860   24.5910   32.4910 H   0  0  0  0  0  0  0  0  0  0  0  0
   38.4150   25.6950   31.3780 H   0  0  0  0  0  0  0  0  0  0  0  0
   37.9830   25.7490   34.2820 H   0  0  0  0  0  0  0  0  0  0  0  0
   40.1400   27.2560   34.4300 H   0  0  0  0  0  0  0  0  0  0  0  0
   40.2060   27.1100   32.5970 H   0  0  0  0  0  0  0  0  0  0  0  0
   41.4320   24.9410   34.5140 C   0  0  0  0  0  0  0  0  0  0  0  0
   41.1770   23.7680   35.2420 C   0  0  0  0  0  0  0  0  0  0  0  0
   42.1300   23.3310   36.1750 C   0  0  0  0  0  0  0  0  0  0  0  0
   43.2660   24.1060   36.3040 N   0  0  0  0  0  0  0  0  0  0  0  0
   43.4730   25.2220   35.5870 C   0  0  0  0  0  0  0  0  0  0  0  0
   42.5490   25.6380   34.6900 N   0  0  0  0  0  0  0  0  0  0  0  0
   40.2790   23.2060   35.1020 H   0  0  0  0  0  0  0  0  0  0  0  0
   41.9540   22.4450   36.7350 H   0  0  0  0  0  0  0  0  0  0  0  0
   44.3730   25.7980   35.7180 H   0  0  0  0  0  0  0  0  0  0  0  0
   35.9770   30.9320   35.4630 C   0  0  0  0  0  3  0  0  0  0  0  0
   35.3600   30.0120   34.6150 C   0  0  0  0  0  0  0  0  0  0  0  0
   33.9940   29.8530   34.6750 C   0  0  0  0  0  0  0  0  0  0  0  0
   33.4580   29.1480   34.0370 H   0  0  0  0  0  0  0  0  0  0  0  0
   33.2490   30.5980   35.5690 C   0  0  0  0  0  0  0  0  0  0  0  0
   31.9180   30.6430   35.8360 N   0  0  0  0  0  0  0  0  0  0  0  0
   31.6930   31.5580   36.8190 C   0  0  0  0  0  0  0  0  0  0  0  0
   30.7290   31.8230   37.2510 H   0  0  0  0  0  0  0  0  0  0  0  0
   32.8820   32.1120   37.1930 N   0  0  0  0  0  0  0  0  0  0  0  0
   33.8270   31.5210   36.4260 C   0  0  0  0  0  0  0  0  0  0  0  0
   35.2060   31.6640   36.3470 C   0  0  0  0  0  3  0  0  0  0  0  0
   31.1540   30.0720   35.3720 H   0  0  0  0  0  0  0  0  0  0  0  0
  2  1  1  0  0  0  0
  3 14  1  0  0  0  0
  3  2  2  0  0  0  0
  4  3  1  0  0  0  0
  5  4  2  0  0  0  0
  5  6  1  0  0  0  0
  6  7  2  0  0  0  0
  7  2  1  0  0  0  0
  7 33  1  0  0  0  0
  8  4  1  0  0  0  0
  9  5  1  0  0  0  0
 10  6  1  0  0  0  0
 11 23  1  0  0  0  0
 12 17  1  0  0  0  0
 12 11  1  0  0  0  0
 13 18  1  0  0  0  0
 13 12  1  0  0  0  0
 13 14  1  0  0  0  0
 14 15  1  0  0  0  0
 14 20  1  1  0  0  0
 15 11  1  0  0  0  0
 15 21  1  0  0  0  0
 16 12  1  0  0  0  0
 19 13  1  0  0  0  0
 22 15  1  0  0  0  0
 23 28  2  0  0  0  0
 23 24  1  0  0  0  0
 24 25  2  0  0  0  0
 25 26  1  0  0  0  0
 25 30  1  0  0  0  0
 27 31  1  0  0  0  0
 27 26  2  0  0  0  0
 28 27  1  0  0  0  0
 29 24  1  0  0  0  0
 32 42  1  0  0  0  0
 33 34  1  0  0  0  0
 33 32  2  0  0  0  0
 34 36  2  0  0  0  0
 35 34  1  0  0  0  0
 36 37  1  0  0  0  0
 36 41  1  0  0  0  0
 37 38  1  0  0  0  0
 38 40  2  0  0  0  0
 38 39  1  0  0  0  0
 41 40  1  0  0  0  0
 42 41  2  0  0  0  0
 43 37  1  0  0  0  0
M  END
>  <minimizedAffinity>
-6.09855652

$$$$

 OpenBabel03272502403D

 43 47  0  0  1  0  0  0  0  0999 V2000
   37.5180   27.7950   35.4770 F   0  0  0  0  0  0  0  0  0  0  0  0
   37.2110   27.8780   34.1680 C   0  0  0  0  0  0  0  0  0  0  0  0
   36.1740   28.5740   33.6020 C   0  0  0  0  0  0  0  0  0  0  0  0
   36.0360   28.5520   32.2030 C   0  0  0  0  0  0  0  0  0  0  0  0
   36.9100   27.8510   31.4000 C   0  0  0  0  0  0  0  0  0  0  0  0
   37.9500   27.1540   31.9960 C   0  0  0  0  0  0  0  0  0  0  0  0
   38.1030   27.1680   33.3950 C   0  0  0  0  0  0  0  0  0  0  0  0
   35.1900   29.1340   31.8700 H   0  0  0  0  0  0  0  0  0  0  0  0
   36.7290   27.8860   30.3350 H   0  0  0  0  0  0  0  0  0  0  0  0
   38.6160   26.6160   31.3350 H   0  0  0  0  0  0  0  0  0  0  0  0
   33.4510   30.4820   35.0260 N   0  0  0  0  0  0  0  0  0  0  0  0
   34.5340   31.4090   35.3150 C   0  0  0  0  0  0  0  0  0  0  0  0
   35.7560   30.6480   34.8910 C   0  0  0  0  0  0  0  0  0  0  0  0
   35.2290   29.1900   34.5420 C   0  0  1  0  0  0  0  0  0  0  0  0
   33.9110   29.5270   33.9960 C   0  0  0  0  0  0  0  0  0  0  0  0
   34.4070   32.2880   34.6310 H   0  0  0  0  0  0  0  0  0  0  0  0
   34.5350   31.7450   36.3620 H   0  0  0  0  0  0  0  0  0  0  0  0
   36.5270   30.5180   35.6460 H   0  0  0  0  0  0  0  0  0  0  0  0
   36.2290   31.0500   33.9810 H   0  0  0  0  0  0  0  0  0  0  0  0
   35.2780   28.7470   35.5350 H   0  0  0  0  0  0  0  0  0  0  0  0
   33.1990   28.6960   33.9160 H   0  0  0  0  0  0  0  0  0  0  0  0
   33.9910   30.1260   33.0700 H   0  0  0  0  0  0  0  0  0  0  0  0
   32.1670   30.4560   35.6100 C   0  0  0  0  0  0  0  0  0  0  0  0
   31.6410   29.1800   35.8660 C   0  0  0  0  0  0  0  0  0  0  0  0
   30.3620   29.0790   36.4350 C   0  0  0  0  0  0  0  0  0  0  0  0
   29.7110   30.2680   36.7040 N   0  0  0  0  0  0  0  0  0  0  0  0
   30.2520   31.4700   36.4450 C   0  0  0  0  0  0  0  0  0  0  0  0
   31.4850   31.5590   35.8940 N   0  0  0  0  0  0  0  0  0  0  0  0
   32.1890   28.2920   35.6380 H   0  0  0  0  0  0  0  0  0  0  0  0
   29.9470   28.1220   36.6370 H   0  0  0  0  0  0  0  0  0  0  0  0
   29.7100   32.3730   36.6690 H   0  0  0  0  0  0  0  0  0  0  0  0
   39.1290   25.0900   34.3760 C   0  0  0  0  0  3  0  0  0  0  0  0
   39.2340   26.4010   33.9090 C   0  0  0  0  0  0  0  0  0  0  0  0
   40.4610   27.0250   33.9260 C   0  0  0  0  0  0  0  0  0  0  0  0
   40.6030   28.0480   33.5740 H   0  0  0  0  0  0  0  0  0  0  0  0
   41.5720   26.3530   34.4010 C   0  0  0  0  0  0  0  0  0  0  0  0
   42.8740   26.7180   34.5290 N   0  0  0  0  0  0  0  0  0  0  0  0
   43.5750   25.6780   35.0590 C   0  0  0  0  0  0  0  0  0  0  0  0
   44.6420   25.6600   35.2820 H   0  0  0  0  0  0  0  0  0  0  0  0
   42.7270   24.6320   35.2750 N   0  0  0  0  0  0  0  0  0  0  0  0
   41.5060   25.0520   34.8710 C   0  0  0  0  0  0  0  0  0  0  0  0
   40.2570   24.4450   34.8450 C   0  0  0  0  0  3  0  0  0  0  0  0
   43.3050   27.6510   34.2700 H   0  0  0  0  0  0  0  0  0  0  0  0
  2  1  1  0  0  0  0
  3  2  1  0  0  0  0
  3 14  1  0  0  0  0
  4  3  2  0  0  0  0
  5  6  2  0  0  0  0
  5  4  1  0  0  0  0
  6  7  1  0  0  0  0
  7 33  1  0  0  0  0
  7  2  2  0  0  0  0
  8  4  1  0  0  0  0
  9  5  1  0  0  0  0
 10  6  1  0  0  0  0
 11 12  1  0  0  0  0
 11 23  1  0  0  0  0
 12 17  1  0  0  0  0
 13 12  1  0  0  0  0
 13 18  1  0  0  0  0
 14 13  1  0  0  0  0
 14 20  1  1  0  0  0
 15 14  1  0  0  0  0
 15 11  1  0  0  0  0
 16 12  1  0  0  0  0
 19 13  1  0  0  0  0
 21 15  1  0  0  0  0
 22 15  1  0  0  0  0
 23 24  2  0  0  0  0
 23 28  1  0  0  0  0
 24 25  1  0  0  0  0
 25 30  1  0  0  0  0
 25 26  2  0  0  0  0
 27 31  1  0  0  0  0
 27 26  1  0  0  0  0
 28 27  2  0  0  0  0
 29 24  1  0  0  0  0
 32 42  1  0  0  0  0
 33 34  1  0  0  0  0
 33 32  2  0  0  0  0
 34 36  2  0  0  0  0
 35 34  1  0  0  0  0
 36 37  1  0  0  0  0
 36 41  1  0  0  0  0
 37 38  1  0  0  0  0
 38 40  2  0  0  0  0
 38 39  1  0  0  0  0
 41 40  1  0  0  0  0
 42 41  2  0  0  0  0
 43 37  1  0  0  0  0
M  END
>  <minimizedAffinity>
-6.06514978

$$$$
