REMARK  Name = 
REMARK  4 active torsions:
REMARK  status: ('A' for Active; 'I' for Inactive)
REMARK    1  A    between atoms: O_1  and  C_2
REMARK    2  A    between atoms: O_1  and  C_13
REMARK    3  A    between atoms: N_16  and  C_17
REMARK    4  A    between atoms: C_17  and  C_30
REMARK                            x       y       z     vdW  Elec       q    Type
REMARK                         _______ _______ _______ _____ _____    ______ ____
ROOT
ATOM      1  O   UNL     1      35.483  28.673  50.055  0.00  0.00    +0.000 OA
ATOM      2  C   UNL     1      35.260  29.049  48.890  0.00  0.00    +0.000 C 
ATOM      3  C   UNL     1      35.917  30.213  48.328  0.00  0.00    +0.000 C 
ATOM      4  C   UNL     1      35.463  30.115  46.838  0.00  0.00    +0.000 C 
ATOM      5  C   UNL     1      34.164  29.381  46.922  0.00  0.00    +0.000 C 
ATOM      6  N   UNL     1      34.356  28.405  47.984  0.00  0.00    +0.000 N 
ATOM      7  H   UNL     1      35.582  31.203  48.631  0.00  0.00    +0.000 HD
ATOM      8  H   UNL     1      36.214  29.498  46.321  0.00  0.00    +0.000 HD
ATOM      9  H   UNL     1      35.365  31.131  46.408  0.00  0.00    +0.000 HD
ATOM     10  H   UNL     1      33.321  30.008  47.222  0.00  0.00    +0.000 HD
ATOM     11  H   UNL     1      33.925  28.824  45.992  0.00  0.00    +0.000 HD
ENDROOT
BRANCH   6  12
ATOM     12  C   UNL     1      33.749  27.088  48.072  0.00  0.00    +0.000 C 
ATOM     13  H   UNL     1      32.753  27.111  47.599  0.00  0.00    +0.000 HD
ATOM     14  H   UNL     1      33.582  26.881  49.150  0.00  0.00    +0.000 HD
BRANCH  12  16
ATOM     15  C   UNL     1      35.269  25.205  48.302  0.00  0.00    +0.000 A 
ATOM     16  C   UNL     1      34.579  26.046  47.427  0.00  0.00    +0.000 A 
ATOM     17  C   UNL     1      34.682  25.894  46.060  0.00  0.00    +0.000 A 
ATOM     18  H   UNL     1      34.143  26.552  45.410  0.00  0.00    +0.000 HD
ATOM     19  C   UNL     1      35.486  24.887  45.561  0.00  0.00    +0.000 A 
ATOM     20  N   UNL     1      35.795  24.483  44.310  0.00  0.00    +0.000 N 
ATOM     21  C   UNL     1      36.640  23.435  44.420  0.00  0.00    +0.000 A 
ATOM     22  H   UNL     1      37.107  22.842  43.644  0.00  0.00    +0.000 HD
ATOM     23  N   UNL     1      36.866  23.177  45.732  0.00  0.00    +0.000 NA
ATOM     24  C   UNL     1      36.163  24.062  46.462  0.00  0.00    +0.000 A 
ATOM     25  C   UNL     1      36.072  24.199  47.829  0.00  0.00    +0.000 A 
ATOM     26  H   UNL     1      35.446  24.900  43.419  0.00  0.00    +0.000 HD
ENDBRANCH  12  16
ENDBRANCH   6  12
BRANCH   3  27
ATOM     27  O   UNL     1      37.346  30.115  48.302  0.00  0.00    +0.000 OA
BRANCH  27  28
ATOM     28  C   UNL     1      38.066  31.305  48.223  0.00  0.00    +0.000 A 
ATOM     29  C   UNL     1      38.217  32.012  49.402  0.00  0.00    +0.000 A 
ATOM     30  C   UNL     1      38.930  33.205  49.359  0.00  0.00    +0.000 A 
ATOM     31  N   UNL     1      39.442  33.623  48.178  0.00  0.00    +0.000 NA
ATOM     32  C   UNL     1      39.286  32.920  47.034  0.00  0.00    +0.000 A 
ATOM     33  N   UNL     1      38.605  31.784  47.081  0.00  0.00    +0.000 NA
ATOM     34  C   UNL     1      40.764  32.471  45.239  0.00  0.00    +0.000 C 
ATOM     35  O   UNL     1      41.129  31.345  45.686  0.00  0.00    +0.000 OA
ATOM     36  N   UNL     1      39.836  33.389  45.808  0.00  0.00    +0.000 N 
ATOM     37  H   UNL     1      37.794  31.647  50.324  0.00  0.00    +0.000 HD
ATOM     38  H   UNL     1      39.044  33.745  50.269  0.00  0.00    +0.000 HD
ATOM     39  H   UNL     1      41.267  32.692  44.299  0.00  0.00    +0.000 HD
ATOM     40  H   UNL     1      39.602  34.297  45.358  0.00  0.00    +0.000 HD
ENDBRANCH  27  28
ENDBRANCH   3  27
TORSDOF 4
