
 OpenBabel03272502583D

 37 40  0  0  1  0  0  0  0  0999 V2000
   35.7320   29.5700   48.8910 N   0  0  0  0  0  0  0  0  0  0  0  0
   36.5980   28.7520   49.7140 C   0  0  0  0  0  0  0  0  0  0  0  0
   37.1320   29.3390   50.9390 C   0  0  0  0  0  0  0  0  0  0  0  0
   37.2670   30.8070   51.0230 C   0  0  0  0  0  0  0  0  0  0  0  0
   36.3870   31.5610   50.0740 C   0  0  0  0  0  0  0  0  0  0  0  0
   36.3730   30.8650   48.7060 C   0  0  1  0  0  0  0  0  0  0  0  0
   36.0290   27.8180   49.9270 H   0  0  0  0  0  0  0  0  0  0  0  0
   37.4360   28.4380   49.0300 H   0  0  0  0  0  0  0  0  0  0  0  0
   36.4980   28.9930   51.8010 H   0  0  0  0  0  0  0  0  0  0  0  0
   38.1430   28.8860   51.1450 H   0  0  0  0  0  0  0  0  0  0  0  0
   37.0150   31.1750   52.0520 H   0  0  0  0  0  0  0  0  0  0  0  0
   38.3230   31.1250   50.8740 H   0  0  0  0  0  0  0  0  0  0  0  0
   36.6860   32.6130   49.9990 H   0  0  0  0  0  0  0  0  0  0  0  0
   35.3400   31.5010   50.4410 H   0  0  0  0  0  0  0  0  0  0  0  0
   35.8350   31.5000   47.9970 H   0  0  0  0  0  0  0  0  0  0  0  0
   34.4780   29.1630   48.3620 C   0  0  0  0  0  0  0  0  0  0  0  0
   33.9520   29.6080   47.1520 C   0  0  0  0  0  0  0  0  0  0  0  0
   32.7170   29.1410   46.7380 C   0  0  0  0  0  0  0  0  0  0  0  0
   32.0740   28.2590   47.5520 N   0  0  0  0  0  0  0  0  0  0  0  0
   32.6080   27.8500   48.7110 C   0  0  0  0  0  0  0  0  0  0  0  0
   33.8050   28.3050   49.1080 N   0  0  0  0  0  0  0  0  0  0  0  0
   34.5340   30.3090   46.5720 H   0  0  0  0  0  0  0  0  0  0  0  0
   32.3310   29.5050   45.7900 H   0  0  0  0  0  0  0  0  0  0  0  0
   32.0370   27.1340   49.3240 H   0  0  0  0  0  0  0  0  0  0  0  0
   37.7170   30.7210   48.3720 O   0  0  0  0  0  0  0  0  0  0  0  0
   38.2600   30.3010   46.1960 C   0  0  0  0  0  3  0  0  0  0  0  0
   38.2820   31.2310   47.2420 C   0  0  0  0  0  0  0  0  0  0  0  0
   38.8490   32.4550   46.9640 C   0  0  0  0  0  0  0  0  0  0  0  0
   38.8380   33.1260   47.8030 H   0  0  0  0  0  0  0  0  0  0  0  0
   39.3650   32.7630   45.7440 C   0  0  0  0  0  0  0  0  0  0  0  0
   39.9500   33.8860   45.2890 N   0  0  0  0  0  0  0  0  0  0  0  0
   40.2900   33.6880   44.0030 C   0  0  0  0  0  0  0  0  0  0  0  0
   40.7800   34.4620   43.4240 H   0  0  0  0  0  0  0  0  0  0  0  0
   39.9220   32.4430   43.6460 N   0  0  0  0  0  0  0  0  0  0  0  0
   39.3450   31.8550   44.7160 C   0  0  0  0  0  0  0  0  0  0  0  0
   38.7820   30.5980   44.9430 C   0  0  0  0  0  3  0  0  0  0  0  0
   40.1060   34.7550   45.8500 H   0  0  0  0  0  0  0  0  0  0  0  0
  1  2  1  0  0  0  0
  2  7  1  0  0  0  0
  2  3  1  0  0  0  0
  3  4  1  0  0  0  0
  3 10  1  0  0  0  0
  3  9  1  0  0  0  0
  4 11  1  0  0  0  0
  5 14  1  0  0  0  0
  5  4  1  0  0  0  0
  6 15  1  6  0  0  0
  6  1  1  0  0  0  0
  6  5  1  0  0  0  0
  8  2  1  0  0  0  0
 12  4  1  0  0  0  0
 13  5  1  0  0  0  0
 16  1  1  0  0  0  0
 16 21  1  0  0  0  0
 17 16  2  0  0  0  0
 18 17  1  0  0  0  0
 18 19  2  0  0  0  0
 19 20  1  0  0  0  0
 20 21  2  0  0  0  0
 20 24  1  0  0  0  0
 22 17  1  0  0  0  0
 23 18  1  0  0  0  0
 25  6  1  0  0  0  0
 26 27  1  0  0  0  0
 27 25  1  0  0  0  0
 28 27  2  0  0  0  0
 28 29  1  0  0  0  0
 30 28  1  0  0  0  0
 31 30  1  0  0  0  0
 31 37  1  0  0  0  0
 32 31  1  0  0  0  0
 33 32  1  0  0  0  0
 34 32  2  0  0  0  0
 34 35  1  0  0  0  0
 35 36  1  0  0  0  0
 35 30  2  0  0  0  0
 36 26  2  0  0  0  0
M  END
>  <minimizedAffinity>
-6.12526941

>  <minimizedRMSD>
1.03980625

$$$$
