
 OpenBabel03262521463D

 33 35  0  0  0  0  0  0  0  0999 V2000
   34.6860   30.6240   49.1760 O   0  0  0  0  0  0  0  0  0  0  0  0
   34.4340   29.4300   50.0800 P   0  0  2  0  0  0  0  0  0  0  0  0
   32.9840   29.7390   50.8750 O   0  0  0  0  0  0  0  0  0  0  0  0
   33.1360   29.5060   51.8230 H   0  0  0  0  0  0  0  0  0  0  0  0
   35.7220   29.3330   51.1860 O   0  0  0  0  0  0  0  0  0  0  0  0
   36.9510   29.2290   50.5250 C   0  0  0  0  0  0  0  0  0  0  0  0
   36.7320   29.1150   49.4580 H   0  0  0  0  0  0  0  0  0  0  0  0
   37.4690   28.3020   50.8480 H   0  0  0  0  0  0  0  0  0  0  0  0
   37.7140   30.4880   50.7760 C   0  0  0  0  0  0  0  0  0  0  0  0
   37.2130   31.1960   51.4800 H   0  0  0  0  0  0  0  0  0  0  0  0
   38.6680   30.1790   51.2930 H   0  0  0  0  0  0  0  0  0  0  0  0
   38.1200   31.2210   49.5770 C   0  0  0  0  0  0  0  0  0  0  0  0
   38.5500   32.5330   49.6120 C   0  0  0  0  0  0  0  0  0  0  0  0
   38.9160   33.1370   48.3910 C   0  0  0  0  0  0  0  0  0  0  0  0
   38.8270   32.3960   47.2420 N   0  0  0  0  0  0  0  0  0  0  0  0
   38.3940   31.1000   47.2640 C   0  0  0  0  0  0  0  0  0  0  0  0
   38.0430   30.5230   48.4400 N   0  0  0  0  0  0  0  0  0  0  0  0
   38.5880   33.0410   50.5670 H   0  0  0  0  0  0  0  0  0  0  0  0
   39.2510   34.1540   48.4040 H   0  0  0  0  0  0  0  0  0  0  0  0
   38.3500   30.5760   46.3190 H   0  0  0  0  0  0  0  0  0  0  0  0
   34.2910   28.0160   49.2040 O   0  0  0  0  0  0  0  0  0  0  0  0
   33.8540   27.8970   46.7540 C   0  0  0  0  0  3  0  0  0  0  0  0
   33.5390   27.7720   48.0830 C   0  0  0  0  0  0  0  0  0  0  0  0
   32.2570   27.3270   48.4270 C   0  0  0  0  0  0  0  0  0  0  0  0
   31.8730   27.1820   49.4460 H   0  0  0  0  0  0  0  0  0  0  0  0
   31.3160   27.0160   47.4410 C   0  0  0  0  0  0  0  0  0  0  0  0
   30.0440   26.5790   47.4360 N   0  0  0  0  0  0  0  0  0  0  0  0
   29.6330   26.4540   46.1460 C   0  0  0  0  0  0  0  0  0  0  0  0
   28.6330   26.1130   45.8630 H   0  0  0  0  0  0  0  0  0  0  0  0
   30.6580   26.8160   45.3240 N   0  0  0  0  0  0  0  0  0  0  0  0
   31.6850   27.1590   46.1170 C   0  0  0  0  0  0  0  0  0  0  0  0
   32.9500   27.5980   45.7680 C   0  0  0  0  0  3  0  0  0  0  0  0
   29.5150   26.3860   48.2990 H   0  0  0  0  0  0  0  0  0  0  0  0
  2  1  2  6  0  0  0
  2  3  1  0  0  0  0
  2  5  1  0  0  0  0
  3  4  1  0  0  0  0
  6  9  1  0  0  0  0
  6  8  1  0  0  0  0
  6  5  1  0  0  0  0
  7  6  1  0  0  0  0
  9 11  1  0  0  0  0
  9 10  1  0  0  0  0
 12 13  1  0  0  0  0
 12  9  1  0  0  0  0
 13 18  1  0  0  0  0
 14 19  1  0  0  0  0
 14 13  2  0  0  0  0
 15 16  2  0  0  0  0
 15 14  1  0  0  0  0
 16 17  1  0  0  0  0
 17 12  2  0  0  0  0
 20 16  1  0  0  0  0
 21  2  1  0  0  0  0
 22 23  1  0  0  0  0
 23 24  2  0  0  0  0
 23 21  1  0  0  0  0
 24 25  1  0  0  0  0
 26 24  1  0  0  0  0
 27 26  1  0  0  0  0
 27 33  1  0  0  0  0
 28 27  1  0  0  0  0
 29 28  1  0  0  0  0
 30 31  1  0  0  0  0
 30 28  2  0  0  0  0
 31 26  2  0  0  0  0
 32 31  1  0  0  0  0
 32 22  2  0  0  0  0
M  END
>  <minimizedAffinity>
-5.4478159

>  <minimizedRMSD>
1.42753935

$$$$
