REMARK  Name = 
REMARK  3 active torsions:
REMARK  status: ('A' for Active; 'I' for Inactive)
REMARK    1  A    between atoms: C_3  and  C_7
REMARK    2  A    between atoms: C_7  and  C_8
REMARK    3  A    between atoms: C_8  and  C_17
REMARK                            x       y       z     vdW  Elec       q    Type
REMARK                         _______ _______ _______ _____ _____    ______ ____
ROOT
ATOM      1  C   UNL     1      38.778  32.667  48.209  0.00  0.00    +0.000 C 
ATOM      2  H   UNL     1      37.879  33.251  48.413  0.00  0.00    +0.000 HD
ATOM      3  H   UNL     1      39.539  32.681  49.016  0.00  0.00    +0.000 HD
ENDROOT
BRANCH   1   5
ATOM      4  C   UNL     1      40.103  32.379  46.128  0.00  0.00    +0.000 A 
ATOM      5  C   UNL     1      39.427  33.246  46.987  0.00  0.00    +0.000 A 
ATOM      6  C   UNL     1      39.426  34.576  46.616  0.00  0.00    +0.000 A 
ATOM      7  H   UNL     1      38.903  35.246  47.281  0.00  0.00    +0.000 HD
ATOM      8  C   UNL     1      40.062  34.967  45.469  0.00  0.00    +0.000 A 
ATOM      9  N   UNL     1      40.200  36.190  44.901  0.00  0.00    +0.000 N 
ATOM     10  C   UNL     1      40.925  36.064  43.754  0.00  0.00    +0.000 A 
ATOM     11  H   UNL     1      41.217  36.846  43.058  0.00  0.00    +0.000 HD
ATOM     12  N   UNL     1      41.246  34.762  43.596  0.00  0.00    +0.000 NA
ATOM     13  C   UNL     1      40.722  34.086  44.639  0.00  0.00    +0.000 A 
ATOM     14  C   UNL     1      40.752  32.747  44.967  0.00  0.00    +0.000 A 
ATOM     15  H   UNL     1      39.818  37.098  45.270  0.00  0.00    +0.000 HD
ENDBRANCH   1   5
BRANCH   1  16
ATOM     16  C   UNL     1      38.368  31.239  47.874  0.00  0.00    +0.000 C 
ATOM     17  H   UNL     1      39.292  30.642  47.641  0.00  0.00    +0.000 HD
ATOM     18  H   UNL     1      37.663  31.252  47.038  0.00  0.00    +0.000 HD
BRANCH  16  21
ATOM     19  C   UNL     1      37.385  30.245  51.411  0.00  0.00    +0.000 A 
ATOM     20  C   UNL     1      38.042  30.881  50.358  0.00  0.00    +0.000 A 
ATOM     21  C   UNL     1      37.712  30.602  49.043  0.00  0.00    +0.000 A 
ATOM     22  N   UNL     1      36.727  29.688  48.846  0.00  0.00    +0.000 NA
ATOM     23  C   UNL     1      36.092  29.074  49.872  0.00  0.00    +0.000 A 
ATOM     24  N   UNL     1      36.423  29.355  51.151  0.00  0.00    +0.000 NA
ATOM     25  H   UNL     1      37.703  30.520  52.418  0.00  0.00    +0.000 HD
ATOM     26  H   UNL     1      38.819  31.599  50.571  0.00  0.00    +0.000 HD
ATOM     27  H   UNL     1      35.314  28.355  49.639  0.00  0.00    +0.000 HD
ENDBRANCH  16  21
ENDBRANCH   1  16
TORSDOF 3
