
 OpenBabel03272508023D

 31 34  0  0  0  0  0  0  0  0999 V2000
   38.6270   30.5770   45.4660 C   0  0  0  0  0  0  0  0  0  0  0  0
   39.7590   31.3590   45.3790 C   0  0  0  0  0  0  0  0  0  0  0  0
   40.4870   30.9980   44.2390 C   0  0  0  0  0  0  0  0  0  0  0  0
   39.7480   29.9910   43.6760 N   0  0  0  0  0  0  0  0  0  0  0  0
   38.6700   29.7540   44.3960 N   0  0  0  0  0  0  0  0  0  0  0  0
   40.0040   32.1250   46.1060 H   0  0  0  0  0  0  0  0  0  0  0  0
   41.4020   31.4890   43.9930 H   0  0  0  0  0  0  0  0  0  0  0  0
   41.0590   30.0400   41.5890 C   0  0  0  0  0  3  0  0  0  0  0  0
   40.2330   29.4030   42.4810 C   0  0  0  0  0  0  0  0  0  0  0  0
   39.7980   28.1000   42.2820 C   0  0  0  0  0  0  0  0  0  0  0  0
   39.1520   27.5430   42.9420 H   0  0  0  0  0  0  0  0  0  0  0  0
   40.1930   27.3840   41.1470 C   0  0  0  0  0  0  0  0  0  0  0  0
   39.9440   26.1380   40.6840 N   0  0  0  0  0  0  0  0  0  0  0  0
   40.6130   26.0050   39.5080 C   0  0  0  0  0  0  0  0  0  0  0  0
   40.5580   25.0620   38.9440 H   0  0  0  0  0  0  0  0  0  0  0  0
   41.2680   27.1530   39.2460 N   0  0  0  0  0  0  0  0  0  0  0  0
   41.0290   28.0300   40.2420 C   0  0  0  0  0  0  0  0  0  0  0  0
   41.4390   29.3290   40.4790 C   0  0  0  0  0  3  0  0  0  0  0  0
   39.3490   25.4280   41.1540 H   0  0  0  0  0  0  0  0  0  0  0  0
   37.5910   30.6220   46.4980 C   0  0  0  0  0  0  0  0  0  0  0  0
   37.9890   31.0820   47.7920 C   0  0  0  0  0  0  0  0  0  0  0  0
   36.9930   31.1240   48.7830 C   0  0  0  0  0  0  0  0  0  0  0  0
   35.7390   30.7290   48.4470 N   0  0  0  0  0  0  0  0  0  0  0  0
   35.4040   30.3010   47.2130 C   0  0  0  0  0  0  0  0  0  0  0  0
   36.3440   30.2540   46.2540 N   0  0  0  0  0  0  0  0  0  0  0  0
   39.0140   31.3780   47.9710 H   0  0  0  0  0  0  0  0  0  0  0  0
   34.3800   30.0030   47.0270 H   0  0  0  0  0  0  0  0  0  0  0  0
   37.3630   31.5970   50.1420 C   0  0  0  0  0  0  0  0  0  0  0  0
   36.6430   32.7590   50.3460 F   0  0  0  0  0  0  0  0  0  0  0  0
   37.0280   30.7010   51.1300 F   0  0  0  0  0  0  0  0  0  0  0  0
   38.7150   31.9180   50.2270 F   0  0  0  0  0  0  0  0  0  0  0  0
  1 20  1  0  0  0  0
  2  1  1  0  0  0  0
  2  6  1  0  0  0  0
  3  2  2  0  0  0  0
  4  3  1  0  0  0  0
  4  5  1  0  0  0  0
  5  1  2  0  0  0  0
  7  3  1  0  0  0  0
  8  9  1  0  0  0  0
  9  4  1  0  0  0  0
 10  9  2  0  0  0  0
 10 11  1  0  0  0  0
 12 10  1  0  0  0  0
 13 12  1  0  0  0  0
 13 19  1  0  0  0  0
 14 13  1  0  0  0  0
 15 14  1  0  0  0  0
 16 14  2  0  0  0  0
 16 17  1  0  0  0  0
 17 18  1  0  0  0  0
 17 12  2  0  0  0  0
 18  8  2  0  0  0  0
 20 21  1  0  0  0  0
 21 26  1  0  0  0  0
 21 22  2  0  0  0  0
 22 28  1  0  0  0  0
 23 22  1  0  0  0  0
 24 23  2  0  0  0  0
 25 20  2  0  0  0  0
 25 24  1  0  0  0  0
 27 24  1  0  0  0  0
 28 31  1  0  0  0  0
 28 29  1  0  0  0  0
 28 30  1  0  0  0  0
M  END
>  <minimizedAffinity>
-6.37243128

>  <minimizedRMSD>
1.65386581

$$$$
