
     RDKit          3D

 39 42  0  0  0  0  0  0  0  0999 V2000
   36.4614   29.8877   48.6837 N   0  0  0  0  0  0  0  0  0  0  0  0
   37.5961   30.6432   48.2274 C   0  0  0  0  0  0  0  0  0  0  0  0
   38.0997   31.2861   49.5194 C   0  0  2  0  0  0  0  0  0  0  0  0
   37.1081   30.9029   50.5978 C   0  0  0  0  0  0  0  0  0  0  0  0
   36.7230   29.5341   50.0583 C   0  0  0  0  0  0  0  0  0  0  0  0
   35.2883   29.5450   47.9261 C   0  0  0  0  0  0  0  0  0  0  0  0
   35.2246   30.0071   46.6052 C   0  0  0  0  0  0  0  0  0  0  0  0
   34.0890   29.6720   45.8812 C   0  0  0  0  0  0  0  0  0  0  0  0
   33.1321   28.9245   46.5091 N   0  0  0  0  0  0  0  0  0  0  0  0
   33.2180   28.5005   47.7603 C   0  0  0  0  0  0  0  0  0  0  0  0
   34.3197   28.8201   48.4775 N   0  0  0  0  0  0  0  0  0  0  0  0
   31.9311   27.5296   48.5132 S   0  0  0  0  0  0  0  0  0  0  0  0
   38.2650   32.7750   49.4085 C   0  0  0  0  0  0  0  0  0  0  0  0
   37.1051   33.3423   49.8900 F   0  0  0  0  0  0  0  0  0  0  0  0
   38.3088   33.0854   48.0563 F   0  0  0  0  0  0  0  0  0  0  0  0
   39.3790   33.2585   50.0299 F   0  0  0  0  0  0  0  0  0  0  0  0
   38.3548   29.9423   47.8522 H   0  0  0  0  0  0  0  0  0  0  0  0
   37.3265   31.4085   47.4792 H   0  0  0  0  0  0  0  0  0  0  0  0
   39.0652   30.8243   49.8123 H   0  0  0  0  0  0  0  0  0  0  0  0
   37.5982   30.7458   51.5610 H   0  0  0  0  0  0  0  0  0  0  0  0
   36.2285   31.5758   50.6438 H   0  0  0  0  0  0  0  0  0  0  0  0
   35.7854   29.2472   50.5737 H   0  0  0  0  0  0  0  0  0  0  0  0
   37.5484   28.8430   50.2156 H   0  0  0  0  0  0  0  0  0  0  0  0
   35.9747   30.5904   46.1200 H   0  0  0  0  0  0  0  0  0  0  0  0
   33.9143   29.9587   44.8691 H   0  0  0  0  0  0  0  0  0  0  0  0
   30.7002   27.5131   45.9195 C   0  0  0  0  0  0  0  0  0  0  0  0
   30.6379   27.3017   47.2793 C   0  0  0  0  0  0  0  0  0  0  0  0
   29.4605   26.8537   47.8585 C   0  0  0  0  0  0  0  0  0  0  0  0
   29.2849   26.6491   48.9212 H   0  0  0  0  0  0  0  0  0  0  0  0
   28.3201   26.6079   47.0880 C   0  0  0  0  0  0  0  0  0  0  0  0
   27.0594   26.1780   47.3566 N   0  0  0  0  0  0  0  0  0  0  0  0
   26.3659   26.1247   46.2062 C   0  0  0  0  0  0  0  0  0  0  0  0
   25.3194   25.8067   46.1534 H   0  0  0  0  0  0  0  0  0  0  0  0
   27.1963   26.5239   45.2081 N   0  0  0  0  0  0  0  0  0  0  0  0
   28.4036   26.8257   45.7300 C   0  0  0  0  0  0  0  0  0  0  0  0
   29.5728   27.2676   45.1748 C   0  0  0  0  0  0  0  0  0  0  0  0
   31.6666   27.8580   45.6053 H   0  0  0  0  0  0  0  0  0  0  0  0
   26.7074   25.9322   48.3210 H   0  0  0  0  0  0  0  0  0  0  0  0
   29.6765   27.4498   44.1136 H   0  0  0  0  0  0  0  0  0  0  0  0
  1  5  1  0
  2  1  1  0
  2  3  1  0
  3  4  1  0
  5  4  1  0
  6 11  1  0
  6  1  1  0
  7  6  2  0
  8  9  2  0
  8  7  1  0
  9 10  1  0
 10 11  2  0
 10 12  1  0
 13  3  1  0
 13 14  1  0
 13 16  1  0
 15 13  1  0
  2 17  1  0
  2 18  1  0
  3 19  1  1
  4 20  1  0
  4 21  1  0
  5 22  1  0
  5 23  1  0
  7 24  1  0
  8 25  1  0
 26 27  2  0
 27 28  1  0
 28 29  1  0
 28 30  2  0
 30 31  1  0
 31 32  1  0
 32 33  1  0
 32 34  2  0
 34 35  1  0
 35 36  2  0
 36 26  1  0
 35 30  1  0
 26 37  1  0
 31 38  1  0
 36 39  1  0
 12 27  1  0
M  ISO  8  17  13  18  13  19  13  20  13  21  13  22  13  23  13  24  14
M  ISO  3  25  14  29  15  33  14
M  END
>  <DihAtoms>  (1) 
9,11,26,25

>  <DihDeg>  (1) 
90.0001684651962

$$$$
