
 OpenBabel03272504213D

 42 45  0  0  1  0  0  0  0  0999 V2000
   38.8450   32.3900   47.8310 C   0  0  2  0  0  0  0  0  0  0  0  0
   38.1810   31.3770   48.7480 C   0  0  1  0  0  0  0  0  0  0  0  0
   38.7120   31.9180   50.0880 C   0  0  0  0  0  0  0  0  0  0  0  0
   38.3860   33.2620   49.9690 O   0  0  0  0  0  0  0  0  0  0  0  0
   38.6690   33.6420   48.6790 C   0  0  0  0  0  0  0  0  0  0  0  0
   39.9130   32.1040   47.7490 H   0  0  0  0  0  0  0  0  0  0  0  0
   38.4960   30.3480   48.5780 H   0  0  0  0  0  0  0  0  0  0  0  0
   39.8120   31.8140   50.0560 H   0  0  0  0  0  0  0  0  0  0  0  0
   38.2320   31.4440   50.9430 H   0  0  0  0  0  0  0  0  0  0  0  0
   39.5650   34.2810   48.6720 H   0  0  0  0  0  0  0  0  0  0  0  0
   37.8070   34.2130   48.2340 H   0  0  0  0  0  0  0  0  0  0  0  0
   36.8250   31.5900   48.6650 O   0  0  0  0  0  0  0  0  0  0  0  0
   35.9090   29.8370   46.9720 O   0  0  0  0  0  0  0  0  0  0  0  0
   35.9620   30.1590   48.4350 P   0  0  1  0  0  0  0  0  0  0  0  0
   36.7500   28.8620   49.2360 O   0  0  0  0  0  0  0  0  0  0  0  0
   37.5200   28.5530   48.7050 H   0  0  0  0  0  0  0  0  0  0  0  0
   34.3910   30.3270   49.0690 O   0  0  0  0  0  0  0  0  0  0  0  0
   34.1240   29.1870   49.8010 C   0  0  0  0  0  0  0  0  0  0  0  0
   33.5640   29.5350   50.7110 H   0  0  0  0  0  0  0  0  0  0  0  0
   35.0540   28.7300   50.1800 H   0  0  0  0  0  0  0  0  0  0  0  0
   33.2630   28.2210   49.0850 C   0  0  0  0  0  0  0  0  0  0  0  0
   33.8920   27.3320   48.2470 C   0  0  0  0  0  0  0  0  0  0  0  0
   33.1340   26.3950   47.5430 C   0  0  0  0  0  0  0  0  0  0  0  0
   31.7850   26.4210   47.7340 N   0  0  0  0  0  0  0  0  0  0  0  0
   31.1880   27.3050   48.5630 C   0  0  0  0  0  0  0  0  0  0  0  0
   31.9260   28.2090   49.2420 N   0  0  0  0  0  0  0  0  0  0  0  0
   34.9380   27.2350   48.0330 H   0  0  0  0  0  0  0  0  0  0  0  0
   33.5380   25.6550   46.8620 H   0  0  0  0  0  0  0  0  0  0  0  0
   30.1080   27.3020   48.6960 H   0  0  0  0  0  0  0  0  0  0  0  0
   38.1490   32.4120   46.6510 O   0  0  0  0  0  0  0  0  0  0  0  0
   39.3680   33.1190   44.8130 C   0  0  0  0  0  3  0  0  0  0  0  0
   38.5780   32.1230   45.3780 C   0  0  0  0  0  0  0  0  0  0  0  0
   38.3190   30.9910   44.6170 C   0  0  0  0  0  0  0  0  0  0  0  0
   37.6970   30.2650   45.1280 H   0  0  0  0  0  0  0  0  0  0  0  0
   38.8390   30.8720   43.3400 C   0  0  0  0  0  0  0  0  0  0  0  0
   38.6990   29.8610   42.4620 N   0  0  0  0  0  0  0  0  0  0  0  0
   39.3980   30.2420   41.3790 C   0  0  0  0  0  0  0  0  0  0  0  0
   39.4570   29.5950   40.4940 H   0  0  0  0  0  0  0  0  0  0  0  0
   39.9520   31.4520   41.5850 N   0  0  0  0  0  0  0  0  0  0  0  0
   39.6170   31.8900   42.8270 C   0  0  0  0  0  0  0  0  0  0  0  0
   39.8990   33.0280   43.5440 C   0  0  0  0  0  3  0  0  0  0  0  0
   38.1660   28.9760   42.5920 H   0  0  0  0  0  0  0  0  0  0  0  0
  1  6  1  6  0  0  0
  1  5  1  0  0  0  0
  1  2  1  0  0  0  0
  2  7  1  6  0  0  0
  2  3  1  0  0  0  0
  3  9  1  0  0  0  0
  4  3  1  0  0  0  0
  5  4  1  0  0  0  0
  8  3  1  0  0  0  0
 10  5  1  0  0  0  0
 11  5  1  0  0  0  0
 12  2  1  0  0  0  0
 14 13  2  6  0  0  0
 14 12  1  0  0  0  0
 14 17  1  0  0  0  0
 14 15  1  0  0  0  0
 16 15  1  0  0  0  0
 17 18  1  0  0  0  0
 18 20  1  0  0  0  0
 18 19  1  0  0  0  0
 21 26  1  0  0  0  0
 21 18  1  0  0  0  0
 22 21  2  0  0  0  0
 23 24  2  0  0  0  0
 23 22  1  0  0  0  0
 24 25  1  0  0  0  0
 25 29  1  0  0  0  0
 25 26  2  0  0  0  0
 27 22  1  0  0  0  0
 28 23  1  0  0  0  0
 30  1  1  0  0  0  0
 31 32  1  0  0  0  0
 32 30  1  0  0  0  0
 33 34  1  0  0  0  0
 33 32  2  0  0  0  0
 35 33  1  0  0  0  0
 36 42  1  0  0  0  0
 36 35  1  0  0  0  0
 37 39  2  0  0  0  0
 37 36  1  0  0  0  0
 38 37  1  0  0  0  0
 39 40  1  0  0  0  0
 40 35  2  0  0  0  0
 40 41  1  0  0  0  0
 41 31  2  0  0  0  0
M  END
>  <minimizedAffinity>
-5.10171747

>  <minimizedRMSD>
0.16300562

$$$$
