
 OpenBabel03272500183D

 37 40  0  0  0  0  0  0  0  0999 V2000
   35.7190   30.8440   49.7200 C   0  0  0  0  0  0  0  0  0  0  0  0
   36.6910   31.2780   48.7920 C   0  0  0  0  0  0  0  0  0  0  0  0
   36.6280   30.7940   47.4940 C   0  0  0  0  0  0  0  0  0  0  0  0
   35.6180   29.9190   47.1950 N   0  0  0  0  0  0  0  0  0  0  0  0
   34.7160   29.5230   48.0780 C   0  0  0  0  0  0  0  0  0  0  0  0
   34.7610   29.9770   49.3310 N   0  0  0  0  0  0  0  0  0  0  0  0
   35.7890   31.2320   50.7160 H   0  0  0  0  0  0  0  0  0  0  0  0
   38.7440   30.5470   46.5000 C   0  0  0  0  0  3  0  0  0  0  0  0
   37.4680   31.1240   46.3740 C   0  0  0  0  0  0  0  0  0  0  0  0
   37.3500   31.8900   45.2440 C   0  0  0  0  0  0  0  0  0  0  0  0
   36.4280   32.3820   45.1060 H   0  0  0  0  0  0  0  0  0  0  0  0
   38.3640   32.0700   44.3350 C   0  0  0  0  0  0  0  0  0  0  0  0
   38.3660   32.7900   43.2000 N   0  0  0  0  0  0  0  0  0  0  0  0
   39.5820   32.6610   42.6530 C   0  0  0  0  0  0  0  0  0  0  0  0
   39.8910   33.1350   41.7160 H   0  0  0  0  0  0  0  0  0  0  0  0
   40.3220   31.8780   43.4310 N   0  0  0  0  0  0  0  0  0  0  0  0
   39.6010   31.4860   44.4920 C   0  0  0  0  0  0  0  0  0  0  0  0
   39.7850   30.7050   45.6100 C   0  0  0  0  0  3  0  0  0  0  0  0
   37.5670   33.3600   42.7940 H   0  0  0  0  0  0  0  0  0  0  0  0
   32.5540   30.6380   46.2780 Cl  0  0  0  0  0  0  0  0  0  0  0  0
   32.6340   28.9720   46.8330 C   0  0  0  0  0  0  0  0  0  0  0  0
   33.6780   28.5740   47.6590 C   0  0  0  0  0  0  0  0  0  0  0  0
   33.7910   27.2550   48.1290 C   0  0  0  0  0  0  0  0  0  0  0  0
   32.7930   26.3710   47.7150 C   0  0  0  0  0  0  0  0  0  0  0  0
   31.7620   26.7410   46.9060 C   0  0  0  0  0  0  0  0  0  0  0  0
   30.5760   25.5410   46.4590 Cl  0  0  0  0  0  0  0  0  0  0  0  0
   31.6890   28.0580   46.4650 C   0  0  0  0  0  0  0  0  0  0  0  0
   34.6090   26.9540   48.7730 H   0  0  0  0  0  0  0  0  0  0  0  0
   32.8670   25.3430   48.0710 H   0  0  0  0  0  0  0  0  0  0  0  0
   30.5700   28.4780   45.5830 C   0  0  0  0  0  0  0  0  0  0  0  0
   29.5900   27.4820   45.5390 F   0  0  0  0  0  0  0  0  0  0  0  0
   30.9820   28.8110   44.3330 F   0  0  0  0  0  0  0  0  0  0  0  0
   29.9390   29.5890   46.1450 F   0  0  0  0  0  0  0  0  0  0  0  0
   37.7260   32.2540   49.2210 C   0  0  0  0  0  0  0  0  0  0  0  0
   38.8680   31.6200   49.6710 F   0  0  0  0  0  0  0  0  0  0  0  0
   38.0500   33.0710   48.1470 F   0  0  0  0  0  0  0  0  0  0  0  0
   37.2730   33.0820   50.2340 F   0  0  0  0  0  0  0  0  0  0  0  0
  1  7  1  0  0  0  0
  2 34  1  0  0  0  0
  2  1  2  0  0  0  0
  3  2  1  0  0  0  0
  4  3  2  0  0  0  0
  4  5  1  0  0  0  0
  5  6  2  0  0  0  0
  6  1  1  0  0  0  0
  9  8  1  0  0  0  0
  9  3  1  0  0  0  0
 10  9  2  0  0  0  0
 11 10  1  0  0  0  0
 12 17  2  0  0  0  0
 12 10  1  0  0  0  0
 13 12  1  0  0  0  0
 14 13  1  0  0  0  0
 14 16  2  0  0  0  0
 15 14  1  0  0  0  0
 16 17  1  0  0  0  0
 17 18  1  0  0  0  0
 18  8  2  0  0  0  0
 19 13  1  0  0  0  0
 20 21  1  0  0  0  0
 21 22  1  0  0  0  0
 22  5  1  0  0  0  0
 22 23  2  0  0  0  0
 23 28  1  0  0  0  0
 24 29  1  0  0  0  0
 24 23  1  0  0  0  0
 25 24  2  0  0  0  0
 26 25  1  0  0  0  0
 27 21  2  0  0  0  0
 27 25  1  0  0  0  0
 30 33  1  0  0  0  0
 30 27  1  0  0  0  0
 31 30  1  0  0  0  0
 32 30  1  0  0  0  0
 34 35  1  0  0  0  0
 34 37  1  0  0  0  0
 36 34  1  0  0  0  0
M  END
>  <minimizedAffinity>
-6.98183537

>  <minimizedRMSD>
1.50187624

$$$$
