
 OpenBabel03272504203D

 30 32  0  0  0  0  0  0  0  0999 V2000
   36.6450   27.9200   34.8960 O   0  0  0  0  0  0  0  0  0  0  0  0
   37.8380   27.0180   35.0370 P   0  0  2  0  0  0  0  0  0  0  0  0
   38.9050   27.7870   36.1200 O   0  0  0  0  0  0  0  0  0  0  0  0
   39.8420   27.6290   35.8310 H   0  0  0  0  0  0  0  0  0  0  0  0
   38.6190   26.8210   33.5410 O   0  0  0  0  0  0  0  0  0  0  0  0
   37.7300   27.1860   32.5540 C   0  0  0  0  0  0  0  0  0  0  0  0
   36.9540   27.9170   32.9280 H   0  0  0  0  0  0  0  0  0  0  0  0
   38.2030   27.6830   31.6810 H   0  0  0  0  0  0  0  0  0  0  0  0
   36.9320   26.0250   32.0530 C   0  0  0  0  0  0  0  0  0  0  0  0
   35.7680   26.2740   31.3490 C   0  0  0  0  0  0  0  0  0  0  0  0
   35.0180   25.2010   30.8770 C   0  0  0  0  0  0  0  0  0  0  0  0
   35.4870   23.9570   31.1450 N   0  0  0  0  0  0  0  0  0  0  0  0
   36.6250   23.7280   31.8320 C   0  0  0  0  0  0  0  0  0  0  0  0
   37.3390   24.7640   32.2810 N   0  0  0  0  0  0  0  0  0  0  0  0
   35.4320   27.2920   31.1610 H   0  0  0  0  0  0  0  0  0  0  0  0
   34.1040   25.3760   30.3240 H   0  0  0  0  0  0  0  0  0  0  0  0
   36.9890   22.7300   32.0390 H   0  0  0  0  0  0  0  0  0  0  0  0
   37.3450   25.5250   35.6500 O   0  0  0  0  0  0  0  0  0  0  0  0
   38.0610   24.2700   37.6560 C   0  0  0  0  0  3  0  0  0  0  0  0
   38.1330   24.6240   36.3350 C   0  0  0  0  0  0  0  0  0  0  0  0
   39.1050   24.0320   35.5390 C   0  0  0  0  0  0  0  0  0  0  0  0
   39.2420   24.2460   34.4830 H   0  0  0  0  0  0  0  0  0  0  0  0
   39.9700   23.1050   36.0920 C   0  0  0  0  0  0  0  0  0  0  0  0
   40.9990   22.3590   35.6240 N   0  0  0  0  0  0  0  0  0  0  0  0
   41.5230   21.5980   36.5940 C   0  0  0  0  0  0  0  0  0  0  0  0
   42.3660   20.9120   36.4480 H   0  0  0  0  0  0  0  0  0  0  0  0
   40.8110   21.8600   37.7230 N   0  0  0  0  0  0  0  0  0  0  0  0
   39.8720   22.7690   37.4300 C   0  0  0  0  0  0  0  0  0  0  0  0
   38.8970   23.3590   38.2410 C   0  0  0  0  0  3  0  0  0  0  0  0
   41.3020   22.4110   34.6270 H   0  0  0  0  0  0  0  0  0  0  0  0
  2  1  2  6  0  0  0
  2 18  1  0  0  0  0
  2  3  1  0  0  0  0
  4  3  1  0  0  0  0
  5  2  1  0  0  0  0
  6  7  1  0  0  0  0
  6  5  1  0  0  0  0
  8  6  1  0  0  0  0
  9 14  1  0  0  0  0
  9  6  1  0  0  0  0
 10  9  2  0  0  0  0
 11 12  2  0  0  0  0
 11 10  1  0  0  0  0
 12 13  1  0  0  0  0
 13 17  1  0  0  0  0
 13 14  2  0  0  0  0
 15 10  1  0  0  0  0
 16 11  1  0  0  0  0
 18 20  1  0  0  0  0
 19 29  1  0  0  0  0
 20 19  2  0  0  0  0
 21 23  2  0  0  0  0
 21 20  1  0  0  0  0
 22 21  1  0  0  0  0
 23 28  1  0  0  0  0
 24 23  1  0  0  0  0
 24 25  1  0  0  0  0
 25 27  2  0  0  0  0
 26 25  1  0  0  0  0
 28 27  1  0  0  0  0
 28 29  2  0  0  0  0
 30 24  1  0  0  0  0
M  END
>  <minimizedAffinity>
-5.61996412

$$$$

 OpenBabel03272504203D

 30 32  0  0  0  0  0  0  0  0999 V2000
   36.2760   26.3140   32.0980 O   0  0  0  0  0  0  0  0  0  0  0  0
   36.8660   24.9690   31.7840 P   0  0  2  0  0  0  0  0  0  0  0  0
   37.4110   25.0400   30.1710 O   0  0  0  0  0  0  0  0  0  0  0  0
   37.2510   24.1670   29.7270 H   0  0  0  0  0  0  0  0  0  0  0  0
   35.6860   23.7520   31.9120 O   0  0  0  0  0  0  0  0  0  0  0  0
   36.0210   22.7510   31.0260 C   0  0  0  0  0  0  0  0  0  0  0  0
   35.3320   22.7240   30.1320 H   0  0  0  0  0  0  0  0  0  0  0  0
   37.0440   22.8450   30.6040 H   0  0  0  0  0  0  0  0  0  0  0  0
   35.8910   21.3910   31.6340 C   0  0  0  0  0  0  0  0  0  0  0  0
   35.6210   21.2930   32.9870 C   0  0  0  0  0  0  0  0  0  0  0  0
   35.4970   20.0330   33.5650 C   0  0  0  0  0  0  0  0  0  0  0  0
   35.6510   18.9630   32.7460 N   0  0  0  0  0  0  0  0  0  0  0  0
   35.9120   19.0730   31.4270 C   0  0  0  0  0  0  0  0  0  0  0  0
   36.0310   20.2860   30.8810 N   0  0  0  0  0  0  0  0  0  0  0  0
   35.5080   22.1830   33.6040 H   0  0  0  0  0  0  0  0  0  0  0  0
   35.2870   19.9360   34.6220 H   0  0  0  0  0  0  0  0  0  0  0  0
   36.0330   18.2110   30.7840 H   0  0  0  0  0  0  0  0  0  0  0  0
   38.1520   24.6590   32.8320 O   0  0  0  0  0  0  0  0  0  0  0  0
   38.2450   25.9670   34.9280 C   0  0  0  0  0  3  0  0  0  0  0  0
   38.1420   24.8090   34.2020 C   0  0  0  0  0  0  0  0  0  0  0  0
   38.0120   23.6060   34.8840 C   0  0  0  0  0  0  0  0  0  0  0  0
   37.9240   22.6380   34.3990 H   0  0  0  0  0  0  0  0  0  0  0  0
   37.9870   23.6030   36.2660 C   0  0  0  0  0  0  0  0  0  0  0  0
   37.8750   22.6470   37.2190 N   0  0  0  0  0  0  0  0  0  0  0  0
   37.9060   23.1820   38.4460 C   0  0  0  0  0  0  0  0  0  0  0  0
   37.8320   22.6000   39.3720 H   0  0  0  0  0  0  0  0  0  0  0  0
   38.0420   24.5250   38.2830 N   0  0  0  0  0  0  0  0  0  0  0  0
   38.0920   24.7890   36.9710 C   0  0  0  0  0  0  0  0  0  0  0  0
   38.2240   26.0070   36.2950 C   0  0  0  0  0  3  0  0  0  0  0  0
   37.7800   21.6380   36.9710 H   0  0  0  0  0  0  0  0  0  0  0  0
  2  5  1  0  0  0  0
  2  1  2  1  0  0  0
  2 18  1  0  0  0  0
  3  2  1  0  0  0  0
  4  3  1  0  0  0  0
  6  9  1  0  0  0  0
  6  5  1  0  0  0  0
  7  6  1  0  0  0  0
  8  6  1  0  0  0  0
  9 10  1  0  0  0  0
 10 11  2  0  0  0  0
 10 15  1  0  0  0  0
 11 16  1  0  0  0  0
 12 11  1  0  0  0  0
 13 12  2  0  0  0  0
 14 13  1  0  0  0  0
 14  9  2  0  0  0  0
 17 13  1  0  0  0  0
 18 20  1  0  0  0  0
 19 29  1  0  0  0  0
 20 21  1  0  0  0  0
 20 19  2  0  0  0  0
 21 23  2  0  0  0  0
 22 21  1  0  0  0  0
 23 28  1  0  0  0  0
 23 24  1  0  0  0  0
 24 25  1  0  0  0  0
 25 26  1  0  0  0  0
 27 25  2  0  0  0  0
 28 27  1  0  0  0  0
 29 28  2  0  0  0  0
 30 24  1  0  0  0  0
M  END
>  <minimizedAffinity>
-5.16353655

$$$$

 OpenBabel03272504203D

 30 32  0  0  0  0  0  0  0  0999 V2000
   39.8850   26.2250   34.8890 O   0  0  0  0  0  0  0  0  0  0  0  0
   38.5330   26.3780   35.5240 P   0  0  2  0  0  0  0  0  0  0  0  0
   38.5090   27.9190   36.2520 O   0  0  0  0  0  0  0  0  0  0  0  0
   38.0040   27.8750   37.1050 H   0  0  0  0  0  0  0  0  0  0  0  0
   38.2990   25.1990   36.7260 O   0  0  0  0  0  0  0  0  0  0  0  0
   38.1280   23.9860   36.0930 C   0  0  0  0  0  0  0  0  0  0  0  0
   37.3180   23.3640   36.5760 H   0  0  0  0  0  0  0  0  0  0  0  0
   37.8340   24.0720   35.0260 H   0  0  0  0  0  0  0  0  0  0  0  0
   39.3500   23.1290   36.1740 C   0  0  0  0  0  0  0  0  0  0  0  0
   39.8140   22.7510   37.4210 C   0  0  0  0  0  0  0  0  0  0  0  0
   40.9510   21.9530   37.5080 C   0  0  0  0  0  0  0  0  0  0  0  0
   41.5390   21.5910   36.3420 N   0  0  0  0  0  0  0  0  0  0  0  0
   41.0760   21.9660   35.1310 C   0  0  0  0  0  0  0  0  0  0  0  0
   39.9850   22.7320   35.0570 N   0  0  0  0  0  0  0  0  0  0  0  0
   39.3060   23.0690   38.3300 H   0  0  0  0  0  0  0  0  0  0  0  0
   41.3290   21.6470   38.4750 H   0  0  0  0  0  0  0  0  0  0  0  0
   41.5550   21.6700   34.2080 H   0  0  0  0  0  0  0  0  0  0  0  0
   37.3370   26.2620   34.3400 O   0  0  0  0  0  0  0  0  0  0  0  0
   36.3460   28.3450   33.4510 C   0  0  0  0  0  3  0  0  0  0  0  0
   37.0730   27.1890   33.3530 C   0  0  0  0  0  0  0  0  0  0  0  0
   37.6370   26.8590   32.1280 C   0  0  0  0  0  0  0  0  0  0  0  0
   38.2290   25.9650   31.9500 H   0  0  0  0  0  0  0  0  0  0  0  0
   37.4550   27.6970   31.0440 C   0  0  0  0  0  0  0  0  0  0  0  0
   37.8490   27.6850   29.7480 N   0  0  0  0  0  0  0  0  0  0  0  0
   37.3940   28.7630   29.0950 C   0  0  0  0  0  0  0  0  0  0  0  0
   37.5880   28.9650   28.0350 H   0  0  0  0  0  0  0  0  0  0  0  0
   36.6840   29.4940   29.9950 N   0  0  0  0  0  0  0  0  0  0  0  0
   36.7150   28.8590   31.1740 C   0  0  0  0  0  0  0  0  0  0  0  0
   36.1420   29.2010   32.4040 C   0  0  0  0  0  3  0  0  0  0  0  0
   38.4310   26.9100   29.3610 H   0  0  0  0  0  0  0  0  0  0  0  0
  2  1  2  6  0  0  0
  2  3  1  0  0  0  0
  2  5  1  0  0  0  0
  3  4  1  0  0  0  0
  6  9  1  0  0  0  0
  6  7  1  0  0  0  0
  6  5  1  0  0  0  0
  8  6  1  0  0  0  0
  9 10  1  0  0  0  0
 10 11  2  0  0  0  0
 10 15  1  0  0  0  0
 11 16  1  0  0  0  0
 12 11  1  0  0  0  0
 13 12  2  0  0  0  0
 14 13  1  0  0  0  0
 14  9  2  0  0  0  0
 17 13  1  0  0  0  0
 18  2  1  0  0  0  0
 20 19  1  0  0  0  0
 20 18  1  0  0  0  0
 21 20  2  0  0  0  0
 22 21  1  0  0  0  0
 23 28  2  0  0  0  0
 23 21  1  0  0  0  0
 24 23  1  0  0  0  0
 25 24  1  0  0  0  0
 25 27  2  0  0  0  0
 26 25  1  0  0  0  0
 27 28  1  0  0  0  0
 28 29  1  0  0  0  0
 29 19  2  0  0  0  0
 30 24  1  0  0  0  0
M  END
>  <minimizedAffinity>
-5.14925098

$$$$

 OpenBabel03272504203D

 30 32  0  0  0  0  0  0  0  0999 V2000
   40.1080   22.9760   36.5760 O   0  0  0  0  0  0  0  0  0  0  0  0
   38.7170   23.3090   37.0350 P   0  0  2  0  0  0  0  0  0  0  0  0
   38.6370   22.8980   38.6870 O   0  0  0  0  0  0  0  0  0  0  0  0
   37.7410   22.5260   38.8940 H   0  0  0  0  0  0  0  0  0  0  0  0
   37.5690   22.3880   36.1840 O   0  0  0  0  0  0  0  0  0  0  0  0
   38.1580   21.9690   35.0100 C   0  0  0  0  0  0  0  0  0  0  0  0
   38.9630   22.6790   34.6600 H   0  0  0  0  0  0  0  0  0  0  0  0
   38.6530   20.9780   35.0820 H   0  0  0  0  0  0  0  0  0  0  0  0
   37.1860   21.9240   33.8750 C   0  0  0  0  0  0  0  0  0  0  0  0
   36.1900   20.9640   33.8930 C   0  0  0  0  0  0  0  0  0  0  0  0
   35.2790   20.9130   32.8420 C   0  0  0  0  0  0  0  0  0  0  0  0
   35.4310   21.8250   31.8510 N   0  0  0  0  0  0  0  0  0  0  0  0
   36.4070   22.7570   31.8460 C   0  0  0  0  0  0  0  0  0  0  0  0
   37.2770   22.7980   32.8580 N   0  0  0  0  0  0  0  0  0  0  0  0
   36.1100   20.2520   34.7120 H   0  0  0  0  0  0  0  0  0  0  0  0
   34.4920   20.1690   32.8380 H   0  0  0  0  0  0  0  0  0  0  0  0
   36.5170   23.4800   31.0480 H   0  0  0  0  0  0  0  0  0  0  0  0
   38.4310   24.9580   36.8200 O   0  0  0  0  0  0  0  0  0  0  0  0
   39.7380   26.3400   35.2410 C   0  0  0  0  0  3  0  0  0  0  0  0
   38.6150   25.6730   35.6550 C   0  0  0  0  0  0  0  0  0  0  0  0
   37.4930   25.6870   34.8380 C   0  0  0  0  0  0  0  0  0  0  0  0
   36.5580   25.1890   35.0790 H   0  0  0  0  0  0  0  0  0  0  0  0
   37.5320   26.3670   33.6350 C   0  0  0  0  0  0  0  0  0  0  0  0
   36.6520   26.5800   32.6280 N   0  0  0  0  0  0  0  0  0  0  0  0
   37.1980   27.3280   31.6600 C   0  0  0  0  0  0  0  0  0  0  0  0
   36.6720   27.6280   30.7460 H   0  0  0  0  0  0  0  0  0  0  0  0
   38.4690   27.6070   32.0530 N   0  0  0  0  0  0  0  0  0  0  0  0
   38.6800   27.0320   33.2440 C   0  0  0  0  0  0  0  0  0  0  0  0
   39.8170   27.0240   34.0590 C   0  0  0  0  0  3  0  0  0  0  0  0
   35.6850   26.1880   32.6550 H   0  0  0  0  0  0  0  0  0  0  0  0
  2  1  2  6  0  0  0
  2  3  1  0  0  0  0
  3  4  1  0  0  0  0
  5  2  1  0  0  0  0
  6  8  1  0  0  0  0
  6  5  1  0  0  0  0
  7  6  1  0  0  0  0
  9 10  1  0  0  0  0
  9  6  1  0  0  0  0
 10 15  1  0  0  0  0
 11 10  2  0  0  0  0
 12 11  1  0  0  0  0
 13 12  2  0  0  0  0
 13 14  1  0  0  0  0
 14  9  2  0  0  0  0
 16 11  1  0  0  0  0
 17 13  1  0  0  0  0
 18  2  1  0  0  0  0
 19 20  1  0  0  0  0
 20 18  1  0  0  0  0
 21 22  1  0  0  0  0
 21 20  2  0  0  0  0
 23 21  1  0  0  0  0
 24 30  1  0  0  0  0
 24 23  1  0  0  0  0
 25 27  2  0  0  0  0
 25 24  1  0  0  0  0
 26 25  1  0  0  0  0
 27 28  1  0  0  0  0
 28 23  2  0  0  0  0
 28 29  1  0  0  0  0
 29 19  2  0  0  0  0
M  END
>  <minimizedAffinity>
-4.98419046

$$$$

 OpenBabel03272504203D

 30 32  0  0  0  0  0  0  0  0999 V2000
   38.3400   22.6460   35.2760 O   0  0  0  0  0  0  0  0  0  0  0  0
   38.1650   23.2780   36.6280 P   0  0  2  0  0  0  0  0  0  0  0  0
   37.1000   22.2740   37.5010 O   0  0  0  0  0  0  0  0  0  0  0  0
   36.5050   22.8330   38.0640 H   0  0  0  0  0  0  0  0  0  0  0  0
   37.4700   24.8210   36.4820 O   0  0  0  0  0  0  0  0  0  0  0  0
   38.3100   25.5850   35.7000 C   0  0  0  0  0  0  0  0  0  0  0  0
   38.7690   26.4410   36.2770 H   0  0  0  0  0  0  0  0  0  0  0  0
   39.1690   25.0230   35.2780 H   0  0  0  0  0  0  0  0  0  0  0  0
   37.5860   26.2470   34.5720 C   0  0  0  0  0  0  0  0  0  0  0  0
   37.1330   27.5430   34.7430 C   0  0  0  0  0  0  0  0  0  0  0  0
   36.4580   28.1690   33.7000 C   0  0  0  0  0  0  0  0  0  0  0  0
   36.2870   27.4540   32.5610 N   0  0  0  0  0  0  0  0  0  0  0  0
   36.7340   26.1900   32.4060 C   0  0  0  0  0  0  0  0  0  0  0  0
   37.3800   25.5970   33.4130 N   0  0  0  0  0  0  0  0  0  0  0  0
   37.2950   28.0760   35.6780 H   0  0  0  0  0  0  0  0  0  0  0  0
   36.0960   29.1820   33.8150 H   0  0  0  0  0  0  0  0  0  0  0  0
   36.5910   25.6300   31.4910 H   0  0  0  0  0  0  0  0  0  0  0  0
   39.6610   23.3720   37.4030 O   0  0  0  0  0  0  0  0  0  0  0  0
   41.7430   23.2800   36.0730 C   0  0  0  0  0  3  0  0  0  0  0  0
   40.8380   22.7920   36.9780 C   0  0  0  0  0  0  0  0  0  0  0  0
   41.0870   21.5620   37.5720 C   0  0  0  0  0  0  0  0  0  0  0  0
   40.4310   21.0920   38.2990 H   0  0  0  0  0  0  0  0  0  0  0  0
   42.2330   20.8630   37.2410 C   0  0  0  0  0  0  0  0  0  0  0  0
   42.7730   19.6790   37.6150 N   0  0  0  0  0  0  0  0  0  0  0  0
   43.9320   19.4550   36.9810 C   0  0  0  0  0  0  0  0  0  0  0  0
   44.5470   18.5590   37.1260 H   0  0  0  0  0  0  0  0  0  0  0  0
   44.1490   20.5270   36.1750 N   0  0  0  0  0  0  0  0  0  0  0  0
   43.1290   21.3830   36.3240 C   0  0  0  0  0  0  0  0  0  0  0  0
   42.8880   22.6210   35.7190 C   0  0  0  0  0  3  0  0  0  0  0  0
   42.3020   19.0590   38.3100 H   0  0  0  0  0  0  0  0  0  0  0  0
  2  1  2  6  0  0  0
  2 18  1  0  0  0  0
  2  3  1  0  0  0  0
  3  4  1  0  0  0  0
  5  2  1  0  0  0  0
  6  7  1  0  0  0  0
  6  5  1  0  0  0  0
  8  6  1  0  0  0  0
  9 10  1  0  0  0  0
  9  6  1  0  0  0  0
 10 15  1  0  0  0  0
 11 16  1  0  0  0  0
 11 10  2  0  0  0  0
 12 11  1  0  0  0  0
 13 12  2  0  0  0  0
 13 14  1  0  0  0  0
 14  9  2  0  0  0  0
 17 13  1  0  0  0  0
 19 20  1  0  0  0  0
 20 18  1  0  0  0  0
 20 21  2  0  0  0  0
 21 22  1  0  0  0  0
 23 21  1  0  0  0  0
 23 24  1  0  0  0  0
 24 30  1  0  0  0  0
 25 26  1  0  0  0  0
 25 24  1  0  0  0  0
 27 28  1  0  0  0  0
 27 25  2  0  0  0  0
 28 23  2  0  0  0  0
 29 19  2  0  0  0  0
 29 28  1  0  0  0  0
M  END
>  <minimizedAffinity>
-4.95430374

$$$$

 OpenBabel03272504203D

 30 32  0  0  0  0  0  0  0  0999 V2000
   37.9120   23.9060   37.8830 O   0  0  0  0  0  0  0  0  0  0  0  0
   38.9770   23.3000   37.0140 P   0  0  2  0  0  0  0  0  0  0  0  0
   38.2820   21.9320   36.2740 O   0  0  0  0  0  0  0  0  0  0  0  0
   38.9600   21.2110   36.2060 H   0  0  0  0  0  0  0  0  0  0  0  0
   40.3040   22.8030   37.9520 O   0  0  0  0  0  0  0  0  0  0  0  0
   40.8840   21.7250   37.3180 C   0  0  0  0  0  0  0  0  0  0  0  0
   41.4600   21.0690   38.0330 H   0  0  0  0  0  0  0  0  0  0  0  0
   40.1560   21.0490   36.8220 H   0  0  0  0  0  0  0  0  0  0  0  0
   41.8970   22.1450   36.3020 C   0  0  0  0  0  0  0  0  0  0  0  0
   42.8110   23.1260   36.6430 C   0  0  0  0  0  0  0  0  0  0  0  0
   43.7600   23.5240   35.7070 C   0  0  0  0  0  0  0  0  0  0  0  0
   43.7260   22.9120   34.4980 N   0  0  0  0  0  0  0  0  0  0  0  0
   42.8290   21.9560   34.1770 C   0  0  0  0  0  0  0  0  0  0  0  0
   41.9220   21.5800   35.0830 N   0  0  0  0  0  0  0  0  0  0  0  0
   42.7970   23.5880   37.6290 H   0  0  0  0  0  0  0  0  0  0  0  0
   44.4830   24.2900   35.9550 H   0  0  0  0  0  0  0  0  0  0  0  0
   42.8120   21.4750   33.2090 H   0  0  0  0  0  0  0  0  0  0  0  0
   39.4610   24.4230   35.8510 O   0  0  0  0  0  0  0  0  0  0  0  0
   38.5220   26.7060   35.9750 C   0  0  0  0  0  3  0  0  0  0  0  0
   38.7180   25.4860   35.3840 C   0  0  0  0  0  0  0  0  0  0  0  0
   38.1120   25.2340   34.1590 C   0  0  0  0  0  0  0  0  0  0  0  0
   38.2070   24.3000   33.6130 H   0  0  0  0  0  0  0  0  0  0  0  0
   37.3340   26.2120   33.5680 C   0  0  0  0  0  0  0  0  0  0  0  0
   36.6230   26.3040   32.4200 N   0  0  0  0  0  0  0  0  0  0  0  0
   36.0300   27.5000   32.3130 C   0  0  0  0  0  0  0  0  0  0  0  0
   35.4020   27.8010   31.4660 H   0  0  0  0  0  0  0  0  0  0  0  0
   36.3690   28.2040   33.4260 N   0  0  0  0  0  0  0  0  0  0  0  0
   37.1560   27.4350   34.1900 C   0  0  0  0  0  0  0  0  0  0  0  0
   37.7600   27.6990   35.4230 C   0  0  0  0  0  3  0  0  0  0  0  0
   36.5760   25.5120   31.7410 H   0  0  0  0  0  0  0  0  0  0  0  0
  2  1  2  1  0  0  0
  2  5  1  0  0  0  0
  3  2  1  0  0  0  0
  4  3  1  0  0  0  0
  6  5  1  0  0  0  0
  6  7  1  0  0  0  0
  8  6  1  0  0  0  0
  9 10  1  0  0  0  0
  9  6  1  0  0  0  0
 10 15  1  0  0  0  0
 11 16  1  0  0  0  0
 11 10  2  0  0  0  0
 12 11  1  0  0  0  0
 13 12  2  0  0  0  0
 13 14  1  0  0  0  0
 14  9  2  0  0  0  0
 17 13  1  0  0  0  0
 18  2  1  0  0  0  0
 20 18  1  0  0  0  0
 20 19  2  0  0  0  0
 21 20  1  0  0  0  0
 22 21  1  0  0  0  0
 23 21  2  0  0  0  0
 23 28  1  0  0  0  0
 24 23  1  0  0  0  0
 25 24  1  0  0  0  0
 25 27  2  0  0  0  0
 26 25  1  0  0  0  0
 27 28  1  0  0  0  0
 28 29  2  0  0  0  0
 29 19  1  0  0  0  0
 30 24  1  0  0  0  0
M  END
>  <minimizedAffinity>
-4.84886789

$$$$

 OpenBabel03272504203D

 30 32  0  0  0  0  0  0  0  0999 V2000
   38.9450   27.5330   35.8270 O   0  0  0  0  0  0  0  0  0  0  0  0
   37.9370   26.9190   34.8970 P   0  0  2  0  0  0  0  0  0  0  0  0
   38.7140   26.7320   33.3920 O   0  0  0  0  0  0  0  0  0  0  0  0
   38.0700   26.9140   32.6600 H   0  0  0  0  0  0  0  0  0  0  0  0
   36.6000   27.9490   34.7000 O   0  0  0  0  0  0  0  0  0  0  0  0
   36.3950   28.1130   33.3460 C   0  0  0  0  0  0  0  0  0  0  0  0
   37.3310   28.4480   32.8110 H   0  0  0  0  0  0  0  0  0  0  0  0
   36.0740   27.1880   32.8230 H   0  0  0  0  0  0  0  0  0  0  0  0
   35.3970   29.1860   33.0520 C   0  0  0  0  0  0  0  0  0  0  0  0
   34.5500   29.6000   34.0640 C   0  0  0  0  0  0  0  0  0  0  0  0
   33.6160   30.5980   33.8020 C   0  0  0  0  0  0  0  0  0  0  0  0
   33.5990   31.1100   32.5460 N   0  0  0  0  0  0  0  0  0  0  0  0
   34.4310   30.6980   31.5680 C   0  0  0  0  0  0  0  0  0  0  0  0
   35.3230   29.7380   31.8280 N   0  0  0  0  0  0  0  0  0  0  0  0
   34.6020   29.1570   35.0570 H   0  0  0  0  0  0  0  0  0  0  0  0
   32.9450   30.9360   34.5810 H   0  0  0  0  0  0  0  0  0  0  0  0
   34.4070   31.1140   30.5700 H   0  0  0  0  0  0  0  0  0  0  0  0
   37.4490   25.4230   35.5030 O   0  0  0  0  0  0  0  0  0  0  0  0
   38.1290   24.2110   37.5480 C   0  0  0  0  0  3  0  0  0  0  0  0
   38.2270   24.5390   36.2210 C   0  0  0  0  0  0  0  0  0  0  0  0
   39.2190   23.9380   35.4580 C   0  0  0  0  0  0  0  0  0  0  0  0
   39.3770   24.1330   34.4010 H   0  0  0  0  0  0  0  0  0  0  0  0
   40.0770   23.0280   36.0460 C   0  0  0  0  0  0  0  0  0  0  0  0
   41.1200   22.2790   35.6150 N   0  0  0  0  0  0  0  0  0  0  0  0
   41.6270   21.5400   36.6110 C   0  0  0  0  0  0  0  0  0  0  0  0
   42.4770   20.8560   36.4960 H   0  0  0  0  0  0  0  0  0  0  0  0
   40.8910   21.8190   37.7180 N   0  0  0  0  0  0  0  0  0  0  0  0
   39.9530   22.7160   37.3890 C   0  0  0  0  0  0  0  0  0  0  0  0
   38.9580   23.3160   38.1670 C   0  0  0  0  0  3  0  0  0  0  0  0
   41.4440   22.3130   34.6240 H   0  0  0  0  0  0  0  0  0  0  0  0
  2 18  1  0  0  0  0
  2  1  2  1  0  0  0
  3  2  1  0  0  0  0
  4  3  1  0  0  0  0
  5  2  1  0  0  0  0
  6  5  1  0  0  0  0
  7  6  1  0  0  0  0
  8  6  1  0  0  0  0
  9  6  1  0  0  0  0
  9 10  1  0  0  0  0
 10 15  1  0  0  0  0
 11 10  2  0  0  0  0
 11 16  1  0  0  0  0
 12 11  1  0  0  0  0
 13 14  1  0  0  0  0
 13 12  2  0  0  0  0
 14  9  2  0  0  0  0
 17 13  1  0  0  0  0
 18 20  1  0  0  0  0
 19 29  1  0  0  0  0
 20 19  2  0  0  0  0
 21 23  2  0  0  0  0
 21 20  1  0  0  0  0
 22 21  1  0  0  0  0
 23 28  1  0  0  0  0
 24 23  1  0  0  0  0
 24 25  1  0  0  0  0
 25 27  2  0  0  0  0
 26 25  1  0  0  0  0
 28 27  1  0  0  0  0
 28 29  2  0  0  0  0
 30 24  1  0  0  0  0
M  END
>  <minimizedAffinity>
-4.81354284

$$$$

 OpenBabel03272504203D

 30 32  0  0  0  0  0  0  0  0999 V2000
   36.3380   25.2610   32.0760 O   0  0  0  0  0  0  0  0  0  0  0  0
   37.6050   25.6920   32.7570 P   0  0  2  0  0  0  0  0  0  0  0  0
   38.8820   24.8950   31.9590 O   0  0  0  0  0  0  0  0  0  0  0  0
   39.5770   24.6370   32.6190 H   0  0  0  0  0  0  0  0  0  0  0  0
   37.5980   25.2200   34.3890 O   0  0  0  0  0  0  0  0  0  0  0  0
   38.8490   24.7220   34.6860 C   0  0  0  0  0  0  0  0  0  0  0  0
   39.1280   23.8490   34.0250 H   0  0  0  0  0  0  0  0  0  0  0  0
   39.6700   25.4590   34.5590 H   0  0  0  0  0  0  0  0  0  0  0  0
   38.9250   24.1740   36.0740 C   0  0  0  0  0  0  0  0  0  0  0  0
   38.0000   24.6050   37.0090 C   0  0  0  0  0  0  0  0  0  0  0  0
   38.0600   24.1020   38.3050 C   0  0  0  0  0  0  0  0  0  0  0  0
   39.0400   23.2030   38.5710 N   0  0  0  0  0  0  0  0  0  0  0  0
   39.9350   22.7890   37.6500 C   0  0  0  0  0  0  0  0  0  0  0  0
   39.8700   23.2790   36.4080 N   0  0  0  0  0  0  0  0  0  0  0  0
   37.2320   25.3310   36.7470 H   0  0  0  0  0  0  0  0  0  0  0  0
   37.3460   24.4270   39.0500 H   0  0  0  0  0  0  0  0  0  0  0  0
   40.7120   22.0710   37.8740 H   0  0  0  0  0  0  0  0  0  0  0  0
   37.7750   27.3660   32.6240 O   0  0  0  0  0  0  0  0  0  0  0  0
   36.0430   28.5970   33.8870 C   0  0  0  0  0  3  0  0  0  0  0  0
   36.7730   28.3020   32.7660 C   0  0  0  0  0  0  0  0  0  0  0  0
   36.5090   29.0020   31.5960 C   0  0  0  0  0  0  0  0  0  0  0  0
   37.0320   28.8410   30.6580 H   0  0  0  0  0  0  0  0  0  0  0  0
   35.5260   29.9740   31.5890 C   0  0  0  0  0  0  0  0  0  0  0  0
   35.0240   30.8210   30.6590 N   0  0  0  0  0  0  0  0  0  0  0  0
   34.0520   31.5840   31.1750 C   0  0  0  0  0  0  0  0  0  0  0  0
   33.5000   32.3420   30.6060 H   0  0  0  0  0  0  0  0  0  0  0  0
   33.9210   31.2210   32.4780 N   0  0  0  0  0  0  0  0  0  0  0  0
   34.8060   30.2500   32.7380 C   0  0  0  0  0  0  0  0  0  0  0  0
   35.0630   29.5500   33.9220 C   0  0  0  0  0  3  0  0  0  0  0  0
   35.3860   30.8320   29.6800 H   0  0  0  0  0  0  0  0  0  0  0  0
  2  1  2  6  0  0  0
  2  5  1  0  0  0  0
  3  4  1  0  0  0  0
  3  2  1  0  0  0  0
  5  6  1  0  0  0  0
  6  9  1  0  0  0  0
  7  6  1  0  0  0  0
  8  6  1  0  0  0  0
  9 14  2  0  0  0  0
  9 10  1  0  0  0  0
 10 11  2  0  0  0  0
 11 12  1  0  0  0  0
 11 16  1  0  0  0  0
 13 17  1  0  0  0  0
 13 12  2  0  0  0  0
 14 13  1  0  0  0  0
 15 10  1  0  0  0  0
 18  2  1  0  0  0  0
 18 20  1  0  0  0  0
 19 29  1  0  0  0  0
 20 19  2  0  0  0  0
 21 20  1  0  0  0  0
 22 21  1  0  0  0  0
 23 21  2  0  0  0  0
 23 28  1  0  0  0  0
 24 25  1  0  0  0  0
 24 23  1  0  0  0  0
 25 27  2  0  0  0  0
 26 25  1  0  0  0  0
 27 28  1  0  0  0  0
 28 29  2  0  0  0  0
 30 24  1  0  0  0  0
M  END
>  <minimizedAffinity>
-4.80100822

$$$$

 OpenBabel03272504203D

 30 32  0  0  0  0  0  0  0  0999 V2000
   36.7280   26.0530   32.9530 O   0  0  0  0  0  0  0  0  0  0  0  0
   37.3970   27.2790   33.5050 P   0  0  2  0  0  0  0  0  0  0  0  0
   39.0150   27.2330   32.9710 O   0  0  0  0  0  0  0  0  0  0  0  0
   39.6100   27.5810   33.6850 H   0  0  0  0  0  0  0  0  0  0  0  0
   37.3780   27.2590   35.2040 O   0  0  0  0  0  0  0  0  0  0  0  0
   38.6160   26.8260   35.6300 C   0  0  0  0  0  0  0  0  0  0  0  0
   39.4170   26.9910   34.8510 H   0  0  0  0  0  0  0  0  0  0  0  0
   38.9840   27.3420   36.5420 H   0  0  0  0  0  0  0  0  0  0  0  0
   38.6440   25.3540   35.8840 C   0  0  0  0  0  0  0  0  0  0  0  0
   39.6910   24.6110   35.3680 C   0  0  0  0  0  0  0  0  0  0  0  0
   39.7280   23.2390   35.5970 C   0  0  0  0  0  0  0  0  0  0  0  0
   38.7150   22.7100   36.3270 N   0  0  0  0  0  0  0  0  0  0  0  0
   37.6990   23.4450   36.8260 C   0  0  0  0  0  0  0  0  0  0  0  0
   37.6720   24.7620   36.6000 N   0  0  0  0  0  0  0  0  0  0  0  0
   40.4810   25.0820   34.7860 H   0  0  0  0  0  0  0  0  0  0  0  0
   40.5390   22.6420   35.2020 H   0  0  0  0  0  0  0  0  0  0  0  0
   36.8970   23.0110   37.4070 H   0  0  0  0  0  0  0  0  0  0  0  0
   36.6190   28.6570   32.9200 O   0  0  0  0  0  0  0  0  0  0  0  0
   35.3530   30.0310   34.5390 C   0  0  0  0  0  3  0  0  0  0  0  0
   35.4750   29.2290   33.4350 C   0  0  0  0  0  0  0  0  0  0  0  0
   34.3330   28.9190   32.7080 C   0  0  0  0  0  0  0  0  0  0  0  0
   34.3270   28.2920   31.8210 H   0  0  0  0  0  0  0  0  0  0  0  0
   33.1100   29.4240   33.1090 C   0  0  0  0  0  0  0  0  0  0  0  0
   31.8390   29.3290   32.6510 N   0  0  0  0  0  0  0  0  0  0  0  0
   30.9950   30.0260   33.4220 C   0  0  0  0  0  0  0  0  0  0  0  0
   29.9150   30.0950   33.2430 H   0  0  0  0  0  0  0  0  0  0  0  0
   31.7410   30.5900   34.4080 N   0  0  0  0  0  0  0  0  0  0  0  0
   33.0190   30.2320   34.2290 C   0  0  0  0  0  0  0  0  0  0  0  0
   34.1630   30.5500   34.9690 C   0  0  0  0  0  3  0  0  0  0  0  0
   31.6050   28.7690   31.8010 H   0  0  0  0  0  0  0  0  0  0  0  0
  2  1  2  6  0  0  0
  2  5  1  0  0  0  0
  3  2  1  0  0  0  0
  3  4  1  0  0  0  0
  5  6  1  0  0  0  0
  6  9  1  0  0  0  0
  6  8  1  0  0  0  0
  7  6  1  0  0  0  0
  9 14  1  0  0  0  0
 10 11  1  0  0  0  0
 10  9  2  0  0  0  0
 11 12  2  0  0  0  0
 12 13  1  0  0  0  0
 13 17  1  0  0  0  0
 14 13  2  0  0  0  0
 15 10  1  0  0  0  0
 16 11  1  0  0  0  0
 18 20  1  0  0  0  0
 18  2  1  0  0  0  0
 19 29  1  0  0  0  0
 20 19  2  0  0  0  0
 21 23  2  0  0  0  0
 21 20  1  0  0  0  0
 22 21  1  0  0  0  0
 23 28  1  0  0  0  0
 24 23  1  0  0  0  0
 24 25  1  0  0  0  0
 25 27  2  0  0  0  0
 26 25  1  0  0  0  0
 28 27  1  0  0  0  0
 28 29  2  0  0  0  0
 30 24  1  0  0  0  0
M  END
>  <minimizedAffinity>
-4.63473606

$$$$
