
     RDKit          3D

 45 49  0  0  0  0  0  0  0  0999 V2000
   37.8233   30.3851   51.0898 C   0  0  0  0  0  0  0  0  0  0  0  0
   38.2245   30.9754   49.8798 C   0  0  0  0  0  0  0  0  0  0  0  0
   37.5867   30.5544   48.7307 C   0  0  0  0  0  0  0  0  0  0  0  0
   36.6321   29.6140   48.8511 N   0  0  0  0  0  0  0  0  0  0  0  0
   36.2613   29.0609   50.0146 C   0  0  0  0  0  0  0  0  0  0  0  0
   36.8681   29.4548   51.1485 N   0  0  0  0  0  0  0  0  0  0  0  0
   37.8951   31.0842   47.4214 C   0  0  0  0  0  0  0  0  0  0  0  0
   37.1077   30.7630   46.3201 C   0  0  0  0  0  0  0  0  0  0  0  0
   37.3556   31.2423   45.0621 C   0  0  0  0  0  0  0  0  0  0  0  0
   38.4143   32.0704   44.8616 N   0  0  0  0  0  0  0  0  0  0  0  0
   39.1584   32.3648   45.9412 C   0  0  0  0  0  0  0  0  0  0  0  0
   38.9337   31.9071   47.1793 N   0  0  0  0  0  0  0  0  0  0  0  0
   40.3226   33.2688   45.7559 C   0  0  0  0  0  0  0  0  0  0  0  0
   40.4109   34.0691   46.9149 F   0  0  0  0  0  0  0  0  0  0  0  0
   41.4707   32.5772   45.5224 F   0  0  0  0  0  0  0  0  0  0  0  0
   40.1031   34.1802   44.7358 F   0  0  0  0  0  0  0  0  0  0  0  0
   35.2596   28.1048   49.9617 O   0  0  0  0  0  0  0  0  0  0  0  0
   33.2890   27.1726   46.9942 N   0  0  0  0  0  0  0  0  0  0  0  0
   34.1711   27.0159   47.9978 C   0  0  0  0  0  0  0  0  0  0  0  0
   34.4092   28.0512   48.8794 C   0  0  0  0  0  0  0  0  0  0  0  0
   33.7156   29.2440   48.6971 C   0  0  0  0  0  0  0  0  0  0  0  0
   33.7738   30.3089   49.3751 O   0  0  0  0  0  0  0  0  0  0  0  0
   32.8349   29.3548   47.6685 N   0  0  0  0  0  0  0  0  0  0  0  0
   32.6256   28.3232   46.8244 C   0  0  0  0  0  0  0  0  0  0  0  0
   31.8153   28.3778   45.8514 O   0  0  0  0  0  0  0  0  0  0  0  0
   38.3309   30.7256   51.9726 H   0  0  0  0  0  0  0  0  0  0  0  0
   38.9997   31.7334   49.8138 H   0  0  0  0  0  0  0  0  0  0  0  0
   36.2659   30.1026   46.4876 H   0  0  0  0  0  0  0  0  0  0  0  0
   36.7061   30.9557   44.2457 H   0  0  0  0  0  0  0  0  0  0  0  0
   33.1718   26.3449   46.3801 H   0  0  0  0  0  0  0  0  0  0  0  0
   34.7476   26.1287   48.2089 H   0  0  0  0  0  0  0  0  0  0  0  0
   32.8407   31.6615   47.5301 C   0  0  0  0  0  0  0  0  0  0  0  0
   32.0753   30.5269   47.3916 C   0  0  0  0  0  0  0  0  0  0  0  0
   30.7483   30.6169   47.0265 C   0  0  0  0  0  0  0  0  0  0  0  0
   30.2472   29.6890   46.9470 H   0  0  0  0  0  0  0  0  0  0  0  0
   30.2341   31.8772   46.8107 C   0  0  0  0  0  0  0  0  0  0  0  0
   28.9839   32.2269   46.4507 N   0  0  0  0  0  0  0  0  0  0  0  0
   28.9201   33.5673   46.3521 C   0  0  0  0  0  0  0  0  0  0  0  0
   28.0420   34.1382   46.0795 H   0  0  0  0  0  0  0  0  0  0  0  0
   30.1571   34.0452   46.6583 N   0  0  0  0  0  0  0  0  0  0  0  0
   30.9948   33.0356   46.9466 C   0  0  0  0  0  0  0  0  0  0  0  0
   32.3227   32.9375   47.3123 C   0  0  0  0  0  0  0  0  0  0  0  0
   33.9009   31.7085   47.8145 H   0  0  0  0  0  0  0  0  0  0  0  0
   28.1810   31.6031   46.2710 H   0  0  0  0  0  0  0  0  0  0  0  0
   32.8818   33.8464   47.4087 H   0  0  0  0  0  0  0  0  0  0  0  0
  1  6  2  0
  2  1  1  0
  3  4  1  0
  3  2  2  0
  4  5  2  0
  5  6  1  0
  7  3  1  0
  8  7  2  0
  9  8  1  0
 10  9  2  0
 10 11  1  0
 11 12  2  0
 12  7  1  0
 13 11  1  0
 13 14  1  0
 15 13  1  0
 16 13  1  0
 17  5  1  0
 18 19  1  0
 19 20  2  0
 20 17  1  0
 21 20  1  0
 21 22  2  0
 23 21  1  0
 24 18  1  0
 24 23  1  0
 25 24  2  0
  1 26  1  0
  2 27  1  0
  8 28  1  0
  9 29  1  0
 18 30  1  0
 19 31  1  0
 32 33  2  0
 33 34  1  0
 34 35  1  0
 34 36  2  0
 36 37  1  0
 37 38  1  0
 38 39  1  0
 38 40  2  0
 40 41  1  0
 41 42  2  0
 42 32  1  0
 41 36  1  0
 32 43  1  0
 37 44  1  0
 42 45  1  0
 23 33  1  0
M  ISO  8  26  14  27  14  28  14  29  14  30   9  31  14  35  15  39  14
M  END
>  <DihAtoms>  (1) 
20,22,32,31

>  <DihDeg>  (1) 
102.11198933745034

$$$$
