REMARK  Name = 
REMARK  5 active torsions:
REMARK  status: ('A' for Active; 'I' for Inactive)
REMARK    1  A    between atoms: C_3  and  C_7
REMARK    2  A    between atoms: C_5  and  O_17
REMARK    3  A    between atoms: C_11  and  C_13
REMARK    4  A    between atoms: O_17  and  C_20
REMARK    5  A    between atoms: N_23  and  C_33
REMARK                            x       y       z     vdW  Elec       q    Type
REMARK                         _______ _______ _______ _____ _____    ______ ____
ROOT
ATOM      1  N   UNL     1      33.289  27.173  46.994  0.00  0.00    +0.000 N 
ATOM      2  C   UNL     1      34.171  27.016  47.998  0.00  0.00    +0.000 A 
ATOM      3  C   UNL     1      34.409  28.051  48.879  0.00  0.00    +0.000 A 
ATOM      4  C   UNL     1      33.716  29.244  48.697  0.00  0.00    +0.000 A 
ATOM      5  O   UNL     1      33.774  30.309  49.375  0.00  0.00    +0.000 OA
ATOM      6  N   UNL     1      32.835  29.355  47.669  0.00  0.00    +0.000 N 
ATOM      7  C   UNL     1      32.626  28.323  46.824  0.00  0.00    +0.000 A 
ATOM      8  O   UNL     1      31.815  28.378  45.851  0.00  0.00    +0.000 OA
ATOM      9  H   UNL     1      33.172  26.345  46.380  0.00  0.00    +0.000 HD
ATOM     10  H   UNL     1      34.748  26.129  48.209  0.00  0.00    +0.000 HD
ENDROOT
BRANCH   6  12
ATOM     11  C   UNL     1      32.841  31.662  47.530  0.00  0.00    +0.000 A 
ATOM     12  C   UNL     1      32.075  30.527  47.392  0.00  0.00    +0.000 A 
ATOM     13  C   UNL     1      30.748  30.617  47.026  0.00  0.00    +0.000 A 
ATOM     14  H   UNL     1      30.247  29.689  46.947  0.00  0.00    +0.000 HD
ATOM     15  C   UNL     1      30.234  31.877  46.811  0.00  0.00    +0.000 A 
ATOM     16  N   UNL     1      28.984  32.227  46.451  0.00  0.00    +0.000 N 
ATOM     17  C   UNL     1      28.920  33.567  46.352  0.00  0.00    +0.000 A 
ATOM     18  H   UNL     1      28.042  34.138  46.080  0.00  0.00    +0.000 HD
ATOM     19  N   UNL     1      30.157  34.045  46.658  0.00  0.00    +0.000 NA
ATOM     20  C   UNL     1      30.995  33.036  46.947  0.00  0.00    +0.000 A 
ATOM     21  C   UNL     1      32.323  32.938  47.312  0.00  0.00    +0.000 A 
ATOM     22  H   UNL     1      28.181  31.603  46.271  0.00  0.00    +0.000 HD
ENDBRANCH   6  12
BRANCH   3  23
ATOM     23  O   UNL     1      35.260  28.105  49.962  0.00  0.00    +0.000 OA
BRANCH  23  28
ATOM     24  C   UNL     1      37.823  30.385  51.090  0.00  0.00    +0.000 A 
ATOM     25  C   UNL     1      38.224  30.975  49.880  0.00  0.00    +0.000 A 
ATOM     26  C   UNL     1      37.587  30.554  48.731  0.00  0.00    +0.000 A 
ATOM     27  N   UNL     1      36.632  29.614  48.851  0.00  0.00    +0.000 NA
ATOM     28  C   UNL     1      36.261  29.061  50.015  0.00  0.00    +0.000 A 
ATOM     29  N   UNL     1      36.868  29.455  51.148  0.00  0.00    +0.000 NA
ATOM     30  H   UNL     1      38.331  30.726  51.973  0.00  0.00    +0.000 HD
ATOM     31  H   UNL     1      39.000  31.733  49.814  0.00  0.00    +0.000 HD
BRANCH  26  32
ATOM     32  C   UNL     1      37.895  31.084  47.421  0.00  0.00    +0.000 A 
ATOM     33  C   UNL     1      37.108  30.763  46.320  0.00  0.00    +0.000 A 
ATOM     34  C   UNL     1      37.356  31.242  45.062  0.00  0.00    +0.000 A 
ATOM     35  N   UNL     1      38.414  32.070  44.862  0.00  0.00    +0.000 NA
ATOM     36  C   UNL     1      39.158  32.365  45.941  0.00  0.00    +0.000 A 
ATOM     37  N   UNL     1      38.934  31.907  47.179  0.00  0.00    +0.000 NA
ATOM     38  H   UNL     1      36.266  30.103  46.488  0.00  0.00    +0.000 HD
ATOM     39  H   UNL     1      36.706  30.956  44.246  0.00  0.00    +0.000 HD
BRANCH  36  40
ATOM     40  C   UNL     1      40.323  33.269  45.756  0.00  0.00    +0.000 C 
ATOM     41  F   UNL     1      40.411  34.069  46.915  0.00  0.00    +0.000 F 
ATOM     42  F   UNL     1      41.471  32.577  45.522  0.00  0.00    +0.000 F 
ATOM     43  F   UNL     1      40.103  34.180  44.736  0.00  0.00    +0.000 F 
ENDBRANCH  36  40
ENDBRANCH  26  32
ENDBRANCH  23  28
ENDBRANCH   3  23
TORSDOF 5
