
 OpenBabel03272503303D

 37 40  0  0  1  0  0  0  0  0999 V2000
   35.1950   29.4330   47.9200 C   0  0  0  0  0  0  0  0  0  0  0  0
   35.0930   29.9850   46.6360 C   0  0  0  0  0  0  0  0  0  0  0  0
   33.9580   29.6620   45.9060 C   0  0  0  0  0  0  0  0  0  0  0  0
   33.0390   28.8370   46.4920 N   0  0  0  0  0  0  0  0  0  0  0  0
   33.1600   28.3280   47.7080 C   0  0  0  0  0  0  0  0  0  0  0  0
   34.2620   28.6350   48.4310 N   0  0  0  0  0  0  0  0  0  0  0  0
   35.8140   30.6290   46.1840 H   0  0  0  0  0  0  0  0  0  0  0  0
   33.7560   30.0140   44.9200 H   0  0  0  0  0  0  0  0  0  0  0  0
   36.3670   29.7630   48.6840 N   0  0  0  0  0  0  0  0  0  0  0  0
   37.5070   30.5170   48.2370 C   0  0  0  0  0  0  0  0  0  0  0  0
   38.0100   31.1460   49.5360 C   0  0  2  0  0  0  0  0  0  0  0  0
   37.0140   30.7570   50.6090 C   0  0  0  0  0  0  0  0  0  0  0  0
   36.6240   29.3950   50.0550 C   0  0  0  0  0  0  0  0  0  0  0  0
   38.2640   29.8170   47.8570 H   0  0  0  0  0  0  0  0  0  0  0  0
   37.2430   31.2920   47.4960 H   0  0  0  0  0  0  0  0  0  0  0  0
   38.9730   30.6770   49.8270 H   0  0  0  0  0  0  0  0  0  0  0  0
   37.5010   30.5890   51.5720 H   0  0  0  0  0  0  0  0  0  0  0  0
   36.1370   31.4340   50.6590 H   0  0  0  0  0  0  0  0  0  0  0  0
   35.6840   29.1070   50.5660 H   0  0  0  0  0  0  0  0  0  0  0  0
   37.4460   28.6990   50.2090 H   0  0  0  0  0  0  0  0  0  0  0  0
   38.1820   32.6350   49.4400 C   0  0  0  0  0  0  0  0  0  0  0  0
   37.0350   33.2030   49.9510 F   0  0  0  0  0  0  0  0  0  0  0  0
   38.2020   32.9610   48.0910 F   0  0  0  0  0  0  0  0  0  0  0  0
   39.3110   33.1040   50.0460 F   0  0  0  0  0  0  0  0  0  0  0  0
   31.9210   27.2600   48.4070 S   0  0  0  0  0  0  0  0  0  0  0  0
   29.8140   28.2370   46.7200 C   0  0  0  0  0  3  0  0  0  0  0  0
   30.3130   27.9450   47.9700 C   0  0  0  0  0  0  0  0  0  0  0  0
   29.5400   28.1790   49.0970 C   0  0  0  0  0  0  0  0  0  0  0  0
   29.8210   27.9890   50.1400 H   0  0  0  0  0  0  0  0  0  0  0  0
   28.2510   28.7100   48.9970 C   0  0  0  0  0  0  0  0  0  0  0  0
   27.2810   29.0400   49.8890 N   0  0  0  0  0  0  0  0  0  0  0  0
   26.2200   29.5200   49.2160 C   0  0  0  0  0  0  0  0  0  0  0  0
   25.3020   29.8570   49.7100 H   0  0  0  0  0  0  0  0  0  0  0  0
   26.5250   29.4900   47.8930 N   0  0  0  0  0  0  0  0  0  0  0  0
   27.7710   28.9950   47.7370 C   0  0  0  0  0  0  0  0  0  0  0  0
   28.5470   28.7580   46.6350 C   0  0  0  0  0  3  0  0  0  0  0  0
   27.3710   28.9290   50.9350 H   0  0  0  0  0  0  0  0  0  0  0  0
  1  6  1  0  0  0  0
  1  9  1  0  0  0  0
  2  1  2  0  0  0  0
  3  4  2  0  0  0  0
  3  2  1  0  0  0  0
  4  5  1  0  0  0  0
  5 25  1  0  0  0  0
  5  6  2  0  0  0  0
  7  2  1  0  0  0  0
  8  3  1  0  0  0  0
  9 13  1  0  0  0  0
 10  9  1  0  0  0  0
 10 11  1  0  0  0  0
 11 16  1  1  0  0  0
 11 12  1  0  0  0  0
 12 18  1  0  0  0  0
 12 17  1  0  0  0  0
 13 20  1  0  0  0  0
 13 19  1  0  0  0  0
 13 12  1  0  0  0  0
 14 10  1  0  0  0  0
 15 10  1  0  0  0  0
 21 11  1  0  0  0  0
 21 22  1  0  0  0  0
 21 24  1  0  0  0  0
 23 21  1  0  0  0  0
 26 27  1  0  0  0  0
 27 25  1  0  0  0  0
 27 28  2  0  0  0  0
 28 29  1  0  0  0  0
 30 28  1  0  0  0  0
 30 31  1  0  0  0  0
 31 37  1  0  0  0  0
 32 33  1  0  0  0  0
 32 31  1  0  0  0  0
 34 32  2  0  0  0  0
 35 34  1  0  0  0  0
 35 30  2  0  0  0  0
 36 26  2  0  0  0  0
 36 35  1  0  0  0  0
M  END
>  <minimizedAffinity>
-6.85058928

>  <minimizedRMSD>
1.80046058

$$$$
