
     RDKit          3D

 40 43  0  0  0  0  0  0  0  0999 V2000
   33.2850   27.2867   47.9928 C   0  0  0  0  0  0  0  0  0  0  0  0
   33.7118   26.2082   47.0458 C   0  0  0  0  0  0  0  0  0  0  0  0
   33.9395   24.8866   47.3904 C   0  0  0  0  0  0  0  0  0  0  0  0
   34.3290   23.9830   46.4101 C   0  0  0  0  0  0  0  0  0  0  0  0
   34.4954   24.3905   45.0752 C   0  0  0  0  0  0  0  0  0  0  0  0
   34.2693   25.6963   44.7419 C   0  0  0  0  0  0  0  0  0  0  0  0
   33.8830   26.5884   45.7179 C   0  0  0  0  0  0  0  0  0  0  0  0
   34.6988   28.3972   49.7212 C   0  0  0  0  0  0  0  0  0  0  0  0
   34.4034   28.0843   48.5087 C   0  0  0  0  0  0  0  0  0  0  0  0
   37.3667   30.2368   51.4151 C   0  0  0  0  0  0  0  0  0  0  0  0
   38.1172   30.6900   50.3110 C   0  0  0  0  0  0  0  0  0  0  0  0
   37.6870   30.3555   49.0124 C   0  0  0  0  0  0  0  0  0  0  0  0
   36.5494   29.6006   48.9401 N   0  0  0  0  0  0  0  0  0  0  0  0
   35.8659   29.1897   50.0006 C   0  0  0  0  0  0  0  0  0  0  0  0
   36.2635   29.5010   51.2460 N   0  0  0  0  0  0  0  0  0  0  0  0
   32.7737   26.8253   48.8649 H   0  0  0  0  0  0  0  0  0  0  0  0
   32.5263   27.9033   47.4698 H   0  0  0  0  0  0  0  0  0  0  0  0
   33.7989   24.6240   48.4252 H   0  0  0  0  0  0  0  0  0  0  0  0
   34.4887   22.9642   46.7571 H   0  0  0  0  0  0  0  0  0  0  0  0
   34.8024   23.6320   44.3564 H   0  0  0  0  0  0  0  0  0  0  0  0
   34.4134   25.9495   43.7015 H   0  0  0  0  0  0  0  0  0  0  0  0
   33.7125   27.6143   45.4185 H   0  0  0  0  0  0  0  0  0  0  0  0
   34.0931   28.0746   50.5818 H   0  0  0  0  0  0  0  0  0  0  0  0
   34.9765   28.3843   47.6285 H   0  0  0  0  0  0  0  0  0  0  0  0
   37.7227   30.5097   52.3847 H   0  0  0  0  0  0  0  0  0  0  0  0
   38.9881   31.2707   50.4415 H   0  0  0  0  0  0  0  0  0  0  0  0
   38.1792   30.2327   46.5693 C   0  0  0  0  0  0  0  0  0  0  0  0
   38.3931   30.7758   47.8113 C   0  0  0  0  0  0  0  0  0  0  0  0
   39.3303   31.7784   47.9351 C   0  0  0  0  0  0  0  0  0  0  0  0
   39.5749   32.2709   48.8587 H   0  0  0  0  0  0  0  0  0  0  0  0
   40.0120   32.1875   46.7885 C   0  0  0  0  0  0  0  0  0  0  0  0
   40.9634   33.1164   46.5707 N   0  0  0  0  0  0  0  0  0  0  0  0
   41.3069   33.1324   45.2590 C   0  0  0  0  0  0  0  0  0  0  0  0
   42.0230   33.7340   44.7183 H   0  0  0  0  0  0  0  0  0  0  0  0
   40.5734   32.2098   44.6296 N   0  0  0  0  0  0  0  0  0  0  0  0
   39.7772   31.6205   45.5380 C   0  0  0  0  0  0  0  0  0  0  0  0
   38.8221   30.6038   45.4313 C   0  0  0  0  0  0  0  0  0  0  0  0
   37.4505   29.4454   46.4433 H   0  0  0  0  0  0  0  0  0  0  0  0
   41.3906   33.7440   47.2864 H   0  0  0  0  0  0  0  0  0  0  0  0
   38.6276   30.1522   44.4648 H   0  0  0  0  0  0  0  0  0  0  0  0
  1  9  1  0
  2  3  2  0
  2  1  1  0
  4  3  1  0
  5  4  2  0
  6  5  1  0
  6  7  2  0
  7  2  1  0
  8 14  1  0
  9  8  2  0
 11 10  2  0
 12 11  1  0
 13 12  2  0
 13 14  1  0
 14 15  2  0
 15 10  1  0
  1 16  1  0
  1 17  1  0
  3 18  1  0
  4 19  1  0
  5 20  1  0
  6 21  1  0
  7 22  1  0
  8 23  1  0
  9 24  1  0
 10 25  1  0
 11 26  1  0
 27 28  2  0
 28 29  1  0
 29 30  1  0
 29 31  2  0
 31 32  1  0
 32 33  1  0
 33 34  1  0
 33 35  2  0
 35 36  1  0
 36 37  2  0
 37 27  1  0
 36 31  1  0
 27 38  1  0
 32 39  1  0
 37 40  1  0
 12 28  1  0
M  ISO  8  16   8  17   8  18  14  19  14  20  14  21  14  22  14  25  14
M  ISO  3  26  14  30  15  34  14
M  END
>  <DihAtoms>  (1) 
10,11,27,26

>  <DihDeg>  (1) 
8.661094599854572e-05

$$$$
