
     RDKit          3D

 36 39  0  0  0  0  0  0  0  0999 V2000
   37.4046   30.2683   50.0356 C   0  0  0  0  0  0  0  0  0  0  0  0
   38.2982   31.3495   50.1646 C   0  0  0  0  0  0  0  0  0  0  0  0
   38.5340   32.1334   49.0292 C   0  0  0  0  0  0  0  0  0  0  0  0
   37.8838   31.7962   47.8811 N   0  0  0  0  0  0  0  0  0  0  0  0
   37.0402   30.7606   47.7941 C   0  0  0  0  0  0  0  0  0  0  0  0
   36.8176   30.0179   48.8709 N   0  0  0  0  0  0  0  0  0  0  0  0
   36.3754   30.4778   46.5459 C   0  0  0  0  0  0  0  0  0  0  0  0
   35.0987   29.9411   46.5139 C   0  0  0  0  0  0  0  0  0  0  0  0
   34.4732   29.6837   45.3075 C   0  0  0  0  0  0  0  0  0  0  0  0
   35.0701   29.9395   44.0897 C   0  0  0  0  0  0  0  0  0  0  0  0
   36.3500   30.4763   44.1034 C   0  0  0  0  0  0  0  0  0  0  0  0
   36.9354   30.7177   45.3239 C   0  0  0  0  0  0  0  0  0  0  0  0
   37.1682   29.4469   51.2644 C   0  0  0  0  0  0  0  0  0  0  0  0
   35.8021   29.1889   51.3732 F   0  0  0  0  0  0  0  0  0  0  0  0
   37.8970   28.3049   51.1438 F   0  0  0  0  0  0  0  0  0  0  0  0
   37.5144   30.2082   52.3668 F   0  0  0  0  0  0  0  0  0  0  0  0
   38.7613   31.5277   51.1317 H   0  0  0  0  0  0  0  0  0  0  0  0
   39.2200   32.9690   49.1158 H   0  0  0  0  0  0  0  0  0  0  0  0
   34.6555   29.7486   47.4911 H   0  0  0  0  0  0  0  0  0  0  0  0
   33.4677   29.2605   45.4685 H   0  0  0  0  0  0  0  0  0  0  0  0
   34.4286   29.6764   43.2720 H   0  0  0  0  0  0  0  0  0  0  0  0
   36.7543   30.6515   43.1206 H   0  0  0  0  0  0  0  0  0  0  0  0
   39.4400   30.7271   44.7395 C   0  0  0  0  0  0  0  0  0  0  0  0
   38.2626   31.3014   45.1179 C   0  0  0  0  0  0  0  0  0  0  0  0
   38.2340   32.6766   45.3879 C   0  0  0  0  0  0  0  0  0  0  0  0
   37.3565   33.2619   45.6980 H   0  0  0  0  0  0  0  0  0  0  0  0
   39.3752   33.4346   45.2738 C   0  0  0  0  0  0  0  0  0  0  0  0
   39.6786   34.7330   45.4554 N   0  0  0  0  0  0  0  0  0  0  0  0
   40.9816   35.0139   45.2150 C   0  0  0  0  0  0  0  0  0  0  0  0
   41.4245   35.9973   45.3059 H   0  0  0  0  0  0  0  0  0  0  0  0
   41.5113   33.8036   44.8619 N   0  0  0  0  0  0  0  0  0  0  0  0
   40.5500   32.8619   44.8973 C   0  0  0  0  0  0  0  0  0  0  0  0
   40.5667   31.5144   44.6341 C   0  0  0  0  0  0  0  0  0  0  0  0
   39.3604   29.6560   44.5592 H   0  0  0  0  0  0  0  0  0  0  0  0
   38.9736   35.4714   45.7588 H   0  0  0  0  0  0  0  0  0  0  0  0
   41.4718   31.0066   44.3340 H   0  0  0  0  0  0  0  0  0  0  0  0
  1  2  2  0
  1 13  1  0
  3  2  1  0
  4  3  2  0
  5  4  1  0
  5  6  2  0
  6  1  1  0
  7  5  1  0
  8  7  2  0
  9  8  1  0
 10 11  1  0
 10  9  2  0
 11 12  2  0
 12  7  1  0
 13 14  1  0
 13 16  1  0
 15 13  1  0
  2 17  1  0
  3 18  1  0
  8 19  1  0
  9 20  1  0
 10 21  1  0
 11 22  1  0
 23 24  2  0
 24 25  1  0
 25 26  1  0
 25 27  2  0
 27 28  1  0
 28 29  1  0
 29 30  1  0
 29 31  2  0
 31 32  1  0
 32 33  2  0
 33 23  1  0
 32 27  1  0
 23 34  1  0
 28 35  1  0
 33 36  1  0
 12 24  1  0
M  ISO  8  17  14  18  14  19  14  20  14  21  14  22  14  26  15  30  14
M  END
>  <DihAtoms>  (1) 
10,11,23,22

>  <DihDeg>  (1) 
103.68998327518948

$$$$
