
 OpenBabel03262521383D

 31 34  0  0  0  0  0  0  0  0999 V2000
   37.3160   28.5100   35.7020 F   0  0  0  0  0  0  0  0  0  0  0  0
   36.7970   28.3880   34.4290 C   0  0  0  0  0  0  0  0  0  0  0  0
   35.7600   29.1880   33.9910 C   0  0  0  0  0  0  0  0  0  0  0  0
   35.2780   29.0190   32.6970 C   0  0  0  0  0  0  0  0  0  0  0  0
   35.8300   28.0580   31.8470 C   0  0  0  0  0  0  0  0  0  0  0  0
   36.8660   27.2910   32.3500 C   0  0  0  0  0  0  0  0  0  0  0  0
   37.3630   27.4290   33.6120 C   0  0  0  0  0  0  0  0  0  0  0  0
   34.4790   29.6340   32.3550 H   0  0  0  0  0  0  0  0  0  0  0  0
   35.4420   27.9390   30.8400 H   0  0  0  0  0  0  0  0  0  0  0  0
   37.3220   26.5320   31.7200 H   0  0  0  0  0  0  0  0  0  0  0  0
   38.1150   25.2710   34.4150 C   0  0  0  0  0  3  0  0  0  0  0  0
   38.4590   26.5800   34.0670 C   0  0  0  0  0  0  0  0  0  0  0  0
   39.7440   27.0770   34.1370 C   0  0  0  0  0  0  0  0  0  0  0  0
   39.9690   28.0930   33.8600 H   0  0  0  0  0  0  0  0  0  0  0  0
   40.7390   26.2190   34.5770 C   0  0  0  0  0  0  0  0  0  0  0  0
   42.0650   26.3840   34.7560 N   0  0  0  0  0  0  0  0  0  0  0  0
   42.6050   25.2260   35.2110 C   0  0  0  0  0  0  0  0  0  0  0  0
   43.6480   24.9870   35.4660 H   0  0  0  0  0  0  0  0  0  0  0  0
   41.5870   24.3240   35.3130 N   0  0  0  0  0  0  0  0  0  0  0  0
   40.4340   24.9020   34.9330 C   0  0  0  0  0  0  0  0  0  0  0  0
   39.1250   24.4100   34.8580 C   0  0  0  0  0  3  0  0  0  0  0  0
   42.6350   27.2370   34.5910 H   0  0  0  0  0  0  0  0  0  0  0  0
   33.8540   30.1110   35.0920 C   0  0  0  0  0  0  0  0  0  0  0  0
   35.2490   30.1490   34.9200 C   0  0  0  0  0  0  0  0  0  0  0  0
   35.9630   31.0900   35.6500 C   0  0  0  0  0  0  0  0  0  0  0  0
   35.2790   31.9250   36.4930 N   0  0  0  0  0  0  0  0  0  0  0  0
   33.9470   31.8600   36.6310 C   0  0  0  0  0  0  0  0  0  0  0  0
   33.2370   30.9600   35.9370 N   0  0  0  0  0  0  0  0  0  0  0  0
   33.1990   29.4280   34.5830 H   0  0  0  0  0  0  0  0  0  0  0  0
   37.0080   31.0740   35.4820 H   0  0  0  0  0  0  0  0  0  0  0  0
   33.4580   32.5440   37.3120 H   0  0  0  0  0  0  0  0  0  0  0  0
  2  1  1  0  0  0  0
  3  2  1  0  0  0  0
  3 24  1  0  0  0  0
  4  3  2  0  0  0  0
  5  6  2  0  0  0  0
  5  4  1  0  0  0  0
  6  7  1  0  0  0  0
  7 12  1  0  0  0  0
  7  2  2  0  0  0  0
  8  4  1  0  0  0  0
  9  5  1  0  0  0  0
 10  6  1  0  0  0  0
 11 21  1  0  0  0  0
 12 13  1  0  0  0  0
 12 11  2  0  0  0  0
 13 15  2  0  0  0  0
 14 13  1  0  0  0  0
 15 16  1  0  0  0  0
 15 20  1  0  0  0  0
 16 17  1  0  0  0  0
 17 19  2  0  0  0  0
 17 18  1  0  0  0  0
 20 19  1  0  0  0  0
 21 20  2  0  0  0  0
 22 16  1  0  0  0  0
 23 28  1  0  0  0  0
 24 23  2  0  0  0  0
 24 25  1  0  0  0  0
 25 26  2  0  0  0  0
 26 27  1  0  0  0  0
 27 31  1  0  0  0  0
 28 27  2  0  0  0  0
 29 23  1  0  0  0  0
 30 25  1  0  0  0  0
M  END
>  <minimizedAffinity>
-5.8010211

$$$$

 OpenBabel03262521383D

 31 34  0  0  0  0  0  0  0  0999 V2000
   35.4880   28.6260   34.5510 F   0  0  0  0  0  0  0  0  0  0  0  0
   35.7670   29.5140   33.5320 C   0  0  0  0  0  0  0  0  0  0  0  0
   35.5090   30.8640   33.6590 C   0  0  0  0  0  0  0  0  0  0  0  0
   35.8120   31.7120   32.5980 C   0  0  0  0  0  0  0  0  0  0  0  0
   36.3700   31.2120   31.4190 C   0  0  0  0  0  0  0  0  0  0  0  0
   36.6030   29.8500   31.3600 C   0  0  0  0  0  0  0  0  0  0  0  0
   36.3190   28.9900   32.3800 C   0  0  0  0  0  0  0  0  0  0  0  0
   35.6150   32.7540   32.6920 H   0  0  0  0  0  0  0  0  0  0  0  0
   36.6010   31.8860   30.6010 H   0  0  0  0  0  0  0  0  0  0  0  0
   37.0370   29.4210   30.4600 H   0  0  0  0  0  0  0  0  0  0  0  0
   37.8210   27.1250   32.7470 C   0  0  0  0  0  3  0  0  0  0  0  0
   36.5950   27.5640   32.2380 C   0  0  0  0  0  0  0  0  0  0  0  0
   35.6760   26.7320   31.6320 C   0  0  0  0  0  0  0  0  0  0  0  0
   34.7420   27.1090   31.2520 H   0  0  0  0  0  0  0  0  0  0  0  0
   36.0000   25.3880   31.5300 C   0  0  0  0  0  0  0  0  0  0  0  0
   35.3410   24.3350   31.0080 N   0  0  0  0  0  0  0  0  0  0  0  0
   36.0940   23.2160   31.1560 C   0  0  0  0  0  0  0  0  0  0  0  0
   35.8830   22.1790   30.8540 H   0  0  0  0  0  0  0  0  0  0  0  0
   37.2440   23.5890   31.7850 N   0  0  0  0  0  0  0  0  0  0  0  0
   37.2170   24.9120   32.0270 C   0  0  0  0  0  0  0  0  0  0  0  0
   38.1400   25.7670   32.6400 C   0  0  0  0  0  3  0  0  0  0  0  0
   34.4080   24.3210   30.5520 H   0  0  0  0  0  0  0  0  0  0  0  0
   33.5320   31.2660   34.9340 C   0  0  0  0  0  0  0  0  0  0  0  0
   34.9370   31.2990   34.8970 C   0  0  0  0  0  0  0  0  0  0  0  0
   35.6020   31.7380   36.0330 C   0  0  0  0  0  0  0  0  0  0  0  0
   34.8630   32.1130   37.1240 N   0  0  0  0  0  0  0  0  0  0  0  0
   33.5230   32.0680   37.1230 C   0  0  0  0  0  0  0  0  0  0  0  0
   32.8600   31.6480   36.0370 N   0  0  0  0  0  0  0  0  0  0  0  0
   32.9110   30.9450   34.1180 H   0  0  0  0  0  0  0  0  0  0  0  0
   36.6580   31.7420   35.9500 H   0  0  0  0  0  0  0  0  0  0  0  0
   32.9890   32.3760   38.0130 H   0  0  0  0  0  0  0  0  0  0  0  0
  2  3  1  0  0  0  0
  2  1  1  0  0  0  0
  3 24  1  0  0  0  0
  4  8  1  0  0  0  0
  4  3  2  0  0  0  0
  5  4  1  0  0  0  0
  6  5  2  0  0  0  0
  6  7  1  0  0  0  0
  7  2  2  0  0  0  0
  9  5  1  0  0  0  0
 10  6  1  0  0  0  0
 12  7  1  0  0  0  0
 12 11  2  0  0  0  0
 13 12  1  0  0  0  0
 14 13  1  0  0  0  0
 15 13  2  0  0  0  0
 15 20  1  0  0  0  0
 16 17  1  0  0  0  0
 16 15  1  0  0  0  0
 17 19  2  0  0  0  0
 18 17  1  0  0  0  0
 19 20  1  0  0  0  0
 20 21  2  0  0  0  0
 21 11  1  0  0  0  0
 22 16  1  0  0  0  0
 23 28  1  0  0  0  0
 24 23  2  0  0  0  0
 24 25  1  0  0  0  0
 25 26  2  0  0  0  0
 27 26  1  0  0  0  0
 27 31  1  0  0  0  0
 28 27  2  0  0  0  0
 29 23  1  0  0  0  0
 30 25  1  0  0  0  0
M  END
>  <minimizedAffinity>
-5.69773149

$$$$

 OpenBabel03262521383D

 31 34  0  0  0  0  0  0  0  0999 V2000
   37.0580   28.0810   35.4920 F   0  0  0  0  0  0  0  0  0  0  0  0
   36.8890   28.1520   34.1230 C   0  0  0  0  0  0  0  0  0  0  0  0
   37.6430   27.3800   33.2610 C   0  0  0  0  0  0  0  0  0  0  0  0
   37.4280   27.4930   31.8920 C   0  0  0  0  0  0  0  0  0  0  0  0
   36.4670   28.3720   31.3870 C   0  0  0  0  0  0  0  0  0  0  0  0
   35.7480   29.1150   32.3070 C   0  0  0  0  0  0  0  0  0  0  0  0
   35.9310   29.0300   33.6560 C   0  0  0  0  0  0  0  0  0  0  0  0
   38.0070   26.8990   31.2230 H   0  0  0  0  0  0  0  0  0  0  0  0
   36.3120   28.4490   30.3160 H   0  0  0  0  0  0  0  0  0  0  0  0
   34.9900   29.8100   31.9550 H   0  0  0  0  0  0  0  0  0  0  0  0
   33.7760   29.5180   34.6470 C   0  0  0  0  0  3  0  0  0  0  0  0
   35.1310   29.8480   34.5600 C   0  0  0  0  0  0  0  0  0  0  0  0
   35.7140   30.8780   35.2690 C   0  0  0  0  0  0  0  0  0  0  0  0
   36.7630   31.1020   35.1750 H   0  0  0  0  0  0  0  0  0  0  0  0
   34.8980   31.6170   36.1110 C   0  0  0  0  0  0  0  0  0  0  0  0
   35.1460   32.6630   36.9240 N   0  0  0  0  0  0  0  0  0  0  0  0
   33.9960   33.0320   37.5440 C   0  0  0  0  0  0  0  0  0  0  0  0
   33.8140   33.8380   38.2710 H   0  0  0  0  0  0  0  0  0  0  0  0
   33.0170   32.1930   37.1020 N   0  0  0  0  0  0  0  0  0  0  0  0
   33.5370   31.3170   36.2240 C   0  0  0  0  0  0  0  0  0  0  0  0
   32.9590   30.2690   35.4990 C   0  0  0  0  0  3  0  0  0  0  0  0
   36.0480   33.1500   37.0900 H   0  0  0  0  0  0  0  0  0  0  0  0
   38.1600   25.1850   34.0440 C   0  0  0  0  0  0  0  0  0  0  0  0
   38.6070   26.5040   33.8550 C   0  0  0  0  0  0  0  0  0  0  0  0
   39.9010   26.8090   34.2540 C   0  0  0  0  0  0  0  0  0  0  0  0
   40.6700   25.8190   34.8060 N   0  0  0  0  0  0  0  0  0  0  0  0
   40.2090   24.5710   34.9700 C   0  0  0  0  0  0  0  0  0  0  0  0
   38.9630   24.2530   34.5920 N   0  0  0  0  0  0  0  0  0  0  0  0
   37.1810   24.8330   33.7740 H   0  0  0  0  0  0  0  0  0  0  0  0
   40.1850   27.8160   34.0890 H   0  0  0  0  0  0  0  0  0  0  0  0
   40.8600   23.8270   35.4120 H   0  0  0  0  0  0  0  0  0  0  0  0
  2  1  1  0  0  0  0
  3 24  1  0  0  0  0
  3  2  2  0  0  0  0
  4  3  1  0  0  0  0
  5  4  2  0  0  0  0
  5  6  1  0  0  0  0
  6  7  2  0  0  0  0
  7  2  1  0  0  0  0
  7 12  1  0  0  0  0
  8  4  1  0  0  0  0
  9  5  1  0  0  0  0
 10  6  1  0  0  0  0
 11 21  1  0  0  0  0
 12 11  2  0  0  0  0
 12 13  1  0  0  0  0
 13 15  2  0  0  0  0
 14 13  1  0  0  0  0
 15 20  1  0  0  0  0
 15 16  1  0  0  0  0
 16 22  1  0  0  0  0
 16 17  1  0  0  0  0
 17 18  1  0  0  0  0
 19 17  2  0  0  0  0
 20 19  1  0  0  0  0
 21 20  2  0  0  0  0
 23 28  1  0  0  0  0
 24 23  2  0  0  0  0
 24 25  1  0  0  0  0
 25 26  2  0  0  0  0
 26 27  1  0  0  0  0
 27 31  1  0  0  0  0
 28 27  2  0  0  0  0
 29 23  1  0  0  0  0
 30 25  1  0  0  0  0
M  END
>  <minimizedAffinity>
-5.67348194

$$$$

 OpenBabel03262521383D

 31 34  0  0  0  0  0  0  0  0999 V2000
   36.1760   27.3560   35.0000 F   0  0  0  0  0  0  0  0  0  0  0  0
   36.8480   27.5110   33.8040 C   0  0  0  0  0  0  0  0  0  0  0  0
   36.4610   28.4560   32.8750 C   0  0  0  0  0  0  0  0  0  0  0  0
   37.1780   28.5670   31.6880 C   0  0  0  0  0  0  0  0  0  0  0  0
   38.2730   27.7380   31.4320 C   0  0  0  0  0  0  0  0  0  0  0  0
   38.6060   26.8140   32.4060 C   0  0  0  0  0  0  0  0  0  0  0  0
   37.9270   26.6780   33.5810 C   0  0  0  0  0  0  0  0  0  0  0  0
   36.8830   29.2940   30.9680 H   0  0  0  0  0  0  0  0  0  0  0  0
   38.8210   27.8370   30.5000 H   0  0  0  0  0  0  0  0  0  0  0  0
   39.4520   26.1520   32.2460 H   0  0  0  0  0  0  0  0  0  0  0  0
   39.2680   24.7310   34.1100 C   0  0  0  0  0  3  0  0  0  0  0  0
   38.3420   25.6780   34.5580 C   0  0  0  0  0  0  0  0  0  0  0  0
   37.8290   25.6980   35.8400 C   0  0  0  0  0  0  0  0  0  0  0  0
   37.1170   26.4450   36.1470 H   0  0  0  0  0  0  0  0  0  0  0  0
   38.2660   24.7200   36.7180 C   0  0  0  0  0  0  0  0  0  0  0  0
   37.9690   24.4640   38.0080 N   0  0  0  0  0  0  0  0  0  0  0  0
   38.6700   23.3790   38.4230 C   0  0  0  0  0  0  0  0  0  0  0  0
   38.6850   22.8820   39.4050 H   0  0  0  0  0  0  0  0  0  0  0  0
   39.4170   22.9570   37.3640 N   0  0  0  0  0  0  0  0  0  0  0  0
   39.1910   23.7570   36.3060 C   0  0  0  0  0  0  0  0  0  0  0  0
   39.7040   23.7470   35.0040 C   0  0  0  0  0  3  0  0  0  0  0  0
   37.3180   24.9770   38.6340 H   0  0  0  0  0  0  0  0  0  0  0  0
   35.6180   30.3480   34.0590 C   0  0  0  0  0  0  0  0  0  0  0  0
   35.3300   29.2660   33.2100 C   0  0  0  0  0  0  0  0  0  0  0  0
   34.0140   29.1010   32.7990 C   0  0  0  0  0  0  0  0  0  0  0  0
   33.0720   29.9930   33.2360 N   0  0  0  0  0  0  0  0  0  0  0  0
   33.3840   31.0150   34.0460 C   0  0  0  0  0  0  0  0  0  0  0  0
   34.6470   31.1940   34.4560 N   0  0  0  0  0  0  0  0  0  0  0  0
   36.5960   30.5760   34.4400 H   0  0  0  0  0  0  0  0  0  0  0  0
   33.8540   28.2700   32.1620 H   0  0  0  0  0  0  0  0  0  0  0  0
   32.5990   31.6910   34.3620 H   0  0  0  0  0  0  0  0  0  0  0  0
  2  1  1  0  0  0  0
  3 24  1  0  0  0  0
  3  2  2  0  0  0  0
  4  3  1  0  0  0  0
  5  4  2  0  0  0  0
  5  6  1  0  0  0  0
  6  7  2  0  0  0  0
  7  2  1  0  0  0  0
  7 12  1  0  0  0  0
  8  4  1  0  0  0  0
  9  5  1  0  0  0  0
 10  6  1  0  0  0  0
 11 12  2  0  0  0  0
 11 21  1  0  0  0  0
 12 13  1  0  0  0  0
 13 14  1  0  0  0  0
 13 15  2  0  0  0  0
 15 16  1  0  0  0  0
 16 17  1  0  0  0  0
 16 22  1  0  0  0  0
 17 18  1  0  0  0  0
 19 17  2  0  0  0  0
 20 15  1  0  0  0  0
 20 19  1  0  0  0  0
 21 20  2  0  0  0  0
 23 29  1  0  0  0  0
 23 28  1  0  0  0  0
 24 23  2  0  0  0  0
 25 24  1  0  0  0  0
 25 26  2  0  0  0  0
 26 27  1  0  0  0  0
 27 31  1  0  0  0  0
 27 28  2  0  0  0  0
 30 25  1  0  0  0  0
M  END
>  <minimizedAffinity>
-5.63763094

$$$$

 OpenBabel03262521383D

 31 34  0  0  0  0  0  0  0  0999 V2000
   37.9750   26.5750   33.2660 F   0  0  0  0  0  0  0  0  0  0  0  0
   37.2220   25.6390   32.5840 C   0  0  0  0  0  0  0  0  0  0  0  0
   36.2500   26.0140   31.6790 C   0  0  0  0  0  0  0  0  0  0  0  0
   35.5240   25.0260   31.0220 C   0  0  0  0  0  0  0  0  0  0  0  0
   35.7680   23.6730   31.2680 C   0  0  0  0  0  0  0  0  0  0  0  0
   36.7570   23.3690   32.1870 C   0  0  0  0  0  0  0  0  0  0  0  0
   37.4880   24.3100   32.8500 C   0  0  0  0  0  0  0  0  0  0  0  0
   34.7720   25.3110   30.3230 H   0  0  0  0  0  0  0  0  0  0  0  0
   35.1920   22.9150   30.7480 H   0  0  0  0  0  0  0  0  0  0  0  0
   36.9780   22.3270   32.4070 H   0  0  0  0  0  0  0  0  0  0  0  0
   39.8360   24.0020   33.3600 C   0  0  0  0  0  3  0  0  0  0  0  0
   38.5140   23.9060   33.8050 C   0  0  0  0  0  0  0  0  0  0  0  0
   38.1610   23.4610   35.0620 C   0  0  0  0  0  0  0  0  0  0  0  0
   37.1300   23.4010   35.3670 H   0  0  0  0  0  0  0  0  0  0  0  0
   39.1850   23.0930   35.9210 C   0  0  0  0  0  0  0  0  0  0  0  0
   39.1820   22.6270   37.1860 N   0  0  0  0  0  0  0  0  0  0  0  0
   40.4600   22.4140   37.5880 C   0  0  0  0  0  0  0  0  0  0  0  0
   40.8440   22.0410   38.5500 H   0  0  0  0  0  0  0  0  0  0  0  0
   41.2700   22.7570   36.5460 N   0  0  0  0  0  0  0  0  0  0  0  0
   40.5190   23.1760   35.5120 C   0  0  0  0  0  0  0  0  0  0  0  0
   40.8630   23.6290   34.2330 C   0  0  0  0  0  3  0  0  0  0  0  0
   38.3670   22.4410   37.8020 H   0  0  0  0  0  0  0  0  0  0  0  0
   36.7400   27.9500   30.3730 C   0  0  0  0  0  0  0  0  0  0  0  0
   36.0580   27.4180   31.4820 C   0  0  0  0  0  0  0  0  0  0  0  0
   35.2950   28.2890   32.2470 C   0  0  0  0  0  0  0  0  0  0  0  0
   35.2420   29.6090   31.8860 N   0  0  0  0  0  0  0  0  0  0  0  0
   35.9060   30.0810   30.8210 C   0  0  0  0  0  0  0  0  0  0  0  0
   36.6500   29.2590   30.0680 N   0  0  0  0  0  0  0  0  0  0  0  0
   37.3590   27.3750   29.7090 H   0  0  0  0  0  0  0  0  0  0  0  0
   34.8040   27.8350   33.0690 H   0  0  0  0  0  0  0  0  0  0  0  0
   35.8290   31.1330   30.5820 H   0  0  0  0  0  0  0  0  0  0  0  0
  2  7  1  0  0  0  0
  2  1  1  0  0  0  0
  3  2  2  0  0  0  0
  4  5  2  0  0  0  0
  4  3  1  0  0  0  0
  5  6  1  0  0  0  0
  6 10  1  0  0  0  0
  6  7  2  0  0  0  0
  7 12  1  0  0  0  0
  8  4  1  0  0  0  0
  9  5  1  0  0  0  0
 11 12  2  0  0  0  0
 11 21  1  0  0  0  0
 12 13  1  0  0  0  0
 13 14  1  0  0  0  0
 13 15  2  0  0  0  0
 15 16  1  0  0  0  0
 16 17  1  0  0  0  0
 16 22  1  0  0  0  0
 17 18  1  0  0  0  0
 19 17  2  0  0  0  0
 20 15  1  0  0  0  0
 20 19  1  0  0  0  0
 21 20  2  0  0  0  0
 23 24  1  0  0  0  0
 24  3  1  0  0  0  0
 24 25  2  0  0  0  0
 25 30  1  0  0  0  0
 26 25  1  0  0  0  0
 27 26  2  0  0  0  0
 28 23  2  0  0  0  0
 28 27  1  0  0  0  0
 29 23  1  0  0  0  0
 31 27  1  0  0  0  0
M  END
>  <minimizedAffinity>
-5.63128471

$$$$

 OpenBabel03262521383D

 31 34  0  0  0  0  0  0  0  0999 V2000
   35.4540   28.3110   34.4980 F   0  0  0  0  0  0  0  0  0  0  0  0
   35.7620   29.1290   33.4280 C   0  0  0  0  0  0  0  0  0  0  0  0
   35.6010   30.4980   33.4960 C   0  0  0  0  0  0  0  0  0  0  0  0
   35.9280   31.2710   32.3870 C   0  0  0  0  0  0  0  0  0  0  0  0
   36.4130   30.6780   31.2180 C   0  0  0  0  0  0  0  0  0  0  0  0
   36.5500   29.3020   31.2200 C   0  0  0  0  0  0  0  0  0  0  0  0
   36.2390   28.5130   32.2880 C   0  0  0  0  0  0  0  0  0  0  0  0
   35.8060   32.3280   32.4340 H   0  0  0  0  0  0  0  0  0  0  0  0
   36.6640   31.2960   30.3620 H   0  0  0  0  0  0  0  0  0  0  0  0
   36.9250   28.8020   30.3300 H   0  0  0  0  0  0  0  0  0  0  0  0
   35.5970   26.4020   31.2890 C   0  0  0  0  0  3  0  0  0  0  0  0
   36.4120   27.0670   32.2090 C   0  0  0  0  0  0  0  0  0  0  0  0
   37.3370   26.4290   33.0110 C   0  0  0  0  0  0  0  0  0  0  0  0
   37.9470   26.9780   33.7090 H   0  0  0  0  0  0  0  0  0  0  0  0
   37.4510   25.0540   32.8870 C   0  0  0  0  0  0  0  0  0  0  0  0
   38.2370   24.1510   33.5060 N   0  0  0  0  0  0  0  0  0  0  0  0
   37.9650   22.9130   33.0230 C   0  0  0  0  0  0  0  0  0  0  0  0
   38.4050   21.9400   33.2890 H   0  0  0  0  0  0  0  0  0  0  0  0
   36.9880   23.0570   32.0830 N   0  0  0  0  0  0  0  0  0  0  0  0
   36.6530   24.3550   31.9770 C   0  0  0  0  0  0  0  0  0  0  0  0
   35.7190   25.0130   31.1690 C   0  0  0  0  0  3  0  0  0  0  0  0
   38.9520   24.3160   34.2410 H   0  0  0  0  0  0  0  0  0  0  0  0
   33.6970   31.0490   34.8260 C   0  0  0  0  0  0  0  0  0  0  0  0
   35.0990   31.0300   34.7260 C   0  0  0  0  0  0  0  0  0  0  0  0
   35.8290   31.5160   35.8030 C   0  0  0  0  0  0  0  0  0  0  0  0
   35.1520   31.9850   36.8980 N   0  0  0  0  0  0  0  0  0  0  0  0
   33.8130   31.9870   36.9570 C   0  0  0  0  0  0  0  0  0  0  0  0
   33.0880   31.5220   35.9300 N   0  0  0  0  0  0  0  0  0  0  0  0
   33.0310   30.6990   34.0590 H   0  0  0  0  0  0  0  0  0  0  0  0
   36.8790   31.4790   35.6740 H   0  0  0  0  0  0  0  0  0  0  0  0
   33.3300   32.3690   37.8470 H   0  0  0  0  0  0  0  0  0  0  0  0
  2  3  1  0  0  0  0
  2  1  1  0  0  0  0
  3 24  1  0  0  0  0
  4  8  1  0  0  0  0
  4  3  2  0  0  0  0
  5  6  2  0  0  0  0
  5  4  1  0  0  0  0
  6  7  1  0  0  0  0
  7  2  2  0  0  0  0
  9  5  1  0  0  0  0
 10  6  1  0  0  0  0
 11 12  1  0  0  0  0
 12  7  1  0  0  0  0
 12 13  2  0  0  0  0
 13 14  1  0  0  0  0
 15 13  1  0  0  0  0
 15 16  1  0  0  0  0
 16 22  1  0  0  0  0
 17 18  1  0  0  0  0
 17 16  1  0  0  0  0
 19 17  2  0  0  0  0
 20 19  1  0  0  0  0
 20 15  2  0  0  0  0
 21 11  2  0  0  0  0
 21 20  1  0  0  0  0
 23 28  1  0  0  0  0
 24 23  2  0  0  0  0
 24 25  1  0  0  0  0
 25 26  2  0  0  0  0
 26 27  1  0  0  0  0
 27 31  1  0  0  0  0
 28 27  2  0  0  0  0
 29 23  1  0  0  0  0
 30 25  1  0  0  0  0
M  END
>  <minimizedAffinity>
-5.61872005

$$$$

 OpenBabel03262521383D

 31 34  0  0  0  0  0  0  0  0999 V2000
   36.3430   27.7220   34.8790 F   0  0  0  0  0  0  0  0  0  0  0  0
   36.4940   28.2610   33.6170 C   0  0  0  0  0  0  0  0  0  0  0  0
   37.1970   27.6030   32.6280 C   0  0  0  0  0  0  0  0  0  0  0  0
   37.3150   28.1950   31.3750 C   0  0  0  0  0  0  0  0  0  0  0  0
   36.7340   29.4380   31.1130 C   0  0  0  0  0  0  0  0  0  0  0  0
   36.0440   30.0420   32.1490 C   0  0  0  0  0  0  0  0  0  0  0  0
   35.9080   29.4910   33.3890 C   0  0  0  0  0  0  0  0  0  0  0  0
   37.8570   27.6900   30.6100 H   0  0  0  0  0  0  0  0  0  0  0  0
   36.8360   29.8870   30.1300 H   0  0  0  0  0  0  0  0  0  0  0  0
   35.5760   31.0100   31.9850 H   0  0  0  0  0  0  0  0  0  0  0  0
   35.9240   30.9570   35.3170 C   0  0  0  0  0  3  0  0  0  0  0  0
   35.1630   30.1930   34.4280 C   0  0  0  0  0  0  0  0  0  0  0  0
   33.7890   30.0840   34.4960 C   0  0  0  0  0  0  0  0  0  0  0  0
   33.2370   29.4840   33.7920 H   0  0  0  0  0  0  0  0  0  0  0  0
   33.1420   30.7770   35.5070 C   0  0  0  0  0  0  0  0  0  0  0  0
   31.8410   30.8820   35.8450 N   0  0  0  0  0  0  0  0  0  0  0  0
   31.7220   31.6910   36.9280 C   0  0  0  0  0  0  0  0  0  0  0  0
   30.8220   32.0040   37.4780 H   0  0  0  0  0  0  0  0  0  0  0  0
   32.9800   32.0950   37.2650 N   0  0  0  0  0  0  0  0  0  0  0  0
   33.8700   31.5520   36.4150 C   0  0  0  0  0  0  0  0  0  0  0  0
   35.2630   31.6540   36.3340 C   0  0  0  0  0  3  0  0  0  0  0  0
   31.0200   30.4380   35.3890 H   0  0  0  0  0  0  0  0  0  0  0  0
   37.0090   25.2240   32.5560 C   0  0  0  0  0  0  0  0  0  0  0  0
   37.7630   26.3340   32.9750 C   0  0  0  0  0  0  0  0  0  0  0  0
   38.9440   26.0890   33.6620 C   0  0  0  0  0  0  0  0  0  0  0  0
   39.3120   24.7900   33.8950 N   0  0  0  0  0  0  0  0  0  0  0  0
   38.5670   23.7560   33.4790 C   0  0  0  0  0  0  0  0  0  0  0  0
   37.4230   23.9690   32.8140 N   0  0  0  0  0  0  0  0  0  0  0  0
   36.0820   25.2910   32.0170 H   0  0  0  0  0  0  0  0  0  0  0  0
   39.4710   26.9600   33.9540 H   0  0  0  0  0  0  0  0  0  0  0  0
   38.9050   22.7500   33.6900 H   0  0  0  0  0  0  0  0  0  0  0  0
  2  1  1  0  0  0  0
  3 24  1  0  0  0  0
  3  2  2  0  0  0  0
  4  3  1  0  0  0  0
  5  4  2  0  0  0  0
  5  6  1  0  0  0  0
  6  7  2  0  0  0  0
  7  2  1  0  0  0  0
  7 12  1  0  0  0  0
  8  4  1  0  0  0  0
  9  5  1  0  0  0  0
 10  6  1  0  0  0  0
 11 21  1  0  0  0  0
 12 13  1  0  0  0  0
 12 11  2  0  0  0  0
 13 15  2  0  0  0  0
 14 13  1  0  0  0  0
 15 16  1  0  0  0  0
 15 20  1  0  0  0  0
 16 17  1  0  0  0  0
 17 19  2  0  0  0  0
 17 18  1  0  0  0  0
 20 19  1  0  0  0  0
 21 20  2  0  0  0  0
 22 16  1  0  0  0  0
 23 28  2  0  0  0  0
 23 24  1  0  0  0  0
 24 25  2  0  0  0  0
 25 26  1  0  0  0  0
 25 30  1  0  0  0  0
 27 31  1  0  0  0  0
 27 26  2  0  0  0  0
 28 27  1  0  0  0  0
 29 23  1  0  0  0  0
M  END
>  <minimizedAffinity>
-5.61025286

$$$$

 OpenBabel03262521383D

 31 34  0  0  0  0  0  0  0  0999 V2000
   36.3040   29.9630   31.9730 F   0  0  0  0  0  0  0  0  0  0  0  0
   36.7190   28.8140   32.6160 C   0  0  0  0  0  0  0  0  0  0  0  0
   37.5320   27.8900   31.9910 C   0  0  0  0  0  0  0  0  0  0  0  0
   37.9180   26.7500   32.6890 C   0  0  0  0  0  0  0  0  0  0  0  0
   37.4940   26.5370   34.0030 C   0  0  0  0  0  0  0  0  0  0  0  0
   36.6800   27.5030   34.5670 C   0  0  0  0  0  0  0  0  0  0  0  0
   36.2830   28.6320   33.9140 C   0  0  0  0  0  0  0  0  0  0  0  0
   38.5460   26.0350   32.2110 H   0  0  0  0  0  0  0  0  0  0  0  0
   37.8030   25.6420   34.5330 H   0  0  0  0  0  0  0  0  0  0  0  0
   36.3290   27.3740   35.5880 H   0  0  0  0  0  0  0  0  0  0  0  0
   34.0560   29.5020   34.3060 C   0  0  0  0  0  3  0  0  0  0  0  0
   35.4230   29.6030   34.5810 C   0  0  0  0  0  0  0  0  0  0  0  0
   35.9650   30.5500   35.4260 C   0  0  0  0  0  0  0  0  0  0  0  0
   37.0250   30.5960   35.6120 H   0  0  0  0  0  0  0  0  0  0  0  0
   35.0930   31.4440   36.0280 C   0  0  0  0  0  0  0  0  0  0  0  0
   35.2920   32.4650   36.8850 N   0  0  0  0  0  0  0  0  0  0  0  0
   34.1000   33.0400   37.1830 C   0  0  0  0  0  0  0  0  0  0  0  0
   33.8730   33.8910   37.8420 H   0  0  0  0  0  0  0  0  0  0  0  0
   33.1440   32.3560   36.4930 N   0  0  0  0  0  0  0  0  0  0  0  0
   33.7200   31.3740   35.7770 C   0  0  0  0  0  0  0  0  0  0  0  0
   33.1830   30.4080   34.9180 C   0  0  0  0  0  3  0  0  0  0  0  0
   36.1890   32.8040   37.2860 H   0  0  0  0  0  0  0  0  0  0  0  0
   39.2880   27.9690   30.3760 C   0  0  0  0  0  0  0  0  0  0  0  0
   37.9240   28.1800   30.6460 C   0  0  0  0  0  0  0  0  0  0  0  0
   37.1250   28.6370   29.6070 C   0  0  0  0  0  0  0  0  0  0  0  0
   37.6990   28.8550   28.3820 N   0  0  0  0  0  0  0  0  0  0  0  0
   39.0050   28.6420   28.1620 C   0  0  0  0  0  0  0  0  0  0  0  0
   39.7960   28.2020   29.1510 N   0  0  0  0  0  0  0  0  0  0  0  0
   40.0010   27.6180   31.1000 H   0  0  0  0  0  0  0  0  0  0  0  0
   36.1080   28.7780   29.8650 H   0  0  0  0  0  0  0  0  0  0  0  0
   39.4060   28.8320   27.1750 H   0  0  0  0  0  0  0  0  0  0  0  0
  1  2  1  0  0  0  0
  2  7  1  0  0  0  0
  3  2  2  0  0  0  0
  3  4  1  0  0  0  0
  4  5  2  0  0  0  0
  5  9  1  0  0  0  0
  5  6  1  0  0  0  0
  6 10  1  0  0  0  0
  7  6  2  0  0  0  0
  7 12  1  0  0  0  0
  8  4  1  0  0  0  0
 11 12  2  0  0  0  0
 11 21  1  0  0  0  0
 12 13  1  0  0  0  0
 13 14  1  0  0  0  0
 13 15  2  0  0  0  0
 15 16  1  0  0  0  0
 16 17  1  0  0  0  0
 16 22  1  0  0  0  0
 17 18  1  0  0  0  0
 19 17  2  0  0  0  0
 20 15  1  0  0  0  0
 20 19  1  0  0  0  0
 21 20  2  0  0  0  0
 23 24  1  0  0  0  0
 23 29  1  0  0  0  0
 24  3  1  0  0  0  0
 25 30  1  0  0  0  0
 25 24  2  0  0  0  0
 26 25  1  0  0  0  0
 27 26  2  0  0  0  0
 27 28  1  0  0  0  0
 28 23  2  0  0  0  0
 31 27  1  0  0  0  0
M  END
>  <minimizedAffinity>
-5.55362177

$$$$

 OpenBabel03262521383D

 31 34  0  0  0  0  0  0  0  0999 V2000
   37.2070   28.3090   35.6650 F   0  0  0  0  0  0  0  0  0  0  0  0
   36.8450   28.2870   34.3330 C   0  0  0  0  0  0  0  0  0  0  0  0
   35.8730   29.1300   33.8340 C   0  0  0  0  0  0  0  0  0  0  0  0
   35.5500   29.0630   32.4830 C   0  0  0  0  0  0  0  0  0  0  0  0
   36.1950   28.1570   31.6370 C   0  0  0  0  0  0  0  0  0  0  0  0
   37.1580   27.3420   32.2030 C   0  0  0  0  0  0  0  0  0  0  0  0
   37.5000   27.3810   33.5230 C   0  0  0  0  0  0  0  0  0  0  0  0
   34.8010   29.7120   32.0930 H   0  0  0  0  0  0  0  0  0  0  0  0
   35.9300   28.1160   30.5850 H   0  0  0  0  0  0  0  0  0  0  0  0
   37.6830   26.6240   31.5780 H   0  0  0  0  0  0  0  0  0  0  0  0
   39.8340   26.9860   34.0370 C   0  0  0  0  0  3  0  0  0  0  0  0
   38.5280   26.4860   34.0420 C   0  0  0  0  0  0  0  0  0  0  0  0
   38.1930   25.2290   34.5030 C   0  0  0  0  0  0  0  0  0  0  0  0
   37.1740   24.8810   34.4890 H   0  0  0  0  0  0  0  0  0  0  0  0
   39.2170   24.4300   34.9830 C   0  0  0  0  0  0  0  0  0  0  0  0
   39.2290   23.1820   35.4930 N   0  0  0  0  0  0  0  0  0  0  0  0
   40.5000   22.8440   35.8230 C   0  0  0  0  0  0  0  0  0  0  0  0
   40.8920   21.9130   36.2610 H   0  0  0  0  0  0  0  0  0  0  0  0
   41.2910   23.9090   35.5110 N   0  0  0  0  0  0  0  0  0  0  0  0
   40.5350   24.8950   34.9950 C   0  0  0  0  0  0  0  0  0  0  0  0
   40.8620   26.1720   34.5250 C   0  0  0  0  0  3  0  0  0  0  0  0
   38.4270   22.5360   35.6330 H   0  0  0  0  0  0  0  0  0  0  0  0
   33.8710   29.8590   34.9110 C   0  0  0  0  0  0  0  0  0  0  0  0
   35.2580   30.0290   34.7630 C   0  0  0  0  0  0  0  0  0  0  0  0
   35.8690   31.0250   35.5140 C   0  0  0  0  0  0  0  0  0  0  0  0
   35.0960   31.7830   36.3530 N   0  0  0  0  0  0  0  0  0  0  0  0
   33.7740   31.5910   36.4680 C   0  0  0  0  0  0  0  0  0  0  0  0
   33.1630   30.6360   35.7530 N   0  0  0  0  0  0  0  0  0  0  0  0
   33.2920   29.1230   34.3840 H   0  0  0  0  0  0  0  0  0  0  0  0
   36.9140   31.1090   35.3640 H   0  0  0  0  0  0  0  0  0  0  0  0
   33.2120   32.2200   37.1460 H   0  0  0  0  0  0  0  0  0  0  0  0
  2  1  1  0  0  0  0
  3  2  1  0  0  0  0
  3 24  1  0  0  0  0
  4  3  2  0  0  0  0
  5  6  2  0  0  0  0
  5  4  1  0  0  0  0
  6  7  1  0  0  0  0
  7 12  1  0  0  0  0
  7  2  2  0  0  0  0
  8  4  1  0  0  0  0
  9  5  1  0  0  0  0
 10  6  1  0  0  0  0
 11 12  2  0  0  0  0
 11 21  1  0  0  0  0
 12 13  1  0  0  0  0
 13 15  2  0  0  0  0
 14 13  1  0  0  0  0
 15 20  1  0  0  0  0
 15 16  1  0  0  0  0
 16 22  1  0  0  0  0
 16 17  1  0  0  0  0
 17 18  1  0  0  0  0
 19 17  2  0  0  0  0
 20 19  1  0  0  0  0
 21 20  2  0  0  0  0
 23 28  1  0  0  0  0
 24 23  2  0  0  0  0
 24 25  1  0  0  0  0
 25 26  2  0  0  0  0
 26 27  1  0  0  0  0
 27 31  1  0  0  0  0
 28 27  2  0  0  0  0
 29 23  1  0  0  0  0
 30 25  1  0  0  0  0
M  END
>  <minimizedAffinity>
-5.53699112

$$$$
