REMARK  Name = 
REMARK  6 active torsions:
REMARK  status: ('A' for Active; 'I' for Inactive)
REMARK    1  A    between atoms: C_1  and  O_14
REMARK    2  A    between atoms: C_2  and  C_8
REMARK    3  A    between atoms: C_6  and  O_15
REMARK    4  A    between atoms: C_9  and  C_13
REMARK    5  A    between atoms: O_15  and  C_17
REMARK    6  A    between atoms: C_24  and  C_39
REMARK                            x       y       z     vdW  Elec       q    Type
REMARK                         _______ _______ _______ _____ _____    ______ ____
ROOT
ATOM      1  C   UNL     1      40.570  31.179  44.415  0.00  0.00    +0.000 A 
ATOM      2  C   UNL     1      39.860  31.983  45.294  0.00  0.00    +0.000 A 
ATOM      3  C   UNL     1      38.797  32.719  44.798  0.00  0.00    +0.000 A 
ATOM      4  C   UNL     1      38.434  32.666  43.449  0.00  0.00    +0.000 A 
ATOM      5  N   UNL     1      37.483  33.242  42.688  0.00  0.00    +0.000 N 
ATOM      6  C   UNL     1      37.588  32.827  41.414  0.00  0.00    +0.000 A 
ATOM      7  N   UNL     1      38.640  31.959  41.364  0.00  0.00    +0.000 NA
ATOM      8  C   UNL     1      39.165  31.854  42.611  0.00  0.00    +0.000 A 
ATOM      9  C   UNL     1      40.221  31.119  43.086  0.00  0.00    +0.000 A 
ATOM     10  H   UNL     1      41.377  30.647  44.894  0.00  0.00    +0.000 HD
ATOM     11  H   UNL     1      38.150  33.391  45.363  0.00  0.00    +0.000 HD
ATOM     12  H   UNL     1      36.766  33.915  43.037  0.00  0.00    +0.000 HD
ATOM     13  H   UNL     1      36.958  33.127  40.594  0.00  0.00    +0.000 HD
ENDROOT
BRANCH   9  15
ATOM     14  C   UNL     1      42.349  30.357  41.984  0.00  0.00    +0.000 A 
ATOM     15  C   UNL     1      41.013  30.251  42.218  0.00  0.00    +0.000 A 
ATOM     16  C   UNL     1      40.300  29.244  41.598  0.00  0.00    +0.000 A 
ATOM     17  H   UNL     1      39.221  29.095  41.737  0.00  0.00    +0.000 HD
ATOM     18  C   UNL     1      40.958  28.367  40.755  0.00  0.00    +0.000 A 
ATOM     19  N   UNL     1      40.526  27.316  40.033  0.00  0.00    +0.000 N 
ATOM     20  C   UNL     1      41.584  26.779  39.362  0.00  0.00    +0.000 A 
ATOM     21  H   UNL     1      41.630  25.931  38.687  0.00  0.00    +0.000 HD
ATOM     22  N   UNL     1      42.712  27.491  39.653  0.00  0.00    +0.000 NA
ATOM     23  C   UNL     1      42.329  28.462  40.504  0.00  0.00    +0.000 A 
ATOM     24  C   UNL     1      43.028  29.490  41.144  0.00  0.00    +0.000 A 
ATOM     25  H   UNL     1      39.544  26.941  39.972  0.00  0.00    +0.000 HD
ENDBRANCH   9  15
BRANCH   2  26
ATOM     26  O   UNL     1      40.031  32.190  46.631  0.00  0.00    +0.000 OA
BRANCH  26  32
ATOM     27  C   UNL     1      38.087  31.301  47.772  0.00  0.00    +0.000 A 
ATOM     28  C   UNL     1      37.088  31.307  48.730  0.00  0.00    +0.000 A 
ATOM     29  C   UNL     1      37.122  32.411  49.588  0.00  0.00    +0.000 A 
ATOM     30  C   UNL     1      38.092  33.413  49.469  0.00  0.00    +0.000 A 
ATOM     31  C   UNL     1      39.069  33.311  48.454  0.00  0.00    +0.000 A 
ATOM     32  C   UNL     1      39.047  32.217  47.593  0.00  0.00    +0.000 A 
ATOM     33  H   UNL     1      36.358  32.463  50.359  0.00  0.00    +0.000 HD
ATOM     34  H   UNL     1      38.090  34.250  50.147  0.00  0.00    +0.000 HD
ATOM     35  H   UNL     1      39.810  34.087  48.372  0.00  0.00    +0.000 HD
BRANCH  28  37
ATOM     36  C   UNL     1      34.968  30.311  48.050  0.00  0.00    +0.000 A 
ATOM     37  C   UNL     1      36.098  30.292  48.857  0.00  0.00    +0.000 A 
ATOM     38  C   UNL     1      36.210  29.242  49.785  0.00  0.00    +0.000 A 
ATOM     39  N   UNL     1      35.222  28.313  49.844  0.00  0.00    +0.000 NA
ATOM     40  C   UNL     1      34.134  28.377  49.030  0.00  0.00    +0.000 A 
ATOM     41  N   UNL     1      34.017  29.370  48.144  0.00  0.00    +0.000 NA
ATOM     42  H   UNL     1      34.786  31.072  47.306  0.00  0.00    +0.000 HD
ATOM     43  H   UNL     1      33.468  27.540  49.239  0.00  0.00    +0.000 HD
BRANCH  38  44
ATOM     44  C   UNL     1      37.398  29.168  50.678  0.00  0.00    +0.000 C 
ATOM     45  H   UNL     1      38.246  28.661  50.177  0.00  0.00    +0.000 HD
ATOM     46  H   UNL     1      37.138  28.596  51.594  0.00  0.00    +0.000 HD
ATOM     47  H   UNL     1      37.634  30.188  51.012  0.00  0.00    +0.000 HD
ENDBRANCH  38  44
ENDBRANCH  28  37
BRANCH  27  48
ATOM     48  O   UNL     1      38.135  30.237  46.868  0.00  0.00    +0.000 OA
ATOM     49  H   UNL     1      38.945  29.660  46.885  0.00  0.00    +0.000 HD
ENDBRANCH  27  48
ENDBRANCH  26  32
ENDBRANCH   2  26
TORSDOF 6
