
 OpenBabel03262521193D

 32 34  0  0  0  0  0  0  0  0999 V2000
   38.8590   31.9500   46.2620 C   0  0  0  0  0  0  0  0  0  0  0  0
   40.1350   31.4150   46.0820 C   0  0  0  0  0  0  0  0  0  0  0  0
   40.6700   31.3390   44.7850 C   0  0  0  0  0  0  0  0  0  0  0  0
   39.8720   31.8110   43.7560 N   0  0  0  0  0  0  0  0  0  0  0  0
   38.6410   32.3190   43.9880 C   0  0  0  0  0  0  0  0  0  0  0  0
   38.1580   32.3830   45.2070 N   0  0  0  0  0  0  0  0  0  0  0  0
   40.7970   31.0350   46.8490 H   0  0  0  0  0  0  0  0  0  0  0  0
   41.6520   30.9360   44.5780 H   0  0  0  0  0  0  0  0  0  0  0  0
   36.4780   32.8010   42.9140 C   0  0  0  0  0  0  0  0  0  0  0  0
   37.8570   32.7980   42.8540 C   0  0  0  0  0  0  0  0  0  0  0  0
   38.4640   33.2600   41.6900 C   0  0  0  0  0  0  0  0  0  0  0  0
   39.5400   33.2760   41.5960 H   0  0  0  0  0  0  0  0  0  0  0  0
   37.6760   33.7030   40.6430 C   0  0  0  0  0  0  0  0  0  0  0  0
   38.0360   34.1840   39.4440 N   0  0  0  0  0  0  0  0  0  0  0  0
   36.9000   34.4730   38.7920 C   0  0  0  0  0  0  0  0  0  0  0  0
   36.8550   34.8870   37.7790 H   0  0  0  0  0  0  0  0  0  0  0  0
   35.8660   34.1640   39.6030 N   0  0  0  0  0  0  0  0  0  0  0  0
   36.3190   33.6780   40.7720 C   0  0  0  0  0  0  0  0  0  0  0  0
   35.6460   33.2340   41.8920 C   0  0  0  0  0  0  0  0  0  0  0  0
   39.0130   34.3250   39.0510 H   0  0  0  0  0  0  0  0  0  0  0  0
   38.4960   31.9480   47.5910 O   0  0  0  0  0  0  0  0  0  0  0  0
   37.3140   31.2920   47.9070 C   0  0  0  0  0  0  0  0  0  0  0  0
   36.7740   30.8480   47.0420 H   0  0  0  0  0  0  0  0  0  0  0  0
   36.6110   32.0720   48.3050 H   0  0  0  0  0  0  0  0  0  0  0  0
   37.7950   30.4250   48.8130 C   0  0  0  0  0  0  0  0  0  0  0  0
   38.7250   29.8660   48.4880 H   0  0  0  0  0  0  0  0  0  0  0  0
   37.0930   29.5490   48.9420 H   0  0  0  0  0  0  0  0  0  0  0  0
   38.1050   30.9280   50.1850 C   0  0  0  0  0  0  0  0  0  0  0  0
   39.1940   31.0050   50.4060 H   0  0  0  0  0  0  0  0  0  0  0  0
   37.7190   31.9860   50.2480 H   0  0  0  0  0  0  0  0  0  0  0  0
   37.2590   29.9860   51.4680 S   0  0  0  0  0  0  0  0  0  0  0  0
   37.6960   28.6490   51.4020 H   0  0  0  0  0  0  0  0  0  0  0  0
  1 21  1  0  0  0  0
  2  1  1  0  0  0  0
  2  7  1  0  0  0  0
  3  2  2  0  0  0  0
  4  5  2  0  0  0  0
  4  3  1  0  0  0  0
  5  6  1  0  0  0  0
  6  1  2  0  0  0  0
  8  3  1  0  0  0  0
 10  9  1  0  0  0  0
 10  5  1  0  0  0  0
 11 10  2  0  0  0  0
 12 11  1  0  0  0  0
 13 18  2  0  0  0  0
 13 11  1  0  0  0  0
 14 13  1  0  0  0  0
 15 14  1  0  0  0  0
 15 17  2  0  0  0  0
 16 15  1  0  0  0  0
 17 18  1  0  0  0  0
 18 19  1  0  0  0  0
 19  9  2  0  0  0  0
 20 14  1  0  0  0  0
 21 22  1  0  0  0  0
 22 24  1  0  0  0  0
 22 25  1  0  0  0  0
 23 22  1  0  0  0  0
 25 27  1  0  0  0  0
 25 28  1  0  0  0  0
 26 25  1  0  0  0  0
 28 30  1  0  0  0  0
 28 29  1  0  0  0  0
 28 31  1  0  0  0  0
 32 31  1  0  0  0  0
M  END
>  <minimizedAffinity>
-4.5740366

>  <minimizedRMSD>
1.21830893

$$$$
