
 OpenBabel03272507203D

 33 36  0  0  1  0  0  0  0  0999 V2000
   36.9050   31.4250   49.0940 C   0  0  0  0  0  0  0  0  0  0  0  0
   37.3680   32.3710   49.9950 C   0  0  0  0  0  0  0  0  0  0  0  0
   38.3870   33.2060   49.4850 C   0  0  0  0  0  0  0  0  0  0  0  0
   38.8460   33.0560   48.2090 N   0  0  0  0  0  0  0  0  0  0  0  0
   38.3560   32.1110   47.3650 C   0  0  0  0  0  0  0  0  0  0  0  0
   37.3640   31.2820   47.8270 N   0  0  0  0  0  0  0  0  0  0  0  0
   36.9860   32.4610   50.9930 H   0  0  0  0  0  0  0  0  0  0  0  0
   38.8070   33.9710   50.1230 H   0  0  0  0  0  0  0  0  0  0  0  0
   40.0420   31.2820   45.8260 C   0  0  0  0  0  3  0  0  0  0  0  0
   38.8550   31.9630   46.0010 C   0  0  0  0  0  0  0  0  0  0  0  0
   38.1890   32.4740   44.9040 C   0  0  0  0  0  0  0  0  0  0  0  0
   37.2610   33.0040   45.0740 H   0  0  0  0  0  0  0  0  0  0  0  0
   38.6600   32.3350   43.6150 C   0  0  0  0  0  0  0  0  0  0  0  0
   38.2250   32.7210   42.4020 N   0  0  0  0  0  0  0  0  0  0  0  0
   39.1340   32.2800   41.5150 C   0  0  0  0  0  0  0  0  0  0  0  0
   38.9520   32.5000   40.4610 H   0  0  0  0  0  0  0  0  0  0  0  0
   40.1280   31.6250   42.1520 N   0  0  0  0  0  0  0  0  0  0  0  0
   39.8560   31.6430   43.4710 C   0  0  0  0  0  0  0  0  0  0  0  0
   40.5440   31.1220   44.5480 C   0  0  0  0  0  3  0  0  0  0  0  0
   37.3310   33.2600   42.2930 H   0  0  0  0  0  0  0  0  0  0  0  0
   35.8050   30.5370   49.5890 C   0  0  1  0  0  0  0  0  0  0  0  0
   34.9980   29.7250   48.6810 C   0  0  2  0  0  0  0  0  0  0  0  0
   36.1250   29.0440   49.3980 C   0  0  0  0  0  0  0  0  0  0  0  0
   35.4840   30.8230   50.6180 H   0  0  0  0  0  0  0  0  0  0  0  0
   33.9260   29.6270   49.0240 H   0  0  0  0  0  0  0  0  0  0  0  0
   37.0000   28.7690   48.7700 H   0  0  0  0  0  0  0  0  0  0  0  0
   35.9370   28.4360   50.2890 H   0  0  0  0  0  0  0  0  0  0  0  0
   35.1150   29.9840   47.3230 O   0  0  0  0  0  0  0  0  0  0  0  0
   34.1690   30.0060   46.3540 C   0  0  0  0  0  0  0  0  0  0  0  0
   34.2800   29.3460   45.2980 O   0  0  0  0  0  0  0  0  0  0  0  0
   33.1420   30.8560   46.7680 N   0  0  0  0  0  0  0  0  0  0  0  0
   32.4650   30.1360   47.1600 H   0  0  0  0  0  0  0  0  0  0  0  0
   33.4000   31.8620   46.5510 H   0  0  0  0  0  0  0  0  0  0  0  0
  1 21  1  0  0  0  0
  1  2  1  0  0  0  0
  2  7  1  0  0  0  0
  3  2  2  0  0  0  0
  3  8  1  0  0  0  0
  4  3  1  0  0  0  0
  5  6  1  0  0  0  0
  5  4  2  0  0  0  0
  6  1  2  0  0  0  0
  9 10  1  0  0  0  0
 10  5  1  0  0  0  0
 11 12  1  0  0  0  0
 11 10  2  0  0  0  0
 13 11  1  0  0  0  0
 14 13  1  0  0  0  0
 15 17  2  0  0  0  0
 15 14  1  0  0  0  0
 16 15  1  0  0  0  0
 17 18  1  0  0  0  0
 18 13  2  0  0  0  0
 18 19  1  0  0  0  0
 19  9  2  0  0  0  0
 20 14  1  0  0  0  0
 21 24  1  1  0  0  0
 22 25  1  1  0  0  0
 22 23  1  0  0  0  0
 22 21  1  0  0  0  0
 23 21  1  0  0  0  0
 23 27  1  0  0  0  0
 26 23  1  0  0  0  0
 28 22  1  0  0  0  0
 29 31  1  0  0  0  0
 29 28  1  0  0  0  0
 30 29  2  0  0  0  0
 31 32  1  0  0  0  0
 33 31  1  0  0  0  0
M  END
>  <minimizedAffinity>
-6.44898081

>  <minimizedRMSD>
3.14046121

$$$$
