
 OpenBabel03272503093D

 48 53  0  0  0  0  0  0  0  0999 V2000
   39.0660   32.2500   42.5980 C   0  0  0  0  0  0  0  0  0  0  0  0
   39.6230   31.5650   43.6480 C   0  0  0  0  0  0  0  0  0  0  0  0
   40.5480   30.5490   43.4610 C   0  0  0  0  0  0  0  0  0  0  0  0
   40.9280   30.2100   42.1710 C   0  0  0  0  0  0  0  0  0  0  0  0
   41.7800   29.2920   41.6950 N   0  0  0  0  0  0  0  0  0  0  0  0
   41.7700   29.3880   40.3670 C   0  0  0  0  0  0  0  0  0  0  0  0
   40.9130   30.3640   40.0040 N   0  0  0  0  0  0  0  0  0  0  0  0
   40.3600   30.9060   41.1280 C   0  0  0  0  0  0  0  0  0  0  0  0
   39.4420   31.9160   41.2900 C   0  0  0  0  0  0  0  0  0  0  0  0
   38.3460   33.0410   42.7450 H   0  0  0  0  0  0  0  0  0  0  0  0
   40.9600   30.0380   44.3100 H   0  0  0  0  0  0  0  0  0  0  0  0
   42.3440   28.6290   42.2860 H   0  0  0  0  0  0  0  0  0  0  0  0
   42.3780   28.7540   39.7270 H   0  0  0  0  0  0  0  0  0  0  0  0
   39.4330   32.7010   38.8970 C   0  0  0  0  0  0  0  0  0  0  0  0
   38.8530   32.6420   40.1690 C   0  0  0  0  0  0  0  0  0  0  0  0
   37.6450   33.3150   40.3680 C   0  0  0  0  0  0  0  0  0  0  0  0
   37.1210   33.3200   41.3370 H   0  0  0  0  0  0  0  0  0  0  0  0
   37.0320   34.0220   39.3530 C   0  0  0  0  0  0  0  0  0  0  0  0
   35.9090   34.7410   39.2540 N   0  0  0  0  0  0  0  0  0  0  0  0
   35.7910   35.2230   37.9970 C   0  0  0  0  0  0  0  0  0  0  0  0
   34.9970   35.8330   37.6130 H   0  0  0  0  0  0  0  0  0  0  0  0
   36.8530   34.8160   37.2510 N   0  0  0  0  0  0  0  0  0  0  0  0
   37.6010   34.0830   38.0950 C   0  0  0  0  0  0  0  0  0  0  0  0
   38.8110   33.4090   37.8910 C   0  0  0  0  0  0  0  0  0  0  0  0
   35.2590   34.8760   40.0610 H   0  0  0  0  0  0  0  0  0  0  0  0
   39.2020   31.9470   44.9750 C   0  0  0  0  0  0  0  0  0  0  0  0
   38.1170   32.5870   45.1180 O   0  0  0  0  0  0  0  0  0  0  0  0
   39.9140   31.6650   46.1750 N   0  0  0  0  0  0  0  0  0  0  0  0
   40.7960   31.1270   46.0670 H   0  0  0  0  0  0  0  0  0  0  0  0
   38.0800   30.1750   47.5020 F   0  0  0  0  0  0  0  0  0  0  0  0
   38.3580   31.4180   48.0120 C   0  0  0  0  0  0  0  0  0  0  0  0
   37.7040   31.8310   49.1450 C   0  0  0  0  0  0  0  0  0  0  0  0
   38.0350   33.0840   49.5940 C   0  0  0  0  0  0  0  0  0  0  0  0
   38.9480   33.8910   48.9810 C   0  0  0  0  0  0  0  0  0  0  0  0
   39.5810   33.4320   47.8410 C   0  0  0  0  0  0  0  0  0  0  0  0
   39.2820   32.1830   47.3530 C   0  0  0  0  0  0  0  0  0  0  0  0
   37.5290   33.4400   50.4960 H   0  0  0  0  0  0  0  0  0  0  0  0
   39.2040   34.8780   49.3390 H   0  0  0  0  0  0  0  0  0  0  0  0
   40.3190   33.9790   47.2720 H   0  0  0  0  0  0  0  0  0  0  0  0
   36.0900   29.3330   51.4710 C   0  0  0  0  0  0  0  0  0  0  0  0
   37.0270   30.1980   50.8840 C   0  0  0  0  0  0  0  0  0  0  0  0
   36.7400   30.9330   49.7610 C   0  0  0  0  0  0  0  0  0  0  0  0
   35.4930   30.7790   49.2450 N   0  0  0  0  0  0  0  0  0  0  0  0
   34.5880   29.9520   49.8020 C   0  0  0  0  0  0  0  0  0  0  0  0
   34.8810   29.2480   50.8870 N   0  0  0  0  0  0  0  0  0  0  0  0
   36.3640   28.7790   52.3490 H   0  0  0  0  0  0  0  0  0  0  0  0
   38.0010   30.2680   51.3510 H   0  0  0  0  0  0  0  0  0  0  0  0
   33.6570   29.9660   49.2500 H   0  0  0  0  0  0  0  0  0  0  0  0
  1 10  1  0  0  0  0
  1  2  1  0  0  0  0
  2 26  1  0  0  0  0
  3  2  2  0  0  0  0
  3 11  1  0  0  0  0
  4  3  1  0  0  0  0
  5  4  1  0  0  0  0
  5 12  1  0  0  0  0
  6  5  1  0  0  0  0
  7  6  2  0  0  0  0
  7  8  1  0  0  0  0
  8  9  1  0  0  0  0
  8  4  2  0  0  0  0
  9  1  2  0  0  0  0
 13  6  1  0  0  0  0
 14 15  1  0  0  0  0
 15 16  2  0  0  0  0
 15  9  1  0  0  0  0
 16 17  1  0  0  0  0
 18 16  1  0  0  0  0
 19 18  1  0  0  0  0
 19 25  1  0  0  0  0
 20 19  1  0  0  0  0
 21 20  1  0  0  0  0
 22 20  2  0  0  0  0
 22 23  1  0  0  0  0
 23 18  2  0  0  0  0
 24 23  1  0  0  0  0
 24 14  2  0  0  0  0
 26 27  2  0  0  0  0
 26 28  1  0  0  0  0
 28 36  1  0  0  0  0
 29 28  1  0  0  0  0
 30 31  1  0  0  0  0
 31 32  1  0  0  0  0
 32 33  2  0  0  0  0
 32 42  1  0  0  0  0
 33 37  1  0  0  0  0
 34 38  1  0  0  0  0
 34 33  1  0  0  0  0
 35 34  2  0  0  0  0
 36 35  1  0  0  0  0
 36 31  2  0  0  0  0
 39 35  1  0  0  0  0
 40 46  1  0  0  0  0
 41 47  1  0  0  0  0
 41 40  2  0  0  0  0
 42 41  1  0  0  0  0
 43 42  2  0  0  0  0
 43 44  1  0  0  0  0
 44 45  2  0  0  0  0
 45 40  1  0  0  0  0
 48 44  1  0  0  0  0
M  END
>  <minimizedAffinity>
-7.78456974

>  <minimizedRMSD>
0.485500246

$$$$
