
 OpenBabel03272507483D

 49 54  0  0  1  0  0  0  0  0999 V2000
   33.0140   28.6280   46.6370 N   0  0  0  0  0  0  0  0  0  0  0  0
   33.5300   28.0210   47.8150 C   0  0  0  0  0  0  0  0  0  0  0  0
   34.6750   28.6910   48.4690 C   0  0  0  0  0  0  0  0  0  0  0  0
   35.6640   29.3240   47.6000 C   0  0  1  0  0  0  0  0  0  0  0  0
   35.0480   29.8920   46.3100 C   0  0  0  0  0  0  0  0  0  0  0  0
   34.1260   28.8140   45.7290 C   0  0  0  0  0  0  0  0  0  0  0  0
   32.6840   27.8930   48.5280 H   0  0  0  0  0  0  0  0  0  0  0  0
   33.8100   26.9580   47.5530 H   0  0  0  0  0  0  0  0  0  0  0  0
   34.1560   29.5300   49.0430 H   0  0  0  0  0  0  0  0  0  0  0  0
   35.1180   28.0320   49.2320 H   0  0  0  0  0  0  0  0  0  0  0  0
   36.4070   28.5750   47.2280 H   0  0  0  0  0  0  0  0  0  0  0  0
   35.8330   30.0670   45.5530 H   0  0  0  0  0  0  0  0  0  0  0  0
   34.4000   30.7460   46.5230 H   0  0  0  0  0  0  0  0  0  0  0  0
   34.7170   27.8840   45.5610 H   0  0  0  0  0  0  0  0  0  0  0  0
   33.7420   29.1060   44.7450 H   0  0  0  0  0  0  0  0  0  0  0  0
   36.0590   30.8370   49.4930 C   0  0  0  0  0  0  0  0  0  0  0  0
   36.4010   30.4620   48.2060 C   0  0  0  0  0  0  0  0  0  0  0  0
   37.3550   31.1010   47.4600 C   0  0  0  0  0  0  0  0  0  0  0  0
   38.0110   32.1870   48.0340 C   0  0  0  0  0  0  0  0  0  0  0  0
   37.6680   32.5580   49.3100 C   0  0  0  0  0  0  0  0  0  0  0  0
   36.6990   31.9100   50.0730 C   0  0  0  0  0  0  0  0  0  0  0  0
   38.4320   33.6680   49.7140 O   0  0  0  0  0  0  0  0  0  0  0  0
   39.4960   33.7270   48.7680 C   0  0  0  0  0  0  0  0  0  0  0  0
   39.0100   33.0740   47.6220 O   0  0  0  0  0  0  0  0  0  0  0  0
   35.3410   30.4080   50.1790 H   0  0  0  0  0  0  0  0  0  0  0  0
   37.6010   30.7900   46.4700 H   0  0  0  0  0  0  0  0  0  0  0  0
   36.4810   32.2650   51.0830 H   0  0  0  0  0  0  0  0  0  0  0  0
   39.7200   34.7800   48.4740 H   0  0  0  0  0  0  0  0  0  0  0  0
   40.3890   33.2140   49.1890 H   0  0  0  0  0  0  0  0  0  0  0  0
   31.6600   28.9960   46.3560 C   0  0  0  0  0  0  0  0  0  0  0  0
   31.1960   29.5840   45.1850 C   0  0  0  0  0  0  0  0  0  0  0  0
   29.8470   29.8500   45.0980 C   0  0  0  0  0  0  0  0  0  0  0  0
   29.0410   29.5310   46.1450 N   0  0  0  0  0  0  0  0  0  0  0  0
   29.5110   28.9620   47.2700 C   0  0  0  0  0  0  0  0  0  0  0  0
   30.8240   28.7040   47.3540 N   0  0  0  0  0  0  0  0  0  0  0  0
   31.9400   29.7820   44.4400 H   0  0  0  0  0  0  0  0  0  0  0  0
   29.5100   30.3050   44.1810 H   0  0  0  0  0  0  0  0  0  0  0  0
   27.2710   28.9810   48.2690 C   0  0  0  0  0  3  0  0  0  0  0  0
   28.6040   28.6350   48.3740 C   0  0  0  0  0  0  0  0  0  0  0  0
   29.0880   27.9880   49.5020 C   0  0  0  0  0  0  0  0  0  0  0  0
   30.1380   27.7260   49.5640 H   0  0  0  0  0  0  0  0  0  0  0  0
   28.2220   27.6870   50.5330 C   0  0  0  0  0  0  0  0  0  0  0  0
   28.4950   27.0690   51.6980 N   0  0  0  0  0  0  0  0  0  0  0  0
   27.2860   27.0340   52.3320 C   0  0  0  0  0  0  0  0  0  0  0  0
   27.0280   26.6310   53.2930 H   0  0  0  0  0  0  0  0  0  0  0  0
   26.3430   27.6010   51.5850 N   0  0  0  0  0  0  0  0  0  0  0  0
   26.8860   28.0220   50.4520 C   0  0  0  0  0  0  0  0  0  0  0  0
   26.4020   28.6740   49.3150 C   0  0  0  0  0  3  0  0  0  0  0  0
   29.3730   26.6800   52.1060 H   0  0  0  0  0  0  0  0  0  0  0  0
  1  2  1  0  0  0  0
  2  3  1  0  0  0  0
  2  7  1  0  0  0  0
  3  9  1  0  0  0  0
  3 10  1  0  0  0  0
  4 11  1  6  0  0  0
  4 17  1  0  0  0  0
  4  3  1  0  0  0  0
  5 13  1  0  0  0  0
  5  4  1  0  0  0  0
  6  5  1  0  0  0  0
  6  1  1  0  0  0  0
  8  2  1  0  0  0  0
 12  5  1  0  0  0  0
 14  6  1  0  0  0  0
 15  6  1  0  0  0  0
 16 21  1  0  0  0  0
 16 25  1  0  0  0  0
 17 16  2  0  0  0  0
 18 19  2  0  0  0  0
 18 17  1  0  0  0  0
 19 20  1  0  0  0  0
 20 22  1  0  0  0  0
 20 21  2  0  0  0  0
 21 27  1  0  0  0  0
 23 29  1  0  0  0  0
 23 22  1  0  0  0  0
 24 19  1  0  0  0  0
 24 23  1  0  0  0  0
 26 18  1  0  0  0  0
 28 23  1  0  0  0  0
 30  1  1  0  0  0  0
 30 35  1  0  0  0  0
 31 30  2  0  0  0  0
 32 31  1  0  0  0  0
 32 33  2  0  0  0  0
 33 34  1  0  0  0  0
 34 35  2  0  0  0  0
 34 39  1  0  0  0  0
 36 31  1  0  0  0  0
 37 32  1  0  0  0  0
 38 39  2  0  0  0  0
 38 48  1  0  0  0  0
 39 40  1  0  0  0  0
 40 41  1  0  0  0  0
 40 42  2  0  0  0  0
 42 43  1  0  0  0  0
 43 49  1  0  0  0  0
 43 44  1  0  0  0  0
 44 45  1  0  0  0  0
 46 44  2  0  0  0  0
 47 42  1  0  0  0  0
 47 46  1  0  0  0  0
 48 47  2  0  0  0  0
M  END
>  <minimizedAffinity>
-7.86389494

>  <minimizedRMSD>
1.0655117

$$$$
