REMARK  Name = 
REMARK  4 active torsions:
REMARK  status: ('A' for Active; 'I' for Inactive)
REMARK    1  A    between atoms: C_1  and  C_4
REMARK    2  A    between atoms: C_2  and  O_10
REMARK    3  A    between atoms: C_8  and  C_23
REMARK    4  A    between atoms: O_10  and  C_11
REMARK                            x       y       z     vdW  Elec       q    Type
REMARK                         _______ _______ _______ _____ _____    ______ ____
ROOT
ATOM      1  C   UNL     1      37.324  31.218  49.404  0.00  0.00    +0.000 A 
ATOM      2  C   UNL     1      38.309  32.191  49.470  0.00  0.00    +0.000 A 
ATOM      3  C   UNL     1      38.794  32.610  48.211  0.00  0.00    +0.000 A 
ATOM      4  N   UNL     1      38.305  32.074  47.056  0.00  0.00    +0.000 NA
ATOM      5  C   UNL     1      37.337  31.122  47.047  0.00  0.00    +0.000 A 
ATOM      6  N   UNL     1      36.842  30.690  48.252  0.00  0.00    +0.000 NA
ATOM      7  H   UNL     1      38.672  32.591  50.397  0.00  0.00    +0.000 HD
ATOM      8  H   UNL     1      39.566  33.366  48.171  0.00  0.00    +0.000 HD
ENDROOT
BRANCH   5  10
ATOM      9  C   UNL     1      35.454  30.421  45.681  0.00  0.00    +0.000 A 
ATOM     10  C   UNL     1      36.822  30.558  45.802  0.00  0.00    +0.000 A 
ATOM     11  C   UNL     1      37.646  30.166  44.765  0.00  0.00    +0.000 A 
ATOM     12  H   UNL     1      38.714  30.286  44.890  0.00  0.00    +0.000 HD
ATOM     13  C   UNL     1      37.160  29.632  43.588  0.00  0.00    +0.000 A 
ATOM     14  N   UNL     1      37.722  29.181  42.452  0.00  0.00    +0.000 N 
ATOM     15  C   UNL     1      36.709  28.781  41.663  0.00  0.00    +0.000 A 
ATOM     16  H   UNL     1      36.968  28.378  40.683  0.00  0.00    +0.000 HD
ATOM     17  N   UNL     1      35.527  28.974  42.287  0.00  0.00    +0.000 NA
ATOM     18  C   UNL     1      35.779  29.507  43.497  0.00  0.00    +0.000 A 
ATOM     19  C   UNL     1      34.933  29.890  44.517  0.00  0.00    +0.000 A 
ATOM     20  H   UNL     1      38.763  29.190  42.321  0.00  0.00    +0.000 HD
ENDBRANCH   5  10
BRANCH   1  21
ATOM     21  C   UNL     1      36.766  30.766  50.718  0.00  0.00    +0.000 C 
ATOM     22  C   UNL     1      36.030  29.510  50.856  0.00  0.00    +0.000 C 
ATOM     23  C   UNL     1      37.475  29.510  51.256  0.00  0.00    +0.000 C 
ATOM     24  H   UNL     1      36.691  31.612  51.441  0.00  0.00    +0.000 HD
ATOM     25  H   UNL     1      35.199  29.577  51.618  0.00  0.00    +0.000 HD
ATOM     26  H   UNL     1      38.164  28.962  50.577  0.00  0.00    +0.000 HD
ATOM     27  H   UNL     1      37.765  29.586  52.309  0.00  0.00    +0.000 HD
BRANCH  22  28
ATOM     28  O   UNL     1      35.649  28.866  49.687  0.00  0.00    +0.000 OA
BRANCH  28  29
ATOM     29  C   UNL     1      34.437  28.399  49.304  0.00  0.00    +0.000 C 
ATOM     30  O   UNL     1      34.311  27.400  48.562  0.00  0.00    +0.000 OA
ATOM     31  N   UNL     1      33.457  29.213  49.873  0.00  0.00    +0.000 N 
ATOM     32  H   UNL     1      33.212  28.626  50.724  0.00  0.00    +0.000 HD
ATOM     33  H   UNL     1      33.321  30.081  49.277  0.00  0.00    +0.000 HD
ENDBRANCH  28  29
ENDBRANCH  22  28
ENDBRANCH   1  21
TORSDOF 4
