
 OpenBabel03272509053D

 36 39  0  0  0  0  0  0  0  0999 V2000
   37.3240   30.2050   51.5260 C   0  0  0  0  0  0  0  0  0  0  0  0
   38.0570   30.8910   50.5360 C   0  0  0  0  0  0  0  0  0  0  0  0
   37.7150   30.7030   49.1830 C   0  0  0  0  0  0  0  0  0  0  0  0
   36.6740   29.8490   48.9470 N   0  0  0  0  0  0  0  0  0  0  0  0
   36.0040   29.2180   49.9030 C   0  0  0  0  0  0  0  0  0  0  0  0
   36.3190   29.3870   51.1980 N   0  0  0  0  0  0  0  0  0  0  0  0
   37.6120   30.3720   52.5410 H   0  0  0  0  0  0  0  0  0  0  0  0
   38.8510   31.5370   50.7910 H   0  0  0  0  0  0  0  0  0  0  0  0
   38.9190   32.6390   48.1680 C   0  0  0  0  0  3  0  0  0  0  0  0
   38.4120   31.3670   48.0910 C   0  0  0  0  0  0  0  0  0  0  0  0
   38.5690   30.6700   46.9130 C   0  0  0  0  0  0  0  0  0  0  0  0
   38.2110   29.6700   46.7460 H   0  0  0  0  0  0  0  0  0  0  0  0
   39.2350   31.2980   45.8600 C   0  0  0  0  0  0  0  0  0  0  0  0
   39.5480   30.9050   44.6090 N   0  0  0  0  0  0  0  0  0  0  0  0
   40.2130   31.8970   43.9630 C   0  0  0  0  0  0  0  0  0  0  0  0
   40.6170   31.9470   42.9630 H   0  0  0  0  0  0  0  0  0  0  0  0
   40.3270   32.9300   44.8020 N   0  0  0  0  0  0  0  0  0  0  0  0
   39.7410   32.5920   45.9620 C   0  0  0  0  0  0  0  0  0  0  0  0
   39.5730   33.2840   47.1670 C   0  0  0  0  0  3  0  0  0  0  0  0
   39.3250   29.9830   44.1760 H   0  0  0  0  0  0  0  0  0  0  0  0
   34.9460   28.3530   49.4550 C   0  0  0  0  0  3  0  0  0  0  0  0
   34.2580   28.6570   48.4110 C   0  0  0  0  0  3  0  0  0  0  0  0
   33.1560   27.9310   47.7720 C   0  0  0  0  0  0  0  0  0  0  0  0
   32.5040   27.5350   48.5800 H   0  0  0  0  0  0  0  0  0  0  0  0
   32.5190   28.5870   47.1440 H   0  0  0  0  0  0  0  0  0  0  0  0
   33.6130   26.7960   46.9090 C   0  0  0  0  0  0  0  0  0  0  0  0
   33.7970   25.4920   47.3350 C   0  0  0  0  0  0  0  0  0  0  0  0
   34.2210   24.5300   46.4280 C   0  0  0  0  0  0  0  0  0  0  0  0
   34.4670   24.8610   45.0840 C   0  0  0  0  0  0  0  0  0  0  0  0
   34.2830   26.1500   44.6700 C   0  0  0  0  0  0  0  0  0  0  0  0
   33.8620   27.1000   45.5740 C   0  0  0  0  0  0  0  0  0  0  0  0
   33.5960   25.2880   48.3740 H   0  0  0  0  0  0  0  0  0  0  0  0
   34.3440   23.5290   46.8370 H   0  0  0  0  0  0  0  0  0  0  0  0
   34.7980   24.0600   44.4250 H   0  0  0  0  0  0  0  0  0  0  0  0
   34.4870   26.3450   43.6270 H   0  0  0  0  0  0  0  0  0  0  0  0
   33.7260   28.1110   45.2110 H   0  0  0  0  0  0  0  0  0  0  0  0
  1  7  1  0  0  0  0
  2  8  1  0  0  0  0
  2  1  2  0  0  0  0
  3  2  1  0  0  0  0
  4  3  2  0  0  0  0
  4  5  1  0  0  0  0
  5  6  2  0  0  0  0
  6  1  1  0  0  0  0
 10  9  1  0  0  0  0
 10  3  1  0  0  0  0
 11 10  2  0  0  0  0
 12 11  1  0  0  0  0
 13 18  2  0  0  0  0
 13 11  1  0  0  0  0
 14 13  1  0  0  0  0
 15 14  1  0  0  0  0
 15 17  2  0  0  0  0
 16 15  1  0  0  0  0
 17 18  1  0  0  0  0
 18 19  1  0  0  0  0
 19  9  2  0  0  0  0
 20 14  1  0  0  0  0
 21  5  1  0  0  0  0
 22 21  2  0  0  0  0
 23 22  1  0  0  0  0
 23 24  1  0  0  0  0
 25 23  1  0  0  0  0
 26 27  1  0  0  0  0
 26 23  1  0  0  0  0
 27 32  1  0  0  0  0
 28 33  1  0  0  0  0
 28 27  2  0  0  0  0
 29 28  1  0  0  0  0
 30 29  2  0  0  0  0
 30 31  1  0  0  0  0
 31 26  2  0  0  0  0
 34 29  1  0  0  0  0
 35 30  1  0  0  0  0
 36 31  1  0  0  0  0
M  END
>  <minimizedAffinity>
-6.93611574

>  <minimizedRMSD>
0.774947703

$$$$
