REMARK  Name = 
REMARK  4 active torsions:
REMARK  status: ('A' for Active; 'I' for Inactive)
REMARK    1  A    between atoms: C_1  and  C_6
REMARK    2  A    between atoms: N_4  and  C_16
REMARK    3  A    between atoms: C_8  and  C_12
REMARK    4  A    between atoms: C_19  and  C_28
REMARK                            x       y       z     vdW  Elec       q    Type
REMARK                         _______ _______ _______ _____ _____    ______ ____
ROOT
ATOM      1  C   UNL     1      38.913  30.887  45.766  0.00  0.00    +0.000 A 
ATOM      2  C   UNL     1      40.112  31.506  46.026  0.00  0.00    +0.000 A 
ATOM      3  C   UNL     1      40.950  31.451  44.913  0.00  0.00    +0.000 A 
ATOM      4  N   UNL     1      40.205  30.788  44.014  0.00  0.00    +0.000 N 
ATOM      5  N   UNL     1      39.021  30.456  44.501  0.00  0.00    +0.000 NA
ATOM      6  H   UNL     1      40.397  31.984  46.965  0.00  0.00    +0.000 HD
ATOM      7  H   UNL     1      41.951  31.826  44.752  0.00  0.00    +0.000 HD
ENDROOT
BRANCH   1   8
ATOM      8  C   UNL     1      37.795  30.746  46.678  0.00  0.00    +0.000 A 
ATOM      9  C   UNL     1      38.015  30.971  48.060  0.00  0.00    +0.000 A 
ATOM     10  C   UNL     1      36.924  30.829  48.915  0.00  0.00    +0.000 A 
ATOM     11  N   UNL     1      35.720  30.486  48.380  0.00  0.00    +0.000 NA
ATOM     12  C   UNL     1      35.532  30.275  47.052  0.00  0.00    +0.000 A 
ATOM     13  N   UNL     1      36.581  30.409  46.213  0.00  0.00    +0.000 NA
ATOM     14  H   UNL     1      38.991  31.241  48.434  0.00  0.00    +0.000 HD
ATOM     15  H   UNL     1      34.544  30.006  46.704  0.00  0.00    +0.000 HD
BRANCH  10  16
ATOM     16  C   UNL     1      37.120  31.058  50.371  0.00  0.00    +0.000 C 
ATOM     17  F   UNL     1      36.607  32.310  50.624  0.00  0.00    +0.000 F 
ATOM     18  F   UNL     1      36.456  30.130  51.154  0.00  0.00    +0.000 F 
ATOM     19  F   UNL     1      38.474  31.082  50.705  0.00  0.00    +0.000 F 
ENDBRANCH  10  16
ENDBRANCH   1   8
BRANCH   4  20
ATOM     20  C   UNL     1      40.561  30.428  42.636  0.00  0.00    +0.000 A 
ATOM     21  C   UNL     1      40.175  31.208  41.534  0.00  0.00    +0.000 A 
ATOM     22  C   UNL     1      40.526  30.831  40.296  0.00  0.00    +0.000 A 
ATOM     23  C   UNL     1      41.288  29.638  40.124  0.00  0.00    +0.000 A 
ATOM     24  S   UNL     1      41.485  29.063  41.871  0.00  0.00    +0.000 S 
ATOM     25  H   UNL     1      39.591  32.124  41.665  0.00  0.00    +0.000 HD
ATOM     26  H   UNL     1      40.303  31.326  39.363  0.00  0.00    +0.000 HD
BRANCH  23  28
ATOM     27  C   UNL     1      40.955  28.560  37.994  0.00  0.00    +0.000 A 
ATOM     28  C   UNL     1      41.799  28.992  38.973  0.00  0.00    +0.000 A 
ATOM     29  C   UNL     1      43.166  28.827  38.898  0.00  0.00    +0.000 A 
ATOM     30  H   UNL     1      43.865  29.149  39.641  0.00  0.00    +0.000 HD
ATOM     31  C   UNL     1      43.697  28.192  37.771  0.00  0.00    +0.000 A 
ATOM     32  N   UNL     1      44.946  27.870  37.375  0.00  0.00    +0.000 N 
ATOM     33  C   UNL     1      44.904  27.253  36.180  0.00  0.00    +0.000 A 
ATOM     34  H   UNL     1      45.731  26.865  35.580  0.00  0.00    +0.000 HD
ATOM     35  N   UNL     1      43.599  27.180  35.809  0.00  0.00    +0.000 NA
ATOM     36  C   UNL     1      42.843  27.753  36.776  0.00  0.00    +0.000 A 
ATOM     37  C   UNL     1      41.488  27.929  36.876  0.00  0.00    +0.000 A 
ATOM     38  H   UNL     1      45.816  28.070  37.912  0.00  0.00    +0.000 HD
ENDBRANCH  23  28
ENDBRANCH   4  20
TORSDOF 4
