
 OpenBabel03262522493D

 28 31  0  0  0  0  0  0  0  0999 V2000
   38.3470   25.1350   35.0530 C   0  0  0  0  0  0  0  0  0  0  0  0
   37.9120   24.9430   33.8040 C   0  0  0  0  0  0  0  0  0  0  0  0
   37.2490   25.9320   33.1370 C   0  0  0  0  0  0  0  0  0  0  0  0
   37.0660   27.1040   33.8190 C   0  0  0  0  0  0  0  0  0  0  0  0
   37.8580   26.7580   35.4200 S   0  0  0  0  0  0  0  0  0  0  0  0
   38.0990   23.9660   33.3210 H   0  0  0  0  0  0  0  0  0  0  0  0
   36.8560   25.8830   32.1320 H   0  0  0  0  0  0  0  0  0  0  0  0
   35.9140   29.1370   34.4970 C   0  0  0  0  0  3  0  0  0  0  0  0
   36.4330   28.3610   33.4840 C   0  0  0  0  0  0  0  0  0  0  0  0
   36.4200   28.6540   32.1520 C   0  0  0  0  0  0  0  0  0  0  0  0
   36.8390   28.0170   31.3880 H   0  0  0  0  0  0  0  0  0  0  0  0
   35.8210   29.8570   31.7600 C   0  0  0  0  0  0  0  0  0  0  0  0
   35.6370   30.4450   30.5640 N   0  0  0  0  0  0  0  0  0  0  0  0
   34.9920   31.6090   30.8200 C   0  0  0  0  0  0  0  0  0  0  0  0
   34.6790   32.3450   30.0770 H   0  0  0  0  0  0  0  0  0  0  0  0
   34.7700   31.7590   32.1480 N   0  0  0  0  0  0  0  0  0  0  0  0
   35.2810   30.6780   32.7450 C   0  0  0  0  0  0  0  0  0  0  0  0
   35.3180   30.3370   34.0970 C   0  0  0  0  0  3  0  0  0  0  0  0
   35.9400   30.0600   29.6440 H   0  0  0  0  0  0  0  0  0  0  0  0
   40.9430   22.9200   36.3140 C   0  0  0  0  0  0  0  0  0  0  0  0
   40.4560   22.5540   37.5900 C   0  0  0  0  0  0  0  0  0  0  0  0
   39.2190   23.0850   38.0020 C   0  0  0  0  0  0  0  0  0  0  0  0
   38.5640   23.9170   37.1550 N   0  0  0  0  0  0  0  0  0  0  0  0
   39.0690   24.2360   35.9490 C   0  0  0  0  0  0  0  0  0  0  0  0
   40.2410   23.7550   35.5150 N   0  0  0  0  0  0  0  0  0  0  0  0
   41.8980   22.4980   36.0180 H   0  0  0  0  0  0  0  0  0  0  0  0
   40.9520   21.9040   38.2690 H   0  0  0  0  0  0  0  0  0  0  0  0
   38.7890   22.8460   38.9660 H   0  0  0  0  0  0  0  0  0  0  0  0
  1  5  1  0  0  0  0
  1 24  1  0  0  0  0
  2  1  2  0  0  0  0
  3  2  1  0  0  0  0
  3  4  2  0  0  0  0
  4  5  1  0  0  0  0
  6  2  1  0  0  0  0
  7  3  1  0  0  0  0
  9  4  1  0  0  0  0
  9  8  2  0  0  0  0
 10  9  1  0  0  0  0
 11 10  1  0  0  0  0
 12 10  2  0  0  0  0
 12 17  1  0  0  0  0
 13 14  1  0  0  0  0
 13 12  1  0  0  0  0
 14 16  2  0  0  0  0
 15 14  1  0  0  0  0
 16 17  1  0  0  0  0
 17 18  2  0  0  0  0
 18  8  1  0  0  0  0
 19 13  1  0  0  0  0
 20 21  1  0  0  0  0
 21 22  2  0  0  0  0
 21 27  1  0  0  0  0
 22 28  1  0  0  0  0
 23 22  1  0  0  0  0
 24 23  2  0  0  0  0
 25 24  1  0  0  0  0
 25 20  2  0  0  0  0
 26 20  1  0  0  0  0
M  END
>  <minimizedAffinity>
-5.24437046

$$$$

 OpenBabel03262522493D

 28 31  0  0  0  0  0  0  0  0999 V2000
   38.3600   25.5710   35.1300 C   0  0  0  0  0  0  0  0  0  0  0  0
   37.3780   26.4520   35.3440 C   0  0  0  0  0  0  0  0  0  0  0  0
   36.9960   27.3220   34.3650 C   0  0  0  0  0  0  0  0  0  0  0  0
   37.6720   27.2320   33.1780 C   0  0  0  0  0  0  0  0  0  0  0  0
   38.8540   25.8860   33.4970 S   0  0  0  0  0  0  0  0  0  0  0  0
   36.8800   26.4620   36.3310 H   0  0  0  0  0  0  0  0  0  0  0  0
   36.2200   28.0700   34.4310 H   0  0  0  0  0  0  0  0  0  0  0  0
   36.5240   28.8090   31.7250 C   0  0  0  0  0  3  0  0  0  0  0  0
   37.5800   27.9470   31.9250 C   0  0  0  0  0  0  0  0  0  0  0  0
   38.5870   27.6830   31.0430 C   0  0  0  0  0  0  0  0  0  0  0  0
   39.3990   26.9980   31.2380 H   0  0  0  0  0  0  0  0  0  0  0  0
   38.5570   28.3430   29.8090 C   0  0  0  0  0  0  0  0  0  0  0  0
   39.3660   28.3210   28.7350 N   0  0  0  0  0  0  0  0  0  0  0  0
   38.8170   29.1790   27.8400 C   0  0  0  0  0  0  0  0  0  0  0  0
   39.2110   29.4100   26.8490 H   0  0  0  0  0  0  0  0  0  0  0  0
   37.6840   29.7350   28.3340 N   0  0  0  0  0  0  0  0  0  0  0  0
   37.5100   29.2260   29.5570 C   0  0  0  0  0  0  0  0  0  0  0  0
   36.5020   29.4650   30.4910 C   0  0  0  0  0  3  0  0  0  0  0  0
   40.2330   27.7500   28.6380 H   0  0  0  0  0  0  0  0  0  0  0  0
   38.7590   23.3690   37.9990 C   0  0  0  0  0  0  0  0  0  0  0  0
   39.9530   22.6730   37.7010 C   0  0  0  0  0  0  0  0  0  0  0  0
   40.6130   22.9790   36.4960 C   0  0  0  0  0  0  0  0  0  0  0  0
   40.0690   23.9230   35.6880 N   0  0  0  0  0  0  0  0  0  0  0  0
   38.9300   24.5590   36.0160 C   0  0  0  0  0  0  0  0  0  0  0  0
   38.2670   24.3020   37.1510 N   0  0  0  0  0  0  0  0  0  0  0  0
   38.2690   23.1170   38.9330 H   0  0  0  0  0  0  0  0  0  0  0  0
   40.3960   21.9310   38.3200 H   0  0  0  0  0  0  0  0  0  0  0  0
   41.5310   22.4830   36.2070 H   0  0  0  0  0  0  0  0  0  0  0  0
  1  2  2  0  0  0  0
  1 24  1  0  0  0  0
  2  6  1  0  0  0  0
  3  7  1  0  0  0  0
  3  2  1  0  0  0  0
  4  5  1  0  0  0  0
  4  3  2  0  0  0  0
  5  1  1  0  0  0  0
  8  9  1  0  0  0  0
  9  4  1  0  0  0  0
 10 11  1  0  0  0  0
 10  9  2  0  0  0  0
 12 10  1  0  0  0  0
 13 12  1  0  0  0  0
 14 16  2  0  0  0  0
 14 13  1  0  0  0  0
 15 14  1  0  0  0  0
 16 17  1  0  0  0  0
 17 12  2  0  0  0  0
 17 18  1  0  0  0  0
 18  8  2  0  0  0  0
 19 13  1  0  0  0  0
 20 26  1  0  0  0  0
 21 20  1  0  0  0  0
 21 27  1  0  0  0  0
 22 21  2  0  0  0  0
 23 24  2  0  0  0  0
 23 22  1  0  0  0  0
 24 25  1  0  0  0  0
 25 20  2  0  0  0  0
 28 22  1  0  0  0  0
M  END
>  <minimizedAffinity>
-5.2161746

$$$$

 OpenBabel03262522493D

 28 31  0  0  0  0  0  0  0  0999 V2000
   37.6690   27.2470   33.0990 C   0  0  0  0  0  0  0  0  0  0  0  0
   37.0580   27.3410   34.2840 C   0  0  0  0  0  0  0  0  0  0  0  0
   37.3930   26.5050   35.3090 C   0  0  0  0  0  0  0  0  0  0  0  0
   38.3740   25.5870   35.0460 C   0  0  0  0  0  0  0  0  0  0  0  0
   38.7980   25.9480   33.3140 S   0  0  0  0  0  0  0  0  0  0  0  0
   36.2740   28.1090   34.4180 H   0  0  0  0  0  0  0  0  0  0  0  0
   36.9650   26.4940   36.3010 H   0  0  0  0  0  0  0  0  0  0  0  0
   38.4100   24.1580   37.0140 C   0  0  0  0  0  3  0  0  0  0  0  0
   39.0030   24.5500   35.8340 C   0  0  0  0  0  0  0  0  0  0  0  0
   40.1570   24.0530   35.3030 C   0  0  0  0  0  0  0  0  0  0  0  0
   40.5890   24.3890   34.3730 H   0  0  0  0  0  0  0  0  0  0  0  0
   40.8170   23.0460   36.0170 C   0  0  0  0  0  0  0  0  0  0  0  0
   41.9450   22.3500   35.7940 N   0  0  0  0  0  0  0  0  0  0  0  0
   42.0730   21.5040   36.8450 C   0  0  0  0  0  0  0  0  0  0  0  0
   42.8800   20.7860   36.9960 H   0  0  0  0  0  0  0  0  0  0  0  0
   41.0480   21.6580   37.7190 N   0  0  0  0  0  0  0  0  0  0  0  0
   40.2590   22.6130   37.2170 C   0  0  0  0  0  0  0  0  0  0  0  0
   39.0750   23.1510   37.7210 C   0  0  0  0  0  3  0  0  0  0  0  0
   42.5750   22.4590   34.9700 H   0  0  0  0  0  0  0  0  0  0  0  0
   36.3570   29.7420   30.7990 C   0  0  0  0  0  0  0  0  0  0  0  0
   37.0900   29.4990   29.6140 C   0  0  0  0  0  0  0  0  0  0  0  0
   38.0400   28.4600   29.6270 C   0  0  0  0  0  0  0  0  0  0  0  0
   38.2010   27.7510   30.7730 N   0  0  0  0  0  0  0  0  0  0  0  0
   37.4790   28.0210   31.8750 C   0  0  0  0  0  0  0  0  0  0  0  0
   36.5640   28.9990   31.9100 N   0  0  0  0  0  0  0  0  0  0  0  0
   35.6300   30.5470   30.7650 H   0  0  0  0  0  0  0  0  0  0  0  0
   36.9800   30.0400   28.7070 H   0  0  0  0  0  0  0  0  0  0  0  0
   38.6350   28.2200   28.7550 H   0  0  0  0  0  0  0  0  0  0  0  0
  1  5  1  0  0  0  0
  1  2  2  0  0  0  0
  2  6  1  0  0  0  0
  2  3  1  0  0  0  0
  3  7  1  0  0  0  0
  4  3  2  0  0  0  0
  4  9  1  0  0  0  0
  5  4  1  0  0  0  0
  8 18  1  0  0  0  0
  9  8  2  0  0  0  0
 10  9  1  0  0  0  0
 10 12  2  0  0  0  0
 11 10  1  0  0  0  0
 12 17  1  0  0  0  0
 13 12  1  0  0  0  0
 13 14  1  0  0  0  0
 14 15  1  0  0  0  0
 14 16  2  0  0  0  0
 17 16  1  0  0  0  0
 17 18  2  0  0  0  0
 19 13  1  0  0  0  0
 20 25  1  0  0  0  0
 21 22  1  0  0  0  0
 21 20  2  0  0  0  0
 22 23  2  0  0  0  0
 23 24  1  0  0  0  0
 24 25  2  0  0  0  0
 24  1  1  0  0  0  0
 26 20  1  0  0  0  0
 27 21  1  0  0  0  0
 28 22  1  0  0  0  0
M  END
>  <minimizedAffinity>
-5.20353079

$$$$

 OpenBabel03262522493D

 28 31  0  0  0  0  0  0  0  0999 V2000
   38.0230   25.2260   34.8800 C   0  0  0  0  0  0  0  0  0  0  0  0
   38.0010   24.8860   33.5880 C   0  0  0  0  0  0  0  0  0  0  0  0
   37.5390   25.7580   32.6450 C   0  0  0  0  0  0  0  0  0  0  0  0
   37.1100   26.9730   33.1050 C   0  0  0  0  0  0  0  0  0  0  0  0
   37.3820   26.8370   34.8980 S   0  0  0  0  0  0  0  0  0  0  0  0
   38.3660   23.8840   33.2970 H   0  0  0  0  0  0  0  0  0  0  0  0
   37.4770   25.5860   31.5810 H   0  0  0  0  0  0  0  0  0  0  0  0
   37.0080   28.4780   31.1960 C   0  0  0  0  0  3  0  0  0  0  0  0
   36.5630   28.1450   32.4560 C   0  0  0  0  0  0  0  0  0  0  0  0
   35.6290   28.8180   33.1890 C   0  0  0  0  0  0  0  0  0  0  0  0
   35.3070   28.5230   34.1760 H   0  0  0  0  0  0  0  0  0  0  0  0
   35.0600   29.9620   32.6180 C   0  0  0  0  0  0  0  0  0  0  0  0
   34.1370   30.8410   33.0470 N   0  0  0  0  0  0  0  0  0  0  0  0
   33.9930   31.7440   32.0470 C   0  0  0  0  0  0  0  0  0  0  0  0
   33.3220   32.6050   32.0520 H   0  0  0  0  0  0  0  0  0  0  0  0
   34.8070   31.4480   31.0050 N   0  0  0  0  0  0  0  0  0  0  0  0
   35.4760   30.3420   31.3450 C   0  0  0  0  0  0  0  0  0  0  0  0
   36.4340   29.6210   30.6330 C   0  0  0  0  0  3  0  0  0  0  0  0
   33.6470   30.8090   33.9670 H   0  0  0  0  0  0  0  0  0  0  0  0
   39.9630   22.9350   36.9370 C   0  0  0  0  0  0  0  0  0  0  0  0
   39.3370   23.0360   38.2010 C   0  0  0  0  0  0  0  0  0  0  0  0
   38.2380   23.9060   38.3260 C   0  0  0  0  0  0  0  0  0  0  0  0
   37.8400   24.5990   37.2300 N   0  0  0  0  0  0  0  0  0  0  0  0
   38.4680   24.4690   36.0480 C   0  0  0  0  0  0  0  0  0  0  0  0
   39.5170   23.6540   35.8800 N   0  0  0  0  0  0  0  0  0  0  0  0
   40.8070   22.2580   36.8640 H   0  0  0  0  0  0  0  0  0  0  0  0
   39.6320   22.5030   39.0710 H   0  0  0  0  0  0  0  0  0  0  0  0
   37.7140   24.0320   39.2650 H   0  0  0  0  0  0  0  0  0  0  0  0
  1  5  1  0  0  0  0
  1 24  1  0  0  0  0
  2  1  2  0  0  0  0
  3  4  2  0  0  0  0
  3  2  1  0  0  0  0
  4  5  1  0  0  0  0
  6  2  1  0  0  0  0
  7  3  1  0  0  0  0
  8  9  1  0  0  0  0
  9  4  1  0  0  0  0
  9 10  2  0  0  0  0
 10 11  1  0  0  0  0
 12 13  1  0  0  0  0
 12 10  1  0  0  0  0
 13 19  1  0  0  0  0
 14 15  1  0  0  0  0
 14 13  1  0  0  0  0
 16 17  1  0  0  0  0
 16 14  2  0  0  0  0
 17 12  2  0  0  0  0
 18  8  2  0  0  0  0
 18 17  1  0  0  0  0
 20 21  1  0  0  0  0
 21 22  2  0  0  0  0
 21 27  1  0  0  0  0
 22 28  1  0  0  0  0
 23 22  1  0  0  0  0
 24 23  2  0  0  0  0
 25 24  1  0  0  0  0
 25 20  2  0  0  0  0
 26 20  1  0  0  0  0
M  END
>  <minimizedAffinity>
-5.10588264

$$$$

 OpenBabel03262522493D

 28 31  0  0  0  0  0  0  0  0999 V2000
   37.7240   28.0330   31.5890 C   0  0  0  0  0  0  0  0  0  0  0  0
   36.8310   28.1110   32.5800 C   0  0  0  0  0  0  0  0  0  0  0  0
   36.9470   27.3200   33.6870 C   0  0  0  0  0  0  0  0  0  0  0  0
   38.0150   26.4640   33.7090 C   0  0  0  0  0  0  0  0  0  0  0  0
   38.8380   26.8160   32.1260 S   0  0  0  0  0  0  0  0  0  0  0  0
   35.9950   28.8280   32.4860 H   0  0  0  0  0  0  0  0  0  0  0  0
   36.2860   27.3020   34.5400 H   0  0  0  0  0  0  0  0  0  0  0  0
   39.5300   24.6610   34.3170 C   0  0  0  0  0  3  0  0  0  0  0  0
   38.4860   25.4880   34.6670 C   0  0  0  0  0  0  0  0  0  0  0  0
   37.8210   25.4930   35.8590 C   0  0  0  0  0  0  0  0  0  0  0  0
   37.0050   26.1600   36.0940 H   0  0  0  0  0  0  0  0  0  0  0  0
   38.2280   24.5710   36.8300 C   0  0  0  0  0  0  0  0  0  0  0  0
   37.8070   24.3070   38.0800 N   0  0  0  0  0  0  0  0  0  0  0  0
   38.5930   23.2990   38.5300 C   0  0  0  0  0  0  0  0  0  0  0  0
   38.5310   22.8280   39.5120 H   0  0  0  0  0  0  0  0  0  0  0  0
   39.4940   22.9290   37.5880 N   0  0  0  0  0  0  0  0  0  0  0  0
   39.2800   23.7110   36.5260 C   0  0  0  0  0  0  0  0  0  0  0  0
   39.9300   23.7430   35.2930 C   0  0  0  0  0  3  0  0  0  0  0  0
   37.0310   24.7960   38.5770 H   0  0  0  0  0  0  0  0  0  0  0  0
   38.5560   28.8250   28.1360 C   0  0  0  0  0  0  0  0  0  0  0  0
   37.9720   30.1000   27.9540 C   0  0  0  0  0  0  0  0  0  0  0  0
   37.2900   30.6760   29.0430 C   0  0  0  0  0  0  0  0  0  0  0  0
   37.2300   29.9790   30.2040 N   0  0  0  0  0  0  0  0  0  0  0  0
   37.8020   28.7680   30.3290 C   0  0  0  0  0  0  0  0  0  0  0  0
   38.4610   28.1800   29.3220 N   0  0  0  0  0  0  0  0  0  0  0  0
   39.0760   28.4020   27.2840 H   0  0  0  0  0  0  0  0  0  0  0  0
   38.0070   30.6630   27.0540 H   0  0  0  0  0  0  0  0  0  0  0  0
   36.8200   31.6490   28.9710 H   0  0  0  0  0  0  0  0  0  0  0  0
  1  5  1  0  0  0  0
  1  2  2  0  0  0  0
  2  3  1  0  0  0  0
  3  4  2  0  0  0  0
  3  7  1  0  0  0  0
  4  9  1  0  0  0  0
  5  4  1  0  0  0  0
  6  2  1  0  0  0  0
  8  9  2  0  0  0  0
  8 18  1  0  0  0  0
  9 10  1  0  0  0  0
 10 11  1  0  0  0  0
 10 12  2  0  0  0  0
 12 13  1  0  0  0  0
 13 14  1  0  0  0  0
 13 19  1  0  0  0  0
 14 15  1  0  0  0  0
 16 14  2  0  0  0  0
 17 12  1  0  0  0  0
 17 16  1  0  0  0  0
 18 17  2  0  0  0  0
 20 25  1  0  0  0  0
 21 20  2  0  0  0  0
 21 22  1  0  0  0  0
 22 23  2  0  0  0  0
 23 24  1  0  0  0  0
 24  1  1  0  0  0  0
 25 24  2  0  0  0  0
 26 20  1  0  0  0  0
 27 21  1  0  0  0  0
 28 22  1  0  0  0  0
M  END
>  <minimizedAffinity>
-5.0629096

$$$$

 OpenBabel03262522493D

 28 31  0  0  0  0  0  0  0  0999 V2000
   38.1690   25.6730   34.9820 C   0  0  0  0  0  0  0  0  0  0  0  0
   37.1860   26.5760   34.9040 C   0  0  0  0  0  0  0  0  0  0  0  0
   37.0350   27.3480   33.7880 C   0  0  0  0  0  0  0  0  0  0  0  0
   37.9380   27.1380   32.7810 C   0  0  0  0  0  0  0  0  0  0  0  0
   38.9950   25.8240   33.4640 S   0  0  0  0  0  0  0  0  0  0  0  0
   36.4970   26.6850   35.7610 H   0  0  0  0  0  0  0  0  0  0  0  0
   36.2810   28.1020   33.6210 H   0  0  0  0  0  0  0  0  0  0  0  0
   39.0460   27.1710   30.6160 C   0  0  0  0  0  3  0  0  0  0  0  0
   38.1230   27.7280   31.4740 C   0  0  0  0  0  0  0  0  0  0  0  0
   37.3330   28.8110   31.2210 C   0  0  0  0  0  0  0  0  0  0  0  0
   36.6210   29.2180   31.9230 H   0  0  0  0  0  0  0  0  0  0  0  0
   37.4640   29.4300   29.9720 C   0  0  0  0  0  0  0  0  0  0  0  0
   36.8600   30.4890   29.4040 N   0  0  0  0  0  0  0  0  0  0  0  0
   37.4060   30.6080   28.1700 C   0  0  0  0  0  0  0  0  0  0  0  0
   37.1520   31.3660   27.4270 H   0  0  0  0  0  0  0  0  0  0  0  0
   38.3370   29.6460   27.9560 N   0  0  0  0  0  0  0  0  0  0  0  0
   38.3830   28.9060   29.0680 C   0  0  0  0  0  0  0  0  0  0  0  0
   39.1690   27.7950   29.3700 C   0  0  0  0  0  3  0  0  0  0  0  0
   36.1250   31.0800   29.8470 H   0  0  0  0  0  0  0  0  0  0  0  0
   39.9300   23.0760   36.8240 C   0  0  0  0  0  0  0  0  0  0  0  0
   39.2130   23.0090   38.0410 C   0  0  0  0  0  0  0  0  0  0  0  0
   38.1150   23.8740   38.2100 C   0  0  0  0  0  0  0  0  0  0  0  0
   37.8060   24.7230   37.1980 N   0  0  0  0  0  0  0  0  0  0  0  0
   38.5190   24.7500   36.0580 C   0  0  0  0  0  0  0  0  0  0  0  0
   39.5700   23.9460   35.8520 N   0  0  0  0  0  0  0  0  0  0  0  0
   40.7710   22.4000   36.7160 H   0  0  0  0  0  0  0  0  0  0  0  0
   39.4380   22.3520   38.8450 H   0  0  0  0  0  0  0  0  0  0  0  0
   37.5240   23.8750   39.1170 H   0  0  0  0  0  0  0  0  0  0  0  0
  1 24  1  0  0  0  0
  2  1  2  0  0  0  0
  2  6  1  0  0  0  0
  3  2  1  0  0  0  0
  4  5  1  0  0  0  0
  4  3  2  0  0  0  0
  5  1  1  0  0  0  0
  7  3  1  0  0  0  0
  8  9  1  0  0  0  0
  9  4  1  0  0  0  0
 10  9  2  0  0  0  0
 10 11  1  0  0  0  0
 12 10  1  0  0  0  0
 13 19  1  0  0  0  0
 13 12  1  0  0  0  0
 14 13  1  0  0  0  0
 15 14  1  0  0  0  0
 16 14  2  0  0  0  0
 16 17  1  0  0  0  0
 17 18  1  0  0  0  0
 17 12  2  0  0  0  0
 18  8  2  0  0  0  0
 20 21  1  0  0  0  0
 21 22  2  0  0  0  0
 21 27  1  0  0  0  0
 22 28  1  0  0  0  0
 23 22  1  0  0  0  0
 24 23  2  0  0  0  0
 25 24  1  0  0  0  0
 25 20  2  0  0  0  0
 26 20  1  0  0  0  0
M  END
>  <minimizedAffinity>
-5.04813385

$$$$

 OpenBabel03262522493D

 28 31  0  0  0  0  0  0  0  0999 V2000
   39.5540   24.0180   35.6910 C   0  0  0  0  0  0  0  0  0  0  0  0
   38.5610   24.5050   36.4410 C   0  0  0  0  0  0  0  0  0  0  0  0
   37.7630   25.5100   35.9750 C   0  0  0  0  0  0  0  0  0  0  0  0
   38.0450   25.9720   34.7180 C   0  0  0  0  0  0  0  0  0  0  0  0
   39.4630   24.9440   34.2270 S   0  0  0  0  0  0  0  0  0  0  0  0
   38.3970   24.0780   37.4470 H   0  0  0  0  0  0  0  0  0  0  0  0
   36.9390   25.9750   36.4950 H   0  0  0  0  0  0  0  0  0  0  0  0
   36.5660   27.8840   34.4400 C   0  0  0  0  0  3  0  0  0  0  0  0
   37.4590   26.9960   33.8810 C   0  0  0  0  0  0  0  0  0  0  0  0
   37.8710   26.9720   32.5810 C   0  0  0  0  0  0  0  0  0  0  0  0
   38.5740   26.2570   32.1810 H   0  0  0  0  0  0  0  0  0  0  0  0
   37.3410   27.9370   31.7160 C   0  0  0  0  0  0  0  0  0  0  0  0
   37.5210   28.1980   30.4090 N   0  0  0  0  0  0  0  0  0  0  0  0
   36.7320   29.2650   30.1330 C   0  0  0  0  0  0  0  0  0  0  0  0
   36.6270   29.7500   29.1610 H   0  0  0  0  0  0  0  0  0  0  0  0
   36.0650   29.6750   31.2390 N   0  0  0  0  0  0  0  0  0  0  0  0
   36.4330   28.8590   32.2310 C   0  0  0  0  0  0  0  0  0  0  0  0
   36.0420   28.8450   33.5700 C   0  0  0  0  0  3  0  0  0  0  0  0
   38.1470   27.6710   29.7640 H   0  0  0  0  0  0  0  0  0  0  0  0
   41.4220   21.4950   37.5310 C   0  0  0  0  0  0  0  0  0  0  0  0
   42.3060   20.9810   36.5550 C   0  0  0  0  0  0  0  0  0  0  0  0
   42.2440   21.5210   35.2560 C   0  0  0  0  0  0  0  0  0  0  0  0
   41.3410   22.5040   35.0120 N   0  0  0  0  0  0  0  0  0  0  0  0
   40.5200   22.9600   35.9750 C   0  0  0  0  0  0  0  0  0  0  0  0
   40.5430   22.4770   37.2240 N   0  0  0  0  0  0  0  0  0  0  0  0
   41.4880   21.0640   38.5240 H   0  0  0  0  0  0  0  0  0  0  0  0
   43.0210   20.2130   36.7240 H   0  0  0  0  0  0  0  0  0  0  0  0
   42.8920   21.1730   34.4620 H   0  0  0  0  0  0  0  0  0  0  0  0
  1 24  1  0  0  0  0
  1  2  2  0  0  0  0
  2  6  1  0  0  0  0
  3  2  1  0  0  0  0
  3  7  1  0  0  0  0
  4  3  2  0  0  0  0
  5  4  1  0  0  0  0
  5  1  1  0  0  0  0
  9  8  1  0  0  0  0
  9  4  1  0  0  0  0
 10  9  2  0  0  0  0
 11 10  1  0  0  0  0
 12 17  2  0  0  0  0
 12 10  1  0  0  0  0
 13 12  1  0  0  0  0
 14 13  1  0  0  0  0
 14 16  2  0  0  0  0
 15 14  1  0  0  0  0
 16 17  1  0  0  0  0
 17 18  1  0  0  0  0
 18  8  2  0  0  0  0
 19 13  1  0  0  0  0
 20 26  1  0  0  0  0
 21 27  1  0  0  0  0
 21 20  2  0  0  0  0
 22 21  1  0  0  0  0
 23 22  2  0  0  0  0
 23 24  1  0  0  0  0
 24 25  2  0  0  0  0
 25 20  1  0  0  0  0
 28 22  1  0  0  0  0
M  END
>  <minimizedAffinity>
-5.02147007

$$$$

 OpenBabel03262522493D

 28 31  0  0  0  0  0  0  0  0999 V2000
   36.7080   27.6230   33.1810 C   0  0  0  0  0  0  0  0  0  0  0  0
   37.0030   26.5140   32.4970 C   0  0  0  0  0  0  0  0  0  0  0  0
   37.5910   25.4490   33.1160 C   0  0  0  0  0  0  0  0  0  0  0  0
   37.8500   25.5930   34.4520 C   0  0  0  0  0  0  0  0  0  0  0  0
   37.2390   27.2720   34.7950 S   0  0  0  0  0  0  0  0  0  0  0  0
   36.7620   26.4740   31.4190 H   0  0  0  0  0  0  0  0  0  0  0  0
   37.8710   24.5100   32.6610 H   0  0  0  0  0  0  0  0  0  0  0  0
   37.8280   24.6000   36.6730 C   0  0  0  0  0  3  0  0  0  0  0  0
   38.4460   24.7300   35.4480 C   0  0  0  0  0  0  0  0  0  0  0  0
   39.5970   24.1130   35.0520 C   0  0  0  0  0  0  0  0  0  0  0  0
   40.0490   24.2420   34.0810 H   0  0  0  0  0  0  0  0  0  0  0  0
   40.2240   23.2630   35.9710 C   0  0  0  0  0  0  0  0  0  0  0  0
   41.3410   22.5160   35.9160 N   0  0  0  0  0  0  0  0  0  0  0  0
   41.4350   21.9030   37.1210 C   0  0  0  0  0  0  0  0  0  0  0  0
   42.2250   21.2160   37.4310 H   0  0  0  0  0  0  0  0  0  0  0  0
   40.4020   22.2520   37.9250 N   0  0  0  0  0  0  0  0  0  0  0  0
   39.6410   23.0970   37.2230 C   0  0  0  0  0  0  0  0  0  0  0  0
   38.4620   23.7490   37.5840 C   0  0  0  0  0  3  0  0  0  0  0  0
   41.9840   22.4410   35.0990 H   0  0  0  0  0  0  0  0  0  0  0  0
   35.5480   30.2680   30.9690 C   0  0  0  0  0  0  0  0  0  0  0  0
   34.9360   31.1810   31.8590 C   0  0  0  0  0  0  0  0  0  0  0  0
   34.9330   30.8650   33.2300 C   0  0  0  0  0  0  0  0  0  0  0  0
   35.5160   29.7050   33.6230 N   0  0  0  0  0  0  0  0  0  0  0  0
   36.0870   28.8680   32.7370 C   0  0  0  0  0  0  0  0  0  0  0  0
   36.1140   29.1270   31.4230 N   0  0  0  0  0  0  0  0  0  0  0  0
   35.5390   30.5340   29.9170 H   0  0  0  0  0  0  0  0  0  0  0  0
   34.4750   32.0940   31.5730 H   0  0  0  0  0  0  0  0  0  0  0  0
   34.4810   31.5190   33.9650 H   0  0  0  0  0  0  0  0  0  0  0  0
  1  5  1  0  0  0  0
  2  3  1  0  0  0  0
  2  1  2  0  0  0  0
  3  4  2  0  0  0  0
  4  5  1  0  0  0  0
  4  9  1  0  0  0  0
  6  2  1  0  0  0  0
  7  3  1  0  0  0  0
  8 18  1  0  0  0  0
  9  8  2  0  0  0  0
 10  9  1  0  0  0  0
 10 12  2  0  0  0  0
 11 10  1  0  0  0  0
 12 17  1  0  0  0  0
 13 12  1  0  0  0  0
 13 14  1  0  0  0  0
 14 15  1  0  0  0  0
 14 16  2  0  0  0  0
 17 18  2  0  0  0  0
 17 16  1  0  0  0  0
 19 13  1  0  0  0  0
 20 25  2  0  0  0  0
 20 21  1  0  0  0  0
 21 22  2  0  0  0  0
 22 23  1  0  0  0  0
 22 28  1  0  0  0  0
 24  1  1  0  0  0  0
 24 23  2  0  0  0  0
 25 24  1  0  0  0  0
 26 20  1  0  0  0  0
 27 21  1  0  0  0  0
M  END
>  <minimizedAffinity>
-5.01308918

$$$$

 OpenBabel03262522493D

 28 31  0  0  0  0  0  0  0  0999 V2000
   39.2920   24.6780   35.4690 C   0  0  0  0  0  0  0  0  0  0  0  0
   38.3130   25.3370   36.0950 C   0  0  0  0  0  0  0  0  0  0  0  0
   37.6030   26.3090   35.4500 C   0  0  0  0  0  0  0  0  0  0  0  0
   37.9580   26.5550   34.1510 C   0  0  0  0  0  0  0  0  0  0  0  0
   39.3150   25.3740   33.8800 S   0  0  0  0  0  0  0  0  0  0  0  0
   38.0870   25.0800   37.1460 H   0  0  0  0  0  0  0  0  0  0  0  0
   36.7970   26.9000   35.8580 H   0  0  0  0  0  0  0  0  0  0  0  0
   38.1160   27.5320   31.9290 C   0  0  0  0  0  3  0  0  0  0  0  0
   37.4730   27.4750   33.1450 C   0  0  0  0  0  0  0  0  0  0  0  0
   36.3890   28.2130   33.5240 C   0  0  0  0  0  0  0  0  0  0  0  0
   35.9140   28.1380   34.4910 H   0  0  0  0  0  0  0  0  0  0  0  0
   35.8710   29.1240   32.5970 C   0  0  0  0  0  0  0  0  0  0  0  0
   34.8400   29.9870   32.6350 N   0  0  0  0  0  0  0  0  0  0  0  0
   34.8280   30.6020   31.4270 C   0  0  0  0  0  0  0  0  0  0  0  0
   34.1220   31.3690   31.1050 H   0  0  0  0  0  0  0  0  0  0  0  0
   35.8280   30.1400   30.6370 N   0  0  0  0  0  0  0  0  0  0  0  0
   36.4840   29.2210   31.3510 C   0  0  0  0  0  0  0  0  0  0  0  0
   37.5910   28.4440   31.0080 C   0  0  0  0  0  3  0  0  0  0  0  0
   34.1980   30.1330   33.4430 H   0  0  0  0  0  0  0  0  0  0  0  0
   42.0700   22.3310   35.5950 C   0  0  0  0  0  0  0  0  0  0  0  0
   41.8460   21.6400   36.8080 C   0  0  0  0  0  0  0  0  0  0  0  0
   40.7220   21.9990   37.5760 C   0  0  0  0  0  0  0  0  0  0  0  0
   39.9170   22.9870   37.1110 N   0  0  0  0  0  0  0  0  0  0  0  0
   40.1720   23.6160   35.9500 C   0  0  0  0  0  0  0  0  0  0  0  0
   41.2280   23.3080   35.1860 N   0  0  0  0  0  0  0  0  0  0  0  0
   42.9410   22.0370   35.0200 H   0  0  0  0  0  0  0  0  0  0  0  0
   42.4630   20.8640   37.1900 H   0  0  0  0  0  0  0  0  0  0  0  0
   40.4930   21.5110   38.5140 H   0  0  0  0  0  0  0  0  0  0  0  0
  1 24  1  0  0  0  0
  1  2  2  0  0  0  0
  2  6  1  0  0  0  0
  3  7  1  0  0  0  0
  3  2  1  0  0  0  0
  4  3  2  0  0  0  0
  5  4  1  0  0  0  0
  5  1  1  0  0  0  0
  8  9  1  0  0  0  0
  9 10  2  0  0  0  0
  9  4  1  0  0  0  0
 10 11  1  0  0  0  0
 12 13  1  0  0  0  0
 12 10  1  0  0  0  0
 13 19  1  0  0  0  0
 14 13  1  0  0  0  0
 15 14  1  0  0  0  0
 16 17  1  0  0  0  0
 16 14  2  0  0  0  0
 17 12  2  0  0  0  0
 18 17  1  0  0  0  0
 18  8  2  0  0  0  0
 20 21  1  0  0  0  0
 21 27  1  0  0  0  0
 21 22  2  0  0  0  0
 22 28  1  0  0  0  0
 23 22  1  0  0  0  0
 24 23  2  0  0  0  0
 25 20  2  0  0  0  0
 25 24  1  0  0  0  0
 26 20  1  0  0  0  0
M  END
>  <minimizedAffinity>
-5.00403976

$$$$
