
 OpenBabel03272500023D

 31 34  0  0  0  0  0  0  0  0999 V2000
   36.1210   29.3810   49.1150 C   0  0  0  0  0  0  0  0  0  0  0  0
   36.1980   30.4510   48.2030 C   0  0  0  0  0  0  0  0  0  0  0  0
   35.3660   30.4100   47.0720 C   0  0  0  0  0  0  0  0  0  0  0  0
   34.5330   29.3500   46.9140 N   0  0  0  0  0  0  0  0  0  0  0  0
   34.4760   28.3450   47.7960 C   0  0  0  0  0  0  0  0  0  0  0  0
   35.2690   28.3510   48.9020 N   0  0  0  0  0  0  0  0  0  0  0  0
   36.7610   29.4180   49.9760 H   0  0  0  0  0  0  0  0  0  0  0  0
   35.4260   31.2220   46.3820 H   0  0  0  0  0  0  0  0  0  0  0  0
   32.3260   27.2310   48.2480 C   0  0  0  0  0  0  0  0  0  0  0  0
   33.5810   27.2000   47.6310 C   0  0  0  0  0  0  0  0  0  0  0  0
   33.9290   26.0860   46.8870 C   0  0  0  0  0  0  0  0  0  0  0  0
   34.9140   26.0750   46.4110 H   0  0  0  0  0  0  0  0  0  0  0  0
   33.0260   25.0220   46.7680 C   0  0  0  0  0  0  0  0  0  0  0  0
   33.1890   23.8610   46.0900 N   0  0  0  0  0  0  0  0  0  0  0  0
   32.0470   23.1530   46.2680 C   0  0  0  0  0  0  0  0  0  0  0  0
   31.8180   22.1730   45.8700 H   0  0  0  0  0  0  0  0  0  0  0  0
   31.2100   23.8900   47.0510 N   0  0  0  0  0  0  0  0  0  0  0  0
   31.7910   25.0620   47.3810 C   0  0  0  0  0  0  0  0  0  0  0  0
   31.4400   26.1720   48.1230 C   0  0  0  0  0  0  0  0  0  0  0  0
   34.0390   23.5680   45.5310 H   0  0  0  0  0  0  0  0  0  0  0  0
   37.1130   31.5030   48.4800 N   0  0  0  0  0  0  0  0  0  0  0  0
   37.0830   32.1700   49.6590 C   0  0  0  0  0  0  0  0  0  0  0  0
   37.9910   33.1940   49.9010 C   0  0  0  0  0  0  0  0  0  0  0  0
   38.8620   33.4300   48.8650 C   0  0  0  0  0  0  0  0  0  0  0  0
   39.7080   34.3660   49.0580 O   0  0  0  0  0  0  0  0  0  0  0  0
   38.9150   32.7910   47.6920 N   0  0  0  0  0  0  0  0  0  0  0  0
   38.0050   31.8060   47.5230 C   0  0  0  0  0  0  0  0  0  0  0  0
   38.0340   31.1810   46.4170 O   0  0  0  0  0  0  0  0  0  0  0  0
   36.3610   31.9140   50.4170 H   0  0  0  0  0  0  0  0  0  0  0  0
   38.0160   33.7620   50.8220 H   0  0  0  0  0  0  0  0  0  0  0  0
   39.6200   33.0500   46.9710 H   0  0  0  0  0  0  0  0  0  0  0  0
  1  7  1  0  0  0  0
  2 21  1  0  0  0  0
  2  1  2  0  0  0  0
  3  2  1  0  0  0  0
  4  3  2  0  0  0  0
  4  5  1  0  0  0  0
  5  6  2  0  0  0  0
  6  1  1  0  0  0  0
  8  3  1  0  0  0  0
 10  5  1  0  0  0  0
 10  9  2  0  0  0  0
 11 10  1  0  0  0  0
 12 11  1  0  0  0  0
 13 11  2  0  0  0  0
 13 18  1  0  0  0  0
 14 15  1  0  0  0  0
 14 13  1  0  0  0  0
 15 17  2  0  0  0  0
 16 15  1  0  0  0  0
 17 18  1  0  0  0  0
 18 19  2  0  0  0  0
 19  9  1  0  0  0  0
 20 14  1  0  0  0  0
 21 22  1  0  0  0  0
 22 23  2  0  0  0  0
 22 29  1  0  0  0  0
 23 30  1  0  0  0  0
 24 25  2  0  0  0  0
 24 23  1  0  0  0  0
 26 24  1  0  0  0  0
 27 26  1  0  0  0  0
 27 21  1  0  0  0  0
 28 27  2  0  0  0  0
 31 26  1  0  0  0  0
M  END
>  <minimizedAffinity>
-5.55999374

>  <minimizedRMSD>
0.971419573

$$$$
