REMARK  Name = 
REMARK  3 active torsions:
REMARK  status: ('A' for Active; 'I' for Inactive)
REMARK    1  A    between atoms: C_1  and  C_13
REMARK    2  A    between atoms: C_5  and  C_7
REMARK    3  A    between atoms: C_12  and  C_24
REMARK                            x       y       z     vdW  Elec       q    Type
REMARK                         _______ _______ _______ _____ _____    ______ ____
ROOT
ATOM      1  C   UNL     1      36.375  30.478  46.546  0.00  0.00    +0.000 A 
ATOM      2  C   UNL     1      35.099  29.941  46.514  0.00  0.00    +0.000 A 
ATOM      3  C   UNL     1      34.473  29.684  45.307  0.00  0.00    +0.000 A 
ATOM      4  C   UNL     1      35.070  29.939  44.090  0.00  0.00    +0.000 A 
ATOM      5  C   UNL     1      36.350  30.476  44.103  0.00  0.00    +0.000 A 
ATOM      6  C   UNL     1      36.935  30.718  45.324  0.00  0.00    +0.000 A 
ATOM      7  H   UNL     1      34.656  29.749  47.491  0.00  0.00    +0.000 HD
ATOM      8  H   UNL     1      33.468  29.261  45.468  0.00  0.00    +0.000 HD
ATOM      9  H   UNL     1      34.429  29.676  43.272  0.00  0.00    +0.000 HD
ATOM     10  H   UNL     1      36.754  30.651  43.121  0.00  0.00    +0.000 HD
ENDROOT
BRANCH   6  12
ATOM     11  C   UNL     1      39.440  30.727  44.739  0.00  0.00    +0.000 A 
ATOM     12  C   UNL     1      38.263  31.301  45.118  0.00  0.00    +0.000 A 
ATOM     13  C   UNL     1      38.234  32.677  45.388  0.00  0.00    +0.000 A 
ATOM     14  H   UNL     1      37.356  33.262  45.698  0.00  0.00    +0.000 HD
ATOM     15  C   UNL     1      39.375  33.435  45.274  0.00  0.00    +0.000 A 
ATOM     16  N   UNL     1      39.679  34.733  45.455  0.00  0.00    +0.000 N 
ATOM     17  C   UNL     1      40.982  35.014  45.215  0.00  0.00    +0.000 A 
ATOM     18  H   UNL     1      41.425  35.997  45.306  0.00  0.00    +0.000 HD
ATOM     19  N   UNL     1      41.511  33.804  44.862  0.00  0.00    +0.000 NA
ATOM     20  C   UNL     1      40.550  32.862  44.897  0.00  0.00    +0.000 A 
ATOM     21  C   UNL     1      40.567  31.514  44.634  0.00  0.00    +0.000 A 
ATOM     22  H   UNL     1      38.974  35.471  45.759  0.00  0.00    +0.000 HD
ENDBRANCH   6  12
BRANCH   1  27
ATOM     23  C   UNL     1      37.405  30.268  50.036  0.00  0.00    +0.000 A 
ATOM     24  C   UNL     1      38.298  31.349  50.165  0.00  0.00    +0.000 A 
ATOM     25  C   UNL     1      38.534  32.133  49.029  0.00  0.00    +0.000 A 
ATOM     26  N   UNL     1      37.884  31.796  47.881  0.00  0.00    +0.000 NA
ATOM     27  C   UNL     1      37.040  30.761  47.794  0.00  0.00    +0.000 A 
ATOM     28  N   UNL     1      36.818  30.018  48.871  0.00  0.00    +0.000 NA
ATOM     29  H   UNL     1      38.761  31.528  51.132  0.00  0.00    +0.000 HD
ATOM     30  H   UNL     1      39.220  32.969  49.116  0.00  0.00    +0.000 HD
BRANCH  23  31
ATOM     31  C   UNL     1      37.168  29.447  51.264  0.00  0.00    +0.000 C 
ATOM     32  F   UNL     1      35.802  29.189  51.373  0.00  0.00    +0.000 F 
ATOM     33  F   UNL     1      37.897  28.305  51.144  0.00  0.00    +0.000 F 
ATOM     34  F   UNL     1      37.514  30.208  52.367  0.00  0.00    +0.000 F 
ENDBRANCH  23  31
ENDBRANCH   1  27
TORSDOF 3
