
 OpenBabel03272509053D

 36 39  0  0  0  0  0  0  0  0999 V2000
   37.4310   30.2760   51.3290 C   0  0  0  0  0  0  0  0  0  0  0  0
   38.0730   30.8050   50.1910 C   0  0  0  0  0  0  0  0  0  0  0  0
   37.5710   30.4820   48.9150 C   0  0  0  0  0  0  0  0  0  0  0  0
   36.4760   29.6640   48.8980 N   0  0  0  0  0  0  0  0  0  0  0  0
   35.8960   29.1820   49.9900 C   0  0  0  0  0  0  0  0  0  0  0  0
   36.3630   29.4800   51.2140 N   0  0  0  0  0  0  0  0  0  0  0  0
   37.8390   30.5420   52.2810 H   0  0  0  0  0  0  0  0  0  0  0  0
   38.9160   31.4330   50.2790 H   0  0  0  0  0  0  0  0  0  0  0  0
   38.1800   30.2740   46.5050 C   0  0  0  0  0  3  0  0  0  0  0  0
   38.1640   30.9790   47.6820 C   0  0  0  0  0  0  0  0  0  0  0  0
   38.7410   32.2300   47.7050 C   0  0  0  0  0  0  0  0  0  0  0  0
   38.7820   32.8640   48.5720 H   0  0  0  0  0  0  0  0  0  0  0  0
   39.3110   32.7130   46.5280 C   0  0  0  0  0  0  0  0  0  0  0  0
   39.9390   33.8650   46.2190 N   0  0  0  0  0  0  0  0  0  0  0  0
   40.3150   33.8550   44.9170 C   0  0  0  0  0  0  0  0  0  0  0  0
   40.8340   34.5920   44.3200 H   0  0  0  0  0  0  0  0  0  0  0  0
   39.9290   32.6920   44.3840 N   0  0  0  0  0  0  0  0  0  0  0  0
   39.3160   31.9790   45.3440 C   0  0  0  0  0  0  0  0  0  0  0  0
   38.7250   30.7100   45.3400 C   0  0  0  0  0  3  0  0  0  0  0  0
   40.1210   34.6630   46.8660 H   0  0  0  0  0  0  0  0  0  0  0  0
   34.7590   28.3290   49.7660 C   0  0  0  0  0  3  0  0  0  0  0  0
   34.3750   28.0620   48.5680 C   0  0  0  0  0  3  0  0  0  0  0  0
   33.2660   27.2210   48.1050 C   0  0  0  0  0  0  0  0  0  0  0  0
   32.8450   26.7040   48.9940 H   0  0  0  0  0  0  0  0  0  0  0  0
   32.4390   27.8100   47.6600 H   0  0  0  0  0  0  0  0  0  0  0  0
   33.6790   26.1980   47.0920 C   0  0  0  0  0  0  0  0  0  0  0  0
   33.8870   24.8540   47.3510 C   0  0  0  0  0  0  0  0  0  0  0  0
   34.2650   24.0090   46.3170 C   0  0  0  0  0  0  0  0  0  0  0  0
   34.4400   24.4970   45.0100 C   0  0  0  0  0  0  0  0  0  0  0  0
   34.2340   25.8250   44.7610 C   0  0  0  0  0  0  0  0  0  0  0  0
   33.8590   26.6590   45.7910 C   0  0  0  0  0  0  0  0  0  0  0  0
   33.7400   24.5280   48.3670 H   0  0  0  0  0  0  0  0  0  0  0  0
   34.4090   22.9680   46.5980 H   0  0  0  0  0  0  0  0  0  0  0  0
   34.7380   23.7820   44.2450 H   0  0  0  0  0  0  0  0  0  0  0  0
   34.3840   26.1420   43.7390 H   0  0  0  0  0  0  0  0  0  0  0  0
   33.7040   27.7040   45.5570 H   0  0  0  0  0  0  0  0  0  0  0  0
  1  7  1  0  0  0  0
  2  8  1  0  0  0  0
  2  1  2  0  0  0  0
  3  2  1  0  0  0  0
  4  3  2  0  0  0  0
  4  5  1  0  0  0  0
  5  6  2  0  0  0  0
  6  1  1  0  0  0  0
  9 10  1  0  0  0  0
 10 11  2  0  0  0  0
 10  3  1  0  0  0  0
 11 12  1  0  0  0  0
 13 11  1  0  0  0  0
 14 13  1  0  0  0  0
 14 20  1  0  0  0  0
 15 14  1  0  0  0  0
 16 15  1  0  0  0  0
 17 15  2  0  0  0  0
 17 18  1  0  0  0  0
 18 13  2  0  0  0  0
 19 18  1  0  0  0  0
 19  9  2  0  0  0  0
 21  5  1  0  0  0  0
 22 21  2  0  0  0  0
 23 22  1  0  0  0  0
 23 24  1  0  0  0  0
 25 23  1  0  0  0  0
 26 27  1  0  0  0  0
 26 23  1  0  0  0  0
 27 32  1  0  0  0  0
 28 33  1  0  0  0  0
 28 27  2  0  0  0  0
 29 28  1  0  0  0  0
 30 29  2  0  0  0  0
 30 31  1  0  0  0  0
 31 26  2  0  0  0  0
 34 29  1  0  0  0  0
 35 30  1  0  0  0  0
 36 31  1  0  0  0  0
M  END
>  <minimizedAffinity>
-6.9344182

>  <minimizedRMSD>
0.375184983

$$$$
