
 OpenBabel03272507193D

 33 36  0  0  1  0  0  0  0  0999 V2000
   37.5550   31.4660   49.4570 C   0  0  0  0  0  0  0  0  0  0  0  0
   38.2810   32.6250   49.6830 C   0  0  0  0  0  0  0  0  0  0  0  0
   38.9420   33.1260   48.5400 C   0  0  0  0  0  0  0  0  0  0  0  0
   38.8470   32.4900   47.3370 N   0  0  0  0  0  0  0  0  0  0  0  0
   38.1200   31.3560   47.1690 C   0  0  0  0  0  0  0  0  0  0  0  0
   37.4640   30.8390   48.2580 N   0  0  0  0  0  0  0  0  0  0  0  0
   38.3360   33.1000   50.6440 H   0  0  0  0  0  0  0  0  0  0  0  0
   39.5330   34.0280   48.6290 H   0  0  0  0  0  0  0  0  0  0  0  0
   39.2000   30.2540   45.2910 C   0  0  0  0  0  3  0  0  0  0  0  0
   38.0260   30.6860   45.8740 C   0  0  0  0  0  0  0  0  0  0  0  0
   36.8220   30.4750   45.2310 C   0  0  0  0  0  0  0  0  0  0  0  0
   35.9190   30.8250   45.7140 H   0  0  0  0  0  0  0  0  0  0  0  0
   36.7310   29.8420   44.0080 C   0  0  0  0  0  0  0  0  0  0  0  0
   35.7180   29.5160   43.1850 N   0  0  0  0  0  0  0  0  0  0  0  0
   36.2760   28.9000   42.1270 C   0  0  0  0  0  0  0  0  0  0  0  0
   35.6040   28.5570   41.3380 H   0  0  0  0  0  0  0  0  0  0  0  0
   37.6150   28.8360   42.2750 N   0  0  0  0  0  0  0  0  0  0  0  0
   37.9310   29.4200   43.4470 C   0  0  0  0  0  0  0  0  0  0  0  0
   39.1480   29.6170   44.0670 C   0  0  0  0  0  3  0  0  0  0  0  0
   34.7250   29.7490   43.4280 H   0  0  0  0  0  0  0  0  0  0  0  0
   36.8180   30.9170   50.6390 C   0  0  1  0  0  0  0  0  0  0  0  0
   36.0930   29.6490   50.5790 C   0  0  2  0  0  0  0  0  0  0  0  0
   37.4630   29.6320   51.1880 C   0  0  0  0  0  0  0  0  0  0  0  0
   36.6220   31.7090   51.4000 H   0  0  0  0  0  0  0  0  0  0  0  0
   35.1580   29.6550   51.2130 H   0  0  0  0  0  0  0  0  0  0  0  0
   38.2540   29.1390   50.5820 H   0  0  0  0  0  0  0  0  0  0  0  0
   37.5930   29.6350   52.2750 H   0  0  0  0  0  0  0  0  0  0  0  0
   35.9000   29.0870   49.3250 O   0  0  0  0  0  0  0  0  0  0  0  0
   34.7540   28.8410   48.6470 C   0  0  0  0  0  0  0  0  0  0  0  0
   34.3160   27.6820   48.4750 O   0  0  0  0  0  0  0  0  0  0  0  0
   34.2270   30.0620   48.2250 N   0  0  0  0  0  0  0  0  0  0  0  0
   33.5190   30.2270   49.0000 H   0  0  0  0  0  0  0  0  0  0  0  0
   34.7040   30.3670   47.3270 H   0  0  0  0  0  0  0  0  0  0  0  0
  1  2  1  0  0  0  0
  1 21  1  0  0  0  0
  2  7  1  0  0  0  0
  3  8  1  0  0  0  0
  3  2  2  0  0  0  0
  4  3  1  0  0  0  0
  5  4  2  0  0  0  0
  5  6  1  0  0  0  0
  6  1  2  0  0  0  0
  9 10  1  0  0  0  0
 10  5  1  0  0  0  0
 11 12  1  0  0  0  0
 11 10  2  0  0  0  0
 13 11  1  0  0  0  0
 14 20  1  0  0  0  0
 14 13  1  0  0  0  0
 15 17  2  0  0  0  0
 15 14  1  0  0  0  0
 16 15  1  0  0  0  0
 17 18  1  0  0  0  0
 18 13  2  0  0  0  0
 18 19  1  0  0  0  0
 19  9  2  0  0  0  0
 21 23  1  0  0  0  0
 21 24  1  1  0  0  0
 22 21  1  0  0  0  0
 22 23  1  0  0  0  0
 22 25  1  1  0  0  0
 23 27  1  0  0  0  0
 26 23  1  0  0  0  0
 28 22  1  0  0  0  0
 29 28  1  0  0  0  0
 30 29  2  0  0  0  0
 31 29  1  0  0  0  0
 31 32  1  0  0  0  0
 33 31  1  0  0  0  0
M  END
>  <minimizedAffinity>
-5.94279099

>  <minimizedRMSD>
1.35042119

$$$$
