
 OpenBabel03272501363D

 39 43  0  0  1  0  0  0  0  0999 V2000
   37.7570   30.8610   50.6340 C   0  0  0  0  0  0  0  0  0  0  0  0
   38.4700   31.5350   49.6690 C   0  0  0  0  0  0  0  0  0  0  0  0
   38.0800   31.5570   48.3140 C   0  0  0  0  0  0  0  0  0  0  0  0
   36.9900   30.8960   48.0180 N   0  0  0  0  0  0  0  0  0  0  0  0
   36.2860   30.2280   48.9890 C   0  0  0  0  0  0  0  0  0  0  0  0
   36.6450   30.2010   50.2640 N   0  0  0  0  0  0  0  0  0  0  0  0
   38.0830   30.8620   51.6660 H   0  0  0  0  0  0  0  0  0  0  0  0
   39.3760   32.0700   49.9880 H   0  0  0  0  0  0  0  0  0  0  0  0
   34.7630   28.2570   49.0390 C   0  0  0  0  0  0  0  0  0  0  0  0
   35.0830   29.5170   48.5680 C   0  0  0  0  0  0  0  0  0  0  0  0
   34.2010   30.0800   47.6700 C   0  0  0  0  0  0  0  0  0  0  0  0
   34.4560   31.0710   47.3030 H   0  0  0  0  0  0  0  0  0  0  0  0
   33.0420   29.5060   47.2050 C   0  0  0  0  0  0  0  0  0  0  0  0
   32.0850   29.9030   46.3460 N   0  0  0  0  0  0  0  0  0  0  0  0
   31.1880   28.9030   46.2880 C   0  0  0  0  0  0  0  0  0  0  0  0
   30.2980   28.9340   45.6750 H   0  0  0  0  0  0  0  0  0  0  0  0
   31.5920   27.9010   47.1040 N   0  0  0  0  0  0  0  0  0  0  0  0
   32.7570   28.2400   47.7020 C   0  0  0  0  0  0  0  0  0  0  0  0
   33.6020   27.6070   48.6130 C   0  0  0  0  0  0  0  0  0  0  0  0
   32.0640   30.8300   45.8270 H   0  0  0  0  0  0  0  0  0  0  0  0
   38.9040   32.2610   47.3770 C   0  0  1  0  0  0  0  0  0  0  0  0
   39.5600   33.3360   47.6570 O   0  0  0  0  0  0  0  0  0  0  0  0
   39.0110   31.6980   45.9830 C   0  0  2  0  0  0  0  0  0  0  0  0
   40.5110   31.1990   45.7870 C   0  0  0  0  0  0  0  0  0  0  0  0
   39.8500   32.3070   45.0070 C   0  0  1  0  0  0  0  0  0  0  0  0
   38.3270   30.8420   45.7800 H   0  0  0  0  0  0  0  0  0  0  0  0
   41.2290   31.4240   46.5600 H   0  0  0  0  0  0  0  0  0  0  0  0
   40.5970   30.2050   45.2860 H   0  0  0  0  0  0  0  0  0  0  0  0
   40.3280   33.3110   45.2490 H   0  0  0  0  0  0  0  0  0  0  0  0
   39.7810   32.0980   43.5590 C   0  0  0  0  0  0  0  0  0  0  0  0
   39.0550   33.0190   42.8090 C   0  0  0  0  0  0  0  0  0  0  0  0
   38.9910   32.8140   41.4560 C   0  0  0  0  0  0  0  0  0  0  0  0
   39.6130   31.7410   40.8370 C   0  0  0  0  0  0  0  0  0  0  0  0
   40.3160   30.8590   41.6140 C   0  0  0  0  0  0  0  0  0  0  0  0
   40.3880   31.0460   42.9450 N   0  0  0  0  0  0  0  0  0  0  0  0
   38.5670   33.8580   43.2840 H   0  0  0  0  0  0  0  0  0  0  0  0
   38.4420   33.4970   40.8220 H   0  0  0  0  0  0  0  0  0  0  0  0
   39.5740   31.5600   39.7660 H   0  0  0  0  0  0  0  0  0  0  0  0
   40.8500   29.9760   41.2530 H   0  0  0  0  0  0  0  0  0  0  0  0
  1  7  1  0  0  0  0
  2  8  1  0  0  0  0
  2  1  2  0  0  0  0
  3  2  1  0  0  0  0
  4  3  2  0  0  0  0
  4  5  1  0  0  0  0
  5  6  2  0  0  0  0
  6  1  1  0  0  0  0
 10  5  1  0  0  0  0
 10  9  2  0  0  0  0
 11 10  1  0  0  0  0
 12 11  1  0  0  0  0
 13 11  2  0  0  0  0
 13 18  1  0  0  0  0
 14 13  1  0  0  0  0
 15 14  1  0  0  0  0
 15 17  2  0  0  0  0
 16 15  1  0  0  0  0
 17 18  1  0  0  0  0
 18 19  2  0  0  0  0
 19  9  1  0  0  0  0
 20 14  1  0  0  0  0
 21 22  1  1  0  0  0
 21  3  1  0  0  0  0
 23 26  1  6  0  0  0
 23 21  1  0  0  0  0
 24 23  1  0  0  0  0
 24 27  1  0  0  0  0
 25 29  1  1  0  0  0
 25 24  1  0  0  0  0
 25 23  1  0  0  0  0
 28 24  1  0  0  0  0
 30 25  1  0  0  0  0
 31 36  1  0  0  0  0
 31 30  2  0  0  0  0
 32 31  1  0  0  0  0
 33 32  2  0  0  0  0
 33 34  1  0  0  0  0
 34 35  2  0  0  0  0
 35 30  1  0  0  0  0
 37 32  1  0  0  0  0
 38 33  1  0  0  0  0
 39 34  1  0  0  0  0
M  END
>  <minimizedAffinity>
-6.85490608

>  <minimizedRMSD>
1.94000185

$$$$
