
 OpenBabel03272507203D

 33 36  0  0  1  0  0  0  0  0999 V2000
   37.4020   31.3410   49.4930 C   0  0  0  0  0  0  0  0  0  0  0  0
   38.2900   32.3980   49.6190 C   0  0  0  0  0  0  0  0  0  0  0  0
   38.8080   32.8670   48.3910 C   0  0  0  0  0  0  0  0  0  0  0  0
   38.4370   32.2980   47.2080 N   0  0  0  0  0  0  0  0  0  0  0  0
   37.5600   31.2640   47.1410 C   0  0  0  0  0  0  0  0  0  0  0  0
   37.0370   30.7800   48.3140 N   0  0  0  0  0  0  0  0  0  0  0  0
   38.5620   32.8220   50.5660 H   0  0  0  0  0  0  0  0  0  0  0  0
   39.5100   33.6900   48.3980 H   0  0  0  0  0  0  0  0  0  0  0  0
   38.1470   30.5240   44.9020 C   0  0  0  0  0  3  0  0  0  0  0  0
   37.1710   30.6650   45.8670 C   0  0  0  0  0  0  0  0  0  0  0  0
   35.8820   30.2430   45.6060 C   0  0  0  0  0  0  0  0  0  0  0  0
   35.1390   30.3660   46.3830 H   0  0  0  0  0  0  0  0  0  0  0  0
   35.5130   29.6760   44.4030 C   0  0  0  0  0  0  0  0  0  0  0  0
   34.3620   29.1930   43.8990 N   0  0  0  0  0  0  0  0  0  0  0  0
   34.6440   28.7710   42.6530 C   0  0  0  0  0  0  0  0  0  0  0  0
   33.8250   28.3400   42.0750 H   0  0  0  0  0  0  0  0  0  0  0  0
   35.9470   28.9810   42.3720 N   0  0  0  0  0  0  0  0  0  0  0  0
   36.5170   29.5490   43.4520 C   0  0  0  0  0  0  0  0  0  0  0  0
   37.8130   29.9610   43.6850 C   0  0  0  0  0  3  0  0  0  0  0  0
   33.4780   29.1970   44.4640 H   0  0  0  0  0  0  0  0  0  0  0  0
   36.8120   30.8320   50.7720 C   0  0  1  0  0  0  0  0  0  0  0  0
   36.0700   29.5730   50.8350 C   0  0  2  0  0  0  0  0  0  0  0  0
   37.5050   29.5500   51.2690 C   0  0  0  0  0  0  0  0  0  0  0  0
   36.7210   31.6440   51.5300 H   0  0  0  0  0  0  0  0  0  0  0  0
   35.2210   29.6080   51.5790 H   0  0  0  0  0  0  0  0  0  0  0  0
   38.2090   29.0320   50.5830 H   0  0  0  0  0  0  0  0  0  0  0  0
   37.7700   29.5780   52.3310 H   0  0  0  0  0  0  0  0  0  0  0  0
   35.7160   28.9840   49.6290 O   0  0  0  0  0  0  0  0  0  0  0  0
   34.5150   28.5280   49.2010 C   0  0  0  0  0  0  0  0  0  0  0  0
   34.4120   27.5880   48.3810 O   0  0  0  0  0  0  0  0  0  0  0  0
   33.5170   29.2770   49.8240 N   0  0  0  0  0  0  0  0  0  0  0  0
   33.2770   28.6210   50.6240 H   0  0  0  0  0  0  0  0  0  0  0  0
   33.3700   30.1870   49.2970 H   0  0  0  0  0  0  0  0  0  0  0  0
  1  2  1  0  0  0  0
  1 21  1  0  0  0  0
  2  7  1  0  0  0  0
  3  8  1  0  0  0  0
  3  2  2  0  0  0  0
  4  3  1  0  0  0  0
  5  4  2  0  0  0  0
  5  6  1  0  0  0  0
  6  1  2  0  0  0  0
  9 10  1  0  0  0  0
 10  5  1  0  0  0  0
 11 10  2  0  0  0  0
 11 12  1  0  0  0  0
 13 11  1  0  0  0  0
 14 13  1  0  0  0  0
 14 20  1  0  0  0  0
 15 14  1  0  0  0  0
 16 15  1  0  0  0  0
 17 15  2  0  0  0  0
 17 18  1  0  0  0  0
 18 19  1  0  0  0  0
 18 13  2  0  0  0  0
 19  9  2  0  0  0  0
 21 22  1  0  0  0  0
 21 23  1  0  0  0  0
 21 24  1  1  0  0  0
 22 23  1  0  0  0  0
 22 25  1  1  0  0  0
 23 27  1  0  0  0  0
 26 23  1  0  0  0  0
 28 22  1  0  0  0  0
 29 28  1  0  0  0  0
 29 31  1  0  0  0  0
 30 29  2  0  0  0  0
 31 32  1  0  0  0  0
 33 31  1  0  0  0  0
M  END
>  <minimizedAffinity>
-5.66929436

>  <minimizedRMSD>
0.413563728

$$$$
