
     RDKit          3D

 45 49  0  0  0  0  0  0  0  0999 V2000
   38.9558   32.3712   47.7941 C   0  0  2  0  0  0  0  0  0  0  0  0
   38.0022   32.7458   48.9754 C   0  0  2  0  0  0  0  0  0  0  0  0
   38.8885   33.5514   49.7975 C   0  0  0  0  0  0  0  0  0  0  0  0
   39.7319   34.2695   48.9587 O   0  0  0  0  0  0  0  0  0  0  0  0
   39.6196   33.7749   47.6965 C   0  0  0  0  0  0  0  0  0  0  0  0
   37.3659   29.6972   51.0843 C   0  0  0  0  0  0  0  0  0  0  0  0
   38.0374   30.8370   50.5631 C   0  0  0  0  0  0  0  0  0  0  0  0
   37.3686   31.5896   49.5517 C   0  0  0  0  0  0  0  0  0  0  0  0
   36.1224   31.1849   49.1324 N   0  0  0  0  0  0  0  0  0  0  0  0
   35.5344   30.1035   49.6563 C   0  0  0  0  0  0  0  0  0  0  0  0
   36.1321   29.3561   50.6207 N   0  0  0  0  0  0  0  0  0  0  0  0
   38.2808   32.1359   46.6451 O   0  0  0  0  0  0  0  0  0  0  0  0
   40.9499   31.2499   45.3807 Cl  0  0  0  0  0  0  0  0  0  0  0  0
   39.3646   30.6847   44.9055 C   0  0  0  0  0  0  0  0  0  0  0  0
   38.3221   31.2427   45.6343 C   0  0  0  0  0  0  0  0  0  0  0  0
   37.0628   30.8079   45.2640 C   0  0  0  0  0  0  0  0  0  0  0  0
   36.8667   29.8907   44.2480 C   0  0  0  0  0  0  0  0  0  0  0  0
   37.9371   29.3777   43.5673 C   0  0  0  0  0  0  0  0  0  0  0  0
   39.2011   29.7786   43.8993 C   0  0  0  0  0  0  0  0  0  0  0  0
   39.6986   31.6670   48.1540 H   0  0  0  0  0  0  0  0  0  0  0  0
   37.1881   33.3918   48.5310 H   0  0  0  0  0  0  0  0  0  0  0  0
   38.2830   34.2999   50.3732 H   0  0  0  0  0  0  0  0  0  0  0  0
   39.5101   33.0441   50.5310 H   0  0  0  0  0  0  0  0  0  0  0  0
   39.0333   34.4256   47.0315 H   0  0  0  0  0  0  0  0  0  0  0  0
   40.6150   33.6204   47.2341 H   0  0  0  0  0  0  0  0  0  0  0  0
   37.8941   29.1492   51.8455 H   0  0  0  0  0  0  0  0  0  0  0  0
   39.0168   31.1095   50.9294 H   0  0  0  0  0  0  0  0  0  0  0  0
   34.5543   29.8077   49.3082 H   0  0  0  0  0  0  0  0  0  0  0  0
   36.1347   31.1283   45.7141 H   0  0  0  0  0  0  0  0  0  0  0  0
   35.8958   29.5325   43.9364 H   0  0  0  0  0  0  0  0  0  0  0  0
   37.8048   28.6605   42.7708 H   0  0  0  0  0  0  0  0  0  0  0  0
   40.8585   27.9789   43.0816 C   0  0  0  0  0  0  0  0  0  0  0  0
   40.3845   29.2679   43.2123 C   0  0  0  0  0  0  0  0  0  0  0  0
   41.0942   30.3176   42.6209 C   0  0  0  0  0  0  0  0  0  0  0  0
   40.8392   31.3735   42.6431 H   0  0  0  0  0  0  0  0  0  0  0  0
   42.2599   30.0934   41.9083 C   0  0  0  0  0  0  0  0  0  0  0  0
   43.1591   30.8377   41.2367 N   0  0  0  0  0  0  0  0  0  0  0  0
   44.1359   30.0448   40.7199 C   0  0  0  0  0  0  0  0  0  0  0  0
   44.9862   30.3770   40.1343 H   0  0  0  0  0  0  0  0  0  0  0  0
   43.8606   28.7906   41.0618 N   0  0  0  0  0  0  0  0  0  0  0  0
   42.7179   28.7871   41.7900 C   0  0  0  0  0  0  0  0  0  0  0  0
   42.0177   27.7600   42.3723 C   0  0  0  0  0  0  0  0  0  0  0  0
   40.2201   27.2640   43.5824 H   0  0  0  0  0  0  0  0  0  0  0  0
   43.1016   31.8767   41.1354 H   0  0  0  0  0  0  0  0  0  0  0  0
   42.3227   26.7294   42.3149 H   0  0  0  0  0  0  0  0  0  0  0  0
  1  2  1  0
  2  8  1  0
  2  3  1  0
  4  3  1  0
  5  1  1  0
  5  4  1  0
  7  6  2  0
  8  7  1  0
  9  8  2  0
  9 10  1  0
 10 11  2  0
 11  6  1  0
 12  1  1  0
 14 13  1  0
 14 15  2  0
 15 12  1  0
 16 15  1  0
 17 16  2  0
 18 19  2  0
 18 17  1  0
 19 14  1  0
  1 20  1  1
  2 21  1  6
  3 22  1  0
  3 23  1  0
  5 24  1  0
  5 25  1  0
  6 26  1  0
  7 27  1  0
 10 28  1  0
 16 29  1  0
 17 30  1  0
 18 31  1  0
 32 33  2  0
 33 34  1  0
 34 35  1  0
 34 36  2  0
 36 37  1  0
 37 38  1  0
 38 39  1  0
 38 40  2  0
 40 41  1  0
 41 42  2  0
 42 32  1  0
 41 36  1  0
 32 43  1  0
 37 44  1  0
 42 45  1  0
 19 33  1  0
M  ISO  8  20  13  21  13  22  13  23  13  24  13  25  13  26  14  27  14
M  ISO  6  28  14  29  14  30  14  31  14  35  15  39  14
M  END
>  <DihAtoms>  (1) 
17,18,32,31

>  <DihDeg>  (1) 
-134.64499101874668

$$$$
