
     RDKit          3D

 51 56  0  0  0  0  0  0  0  0999 V2000
   32.7059   28.2178   47.4428 N   0  0  0  0  0  0  0  0  0  0  0  0
   33.2973   27.7646   48.6547 C   0  0  0  0  0  0  0  0  0  0  0  0
   34.4847   28.5019   49.1394 C   0  0  0  0  0  0  0  0  0  0  0  0
   35.4173   29.0028   48.1316 C   0  0  0  0  0  0  0  0  0  0  0  0
   34.7187   29.4033   46.8213 C   0  0  0  0  0  0  0  0  0  0  0  0
   33.7566   28.2691   46.4483 C   0  0  0  0  0  0  0  0  0  0  0  0
   35.9457   30.7432   49.7813 C   0  0  0  0  0  0  0  0  0  0  0  0
   36.1962   30.2011   48.5328 C   0  0  0  0  0  0  0  0  0  0  0  0
   37.0966   30.7282   47.6461 C   0  0  0  0  0  0  0  0  0  0  0  0
   37.7927   31.8720   48.0282 C   0  0  0  0  0  0  0  0  0  0  0  0
   37.5405   32.4078   49.2661 C   0  0  0  0  0  0  0  0  0  0  0  0
   36.6270   31.8752   50.1711 C   0  0  0  0  0  0  0  0  0  0  0  0
   38.3331   33.5535   49.4688 O   0  0  0  0  0  0  0  0  0  0  0  0
   39.3293   33.4782   48.4524 C   0  0  0  0  0  0  0  0  0  0  0  0
   38.7624   32.6876   47.4364 O   0  0  0  0  0  0  0  0  0  0  0  0
   31.3381   28.5631   47.2053 C   0  0  0  0  0  0  0  0  0  0  0  0
   30.8640   29.3738   46.1798 C   0  0  0  0  0  0  0  0  0  0  0  0
   29.5029   29.5755   46.1074 C   0  0  0  0  0  0  0  0  0  0  0  0
   28.6963   28.9817   47.0274 N   0  0  0  0  0  0  0  0  0  0  0  0
   29.1757   28.2012   48.0115 C   0  0  0  0  0  0  0  0  0  0  0  0
   30.5008   28.0064   48.0812 N   0  0  0  0  0  0  0  0  0  0  0  0
   32.4986   27.7430   49.4316 H   0  0  0  0  0  0  0  0  0  0  0  0
   33.5553   26.6745   48.5177 H   0  0  0  0  0  0  0  0  0  0  0  0
   34.0080   29.4145   49.6302 H   0  0  0  0  0  0  0  0  0  0  0  0
   34.9752   27.9430   49.9516 H   0  0  0  0  0  0  0  0  0  0  0  0
   36.1310   28.2019   47.8138 H   0  0  0  0  0  0  0  0  0  0  0  0
   35.4533   29.4674   45.9981 H   0  0  0  0  0  0  0  0  0  0  0  0
   34.0905   30.2856   46.9604 H   0  0  0  0  0  0  0  0  0  0  0  0
   34.3316   27.3178   46.3670 H   0  0  0  0  0  0  0  0  0  0  0  0
   33.3099   28.4340   45.4614 H   0  0  0  0  0  0  0  0  0  0  0  0
   35.2772   30.4144   50.5652 H   0  0  0  0  0  0  0  0  0  0  0  0
   37.2719   30.2900   46.6895 H   0  0  0  0  0  0  0  0  0  0  0  0
   36.4810   32.3593   51.1398 H   0  0  0  0  0  0  0  0  0  0  0  0
   39.5329   34.4816   48.0088 H   0  0  0  0  0  0  0  0  0  0  0  0
   40.2485   33.0141   48.8732 H   0  0  0  0  0  0  0  0  0  0  0  0
   31.6099   29.7774   45.5250 H   0  0  0  0  0  0  0  0  0  0  0  0
   29.1568   30.2073   45.3054 H   0  0  0  0  0  0  0  0  0  0  0  0
   27.5076   26.4978   48.5879 C   0  0  0  0  0  0  0  0  0  0  0  0
   28.2678   27.5822   48.9800 C   0  0  0  0  0  0  0  0  0  0  0  0
   28.1810   28.0864   50.2699 C   0  0  0  0  0  0  0  0  0  0  0  0
   28.7860   28.9386   50.5588 H   0  0  0  0  0  0  0  0  0  0  0  0
   27.3207   27.4921   51.1713 C   0  0  0  0  0  0  0  0  0  0  0  0
   27.0959   27.8301   52.4551 N   0  0  0  0  0  0  0  0  0  0  0  0
   26.1643   26.9209   52.8663 C   0  0  0  0  0  0  0  0  0  0  0  0
   25.6904   26.8099   53.8229 H   0  0  0  0  0  0  0  0  0  0  0  0
   25.8503   26.0849   51.8796 N   0  0  0  0  0  0  0  0  0  0  0  0
   26.5512   26.4080   50.8034 C   0  0  0  0  0  0  0  0  0  0  0  0
   26.6417   25.9034   49.5032 C   0  0  0  0  0  0  0  0  0  0  0  0
   27.6044   26.1291   47.5611 H   0  0  0  0  0  0  0  0  0  0  0  0
   27.4835   28.5788   53.0711 H   0  0  0  0  0  0  0  0  0  0  0  0
   26.0442   25.0546   49.2024 H   0  0  0  0  0  0  0  0  0  0  0  0
  1  2  1  0
  2  3  1  0
  4  8  1  0
  4  3  1  0
  5  4  1  0
  6  5  1  0
  6  1  1  0
  7 12  2  0
  8  7  1  0
  9 10  1  0
  9  8  2  0
 10 11  2  0
 11 13  1  0
 11 12  1  0
 14 13  1  0
 15 10  1  0
 15 14  1  0
 16  1  1  0
 16 21  1  0
 17 16  2  0
 18 17  1  0
 18 19  2  0
 19 20  1  0
 20 21  2  0
  2 22  1  0
  2 23  1  0
  3 24  1  0
  3 25  1  0
  4 26  1  0
  5 27  1  0
  5 28  1  0
  6 29  1  0
  6 30  1  0
  7 31  1  0
  9 32  1  0
 12 33  1  0
 14 34  1  0
 14 35  1  0
 17 36  1  0
 18 37  1  0
 38 39  2  0
 39 40  1  0
 40 41  1  0
 40 42  2  0
 42 43  1  0
 43 44  1  0
 44 45  1  0
 44 46  2  0
 46 47  1  0
 47 48  2  0
 48 38  1  0
 47 42  1  0
 38 49  1  0
 43 50  1  0
 48 51  1  0
 20 39  1  0
M  ISO  8  22  13  23  13  24  13  25  13  26  13  27  13  28  13  29  13
M  ISO  8  30  13  31  14  32  14  33  14  34  13  35  13  36  14  37  14
M  ISO  2  41  15  45  14
M  END
>  <DihAtoms>  (1) 
18,19,38,37

>  <DihDeg>  (1) 
-0.00023130010975876898

$$$$
