
 OpenBabel03272509053D

 36 39  0  0  0  0  0  0  0  0999 V2000
   37.3880   30.2830   51.2430 C   0  0  0  0  0  0  0  0  0  0  0  0
   37.9070   30.9040   50.0890 C   0  0  0  0  0  0  0  0  0  0  0  0
   37.3290   30.6080   48.8380 C   0  0  0  0  0  0  0  0  0  0  0  0
   36.2880   29.7230   48.8610 N   0  0  0  0  0  0  0  0  0  0  0  0
   35.8230   29.1560   49.9670 C   0  0  0  0  0  0  0  0  0  0  0  0
   36.3640   29.4270   51.1660 N   0  0  0  0  0  0  0  0  0  0  0  0
   37.8510   30.5310   52.1740 H   0  0  0  0  0  0  0  0  0  0  0  0
   38.7150   31.5800   50.1460 H   0  0  0  0  0  0  0  0  0  0  0  0
   37.2990   30.8640   46.3570 C   0  0  0  0  0  0  0  0  0  0  0  0
   37.7950   31.1980   47.5920 C   0  0  0  0  0  0  0  0  0  0  0  0
   38.7940   32.1450   47.6630 C   0  0  0  0  0  0  0  0  0  0  0  0
   39.2510   32.4770   48.5760 H   0  0  0  0  0  0  0  0  0  0  0  0
   39.2460   32.7140   46.4720 C   0  0  0  0  0  0  0  0  0  0  0  0
   40.1830   33.6430   46.2000 N   0  0  0  0  0  0  0  0  0  0  0  0
   40.2490   33.8600   44.8630 C   0  0  0  0  0  0  0  0  0  0  0  0
   40.8710   34.5220   44.2780 H   0  0  0  0  0  0  0  0  0  0  0  0
   39.3490   33.0670   44.2730 N   0  0  0  0  0  0  0  0  0  0  0  0
   38.7260   32.3590   45.2300 C   0  0  0  0  0  0  0  0  0  0  0  0
   37.7130   31.3970   45.1770 C   0  0  0  0  0  0  0  0  0  0  0  0
   40.7840   34.1380   46.8940 H   0  0  0  0  0  0  0  0  0  0  0  0
   34.7270   28.2430   49.7840 C   0  0  0  0  0  0  0  0  0  0  0  0
   34.2920   27.9780   48.6030 C   0  0  0  0  0  0  0  0  0  0  0  0
   33.2090   27.0830   48.1810 C   0  0  0  0  0  0  0  0  0  0  0  0
   32.8460   26.5500   49.0850 H   0  0  0  0  0  0  0  0  0  0  0  0
   32.3400   27.6310   47.7640 H   0  0  0  0  0  0  0  0  0  0  0  0
   33.6350   26.0780   47.1560 C   0  0  0  0  0  0  0  0  0  0  0  0
   33.8350   24.7290   47.3940 C   0  0  0  0  0  0  0  0  0  0  0  0
   34.2270   23.9020   46.3490 C   0  0  0  0  0  0  0  0  0  0  0  0
   34.4230   24.4130   45.0550 C   0  0  0  0  0  0  0  0  0  0  0  0
   34.2250   25.7460   44.8270 C   0  0  0  0  0  0  0  0  0  0  0  0
   33.8360   26.5620   45.8660 C   0  0  0  0  0  0  0  0  0  0  0  0
   33.6720   24.3850   48.4010 H   0  0  0  0  0  0  0  0  0  0  0  0
   34.3640   22.8550   46.6140 H   0  0  0  0  0  0  0  0  0  0  0  0
   34.7300   23.7110   44.2810 H   0  0  0  0  0  0  0  0  0  0  0  0
   34.3910   26.0820   43.8140 H   0  0  0  0  0  0  0  0  0  0  0  0
   33.6870   27.6120   45.6500 H   0  0  0  0  0  0  0  0  0  0  0  0
  1  7  1  0  0  0  0
  2  8  1  0  0  0  0
  2  1  2  0  0  0  0
  3  4  2  0  0  0  0
  3  2  1  0  0  0  0
  4  5  1  0  0  0  0
  5  6  2  0  0  0  0
  6  1  1  0  0  0  0
  9 10  1  0  0  0  0
 10 11  2  0  0  0  0
 10  3  1  0  0  0  0
 11 12  1  0  0  0  0
 13 11  1  0  0  0  0
 14 13  1  0  0  0  0
 14 20  1  0  0  0  0
 15 14  1  0  0  0  0
 16 15  1  0  0  0  0
 17 15  2  0  0  0  0
 17 18  1  0  0  0  0
 18 13  2  0  0  0  0
 19 18  1  0  0  0  0
 19  9  2  0  0  0  0
 21  5  1  0  0  0  0
 22 21  2  0  0  0  0
 23 22  1  0  0  0  0
 23 24  1  0  0  0  0
 25 23  1  0  0  0  0
 26 27  1  0  0  0  0
 26 23  1  0  0  0  0
 27 32  1  0  0  0  0
 28 33  1  0  0  0  0
 28 27  2  0  0  0  0
 29 28  1  0  0  0  0
 30 29  2  0  0  0  0
 30 31  1  0  0  0  0
 31 26  2  0  0  0  0
 34 29  1  0  0  0  0
 35 30  1  0  0  0  0
 36 31  1  0  0  0  0
M  END
>  <minimizedAffinity>
-6.95354605

>  <minimizedRMSD>
1.04395592

$$$$
