
 OpenBabel03272501093D

 43 47  0  0  1  0  0  0  0  0999 V2000
   40.6970   31.9700   44.5730 Cl  0  0  0  0  0  0  0  0  0  0  0  0
   39.1490   31.1690   44.4340 C   0  0  0  0  0  0  0  0  0  0  0  0
   38.2320   31.5310   45.4130 C   0  0  0  0  0  0  0  0  0  0  0  0
   37.0020   30.9080   45.3100 C   0  0  0  0  0  0  0  0  0  0  0  0
   36.7160   29.9990   44.3080 C   0  0  0  0  0  0  0  0  0  0  0  0
   37.6620   29.6850   43.3710 C   0  0  0  0  0  0  0  0  0  0  0  0
   38.8930   30.2760   43.4340 C   0  0  0  0  0  0  0  0  0  0  0  0
   36.1680   31.0610   45.9770 H   0  0  0  0  0  0  0  0  0  0  0  0
   35.7650   29.4960   44.2010 H   0  0  0  0  0  0  0  0  0  0  0  0
   37.4580   28.9770   42.5810 H   0  0  0  0  0  0  0  0  0  0  0  0
   40.9870   29.0770   42.5200 C   0  0  0  0  0  3  0  0  0  0  0  0
   39.9480   29.9820   42.4660 C   0  0  0  0  0  0  0  0  0  0  0  0
   39.8080   30.7910   41.3350 C   0  0  0  0  0  0  0  0  0  0  0  0
   39.0420   31.5420   41.1580 H   0  0  0  0  0  0  0  0  0  0  0  0
   40.6870   30.7050   40.2690 C   0  0  0  0  0  0  0  0  0  0  0  0
   40.8430   31.3050   39.0740 N   0  0  0  0  0  0  0  0  0  0  0  0
   41.9250   30.7940   38.4260 C   0  0  0  0  0  0  0  0  0  0  0  0
   42.2840   31.0920   37.4470 H   0  0  0  0  0  0  0  0  0  0  0  0
   42.4610   29.8650   39.2100 N   0  0  0  0  0  0  0  0  0  0  0  0
   41.7260   29.7870   40.3450 C   0  0  0  0  0  0  0  0  0  0  0  0
   41.8600   28.9940   41.4580 C   0  0  0  0  0  3  0  0  0  0  0  0
   40.2140   32.0570   38.7080 H   0  0  0  0  0  0  0  0  0  0  0  0
   38.2940   32.3770   46.4620 O   0  0  0  0  0  0  0  0  0  0  0  0
   38.9450   32.4500   47.6450 C   0  0  2  0  0  0  0  0  0  0  0  0
   37.9650   32.6240   48.8510 C   0  0  2  0  0  0  0  0  0  0  0  0
   38.8210   33.3150   49.8010 C   0  0  0  0  0  0  0  0  0  0  0  0
   39.6600   34.1680   49.0960 O   0  0  0  0  0  0  0  0  0  0  0  0
   39.5790   33.8660   47.7720 C   0  0  0  0  0  0  0  0  0  0  0  0
   39.6980   31.7150   47.9100 H   0  0  0  0  0  0  0  0  0  0  0  0
   37.1430   33.3130   48.4940 H   0  0  0  0  0  0  0  0  0  0  0  0
   38.1890   33.9560   50.4710 H   0  0  0  0  0  0  0  0  0  0  0  0
   39.4410   32.7160   50.4620 H   0  0  0  0  0  0  0  0  0  0  0  0
   38.9870   34.5980   47.2020 H   0  0  0  0  0  0  0  0  0  0  0  0
   40.5840   33.8030   47.3100 H   0  0  0  0  0  0  0  0  0  0  0  0
   37.3420   29.3050   50.5070 C   0  0  0  0  0  0  0  0  0  0  0  0
   37.9930   30.5250   50.1780 C   0  0  0  0  0  0  0  0  0  0  0  0
   37.3490   31.3820   49.2360 C   0  0  0  0  0  0  0  0  0  0  0  0
   36.1430   30.9950   48.6970 N   0  0  0  0  0  0  0  0  0  0  0  0
   35.5730   29.8360   49.0420 C   0  0  0  0  0  0  0  0  0  0  0  0
   36.1490   28.9880   49.9350 N   0  0  0  0  0  0  0  0  0  0  0  0
   37.8510   28.6790   51.2210 H   0  0  0  0  0  0  0  0  0  0  0  0
   38.9410   30.7800   50.6310 H   0  0  0  0  0  0  0  0  0  0  0  0
   34.6250   29.5560   48.6030 H   0  0  0  0  0  0  0  0  0  0  0  0
  2  1  1  0  0  0  0
  2  3  1  0  0  0  0
  3 23  1  0  0  0  0
  4  3  2  0  0  0  0
  4  8  1  0  0  0  0
  5  4  1  0  0  0  0
  6  7  1  0  0  0  0
  6  5  2  0  0  0  0
  7  2  2  0  0  0  0
  9  5  1  0  0  0  0
 10  6  1  0  0  0  0
 12 11  1  0  0  0  0
 12  7  1  0  0  0  0
 13 12  2  0  0  0  0
 14 13  1  0  0  0  0
 15 20  2  0  0  0  0
 15 13  1  0  0  0  0
 16 15  1  0  0  0  0
 17 16  1  0  0  0  0
 17 19  2  0  0  0  0
 18 17  1  0  0  0  0
 19 20  1  0  0  0  0
 20 21  1  0  0  0  0
 21 11  2  0  0  0  0
 22 16  1  0  0  0  0
 23 24  1  0  0  0  0
 24 28  1  0  0  0  0
 24 29  1  1  0  0  0
 24 25  1  0  0  0  0
 25 30  1  6  0  0  0
 25 37  1  0  0  0  0
 25 26  1  0  0  0  0
 26 32  1  0  0  0  0
 26 31  1  0  0  0  0
 27 26  1  0  0  0  0
 28 27  1  0  0  0  0
 33 28  1  0  0  0  0
 34 28  1  0  0  0  0
 35 41  1  0  0  0  0
 36 35  1  0  0  0  0
 36 42  1  0  0  0  0
 37 36  2  0  0  0  0
 38 39  2  0  0  0  0
 38 37  1  0  0  0  0
 39 40  1  0  0  0  0
 40 35  2  0  0  0  0
 43 39  1  0  0  0  0
M  END
>  <minimizedAffinity>
-6.5358367

>  <minimizedRMSD>
1.20675385

$$$$
