
 OpenBabel03272510233D

 34 38  0  0  0  0  0  0  0  0999 V2000
   35.4530   29.9280   47.1230 C   0  0  0  0  0  0  0  0  0  0  0  0
   36.6500   30.2980   47.7100 C   0  0  0  0  0  0  0  0  0  0  0  0
   37.6690   30.8090   46.9300 C   0  0  0  0  0  0  0  0  0  0  0  0
   37.4470   30.9300   45.5680 C   0  0  0  0  0  0  0  0  0  0  0  0
   38.2880   31.3990   44.6060 N   0  0  0  0  0  0  0  0  0  0  0  0
   37.6390   31.3280   43.4360 C   0  0  0  0  0  0  0  0  0  0  0  0
   36.4140   30.8290   43.6220 N   0  0  0  0  0  0  0  0  0  0  0  0
   36.2640   30.5710   44.9440 C   0  0  0  0  0  0  0  0  0  0  0  0
   35.2580   30.0620   45.7480 C   0  0  0  0  0  0  0  0  0  0  0  0
   34.6050   29.5210   47.6590 H   0  0  0  0  0  0  0  0  0  0  0  0
   38.6040   31.0970   47.3880 H   0  0  0  0  0  0  0  0  0  0  0  0
   39.2660   31.7500   44.7670 H   0  0  0  0  0  0  0  0  0  0  0  0
   34.3130   29.7730   45.2730 H   0  0  0  0  0  0  0  0  0  0  0  0
   39.2050   31.0390   41.5100 C   0  0  0  0  0  3  0  0  0  0  0  0
   38.1640   31.7300   42.1180 C   0  0  0  0  0  0  0  0  0  0  0  0
   37.5970   32.8250   41.4770 C   0  0  0  0  0  0  0  0  0  0  0  0
   36.7910   33.3710   41.9340 H   0  0  0  0  0  0  0  0  0  0  0  0
   38.0790   33.2110   40.2450 C   0  0  0  0  0  0  0  0  0  0  0  0
   37.7700   34.2040   39.3630 N   0  0  0  0  0  0  0  0  0  0  0  0
   38.5870   34.1120   38.2790 C   0  0  0  0  0  0  0  0  0  0  0  0
   38.6030   34.7470   37.3990 H   0  0  0  0  0  0  0  0  0  0  0  0
   39.4290   33.0670   38.4460 N   0  0  0  0  0  0  0  0  0  0  0  0
   39.1260   32.5130   39.6400 C   0  0  0  0  0  0  0  0  0  0  0  0
   39.6970   31.4240   40.2630 C   0  0  0  0  0  3  0  0  0  0  0  0
   37.0200   34.9150   39.5130 H   0  0  0  0  0  0  0  0  0  0  0  0
   37.8470   30.3180   51.2730 C   0  0  0  0  0  0  0  0  0  0  0  0
   37.8460   30.5380   49.8960 C   0  0  0  0  0  0  0  0  0  0  0  0
   36.7590   30.1220   49.1470 C   0  0  0  0  0  0  0  0  0  0  0  0
   35.7300   29.5090   49.7980 N   0  0  0  0  0  0  0  0  0  0  0  0
   35.7550   29.3050   51.1490 C   0  0  0  0  0  0  0  0  0  0  0  0
   36.7990   29.7040   51.8710 N   0  0  0  0  0  0  0  0  0  0  0  0
   38.6870   30.6360   51.8700 H   0  0  0  0  0  0  0  0  0  0  0  0
   38.6600   31.0180   49.4110 H   0  0  0  0  0  0  0  0  0  0  0  0
   34.8680   28.8080   51.5170 H   0  0  0  0  0  0  0  0  0  0  0  0
  1 10  1  0  0  0  0
  1  2  1  0  0  0  0
  2 28  1  0  0  0  0
  3 11  1  0  0  0  0
  3  2  2  0  0  0  0
  4  3  1  0  0  0  0
  5 12  1  0  0  0  0
  5  4  1  0  0  0  0
  6  7  2  0  0  0  0
  6  5  1  0  0  0  0
  7  8  1  0  0  0  0
  8  4  2  0  0  0  0
  8  9  1  0  0  0  0
  9  1  2  0  0  0  0
 13  9  1  0  0  0  0
 14 15  1  0  0  0  0
 15  6  1  0  0  0  0
 16 17  1  0  0  0  0
 16 15  2  0  0  0  0
 18 16  1  0  0  0  0
 19 25  1  0  0  0  0
 19 18  1  0  0  0  0
 20 22  2  0  0  0  0
 20 19  1  0  0  0  0
 21 20  1  0  0  0  0
 22 23  1  0  0  0  0
 23 18  2  0  0  0  0
 23 24  1  0  0  0  0
 24 14  2  0  0  0  0
 26 32  1  0  0  0  0
 26 31  1  0  0  0  0
 27 26  2  0  0  0  0
 28 29  2  0  0  0  0
 28 27  1  0  0  0  0
 29 30  1  0  0  0  0
 30 34  1  0  0  0  0
 30 31  2  0  0  0  0
 33 27  1  0  0  0  0
M  END
>  <minimizedAffinity>
-5.32247496

>  <minimizedRMSD>
3.59186077

$$$$
