
 OpenBabel03272509213D

 49 54  0  0  0  0  0  0  0  0999 V2000
   40.0970   30.9390   44.1640 C   0  0  0  0  0  0  0  0  0  0  0  0
   39.5480   31.7720   45.1270 C   0  0  0  0  0  0  0  0  0  0  0  0
   38.4430   32.5330   44.7840 C   0  0  0  0  0  0  0  0  0  0  0  0
   37.8810   32.4760   43.5050 C   0  0  0  0  0  0  0  0  0  0  0  0
   36.8430   33.0710   42.8860 N   0  0  0  0  0  0  0  0  0  0  0  0
   36.7450   32.6400   41.6170 C   0  0  0  0  0  0  0  0  0  0  0  0
   37.7550   31.7420   41.4230 N   0  0  0  0  0  0  0  0  0  0  0  0
   38.4570   31.6350   42.5800 C   0  0  0  0  0  0  0  0  0  0  0  0
   39.5520   30.8750   42.9030 C   0  0  0  0  0  0  0  0  0  0  0  0
   40.9520   30.3890   44.5250 H   0  0  0  0  0  0  0  0  0  0  0  0
   37.9050   33.2290   45.4290 H   0  0  0  0  0  0  0  0  0  0  0  0
   36.2040   33.7680   43.3280 H   0  0  0  0  0  0  0  0  0  0  0  0
   36.0080   32.9490   40.8950 H   0  0  0  0  0  0  0  0  0  0  0  0
   39.8710   28.6660   41.7440 C   0  0  0  0  0  0  0  0  0  0  0  0
   40.1820   29.9760   41.9390 C   0  0  0  0  0  0  0  0  0  0  0  0
   41.1820   30.5490   41.1780 C   0  0  0  0  0  0  0  0  0  0  0  0
   41.4890   31.5990   41.2770 H   0  0  0  0  0  0  0  0  0  0  0  0
   41.8420   29.7820   40.2350 C   0  0  0  0  0  0  0  0  0  0  0  0
   42.8320   30.0710   39.3720 N   0  0  0  0  0  0  0  0  0  0  0  0
   43.1300   28.9530   38.6520 C   0  0  0  0  0  0  0  0  0  0  0  0
   43.8640   28.7960   37.8700 H   0  0  0  0  0  0  0  0  0  0  0  0
   42.3210   27.9290   39.0550 N   0  0  0  0  0  0  0  0  0  0  0  0
   41.5340   28.4360   40.0220 C   0  0  0  0  0  0  0  0  0  0  0  0
   40.5190   27.8800   40.8060 C   0  0  0  0  0  0  0  0  0  0  0  0
   43.3220   30.9960   39.2440 H   0  0  0  0  0  0  0  0  0  0  0  0
   39.9220   31.9880   46.4210 O   0  0  0  0  0  0  0  0  0  0  0  0
   38.1220   31.3900   47.9290 C   0  0  0  0  0  0  0  0  0  0  0  0
   37.2720   31.5910   49.0030 C   0  0  0  0  0  0  0  0  0  0  0  0
   37.4800   32.7950   49.6830 C   0  0  0  0  0  0  0  0  0  0  0  0
   38.4680   33.7060   49.2920 C   0  0  0  0  0  0  0  0  0  0  0  0
   39.2840   33.4050   48.1790 C   0  0  0  0  0  0  0  0  0  0  0  0
   39.0880   32.2090   47.4930 C   0  0  0  0  0  0  0  0  0  0  0  0
   36.8380   33.0010   50.5350 H   0  0  0  0  0  0  0  0  0  0  0  0
   38.6020   34.6250   49.8380 H   0  0  0  0  0  0  0  0  0  0  0  0
   40.0410   34.1120   47.8880 H   0  0  0  0  0  0  0  0  0  0  0  0
   35.1470   30.4610   48.6100 C   0  0  0  0  0  0  0  0  0  0  0  0
   36.2650   30.6690   49.4060 C   0  0  0  0  0  0  0  0  0  0  0  0
   36.3480   29.9390   50.6050 C   0  0  0  0  0  0  0  0  0  0  0  0
   35.3440   29.0800   50.9180 N   0  0  0  0  0  0  0  0  0  0  0  0
   34.2690   28.9120   50.1020 C   0  0  0  0  0  0  0  0  0  0  0  0
   34.1800   29.6010   48.9600 N   0  0  0  0  0  0  0  0  0  0  0  0
   34.9870   30.9710   47.6710 H   0  0  0  0  0  0  0  0  0  0  0  0
   33.5870   28.1820   50.5370 H   0  0  0  0  0  0  0  0  0  0  0  0
   37.5220   30.1190   51.5010 C   0  0  0  0  0  0  0  0  0  0  0  0
   38.3690   29.4780   51.1870 H   0  0  0  0  0  0  0  0  0  0  0  0
   37.2400   29.8460   52.5400 H   0  0  0  0  0  0  0  0  0  0  0  0
   37.7690   31.1900   51.5230 H   0  0  0  0  0  0  0  0  0  0  0  0
   37.9910   30.2140   47.1880 O   0  0  0  0  0  0  0  0  0  0  0  0
   38.7670   29.5920   47.1770 H   0  0  0  0  0  0  0  0  0  0  0  0
  1 10  1  0  0  0  0
  1  2  1  0  0  0  0
  2 26  1  0  0  0  0
  3  2  2  0  0  0  0
  3 11  1  0  0  0  0
  4  3  1  0  0  0  0
  5 12  1  0  0  0  0
  5  4  1  0  0  0  0
  6  5  1  0  0  0  0
  7  6  2  0  0  0  0
  7  8  1  0  0  0  0
  8  9  1  0  0  0  0
  8  4  2  0  0  0  0
  9  1  2  0  0  0  0
 13  6  1  0  0  0  0
 14 15  1  0  0  0  0
 15  9  1  0  0  0  0
 16 17  1  0  0  0  0
 16 15  2  0  0  0  0
 18 16  1  0  0  0  0
 19 18  1  0  0  0  0
 20 22  2  0  0  0  0
 20 19  1  0  0  0  0
 21 20  1  0  0  0  0
 22 23  1  0  0  0  0
 23 18  2  0  0  0  0
 23 24  1  0  0  0  0
 24 14  2  0  0  0  0
 25 19  1  0  0  0  0
 26 32  1  0  0  0  0
 27 28  1  0  0  0  0
 28 37  1  0  0  0  0
 28 29  2  0  0  0  0
 29 33  1  0  0  0  0
 30 29  1  0  0  0  0
 30 34  1  0  0  0  0
 31 30  2  0  0  0  0
 32 27  2  0  0  0  0
 32 31  1  0  0  0  0
 35 31  1  0  0  0  0
 36 41  2  0  0  0  0
 36 37  1  0  0  0  0
 37 38  2  0  0  0  0
 38 39  1  0  0  0  0
 38 44  1  0  0  0  0
 40 43  1  0  0  0  0
 40 39  2  0  0  0  0
 41 40  1  0  0  0  0
 42 36  1  0  0  0  0
 44 47  1  0  0  0  0
 44 46  1  0  0  0  0
 45 44  1  0  0  0  0
 48 27  1  0  0  0  0
 49 48  1  0  0  0  0
M  END
>  <minimizedAffinity>
-8.10043907

>  <minimizedRMSD>
0.976694942

$$$$
