
 OpenBabel03272507493D

 49 54  0  0  1  0  0  0  0  0999 V2000
   37.4900   27.4010   31.4140 N   0  0  0  0  0  0  0  0  0  0  0  0
   36.8520   26.1590   31.1450 C   0  0  0  0  0  0  0  0  0  0  0  0
   36.9700   25.1070   32.1790 C   0  0  0  0  0  0  0  0  0  0  0  0
   38.2340   25.0220   32.9060 C   0  0  1  0  0  0  0  0  0  0  0  0
   38.9060   26.3930   33.0930 C   0  0  0  0  0  0  0  0  0  0  0  0
   38.8710   27.1110   31.7390 C   0  0  0  0  0  0  0  0  0  0  0  0
   35.7830   26.3710   30.9140 H   0  0  0  0  0  0  0  0  0  0  0  0
   37.2580   25.7750   30.1630 H   0  0  0  0  0  0  0  0  0  0  0  0
   36.1770   25.4320   32.9330 H   0  0  0  0  0  0  0  0  0  0  0  0
   36.6270   24.1390   31.7790 H   0  0  0  0  0  0  0  0  0  0  0  0
   38.9910   24.4370   32.3250 H   0  0  0  0  0  0  0  0  0  0  0  0
   39.9730   26.2670   33.3470 H   0  0  0  0  0  0  0  0  0  0  0  0
   38.3320   27.0260   33.7750 H   0  0  0  0  0  0  0  0  0  0  0  0
   39.3770   26.4740   30.9780 H   0  0  0  0  0  0  0  0  0  0  0  0
   39.4380   28.0480   31.7710 H   0  0  0  0  0  0  0  0  0  0  0  0
   38.0310   23.0760   34.3890 C   0  0  0  0  0  0  0  0  0  0  0  0
   38.1400   24.4510   34.2720 C   0  0  0  0  0  0  0  0  0  0  0  0
   38.1340   25.3040   35.3440 C   0  0  0  0  0  0  0  0  0  0  0  0
   38.0110   24.7500   36.6160 C   0  0  0  0  0  0  0  0  0  0  0  0
   37.9010   23.3860   36.7270 C   0  0  0  0  0  0  0  0  0  0  0  0
   37.9070   22.5160   35.6410 C   0  0  0  0  0  0  0  0  0  0  0  0
   37.7850   23.0190   38.0800 O   0  0  0  0  0  0  0  0  0  0  0  0
   38.1880   24.1820   38.7980 C   0  0  0  0  0  0  0  0  0  0  0  0
   37.9650   25.2560   37.9180 O   0  0  0  0  0  0  0  0  0  0  0  0
   38.0360   22.3070   33.6280 H   0  0  0  0  0  0  0  0  0  0  0  0
   38.2210   26.3600   35.2270 H   0  0  0  0  0  0  0  0  0  0  0  0
   37.8160   21.4400   35.8100 H   0  0  0  0  0  0  0  0  0  0  0  0
   37.5410   24.3530   39.6920 H   0  0  0  0  0  0  0  0  0  0  0  0
   39.2620   24.0890   39.0740 H   0  0  0  0  0  0  0  0  0  0  0  0
   36.9180   28.7120   31.3750 C   0  0  0  0  0  0  0  0  0  0  0  0
   36.8900   29.5620   30.2750 C   0  0  0  0  0  0  0  0  0  0  0  0
   36.2750   30.7850   30.4320 C   0  0  0  0  0  0  0  0  0  0  0  0
   35.7310   31.1010   31.6380 N   0  0  0  0  0  0  0  0  0  0  0  0
   35.7700   30.2640   32.6890 C   0  0  0  0  0  0  0  0  0  0  0  0
   36.3690   29.0740   32.5350 N   0  0  0  0  0  0  0  0  0  0  0  0
   37.3550   29.1850   29.3860 H   0  0  0  0  0  0  0  0  0  0  0  0
   36.2640   31.4270   29.5670 H   0  0  0  0  0  0  0  0  0  0  0  0
   35.9030   31.4270   34.8460 C   0  0  0  0  0  3  0  0  0  0  0  0
   35.1700   30.6490   33.9700 C   0  0  0  0  0  0  0  0  0  0  0  0
   33.8860   30.2330   34.2870 C   0  0  0  0  0  0  0  0  0  0  0  0
   33.3270   29.6220   33.5860 H   0  0  0  0  0  0  0  0  0  0  0  0
   33.3340   30.6030   35.4970 C   0  0  0  0  0  0  0  0  0  0  0  0
   32.1160   30.3030   35.9840 N   0  0  0  0  0  0  0  0  0  0  0  0
   32.0980   30.9190   37.2020 C   0  0  0  0  0  0  0  0  0  0  0  0
   31.3230   30.9500   37.9440 H   0  0  0  0  0  0  0  0  0  0  0  0
   33.2460   31.5520   37.4300 N   0  0  0  0  0  0  0  0  0  0  0  0
   34.0460   31.3800   36.3880 C   0  0  0  0  0  0  0  0  0  0  0  0
   35.3400   31.7970   36.0650 C   0  0  0  0  0  3  0  0  0  0  0  0
   31.3160   29.7490   35.6050 H   0  0  0  0  0  0  0  0  0  0  0  0
  1  6  1  0  0  0  0
  2  1  1  0  0  0  0
  2  3  1  0  0  0  0
  3  4  1  0  0  0  0
  3  9  1  0  0  0  0
  4 11  1  6  0  0  0
  4  5  1  0  0  0  0
  4 17  1  0  0  0  0
  5 12  1  0  0  0  0
  5 13  1  0  0  0  0
  6 15  1  0  0  0  0
  6  5  1  0  0  0  0
  7  2  1  0  0  0  0
  8  2  1  0  0  0  0
 10  3  1  0  0  0  0
 14  6  1  0  0  0  0
 16 21  1  0  0  0  0
 17 16  2  0  0  0  0
 17 18  1  0  0  0  0
 18 19  2  0  0  0  0
 19 20  1  0  0  0  0
 19 24  1  0  0  0  0
 20 22  1  0  0  0  0
 21 27  1  0  0  0  0
 21 20  2  0  0  0  0
 22 23  1  0  0  0  0
 23 29  1  0  0  0  0
 23 28  1  0  0  0  0
 24 23  1  0  0  0  0
 25 16  1  0  0  0  0
 26 18  1  0  0  0  0
 30  1  1  0  0  0  0
 30 35  1  0  0  0  0
 31 32  1  0  0  0  0
 31 30  2  0  0  0  0
 32 33  2  0  0  0  0
 33 34  1  0  0  0  0
 34 39  1  0  0  0  0
 35 34  2  0  0  0  0
 36 31  1  0  0  0  0
 37 32  1  0  0  0  0
 38 48  1  0  0  0  0
 39 40  1  0  0  0  0
 39 38  2  0  0  0  0
 40 42  2  0  0  0  0
 41 40  1  0  0  0  0
 42 43  1  0  0  0  0
 42 47  1  0  0  0  0
 43 44  1  0  0  0  0
 44 46  2  0  0  0  0
 44 45  1  0  0  0  0
 47 46  1  0  0  0  0
 48 47  2  0  0  0  0
 49 43  1  0  0  0  0
M  END
>  <minimizedAffinity>
-6.89375877

$$$$

 OpenBabel03272507493D

 49 54  0  0  1  0  0  0  0  0999 V2000
   37.4940   25.9670   34.0490 N   0  0  0  0  0  0  0  0  0  0  0  0
   37.5240   25.6670   35.4390 C   0  0  0  0  0  0  0  0  0  0  0  0
   38.8010   25.1580   35.9890 C   0  0  0  0  0  0  0  0  0  0  0  0
   39.5910   24.2740   35.1360 C   0  0  1  0  0  0  0  0  0  0  0  0
   39.4520   24.6080   33.6410 C   0  0  0  0  0  0  0  0  0  0  0  0
   37.9580   24.7880   33.3470 C   0  0  0  0  0  0  0  0  0  0  0  0
   37.1890   26.5760   35.9880 H   0  0  0  0  0  0  0  0  0  0  0  0
   36.6990   24.9230   35.6420 H   0  0  0  0  0  0  0  0  0  0  0  0
   39.4010   26.1210   36.1110 H   0  0  0  0  0  0  0  0  0  0  0  0
   38.6480   24.7660   37.0060 H   0  0  0  0  0  0  0  0  0  0  0  0
   39.2230   23.2190   35.2030 H   0  0  0  0  0  0  0  0  0  0  0  0
   39.7860   23.7550   33.0230 H   0  0  0  0  0  0  0  0  0  0  0  0
   39.9140   25.5700   33.4040 H   0  0  0  0  0  0  0  0  0  0  0  0
   37.4160   23.8590   33.6420 H   0  0  0  0  0  0  0  0  0  0  0  0
   37.7750   24.9130   32.2740 H   0  0  0  0  0  0  0  0  0  0  0  0
   41.5760   23.2600   36.1630 C   0  0  0  0  0  0  0  0  0  0  0  0
   41.0520   24.2850   35.3970 C   0  0  0  0  0  0  0  0  0  0  0  0
   41.8030   25.3160   34.8970 C   0  0  0  0  0  0  0  0  0  0  0  0
   43.1660   25.3260   35.1820 C   0  0  0  0  0  0  0  0  0  0  0  0
   43.6820   24.3080   35.9440 C   0  0  0  0  0  0  0  0  0  0  0  0
   42.9230   23.2580   36.4530 C   0  0  0  0  0  0  0  0  0  0  0  0
   45.0650   24.4910   36.1250 O   0  0  0  0  0  0  0  0  0  0  0  0
   45.4240   25.4620   35.1440 C   0  0  0  0  0  0  0  0  0  0  0  0
   44.2380   26.1670   34.8710 O   0  0  0  0  0  0  0  0  0  0  0  0
   41.0930   22.3950   36.5980 H   0  0  0  0  0  0  0  0  0  0  0  0
   41.3740   26.0940   34.3070 H   0  0  0  0  0  0  0  0  0  0  0  0
   43.4060   22.4830   37.0530 H   0  0  0  0  0  0  0  0  0  0  0  0
   46.1560   26.1990   35.5520 H   0  0  0  0  0  0  0  0  0  0  0  0
   45.8140   24.9430   34.2410 H   0  0  0  0  0  0  0  0  0  0  0  0
   37.0860   27.1850   33.4190 C   0  0  0  0  0  0  0  0  0  0  0  0
   37.2900   27.5260   32.0870 C   0  0  0  0  0  0  0  0  0  0  0  0
   36.8060   28.7440   31.6620 C   0  0  0  0  0  0  0  0  0  0  0  0
   36.1600   29.5460   32.5510 N   0  0  0  0  0  0  0  0  0  0  0  0
   35.9740   29.1960   33.8360 C   0  0  0  0  0  0  0  0  0  0  0  0
   36.4470   28.0100   34.2480 N   0  0  0  0  0  0  0  0  0  0  0  0
   37.8130   26.8010   31.4970 H   0  0  0  0  0  0  0  0  0  0  0  0
   36.9740   28.9890   30.6260 H   0  0  0  0  0  0  0  0  0  0  0  0
   36.0100   30.9620   35.5390 C   0  0  0  0  0  3  0  0  0  0  0  0
   35.2730   30.0930   34.7580 C   0  0  0  0  0  0  0  0  0  0  0  0
   33.8890   30.0620   34.8370 C   0  0  0  0  0  0  0  0  0  0  0  0
   33.3270   29.3720   34.2160 H   0  0  0  0  0  0  0  0  0  0  0  0
   33.2410   30.9120   35.7110 C   0  0  0  0  0  0  0  0  0  0  0  0
   31.9190   31.0320   35.9310 N   0  0  0  0  0  0  0  0  0  0  0  0
   31.8400   32.0090   36.8810 C   0  0  0  0  0  0  0  0  0  0  0  0
   30.9780   32.4330   37.3580 H   0  0  0  0  0  0  0  0  0  0  0  0
   33.0530   32.4490   37.2100 N   0  0  0  0  0  0  0  0  0  0  0  0
   33.9560   31.7890   36.5010 C   0  0  0  0  0  0  0  0  0  0  0  0
   35.3510   31.8180   36.4180 C   0  0  0  0  0  3  0  0  0  0  0  0
   31.0850   30.5480   35.5300 H   0  0  0  0  0  0  0  0  0  0  0  0
  1  2  1  0  0  0  0
  2  8  1  0  0  0  0
  2  7  1  0  0  0  0
  2  3  1  0  0  0  0
  3  9  1  0  0  0  0
  3 10  1  0  0  0  0
  4 11  1  1  0  0  0
  4 17  1  0  0  0  0
  4  3  1  0  0  0  0
  5  4  1  0  0  0  0
  6  5  1  0  0  0  0
  6 14  1  0  0  0  0
  6  1  1  0  0  0  0
 12  5  1  0  0  0  0
 13  5  1  0  0  0  0
 15  6  1  0  0  0  0
 16 21  1  0  0  0  0
 16 25  1  0  0  0  0
 17 16  2  0  0  0  0
 18 19  2  0  0  0  0
 18 17  1  0  0  0  0
 19 20  1  0  0  0  0
 20 22  1  0  0  0  0
 20 21  2  0  0  0  0
 21 27  1  0  0  0  0
 23 28  1  0  0  0  0
 23 22  1  0  0  0  0
 24 23  1  0  0  0  0
 24 19  1  0  0  0  0
 26 18  1  0  0  0  0
 29 23  1  0  0  0  0
 30  1  1  0  0  0  0
 30 35  1  0  0  0  0
 31 30  2  0  0  0  0
 32 31  1  0  0  0  0
 32 33  2  0  0  0  0
 33 34  1  0  0  0  0
 34 35  2  0  0  0  0
 34 39  1  0  0  0  0
 36 31  1  0  0  0  0
 37 32  1  0  0  0  0
 38 48  1  0  0  0  0
 39 40  1  0  0  0  0
 39 38  2  0  0  0  0
 40 42  2  0  0  0  0
 41 40  1  0  0  0  0
 42 43  1  0  0  0  0
 42 47  1  0  0  0  0
 43 44  1  0  0  0  0
 44 46  2  0  0  0  0
 44 45  1  0  0  0  0
 47 46  1  0  0  0  0
 48 47  2  0  0  0  0
 49 43  1  0  0  0  0
M  END
>  <minimizedAffinity>
-6.81327105

$$$$

 OpenBabel03272507493D

 49 54  0  0  1  0  0  0  0  0999 V2000
   37.1610   27.1880   30.9560 N   0  0  0  0  0  0  0  0  0  0  0  0
   37.0830   28.3320   30.1150 C   0  0  0  0  0  0  0  0  0  0  0  0
   36.6690   29.6040   30.7480 C   0  0  0  0  0  0  0  0  0  0  0  0
   35.6620   29.5280   31.8030 C   0  0  1  0  0  0  0  0  0  0  0  0
   35.7560   28.2310   32.6240 C   0  0  0  0  0  0  0  0  0  0  0  0
   35.8860   27.0680   31.6330 C   0  0  0  0  0  0  0  0  0  0  0  0
   38.0680   28.4440   29.6060 H   0  0  0  0  0  0  0  0  0  0  0  0
   36.3800   28.0810   29.2670 H   0  0  0  0  0  0  0  0  0  0  0  0
   37.6390   29.9450   31.2420 H   0  0  0  0  0  0  0  0  0  0  0  0
   36.4410   30.3570   29.9770 H   0  0  0  0  0  0  0  0  0  0  0  0
   34.6300   29.4890   31.3700 H   0  0  0  0  0  0  0  0  0  0  0  0
   34.8170   28.0580   33.1800 H   0  0  0  0  0  0  0  0  0  0  0  0
   36.6690   28.2070   33.2250 H   0  0  0  0  0  0  0  0  0  0  0  0
   35.0160   27.0850   30.9380 H   0  0  0  0  0  0  0  0  0  0  0  0
   35.8410   26.1000   32.1460 H   0  0  0  0  0  0  0  0  0  0  0  0
   36.1410   31.8660   32.3790 C   0  0  0  0  0  0  0  0  0  0  0  0
   35.7140   30.6210   32.8060 C   0  0  0  0  0  0  0  0  0  0  0  0
   35.3690   30.3430   34.1020 C   0  0  0  0  0  0  0  0  0  0  0  0
   35.4580   31.3740   35.0340 C   0  0  0  0  0  0  0  0  0  0  0  0
   35.8830   32.6070   34.6070 C   0  0  0  0  0  0  0  0  0  0  0  0
   36.2340   32.8940   33.2910 C   0  0  0  0  0  0  0  0  0  0  0  0
   35.9090   33.5110   35.6850 O   0  0  0  0  0  0  0  0  0  0  0  0
   35.1420   32.8700   36.7010 C   0  0  0  0  0  0  0  0  0  0  0  0
   35.2070   31.4970   36.4040 O   0  0  0  0  0  0  0  0  0  0  0  0
   36.4240   32.2070   31.3920 H   0  0  0  0  0  0  0  0  0  0  0  0
   35.0420   29.3750   34.4050 H   0  0  0  0  0  0  0  0  0  0  0  0
   36.5640   33.9020   33.0270 H   0  0  0  0  0  0  0  0  0  0  0  0
   35.6050   33.0090   37.7070 H   0  0  0  0  0  0  0  0  0  0  0  0
   34.0980   33.2520   36.6680 H   0  0  0  0  0  0  0  0  0  0  0  0
   38.2640   26.2940   31.1280 C   0  0  0  0  0  0  0  0  0  0  0  0
   39.1980   25.9500   30.1580 C   0  0  0  0  0  0  0  0  0  0  0  0
   40.2030   25.0800   30.5220 C   0  0  0  0  0  0  0  0  0  0  0  0
   40.2360   24.6050   31.7960 N   0  0  0  0  0  0  0  0  0  0  0  0
   39.3210   24.9510   32.7200 C   0  0  0  0  0  0  0  0  0  0  0  0
   38.3440   25.7960   32.3630 N   0  0  0  0  0  0  0  0  0  0  0  0
   39.0540   26.3980   29.1950 H   0  0  0  0  0  0  0  0  0  0  0  0
   40.9170   24.8270   29.7550 H   0  0  0  0  0  0  0  0  0  0  0  0
   40.5350   23.7330   34.4700 C   0  0  0  0  0  3  0  0  0  0  0  0
   39.3970   24.4120   34.0800 C   0  0  0  0  0  0  0  0  0  0  0  0
   38.3360   24.5890   34.9560 C   0  0  0  0  0  0  0  0  0  0  0  0
   37.4510   25.1250   34.6310 H   0  0  0  0  0  0  0  0  0  0  0  0
   38.4210   24.0760   36.2340 C   0  0  0  0  0  0  0  0  0  0  0  0
   37.5080   24.1420   37.2210 N   0  0  0  0  0  0  0  0  0  0  0  0
   38.1050   23.4800   38.2540 C   0  0  0  0  0  0  0  0  0  0  0  0
   37.7420   23.2850   39.2450 H   0  0  0  0  0  0  0  0  0  0  0  0
   39.3120   23.0410   37.9020 N   0  0  0  0  0  0  0  0  0  0  0  0
   39.5470   23.3940   36.6470 C   0  0  0  0  0  0  0  0  0  0  0  0
   40.6140   23.2190   35.7620 C   0  0  0  0  0  3  0  0  0  0  0  0
   36.5560   24.5670   37.2810 H   0  0  0  0  0  0  0  0  0  0  0  0
  1 30  1  0  0  0  0
  1  6  1  0  0  0  0
  2  3  1  0  0  0  0
  2  1  1  0  0  0  0
  3  9  1  0  0  0  0
  3  4  1  0  0  0  0
  4 11  1  6  0  0  0
  4  5  1  0  0  0  0
  4 17  1  0  0  0  0
  5 12  1  0  0  0  0
  5 13  1  0  0  0  0
  6 15  1  0  0  0  0
  6  5  1  0  0  0  0
  7  2  1  0  0  0  0
  8  2  1  0  0  0  0
 10  3  1  0  0  0  0
 14  6  1  0  0  0  0
 16 17  2  0  0  0  0
 16 21  1  0  0  0  0
 17 18  1  0  0  0  0
 18 26  1  0  0  0  0
 18 19  2  0  0  0  0
 19 24  1  0  0  0  0
 20 19  1  0  0  0  0
 20 22  1  0  0  0  0
 21 20  2  0  0  0  0
 22 23  1  0  0  0  0
 23 28  1  0  0  0  0
 24 23  1  0  0  0  0
 25 16  1  0  0  0  0
 27 21  1  0  0  0  0
 29 23  1  0  0  0  0
 30 35  1  0  0  0  0
 31 32  1  0  0  0  0
 31 30  2  0  0  0  0
 32 33  2  0  0  0  0
 33 34  1  0  0  0  0
 34 39  1  0  0  0  0
 35 34  2  0  0  0  0
 36 31  1  0  0  0  0
 37 32  1  0  0  0  0
 38 48  1  0  0  0  0
 39 38  2  0  0  0  0
 39 40  1  0  0  0  0
 40 42  2  0  0  0  0
 41 40  1  0  0  0  0
 42 47  1  0  0  0  0
 42 43  1  0  0  0  0
 43 49  1  0  0  0  0
 43 44  1  0  0  0  0
 44 45  1  0  0  0  0
 46 44  2  0  0  0  0
 47 46  1  0  0  0  0
 48 47  2  0  0  0  0
M  END
>  <minimizedAffinity>
-6.6862402

$$$$

 OpenBabel03272507493D

 49 54  0  0  1  0  0  0  0  0999 V2000
   36.9750   27.5770   34.1280 N   0  0  0  0  0  0  0  0  0  0  0  0
   37.5680   27.4660   35.4160 C   0  0  0  0  0  0  0  0  0  0  0  0
   39.0220   27.1940   35.4640 C   0  0  0  0  0  0  0  0  0  0  0  0
   39.5710   26.3100   34.4390 C   0  0  1  0  0  0  0  0  0  0  0  0
   38.8340   26.4270   33.0940 C   0  0  0  0  0  0  0  0  0  0  0  0
   37.3300   26.3820   33.3890 C   0  0  0  0  0  0  0  0  0  0  0  0
   37.3180   28.3910   35.9840 H   0  0  0  0  0  0  0  0  0  0  0  0
   37.0110   26.6590   35.9760 H   0  0  0  0  0  0  0  0  0  0  0  0
   39.4590   28.2310   35.2750 H   0  0  0  0  0  0  0  0  0  0  0  0
   39.3240   26.9210   36.4880 H   0  0  0  0  0  0  0  0  0  0  0  0
   39.4320   25.2360   34.7210 H   0  0  0  0  0  0  0  0  0  0  0  0
   39.0490   25.5490   32.4600 H   0  0  0  0  0  0  0  0  0  0  0  0
   39.0110   27.4000   32.6280 H   0  0  0  0  0  0  0  0  0  0  0  0
   37.0960   25.4410   33.9380 H   0  0  0  0  0  0  0  0  0  0  0  0
   36.7430   26.3440   32.4650 H   0  0  0  0  0  0  0  0  0  0  0  0
   41.2990   27.4410   33.1120 C   0  0  0  0  0  0  0  0  0  0  0  0
   41.0020   26.5340   34.1130 C   0  0  0  0  0  0  0  0  0  0  0  0
   41.9520   25.8170   34.7910 C   0  0  0  0  0  0  0  0  0  0  0  0
   43.2860   26.0170   34.4470 C   0  0  0  0  0  0  0  0  0  0  0  0
   43.5770   26.9160   33.4520 C   0  0  0  0  0  0  0  0  0  0  0  0
   42.6150   27.6480   32.7610 C   0  0  0  0  0  0  0  0  0  0  0  0
   44.9680   26.9790   33.2470 O   0  0  0  0  0  0  0  0  0  0  0  0
   45.5230   26.3500   34.3990 C   0  0  0  0  0  0  0  0  0  0  0  0
   44.5110   25.5020   34.8820 O   0  0  0  0  0  0  0  0  0  0  0  0
   40.6460   28.0690   32.5210 H   0  0  0  0  0  0  0  0  0  0  0  0
   41.6960   25.1250   35.5600 H   0  0  0  0  0  0  0  0  0  0  0  0
   42.9250   28.3470   31.9800 H   0  0  0  0  0  0  0  0  0  0  0  0
   46.3910   25.7020   34.1290 H   0  0  0  0  0  0  0  0  0  0  0  0
   45.8010   27.1290   35.1430 H   0  0  0  0  0  0  0  0  0  0  0  0
   36.1690   28.6430   33.6180 C   0  0  0  0  0  0  0  0  0  0  0  0
   35.7680   28.8080   32.2970 C   0  0  0  0  0  0  0  0  0  0  0  0
   34.9760   29.8960   32.0040 C   0  0  0  0  0  0  0  0  0  0  0  0
   34.6260   30.7480   33.0050 N   0  0  0  0  0  0  0  0  0  0  0  0
   35.0260   30.5700   34.2760 C   0  0  0  0  0  0  0  0  0  0  0  0
   35.7970   29.5110   34.5600 N   0  0  0  0  0  0  0  0  0  0  0  0
   36.1150   28.0610   31.6100 H   0  0  0  0  0  0  0  0  0  0  0  0
   34.6760   30.0040   30.9740 H   0  0  0  0  0  0  0  0  0  0  0  0
   33.6780   31.1250   36.2500 C   0  0  0  0  0  3  0  0  0  0  0  0
   34.6240   31.5150   35.3220 C   0  0  0  0  0  0  0  0  0  0  0  0
   35.1920   32.7790   35.3700 C   0  0  0  0  0  0  0  0  0  0  0  0
   35.9340   33.0670   34.6320 H   0  0  0  0  0  0  0  0  0  0  0  0
   34.8050   33.6580   36.3600 C   0  0  0  0  0  0  0  0  0  0  0  0
   35.2340   34.9160   36.5730 N   0  0  0  0  0  0  0  0  0  0  0  0
   34.5280   35.3140   37.6710 C   0  0  0  0  0  0  0  0  0  0  0  0
   34.5470   36.2490   38.1980 H   0  0  0  0  0  0  0  0  0  0  0  0
   33.7180   34.3440   38.0910 N   0  0  0  0  0  0  0  0  0  0  0  0
   33.8620   33.2920   37.2990 C   0  0  0  0  0  0  0  0  0  0  0  0
   33.2920   32.0170   37.2470 C   0  0  0  0  0  3  0  0  0  0  0  0
   35.9270   35.5230   36.0820 H   0  0  0  0  0  0  0  0  0  0  0  0
  1  2  1  0  0  0  0
  2  3  1  0  0  0  0
  2  8  1  0  0  0  0
  2  7  1  0  0  0  0
  3 10  1  0  0  0  0
  4 11  1  1  0  0  0
  4  3  1  0  0  0  0
  5  6  1  0  0  0  0
  5  4  1  0  0  0  0
  6 14  1  0  0  0  0
  6  1  1  0  0  0  0
  9  3  1  0  0  0  0
 12  5  1  0  0  0  0
 13  5  1  0  0  0  0
 15  6  1  0  0  0  0
 16 17  1  0  0  0  0
 17  4  1  0  0  0  0
 17 18  2  0  0  0  0
 18 26  1  0  0  0  0
 19 18  1  0  0  0  0
 19 24  1  0  0  0  0
 20 19  2  0  0  0  0
 21 16  2  0  0  0  0
 21 20  1  0  0  0  0
 22 20  1  0  0  0  0
 22 23  1  0  0  0  0
 23 24  1  0  0  0  0
 23 29  1  0  0  0  0
 25 16  1  0  0  0  0
 27 21  1  0  0  0  0
 28 23  1  0  0  0  0
 30  1  1  0  0  0  0
 30 35  1  0  0  0  0
 31 30  2  0  0  0  0
 32 31  1  0  0  0  0
 32 33  2  0  0  0  0
 33 34  1  0  0  0  0
 34 35  2  0  0  0  0
 34 39  1  0  0  0  0
 36 31  1  0  0  0  0
 37 32  1  0  0  0  0
 38 48  1  0  0  0  0
 39 40  1  0  0  0  0
 39 38  2  0  0  0  0
 40 42  2  0  0  0  0
 41 40  1  0  0  0  0
 42 43  1  0  0  0  0
 42 47  1  0  0  0  0
 43 44  1  0  0  0  0
 44 46  2  0  0  0  0
 44 45  1  0  0  0  0
 47 46  1  0  0  0  0
 48 47  2  0  0  0  0
 49 43  1  0  0  0  0
M  END
>  <minimizedAffinity>
-6.56371021

$$$$

 OpenBabel03272507493D

 49 54  0  0  1  0  0  0  0  0999 V2000
   38.2840   26.0210   35.5710 N   0  0  0  0  0  0  0  0  0  0  0  0
   37.1800   26.2380   34.7000 C   0  0  0  0  0  0  0  0  0  0  0  0
   37.4860   26.4530   33.2680 C   0  0  0  0  0  0  0  0  0  0  0  0
   38.6980   27.2030   32.9490 C   0  0  1  0  0  0  0  0  0  0  0  0
   39.8240   26.9810   33.9740 C   0  0  0  0  0  0  0  0  0  0  0  0
   39.2080   27.1180   35.3710 C   0  0  0  0  0  0  0  0  0  0  0  0
   36.4730   25.3870   34.8320 H   0  0  0  0  0  0  0  0  0  0  0  0
   36.6000   27.1200   35.1020 H   0  0  0  0  0  0  0  0  0  0  0  0
   37.6550   25.3840   32.9040 H   0  0  0  0  0  0  0  0  0  0  0  0
   36.5920   26.8150   32.7370 H   0  0  0  0  0  0  0  0  0  0  0  0
   38.5110   28.3060   33.0020 H   0  0  0  0  0  0  0  0  0  0  0  0
   40.5820   27.7800   33.8920 H   0  0  0  0  0  0  0  0  0  0  0  0
   40.2090   25.9590   33.9230 H   0  0  0  0  0  0  0  0  0  0  0  0
   38.7260   28.1190   35.4580 H   0  0  0  0  0  0  0  0  0  0  0  0
   39.9770   27.0870   36.1510 H   0  0  0  0  0  0  0  0  0  0  0  0
   40.3530   25.9820   31.6100 C   0  0  0  0  0  0  0  0  0  0  0  0
   39.3080   26.8880   31.6340 C   0  0  0  0  0  0  0  0  0  0  0  0
   38.8340   27.5250   30.5180 C   0  0  0  0  0  0  0  0  0  0  0  0
   39.4420   27.2400   29.2980 C   0  0  0  0  0  0  0  0  0  0  0  0
   40.4800   26.3420   29.2790 C   0  0  0  0  0  0  0  0  0  0  0  0
   40.9650   25.6920   30.4100 C   0  0  0  0  0  0  0  0  0  0  0  0
   40.9630   26.1880   27.9660 O   0  0  0  0  0  0  0  0  0  0  0  0
   39.9440   26.7550   27.1460 C   0  0  0  0  0  0  0  0  0  0  0  0
   39.2620   27.6620   27.9770 O   0  0  0  0  0  0  0  0  0  0  0  0
   40.8030   25.4110   32.4120 H   0  0  0  0  0  0  0  0  0  0  0  0
   38.0260   28.2190   30.5630 H   0  0  0  0  0  0  0  0  0  0  0  0
   41.7960   24.9880   30.3150 H   0  0  0  0  0  0  0  0  0  0  0  0
   40.3820   27.3470   26.3070 H   0  0  0  0  0  0  0  0  0  0  0  0
   39.2760   25.9450   26.7800 H   0  0  0  0  0  0  0  0  0  0  0  0
   38.4820   24.9430   36.4900 C   0  0  0  0  0  0  0  0  0  0  0  0
   37.6220   24.5740   37.5180 C   0  0  0  0  0  0  0  0  0  0  0  0
   37.9820   23.4910   38.2900 C   0  0  0  0  0  0  0  0  0  0  0  0
   39.1450   22.8410   38.0160 N   0  0  0  0  0  0  0  0  0  0  0  0
   39.9620   23.2150   37.0160 C   0  0  0  0  0  0  0  0  0  0  0  0
   39.6110   24.2690   36.2660 N   0  0  0  0  0  0  0  0  0  0  0  0
   36.7400   25.1730   37.6220 H   0  0  0  0  0  0  0  0  0  0  0  0
   37.3020   23.2220   39.0810 H   0  0  0  0  0  0  0  0  0  0  0  0
   42.1540   23.0460   35.9250 C   0  0  0  0  0  3  0  0  0  0  0  0
   41.2060   22.4830   36.7580 C   0  0  0  0  0  0  0  0  0  0  0  0
   41.4170   21.2450   37.3460 C   0  0  0  0  0  0  0  0  0  0  0  0
   40.6600   20.8200   37.9960 H   0  0  0  0  0  0  0  0  0  0  0  0
   42.5930   20.5680   37.0940 C   0  0  0  0  0  0  0  0  0  0  0  0
   42.9810   19.3680   37.5640 N   0  0  0  0  0  0  0  0  0  0  0  0
   44.2110   19.1870   37.0020 C   0  0  0  0  0  0  0  0  0  0  0  0
   44.8950   18.3660   37.0980 H   0  0  0  0  0  0  0  0  0  0  0  0
   44.5400   20.2240   36.2350 N   0  0  0  0  0  0  0  0  0  0  0  0
   43.5550   21.1100   36.2660 C   0  0  0  0  0  0  0  0  0  0  0  0
   43.3380   22.3580   35.6750 C   0  0  0  0  0  3  0  0  0  0  0  0
   42.5300   18.6750   38.2020 H   0  0  0  0  0  0  0  0  0  0  0  0
  1 30  1  0  0  0  0
  2  7  1  0  0  0  0
  2  8  1  0  0  0  0
  2  1  1  0  0  0  0
  3  2  1  0  0  0  0
  4 11  1  1  0  0  0
  4  3  1  0  0  0  0
  4  5  1  0  0  0  0
  5  6  1  0  0  0  0
  6 14  1  0  0  0  0
  6  1  1  0  0  0  0
  6 15  1  0  0  0  0
  9  3  1  0  0  0  0
 10  3  1  0  0  0  0
 12  5  1  0  0  0  0
 13  5  1  0  0  0  0
 16 17  1  0  0  0  0
 16 25  1  0  0  0  0
 17  4  1  0  0  0  0
 18 26  1  0  0  0  0
 18 17  2  0  0  0  0
 19 18  1  0  0  0  0
 20 19  2  0  0  0  0
 20 21  1  0  0  0  0
 21 16  2  0  0  0  0
 22 20  1  0  0  0  0
 23 22  1  0  0  0  0
 23 24  1  0  0  0  0
 24 19  1  0  0  0  0
 27 21  1  0  0  0  0
 28 23  1  0  0  0  0
 29 23  1  0  0  0  0
 30 31  1  0  0  0  0
 31 36  1  0  0  0  0
 31 32  2  0  0  0  0
 32 37  1  0  0  0  0
 33 32  1  0  0  0  0
 34 33  2  0  0  0  0
 35 30  2  0  0  0  0
 35 34  1  0  0  0  0
 38 39  1  0  0  0  0
 39 34  1  0  0  0  0
 39 40  2  0  0  0  0
 40 41  1  0  0  0  0
 42 40  1  0  0  0  0
 42 43  1  0  0  0  0
 43 49  1  0  0  0  0
 44 45  1  0  0  0  0
 44 43  1  0  0  0  0
 46 47  1  0  0  0  0
 46 44  2  0  0  0  0
 47 42  2  0  0  0  0
 48 38  2  0  0  0  0
 48 47  1  0  0  0  0
M  END
>  <minimizedAffinity>
-6.54547501

$$$$

 OpenBabel03272507493D

 49 54  0  0  1  0  0  0  0  0999 V2000
   37.0420   28.2020   31.7530 N   0  0  0  0  0  0  0  0  0  0  0  0
   36.7860   29.3750   30.9900 C   0  0  0  0  0  0  0  0  0  0  0  0
   36.3010   30.5630   31.7280 C   0  0  0  0  0  0  0  0  0  0  0  0
   35.3940   30.3290   32.8490 C   0  0  1  0  0  0  0  0  0  0  0  0
   35.6810   29.0060   33.5810 C   0  0  0  0  0  0  0  0  0  0  0  0
   35.8440   27.9170   32.5150 C   0  0  0  0  0  0  0  0  0  0  0  0
   37.7100   29.6140   30.4170 H   0  0  0  0  0  0  0  0  0  0  0  0
   36.0450   29.0990   30.1840 H   0  0  0  0  0  0  0  0  0  0  0  0
   37.2690   30.9750   32.1680 H   0  0  0  0  0  0  0  0  0  0  0  0
   35.9390   31.3280   31.0230 H   0  0  0  0  0  0  0  0  0  0  0  0
   34.3400   30.2070   32.4930 H   0  0  0  0  0  0  0  0  0  0  0  0
   34.8110   28.7090   34.1940 H   0  0  0  0  0  0  0  0  0  0  0  0
   36.6370   29.0450   34.1090 H   0  0  0  0  0  0  0  0  0  0  0  0
   34.9230   27.8820   31.8880 H   0  0  0  0  0  0  0  0  0  0  0  0
   35.9350   26.9240   32.9700 H   0  0  0  0  0  0  0  0  0  0  0  0
   35.5240   30.9440   35.2220 C   0  0  0  0  0  0  0  0  0  0  0  0
   35.4190   31.3670   33.9090 C   0  0  0  0  0  0  0  0  0  0  0  0
   35.3090   32.6830   33.5450 C   0  0  0  0  0  0  0  0  0  0  0  0
   35.3010   33.6400   34.5560 C   0  0  0  0  0  0  0  0  0  0  0  0
   35.4030   33.2160   35.8580 C   0  0  0  0  0  0  0  0  0  0  0  0
   35.5160   31.8800   36.2320 C   0  0  0  0  0  0  0  0  0  0  0  0
   35.3750   34.3200   36.7300 O   0  0  0  0  0  0  0  0  0  0  0  0
   35.6130   35.4430   35.8860 C   0  0  0  0  0  0  0  0  0  0  0  0
   35.2090   35.0340   34.6030 O   0  0  0  0  0  0  0  0  0  0  0  0
   35.6290   29.9480   35.6290 H   0  0  0  0  0  0  0  0  0  0  0  0
   35.2310   32.9830   32.5250 H   0  0  0  0  0  0  0  0  0  0  0  0
   35.5940   31.6210   37.2910 H   0  0  0  0  0  0  0  0  0  0  0  0
   34.9680   36.3090   36.1710 H   0  0  0  0  0  0  0  0  0  0  0  0
   36.6940   35.7020   35.9170 H   0  0  0  0  0  0  0  0  0  0  0  0
   38.2390   27.4180   31.7870 C   0  0  0  0  0  0  0  0  0  0  0  0
   39.2390   27.4070   30.8220 C   0  0  0  0  0  0  0  0  0  0  0  0
   40.3270   26.5920   31.0440 C   0  0  0  0  0  0  0  0  0  0  0  0
   40.3740   25.8460   32.1800 N   0  0  0  0  0  0  0  0  0  0  0  0
   39.3950   25.8720   33.1020 C   0  0  0  0  0  0  0  0  0  0  0  0
   38.3360   26.6650   32.8840 N   0  0  0  0  0  0  0  0  0  0  0  0
   39.0740   28.0430   29.9760 H   0  0  0  0  0  0  0  0  0  0  0  0
   41.0910   26.5990   30.2830 H   0  0  0  0  0  0  0  0  0  0  0  0
   40.5610   24.1910   34.4570 C   0  0  0  0  0  3  0  0  0  0  0  0
   39.4890   25.0510   34.3110 C   0  0  0  0  0  0  0  0  0  0  0  0
   38.5110   25.1440   35.2900 C   0  0  0  0  0  0  0  0  0  0  0  0
   37.6770   25.8250   35.1580 H   0  0  0  0  0  0  0  0  0  0  0  0
   38.6130   24.3640   36.4250 C   0  0  0  0  0  0  0  0  0  0  0  0
   37.7750   24.3100   37.4770 N   0  0  0  0  0  0  0  0  0  0  0  0
   38.3520   23.3850   38.2980 C   0  0  0  0  0  0  0  0  0  0  0  0
   38.0290   23.0210   39.2550 H   0  0  0  0  0  0  0  0  0  0  0  0
   39.4750   22.9110   37.7630 N   0  0  0  0  0  0  0  0  0  0  0  0
   39.6740   23.4980   36.5920 C   0  0  0  0  0  0  0  0  0  0  0  0
   40.6570   23.4080   35.6040 C   0  0  0  0  0  3  0  0  0  0  0  0
   36.8850   24.8080   37.7030 H   0  0  0  0  0  0  0  0  0  0  0  0
  1 30  1  0  0  0  0
  1  6  1  0  0  0  0
  2  3  1  0  0  0  0
  2  1  1  0  0  0  0
  3  9  1  0  0  0  0
  3  4  1  0  0  0  0
  4 11  1  6  0  0  0
  4  5  1  0  0  0  0
  4 17  1  0  0  0  0
  5 13  1  0  0  0  0
  5 12  1  0  0  0  0
  6 15  1  0  0  0  0
  6  5  1  0  0  0  0
  7  2  1  0  0  0  0
  8  2  1  0  0  0  0
 10  3  1  0  0  0  0
 14  6  1  0  0  0  0
 16 25  1  0  0  0  0
 16 21  1  0  0  0  0
 17 16  2  0  0  0  0
 18 17  1  0  0  0  0
 18 19  2  0  0  0  0
 19 24  1  0  0  0  0
 19 20  1  0  0  0  0
 20 21  2  0  0  0  0
 20 22  1  0  0  0  0
 21 27  1  0  0  0  0
 23 29  1  0  0  0  0
 23 28  1  0  0  0  0
 23 22  1  0  0  0  0
 24 23  1  0  0  0  0
 26 18  1  0  0  0  0
 30 35  1  0  0  0  0
 31 32  1  0  0  0  0
 31 30  2  0  0  0  0
 32 33  2  0  0  0  0
 33 34  1  0  0  0  0
 34 39  1  0  0  0  0
 35 34  2  0  0  0  0
 36 31  1  0  0  0  0
 37 32  1  0  0  0  0
 38 48  1  0  0  0  0
 39 38  2  0  0  0  0
 39 40  1  0  0  0  0
 40 42  2  0  0  0  0
 41 40  1  0  0  0  0
 42 47  1  0  0  0  0
 42 43  1  0  0  0  0
 43 49  1  0  0  0  0
 43 44  1  0  0  0  0
 44 45  1  0  0  0  0
 46 44  2  0  0  0  0
 47 46  1  0  0  0  0
 48 47  2  0  0  0  0
M  END
>  <minimizedAffinity>
-6.50926924

$$$$

 OpenBabel03272507493D

 49 54  0  0  1  0  0  0  0  0999 V2000
   37.9800   25.0110   34.9920 N   0  0  0  0  0  0  0  0  0  0  0  0
   37.8190   24.4530   33.6940 C   0  0  0  0  0  0  0  0  0  0  0  0
   38.4880   25.1520   32.5750 C   0  0  0  0  0  0  0  0  0  0  0  0
   38.5390   26.6110   32.6330 C   0  0  1  0  0  0  0  0  0  0  0  0
   38.6370   27.1470   34.0710 C   0  0  0  0  0  0  0  0  0  0  0  0
   37.5910   26.4030   34.9110 C   0  0  0  0  0  0  0  0  0  0  0  0
   38.1360   23.3860   33.7430 H   0  0  0  0  0  0  0  0  0  0  0  0
   36.7100   24.3840   33.4910 H   0  0  0  0  0  0  0  0  0  0  0  0
   39.5620   24.7810   32.6780 H   0  0  0  0  0  0  0  0  0  0  0  0
   38.1250   24.7630   31.6100 H   0  0  0  0  0  0  0  0  0  0  0  0
   37.5870   27.0600   32.2510 H   0  0  0  0  0  0  0  0  0  0  0  0
   38.3550   28.2150   34.1040 H   0  0  0  0  0  0  0  0  0  0  0  0
   39.6020   26.9010   34.5210 H   0  0  0  0  0  0  0  0  0  0  0  0
   36.5860   26.5530   34.4540 H   0  0  0  0  0  0  0  0  0  0  0  0
   37.5250   26.8180   35.9230 H   0  0  0  0  0  0  0  0  0  0  0  0
   39.4470   27.7200   30.6400 C   0  0  0  0  0  0  0  0  0  0  0  0
   39.6790   27.2320   31.9130 C   0  0  0  0  0  0  0  0  0  0  0  0
   40.9030   27.2680   32.5260 C   0  0  0  0  0  0  0  0  0  0  0  0
   41.9680   27.8240   31.8200 C   0  0  0  0  0  0  0  0  0  0  0  0
   41.7340   28.3050   30.5560 C   0  0  0  0  0  0  0  0  0  0  0  0
   40.4910   28.2720   29.9310 C   0  0  0  0  0  0  0  0  0  0  0  0
   42.9220   28.8220   30.0080 O   0  0  0  0  0  0  0  0  0  0  0  0
   43.7960   28.9600   31.1250 C   0  0  0  0  0  0  0  0  0  0  0  0
   43.3240   28.0410   32.0800 O   0  0  0  0  0  0  0  0  0  0  0  0
   38.5330   27.7600   30.0620 H   0  0  0  0  0  0  0  0  0  0  0  0
   41.0550   26.8860   33.5090 H   0  0  0  0  0  0  0  0  0  0  0  0
   40.3830   28.6750   28.9210 H   0  0  0  0  0  0  0  0  0  0  0  0
   44.8380   28.6540   30.8650 H   0  0  0  0  0  0  0  0  0  0  0  0
   43.7510   30.0060   31.4990 H   0  0  0  0  0  0  0  0  0  0  0  0
   38.4310   24.3570   36.1820 C   0  0  0  0  0  0  0  0  0  0  0  0
   37.7880   24.3630   37.4150 C   0  0  0  0  0  0  0  0  0  0  0  0
   38.3750   23.6560   38.4410 C   0  0  0  0  0  0  0  0  0  0  0  0
   39.5400   22.9940   38.2070 N   0  0  0  0  0  0  0  0  0  0  0  0
   40.1460   23.0020   37.0060 C   0  0  0  0  0  0  0  0  0  0  0  0
   39.5740   23.6910   36.0080 N   0  0  0  0  0  0  0  0  0  0  0  0
   36.8770   24.9240   37.4590 H   0  0  0  0  0  0  0  0  0  0  0  0
   37.8600   23.6730   39.3880 H   0  0  0  0  0  0  0  0  0  0  0  0
   42.4080   22.8680   36.0650 C   0  0  0  0  0  3  0  0  0  0  0  0
   41.4010   22.2740   36.8010 C   0  0  0  0  0  0  0  0  0  0  0  0
   41.5650   21.0070   37.3420 C   0  0  0  0  0  0  0  0  0  0  0  0
   40.7620   20.5570   37.9170 H   0  0  0  0  0  0  0  0  0  0  0  0
   42.7520   20.3340   37.1400 C   0  0  0  0  0  0  0  0  0  0  0  0
   43.1010   19.1100   37.5780 N   0  0  0  0  0  0  0  0  0  0  0  0
   44.3670   18.9460   37.0950 C   0  0  0  0  0  0  0  0  0  0  0  0
   45.0380   18.1150   37.2000 H   0  0  0  0  0  0  0  0  0  0  0  0
   44.7530   20.0160   36.4040 N   0  0  0  0  0  0  0  0  0  0  0  0
   43.7730   20.9070   36.4090 C   0  0  0  0  0  0  0  0  0  0  0  0
   43.6040   22.1830   35.8660 C   0  0  0  0  0  3  0  0  0  0  0  0
   42.6030   18.3910   38.1490 H   0  0  0  0  0  0  0  0  0  0  0  0
  1 30  1  0  0  0  0
  2  7  1  0  0  0  0
  2  1  1  0  0  0  0
  3  4  1  0  0  0  0
  3  9  1  0  0  0  0
  3  2  1  0  0  0  0
  4 11  1  6  0  0  0
  4  5  1  0  0  0  0
  5 12  1  0  0  0  0
  5 13  1  0  0  0  0
  5  6  1  0  0  0  0
  6  1  1  0  0  0  0
  6 15  1  0  0  0  0
  8  2  1  0  0  0  0
 10  3  1  0  0  0  0
 14  6  1  0  0  0  0
 16 17  1  0  0  0  0
 17 18  2  0  0  0  0
 17  4  1  0  0  0  0
 18 26  1  0  0  0  0
 19 24  1  0  0  0  0
 19 18  1  0  0  0  0
 20 19  2  0  0  0  0
 21 20  1  0  0  0  0
 21 16  2  0  0  0  0
 22 20  1  0  0  0  0
 22 23  1  0  0  0  0
 23 29  1  0  0  0  0
 23 24  1  0  0  0  0
 25 16  1  0  0  0  0
 27 21  1  0  0  0  0
 28 23  1  0  0  0  0
 30 31  1  0  0  0  0
 31 36  1  0  0  0  0
 31 32  2  0  0  0  0
 32 37  1  0  0  0  0
 33 32  1  0  0  0  0
 34 33  2  0  0  0  0
 35 30  2  0  0  0  0
 35 34  1  0  0  0  0
 38 39  1  0  0  0  0
 39 34  1  0  0  0  0
 39 40  2  0  0  0  0
 40 41  1  0  0  0  0
 42 40  1  0  0  0  0
 42 43  1  0  0  0  0
 43 49  1  0  0  0  0
 44 45  1  0  0  0  0
 44 43  1  0  0  0  0
 46 47  1  0  0  0  0
 46 44  2  0  0  0  0
 47 42  2  0  0  0  0
 48 38  2  0  0  0  0
 48 47  1  0  0  0  0
M  END
>  <minimizedAffinity>
-6.48143959

$$$$

 OpenBabel03272507493D

 49 54  0  0  1  0  0  0  0  0999 V2000
   36.3660   27.5530   32.6610 N   0  0  0  0  0  0  0  0  0  0  0  0
   36.8740   28.2300   33.8040 C   0  0  0  0  0  0  0  0  0  0  0  0
   35.9160   29.0430   34.5840 C   0  0  0  0  0  0  0  0  0  0  0  0
   34.8820   29.7560   33.8390 C   0  0  1  0  0  0  0  0  0  0  0  0
   34.4340   29.0030   32.5740 C   0  0  0  0  0  0  0  0  0  0  0  0
   35.6990   28.5430   31.8410 C   0  0  0  0  0  0  0  0  0  0  0  0
   37.3720   27.4710   34.4520 H   0  0  0  0  0  0  0  0  0  0  0  0
   37.7330   28.8780   33.4600 H   0  0  0  0  0  0  0  0  0  0  0  0
   35.3850   28.2460   35.2040 H   0  0  0  0  0  0  0  0  0  0  0  0
   36.4540   29.6780   35.3060 H   0  0  0  0  0  0  0  0  0  0  0  0
   35.2730   30.7260   33.4400 H   0  0  0  0  0  0  0  0  0  0  0  0
   33.9100   29.6880   31.8840 H   0  0  0  0  0  0  0  0  0  0  0  0
   33.8940   28.0870   32.8280 H   0  0  0  0  0  0  0  0  0  0  0  0
   36.3340   29.4320   31.6210 H   0  0  0  0  0  0  0  0  0  0  0  0
   35.4570   28.0990   30.8680 H   0  0  0  0  0  0  0  0  0  0  0  0
   33.7010   30.8790   35.6740 C   0  0  0  0  0  0  0  0  0  0  0  0
   33.6300   30.0210   34.5910 C   0  0  0  0  0  0  0  0  0  0  0  0
   32.4800   29.3880   34.2010 C   0  0  0  0  0  0  0  0  0  0  0  0
   31.3240   29.6250   34.9400 C   0  0  0  0  0  0  0  0  0  0  0  0
   31.3980   30.4750   36.0150 C   0  0  0  0  0  0  0  0  0  0  0  0
   32.5650   31.1210   36.4150 C   0  0  0  0  0  0  0  0  0  0  0  0
   30.1390   30.5850   36.6330 O   0  0  0  0  0  0  0  0  0  0  0  0
   29.2280   30.0510   35.6760 C   0  0  0  0  0  0  0  0  0  0  0  0
   29.9970   29.1900   34.8730 O   0  0  0  0  0  0  0  0  0  0  0  0
   34.5370   31.4420   36.0670 H   0  0  0  0  0  0  0  0  0  0  0  0
   32.4530   28.7320   33.3610 H   0  0  0  0  0  0  0  0  0  0  0  0
   32.5450   31.7850   37.2830 H   0  0  0  0  0  0  0  0  0  0  0  0
   28.4440   29.4260   36.1670 H   0  0  0  0  0  0  0  0  0  0  0  0
   28.7870   30.8840   35.0860 H   0  0  0  0  0  0  0  0  0  0  0  0
   36.4750   26.1630   32.3390 C   0  0  0  0  0  0  0  0  0  0  0  0
   35.7660   25.4940   31.3470 C   0  0  0  0  0  0  0  0  0  0  0  0
   36.0230   24.1510   31.1780 C   0  0  0  0  0  0  0  0  0  0  0  0
   36.9460   23.5490   31.9760 N   0  0  0  0  0  0  0  0  0  0  0  0
   37.6200   24.2160   32.9300 C   0  0  0  0  0  0  0  0  0  0  0  0
   37.3680   25.5230   33.0940 N   0  0  0  0  0  0  0  0  0  0  0  0
   35.0710   26.0910   30.7920 H   0  0  0  0  0  0  0  0  0  0  0  0
   35.4640   23.6530   30.4040 H   0  0  0  0  0  0  0  0  0  0  0  0
   39.6640   22.8770   33.1590 C   0  0  0  0  0  3  0  0  0  0  0  0
   38.6050   23.5250   33.7660 C   0  0  0  0  0  0  0  0  0  0  0  0
   38.4670   23.5270   35.1460 C   0  0  0  0  0  0  0  0  0  0  0  0
   37.6280   24.0410   35.6040 H   0  0  0  0  0  0  0  0  0  0  0  0
   39.4020   22.8720   35.9210 C   0  0  0  0  0  0  0  0  0  0  0  0
   39.4430   22.7600   37.2620 N   0  0  0  0  0  0  0  0  0  0  0  0
   40.5660   22.0190   37.4870 C   0  0  0  0  0  0  0  0  0  0  0  0
   40.9930   21.6840   38.4130 H   0  0  0  0  0  0  0  0  0  0  0  0
   41.1640   21.7040   36.3400 N   0  0  0  0  0  0  0  0  0  0  0  0
   40.4680   22.2180   35.3380 C   0  0  0  0  0  0  0  0  0  0  0  0
   40.6040   22.2190   33.9470 C   0  0  0  0  0  3  0  0  0  0  0  0
   38.8220   23.1140   38.0230 H   0  0  0  0  0  0  0  0  0  0  0  0
  1  2  1  0  0  0  0
  2  7  1  0  0  0  0
  2  3  1  0  0  0  0
  3  9  1  0  0  0  0
  3 10  1  0  0  0  0
  4 11  1  6  0  0  0
  4  3  1  0  0  0  0
  4 17  1  0  0  0  0
  5 13  1  0  0  0  0
  5  4  1  0  0  0  0
  6  5  1  0  0  0  0
  6  1  1  0  0  0  0
  8  2  1  0  0  0  0
 12  5  1  0  0  0  0
 14  6  1  0  0  0  0
 15  6  1  0  0  0  0
 16 25  1  0  0  0  0
 16 21  1  0  0  0  0
 17 16  2  0  0  0  0
 18 17  1  0  0  0  0
 18 19  2  0  0  0  0
 19 20  1  0  0  0  0
 20 21  2  0  0  0  0
 20 22  1  0  0  0  0
 21 27  1  0  0  0  0
 23 28  1  0  0  0  0
 23 22  1  0  0  0  0
 24 19  1  0  0  0  0
 24 23  1  0  0  0  0
 26 18  1  0  0  0  0
 29 23  1  0  0  0  0
 30  1  1  0  0  0  0
 30 35  1  0  0  0  0
 31 30  2  0  0  0  0
 32 31  1  0  0  0  0
 32 33  2  0  0  0  0
 33 34  1  0  0  0  0
 34 35  2  0  0  0  0
 34 39  1  0  0  0  0
 36 31  1  0  0  0  0
 37 32  1  0  0  0  0
 38 39  2  0  0  0  0
 38 48  1  0  0  0  0
 39 40  1  0  0  0  0
 40 41  1  0  0  0  0
 40 42  2  0  0  0  0
 42 43  1  0  0  0  0
 43 44  1  0  0  0  0
 43 49  1  0  0  0  0
 44 45  1  0  0  0  0
 46 44  2  0  0  0  0
 47 42  1  0  0  0  0
 47 46  1  0  0  0  0
 48 47  2  0  0  0  0
M  END
>  <minimizedAffinity>
-6.45155191

$$$$

 OpenBabel03272507493D

 49 54  0  0  1  0  0  0  0  0999 V2000
   37.3680   26.6640   31.0740 N   0  0  0  0  0  0  0  0  0  0  0  0
   36.5640   25.5100   31.2860 C   0  0  0  0  0  0  0  0  0  0  0  0
   36.9830   24.5900   32.3660 C   0  0  0  0  0  0  0  0  0  0  0  0
   38.4170   24.4050   32.5690 C   0  0  1  0  0  0  0  0  0  0  0  0
   39.2320   25.6700   32.2480 C   0  0  0  0  0  0  0  0  0  0  0  0
   38.7320   26.2100   30.9030 C   0  0  0  0  0  0  0  0  0  0  0  0
   35.5150   25.8520   31.4390 H   0  0  0  0  0  0  0  0  0  0  0  0
   36.5130   24.9490   30.3070 H   0  0  0  0  0  0  0  0  0  0  0  0
   36.5850   25.1240   33.2930 H   0  0  0  0  0  0  0  0  0  0  0  0
   36.4230   23.6440   32.2990 H   0  0  0  0  0  0  0  0  0  0  0  0
   38.8270   23.6440   31.8580 H   0  0  0  0  0  0  0  0  0  0  0  0
   40.2970   25.4150   32.1010 H   0  0  0  0  0  0  0  0  0  0  0  0
   39.0340   26.4630   32.9740 H   0  0  0  0  0  0  0  0  0  0  0  0
   38.8370   25.4130   30.1320 H   0  0  0  0  0  0  0  0  0  0  0  0
   39.3490   27.0460   30.5560 H   0  0  0  0  0  0  0  0  0  0  0  0
   38.1450   24.6290   34.9980 C   0  0  0  0  0  0  0  0  0  0  0  0
   38.8170   24.0300   33.9480 C   0  0  0  0  0  0  0  0  0  0  0  0
   39.8440   23.1390   34.1170 C   0  0  0  0  0  0  0  0  0  0  0  0
   40.2260   22.8270   35.4190 C   0  0  0  0  0  0  0  0  0  0  0  0
   39.5580   23.4250   36.4580 C   0  0  0  0  0  0  0  0  0  0  0  0
   38.5140   24.3300   36.2910 C   0  0  0  0  0  0  0  0  0  0  0  0
   40.0850   22.9880   37.6880 O   0  0  0  0  0  0  0  0  0  0  0  0
   40.8540   21.8360   37.3540 C   0  0  0  0  0  0  0  0  0  0  0  0
   41.1910   21.9960   35.9980 O   0  0  0  0  0  0  0  0  0  0  0  0
   37.3200   25.3290   34.9920 H   0  0  0  0  0  0  0  0  0  0  0  0
   40.3450   22.6910   33.2900 H   0  0  0  0  0  0  0  0  0  0  0  0
   38.0300   24.7650   37.1690 H   0  0  0  0  0  0  0  0  0  0  0  0
   41.8110   21.8060   37.9270 H   0  0  0  0  0  0  0  0  0  0  0  0
   40.2390   20.9240   37.5220 H   0  0  0  0  0  0  0  0  0  0  0  0
   36.9500   28.0320   31.0240 C   0  0  0  0  0  0  0  0  0  0  0  0
   37.1730   28.9190   29.9780 C   0  0  0  0  0  0  0  0  0  0  0  0
   36.6750   30.1970   30.1110 C   0  0  0  0  0  0  0  0  0  0  0  0
   35.9980   30.5280   31.2430 N   0  0  0  0  0  0  0  0  0  0  0  0
   35.7940   29.6540   32.2440 C   0  0  0  0  0  0  0  0  0  0  0  0
   36.2790   28.4100   32.1130 N   0  0  0  0  0  0  0  0  0  0  0  0
   37.7210   28.5260   29.1450 H   0  0  0  0  0  0  0  0  0  0  0  0
   36.8590   30.8690   29.2880 H   0  0  0  0  0  0  0  0  0  0  0  0
   33.8050   29.5200   33.6760 C   0  0  0  0  0  3  0  0  0  0  0  0
   35.0580   30.0560   33.4460 C   0  0  0  0  0  0  0  0  0  0  0  0
   35.6210   30.9610   34.3330 C   0  0  0  0  0  0  0  0  0  0  0  0
   36.6050   31.3710   34.1350 H   0  0  0  0  0  0  0  0  0  0  0  0
   34.9160   31.3310   35.4600 C   0  0  0  0  0  0  0  0  0  0  0  0
   35.2860   32.1870   36.4310 N   0  0  0  0  0  0  0  0  0  0  0  0
   34.2240   32.1770   37.2880 C   0  0  0  0  0  0  0  0  0  0  0  0
   34.0790   32.7130   38.2060 H   0  0  0  0  0  0  0  0  0  0  0  0
   33.2700   31.3580   36.8510 N   0  0  0  0  0  0  0  0  0  0  0  0
   33.6640   30.8090   35.7120 C   0  0  0  0  0  0  0  0  0  0  0  0
   33.1000   29.8970   34.8160 C   0  0  0  0  0  3  0  0  0  0  0  0
   36.1450   32.7620   36.5820 H   0  0  0  0  0  0  0  0  0  0  0  0
  1  2  1  0  0  0  0
  2  7  1  0  0  0  0
  2  3  1  0  0  0  0
  3  4  1  0  0  0  0
  3  9  1  0  0  0  0
  4 11  1  6  0  0  0
  4 17  1  0  0  0  0
  5  4  1  0  0  0  0
  5 13  1  0  0  0  0
  6  1  1  0  0  0  0
  6  5  1  0  0  0  0
  8  2  1  0  0  0  0
 10  3  1  0  0  0  0
 12  5  1  0  0  0  0
 14  6  1  0  0  0  0
 15  6  1  0  0  0  0
 16 21  1  0  0  0  0
 17 18  1  0  0  0  0
 17 16  2  0  0  0  0
 18 19  2  0  0  0  0
 19 24  1  0  0  0  0
 19 20  1  0  0  0  0
 20 22  1  0  0  0  0
 21 20  2  0  0  0  0
 21 27  1  0  0  0  0
 23 29  1  0  0  0  0
 23 22  1  0  0  0  0
 23 28  1  0  0  0  0
 24 23  1  0  0  0  0
 25 16  1  0  0  0  0
 26 18  1  0  0  0  0
 30  1  1  0  0  0  0
 30 35  1  0  0  0  0
 31 32  1  0  0  0  0
 31 30  2  0  0  0  0
 32 33  2  0  0  0  0
 33 34  1  0  0  0  0
 34 39  1  0  0  0  0
 35 34  2  0  0  0  0
 36 31  1  0  0  0  0
 37 32  1  0  0  0  0
 38 48  1  0  0  0  0
 39 38  2  0  0  0  0
 39 40  1  0  0  0  0
 40 42  2  0  0  0  0
 41 40  1  0  0  0  0
 42 47  1  0  0  0  0
 42 43  1  0  0  0  0
 43 49  1  0  0  0  0
 43 44  1  0  0  0  0
 44 45  1  0  0  0  0
 46 44  2  0  0  0  0
 47 46  1  0  0  0  0
 48 47  2  0  0  0  0
M  END
>  <minimizedAffinity>
-6.4475317

$$$$
