
 OpenBabel03272507193D

 33 36  0  0  1  0  0  0  0  0999 V2000
   36.9490   31.3390   49.3480 C   0  0  0  0  0  0  0  0  0  0  0  0
   37.1740   32.5170   50.0440 C   0  0  0  0  0  0  0  0  0  0  0  0
   38.1070   33.3820   49.4300 C   0  0  0  0  0  0  0  0  0  0  0  0
   38.7110   33.0440   48.2550 N   0  0  0  0  0  0  0  0  0  0  0  0
   38.4540   31.8760   47.6130 C   0  0  0  0  0  0  0  0  0  0  0  0
   37.5520   31.0100   48.1790 N   0  0  0  0  0  0  0  0  0  0  0  0
   36.6820   32.7520   50.9680 H   0  0  0  0  0  0  0  0  0  0  0  0
   38.3430   34.3230   49.9070 H   0  0  0  0  0  0  0  0  0  0  0  0
   40.0330   32.4170   45.8470 C   0  0  0  0  0  3  0  0  0  0  0  0
   39.1070   31.5280   46.3530 C   0  0  0  0  0  0  0  0  0  0  0  0
   38.8290   30.3600   45.6690 C   0  0  0  0  0  0  0  0  0  0  0  0
   38.0990   29.6840   46.0910 H   0  0  0  0  0  0  0  0  0  0  0  0
   39.4460   30.0310   44.4780 C   0  0  0  0  0  0  0  0  0  0  0  0
   39.3660   28.9900   43.6290 N   0  0  0  0  0  0  0  0  0  0  0  0
   40.2290   29.2500   42.6320 C   0  0  0  0  0  0  0  0  0  0  0  0
   40.3070   28.5110   41.8330 H   0  0  0  0  0  0  0  0  0  0  0  0
   40.8450   30.4340   42.8430 N   0  0  0  0  0  0  0  0  0  0  0  0
   40.3740   30.9450   43.9950 C   0  0  0  0  0  0  0  0  0  0  0  0
   40.6700   32.1190   44.6580 C   0  0  0  0  0  3  0  0  0  0  0  0
   38.7180   28.1870   43.8150 H   0  0  0  0  0  0  0  0  0  0  0  0
   35.9450   30.4070   49.9540 C   0  0  1  0  0  0  0  0  0  0  0  0
   34.7980   29.9070   49.1980 C   0  0  2  0  0  0  0  0  0  0  0  0
   35.9890   29.0050   49.3190 C   0  0  0  0  0  0  0  0  0  0  0  0
   35.9960   30.4230   51.0680 H   0  0  0  0  0  0  0  0  0  0  0  0
   33.8800   29.7750   49.8420 H   0  0  0  0  0  0  0  0  0  0  0  0
   36.5850   28.8650   48.3910 H   0  0  0  0  0  0  0  0  0  0  0  0
   36.0040   28.1920   50.0520 H   0  0  0  0  0  0  0  0  0  0  0  0
   34.5270   30.5150   47.9790 O   0  0  0  0  0  0  0  0  0  0  0  0
   33.8180   30.0620   46.9180 C   0  0  0  0  0  0  0  0  0  0  0  0
   34.0280   28.9410   46.4050 O   0  0  0  0  0  0  0  0  0  0  0  0
   32.8910   31.0430   46.5640 N   0  0  0  0  0  0  0  0  0  0  0  0
   32.0340   30.6650   47.0670 H   0  0  0  0  0  0  0  0  0  0  0  0
   33.3570   31.7740   45.9520 H   0  0  0  0  0  0  0  0  0  0  0  0
  1 21  1  0  0  0  0
  1  2  1  0  0  0  0
  2  7  1  0  0  0  0
  3  8  1  0  0  0  0
  3  2  2  0  0  0  0
  4  3  1  0  0  0  0
  5  6  1  0  0  0  0
  5  4  2  0  0  0  0
  6  1  2  0  0  0  0
  9 10  1  0  0  0  0
 10  5  1  0  0  0  0
 11 12  1  0  0  0  0
 11 10  2  0  0  0  0
 13 11  1  0  0  0  0
 14 20  1  0  0  0  0
 14 13  1  0  0  0  0
 15 17  2  0  0  0  0
 15 14  1  0  0  0  0
 16 15  1  0  0  0  0
 17 18  1  0  0  0  0
 18 13  2  0  0  0  0
 18 19  1  0  0  0  0
 19  9  2  0  0  0  0
 21 24  1  1  0  0  0
 22 23  1  0  0  0  0
 22 25  1  1  0  0  0
 22 21  1  0  0  0  0
 23 21  1  0  0  0  0
 23 27  1  0  0  0  0
 26 23  1  0  0  0  0
 28 22  1  0  0  0  0
 29 28  1  0  0  0  0
 30 29  2  0  0  0  0
 31 29  1  0  0  0  0
 31 32  1  0  0  0  0
 33 31  1  0  0  0  0
M  END
>  <minimizedAffinity>
-6.9336338

>  <minimizedRMSD>
3.11713314

$$$$
