
 OpenBabel03272509053D

 36 39  0  0  0  0  0  0  0  0999 V2000
   37.4150   30.3010   51.2500 C   0  0  0  0  0  0  0  0  0  0  0  0
   37.9300   30.9180   50.0920 C   0  0  0  0  0  0  0  0  0  0  0  0
   37.3460   30.6200   48.8450 C   0  0  0  0  0  0  0  0  0  0  0  0
   36.3030   29.7370   48.8750 N   0  0  0  0  0  0  0  0  0  0  0  0
   35.8430   29.1730   49.9840 C   0  0  0  0  0  0  0  0  0  0  0  0
   36.3900   29.4460   51.1800 N   0  0  0  0  0  0  0  0  0  0  0  0
   37.8830   30.5500   52.1780 H   0  0  0  0  0  0  0  0  0  0  0  0
   38.7390   31.5930   50.1440 H   0  0  0  0  0  0  0  0  0  0  0  0
   37.3060   30.8690   46.3630 C   0  0  0  0  0  3  0  0  0  0  0  0
   37.8060   31.2060   47.5950 C   0  0  0  0  0  0  0  0  0  0  0  0
   38.8040   32.1550   47.6600 C   0  0  0  0  0  0  0  0  0  0  0  0
   39.2650   32.4910   48.5710 H   0  0  0  0  0  0  0  0  0  0  0  0
   39.2510   32.7210   46.4660 C   0  0  0  0  0  0  0  0  0  0  0  0
   40.1870   33.6500   46.1870 N   0  0  0  0  0  0  0  0  0  0  0  0
   40.2480   33.8620   44.8490 C   0  0  0  0  0  0  0  0  0  0  0  0
   40.8670   34.5240   44.2610 H   0  0  0  0  0  0  0  0  0  0  0  0
   39.3480   33.0660   44.2650 N   0  0  0  0  0  0  0  0  0  0  0  0
   38.7280   32.3630   45.2270 C   0  0  0  0  0  0  0  0  0  0  0  0
   37.7160   31.3970   45.1810 C   0  0  0  0  0  3  0  0  0  0  0  0
   40.7890   34.1480   46.8770 H   0  0  0  0  0  0  0  0  0  0  0  0
   34.7440   28.2610   49.8090 C   0  0  0  0  0  3  0  0  0  0  0  0
   34.3010   27.9980   48.6310 C   0  0  0  0  0  3  0  0  0  0  0  0
   33.2140   27.1050   48.2160 C   0  0  0  0  0  0  0  0  0  0  0  0
   32.8700   26.5560   49.1190 H   0  0  0  0  0  0  0  0  0  0  0  0
   32.3350   27.6540   47.8240 H   0  0  0  0  0  0  0  0  0  0  0  0
   33.6250   26.1170   47.1670 C   0  0  0  0  0  0  0  0  0  0  0  0
   33.8130   24.7620   47.3760 C   0  0  0  0  0  0  0  0  0  0  0  0
   34.1910   23.9520   46.3130 C   0  0  0  0  0  0  0  0  0  0  0  0
   34.3850   24.4890   45.0290 C   0  0  0  0  0  0  0  0  0  0  0  0
   34.1980   25.8280   44.8290 C   0  0  0  0  0  0  0  0  0  0  0  0
   33.8230   26.6260   45.8870 C   0  0  0  0  0  0  0  0  0  0  0  0
   33.6520   24.3980   48.3780 H   0  0  0  0  0  0  0  0  0  0  0  0
   34.3190   22.8990   46.5550 H   0  0  0  0  0  0  0  0  0  0  0  0
   34.6810   23.8000   44.2390 H   0  0  0  0  0  0  0  0  0  0  0  0
   34.3630   26.1830   43.8220 H   0  0  0  0  0  0  0  0  0  0  0  0
   33.6830   27.6810   45.6930 H   0  0  0  0  0  0  0  0  0  0  0  0
  1  7  1  0  0  0  0
  2  8  1  0  0  0  0
  2  1  2  0  0  0  0
  3  4  2  0  0  0  0
  3  2  1  0  0  0  0
  4  5  1  0  0  0  0
  5  6  2  0  0  0  0
  6  1  1  0  0  0  0
  9 10  1  0  0  0  0
 10 11  2  0  0  0  0
 10  3  1  0  0  0  0
 11 12  1  0  0  0  0
 13 11  1  0  0  0  0
 14 13  1  0  0  0  0
 14 20  1  0  0  0  0
 15 14  1  0  0  0  0
 16 15  1  0  0  0  0
 17 15  2  0  0  0  0
 17 18  1  0  0  0  0
 18 13  2  0  0  0  0
 19 18  1  0  0  0  0
 19  9  2  0  0  0  0
 21  5  1  0  0  0  0
 22 21  2  0  0  0  0
 23 22  1  0  0  0  0
 23 24  1  0  0  0  0
 25 23  1  0  0  0  0
 26 27  1  0  0  0  0
 26 23  1  0  0  0  0
 27 32  1  0  0  0  0
 28 33  1  0  0  0  0
 28 27  2  0  0  0  0
 29 28  1  0  0  0  0
 30 29  2  0  0  0  0
 30 31  1  0  0  0  0
 31 26  2  0  0  0  0
 34 29  1  0  0  0  0
 35 30  1  0  0  0  0
 36 31  1  0  0  0  0
M  END
>  <minimizedAffinity>
-6.94270468

>  <minimizedRMSD>
0.924901962

$$$$
