REMARK  Name = 
REMARK  4 active torsions:
REMARK  status: ('A' for Active; 'I' for Inactive)
REMARK    1  A    between atoms: C_1  and  C_2
REMARK    2  A    between atoms: C_1  and  C_9
REMARK    3  A    between atoms: C_8  and  C_14
REMARK    4  A    between atoms: C_12  and  C_28
REMARK                            x       y       z     vdW  Elec       q    Type
REMARK                         _______ _______ _______ _____ _____    ______ ____
ROOT
ATOM      1  C   UNL     1      37.367  30.237  51.415  0.00  0.00    +0.000 A 
ATOM      2  C   UNL     1      38.117  30.690  50.311  0.00  0.00    +0.000 A 
ATOM      3  C   UNL     1      37.687  30.355  49.012  0.00  0.00    +0.000 A 
ATOM      4  N   UNL     1      36.549  29.601  48.940  0.00  0.00    +0.000 NA
ATOM      5  C   UNL     1      35.866  29.190  50.001  0.00  0.00    +0.000 A 
ATOM      6  N   UNL     1      36.264  29.501  51.246  0.00  0.00    +0.000 NA
ATOM      7  H   UNL     1      37.723  30.510  52.385  0.00  0.00    +0.000 HD
ATOM      8  H   UNL     1      38.988  31.271  50.441  0.00  0.00    +0.000 HD
ENDROOT
BRANCH   3  10
ATOM      9  C   UNL     1      38.358  32.053  47.311  0.00  0.00    +0.000 A 
ATOM     10  C   UNL     1      38.393  30.776  47.811  0.00  0.00    +0.000 A 
ATOM     11  C   UNL     1      39.139  29.831  47.141  0.00  0.00    +0.000 A 
ATOM     12  H   UNL     1      39.235  28.804  47.446  0.00  0.00    +0.000 HD
ATOM     13  C   UNL     1      39.820  30.225  45.989  0.00  0.00    +0.000 A 
ATOM     14  N   UNL     1      40.615  29.566  45.124  0.00  0.00    +0.000 N 
ATOM     15  C   UNL     1      41.040  30.407  44.148  0.00  0.00    +0.000 A 
ATOM     16  H   UNL     1      41.680  30.241  43.294  0.00  0.00    +0.000 HD
ATOM     17  N   UNL     1      40.515  31.613  44.386  0.00  0.00    +0.000 NA
ATOM     18  C   UNL     1      39.768  31.529  45.501  0.00  0.00    +0.000 A 
ATOM     19  C   UNL     1      39.005  32.475  46.194  0.00  0.00    +0.000 A 
ATOM     20  H   UNL     1      40.882  28.559  45.173  0.00  0.00    +0.000 HD
ENDBRANCH   3  10
BRANCH   5  21
ATOM     21  C   UNL     1      34.699  28.397  49.721  0.00  0.00    +0.000 C 
ATOM     22  C   UNL     1      34.403  28.084  48.509  0.00  0.00    +0.000 C 
BRANCH  22  23
ATOM     23  C   UNL     1      33.285  27.287  47.993  0.00  0.00    +0.000 C 
ATOM     24  H   UNL     1      32.774  26.825  48.865  0.00  0.00    +0.000 HD
ATOM     25  H   UNL     1      32.526  27.903  47.470  0.00  0.00    +0.000 HD
BRANCH  23  26
ATOM     26  C   UNL     1      33.712  26.208  47.046  0.00  0.00    +0.000 A 
ATOM     27  C   UNL     1      33.940  24.887  47.390  0.00  0.00    +0.000 A 
ATOM     28  C   UNL     1      34.329  23.983  46.410  0.00  0.00    +0.000 A 
ATOM     29  C   UNL     1      34.495  24.390  45.075  0.00  0.00    +0.000 A 
ATOM     30  C   UNL     1      34.269  25.696  44.742  0.00  0.00    +0.000 A 
ATOM     31  C   UNL     1      33.883  26.588  45.718  0.00  0.00    +0.000 A 
ATOM     32  H   UNL     1      33.799  24.624  48.425  0.00  0.00    +0.000 HD
ATOM     33  H   UNL     1      34.489  22.964  46.757  0.00  0.00    +0.000 HD
ATOM     34  H   UNL     1      34.802  23.632  44.356  0.00  0.00    +0.000 HD
ATOM     35  H   UNL     1      34.413  25.950  43.702  0.00  0.00    +0.000 HD
ATOM     36  H   UNL     1      33.712  27.614  45.419  0.00  0.00    +0.000 HD
ENDBRANCH  23  26
ENDBRANCH  22  23
ENDBRANCH   5  21
TORSDOF 4
