
 OpenBabel03272502573D

 45 49  0  0  0  0  0  0  0  0999 V2000
   38.5790   26.6240   33.1500 C   0  0  0  0  0  0  0  0  0  0  0  0
   39.8230   26.6210   32.5140 C   0  0  0  0  0  0  0  0  0  0  0  0
   40.8460   25.8040   32.9600 C   0  0  0  0  0  0  0  0  0  0  0  0
   40.5620   25.0070   34.0550 C   0  0  0  0  0  0  0  0  0  0  0  0
   39.3310   24.9960   34.7000 C   0  0  0  0  0  0  0  0  0  0  0  0
   38.3720   25.8240   34.2090 N   0  0  0  0  0  0  0  0  0  0  0  0
   39.1570   24.1460   35.8000 N   0  0  0  0  0  0  0  0  0  0  0  0
   40.3170   23.5620   36.4180 C   0  0  0  0  0  0  0  0  0  0  0  0
   39.8380   22.6160   37.4910 C   0  0  0  0  0  0  0  0  0  0  0  0
   38.9840   23.3630   38.4980 C   0  0  0  0  0  0  0  0  0  0  0  0
   37.8750   24.1130   37.8310 C   0  0  0  0  0  0  0  0  0  0  0  0
   37.8650   23.8140   36.3610 C   0  0  0  0  0  0  0  0  0  0  0  0
   39.9480   27.2780   31.6680 H   0  0  0  0  0  0  0  0  0  0  0  0
   41.7910   25.8180   32.4570 H   0  0  0  0  0  0  0  0  0  0  0  0
   41.4090   24.3880   34.3570 H   0  0  0  0  0  0  0  0  0  0  0  0
   40.8710   24.3740   36.9360 H   0  0  0  0  0  0  0  0  0  0  0  0
   40.9490   22.9600   35.7320 H   0  0  0  0  0  0  0  0  0  0  0  0
   40.7580   22.2620   38.0390 H   0  0  0  0  0  0  0  0  0  0  0  0
   39.3210   21.7290   37.0740 H   0  0  0  0  0  0  0  0  0  0  0  0
   38.5770   22.5700   39.1800 H   0  0  0  0  0  0  0  0  0  0  0  0
   39.6230   23.9920   39.1360 H   0  0  0  0  0  0  0  0  0  0  0  0
   36.9030   23.7660   38.2520 H   0  0  0  0  0  0  0  0  0  0  0  0
   37.9100   25.2070   37.9990 H   0  0  0  0  0  0  0  0  0  0  0  0
   37.7080   22.7110   36.2360 H   0  0  0  0  0  0  0  0  0  0  0  0
   37.0480   24.3050   35.8160 H   0  0  0  0  0  0  0  0  0  0  0  0
   36.3430   28.4270   30.8940 C   0  0  0  0  0  0  0  0  0  0  0  0
   35.5290   29.1630   31.7820 C   0  0  0  0  0  0  0  0  0  0  0  0
   35.7690   29.0200   33.1300 C   0  0  0  0  0  0  0  0  0  0  0  0
   36.7730   28.1820   33.5180 N   0  0  0  0  0  0  0  0  0  0  0  0
   37.5340   27.4940   32.6560 C   0  0  0  0  0  0  0  0  0  0  0  0
   37.3120   27.6240   31.3520 N   0  0  0  0  0  0  0  0  0  0  0  0
   36.1910   28.5090   29.8200 H   0  0  0  0  0  0  0  0  0  0  0  0
   34.7640   29.7980   31.4200 H   0  0  0  0  0  0  0  0  0  0  0  0
   33.6760   29.4840   34.4050 C   0  0  0  0  0  3  0  0  0  0  0  0
   35.0000   29.7240   34.1460 C   0  0  0  0  0  0  0  0  0  0  0  0
   35.6010   30.6990   34.9160 C   0  0  0  0  0  0  0  0  0  0  0  0
   36.6610   30.9380   34.7560 H   0  0  0  0  0  0  0  0  0  0  0  0
   34.9600   31.4220   35.9010 C   0  0  0  0  0  0  0  0  0  0  0  0
   35.3950   32.4000   36.7380 N   0  0  0  0  0  0  0  0  0  0  0  0
   34.3160   32.7200   37.4780 C   0  0  0  0  0  0  0  0  0  0  0  0
   34.3880   33.4980   38.2490 H   0  0  0  0  0  0  0  0  0  0  0  0
   33.2430   31.9910   37.1410 N   0  0  0  0  0  0  0  0  0  0  0  0
   33.6130   31.1620   36.1490 C   0  0  0  0  0  0  0  0  0  0  0  0
   33.0160   30.2010   35.3940 C   0  0  0  0  0  3  0  0  0  0  0  0
   36.3510   32.7790   36.7620 H   0  0  0  0  0  0  0  0  0  0  0  0
  1  6  1  0  0  0  0
  2  3  1  0  0  0  0
  2  1  2  0  0  0  0
  3  4  2  0  0  0  0
  4 15  1  0  0  0  0
  4  5  1  0  0  0  0
  5  7  1  0  0  0  0
  6  5  2  0  0  0  0
  7 12  1  0  0  0  0
  7  8  1  0  0  0  0
  8 16  1  0  0  0  0
  8  9  1  0  0  0  0
  9 18  1  0  0  0  0
  9 10  1  0  0  0  0
 10 21  1  0  0  0  0
 10 20  1  0  0  0  0
 11 23  1  0  0  0  0
 11 22  1  0  0  0  0
 11 10  1  0  0  0  0
 12 11  1  0  0  0  0
 13  2  1  0  0  0  0
 14  3  1  0  0  0  0
 17  8  1  0  0  0  0
 19  9  1  0  0  0  0
 24 12  1  0  0  0  0
 25 12  1  0  0  0  0
 26 31  2  0  0  0  0
 26 27  1  0  0  0  0
 27 28  2  0  0  0  0
 28 29  1  0  0  0  0
 28 35  1  0  0  0  0
 30  1  1  0  0  0  0
 30 29  2  0  0  0  0
 31 30  1  0  0  0  0
 32 26  1  0  0  0  0
 33 27  1  0  0  0  0
 34 44  1  0  0  0  0
 35 34  2  0  0  0  0
 35 36  1  0  0  0  0
 36 38  2  0  0  0  0
 37 36  1  0  0  0  0
 38 43  1  0  0  0  0
 38 39  1  0  0  0  0
 39 45  1  0  0  0  0
 39 40  1  0  0  0  0
 40 41  1  0  0  0  0
 42 40  2  0  0  0  0
 43 42  1  0  0  0  0
 44 43  2  0  0  0  0
M  END
>  <minimizedAffinity>
-6.93911123

$$$$

 OpenBabel03272502573D

 45 49  0  0  0  0  0  0  0  0999 V2000
   37.3650   26.3120   33.5740 C   0  0  0  0  0  0  0  0  0  0  0  0
   38.0990   26.2440   34.7610 C   0  0  0  0  0  0  0  0  0  0  0  0
   38.5790   25.0350   35.2290 C   0  0  0  0  0  0  0  0  0  0  0  0
   38.2920   23.9210   34.4610 C   0  0  0  0  0  0  0  0  0  0  0  0
   37.5630   23.9690   33.2780 C   0  0  0  0  0  0  0  0  0  0  0  0
   37.1210   25.1900   32.8780 N   0  0  0  0  0  0  0  0  0  0  0  0
   37.3330   22.7750   32.5830 N   0  0  0  0  0  0  0  0  0  0  0  0
   37.5680   21.5230   33.2530 C   0  0  0  0  0  0  0  0  0  0  0  0
   37.3510   20.4180   32.2480 C   0  0  0  0  0  0  0  0  0  0  0  0
   35.9440   20.4970   31.6860 C   0  0  0  0  0  0  0  0  0  0  0  0
   35.6430   21.8580   31.1440 C   0  0  0  0  0  0  0  0  0  0  0  0
   36.8680   22.7210   31.2140 C   0  0  0  0  0  0  0  0  0  0  0  0
   38.2720   27.1680   35.2890 H   0  0  0  0  0  0  0  0  0  0  0  0
   39.1400   25.0070   36.1410 H   0  0  0  0  0  0  0  0  0  0  0  0
   38.6980   23.0000   34.8850 H   0  0  0  0  0  0  0  0  0  0  0  0
   36.7840   21.4030   34.0310 H   0  0  0  0  0  0  0  0  0  0  0  0
   38.6010   21.3950   33.6370 H   0  0  0  0  0  0  0  0  0  0  0  0
   37.4230   19.4490   32.8200 H   0  0  0  0  0  0  0  0  0  0  0  0
   38.1230   20.4100   31.4540 H   0  0  0  0  0  0  0  0  0  0  0  0
   35.9110   19.7250   30.8720 H   0  0  0  0  0  0  0  0  0  0  0  0
   35.2210   20.1510   32.4400 H   0  0  0  0  0  0  0  0  0  0  0  0
   35.3580   21.7620   30.0700 H   0  0  0  0  0  0  0  0  0  0  0  0
   34.7910   22.3600   31.6430 H   0  0  0  0  0  0  0  0  0  0  0  0
   37.6660   22.2330   30.5970 H   0  0  0  0  0  0  0  0  0  0  0  0
   36.7250   23.7250   30.7940 H   0  0  0  0  0  0  0  0  0  0  0  0
   36.5460   29.1460   31.4200 C   0  0  0  0  0  0  0  0  0  0  0  0
   35.9260   30.0480   32.3120 C   0  0  0  0  0  0  0  0  0  0  0  0
   35.8060   29.6590   33.6270 C   0  0  0  0  0  0  0  0  0  0  0  0
   36.2910   28.4350   33.9810 N   0  0  0  0  0  0  0  0  0  0  0  0
   36.8770   27.5950   33.1170 C   0  0  0  0  0  0  0  0  0  0  0  0
   36.9990   27.9590   31.8450 N   0  0  0  0  0  0  0  0  0  0  0  0
   36.6630   29.4100   30.3710 H   0  0  0  0  0  0  0  0  0  0  0  0
   35.5680   30.9850   31.9770 H   0  0  0  0  0  0  0  0  0  0  0  0
   35.8900   31.1930   35.5910 C   0  0  0  0  0  3  0  0  0  0  0  0
   35.1870   30.4990   34.6430 C   0  0  0  0  0  0  0  0  0  0  0  0
   33.8140   30.6310   34.6880 C   0  0  0  0  0  0  0  0  0  0  0  0
   33.1940   30.0980   33.9540 H   0  0  0  0  0  0  0  0  0  0  0  0
   33.1330   31.4000   35.6090 C   0  0  0  0  0  0  0  0  0  0  0  0
   31.8070   31.6360   35.7930 N   0  0  0  0  0  0  0  0  0  0  0  0
   31.7520   32.4690   36.8490 C   0  0  0  0  0  0  0  0  0  0  0  0
   30.7830   32.8270   37.2190 H   0  0  0  0  0  0  0  0  0  0  0  0
   32.9720   32.7560   37.3250 N   0  0  0  0  0  0  0  0  0  0  0  0
   33.8670   32.0990   36.5660 C   0  0  0  0  0  0  0  0  0  0  0  0
   35.2200   31.9730   36.5250 C   0  0  0  0  0  3  0  0  0  0  0  0
   31.0490   31.2410   35.2200 H   0  0  0  0  0  0  0  0  0  0  0  0
  1  2  1  0  0  0  0
  2  3  2  0  0  0  0
  2 13  1  0  0  0  0
  3 14  1  0  0  0  0
  4 15  1  0  0  0  0
  4  3  1  0  0  0  0
  5  4  2  0  0  0  0
  6  5  1  0  0  0  0
  6  1  2  0  0  0  0
  7  8  1  0  0  0  0
  7  5  1  0  0  0  0
  8 17  1  0  0  0  0
  8 16  1  0  0  0  0
  9 18  1  0  0  0  0
  9  8  1  0  0  0  0
 10  9  1  0  0  0  0
 10 21  1  0  0  0  0
 11 12  1  0  0  0  0
 11 23  1  0  0  0  0
 11 10  1  0  0  0  0
 12  7  1  0  0  0  0
 19  9  1  0  0  0  0
 20 10  1  0  0  0  0
 22 11  1  0  0  0  0
 24 12  1  0  0  0  0
 25 12  1  0  0  0  0
 26 31  2  0  0  0  0
 26 27  1  0  0  0  0
 27 28  2  0  0  0  0
 28 29  1  0  0  0  0
 28 35  1  0  0  0  0
 30  1  1  0  0  0  0
 30 29  2  0  0  0  0
 31 30  1  0  0  0  0
 32 26  1  0  0  0  0
 33 27  1  0  0  0  0
 34 44  1  0  0  0  0
 35 36  1  0  0  0  0
 35 34  2  0  0  0  0
 36 38  2  0  0  0  0
 37 36  1  0  0  0  0
 38 39  1  0  0  0  0
 38 43  1  0  0  0  0
 39 40  1  0  0  0  0
 40 41  1  0  0  0  0
 40 42  2  0  0  0  0
 43 42  1  0  0  0  0
 44 43  2  0  0  0  0
 45 39  1  0  0  0  0
M  END
>  <minimizedAffinity>
-6.65178013

$$$$

 OpenBabel03272502573D

 45 49  0  0  0  0  0  0  0  0999 V2000
   35.5200   29.7200   34.4350 C   0  0  0  0  0  0  0  0  0  0  0  0
   36.1470   30.5000   35.4100 C   0  0  0  0  0  0  0  0  0  0  0  0
   35.4550   31.4950   36.0760 C   0  0  0  0  0  0  0  0  0  0  0  0
   34.1290   31.6630   35.7210 C   0  0  0  0  0  0  0  0  0  0  0  0
   33.4880   30.8970   34.7540 C   0  0  0  0  0  0  0  0  0  0  0  0
   34.2290   29.9380   34.1390 N   0  0  0  0  0  0  0  0  0  0  0  0
   32.1400   31.1570   34.4770 N   0  0  0  0  0  0  0  0  0  0  0  0
   31.5560   32.3840   34.9510 C   0  0  0  0  0  0  0  0  0  0  0  0
   30.0860   32.3520   34.6130 C   0  0  0  0  0  0  0  0  0  0  0  0
   29.9000   32.1850   33.1160 C   0  0  0  0  0  0  0  0  0  0  0  0
   30.6530   31.0020   32.5970 C   0  0  0  0  0  0  0  0  0  0  0  0
   31.2850   30.2560   33.7340 C   0  0  0  0  0  0  0  0  0  0  0  0
   37.1850   30.2930   35.6170 H   0  0  0  0  0  0  0  0  0  0  0  0
   35.9570   32.0800   36.8200 H   0  0  0  0  0  0  0  0  0  0  0  0
   33.6400   32.4620   36.2810 H   0  0  0  0  0  0  0  0  0  0  0  0
   31.9980   33.2180   34.3640 H   0  0  0  0  0  0  0  0  0  0  0  0
   31.6190   32.5280   36.0490 H   0  0  0  0  0  0  0  0  0  0  0  0
   29.6740   33.3670   34.8840 H   0  0  0  0  0  0  0  0  0  0  0  0
   29.5330   31.5880   35.1940 H   0  0  0  0  0  0  0  0  0  0  0  0
   28.7950   32.0520   32.9720 H   0  0  0  0  0  0  0  0  0  0  0  0
   30.1460   33.1270   32.6020 H   0  0  0  0  0  0  0  0  0  0  0  0
   29.9350   30.3110   32.0970 H   0  0  0  0  0  0  0  0  0  0  0  0
   31.4160   31.2560   31.8350 H   0  0  0  0  0  0  0  0  0  0  0  0
   30.4650   29.9160   34.4190 H   0  0  0  0  0  0  0  0  0  0  0  0
   31.8230   29.3510   33.4240 H   0  0  0  0  0  0  0  0  0  0  0  0
   37.1340   27.7570   31.8120 C   0  0  0  0  0  0  0  0  0  0  0  0
   37.7310   26.7010   32.5340 C   0  0  0  0  0  0  0  0  0  0  0  0
   37.5650   26.6920   33.9000 C   0  0  0  0  0  0  0  0  0  0  0  0
   36.8360   27.6970   34.4650 N   0  0  0  0  0  0  0  0  0  0  0  0
   36.2770   28.6900   33.7590 C   0  0  0  0  0  0  0  0  0  0  0  0
   36.4310   28.7090   32.4390 N   0  0  0  0  0  0  0  0  0  0  0  0
   37.2390   27.8050   30.7300 H   0  0  0  0  0  0  0  0  0  0  0  0
   38.2860   25.9480   32.0390 H   0  0  0  0  0  0  0  0  0  0  0  0
   39.0510   24.7360   34.3330 C   0  0  0  0  0  3  0  0  0  0  0  0
   38.1300   25.6580   34.7560 C   0  0  0  0  0  0  0  0  0  0  0  0
   37.7450   25.5670   36.0780 C   0  0  0  0  0  0  0  0  0  0  0  0
   37.0090   26.2790   36.4770 H   0  0  0  0  0  0  0  0  0  0  0  0
   38.2200   24.6260   36.9670 C   0  0  0  0  0  0  0  0  0  0  0  0
   37.9500   24.3990   38.2800 N   0  0  0  0  0  0  0  0  0  0  0  0
   38.7190   23.3440   38.6080 C   0  0  0  0  0  0  0  0  0  0  0  0
   38.6980   22.9430   39.6290 H   0  0  0  0  0  0  0  0  0  0  0  0
   39.4460   22.9100   37.5690 N   0  0  0  0  0  0  0  0  0  0  0  0
   39.1560   23.6960   36.5170 C   0  0  0  0  0  0  0  0  0  0  0  0
   39.5400   23.7820   35.2160 C   0  0  0  0  0  3  0  0  0  0  0  0
   37.2940   24.9450   38.8540 H   0  0  0  0  0  0  0  0  0  0  0  0
  1  2  1  0  0  0  0
  2 13  1  0  0  0  0
  2  3  2  0  0  0  0
  3 14  1  0  0  0  0
  4  3  1  0  0  0  0
  4 15  1  0  0  0  0
  5  4  2  0  0  0  0
  6  1  2  0  0  0  0
  6  5  1  0  0  0  0
  7  5  1  0  0  0  0
  7  8  1  0  0  0  0
  8 17  1  0  0  0  0
  9 18  1  0  0  0  0
  9  8  1  0  0  0  0
  9 19  1  0  0  0  0
 10  9  1  0  0  0  0
 11 10  1  0  0  0  0
 11 12  1  0  0  0  0
 12 24  1  0  0  0  0
 12  7  1  0  0  0  0
 16  8  1  0  0  0  0
 20 10  1  0  0  0  0
 21 10  1  0  0  0  0
 22 11  1  0  0  0  0
 23 11  1  0  0  0  0
 25 12  1  0  0  0  0
 26 31  2  0  0  0  0
 26 27  1  0  0  0  0
 27 28  2  0  0  0  0
 28 29  1  0  0  0  0
 28 35  1  0  0  0  0
 30  1  1  0  0  0  0
 30 29  2  0  0  0  0
 31 30  1  0  0  0  0
 32 26  1  0  0  0  0
 33 27  1  0  0  0  0
 34 35  2  0  0  0  0
 34 44  1  0  0  0  0
 35 36  1  0  0  0  0
 36 37  1  0  0  0  0
 36 38  2  0  0  0  0
 38 39  1  0  0  0  0
 39 40  1  0  0  0  0
 39 45  1  0  0  0  0
 40 41  1  0  0  0  0
 42 40  2  0  0  0  0
 43 38  1  0  0  0  0
 43 42  1  0  0  0  0
 44 43  2  0  0  0  0
M  END
>  <minimizedAffinity>
-6.47460127

$$$$

 OpenBabel03272502573D

 45 49  0  0  0  0  0  0  0  0999 V2000
   36.4360   26.1610   31.9430 C   0  0  0  0  0  0  0  0  0  0  0  0
   35.7950   25.2930   31.0550 C   0  0  0  0  0  0  0  0  0  0  0  0
   35.9820   23.9260   31.1400 C   0  0  0  0  0  0  0  0  0  0  0  0
   36.8270   23.4830   32.1420 C   0  0  0  0  0  0  0  0  0  0  0  0
   37.4730   24.3300   33.0350 C   0  0  0  0  0  0  0  0  0  0  0  0
   37.2450   25.6620   32.8920 N   0  0  0  0  0  0  0  0  0  0  0  0
   38.3070   23.7680   34.0100 N   0  0  0  0  0  0  0  0  0  0  0  0
   38.7180   22.3980   33.8680 C   0  0  0  0  0  0  0  0  0  0  0  0
   39.5070   22.0260   35.1000 C   0  0  0  0  0  0  0  0  0  0  0  0
   40.6970   22.9540   35.2540 C   0  0  0  0  0  0  0  0  0  0  0  0
   40.2810   24.3910   35.2280 C   0  0  0  0  0  0  0  0  0  0  0  0
   38.7860   24.4910   35.1690 C   0  0  0  0  0  0  0  0  0  0  0  0
   35.1550   25.7340   30.3080 H   0  0  0  0  0  0  0  0  0  0  0  0
   35.4810   23.2800   30.4490 H   0  0  0  0  0  0  0  0  0  0  0  0
   36.9330   22.3960   32.1560 H   0  0  0  0  0  0  0  0  0  0  0  0
   39.4250   22.3430   33.0120 H   0  0  0  0  0  0  0  0  0  0  0  0
   37.8820   21.6710   33.8040 H   0  0  0  0  0  0  0  0  0  0  0  0
   39.9190   20.9920   34.9150 H   0  0  0  0  0  0  0  0  0  0  0  0
   38.8790   21.9900   36.0110 H   0  0  0  0  0  0  0  0  0  0  0  0
   41.1490   22.6860   36.2460 H   0  0  0  0  0  0  0  0  0  0  0  0
   41.4660   22.7030   34.5090 H   0  0  0  0  0  0  0  0  0  0  0  0
   40.6150   24.8780   36.1740 H   0  0  0  0  0  0  0  0  0  0  0  0
   40.7370   24.9740   34.4050 H   0  0  0  0  0  0  0  0  0  0  0  0
   38.3720   23.9910   36.0830 H   0  0  0  0  0  0  0  0  0  0  0  0
   38.4110   25.5230   35.1870 H   0  0  0  0  0  0  0  0  0  0  0  0
   36.2290   29.5340   30.5580 C   0  0  0  0  0  0  0  0  0  0  0  0
   35.7810   30.2970   31.6570 C   0  0  0  0  0  0  0  0  0  0  0  0
   35.5610   29.6330   32.8430 C   0  0  0  0  0  0  0  0  0  0  0  0
   35.7910   28.2900   32.8790 N   0  0  0  0  0  0  0  0  0  0  0  0
   36.2180   27.5860   31.8210 C   0  0  0  0  0  0  0  0  0  0  0  0
   36.4330   28.2150   30.6710 N   0  0  0  0  0  0  0  0  0  0  0  0
   36.4160   30.0150   29.5990 H   0  0  0  0  0  0  0  0  0  0  0  0
   35.6200   31.3390   31.5670 H   0  0  0  0  0  0  0  0  0  0  0  0
   35.9210   30.9940   34.9020 C   0  0  0  0  0  3  0  0  0  0  0  0
   35.0990   30.3070   34.0480 C   0  0  0  0  0  0  0  0  0  0  0  0
   33.7620   30.2780   34.3870 C   0  0  0  0  0  0  0  0  0  0  0  0
   33.0510   29.7430   33.7420 H   0  0  0  0  0  0  0  0  0  0  0  0
   33.2260   30.8830   35.5050 C   0  0  0  0  0  0  0  0  0  0  0  0
   31.9540   30.9500   35.9800 N   0  0  0  0  0  0  0  0  0  0  0  0
   32.0500   31.6780   37.1090 C   0  0  0  0  0  0  0  0  0  0  0  0
   31.1530   31.8900   37.7050 H   0  0  0  0  0  0  0  0  0  0  0  0
   33.3100   32.0600   37.3530 N   0  0  0  0  0  0  0  0  0  0  0  0
   34.0790   31.5770   36.3620 C   0  0  0  0  0  0  0  0  0  0  0  0
   35.3980   31.6100   36.0320 C   0  0  0  0  0  3  0  0  0  0  0  0
   31.1310   30.5220   35.5350 H   0  0  0  0  0  0  0  0  0  0  0  0
  1  6  1  0  0  0  0
  2  3  1  0  0  0  0
  2  1  2  0  0  0  0
  3  4  2  0  0  0  0
  4 15  1  0  0  0  0
  4  5  1  0  0  0  0
  5  7  1  0  0  0  0
  6  5  2  0  0  0  0
  7 12  1  0  0  0  0
  8  7  1  0  0  0  0
  8  9  1  0  0  0  0
  9 10  1  0  0  0  0
  9 19  1  0  0  0  0
 10 20  1  0  0  0  0
 11 10  1  0  0  0  0
 11 22  1  0  0  0  0
 12 25  1  0  0  0  0
 12 11  1  0  0  0  0
 12 24  1  0  0  0  0
 13  2  1  0  0  0  0
 14  3  1  0  0  0  0
 16  8  1  0  0  0  0
 17  8  1  0  0  0  0
 18  9  1  0  0  0  0
 21 10  1  0  0  0  0
 23 11  1  0  0  0  0
 26 31  2  0  0  0  0
 26 27  1  0  0  0  0
 27 28  2  0  0  0  0
 28 29  1  0  0  0  0
 28 35  1  0  0  0  0
 30  1  1  0  0  0  0
 30 29  2  0  0  0  0
 31 30  1  0  0  0  0
 32 26  1  0  0  0  0
 33 27  1  0  0  0  0
 34 44  1  0  0  0  0
 35 36  1  0  0  0  0
 35 34  2  0  0  0  0
 36 38  2  0  0  0  0
 37 36  1  0  0  0  0
 38 39  1  0  0  0  0
 38 43  1  0  0  0  0
 39 40  1  0  0  0  0
 40 42  2  0  0  0  0
 40 41  1  0  0  0  0
 43 42  1  0  0  0  0
 44 43  2  0  0  0  0
 45 39  1  0  0  0  0
M  END
>  <minimizedAffinity>
-6.45494413

$$$$

 OpenBabel03272502573D

 45 49  0  0  0  0  0  0  0  0999 V2000
   36.1350   29.2300   32.0240 C   0  0  0  0  0  0  0  0  0  0  0  0
   36.1500   29.9290   30.8140 C   0  0  0  0  0  0  0  0  0  0  0  0
   36.0480   31.3080   30.7900 C   0  0  0  0  0  0  0  0  0  0  0  0
   35.9330   31.9370   32.0170 C   0  0  0  0  0  0  0  0  0  0  0  0
   35.9160   31.2600   33.2300 C   0  0  0  0  0  0  0  0  0  0  0  0
   36.0200   29.9060   33.1800 N   0  0  0  0  0  0  0  0  0  0  0  0
   35.7960   32.0030   34.4120 N   0  0  0  0  0  0  0  0  0  0  0  0
   35.3790   33.3770   34.3300 C   0  0  0  0  0  0  0  0  0  0  0  0
   35.4420   33.9580   35.7210 C   0  0  0  0  0  0  0  0  0  0  0  0
   34.5550   33.1590   36.6590 C   0  0  0  0  0  0  0  0  0  0  0  0
   34.8790   31.7000   36.6110 C   0  0  0  0  0  0  0  0  0  0  0  0
   36.0680   31.4660   35.7280 C   0  0  0  0  0  0  0  0  0  0  0  0
   36.2430   29.3500   29.9100 H   0  0  0  0  0  0  0  0  0  0  0  0
   36.0620   31.8220   29.8500 H   0  0  0  0  0  0  0  0  0  0  0  0
   35.8560   33.0230   31.9290 H   0  0  0  0  0  0  0  0  0  0  0  0
   34.3090   33.3890   34.0300 H   0  0  0  0  0  0  0  0  0  0  0  0
   36.0270   34.0160   33.6960 H   0  0  0  0  0  0  0  0  0  0  0  0
   35.0000   34.9940   35.6550 H   0  0  0  0  0  0  0  0  0  0  0  0
   36.4800   34.0480   36.0960 H   0  0  0  0  0  0  0  0  0  0  0  0
   34.7550   33.5810   37.6790 H   0  0  0  0  0  0  0  0  0  0  0  0
   33.4980   33.3850   36.4560 H   0  0  0  0  0  0  0  0  0  0  0  0
   35.1490   31.3580   37.6380 H   0  0  0  0  0  0  0  0  0  0  0  0
   34.0320   31.0640   36.2890 H   0  0  0  0  0  0  0  0  0  0  0  0
   36.9330   32.0340   36.1590 H   0  0  0  0  0  0  0  0  0  0  0  0
   36.3830   30.4150   35.6800 H   0  0  0  0  0  0  0  0  0  0  0  0
   35.8560   25.7410   30.9840 C   0  0  0  0  0  0  0  0  0  0  0  0
   36.4790   25.0480   32.0440 C   0  0  0  0  0  0  0  0  0  0  0  0
   36.9790   25.7960   33.0850 C   0  0  0  0  0  0  0  0  0  0  0  0
   36.8380   27.1510   33.0270 N   0  0  0  0  0  0  0  0  0  0  0  0
   36.2410   27.7880   32.0100 C   0  0  0  0  0  0  0  0  0  0  0  0
   35.7560   27.0760   30.9990 N   0  0  0  0  0  0  0  0  0  0  0  0
   35.4460   25.1910   30.1390 H   0  0  0  0  0  0  0  0  0  0  0  0
   36.5580   23.9920   32.0320 H   0  0  0  0  0  0  0  0  0  0  0  0
   37.6420   25.7530   35.4890 C   0  0  0  0  0  3  0  0  0  0  0  0
   37.6430   25.2000   34.2360 C   0  0  0  0  0  0  0  0  0  0  0  0
   38.3240   24.0080   34.1000 C   0  0  0  0  0  0  0  0  0  0  0  0
   38.3610   23.5140   33.1190 H   0  0  0  0  0  0  0  0  0  0  0  0
   38.9840   23.3630   35.1260 C   0  0  0  0  0  0  0  0  0  0  0  0
   39.6920   22.2040   35.1630 N   0  0  0  0  0  0  0  0  0  0  0  0
   40.0970   22.0940   36.4430 C   0  0  0  0  0  0  0  0  0  0  0  0
   40.6990   21.2320   36.7580 H   0  0  0  0  0  0  0  0  0  0  0  0
   39.6770   23.1220   37.1920 N   0  0  0  0  0  0  0  0  0  0  0  0
   38.9720   23.9420   36.3940 C   0  0  0  0  0  0  0  0  0  0  0  0
   38.3010   25.1170   36.5340 C   0  0  0  0  0  3  0  0  0  0  0  0
   39.8540   21.5810   34.3610 H   0  0  0  0  0  0  0  0  0  0  0  0
  1  6  1  0  0  0  0
  2  1  2  0  0  0  0
  3  2  1  0  0  0  0
  3  4  2  0  0  0  0
  4  5  1  0  0  0  0
  5  7  1  0  0  0  0
  6  5  2  0  0  0  0
  7 12  1  0  0  0  0
  8  7  1  0  0  0  0
  8  9  1  0  0  0  0
  9 19  1  0  0  0  0
  9 10  1  0  0  0  0
 10 20  1  0  0  0  0
 11 10  1  0  0  0  0
 11 22  1  0  0  0  0
 12 24  1  0  0  0  0
 12 11  1  0  0  0  0
 13  2  1  0  0  0  0
 14  3  1  0  0  0  0
 15  4  1  0  0  0  0
 16  8  1  0  0  0  0
 17  8  1  0  0  0  0
 18  9  1  0  0  0  0
 21 10  1  0  0  0  0
 23 11  1  0  0  0  0
 25 12  1  0  0  0  0
 26 31  2  0  0  0  0
 26 27  1  0  0  0  0
 27 28  2  0  0  0  0
 28 35  1  0  0  0  0
 29 28  1  0  0  0  0
 30  1  1  0  0  0  0
 30 29  2  0  0  0  0
 31 30  1  0  0  0  0
 32 26  1  0  0  0  0
 33 27  1  0  0  0  0
 34 44  1  0  0  0  0
 35 34  2  0  0  0  0
 36 35  1  0  0  0  0
 36 38  2  0  0  0  0
 37 36  1  0  0  0  0
 38 39  1  0  0  0  0
 38 43  1  0  0  0  0
 39 40  1  0  0  0  0
 40 41  1  0  0  0  0
 40 42  2  0  0  0  0
 43 44  2  0  0  0  0
 43 42  1  0  0  0  0
 45 39  1  0  0  0  0
M  END
>  <minimizedAffinity>
-6.44499874

$$$$

 OpenBabel03272502573D

 45 49  0  0  0  0  0  0  0  0999 V2000
   38.4720   25.1580   35.2610 C   0  0  0  0  0  0  0  0  0  0  0  0
   37.5960   25.0620   36.3450 C   0  0  0  0  0  0  0  0  0  0  0  0
   37.8590   24.2040   37.3960 C   0  0  0  0  0  0  0  0  0  0  0  0
   39.0230   23.4620   37.3070 C   0  0  0  0  0  0  0  0  0  0  0  0
   39.9070   23.5430   36.2380 C   0  0  0  0  0  0  0  0  0  0  0  0
   39.5850   24.4060   35.2380 N   0  0  0  0  0  0  0  0  0  0  0  0
   41.0570   22.7430   36.2550 N   0  0  0  0  0  0  0  0  0  0  0  0
   41.1320   21.6530   37.1900 C   0  0  0  0  0  0  0  0  0  0  0  0
   42.5050   21.0400   37.0690 C   0  0  0  0  0  0  0  0  0  0  0  0
   42.7410   20.5710   35.6450 C   0  0  0  0  0  0  0  0  0  0  0  0
   42.4930   21.6670   34.6580 C   0  0  0  0  0  0  0  0  0  0  0  0
   42.1890   22.9480   35.3780 C   0  0  0  0  0  0  0  0  0  0  0  0
   36.7130   25.6820   36.3230 H   0  0  0  0  0  0  0  0  0  0  0  0
   37.1720   24.1480   38.2170 H   0  0  0  0  0  0  0  0  0  0  0  0
   39.1720   22.8050   38.1660 H   0  0  0  0  0  0  0  0  0  0  0  0
   40.4080   20.8760   36.8640 H   0  0  0  0  0  0  0  0  0  0  0  0
   41.0180   21.9520   38.2530 H   0  0  0  0  0  0  0  0  0  0  0  0
   42.5020   20.1190   37.7210 H   0  0  0  0  0  0  0  0  0  0  0  0
   43.3050   21.7150   37.4290 H   0  0  0  0  0  0  0  0  0  0  0  0
   43.8140   20.2450   35.6190 H   0  0  0  0  0  0  0  0  0  0  0  0
   42.1580   19.6600   35.4500 H   0  0  0  0  0  0  0  0  0  0  0  0
   43.4190   21.8280   34.0590 H   0  0  0  0  0  0  0  0  0  0  0  0
   41.6920   21.4390   33.9280 H   0  0  0  0  0  0  0  0  0  0  0  0
   43.0770   23.2020   36.0140 H   0  0  0  0  0  0  0  0  0  0  0  0
   42.0350   23.8050   34.7090 H   0  0  0  0  0  0  0  0  0  0  0  0
   38.5330   26.8450   32.0220 C   0  0  0  0  0  0  0  0  0  0  0  0
   37.5210   27.8200   32.1590 C   0  0  0  0  0  0  0  0  0  0  0  0
   36.8460   27.8710   33.3570 C   0  0  0  0  0  0  0  0  0  0  0  0
   37.1970   26.9830   34.3300 N   0  0  0  0  0  0  0  0  0  0  0  0
   38.1620   26.0650   34.1780 C   0  0  0  0  0  0  0  0  0  0  0  0
   38.8210   26.0060   33.0260 N   0  0  0  0  0  0  0  0  0  0  0  0
   39.0940   26.7670   31.0930 H   0  0  0  0  0  0  0  0  0  0  0  0
   37.2940   28.4830   31.3660 H   0  0  0  0  0  0  0  0  0  0  0  0
   35.8050   29.7290   34.6550 C   0  0  0  0  0  3  0  0  0  0  0  0
   35.7830   28.8310   33.6210 C   0  0  0  0  0  0  0  0  0  0  0  0
   34.6700   28.8720   32.8060 C   0  0  0  0  0  0  0  0  0  0  0  0
   34.5940   28.1760   31.9590 H   0  0  0  0  0  0  0  0  0  0  0  0
   33.6120   29.7410   32.9720 C   0  0  0  0  0  0  0  0  0  0  0  0
   32.4590   29.9120   32.2730 N   0  0  0  0  0  0  0  0  0  0  0  0
   31.8190   30.9110   32.9100 C   0  0  0  0  0  0  0  0  0  0  0  0
   30.8430   31.2590   32.5480 H   0  0  0  0  0  0  0  0  0  0  0  0
   32.5160   31.3630   33.9610 N   0  0  0  0  0  0  0  0  0  0  0  0
   33.6530   30.6470   34.0300 C   0  0  0  0  0  0  0  0  0  0  0  0
   34.7480   30.6110   34.8360 C   0  0  0  0  0  3  0  0  0  0  0  0
   32.1810   29.3700   31.4440 H   0  0  0  0  0  0  0  0  0  0  0  0
  1  2  1  0  0  0  0
  2  3  2  0  0  0  0
  3 14  1  0  0  0  0
  4  3  1  0  0  0  0
  4 15  1  0  0  0  0
  5  7  1  0  0  0  0
  5  4  2  0  0  0  0
  6  1  2  0  0  0  0
  6  5  1  0  0  0  0
  7  8  1  0  0  0  0
  8 17  1  0  0  0  0
  9  8  1  0  0  0  0
  9 19  1  0  0  0  0
  9 18  1  0  0  0  0
 10  9  1  0  0  0  0
 11 12  1  0  0  0  0
 11 10  1  0  0  0  0
 12 24  1  0  0  0  0
 12  7  1  0  0  0  0
 13  2  1  0  0  0  0
 16  8  1  0  0  0  0
 20 10  1  0  0  0  0
 21 10  1  0  0  0  0
 22 11  1  0  0  0  0
 23 11  1  0  0  0  0
 25 12  1  0  0  0  0
 26 27  2  0  0  0  0
 26 31  1  0  0  0  0
 27 28  1  0  0  0  0
 28 35  1  0  0  0  0
 28 29  2  0  0  0  0
 30 29  1  0  0  0  0
 30  1  1  0  0  0  0
 31 30  2  0  0  0  0
 32 26  1  0  0  0  0
 33 27  1  0  0  0  0
 34 44  1  0  0  0  0
 35 34  2  0  0  0  0
 36 38  2  0  0  0  0
 36 35  1  0  0  0  0
 37 36  1  0  0  0  0
 38 43  1  0  0  0  0
 39 40  1  0  0  0  0
 39 38  1  0  0  0  0
 40 42  2  0  0  0  0
 41 40  1  0  0  0  0
 42 43  1  0  0  0  0
 43 44  2  0  0  0  0
 45 39  1  0  0  0  0
M  END
>  <minimizedAffinity>
-6.41496515

$$$$

 OpenBabel03272502573D

 45 49  0  0  0  0  0  0  0  0999 V2000
   35.3090   29.7400   34.2710 C   0  0  0  0  0  0  0  0  0  0  0  0
   34.0850   29.5460   34.9150 C   0  0  0  0  0  0  0  0  0  0  0  0
   33.4540   30.5870   35.5700 C   0  0  0  0  0  0  0  0  0  0  0  0
   34.1020   31.8100   35.5450 C   0  0  0  0  0  0  0  0  0  0  0  0
   35.3200   32.0220   34.9100 C   0  0  0  0  0  0  0  0  0  0  0  0
   35.8830   30.9540   34.2870 N   0  0  0  0  0  0  0  0  0  0  0  0
   35.8830   33.3050   34.9500 N   0  0  0  0  0  0  0  0  0  0  0  0
   35.3670   34.2620   35.8910 C   0  0  0  0  0  0  0  0  0  0  0  0
   36.0700   35.5740   35.6430 C   0  0  0  0  0  0  0  0  0  0  0  0
   37.5700   35.3950   35.7920 C   0  0  0  0  0  0  0  0  0  0  0  0
   38.0780   34.2790   34.9360 C   0  0  0  0  0  0  0  0  0  0  0  0
   36.9660   33.7320   34.0910 C   0  0  0  0  0  0  0  0  0  0  0  0
   33.6580   28.5560   34.8790 H   0  0  0  0  0  0  0  0  0  0  0  0
   32.5160   30.4150   36.0570 H   0  0  0  0  0  0  0  0  0  0  0  0
   33.5540   32.5890   36.0790 H   0  0  0  0  0  0  0  0  0  0  0  0
   35.6650   33.9310   36.9100 H   0  0  0  0  0  0  0  0  0  0  0  0
   34.2810   34.4670   35.7890 H   0  0  0  0  0  0  0  0  0  0  0  0
   35.7400   36.2730   36.4650 H   0  0  0  0  0  0  0  0  0  0  0  0
   35.7930   36.0260   34.6710 H   0  0  0  0  0  0  0  0  0  0  0  0
   38.0130   36.3760   35.4760 H   0  0  0  0  0  0  0  0  0  0  0  0
   37.8300   35.2910   36.8560 H   0  0  0  0  0  0  0  0  0  0  0  0
   38.8590   34.6800   34.2480 H   0  0  0  0  0  0  0  0  0  0  0  0
   38.5630   33.4620   35.5060 H   0  0  0  0  0  0  0  0  0  0  0  0
   36.5850   34.5650   33.4440 H   0  0  0  0  0  0  0  0  0  0  0  0
   37.2820   32.9330   33.4080 H   0  0  0  0  0  0  0  0  0  0  0  0
   36.4800   27.4800   31.6510 C   0  0  0  0  0  0  0  0  0  0  0  0
   37.1600   26.4820   32.3810 C   0  0  0  0  0  0  0  0  0  0  0  0
   37.1990   26.6110   33.7500 C   0  0  0  0  0  0  0  0  0  0  0  0
   36.5800   27.6890   34.3110 N   0  0  0  0  0  0  0  0  0  0  0  0
   35.9390   28.6250   33.5980 C   0  0  0  0  0  0  0  0  0  0  0  0
   35.8950   28.5110   32.2750 N   0  0  0  0  0  0  0  0  0  0  0  0
   36.4230   27.4200   30.5660 H   0  0  0  0  0  0  0  0  0  0  0  0
   37.6220   25.6670   31.8880 H   0  0  0  0  0  0  0  0  0  0  0  0
   38.8460   24.7890   34.1860 C   0  0  0  0  0  3  0  0  0  0  0  0
   37.8680   25.6470   34.6140 C   0  0  0  0  0  0  0  0  0  0  0  0
   37.5270   25.5610   35.9480 C   0  0  0  0  0  0  0  0  0  0  0  0
   36.7480   26.2230   36.3520 H   0  0  0  0  0  0  0  0  0  0  0  0
   38.1000   24.6840   36.8460 C   0  0  0  0  0  0  0  0  0  0  0  0
   37.8850   24.4710   38.1700 N   0  0  0  0  0  0  0  0  0  0  0  0
   38.7440   23.4880   38.5020 C   0  0  0  0  0  0  0  0  0  0  0  0
   38.7810   23.1140   39.5320 H   0  0  0  0  0  0  0  0  0  0  0  0
   39.4730   23.0860   37.4520 N   0  0  0  0  0  0  0  0  0  0  0  0
   39.0930   23.8190   36.3910 C   0  0  0  0  0  0  0  0  0  0  0  0
   39.4340   23.9010   35.0770 C   0  0  0  0  0  3  0  0  0  0  0  0
   37.2030   24.9790   38.7500 H   0  0  0  0  0  0  0  0  0  0  0  0
  1  6  2  0  0  0  0
  1  2  1  0  0  0  0
  2  3  2  0  0  0  0
  3 14  1  0  0  0  0
  4  3  1  0  0  0  0
  4 15  1  0  0  0  0
  5  7  1  0  0  0  0
  5  4  2  0  0  0  0
  6  5  1  0  0  0  0
  7  8  1  0  0  0  0
  8 16  1  0  0  0  0
  9 10  1  0  0  0  0
  9  8  1  0  0  0  0
  9 18  1  0  0  0  0
 10 21  1  0  0  0  0
 11 23  1  0  0  0  0
 11 10  1  0  0  0  0
 12 11  1  0  0  0  0
 12  7  1  0  0  0  0
 13  2  1  0  0  0  0
 17  8  1  0  0  0  0
 19  9  1  0  0  0  0
 20 10  1  0  0  0  0
 22 11  1  0  0  0  0
 24 12  1  0  0  0  0
 25 12  1  0  0  0  0
 26 31  2  0  0  0  0
 26 27  1  0  0  0  0
 27 28  2  0  0  0  0
 28 29  1  0  0  0  0
 28 35  1  0  0  0  0
 30  1  1  0  0  0  0
 30 29  2  0  0  0  0
 31 30  1  0  0  0  0
 32 26  1  0  0  0  0
 33 27  1  0  0  0  0
 34 35  2  0  0  0  0
 34 44  1  0  0  0  0
 35 36  1  0  0  0  0
 36 37  1  0  0  0  0
 36 38  2  0  0  0  0
 38 39  1  0  0  0  0
 39 40  1  0  0  0  0
 39 45  1  0  0  0  0
 40 41  1  0  0  0  0
 42 40  2  0  0  0  0
 43 38  1  0  0  0  0
 43 42  1  0  0  0  0
 44 43  2  0  0  0  0
M  END
>  <minimizedAffinity>
-6.38217306

$$$$

 OpenBabel03272502573D

 45 49  0  0  0  0  0  0  0  0999 V2000
   39.3080   26.4850   32.7420 C   0  0  0  0  0  0  0  0  0  0  0  0
   40.5870   26.2920   32.2130 C   0  0  0  0  0  0  0  0  0  0  0  0
   41.4650   25.3930   32.7890 C   0  0  0  0  0  0  0  0  0  0  0  0
   41.0040   24.7100   33.9010 C   0  0  0  0  0  0  0  0  0  0  0  0
   39.7350   24.8890   34.4410 C   0  0  0  0  0  0  0  0  0  0  0  0
   38.9250   25.7890   33.8240 N   0  0  0  0  0  0  0  0  0  0  0  0
   39.3760   24.1420   35.5700 N   0  0  0  0  0  0  0  0  0  0  0  0
   40.4050   23.4680   36.3160 C   0  0  0  0  0  0  0  0  0  0  0  0
   39.7330   22.6600   37.3990 C   0  0  0  0  0  0  0  0  0  0  0  0
   38.9030   23.5690   38.2860 C   0  0  0  0  0  0  0  0  0  0  0  0
   37.9490   24.3980   37.4860 C   0  0  0  0  0  0  0  0  0  0  0  0
   38.0140   24.0030   36.0400 C   0  0  0  0  0  0  0  0  0  0  0  0
   40.8550   26.8710   31.3430 H   0  0  0  0  0  0  0  0  0  0  0  0
   42.4400   25.2610   32.3670 H   0  0  0  0  0  0  0  0  0  0  0  0
   41.7430   24.0180   34.3080 H   0  0  0  0  0  0  0  0  0  0  0  0
   41.0130   24.2440   36.8310 H   0  0  0  0  0  0  0  0  0  0  0  0
   41.0080   22.7510   35.7220 H   0  0  0  0  0  0  0  0  0  0  0  0
   40.5590   22.2390   38.0410 H   0  0  0  0  0  0  0  0  0  0  0  0
   39.1440   21.8150   36.9930 H   0  0  0  0  0  0  0  0  0  0  0  0
   38.3520   22.8790   38.9770 H   0  0  0  0  0  0  0  0  0  0  0  0
   39.5650   24.1610   38.9370 H   0  0  0  0  0  0  0  0  0  0  0  0
   36.9120   24.1980   37.8440 H   0  0  0  0  0  0  0  0  0  0  0  0
   38.1050   25.4890   37.5920 H   0  0  0  0  0  0  0  0  0  0  0  0
   37.7330   22.9200   35.9670 H   0  0  0  0  0  0  0  0  0  0  0  0
   37.3070   24.5480   35.4010 H   0  0  0  0  0  0  0  0  0  0  0  0
   37.8520   28.7940   30.3160 C   0  0  0  0  0  0  0  0  0  0  0  0
   36.6840   29.2400   30.9710 C   0  0  0  0  0  0  0  0  0  0  0  0
   36.4270   28.7360   32.2250 C   0  0  0  0  0  0  0  0  0  0  0  0
   37.3140   27.8440   32.7520 N   0  0  0  0  0  0  0  0  0  0  0  0
   38.4180   27.4350   32.1120 C   0  0  0  0  0  0  0  0  0  0  0  0
   38.6770   27.9150   30.9000 N   0  0  0  0  0  0  0  0  0  0  0  0
   38.0960   29.1660   29.3230 H   0  0  0  0  0  0  0  0  0  0  0  0
   36.0320   29.9350   30.5090 H   0  0  0  0  0  0  0  0  0  0  0  0
   35.3160   29.6200   34.2760 C   0  0  0  0  0  3  0  0  0  0  0  0
   35.2570   29.1170   33.0030 C   0  0  0  0  0  0  0  0  0  0  0  0
   33.9940   28.9800   32.4640 C   0  0  0  0  0  0  0  0  0  0  0  0
   33.8800   28.5810   31.4460 H   0  0  0  0  0  0  0  0  0  0  0  0
   32.8250   29.3110   33.1180 C   0  0  0  0  0  0  0  0  0  0  0  0
   31.5210   29.2400   32.7390 N   0  0  0  0  0  0  0  0  0  0  0  0
   30.8330   29.7050   33.8000 C   0  0  0  0  0  0  0  0  0  0  0  0
   29.7380   29.7580   33.7650 H   0  0  0  0  0  0  0  0  0  0  0  0
   31.6430   30.0560   34.8070 N   0  0  0  0  0  0  0  0  0  0  0  0
   32.9060   29.8210   34.4120 C   0  0  0  0  0  0  0  0  0  0  0  0
   34.1490   29.9590   34.9480 C   0  0  0  0  0  3  0  0  0  0  0  0
   31.1850   28.8990   31.8290 H   0  0  0  0  0  0  0  0  0  0  0  0
  1  6  1  0  0  0  0
  2  1  2  0  0  0  0
  2  3  1  0  0  0  0
  3  4  2  0  0  0  0
  4 15  1  0  0  0  0
  4  5  1  0  0  0  0
  5  7  1  0  0  0  0
  6  5  2  0  0  0  0
  7 12  1  0  0  0  0
  7  8  1  0  0  0  0
  8 16  1  0  0  0  0
  8  9  1  0  0  0  0
  9 18  1  0  0  0  0
  9 10  1  0  0  0  0
 10 21  1  0  0  0  0
 10 20  1  0  0  0  0
 11 23  1  0  0  0  0
 11 22  1  0  0  0  0
 11 10  1  0  0  0  0
 12 11  1  0  0  0  0
 13  2  1  0  0  0  0
 14  3  1  0  0  0  0
 17  8  1  0  0  0  0
 19  9  1  0  0  0  0
 24 12  1  0  0  0  0
 25 12  1  0  0  0  0
 26 31  2  0  0  0  0
 26 27  1  0  0  0  0
 27 28  2  0  0  0  0
 28 29  1  0  0  0  0
 28 35  1  0  0  0  0
 30  1  1  0  0  0  0
 30 29  2  0  0  0  0
 31 30  1  0  0  0  0
 32 26  1  0  0  0  0
 33 27  1  0  0  0  0
 34 44  1  0  0  0  0
 35 34  2  0  0  0  0
 36 35  1  0  0  0  0
 36 38  2  0  0  0  0
 37 36  1  0  0  0  0
 38 43  1  0  0  0  0
 39 38  1  0  0  0  0
 39 40  1  0  0  0  0
 40 42  2  0  0  0  0
 41 40  1  0  0  0  0
 43 42  1  0  0  0  0
 43 44  2  0  0  0  0
 45 39  1  0  0  0  0
M  END
>  <minimizedAffinity>
-6.3083601

$$$$

 OpenBabel03272502573D

 45 49  0  0  0  0  0  0  0  0999 V2000
   37.2970   25.3040   31.9900 C   0  0  0  0  0  0  0  0  0  0  0  0
   38.2640   25.4610   30.9940 C   0  0  0  0  0  0  0  0  0  0  0  0
   38.6070   24.4080   30.1670 C   0  0  0  0  0  0  0  0  0  0  0  0
   37.9430   23.2130   30.3850 C   0  0  0  0  0  0  0  0  0  0  0  0
   36.9780   23.0390   31.3700 C   0  0  0  0  0  0  0  0  0  0  0  0
   36.6910   24.1160   32.1470 N   0  0  0  0  0  0  0  0  0  0  0  0
   36.3710   21.7830   31.4990 N   0  0  0  0  0  0  0  0  0  0  0  0
   36.9700   20.6500   30.8470 C   0  0  0  0  0  0  0  0  0  0  0  0
   36.0590   19.4660   31.0570 C   0  0  0  0  0  0  0  0  0  0  0  0
   35.8640   19.2180   32.5420 C   0  0  0  0  0  0  0  0  0  0  0  0
   35.4040   20.4520   33.2500 C   0  0  0  0  0  0  0  0  0  0  0  0
   35.1610   21.5520   32.2590 C   0  0  0  0  0  0  0  0  0  0  0  0
   38.7260   26.4310   30.9010 H   0  0  0  0  0  0  0  0  0  0  0  0
   39.3510   24.5510   29.4100 H   0  0  0  0  0  0  0  0  0  0  0  0
   38.2590   22.4240   29.7010 H   0  0  0  0  0  0  0  0  0  0  0  0
   37.9190   20.4170   31.3750 H   0  0  0  0  0  0  0  0  0  0  0  0
   37.0860   20.7610   29.7490 H   0  0  0  0  0  0  0  0  0  0  0  0
   36.6020   18.5680   30.6430 H   0  0  0  0  0  0  0  0  0  0  0  0
   35.0980   19.5680   30.5170 H   0  0  0  0  0  0  0  0  0  0  0  0
   35.0890   18.4090   32.6030 H   0  0  0  0  0  0  0  0  0  0  0  0
   36.7760   18.7760   32.9690 H   0  0  0  0  0  0  0  0  0  0  0  0
   34.4360   20.2350   33.7580 H   0  0  0  0  0  0  0  0  0  0  0  0
   36.0960   20.7980   34.0430 H   0  0  0  0  0  0  0  0  0  0  0  0
   34.3680   21.2030   31.5470 H   0  0  0  0  0  0  0  0  0  0  0  0
   34.7830   22.4780   32.7110 H   0  0  0  0  0  0  0  0  0  0  0  0
   37.2010   27.5990   34.8300 C   0  0  0  0  0  0  0  0  0  0  0  0
   36.2960   28.5920   34.3990 C   0  0  0  0  0  0  0  0  0  0  0  0
   35.7440   28.4480   33.1460 C   0  0  0  0  0  0  0  0  0  0  0  0
   36.1040   27.3600   32.4070 N   0  0  0  0  0  0  0  0  0  0  0  0
   36.9660   26.4290   32.8380 C   0  0  0  0  0  0  0  0  0  0  0  0
   37.5050   26.5570   34.0450 N   0  0  0  0  0  0  0  0  0  0  0  0
   37.6620   27.6710   35.8130 H   0  0  0  0  0  0  0  0  0  0  0  0
   36.0550   29.4160   35.0190 H   0  0  0  0  0  0  0  0  0  0  0  0
   33.4600   29.4170   32.8850 C   0  0  0  0  0  3  0  0  0  0  0  0
   34.7970   29.4040   32.5880 C   0  0  0  0  0  0  0  0  0  0  0  0
   35.2310   30.3700   31.7040 C   0  0  0  0  0  0  0  0  0  0  0  0
   36.2930   30.4110   31.4250 H   0  0  0  0  0  0  0  0  0  0  0  0
   34.4150   31.3180   31.1210 C   0  0  0  0  0  0  0  0  0  0  0  0
   34.6750   32.3240   30.2440 N   0  0  0  0  0  0  0  0  0  0  0  0
   33.4820   32.9140   30.0390 C   0  0  0  0  0  0  0  0  0  0  0  0
   33.4010   33.7730   29.3610 H   0  0  0  0  0  0  0  0  0  0  0  0
   32.5050   32.3260   30.7420 N   0  0  0  0  0  0  0  0  0  0  0  0
   33.0580   31.3150   31.4360 C   0  0  0  0  0  0  0  0  0  0  0  0
   32.6250   30.3650   32.3080 C   0  0  0  0  0  3  0  0  0  0  0  0
   35.6000   32.5450   29.8510 H   0  0  0  0  0  0  0  0  0  0  0  0
  1  6  1  0  0  0  0
  1 30  1  0  0  0  0
  2  1  2  0  0  0  0
  3  4  2  0  0  0  0
  3  2  1  0  0  0  0
  4  5  1  0  0  0  0
  5  7  1  0  0  0  0
  5  6  2  0  0  0  0
  7 12  1  0  0  0  0
  8  9  1  0  0  0  0
  8 16  1  0  0  0  0
  8  7  1  0  0  0  0
  9 10  1  0  0  0  0
 10 20  1  0  0  0  0
 10 21  1  0  0  0  0
 10 11  1  0  0  0  0
 11 22  1  0  0  0  0
 11 23  1  0  0  0  0
 12 25  1  0  0  0  0
 12 11  1  0  0  0  0
 13  2  1  0  0  0  0
 14  3  1  0  0  0  0
 15  4  1  0  0  0  0
 17  8  1  0  0  0  0
 18  9  1  0  0  0  0
 19  9  1  0  0  0  0
 24 12  1  0  0  0  0
 26 32  1  0  0  0  0
 27 26  1  0  0  0  0
 27 33  1  0  0  0  0
 28 27  2  0  0  0  0
 29 30  2  0  0  0  0
 29 28  1  0  0  0  0
 30 31  1  0  0  0  0
 31 26  2  0  0  0  0
 35 34  1  0  0  0  0
 35 28  1  0  0  0  0
 36 35  2  0  0  0  0
 37 36  1  0  0  0  0
 38 43  2  0  0  0  0
 38 36  1  0  0  0  0
 39 38  1  0  0  0  0
 40 39  1  0  0  0  0
 40 42  2  0  0  0  0
 41 40  1  0  0  0  0
 42 43  1  0  0  0  0
 43 44  1  0  0  0  0
 44 34  2  0  0  0  0
 45 39  1  0  0  0  0
M  END
>  <minimizedAffinity>
-6.2817173

$$$$
