
 OpenBabel03262523493D

 41 45  0  0  0  0  0  0  0  0999 V2000
   38.6900   27.1620   34.0350 Cl  0  0  0  0  0  0  0  0  0  0  0  0
   37.6480   26.1360   33.0590 C   0  0  0  0  0  0  0  0  0  0  0  0
   36.6590   26.7960   32.3590 C   0  0  0  0  0  0  0  0  0  0  0  0
   35.7750   26.0660   31.5510 C   0  0  0  0  0  0  0  0  0  0  0  0
   35.8860   24.6860   31.4490 C   0  0  0  0  0  0  0  0  0  0  0  0
   36.8950   24.0630   32.1700 C   0  0  0  0  0  0  0  0  0  0  0  0
   37.7830   24.7760   32.9790 C   0  0  0  0  0  0  0  0  0  0  0  0
   34.9880   26.5230   30.9850 H   0  0  0  0  0  0  0  0  0  0  0  0
   35.2140   24.0940   30.8300 H   0  0  0  0  0  0  0  0  0  0  0  0
   36.9990   22.9800   32.1040 H   0  0  0  0  0  0  0  0  0  0  0  0
   40.1360   23.8970   33.3130 C   0  0  0  0  0  3  0  0  0  0  0  0
   38.8450   24.1250   33.7380 C   0  0  0  0  0  0  0  0  0  0  0  0
   38.5150   23.6960   35.0190 C   0  0  0  0  0  0  0  0  0  0  0  0
   37.5360   23.8260   35.4450 H   0  0  0  0  0  0  0  0  0  0  0  0
   39.4410   23.0630   35.8370 C   0  0  0  0  0  0  0  0  0  0  0  0
   39.3740   22.5570   37.1000 N   0  0  0  0  0  0  0  0  0  0  0  0
   40.5810   22.0390   37.4310 C   0  0  0  0  0  0  0  0  0  0  0  0
   40.8350   21.5660   38.3730 H   0  0  0  0  0  0  0  0  0  0  0  0
   41.3980   22.2170   36.3860 N   0  0  0  0  0  0  0  0  0  0  0  0
   40.7340   22.8410   35.3930 C   0  0  0  0  0  0  0  0  0  0  0  0
   41.0590   23.2680   34.1230 C   0  0  0  0  0  3  0  0  0  0  0  0
   38.5150   22.5800   37.6940 H   0  0  0  0  0  0  0  0  0  0  0  0
   35.4980   32.6390   32.6450 Cl  0  0  0  0  0  0  0  0  0  0  0  0
   35.8390   30.9180   32.5610 C   0  0  0  0  0  0  0  0  0  0  0  0
   35.5220   30.0940   33.6160 C   0  0  0  0  0  0  0  0  0  0  0  0
   35.8170   28.7640   33.4810 C   0  0  0  0  0  0  0  0  0  0  0  0
   36.4070   28.2300   32.3560 C   0  0  0  0  0  0  0  0  0  0  0  0
   36.7130   29.1030   31.3080 C   0  0  0  0  0  0  0  0  0  0  0  0
   37.4560   28.3930   29.9030 Cl  0  0  0  0  0  0  0  0  0  0  0  0
   36.4320   30.4460   31.4040 C   0  0  0  0  0  0  0  0  0  0  0  0
   35.5630   28.1240   34.3190 H   0  0  0  0  0  0  0  0  0  0  0  0
   36.6800   31.0960   30.5780 H   0  0  0  0  0  0  0  0  0  0  0  0
   35.0100   31.9640   36.8700 C   0  0  0  0  0  0  0  0  0  0  0  0
   35.6430   31.3840   35.7600 C   0  0  0  0  0  0  0  0  0  0  0  0
   34.8950   30.7130   34.7930 C   0  0  0  0  0  0  0  0  0  0  0  0
   33.5450   30.6560   34.9870 N   0  0  0  0  0  0  0  0  0  0  0  0
   32.9710   31.2260   36.0680 C   0  0  0  0  0  0  0  0  0  0  0  0
   33.6810   31.8640   36.9880 N   0  0  0  0  0  0  0  0  0  0  0  0
   35.7260   32.4410   37.5180 H   0  0  0  0  0  0  0  0  0  0  0  0
   36.7040   31.3930   35.5450 H   0  0  0  0  0  0  0  0  0  0  0  0
   31.9010   31.1420   36.1580 H   0  0  0  0  0  0  0  0  0  0  0  0
  2  1  1  0  0  0  0
  3  2  2  0  0  0  0
  4  3  1  0  0  0  0
  5  4  2  0  0  0  0
  5  6  1  0  0  0  0
  6  7  2  0  0  0  0
  7  2  1  0  0  0  0
  7 12  1  0  0  0  0
  8  4  1  0  0  0  0
  9  5  1  0  0  0  0
 10  6  1  0  0  0  0
 11 12  2  0  0  0  0
 11 21  1  0  0  0  0
 12 13  1  0  0  0  0
 13 14  1  0  0  0  0
 13 15  2  0  0  0  0
 15 16  1  0  0  0  0
 16 17  1  0  0  0  0
 16 22  1  0  0  0  0
 17 18  1  0  0  0  0
 19 17  2  0  0  0  0
 20 15  1  0  0  0  0
 20 19  1  0  0  0  0
 21 20  2  0  0  0  0
 24 23  1  0  0  0  0
 24 25  1  0  0  0  0
 25 35  1  0  0  0  0
 26 25  2  0  0  0  0
 26 31  1  0  0  0  0
 27  3  1  0  0  0  0
 27 26  1  0  0  0  0
 28 30  1  0  0  0  0
 28 27  2  0  0  0  0
 29 28  1  0  0  0  0
 30 24  2  0  0  0  0
 32 30  1  0  0  0  0
 33 38  1  0  0  0  0
 33 39  1  0  0  0  0
 34 33  2  0  0  0  0
 35 36  2  0  0  0  0
 35 34  1  0  0  0  0
 36 37  1  0  0  0  0
 37 41  1  0  0  0  0
 37 38  2  0  0  0  0
 40 34  1  0  0  0  0
M  END
>  <minimizedAffinity>
-7.07115221

$$$$

 OpenBabel03262523493D

 41 45  0  0  0  0  0  0  0  0999 V2000
   35.8880   25.0930   31.5420 Cl  0  0  0  0  0  0  0  0  0  0  0  0
   37.3090   25.0480   32.5760 C   0  0  0  0  0  0  0  0  0  0  0  0
   37.7520   26.2750   33.0240 C   0  0  0  0  0  0  0  0  0  0  0  0
   38.8790   26.3460   33.8550 C   0  0  0  0  0  0  0  0  0  0  0  0
   39.5540   25.1920   34.2320 C   0  0  0  0  0  0  0  0  0  0  0  0
   39.0730   23.9790   33.7590 C   0  0  0  0  0  0  0  0  0  0  0  0
   37.9510   23.8920   32.9300 C   0  0  0  0  0  0  0  0  0  0  0  0
   39.2700   27.2700   34.2320 H   0  0  0  0  0  0  0  0  0  0  0  0
   40.4310   25.2160   34.8750 H   0  0  0  0  0  0  0  0  0  0  0  0
   39.5880   23.0620   34.0430 H   0  0  0  0  0  0  0  0  0  0  0  0
   37.5950   22.1180   31.1570 C   0  0  0  0  0  3  0  0  0  0  0  0
   37.4430   22.6190   32.4310 C   0  0  0  0  0  0  0  0  0  0  0  0
   36.7370   21.8380   33.3400 C   0  0  0  0  0  0  0  0  0  0  0  0
   36.5640   22.1370   34.3580 H   0  0  0  0  0  0  0  0  0  0  0  0
   36.2050   20.6060   32.9820 C   0  0  0  0  0  0  0  0  0  0  0  0
   35.4900   19.6690   33.6640 N   0  0  0  0  0  0  0  0  0  0  0  0
   35.2150   18.6350   32.8340 C   0  0  0  0  0  0  0  0  0  0  0  0
   34.6600   17.7400   33.0920 H   0  0  0  0  0  0  0  0  0  0  0  0
   35.7530   18.9200   31.6420 N   0  0  0  0  0  0  0  0  0  0  0  0
   36.3670   20.1180   31.6960 C   0  0  0  0  0  0  0  0  0  0  0  0
   37.0680   20.8950   30.7980 C   0  0  0  0  0  3  0  0  0  0  0  0
   35.2120   19.7610   34.6670 H   0  0  0  0  0  0  0  0  0  0  0  0
   35.2290   31.5990   32.0960 Cl  0  0  0  0  0  0  0  0  0  0  0  0
   35.9710   30.0320   32.3700 C   0  0  0  0  0  0  0  0  0  0  0  0
   35.8680   29.4170   33.5970 C   0  0  0  0  0  0  0  0  0  0  0  0
   36.4720   28.1970   33.7380 C   0  0  0  0  0  0  0  0  0  0  0  0
   37.1640   27.5730   32.7230 C   0  0  0  0  0  0  0  0  0  0  0  0
   37.2440   28.2320   31.4930 C   0  0  0  0  0  0  0  0  0  0  0  0
   38.1250   27.4140   30.2340 Cl  0  0  0  0  0  0  0  0  0  0  0  0
   36.6510   29.4600   31.3100 C   0  0  0  0  0  0  0  0  0  0  0  0
   36.3840   27.7230   34.7090 H   0  0  0  0  0  0  0  0  0  0  0  0
   36.7300   29.9440   30.3480 H   0  0  0  0  0  0  0  0  0  0  0  0
   34.9870   31.7040   36.4850 C   0  0  0  0  0  0  0  0  0  0  0  0
   35.7330   31.0460   35.4960 C   0  0  0  0  0  0  0  0  0  0  0  0
   35.1200   30.1260   34.6460 C   0  0  0  0  0  0  0  0  0  0  0  0
   33.7850   29.9080   34.8320 N   0  0  0  0  0  0  0  0  0  0  0  0
   33.1000   30.5600   35.7960 C   0  0  0  0  0  0  0  0  0  0  0  0
   33.6820   31.4350   36.6030 N   0  0  0  0  0  0  0  0  0  0  0  0
   35.6060   32.3780   37.0520 H   0  0  0  0  0  0  0  0  0  0  0  0
   36.7890   31.1710   35.2950 H   0  0  0  0  0  0  0  0  0  0  0  0
   32.0500   30.3390   35.8860 H   0  0  0  0  0  0  0  0  0  0  0  0
  1  2  1  0  0  0  0
  2  7  2  0  0  0  0
  2  3  1  0  0  0  0
  3  4  2  0  0  0  0
  4  5  1  0  0  0  0
  4  8  1  0  0  0  0
  5  9  1  0  0  0  0
  6 10  1  0  0  0  0
  6  5  2  0  0  0  0
  7  6  1  0  0  0  0
 11 12  1  0  0  0  0
 12  7  1  0  0  0  0
 12 13  2  0  0  0  0
 13 14  1  0  0  0  0
 15 13  1  0  0  0  0
 15 16  1  0  0  0  0
 16 22  1  0  0  0  0
 17 18  1  0  0  0  0
 17 16  1  0  0  0  0
 19 20  1  0  0  0  0
 19 17  2  0  0  0  0
 20 15  2  0  0  0  0
 21 11  2  0  0  0  0
 21 20  1  0  0  0  0
 23 24  1  0  0  0  0
 24 25  1  0  0  0  0
 25 26  2  0  0  0  0
 25 35  1  0  0  0  0
 26 31  1  0  0  0  0
 27  3  1  0  0  0  0
 27 26  1  0  0  0  0
 28 27  2  0  0  0  0
 29 28  1  0  0  0  0
 30 28  1  0  0  0  0
 30 24  2  0  0  0  0
 32 30  1  0  0  0  0
 33 38  1  0  0  0  0
 33 39  1  0  0  0  0
 34 33  2  0  0  0  0
 35 36  2  0  0  0  0
 35 34  1  0  0  0  0
 36 37  1  0  0  0  0
 37 41  1  0  0  0  0
 37 38  2  0  0  0  0
 40 34  1  0  0  0  0
M  END
>  <minimizedAffinity>
-6.93918276

$$$$

 OpenBabel03262523493D

 41 45  0  0  0  0  0  0  0  0999 V2000
   38.4670   27.2610   34.7870 Cl  0  0  0  0  0  0  0  0  0  0  0  0
   37.6830   26.1670   33.6550 C   0  0  0  0  0  0  0  0  0  0  0  0
   36.8140   26.7630   32.7650 C   0  0  0  0  0  0  0  0  0  0  0  0
   36.1380   25.9760   31.8220 C   0  0  0  0  0  0  0  0  0  0  0  0
   36.3360   24.6020   31.7750 C   0  0  0  0  0  0  0  0  0  0  0  0
   37.2200   24.0450   32.6890 C   0  0  0  0  0  0  0  0  0  0  0  0
   37.9010   24.8160   33.6350 C   0  0  0  0  0  0  0  0  0  0  0  0
   35.4520   26.3820   31.1070 H   0  0  0  0  0  0  0  0  0  0  0  0
   35.8260   23.9660   31.0550 H   0  0  0  0  0  0  0  0  0  0  0  0
   37.3890   22.9690   32.6690 H   0  0  0  0  0  0  0  0  0  0  0  0
   38.5180   23.7430   35.8460 C   0  0  0  0  0  3  0  0  0  0  0  0
   38.8300   24.2340   34.5970 C   0  0  0  0  0  0  0  0  0  0  0  0
   40.1630   24.1710   34.2060 C   0  0  0  0  0  0  0  0  0  0  0  0
   40.5110   24.5270   33.2520 H   0  0  0  0  0  0  0  0  0  0  0  0
   41.1410   23.6390   35.0360 C   0  0  0  0  0  0  0  0  0  0  0  0
   42.4850   23.4640   34.8970 N   0  0  0  0  0  0  0  0  0  0  0  0
   42.9730   22.8890   36.0210 C   0  0  0  0  0  0  0  0  0  0  0  0
   44.0090   22.6280   36.2050 H   0  0  0  0  0  0  0  0  0  0  0  0
   41.9460   22.7030   36.8580 N   0  0  0  0  0  0  0  0  0  0  0  0
   40.8100   23.1500   36.2890 C   0  0  0  0  0  0  0  0  0  0  0  0
   39.4870   23.2130   36.6730 C   0  0  0  0  0  3  0  0  0  0  0  0
   43.0250   23.7410   34.0460 H   0  0  0  0  0  0  0  0  0  0  0  0
   35.3710   32.5500   32.7140 Cl  0  0  0  0  0  0  0  0  0  0  0  0
   35.7950   30.8460   32.7300 C   0  0  0  0  0  0  0  0  0  0  0  0
   35.4890   30.0620   33.8180 C   0  0  0  0  0  0  0  0  0  0  0  0
   35.8500   28.7430   33.7610 C   0  0  0  0  0  0  0  0  0  0  0  0
   36.4940   28.1820   32.6810 C   0  0  0  0  0  0  0  0  0  0  0  0
   36.7870   29.0130   31.5960 C   0  0  0  0  0  0  0  0  0  0  0  0
   37.6010   28.2690   30.2490 Cl  0  0  0  0  0  0  0  0  0  0  0  0
   36.4410   30.3440   31.6140 C   0  0  0  0  0  0  0  0  0  0  0  0
   35.6030   28.1360   34.6250 H   0  0  0  0  0  0  0  0  0  0  0  0
   36.6800   30.9620   30.7610 H   0  0  0  0  0  0  0  0  0  0  0  0
   34.8050   32.0430   36.9740 C   0  0  0  0  0  0  0  0  0  0  0  0
   35.4940   31.4370   35.9130 C   0  0  0  0  0  0  0  0  0  0  0  0
   34.8010   30.7100   34.9450 C   0  0  0  0  0  0  0  0  0  0  0  0
   33.4460   30.6250   35.0910 N   0  0  0  0  0  0  0  0  0  0  0  0
   32.8180   31.2210   36.1260 C   0  0  0  0  0  0  0  0  0  0  0  0
   33.4750   31.9130   37.0450 N   0  0  0  0  0  0  0  0  0  0  0  0
   35.4830   32.5630   37.6290 H   0  0  0  0  0  0  0  0  0  0  0  0
   36.5620   31.4660   35.7380 H   0  0  0  0  0  0  0  0  0  0  0  0
   31.7470   31.1120   36.1780 H   0  0  0  0  0  0  0  0  0  0  0  0
  2  1  1  0  0  0  0
  3  2  2  0  0  0  0
  4  3  1  0  0  0  0
  5  4  2  0  0  0  0
  5  6  1  0  0  0  0
  6  7  2  0  0  0  0
  7  2  1  0  0  0  0
  7 12  1  0  0  0  0
  8  4  1  0  0  0  0
  9  5  1  0  0  0  0
 10  6  1  0  0  0  0
 11 21  1  0  0  0  0
 12 11  2  0  0  0  0
 13 12  1  0  0  0  0
 13 15  2  0  0  0  0
 14 13  1  0  0  0  0
 15 20  1  0  0  0  0
 16 15  1  0  0  0  0
 16 17  1  0  0  0  0
 17 18  1  0  0  0  0
 17 19  2  0  0  0  0
 20 21  2  0  0  0  0
 20 19  1  0  0  0  0
 22 16  1  0  0  0  0
 23 24  1  0  0  0  0
 24 25  1  0  0  0  0
 25 35  1  0  0  0  0
 26 25  2  0  0  0  0
 26 31  1  0  0  0  0
 27  3  1  0  0  0  0
 27 26  1  0  0  0  0
 28 30  1  0  0  0  0
 28 27  2  0  0  0  0
 29 28  1  0  0  0  0
 30 24  2  0  0  0  0
 32 30  1  0  0  0  0
 33 38  1  0  0  0  0
 33 39  1  0  0  0  0
 34 33  2  0  0  0  0
 35 36  2  0  0  0  0
 35 34  1  0  0  0  0
 36 37  1  0  0  0  0
 37 41  1  0  0  0  0
 37 38  2  0  0  0  0
 40 34  1  0  0  0  0
M  END
>  <minimizedAffinity>
-6.86283875

$$$$

 OpenBabel03262523493D

 41 45  0  0  0  0  0  0  0  0999 V2000
   36.7810   27.3190   35.0130 Cl  0  0  0  0  0  0  0  0  0  0  0  0
   36.5890   27.9640   33.3880 C   0  0  0  0  0  0  0  0  0  0  0  0
   37.1160   27.1850   32.3790 C   0  0  0  0  0  0  0  0  0  0  0  0
   37.0150   27.6130   31.0470 C   0  0  0  0  0  0  0  0  0  0  0  0
   36.3870   28.8120   30.7350 C   0  0  0  0  0  0  0  0  0  0  0  0
   35.8700   29.5620   31.7820 C   0  0  0  0  0  0  0  0  0  0  0  0
   35.9640   29.1500   33.1140 C   0  0  0  0  0  0  0  0  0  0  0  0
   37.4050   27.0520   30.2220 H   0  0  0  0  0  0  0  0  0  0  0  0
   36.2930   29.1690   29.7110 H   0  0  0  0  0  0  0  0  0  0  0  0
   35.3740   30.5060   31.5580 H   0  0  0  0  0  0  0  0  0  0  0  0
   36.1190   30.8100   35.0220 C   0  0  0  0  0  3  0  0  0  0  0  0
   35.4210   29.9360   34.2160 C   0  0  0  0  0  0  0  0  0  0  0  0
   34.0640   29.7820   34.4740 C   0  0  0  0  0  0  0  0  0  0  0  0
   33.4300   29.1260   33.9040 H   0  0  0  0  0  0  0  0  0  0  0  0
   33.4330   30.4770   35.4980 C   0  0  0  0  0  0  0  0  0  0  0  0
   32.1480   30.5060   35.9480 N   0  0  0  0  0  0  0  0  0  0  0  0
   32.0660   31.3670   36.9910 C   0  0  0  0  0  0  0  0  0  0  0  0
   31.1720   31.6010   37.5560 H   0  0  0  0  0  0  0  0  0  0  0  0
   33.2880   31.8740   37.1930 N   0  0  0  0  0  0  0  0  0  0  0  0
   34.1500   31.3520   36.2980 C   0  0  0  0  0  0  0  0  0  0  0  0
   35.4960   31.5020   36.0390 C   0  0  0  0  0  3  0  0  0  0  0  0
   31.3710   29.9430   35.5360 H   0  0  0  0  0  0  0  0  0  0  0  0
   39.6420   21.8140   32.9650 Cl  0  0  0  0  0  0  0  0  0  0  0  0
   38.8980   23.3950   32.7930 C   0  0  0  0  0  0  0  0  0  0  0  0
   37.5500   23.5060   32.5410 C   0  0  0  0  0  0  0  0  0  0  0  0
   37.0380   24.7700   32.4180 C   0  0  0  0  0  0  0  0  0  0  0  0
   37.8030   25.9100   32.5330 C   0  0  0  0  0  0  0  0  0  0  0  0
   39.1680   25.7520   32.7900 C   0  0  0  0  0  0  0  0  0  0  0  0
   40.1020   27.2150   32.9300 Cl  0  0  0  0  0  0  0  0  0  0  0  0
   39.7210   24.4990   32.9200 C   0  0  0  0  0  0  0  0  0  0  0  0
   35.9750   24.8440   32.2190 H   0  0  0  0  0  0  0  0  0  0  0  0
   40.7780   24.4090   33.1180 H   0  0  0  0  0  0  0  0  0  0  0  0
   35.7360   20.5010   31.1180 C   0  0  0  0  0  0  0  0  0  0  0  0
   36.4720   21.6920   31.1890 C   0  0  0  0  0  0  0  0  0  0  0  0
   36.7790   22.2590   32.4260 C   0  0  0  0  0  0  0  0  0  0  0  0
   36.3290   21.6010   33.5340 N   0  0  0  0  0  0  0  0  0  0  0  0
   35.6220   20.4560   33.4260 C   0  0  0  0  0  0  0  0  0  0  0  0
   35.3310   19.9170   32.2510 N   0  0  0  0  0  0  0  0  0  0  0  0
   35.5860   20.1990   30.0950 H   0  0  0  0  0  0  0  0  0  0  0  0
   36.8590   22.2630   30.3540 H   0  0  0  0  0  0  0  0  0  0  0  0
   35.2980   19.9910   34.3420 H   0  0  0  0  0  0  0  0  0  0  0  0
  2  1  1  0  0  0  0
  3 27  1  0  0  0  0
  3  2  2  0  0  0  0
  4  3  1  0  0  0  0
  5  4  2  0  0  0  0
  5  6  1  0  0  0  0
  6  7  2  0  0  0  0
  7  2  1  0  0  0  0
  7 12  1  0  0  0  0
  8  4  1  0  0  0  0
  9  5  1  0  0  0  0
 10  6  1  0  0  0  0
 11 21  1  0  0  0  0
 12 13  1  0  0  0  0
 12 11  2  0  0  0  0
 13 15  2  0  0  0  0
 14 13  1  0  0  0  0
 15 16  1  0  0  0  0
 15 20  1  0  0  0  0
 16 17  1  0  0  0  0
 17 19  2  0  0  0  0
 17 18  1  0  0  0  0
 20 19  1  0  0  0  0
 21 20  2  0  0  0  0
 22 16  1  0  0  0  0
 24 30  1  0  0  0  0
 24 23  1  0  0  0  0
 25 24  2  0  0  0  0
 26 27  2  0  0  0  0
 26 25  1  0  0  0  0
 27 28  1  0  0  0  0
 28 30  2  0  0  0  0
 28 29  1  0  0  0  0
 30 32  1  0  0  0  0
 31 26  1  0  0  0  0
 33 34  2  0  0  0  0
 33 38  1  0  0  0  0
 34 35  1  0  0  0  0
 35 25  1  0  0  0  0
 35 36  2  0  0  0  0
 37 36  1  0  0  0  0
 37 41  1  0  0  0  0
 38 37  2  0  0  0  0
 39 33  1  0  0  0  0
 40 34  1  0  0  0  0
M  END
>  <minimizedAffinity>
-6.8043766

$$$$

 OpenBabel03262523493D

 41 45  0  0  0  0  0  0  0  0999 V2000
   35.8380   24.9060   31.7690 Cl  0  0  0  0  0  0  0  0  0  0  0  0
   37.2990   24.8720   32.7470 C   0  0  0  0  0  0  0  0  0  0  0  0
   37.7960   26.1080   33.1070 C   0  0  0  0  0  0  0  0  0  0  0  0
   38.9590   26.1880   33.8870 C   0  0  0  0  0  0  0  0  0  0  0  0
   39.6140   25.0350   34.3010 C   0  0  0  0  0  0  0  0  0  0  0  0
   39.0780   23.8140   33.9170 C   0  0  0  0  0  0  0  0  0  0  0  0
   37.9210   23.7180   33.1390 C   0  0  0  0  0  0  0  0  0  0  0  0
   39.3920   27.1180   34.1960 H   0  0  0  0  0  0  0  0  0  0  0  0
   40.5170   25.0670   34.9070 H   0  0  0  0  0  0  0  0  0  0  0  0
   39.5770   22.8980   34.2310 H   0  0  0  0  0  0  0  0  0  0  0  0
   36.4950   21.6500   33.4690 C   0  0  0  0  0  3  0  0  0  0  0  0
   37.3550   22.4370   32.7340 C   0  0  0  0  0  0  0  0  0  0  0  0
   37.7250   21.9690   31.4780 C   0  0  0  0  0  0  0  0  0  0  0  0
   38.3900   22.5060   30.8260 H   0  0  0  0  0  0  0  0  0  0  0  0
   37.2510   20.7610   30.9820 C   0  0  0  0  0  0  0  0  0  0  0  0
   37.4540   20.0920   29.8120 N   0  0  0  0  0  0  0  0  0  0  0  0
   36.7430   18.9390   29.8350 C   0  0  0  0  0  0  0  0  0  0  0  0
   36.7050   18.1980   29.0460 H   0  0  0  0  0  0  0  0  0  0  0  0
   36.1000   18.8850   31.0080 N   0  0  0  0  0  0  0  0  0  0  0  0
   36.3870   19.9830   31.7340 C   0  0  0  0  0  0  0  0  0  0  0  0
   36.0220   20.4500   32.9790 C   0  0  0  0  0  3  0  0  0  0  0  0
   38.0660   20.4380   29.0400 H   0  0  0  0  0  0  0  0  0  0  0  0
   35.3800   31.4430   31.9780 Cl  0  0  0  0  0  0  0  0  0  0  0  0
   36.0910   29.8720   32.3110 C   0  0  0  0  0  0  0  0  0  0  0  0
   35.9630   29.3000   33.5550 C   0  0  0  0  0  0  0  0  0  0  0  0
   36.5430   28.0740   33.7430 C   0  0  0  0  0  0  0  0  0  0  0  0
   37.2350   27.4060   32.7570 C   0  0  0  0  0  0  0  0  0  0  0  0
   37.3410   28.0220   31.5070 C   0  0  0  0  0  0  0  0  0  0  0  0
   38.2220   27.1480   30.2860 Cl  0  0  0  0  0  0  0  0  0  0  0  0
   36.7730   29.2540   31.2780 C   0  0  0  0  0  0  0  0  0  0  0  0
   36.4360   27.6340   34.7280 H   0  0  0  0  0  0  0  0  0  0  0  0
   36.8710   29.7050   30.3020 H   0  0  0  0  0  0  0  0  0  0  0  0
   35.0910   31.6900   36.3610 C   0  0  0  0  0  0  0  0  0  0  0  0
   35.8360   30.9870   35.4030 C   0  0  0  0  0  0  0  0  0  0  0  0
   35.2150   30.0540   34.5720 C   0  0  0  0  0  0  0  0  0  0  0  0
   33.8740   29.8700   34.7450 N   0  0  0  0  0  0  0  0  0  0  0  0
   33.1900   30.5650   35.6790 C   0  0  0  0  0  0  0  0  0  0  0  0
   33.7780   31.4520   36.4690 N   0  0  0  0  0  0  0  0  0  0  0  0
   35.7160   32.3680   36.9170 H   0  0  0  0  0  0  0  0  0  0  0  0
   36.8970   31.0840   35.2130 H   0  0  0  0  0  0  0  0  0  0  0  0
   32.1340   30.3690   35.7610 H   0  0  0  0  0  0  0  0  0  0  0  0
  1  2  1  0  0  0  0
  2  3  2  0  0  0  0
  2  7  1  0  0  0  0
  3  4  1  0  0  0  0
  4  8  1  0  0  0  0
  4  5  2  0  0  0  0
  5  9  1  0  0  0  0
  6 10  1  0  0  0  0
  6  5  1  0  0  0  0
  7  6  2  0  0  0  0
 12  7  1  0  0  0  0
 12 11  2  0  0  0  0
 13 12  1  0  0  0  0
 14 13  1  0  0  0  0
 15 13  2  0  0  0  0
 15 20  1  0  0  0  0
 16 17  1  0  0  0  0
 16 15  1  0  0  0  0
 17 19  2  0  0  0  0
 18 17  1  0  0  0  0
 19 20  1  0  0  0  0
 20 21  2  0  0  0  0
 21 11  1  0  0  0  0
 22 16  1  0  0  0  0
 23 24  1  0  0  0  0
 24 25  1  0  0  0  0
 25 26  2  0  0  0  0
 25 35  1  0  0  0  0
 26 31  1  0  0  0  0
 27  3  1  0  0  0  0
 27 26  1  0  0  0  0
 28 27  2  0  0  0  0
 29 28  1  0  0  0  0
 30 28  1  0  0  0  0
 30 24  2  0  0  0  0
 32 30  1  0  0  0  0
 33 38  1  0  0  0  0
 33 39  1  0  0  0  0
 34 33  2  0  0  0  0
 35 36  2  0  0  0  0
 35 34  1  0  0  0  0
 36 37  1  0  0  0  0
 37 41  1  0  0  0  0
 37 38  2  0  0  0  0
 40 34  1  0  0  0  0
M  END
>  <minimizedAffinity>
-6.57905006

$$$$

 OpenBabel03262523493D

 41 45  0  0  0  0  0  0  0  0999 V2000
   39.5940   27.1420   34.3500 Cl  0  0  0  0  0  0  0  0  0  0  0  0
   38.6480   25.8160   33.6860 C   0  0  0  0  0  0  0  0  0  0  0  0
   37.5420   26.1910   32.9520 C   0  0  0  0  0  0  0  0  0  0  0  0
   36.7230   25.2070   32.3800 C   0  0  0  0  0  0  0  0  0  0  0  0
   37.0140   23.8590   32.5460 C   0  0  0  0  0  0  0  0  0  0  0  0
   38.1370   23.5280   33.2910 C   0  0  0  0  0  0  0  0  0  0  0  0
   38.9630   24.4970   33.8670 C   0  0  0  0  0  0  0  0  0  0  0  0
   35.8510   25.4370   31.8010 H   0  0  0  0  0  0  0  0  0  0  0  0
   36.3970   23.0750   32.1140 H   0  0  0  0  0  0  0  0  0  0  0  0
   38.3840   22.4760   33.4340 H   0  0  0  0  0  0  0  0  0  0  0  0
   40.1580   23.5840   35.9070 C   0  0  0  0  0  3  0  0  0  0  0  0
   40.1440   24.1530   34.6520 C   0  0  0  0  0  0  0  0  0  0  0  0
   41.3750   24.4290   34.0670 C   0  0  0  0  0  0  0  0  0  0  0  0
   41.4740   24.8710   33.0920 H   0  0  0  0  0  0  0  0  0  0  0  0
   42.5700   24.1460   34.7160 C   0  0  0  0  0  0  0  0  0  0  0  0
   43.8770   24.3130   34.3720 N   0  0  0  0  0  0  0  0  0  0  0  0
   44.6590   23.8630   35.3820 C   0  0  0  0  0  0  0  0  0  0  0  0
   45.7430   23.8650   35.3990 H   0  0  0  0  0  0  0  0  0  0  0  0
   43.8510   23.4170   36.3510 N   0  0  0  0  0  0  0  0  0  0  0  0
   42.5660   23.5740   35.9780 C   0  0  0  0  0  0  0  0  0  0  0  0
   41.3430   23.3010   36.5540 C   0  0  0  0  0  3  0  0  0  0  0  0
   44.1950   24.7260   33.4670 H   0  0  0  0  0  0  0  0  0  0  0  0
   35.5910   31.7710   32.1550 Cl  0  0  0  0  0  0  0  0  0  0  0  0
   36.1650   30.1280   32.3900 C   0  0  0  0  0  0  0  0  0  0  0  0
   35.9410   29.4760   33.5810 C   0  0  0  0  0  0  0  0  0  0  0  0
   36.4170   28.1980   33.6940 C   0  0  0  0  0  0  0  0  0  0  0  0
   37.0970   27.5520   32.6840 C   0  0  0  0  0  0  0  0  0  0  0  0
   37.3030   28.2500   31.4910 C   0  0  0  0  0  0  0  0  0  0  0  0
   38.1640   27.4020   30.2380 Cl  0  0  0  0  0  0  0  0  0  0  0  0
   36.8400   29.5370   31.3380 C   0  0  0  0  0  0  0  0  0  0  0  0
   36.2350   27.6950   34.6370 H   0  0  0  0  0  0  0  0  0  0  0  0
   37.0140   30.0500   30.4040 H   0  0  0  0  0  0  0  0  0  0  0  0
   35.1330   31.7420   36.5070 C   0  0  0  0  0  0  0  0  0  0  0  0
   35.8620   31.0570   35.5230 C   0  0  0  0  0  0  0  0  0  0  0  0
   35.2120   30.2100   34.6260 C   0  0  0  0  0  0  0  0  0  0  0  0
   33.8590   30.0900   34.7610 N   0  0  0  0  0  0  0  0  0  0  0  0
   33.1910   30.7650   35.7210 C   0  0  0  0  0  0  0  0  0  0  0  0
   33.8080   31.5710   36.5730 N   0  0  0  0  0  0  0  0  0  0  0  0
   35.7810   32.3510   37.1140 H   0  0  0  0  0  0  0  0  0  0  0  0
   36.9310   31.1070   35.3610 H   0  0  0  0  0  0  0  0  0  0  0  0
   32.1240   30.6220   35.7690 H   0  0  0  0  0  0  0  0  0  0  0  0
  2  7  1  0  0  0  0
  2  1  1  0  0  0  0
  3  2  2  0  0  0  0
  4  5  2  0  0  0  0
  4  3  1  0  0  0  0
  5  6  1  0  0  0  0
  6 10  1  0  0  0  0
  6  7  2  0  0  0  0
  7 12  1  0  0  0  0
  8  4  1  0  0  0  0
  9  5  1  0  0  0  0
 11 21  1  0  0  0  0
 12 11  2  0  0  0  0
 13 12  1  0  0  0  0
 13 15  2  0  0  0  0
 14 13  1  0  0  0  0
 15 20  1  0  0  0  0
 16 15  1  0  0  0  0
 16 17  1  0  0  0  0
 17 18  1  0  0  0  0
 17 19  2  0  0  0  0
 20 19  1  0  0  0  0
 20 21  2  0  0  0  0
 22 16  1  0  0  0  0
 23 24  1  0  0  0  0
 24 25  1  0  0  0  0
 25 26  2  0  0  0  0
 25 35  1  0  0  0  0
 26 31  1  0  0  0  0
 27  3  1  0  0  0  0
 27 26  1  0  0  0  0
 28 27  2  0  0  0  0
 29 28  1  0  0  0  0
 30 28  1  0  0  0  0
 30 24  2  0  0  0  0
 32 30  1  0  0  0  0
 33 38  1  0  0  0  0
 33 39  1  0  0  0  0
 34 33  2  0  0  0  0
 35 36  2  0  0  0  0
 35 34  1  0  0  0  0
 36 37  1  0  0  0  0
 37 41  1  0  0  0  0
 37 38  2  0  0  0  0
 40 34  1  0  0  0  0
M  END
>  <minimizedAffinity>
-6.33972645

$$$$

 OpenBabel03262523493D

 41 45  0  0  0  0  0  0  0  0999 V2000
   38.6750   26.4120   34.1120 Cl  0  0  0  0  0  0  0  0  0  0  0  0
   37.8130   25.2150   33.1540 C   0  0  0  0  0  0  0  0  0  0  0  0
   37.1520   25.7100   32.0480 C   0  0  0  0  0  0  0  0  0  0  0  0
   36.4350   24.8360   31.2200 C   0  0  0  0  0  0  0  0  0  0  0  0
   36.3830   23.4770   31.5010 C   0  0  0  0  0  0  0  0  0  0  0  0
   37.0630   23.0230   32.6230 C   0  0  0  0  0  0  0  0  0  0  0  0
   37.7820   23.8820   33.4580 C   0  0  0  0  0  0  0  0  0  0  0  0
   35.9020   25.1620   30.3490 H   0  0  0  0  0  0  0  0  0  0  0  0
   35.8340   22.7750   30.8760 H   0  0  0  0  0  0  0  0  0  0  0  0
   37.0350   21.9600   32.8610 H   0  0  0  0  0  0  0  0  0  0  0  0
   38.0950   23.5390   35.9490 C   0  0  0  0  0  3  0  0  0  0  0  0
   38.4980   23.4080   34.6380 C   0  0  0  0  0  0  0  0  0  0  0  0
   39.7060   22.7600   34.4070 C   0  0  0  0  0  0  0  0  0  0  0  0
   40.1090   22.6060   33.4220 H   0  0  0  0  0  0  0  0  0  0  0  0
   40.4780   22.2650   35.4500 C   0  0  0  0  0  0  0  0  0  0  0  0
   41.6700   21.6070   35.4950 N   0  0  0  0  0  0  0  0  0  0  0  0
   41.9820   21.3470   36.7870 C   0  0  0  0  0  0  0  0  0  0  0  0
   42.8700   20.8360   37.1370 H   0  0  0  0  0  0  0  0  0  0  0  0
   40.9960   21.8380   37.5470 N   0  0  0  0  0  0  0  0  0  0  0  0
   40.0580   22.4050   36.7630 C   0  0  0  0  0  0  0  0  0  0  0  0
   38.8590   23.0490   36.9880 C   0  0  0  0  0  3  0  0  0  0  0  0
   42.2310   21.3570   34.6500 H   0  0  0  0  0  0  0  0  0  0  0  0
   36.7130   31.4470   30.4790 Cl  0  0  0  0  0  0  0  0  0  0  0  0
   36.8420   29.7580   30.9410 C   0  0  0  0  0  0  0  0  0  0  0  0
   36.0050   29.2330   31.8980 C   0  0  0  0  0  0  0  0  0  0  0  0
   36.1620   27.9090   32.2090 C   0  0  0  0  0  0  0  0  0  0  0  0
   37.1050   27.1000   31.6150 C   0  0  0  0  0  0  0  0  0  0  0  0
   37.9350   27.6730   30.6470 C   0  0  0  0  0  0  0  0  0  0  0  0
   39.1140   26.6210   29.9170 Cl  0  0  0  0  0  0  0  0  0  0  0  0
   37.8090   29.0000   30.3070 C   0  0  0  0  0  0  0  0  0  0  0  0
   35.4970   27.5070   32.9650 H   0  0  0  0  0  0  0  0  0  0  0  0
   38.4650   29.4150   29.5550 H   0  0  0  0  0  0  0  0  0  0  0  0
   34.3060   31.6820   34.2360 C   0  0  0  0  0  0  0  0  0  0  0  0
   35.2720   30.8240   33.6900 C   0  0  0  0  0  0  0  0  0  0  0  0
   35.0160   30.1390   32.5020 C   0  0  0  0  0  0  0  0  0  0  0  0
   33.7990   30.3470   31.9210 N   0  0  0  0  0  0  0  0  0  0  0  0
   32.8930   31.1790   32.4770 C   0  0  0  0  0  0  0  0  0  0  0  0
   33.1360   31.8320   33.6050 N   0  0  0  0  0  0  0  0  0  0  0  0
   34.6590   32.1310   35.1490 H   0  0  0  0  0  0  0  0  0  0  0  0
   36.2530   30.6150   34.0970 H   0  0  0  0  0  0  0  0  0  0  0  0
   31.9530   31.2950   31.9640 H   0  0  0  0  0  0  0  0  0  0  0  0
  2  7  1  0  0  0  0
  2  1  1  0  0  0  0
  3  2  2  0  0  0  0
  4  5  2  0  0  0  0
  4  3  1  0  0  0  0
  5  6  1  0  0  0  0
  6 10  1  0  0  0  0
  6  7  2  0  0  0  0
  7 12  1  0  0  0  0
  8  4  1  0  0  0  0
  9  5  1  0  0  0  0
 11 21  1  0  0  0  0
 12 11  2  0  0  0  0
 13 12  1  0  0  0  0
 13 15  2  0  0  0  0
 14 13  1  0  0  0  0
 15 16  1  0  0  0  0
 15 20  1  0  0  0  0
 16 17  1  0  0  0  0
 17 18  1  0  0  0  0
 17 19  2  0  0  0  0
 20 21  2  0  0  0  0
 20 19  1  0  0  0  0
 22 16  1  0  0  0  0
 23 24  1  0  0  0  0
 24 25  1  0  0  0  0
 25 26  2  0  0  0  0
 25 35  1  0  0  0  0
 26 31  1  0  0  0  0
 27  3  1  0  0  0  0
 27 26  1  0  0  0  0
 28 27  2  0  0  0  0
 29 28  1  0  0  0  0
 30 28  1  0  0  0  0
 30 24  2  0  0  0  0
 32 30  1  0  0  0  0
 33 39  1  0  0  0  0
 34 40  1  0  0  0  0
 34 33  1  0  0  0  0
 35 34  2  0  0  0  0
 36 37  2  0  0  0  0
 36 35  1  0  0  0  0
 37 38  1  0  0  0  0
 38 33  2  0  0  0  0
 41 37  1  0  0  0  0
M  END
>  <minimizedAffinity>
-6.25554276

$$$$

 OpenBabel03262523493D

 41 45  0  0  0  0  0  0  0  0999 V2000
   36.6010   27.5110   34.8810 Cl  0  0  0  0  0  0  0  0  0  0  0  0
   36.5580   28.3300   33.3260 C   0  0  0  0  0  0  0  0  0  0  0  0
   37.2110   27.6800   32.2990 C   0  0  0  0  0  0  0  0  0  0  0  0
   37.2340   28.2520   31.0190 C   0  0  0  0  0  0  0  0  0  0  0  0
   36.6050   29.4660   30.7750 C   0  0  0  0  0  0  0  0  0  0  0  0
   35.9590   30.0840   31.8360 C   0  0  0  0  0  0  0  0  0  0  0  0
   35.9280   29.5270   33.1180 C   0  0  0  0  0  0  0  0  0  0  0  0
   37.7260   27.7950   30.1830 H   0  0  0  0  0  0  0  0  0  0  0  0
   36.6060   29.9340   29.7920 H   0  0  0  0  0  0  0  0  0  0  0  0
   35.4590   31.0370   31.6660 H   0  0  0  0  0  0  0  0  0  0  0  0
   35.8210   31.0150   35.1660 C   0  0  0  0  0  3  0  0  0  0  0  0
   35.2500   30.1730   34.2360 C   0  0  0  0  0  0  0  0  0  0  0  0
   33.8910   29.9090   34.3700 C   0  0  0  0  0  0  0  0  0  0  0  0
   33.3510   29.2670   33.6980 H   0  0  0  0  0  0  0  0  0  0  0  0
   33.1380   30.4660   35.3950 C   0  0  0  0  0  0  0  0  0  0  0  0
   31.8240   30.3710   35.7420 N   0  0  0  0  0  0  0  0  0  0  0  0
   31.6040   31.1280   36.8430 C   0  0  0  0  0  0  0  0  0  0  0  0
   30.6550   31.2500   37.3520 H   0  0  0  0  0  0  0  0  0  0  0  0
   32.7680   31.6920   37.1850 N   0  0  0  0  0  0  0  0  0  0  0  0
   33.7290   31.3100   36.3210 C   0  0  0  0  0  0  0  0  0  0  0  0
   35.0760   31.5710   36.1850 C   0  0  0  0  0  3  0  0  0  0  0  0
   31.1230   29.7980   35.2220 H   0  0  0  0  0  0  0  0  0  0  0  0
   40.3660   22.6390   32.7520 Cl  0  0  0  0  0  0  0  0  0  0  0  0
   39.4380   24.1240   32.6190 C   0  0  0  0  0  0  0  0  0  0  0  0
   40.0100   25.3330   32.9380 C   0  0  0  0  0  0  0  0  0  0  0  0
   39.2270   26.4490   32.8110 C   0  0  0  0  0  0  0  0  0  0  0  0
   37.9180   26.4090   32.3850 C   0  0  0  0  0  0  0  0  0  0  0  0
   37.3750   25.1600   32.0710 C   0  0  0  0  0  0  0  0  0  0  0  0
   35.7190   25.1490   31.5360 Cl  0  0  0  0  0  0  0  0  0  0  0  0
   38.1290   24.0150   32.1860 C   0  0  0  0  0  0  0  0  0  0  0  0
   39.6890   27.3960   33.0660 H   0  0  0  0  0  0  0  0  0  0  0  0
   37.6820   23.0640   31.9350 H   0  0  0  0  0  0  0  0  0  0  0  0
   43.0980   25.1920   35.1260 C   0  0  0  0  0  0  0  0  0  0  0  0
   41.7520   25.2010   34.7340 C   0  0  0  0  0  0  0  0  0  0  0  0
   41.4100   25.3210   33.3870 C   0  0  0  0  0  0  0  0  0  0  0  0
   42.4400   25.4270   32.4970 N   0  0  0  0  0  0  0  0  0  0  0  0
   43.7240   25.4150   32.9130 C   0  0  0  0  0  0  0  0  0  0  0  0
   44.0500   25.3000   34.1920 N   0  0  0  0  0  0  0  0  0  0  0  0
   43.1900   25.0920   36.1950 H   0  0  0  0  0  0  0  0  0  0  0  0
   40.8900   25.1210   35.3850 H   0  0  0  0  0  0  0  0  0  0  0  0
   44.4860   25.5030   32.1550 H   0  0  0  0  0  0  0  0  0  0  0  0
  2  1  1  0  0  0  0
  3 27  1  0  0  0  0
  3  2  2  0  0  0  0
  4  3  1  0  0  0  0
  5  4  2  0  0  0  0
  5  6  1  0  0  0  0
  6  7  2  0  0  0  0
  7  2  1  0  0  0  0
  7 12  1  0  0  0  0
  8  4  1  0  0  0  0
  9  5  1  0  0  0  0
 10  6  1  0  0  0  0
 11 21  1  0  0  0  0
 12 13  1  0  0  0  0
 12 11  2  0  0  0  0
 13 15  2  0  0  0  0
 14 13  1  0  0  0  0
 15 16  1  0  0  0  0
 15 20  1  0  0  0  0
 16 17  1  0  0  0  0
 17 19  2  0  0  0  0
 17 18  1  0  0  0  0
 20 19  1  0  0  0  0
 21 20  2  0  0  0  0
 22 16  1  0  0  0  0
 24 23  1  0  0  0  0
 24 25  1  0  0  0  0
 25 35  1  0  0  0  0
 26 25  2  0  0  0  0
 26 31  1  0  0  0  0
 27 26  1  0  0  0  0
 28 30  1  0  0  0  0
 28 27  2  0  0  0  0
 29 28  1  0  0  0  0
 30 24  2  0  0  0  0
 32 30  1  0  0  0  0
 33 39  1  0  0  0  0
 34 33  1  0  0  0  0
 34 40  1  0  0  0  0
 35 34  2  0  0  0  0
 36 37  2  0  0  0  0
 36 35  1  0  0  0  0
 37 38  1  0  0  0  0
 38 33  2  0  0  0  0
 41 37  1  0  0  0  0
M  END
>  <minimizedAffinity>
-6.18203592

$$$$

 OpenBabel03262523493D

 41 45  0  0  0  0  0  0  0  0999 V2000
   36.9770   26.1380   35.3400 Cl  0  0  0  0  0  0  0  0  0  0  0  0
   38.1560   26.3410   34.0510 C   0  0  0  0  0  0  0  0  0  0  0  0
   37.8330   27.2880   33.1010 C   0  0  0  0  0  0  0  0  0  0  0  0
   38.7080   27.5240   32.0310 C   0  0  0  0  0  0  0  0  0  0  0  0
   39.8970   26.8150   31.9200 C   0  0  0  0  0  0  0  0  0  0  0  0
   40.1820   25.8730   32.8980 C   0  0  0  0  0  0  0  0  0  0  0  0
   39.3200   25.6260   33.9700 C   0  0  0  0  0  0  0  0  0  0  0  0
   38.5110   28.2460   31.2640 H   0  0  0  0  0  0  0  0  0  0  0  0
   40.5960   26.9770   31.1010 H   0  0  0  0  0  0  0  0  0  0  0  0
   41.1100   25.3050   32.8290 H   0  0  0  0  0  0  0  0  0  0  0  0
   38.8220   24.3140   36.0800 C   0  0  0  0  0  3  0  0  0  0  0  0
   39.6150   24.6370   35.0010 C   0  0  0  0  0  0  0  0  0  0  0  0
   40.8200   23.9550   34.8730 C   0  0  0  0  0  0  0  0  0  0  0  0
   41.5100   24.1310   34.0680 H   0  0  0  0  0  0  0  0  0  0  0  0
   41.2120   22.9900   35.7920 C   0  0  0  0  0  0  0  0  0  0  0  0
   42.3150   22.1970   35.8950 N   0  0  0  0  0  0  0  0  0  0  0  0
   42.1970   21.4200   36.9980 C   0  0  0  0  0  0  0  0  0  0  0  0
   42.9180   20.6870   37.3420 H   0  0  0  0  0  0  0  0  0  0  0  0
   41.0310   21.7220   37.5830 N   0  0  0  0  0  0  0  0  0  0  0  0
   40.4020   22.6790   36.8720 C   0  0  0  0  0  0  0  0  0  0  0  0
   39.2080   23.3570   36.9950 C   0  0  0  0  0  3  0  0  0  0  0  0
   43.1080   22.2090   35.2160 H   0  0  0  0  0  0  0  0  0  0  0  0
   33.0540   30.8550   33.2010 Cl  0  0  0  0  0  0  0  0  0  0  0  0
   34.4610   29.8050   33.1720 C   0  0  0  0  0  0  0  0  0  0  0  0
   35.5360   30.0580   33.9930 C   0  0  0  0  0  0  0  0  0  0  0  0
   36.5980   29.1980   33.9170 C   0  0  0  0  0  0  0  0  0  0  0  0
   36.6330   28.1130   33.0690 C   0  0  0  0  0  0  0  0  0  0  0  0
   35.5210   27.8920   32.2520 C   0  0  0  0  0  0  0  0  0  0  0  0
   35.6010   26.5120   31.1940 Cl  0  0  0  0  0  0  0  0  0  0  0  0
   34.4340   28.7330   32.2980 C   0  0  0  0  0  0  0  0  0  0  0  0
   37.4390   29.4090   34.5690 H   0  0  0  0  0  0  0  0  0  0  0  0
   33.5890   28.5360   31.6550 H   0  0  0  0  0  0  0  0  0  0  0  0
   35.9070   33.5530   35.4060 C   0  0  0  0  0  0  0  0  0  0  0  0
   36.0110   32.4580   34.5360 C   0  0  0  0  0  0  0  0  0  0  0  0
   35.4470   31.2290   34.8790 C   0  0  0  0  0  0  0  0  0  0  0  0
   34.8060   31.1590   36.0820 N   0  0  0  0  0  0  0  0  0  0  0  0
   34.7260   32.2360   36.8930 C   0  0  0  0  0  0  0  0  0  0  0  0
   35.2610   33.4040   36.5670 N   0  0  0  0  0  0  0  0  0  0  0  0
   36.3920   34.4220   34.9930 H   0  0  0  0  0  0  0  0  0  0  0  0
   36.5030   32.4440   33.5720 H   0  0  0  0  0  0  0  0  0  0  0  0
   34.2050   32.1080   37.8270 H   0  0  0  0  0  0  0  0  0  0  0  0
  2  1  1  0  0  0  0
  3  2  2  0  0  0  0
  4  3  1  0  0  0  0
  5  4  2  0  0  0  0
  5  6  1  0  0  0  0
  6  7  2  0  0  0  0
  7  2  1  0  0  0  0
  7 12  1  0  0  0  0
  8  4  1  0  0  0  0
  9  5  1  0  0  0  0
 10  6  1  0  0  0  0
 11 21  1  0  0  0  0
 12 11  2  0  0  0  0
 13 12  1  0  0  0  0
 13 15  2  0  0  0  0
 14 13  1  0  0  0  0
 15 16  1  0  0  0  0
 15 20  1  0  0  0  0
 16 17  1  0  0  0  0
 17 18  1  0  0  0  0
 17 19  2  0  0  0  0
 20 21  2  0  0  0  0
 20 19  1  0  0  0  0
 22 16  1  0  0  0  0
 24 23  1  0  0  0  0
 24 25  1  0  0  0  0
 25 35  1  0  0  0  0
 26 25  2  0  0  0  0
 26 31  1  0  0  0  0
 27  3  1  0  0  0  0
 27 26  1  0  0  0  0
 28 30  1  0  0  0  0
 28 27  2  0  0  0  0
 29 28  1  0  0  0  0
 30 24  2  0  0  0  0
 32 30  1  0  0  0  0
 33 38  1  0  0  0  0
 34 35  1  0  0  0  0
 34 33  2  0  0  0  0
 35 36  2  0  0  0  0
 36 37  1  0  0  0  0
 37 41  1  0  0  0  0
 38 37  2  0  0  0  0
 39 33  1  0  0  0  0
 40 34  1  0  0  0  0
M  END
>  <minimizedAffinity>
-6.17239189

$$$$
