
 OpenBabel03272508063D

 38 42  0  0  0  0  0  0  0  0999 V2000
   38.9120   30.8910   45.7600 C   0  0  0  0  0  0  0  0  0  0  0  0
   40.1040   31.5290   46.0080 C   0  0  0  0  0  0  0  0  0  0  0  0
   40.9390   31.4700   44.8930 C   0  0  0  0  0  0  0  0  0  0  0  0
   40.2000   30.7860   44.0050 N   0  0  0  0  0  0  0  0  0  0  0  0
   39.0220   30.4450   44.5000 N   0  0  0  0  0  0  0  0  0  0  0  0
   40.3860   32.0230   46.9400 H   0  0  0  0  0  0  0  0  0  0  0  0
   41.9350   31.8550   44.7240 H   0  0  0  0  0  0  0  0  0  0  0  0
   37.7990   30.7480   46.6770 C   0  0  0  0  0  0  0  0  0  0  0  0
   38.0240   30.9760   48.0580 C   0  0  0  0  0  0  0  0  0  0  0  0
   36.9380   30.8320   48.9180 C   0  0  0  0  0  0  0  0  0  0  0  0
   35.7320   30.4840   48.3890 N   0  0  0  0  0  0  0  0  0  0  0  0
   35.5390   30.2700   47.0620 C   0  0  0  0  0  0  0  0  0  0  0  0
   36.5840   30.4060   46.2180 N   0  0  0  0  0  0  0  0  0  0  0  0
   39.0010   31.2500   48.4270 H   0  0  0  0  0  0  0  0  0  0  0  0
   34.5500   29.9970   46.7190 H   0  0  0  0  0  0  0  0  0  0  0  0
   37.1390   31.0640   50.3720 C   0  0  0  0  0  0  0  0  0  0  0  0
   36.6280   32.3170   50.6250 F   0  0  0  0  0  0  0  0  0  0  0  0
   36.4780   30.1380   51.1600 F   0  0  0  0  0  0  0  0  0  0  0  0
   38.4950   31.0880   50.7010 F   0  0  0  0  0  0  0  0  0  0  0  0
   40.5570   30.4120   42.6310 C   0  0  0  0  0  0  0  0  0  0  0  0
   40.1960   31.1960   41.5230 C   0  0  0  0  0  0  0  0  0  0  0  0
   40.5460   30.8070   40.2890 C   0  0  0  0  0  0  0  0  0  0  0  0
   41.2810   29.5960   40.1270 C   0  0  0  0  0  0  0  0  0  0  0  0
   41.4540   29.0240   41.8770 S   0  0  0  0  0  0  0  0  0  0  0  0
   39.6320   32.1260   41.6470 H   0  0  0  0  0  0  0  0  0  0  0  0
   40.3400   31.3030   39.3530 H   0  0  0  0  0  0  0  0  0  0  0  0
   40.9660   28.6640   37.9260 C   0  0  0  0  0  3  0  0  0  0  0  0
   41.7850   28.9340   38.9810 C   0  0  0  0  0  0  0  0  0  0  0  0
   43.1190   28.5840   38.9920 C   0  0  0  0  0  0  0  0  0  0  0  0
   43.7980   28.7750   39.7960 H   0  0  0  0  0  0  0  0  0  0  0  0
   43.6420   27.9300   37.8720 C   0  0  0  0  0  0  0  0  0  0  0  0
   44.8620   27.4540   37.5460 N   0  0  0  0  0  0  0  0  0  0  0  0
   44.8260   26.9000   36.3210 C   0  0  0  0  0  0  0  0  0  0  0  0
   45.6360   26.4260   35.7600 H   0  0  0  0  0  0  0  0  0  0  0  0
   43.5550   27.0240   35.8590 N   0  0  0  0  0  0  0  0  0  0  0  0
   42.8130   27.6550   36.8000 C   0  0  0  0  0  0  0  0  0  0  0  0
   41.4910   28.0130   36.8160 C   0  0  0  0  0  3  0  0  0  0  0  0
   45.7080   27.5100   38.1510 H   0  0  0  0  0  0  0  0  0  0  0  0
  1  2  1  0  0  0  0
  1  8  1  0  0  0  0
  2  6  1  0  0  0  0
  3  2  2  0  0  0  0
  4  5  1  0  0  0  0
  4  3  1  0  0  0  0
  5  1  2  0  0  0  0
  7  3  1  0  0  0  0
  8  9  1  0  0  0  0
  9 14  1  0  0  0  0
  9 10  2  0  0  0  0
 10 16  1  0  0  0  0
 11 10  1  0  0  0  0
 12 11  2  0  0  0  0
 13  8  2  0  0  0  0
 13 12  1  0  0  0  0
 15 12  1  0  0  0  0
 16 17  1  0  0  0  0
 16 19  1  0  0  0  0
 16 18  1  0  0  0  0
 20  4  1  0  0  0  0
 21 25  1  0  0  0  0
 21 20  2  0  0  0  0
 22 21  1  0  0  0  0
 23 22  2  0  0  0  0
 23 24  1  0  0  0  0
 24 20  1  0  0  0  0
 26 22  1  0  0  0  0
 27 28  1  0  0  0  0
 28 29  2  0  0  0  0
 28 23  1  0  0  0  0
 29 30  1  0  0  0  0
 31 29  1  0  0  0  0
 32 31  1  0  0  0  0
 32 38  1  0  0  0  0
 33 32  1  0  0  0  0
 34 33  1  0  0  0  0
 35 33  2  0  0  0  0
 35 36  1  0  0  0  0
 36 37  1  0  0  0  0
 36 31  2  0  0  0  0
 37 27  2  0  0  0  0
M  END
>  <minimizedAffinity>
-6.4847765

>  <minimizedRMSD>
0.142971084

$$$$
