
 OpenBabel03272501093D

 43 47  0  0  1  0  0  0  0  0999 V2000
   36.8280   27.7000   35.2040 Cl  0  0  0  0  0  0  0  0  0  0  0  0
   36.6420   28.2990   33.5720 C   0  0  0  0  0  0  0  0  0  0  0  0
   37.2360   27.5000   32.6030 C   0  0  0  0  0  0  0  0  0  0  0  0
   37.0900   27.9600   31.3070 C   0  0  0  0  0  0  0  0  0  0  0  0
   36.4060   29.1240   31.0090 C   0  0  0  0  0  0  0  0  0  0  0  0
   35.8430   29.8680   32.0090 C   0  0  0  0  0  0  0  0  0  0  0  0
   35.9610   29.4510   33.3060 C   0  0  0  0  0  0  0  0  0  0  0  0
   37.4820   27.4760   30.4250 H   0  0  0  0  0  0  0  0  0  0  0  0
   36.2760   29.5090   30.0070 H   0  0  0  0  0  0  0  0  0  0  0  0
   35.3050   30.7800   31.7970 H   0  0  0  0  0  0  0  0  0  0  0  0
   35.9760   31.0490   35.3310 C   0  0  0  0  0  3  0  0  0  0  0  0
   35.3840   30.2000   34.4200 C   0  0  0  0  0  0  0  0  0  0  0  0
   34.0090   29.9610   34.5050 C   0  0  0  0  0  0  0  0  0  0  0  0
   33.4150   29.3210   33.8590 H   0  0  0  0  0  0  0  0  0  0  0  0
   33.2290   30.5570   35.4820 C   0  0  0  0  0  0  0  0  0  0  0  0
   31.9320   30.5520   35.8410 N   0  0  0  0  0  0  0  0  0  0  0  0
   31.7380   31.3570   36.9200 C   0  0  0  0  0  0  0  0  0  0  0  0
   30.7920   31.5400   37.4200 H   0  0  0  0  0  0  0  0  0  0  0  0
   32.9150   31.8790   37.2510 N   0  0  0  0  0  0  0  0  0  0  0  0
   33.8480   31.4090   36.3890 C   0  0  0  0  0  0  0  0  0  0  0  0
   35.1980   31.6400   36.3010 C   0  0  0  0  0  3  0  0  0  0  0  0
   31.1900   30.0010   35.3510 H   0  0  0  0  0  0  0  0  0  0  0  0
   37.9370   26.3480   32.6640 O   0  0  0  0  0  0  0  0  0  0  0  0
   39.1760   25.9560   33.0390 C   0  0  2  0  0  0  0  0  0  0  0  0
   39.3050   25.8040   34.5900 C   0  0  2  0  0  0  0  0  0  0  0  0
   40.7260   26.0500   34.7710 C   0  0  0  0  0  0  0  0  0  0  0  0
   41.1270   27.0080   33.8490 O   0  0  0  0  0  0  0  0  0  0  0  0
   40.1320   27.1800   32.9370 C   0  0  0  0  0  0  0  0  0  0  0  0
   39.6570   25.1080   32.5630 H   0  0  0  0  0  0  0  0  0  0  0  0
   38.7030   26.6470   35.0410 H   0  0  0  0  0  0  0  0  0  0  0  0
   40.9000   26.4840   35.7920 H   0  0  0  0  0  0  0  0  0  0  0  0
   41.4070   25.2070   34.6860 H   0  0  0  0  0  0  0  0  0  0  0  0
   39.5700   28.1130   33.0870 H   0  0  0  0  0  0  0  0  0  0  0  0
   40.5300   27.1820   31.9020 H   0  0  0  0  0  0  0  0  0  0  0  0
   37.6450   23.2440   36.7890 C   0  0  0  0  0  0  0  0  0  0  0  0
   38.1740   24.4960   36.3720 C   0  0  0  0  0  0  0  0  0  0  0  0
   38.7420   24.5690   35.0650 C   0  0  0  0  0  0  0  0  0  0  0  0
   38.7520   23.4400   34.2780 N   0  0  0  0  0  0  0  0  0  0  0  0
   38.2410   22.2850   34.7190 C   0  0  0  0  0  0  0  0  0  0  0  0
   37.6900   22.1680   35.9560 N   0  0  0  0  0  0  0  0  0  0  0  0
   37.2230   23.2190   37.7800 H   0  0  0  0  0  0  0  0  0  0  0  0
   38.1400   25.3520   37.0320 H   0  0  0  0  0  0  0  0  0  0  0  0
   38.2620   21.4130   34.0800 H   0  0  0  0  0  0  0  0  0  0  0  0
  2  1  1  0  0  0  0
  3 23  1  0  0  0  0
  3  2  2  0  0  0  0
  4  3  1  0  0  0  0
  5  4  2  0  0  0  0
  5  6  1  0  0  0  0
  6  7  2  0  0  0  0
  7  2  1  0  0  0  0
  7 12  1  0  0  0  0
  8  4  1  0  0  0  0
  9  5  1  0  0  0  0
 10  6  1  0  0  0  0
 11 21  1  0  0  0  0
 12 13  1  0  0  0  0
 12 11  2  0  0  0  0
 13 15  2  0  0  0  0
 14 13  1  0  0  0  0
 15 16  1  0  0  0  0
 15 20  1  0  0  0  0
 16 17  1  0  0  0  0
 17 19  2  0  0  0  0
 17 18  1  0  0  0  0
 20 19  1  0  0  0  0
 21 20  2  0  0  0  0
 22 16  1  0  0  0  0
 23 24  1  0  0  0  0
 24 29  1  6  0  0  0
 24 25  1  0  0  0  0
 25 26  1  0  0  0  0
 25 30  1  1  0  0  0
 25 37  1  0  0  0  0
 26 31  1  0  0  0  0
 27 26  1  0  0  0  0
 28 24  1  0  0  0  0
 28 33  1  0  0  0  0
 28 27  1  0  0  0  0
 32 26  1  0  0  0  0
 34 28  1  0  0  0  0
 35 41  1  0  0  0  0
 36 35  1  0  0  0  0
 36 42  1  0  0  0  0
 37 36  2  0  0  0  0
 38 39  2  0  0  0  0
 38 37  1  0  0  0  0
 39 40  1  0  0  0  0
 40 35  2  0  0  0  0
 43 39  1  0  0  0  0
M  END
>  <minimizedAffinity>
-6.3208375

$$$$

 OpenBabel03272501093D

 43 47  0  0  1  0  0  0  0  0999 V2000
   36.6060   27.2930   34.8080 Cl  0  0  0  0  0  0  0  0  0  0  0  0
   36.7030   28.0200   33.2210 C   0  0  0  0  0  0  0  0  0  0  0  0
   37.5680   27.3700   32.3510 C   0  0  0  0  0  0  0  0  0  0  0  0
   37.6500   27.9320   31.0900 C   0  0  0  0  0  0  0  0  0  0  0  0
   36.9230   29.0520   30.7330 C   0  0  0  0  0  0  0  0  0  0  0  0
   36.0850   29.6480   31.6360 C   0  0  0  0  0  0  0  0  0  0  0  0
   35.9730   29.1260   32.8950 C   0  0  0  0  0  0  0  0  0  0  0  0
   38.2670   27.5680   30.2830 H   0  0  0  0  0  0  0  0  0  0  0  0
   36.9650   29.5150   29.7560 H   0  0  0  0  0  0  0  0  0  0  0  0
   35.5100   30.5240   31.3770 H   0  0  0  0  0  0  0  0  0  0  0  0
   33.7700   29.4790   34.1890 C   0  0  0  0  0  3  0  0  0  0  0  0
   35.0990   29.7160   33.9060 C   0  0  0  0  0  0  0  0  0  0  0  0
   35.7990   30.6600   34.6630 C   0  0  0  0  0  0  0  0  0  0  0  0
   36.8420   30.9460   34.5510 H   0  0  0  0  0  0  0  0  0  0  0  0
   35.1890   31.3630   35.6890 C   0  0  0  0  0  0  0  0  0  0  0  0
   35.5480   32.3040   36.5830 N   0  0  0  0  0  0  0  0  0  0  0  0
   34.4910   32.6280   37.3750 C   0  0  0  0  0  0  0  0  0  0  0  0
   34.4950   33.3570   38.1780 H   0  0  0  0  0  0  0  0  0  0  0  0
   33.4540   31.8930   36.9860 N   0  0  0  0  0  0  0  0  0  0  0  0
   33.8500   31.1070   35.9560 C   0  0  0  0  0  0  0  0  0  0  0  0
   33.1670   30.1780   35.2110 C   0  0  0  0  0  3  0  0  0  0  0  0
   36.5060   32.7170   36.6460 H   0  0  0  0  0  0  0  0  0  0  0  0
   38.3600   26.2850   32.4820 O   0  0  0  0  0  0  0  0  0  0  0  0
   39.6050   26.0100   32.9370 C   0  0  2  0  0  0  0  0  0  0  0  0
   39.6490   25.8710   34.4940 C   0  0  2  0  0  0  0  0  0  0  0  0
   41.0260   26.2480   34.7620 C   0  0  0  0  0  0  0  0  0  0  0  0
   41.3940   27.2390   33.8610 O   0  0  0  0  0  0  0  0  0  0  0  0
   40.4480   27.3170   32.8870 C   0  0  0  0  0  0  0  0  0  0  0  0
   40.1910   25.2090   32.4970 H   0  0  0  0  0  0  0  0  0  0  0  0
   38.9440   26.6550   34.9010 H   0  0  0  0  0  0  0  0  0  0  0  0
   41.0950   26.6970   35.7890 H   0  0  0  0  0  0  0  0  0  0  0  0
   41.7870   25.4720   34.7260 H   0  0  0  0  0  0  0  0  0  0  0  0
   39.7930   28.1940   32.9950 H   0  0  0  0  0  0  0  0  0  0  0  0
   40.9080   27.3550   31.8790 H   0  0  0  0  0  0  0  0  0  0  0  0
   38.0730   23.1740   36.5890 C   0  0  0  0  0  0  0  0  0  0  0  0
   38.5070   24.4700   36.1960 C   0  0  0  0  0  0  0  0  0  0  0  0
   39.1730   24.5890   34.9400 C   0  0  0  0  0  0  0  0  0  0  0  0
   39.3620   23.4610   34.1750 N   0  0  0  0  0  0  0  0  0  0  0  0
   38.9330   22.2640   34.5910 C   0  0  0  0  0  0  0  0  0  0  0  0
   38.2940   22.1020   35.7800 N   0  0  0  0  0  0  0  0  0  0  0  0
   37.5730   23.1150   37.5410 H   0  0  0  0  0  0  0  0  0  0  0  0
   38.3320   25.3230   36.8370 H   0  0  0  0  0  0  0  0  0  0  0  0
   39.0950   21.3940   33.9700 H   0  0  0  0  0  0  0  0  0  0  0  0
  2  1  1  0  0  0  0
  3 23  1  0  0  0  0
  3  2  2  0  0  0  0
  4  3  1  0  0  0  0
  5  4  2  0  0  0  0
  5  6  1  0  0  0  0
  6  7  2  0  0  0  0
  7  2  1  0  0  0  0
  7 12  1  0  0  0  0
  8  4  1  0  0  0  0
  9  5  1  0  0  0  0
 10  6  1  0  0  0  0
 11 21  1  0  0  0  0
 12 11  2  0  0  0  0
 12 13  1  0  0  0  0
 13 15  2  0  0  0  0
 14 13  1  0  0  0  0
 15 20  1  0  0  0  0
 15 16  1  0  0  0  0
 16 22  1  0  0  0  0
 16 17  1  0  0  0  0
 17 18  1  0  0  0  0
 19 17  2  0  0  0  0
 20 19  1  0  0  0  0
 21 20  2  0  0  0  0
 23 24  1  0  0  0  0
 24 29  1  6  0  0  0
 24 25  1  0  0  0  0
 25 26  1  0  0  0  0
 25 30  1  1  0  0  0
 25 37  1  0  0  0  0
 26 31  1  0  0  0  0
 27 26  1  0  0  0  0
 28 24  1  0  0  0  0
 28 33  1  0  0  0  0
 28 27  1  0  0  0  0
 32 26  1  0  0  0  0
 34 28  1  0  0  0  0
 35 41  1  0  0  0  0
 36 35  1  0  0  0  0
 36 42  1  0  0  0  0
 37 36  2  0  0  0  0
 38 39  2  0  0  0  0
 38 37  1  0  0  0  0
 39 40  1  0  0  0  0
 40 35  2  0  0  0  0
 43 39  1  0  0  0  0
M  END
>  <minimizedAffinity>
-6.31834078

$$$$

 OpenBabel03272501093D

 43 47  0  0  1  0  0  0  0  0999 V2000
   36.6870   27.4660   34.9460 Cl  0  0  0  0  0  0  0  0  0  0  0  0
   36.5140   28.1350   33.3400 C   0  0  0  0  0  0  0  0  0  0  0  0
   37.0150   27.3240   32.3300 C   0  0  0  0  0  0  0  0  0  0  0  0
   36.8800   27.8400   31.0550 C   0  0  0  0  0  0  0  0  0  0  0  0
   36.2890   29.0660   30.8130 C   0  0  0  0  0  0  0  0  0  0  0  0
   35.8130   29.8190   31.8520 C   0  0  0  0  0  0  0  0  0  0  0  0
   35.9260   29.3490   33.1310 C   0  0  0  0  0  0  0  0  0  0  0  0
   37.2090   27.3560   30.1480 H   0  0  0  0  0  0  0  0  0  0  0  0
   36.1680   29.4960   29.8290 H   0  0  0  0  0  0  0  0  0  0  0  0
   35.3490   30.7800   31.6840 H   0  0  0  0  0  0  0  0  0  0  0  0
   36.1120   30.9220   35.1660 C   0  0  0  0  0  3  0  0  0  0  0  0
   35.4400   30.1040   34.2830 C   0  0  0  0  0  0  0  0  0  0  0  0
   34.0650   29.9090   34.4470 C   0  0  0  0  0  0  0  0  0  0  0  0
   33.4140   29.2950   33.8300 H   0  0  0  0  0  0  0  0  0  0  0  0
   33.3640   30.5180   35.4740 C   0  0  0  0  0  0  0  0  0  0  0  0
   32.0900   30.5510   35.9080 N   0  0  0  0  0  0  0  0  0  0  0  0
   31.9860   31.3510   37.0030 C   0  0  0  0  0  0  0  0  0  0  0  0
   31.0780   31.5580   37.5590 H   0  0  0  0  0  0  0  0  0  0  0  0
   33.1970   31.8300   37.2700 N   0  0  0  0  0  0  0  0  0  0  0  0
   34.0620   31.3390   36.3510 C   0  0  0  0  0  0  0  0  0  0  0  0
   35.4120   31.5270   36.1860 C   0  0  0  0  0  3  0  0  0  0  0  0
   31.3030   30.0310   35.4570 H   0  0  0  0  0  0  0  0  0  0  0  0
   37.6190   26.1170   32.3350 O   0  0  0  0  0  0  0  0  0  0  0  0
   37.2620   24.8250   32.1480 C   0  0  2  0  0  0  0  0  0  0  0  0
   38.3440   23.8290   32.6820 C   0  0  2  0  0  0  0  0  0  0  0  0
   38.1000   22.6790   31.8290 C   0  0  0  0  0  0  0  0  0  0  0  0
   37.7330   23.1360   30.5700 O   0  0  0  0  0  0  0  0  0  0  0  0
   37.4700   24.4680   30.6480 C   0  0  0  0  0  0  0  0  0  0  0  0
   36.2820   24.4710   32.4500 H   0  0  0  0  0  0  0  0  0  0  0  0
   39.3460   24.2910   32.4380 H   0  0  0  0  0  0  0  0  0  0  0  0
   39.0550   22.1020   31.7030 H   0  0  0  0  0  0  0  0  0  0  0  0
   37.3540   21.9540   32.1460 H   0  0  0  0  0  0  0  0  0  0  0  0
   38.2700   25.0890   30.2190 H   0  0  0  0  0  0  0  0  0  0  0  0
   36.5230   24.7240   30.1310 H   0  0  0  0  0  0  0  0  0  0  0  0
   38.7260   24.4550   36.3720 C   0  0  0  0  0  0  0  0  0  0  0  0
   38.8070   24.6780   34.9700 C   0  0  0  0  0  0  0  0  0  0  0  0
   38.2790   23.6690   34.1110 C   0  0  0  0  0  0  0  0  0  0  0  0
   37.7220   22.5400   34.6690 N   0  0  0  0  0  0  0  0  0  0  0  0
   37.6700   22.3800   35.9960 C   0  0  0  0  0  0  0  0  0  0  0  0
   38.1600   23.3140   36.8540 N   0  0  0  0  0  0  0  0  0  0  0  0
   39.1320   25.2340   36.9950 H   0  0  0  0  0  0  0  0  0  0  0  0
   39.2560   25.5830   34.5840 H   0  0  0  0  0  0  0  0  0  0  0  0
   37.2270   21.4840   36.4090 H   0  0  0  0  0  0  0  0  0  0  0  0
  2  1  1  0  0  0  0
  3 23  1  0  0  0  0
  3  2  2  0  0  0  0
  4  3  1  0  0  0  0
  5  4  2  0  0  0  0
  5  6  1  0  0  0  0
  6  7  2  0  0  0  0
  7  2  1  0  0  0  0
  7 12  1  0  0  0  0
  8  4  1  0  0  0  0
  9  5  1  0  0  0  0
 10  6  1  0  0  0  0
 11 21  1  0  0  0  0
 12 13  1  0  0  0  0
 12 11  2  0  0  0  0
 13 15  2  0  0  0  0
 14 13  1  0  0  0  0
 15 16  1  0  0  0  0
 15 20  1  0  0  0  0
 16 17  1  0  0  0  0
 17 19  2  0  0  0  0
 17 18  1  0  0  0  0
 20 19  1  0  0  0  0
 21 20  2  0  0  0  0
 22 16  1  0  0  0  0
 24 23  1  0  0  0  0
 24 29  1  1  0  0  0
 24 25  1  0  0  0  0
 25 30  1  6  0  0  0
 25 37  1  0  0  0  0
 26 32  1  0  0  0  0
 26 25  1  0  0  0  0
 27 28  1  0  0  0  0
 27 26  1  0  0  0  0
 28 24  1  0  0  0  0
 31 26  1  0  0  0  0
 33 28  1  0  0  0  0
 34 28  1  0  0  0  0
 35 40  1  0  0  0  0
 35 41  1  0  0  0  0
 36 35  2  0  0  0  0
 37 38  2  0  0  0  0
 37 36  1  0  0  0  0
 38 39  1  0  0  0  0
 39 43  1  0  0  0  0
 39 40  2  0  0  0  0
 42 36  1  0  0  0  0
M  END
>  <minimizedAffinity>
-6.23175764

$$$$

 OpenBabel03272501093D

 43 47  0  0  1  0  0  0  0  0999 V2000
   38.8400   24.4910   32.6300 Cl  0  0  0  0  0  0  0  0  0  0  0  0
   38.4400   25.7340   33.7910 C   0  0  0  0  0  0  0  0  0  0  0  0
   37.3920   26.5590   33.4020 C   0  0  0  0  0  0  0  0  0  0  0  0
   37.0620   27.5430   34.3150 C   0  0  0  0  0  0  0  0  0  0  0  0
   37.7270   27.6870   35.5180 C   0  0  0  0  0  0  0  0  0  0  0  0
   38.7520   26.8420   35.8450 C   0  0  0  0  0  0  0  0  0  0  0  0
   39.1130   25.8530   34.9720 C   0  0  0  0  0  0  0  0  0  0  0  0
   36.2790   28.2760   34.1870 H   0  0  0  0  0  0  0  0  0  0  0  0
   37.4930   28.4460   36.2520 H   0  0  0  0  0  0  0  0  0  0  0  0
   39.2850   26.9380   36.7800 H   0  0  0  0  0  0  0  0  0  0  0  0
   41.5200   24.9310   34.8650 C   0  0  0  0  0  3  0  0  0  0  0  0
   40.1990   24.9190   35.2610 C   0  0  0  0  0  0  0  0  0  0  0  0
   39.7400   23.8770   36.0710 C   0  0  0  0  0  0  0  0  0  0  0  0
   38.7320   23.7410   36.4550 H   0  0  0  0  0  0  0  0  0  0  0  0
   40.5810   22.8570   36.4850 C   0  0  0  0  0  0  0  0  0  0  0  0
   40.4790   21.7450   37.2380 N   0  0  0  0  0  0  0  0  0  0  0  0
   41.6780   21.1060   37.3000 C   0  0  0  0  0  0  0  0  0  0  0  0
   41.8850   20.1860   37.8350 H   0  0  0  0  0  0  0  0  0  0  0  0
   42.5490   21.8120   36.5860 N   0  0  0  0  0  0  0  0  0  0  0  0
   41.9080   22.8910   36.0750 C   0  0  0  0  0  0  0  0  0  0  0  0
   42.3530   23.9170   35.2790 C   0  0  0  0  0  3  0  0  0  0  0  0
   39.5960   21.4300   37.7010 H   0  0  0  0  0  0  0  0  0  0  0  0
   36.6160   26.6000   32.2980 O   0  0  0  0  0  0  0  0  0  0  0  0
   36.2490   27.5170   31.3730 C   0  0  2  0  0  0  0  0  0  0  0  0
   37.3460   28.6100   31.1550 C   0  0  2  0  0  0  0  0  0  0  0  0
   36.5320   29.7300   30.7150 C   0  0  0  0  0  0  0  0  0  0  0  0
   35.3210   29.6860   31.3950 O   0  0  0  0  0  0  0  0  0  0  0  0
   35.2140   28.4830   32.0200 C   0  0  0  0  0  0  0  0  0  0  0  0
   35.8670   27.2060   30.4060 H   0  0  0  0  0  0  0  0  0  0  0  0
   37.7860   28.8240   32.1730 H   0  0  0  0  0  0  0  0  0  0  0  0
   37.0350   30.6900   31.0030 H   0  0  0  0  0  0  0  0  0  0  0  0
   36.3090   29.8180   29.6540 H   0  0  0  0  0  0  0  0  0  0  0  0
   35.3830   28.5470   33.1050 H   0  0  0  0  0  0  0  0  0  0  0  0
   34.2160   28.0290   31.8550 H   0  0  0  0  0  0  0  0  0  0  0  0
   39.3930   27.7730   28.1120 C   0  0  0  0  0  0  0  0  0  0  0  0
   38.3090   28.2610   28.8920 C   0  0  0  0  0  0  0  0  0  0  0  0
   38.4150   28.1470   30.3110 C   0  0  0  0  0  0  0  0  0  0  0  0
   39.5460   27.5780   30.8520 N   0  0  0  0  0  0  0  0  0  0  0  0
   40.5380   27.1350   30.0720 C   0  0  0  0  0  0  0  0  0  0  0  0
   40.4810   27.2220   28.7170 N   0  0  0  0  0  0  0  0  0  0  0  0
   39.2850   27.8720   27.0450 H   0  0  0  0  0  0  0  0  0  0  0  0
   37.4440   28.6980   28.4150 H   0  0  0  0  0  0  0  0  0  0  0  0
   41.4150   26.6930   30.5240 H   0  0  0  0  0  0  0  0  0  0  0  0
  1  2  1  0  0  0  0
  2  7  1  0  0  0  0
  3  2  2  0  0  0  0
  3  4  1  0  0  0  0
  4  5  2  0  0  0  0
  5  6  1  0  0  0  0
  5  9  1  0  0  0  0
  6 10  1  0  0  0  0
  7 12  1  0  0  0  0
  7  6  2  0  0  0  0
  8  4  1  0  0  0  0
 11 12  2  0  0  0  0
 11 21  1  0  0  0  0
 12 13  1  0  0  0  0
 13 14  1  0  0  0  0
 13 15  2  0  0  0  0
 15 16  1  0  0  0  0
 16 17  1  0  0  0  0
 16 22  1  0  0  0  0
 17 18  1  0  0  0  0
 19 17  2  0  0  0  0
 20 15  1  0  0  0  0
 20 19  1  0  0  0  0
 21 20  2  0  0  0  0
 23  3  1  0  0  0  0
 24 29  1  6  0  0  0
 24 28  1  0  0  0  0
 24 23  1  0  0  0  0
 25 24  1  0  0  0  0
 25 30  1  1  0  0  0
 26 31  1  0  0  0  0
 26 25  1  0  0  0  0
 26 27  1  0  0  0  0
 27 28  1  0  0  0  0
 28 33  1  0  0  0  0
 32 26  1  0  0  0  0
 34 28  1  0  0  0  0
 35 40  2  0  0  0  0
 35 36  1  0  0  0  0
 36 37  2  0  0  0  0
 37 38  1  0  0  0  0
 37 25  1  0  0  0  0
 39 43  1  0  0  0  0
 39 38  2  0  0  0  0
 40 39  1  0  0  0  0
 41 35  1  0  0  0  0
 42 36  1  0  0  0  0
M  END
>  <minimizedAffinity>
-6.05457115

$$$$

 OpenBabel03272501093D

 43 47  0  0  1  0  0  0  0  0999 V2000
   38.8050   26.7450   33.8900 Cl  0  0  0  0  0  0  0  0  0  0  0  0
   37.9270   25.4550   33.1010 C   0  0  0  0  0  0  0  0  0  0  0  0
   38.1270   24.2030   33.6690 C   0  0  0  0  0  0  0  0  0  0  0  0
   37.4340   23.1750   33.0570 C   0  0  0  0  0  0  0  0  0  0  0  0
   36.6090   23.3860   31.9680 C   0  0  0  0  0  0  0  0  0  0  0  0
   36.4530   24.6440   31.4550 C   0  0  0  0  0  0  0  0  0  0  0  0
   37.1200   25.6920   32.0270 C   0  0  0  0  0  0  0  0  0  0  0  0
   37.4630   22.1380   33.3560 H   0  0  0  0  0  0  0  0  0  0  0  0
   36.0540   22.6030   31.4690 H   0  0  0  0  0  0  0  0  0  0  0  0
   35.8150   24.8300   30.6040 H   0  0  0  0  0  0  0  0  0  0  0  0
   37.7950   27.7660   30.6510 C   0  0  0  0  0  3  0  0  0  0  0  0
   36.9980   27.0590   31.5260 C   0  0  0  0  0  0  0  0  0  0  0  0
   35.8680   27.6770   32.0700 C   0  0  0  0  0  0  0  0  0  0  0  0
   35.1570   27.2420   32.7670 H   0  0  0  0  0  0  0  0  0  0  0  0
   35.5320   28.9820   31.7510 C   0  0  0  0  0  0  0  0  0  0  0  0
   34.5560   29.8510   32.0760 N   0  0  0  0  0  0  0  0  0  0  0  0
   34.7460   31.0340   31.4320 C   0  0  0  0  0  0  0  0  0  0  0  0
   34.1140   31.9120   31.5080 H   0  0  0  0  0  0  0  0  0  0  0  0
   35.8460   30.9200   30.6940 N   0  0  0  0  0  0  0  0  0  0  0  0
   36.3490   29.6750   30.8670 C   0  0  0  0  0  0  0  0  0  0  0  0
   37.4580   29.0630   30.3350 C   0  0  0  0  0  3  0  0  0  0  0  0
   33.7720   29.6340   32.7310 H   0  0  0  0  0  0  0  0  0  0  0  0
   38.8690   23.7740   34.7110 O   0  0  0  0  0  0  0  0  0  0  0  0
   39.0660   24.1220   36.0040 C   0  0  2  0  0  0  0  0  0  0  0  0
   39.4440   22.8950   36.8960 C   0  0  2  0  0  0  0  0  0  0  0  0
   38.9580   23.3390   38.1910 C   0  0  0  0  0  0  0  0  0  0  0  0
   37.8000   24.0810   37.9940 O   0  0  0  0  0  0  0  0  0  0  0  0
   37.6790   24.3580   36.6670 C   0  0  0  0  0  0  0  0  0  0  0  0
   39.7130   24.9540   36.2610 H   0  0  0  0  0  0  0  0  0  0  0  0
   38.8230   22.0280   36.5220 H   0  0  0  0  0  0  0  0  0  0  0  0
   38.6730   22.4450   38.8070 H   0  0  0  0  0  0  0  0  0  0  0  0
   39.6230   23.9290   38.8150 H   0  0  0  0  0  0  0  0  0  0  0  0
   36.9120   23.7440   36.1700 H   0  0  0  0  0  0  0  0  0  0  0  0
   37.4270   25.4240   36.4990 H   0  0  0  0  0  0  0  0  0  0  0  0
   43.1060   23.0060   36.0450 C   0  0  0  0  0  0  0  0  0  0  0  0
   41.7560   23.4340   36.1670 C   0  0  0  0  0  0  0  0  0  0  0  0
   40.8280   22.5250   36.7570 C   0  0  0  0  0  0  0  0  0  0  0  0
   41.2750   21.2920   37.1750 N   0  0  0  0  0  0  0  0  0  0  0  0
   42.5570   20.9390   37.0370 C   0  0  0  0  0  0  0  0  0  0  0  0
   43.4770   21.7710   36.4810 N   0  0  0  0  0  0  0  0  0  0  0  0
   43.7840   23.7140   35.5970 H   0  0  0  0  0  0  0  0  0  0  0  0
   41.4590   24.4150   35.8220 H   0  0  0  0  0  0  0  0  0  0  0  0
   42.8810   19.9640   37.3730 H   0  0  0  0  0  0  0  0  0  0  0  0
  2  3  1  0  0  0  0
  2  1  1  0  0  0  0
  3 23  1  0  0  0  0
  4  8  1  0  0  0  0
  4  3  2  0  0  0  0
  5  4  1  0  0  0  0
  6  5  2  0  0  0  0
  6  7  1  0  0  0  0
  7  2  2  0  0  0  0
  9  5  1  0  0  0  0
 10  6  1  0  0  0  0
 11 12  1  0  0  0  0
 12  7  1  0  0  0  0
 12 13  2  0  0  0  0
 13 14  1  0  0  0  0
 15 13  1  0  0  0  0
 15 16  1  0  0  0  0
 16 22  1  0  0  0  0
 17 18  1  0  0  0  0
 17 16  1  0  0  0  0
 19 20  1  0  0  0  0
 19 17  2  0  0  0  0
 20 15  2  0  0  0  0
 21 11  2  0  0  0  0
 21 20  1  0  0  0  0
 23 24  1  0  0  0  0
 24 29  1  1  0  0  0
 24 28  1  0  0  0  0
 24 25  1  0  0  0  0
 25 30  1  6  0  0  0
 25 26  1  0  0  0  0
 26 31  1  0  0  0  0
 26 32  1  0  0  0  0
 27 26  1  0  0  0  0
 28 27  1  0  0  0  0
 33 28  1  0  0  0  0
 34 28  1  0  0  0  0
 35 36  2  0  0  0  0
 35 40  1  0  0  0  0
 36 37  1  0  0  0  0
 37 25  1  0  0  0  0
 37 38  2  0  0  0  0
 39 38  1  0  0  0  0
 39 43  1  0  0  0  0
 40 39  2  0  0  0  0
 41 35  1  0  0  0  0
 42 36  1  0  0  0  0
M  END
>  <minimizedAffinity>
-6.03889465

$$$$

 OpenBabel03272501093D

 43 47  0  0  1  0  0  0  0  0999 V2000
   37.8720   26.8650   33.4380 Cl  0  0  0  0  0  0  0  0  0  0  0  0
   36.8380   25.9030   32.4070 C   0  0  0  0  0  0  0  0  0  0  0  0
   36.9630   24.5330   32.5980 C   0  0  0  0  0  0  0  0  0  0  0  0
   36.1460   23.7610   31.7920 C   0  0  0  0  0  0  0  0  0  0  0  0
   35.2760   24.3180   30.8730 C   0  0  0  0  0  0  0  0  0  0  0  0
   35.1990   25.6770   30.7320 C   0  0  0  0  0  0  0  0  0  0  0  0
   35.9880   26.4800   31.5080 C   0  0  0  0  0  0  0  0  0  0  0  0
   36.1040   22.6820   31.7970 H   0  0  0  0  0  0  0  0  0  0  0  0
   34.6260   23.7420   30.2290 H   0  0  0  0  0  0  0  0  0  0  0  0
   34.5270   26.1310   30.0190 H   0  0  0  0  0  0  0  0  0  0  0  0
   35.3350   28.8760   32.2020 C   0  0  0  0  0  3  0  0  0  0  0  0
   35.9550   27.9370   31.4060 C   0  0  0  0  0  0  0  0  0  0  0  0
   36.6920   28.3630   30.2970 C   0  0  0  0  0  0  0  0  0  0  0  0
   37.2290   27.7370   29.5880 H   0  0  0  0  0  0  0  0  0  0  0  0
   36.8140   29.7050   29.9800 C   0  0  0  0  0  0  0  0  0  0  0  0
   37.4220   30.4380   29.0280 N   0  0  0  0  0  0  0  0  0  0  0  0
   37.1860   31.7620   29.2300 C   0  0  0  0  0  0  0  0  0  0  0  0
   37.5520   32.5780   28.6160 H   0  0  0  0  0  0  0  0  0  0  0  0
   36.4250   31.8760   30.3140 N   0  0  0  0  0  0  0  0  0  0  0  0
   36.1810   30.6340   30.7970 C   0  0  0  0  0  0  0  0  0  0  0  0
   35.4580   30.2110   31.8850 C   0  0  0  0  0  3  0  0  0  0  0  0
   37.9910   30.0330   28.2500 H   0  0  0  0  0  0  0  0  0  0  0  0
   37.7290   23.7850   33.4200 O   0  0  0  0  0  0  0  0  0  0  0  0
   39.0390   23.4770   33.5520 C   0  0  2  0  0  0  0  0  0  0  0  0
   39.7600   24.3900   34.5980 C   0  0  2  0  0  0  0  0  0  0  0  0
   41.1230   24.3530   34.0980 C   0  0  0  0  0  0  0  0  0  0  0  0
   41.0810   24.3070   32.7110 O   0  0  0  0  0  0  0  0  0  0  0  0
   39.8050   24.0410   32.3210 C   0  0  0  0  0  0  0  0  0  0  0  0
   39.3540   22.4500   33.7080 H   0  0  0  0  0  0  0  0  0  0  0  0
   39.3240   25.4240   34.4680 H   0  0  0  0  0  0  0  0  0  0  0  0
   41.6460   25.3060   34.3780 H   0  0  0  0  0  0  0  0  0  0  0  0
   41.7720   23.5490   34.4340 H   0  0  0  0  0  0  0  0  0  0  0  0
   39.2850   24.9250   31.9240 H   0  0  0  0  0  0  0  0  0  0  0  0
   39.7770   23.2500   31.5450 H   0  0  0  0  0  0  0  0  0  0  0  0
   38.1820   24.0750   37.9980 C   0  0  0  0  0  0  0  0  0  0  0  0
   38.3790   24.5100   36.6590 C   0  0  0  0  0  0  0  0  0  0  0  0
   39.4980   23.9780   35.9520 C   0  0  0  0  0  0  0  0  0  0  0  0
   40.3260   23.0810   36.5890 N   0  0  0  0  0  0  0  0  0  0  0  0
   40.0950   22.7040   37.8510 C   0  0  0  0  0  0  0  0  0  0  0  0
   39.0410   23.1840   38.5640 N   0  0  0  0  0  0  0  0  0  0  0  0
   37.3290   24.4930   38.5060 H   0  0  0  0  0  0  0  0  0  0  0  0
   37.6980   25.2170   36.2070 H   0  0  0  0  0  0  0  0  0  0  0  0
   40.7610   21.9980   38.3280 H   0  0  0  0  0  0  0  0  0  0  0  0
  2  3  1  0  0  0  0
  2  1  1  0  0  0  0
  3 23  1  0  0  0  0
  4  8  1  0  0  0  0
  4  3  2  0  0  0  0
  5  4  1  0  0  0  0
  6  5  2  0  0  0  0
  6  7  1  0  0  0  0
  7  2  2  0  0  0  0
  9  5  1  0  0  0  0
 10  6  1  0  0  0  0
 12  7  1  0  0  0  0
 12 11  2  0  0  0  0
 13 12  1  0  0  0  0
 14 13  1  0  0  0  0
 15 13  2  0  0  0  0
 15 20  1  0  0  0  0
 16 17  1  0  0  0  0
 16 15  1  0  0  0  0
 17 19  2  0  0  0  0
 18 17  1  0  0  0  0
 19 20  1  0  0  0  0
 20 21  2  0  0  0  0
 21 11  1  0  0  0  0
 22 16  1  0  0  0  0
 23 24  1  0  0  0  0
 24 29  1  1  0  0  0
 24 25  1  0  0  0  0
 25 30  1  6  0  0  0
 25 37  1  0  0  0  0
 26 31  1  0  0  0  0
 26 32  1  0  0  0  0
 26 25  1  0  0  0  0
 27 26  1  0  0  0  0
 28 27  1  0  0  0  0
 28 24  1  0  0  0  0
 33 28  1  0  0  0  0
 34 28  1  0  0  0  0
 35 41  1  0  0  0  0
 35 40  1  0  0  0  0
 36 35  2  0  0  0  0
 37 38  2  0  0  0  0
 37 36  1  0  0  0  0
 38 39  1  0  0  0  0
 39 43  1  0  0  0  0
 39 40  2  0  0  0  0
 42 36  1  0  0  0  0
M  END
>  <minimizedAffinity>
-6.02759266

$$$$

 OpenBabel03272501093D

 43 47  0  0  1  0  0  0  0  0999 V2000
   38.2860   26.8540   33.7550 Cl  0  0  0  0  0  0  0  0  0  0  0  0
   37.4150   25.6530   32.8300 C   0  0  0  0  0  0  0  0  0  0  0  0
   36.3600   26.1640   32.0860 C   0  0  0  0  0  0  0  0  0  0  0  0
   35.6660   25.2240   31.3470 C   0  0  0  0  0  0  0  0  0  0  0  0
   36.0050   23.8840   31.3520 C   0  0  0  0  0  0  0  0  0  0  0  0
   37.0570   23.4420   32.1060 C   0  0  0  0  0  0  0  0  0  0  0  0
   37.7710   24.3360   32.8540 C   0  0  0  0  0  0  0  0  0  0  0  0
   34.8190   25.4320   30.7100 H   0  0  0  0  0  0  0  0  0  0  0  0
   35.4830   23.1260   30.7850 H   0  0  0  0  0  0  0  0  0  0  0  0
   37.3370   22.3990   32.1250 H   0  0  0  0  0  0  0  0  0  0  0  0
   40.2560   23.9230   33.4110 C   0  0  0  0  0  3  0  0  0  0  0  0
   38.9040   23.9280   33.6820 C   0  0  0  0  0  0  0  0  0  0  0  0
   38.4580   23.4840   34.9310 C   0  0  0  0  0  0  0  0  0  0  0  0
   37.4300   23.4340   35.2780 H   0  0  0  0  0  0  0  0  0  0  0  0
   39.3420   23.0410   35.9000 C   0  0  0  0  0  0  0  0  0  0  0  0
   39.2630   22.5650   37.1570 N   0  0  0  0  0  0  0  0  0  0  0  0
   40.5060   22.2830   37.6330 C   0  0  0  0  0  0  0  0  0  0  0  0
   40.7390   21.8860   38.6160 H   0  0  0  0  0  0  0  0  0  0  0  0
   41.3810   22.5780   36.6780 N   0  0  0  0  0  0  0  0  0  0  0  0
   40.7000   23.0460   35.6040 C   0  0  0  0  0  0  0  0  0  0  0  0
   41.1330   23.4820   34.3770 C   0  0  0  0  0  3  0  0  0  0  0  0
   38.3670   22.4370   37.6800 H   0  0  0  0  0  0  0  0  0  0  0  0
   35.8610   27.4090   31.9330 O   0  0  0  0  0  0  0  0  0  0  0  0
   36.3430   28.6560   31.7240 C   0  0  2  0  0  0  0  0  0  0  0  0
   35.2070   29.7300   31.6820 C   0  0  2  0  0  0  0  0  0  0  0  0
   35.8190   30.7410   30.8370 C   0  0  0  0  0  0  0  0  0  0  0  0
   36.5920   30.1010   29.8760 O   0  0  0  0  0  0  0  0  0  0  0  0
   36.7230   28.7920   30.2210 C   0  0  0  0  0  0  0  0  0  0  0  0
   37.1650   29.0390   32.3190 H   0  0  0  0  0  0  0  0  0  0  0  0
   34.3370   29.2490   31.1460 H   0  0  0  0  0  0  0  0  0  0  0  0
   35.0170   31.3040   30.2900 H   0  0  0  0  0  0  0  0  0  0  0  0
   36.4420   31.4970   31.3100 H   0  0  0  0  0  0  0  0  0  0  0  0
   36.0970   28.1240   29.6110 H   0  0  0  0  0  0  0  0  0  0  0  0
   37.7740   28.4540   30.1320 H   0  0  0  0  0  0  0  0  0  0  0  0
   35.0220   31.3220   35.0850 C   0  0  0  0  0  0  0  0  0  0  0  0
   35.5130   31.0100   33.7880 C   0  0  0  0  0  0  0  0  0  0  0  0
   34.7540   30.0970   32.9970 C   0  0  0  0  0  0  0  0  0  0  0  0
   33.5960   29.5650   33.5180 N   0  0  0  0  0  0  0  0  0  0  0  0
   33.1770   29.8930   34.7460 C   0  0  0  0  0  0  0  0  0  0  0  0
   33.8670   30.7590   35.5350 N   0  0  0  0  0  0  0  0  0  0  0  0
   35.6150   32.0150   35.6580 H   0  0  0  0  0  0  0  0  0  0  0  0
   36.4300   31.4560   33.4280 H   0  0  0  0  0  0  0  0  0  0  0  0
   32.2640   29.4610   35.1310 H   0  0  0  0  0  0  0  0  0  0  0  0
  2  7  1  0  0  0  0
  2  1  1  0  0  0  0
  3  2  2  0  0  0  0
  4  5  2  0  0  0  0
  4  3  1  0  0  0  0
  5  6  1  0  0  0  0
  6 10  1  0  0  0  0
  6  7  2  0  0  0  0
  7 12  1  0  0  0  0
  8  4  1  0  0  0  0
  9  5  1  0  0  0  0
 11 12  2  0  0  0  0
 11 21  1  0  0  0  0
 12 13  1  0  0  0  0
 13 14  1  0  0  0  0
 13 15  2  0  0  0  0
 15 16  1  0  0  0  0
 16 17  1  0  0  0  0
 16 22  1  0  0  0  0
 17 18  1  0  0  0  0
 19 17  2  0  0  0  0
 20 15  1  0  0  0  0
 20 19  1  0  0  0  0
 21 20  2  0  0  0  0
 23  3  1  0  0  0  0
 24 23  1  0  0  0  0
 24 29  1  1  0  0  0
 25 30  1  6  0  0  0
 25 24  1  0  0  0  0
 25 37  1  0  0  0  0
 26 32  1  0  0  0  0
 26 25  1  0  0  0  0
 27 28  1  0  0  0  0
 27 26  1  0  0  0  0
 28 24  1  0  0  0  0
 31 26  1  0  0  0  0
 33 28  1  0  0  0  0
 34 28  1  0  0  0  0
 35 40  1  0  0  0  0
 35 41  1  0  0  0  0
 36 35  2  0  0  0  0
 37 38  2  0  0  0  0
 37 36  1  0  0  0  0
 38 39  1  0  0  0  0
 39 43  1  0  0  0  0
 39 40  2  0  0  0  0
 42 36  1  0  0  0  0
M  END
>  <minimizedAffinity>
-6.02254868

$$$$

 OpenBabel03272501093D

 43 47  0  0  1  0  0  0  0  0999 V2000
   36.0330   28.6180   34.5500 Cl  0  0  0  0  0  0  0  0  0  0  0  0
   35.9720   29.5250   33.0560 C   0  0  0  0  0  0  0  0  0  0  0  0
   35.5230   30.8310   33.2020 C   0  0  0  0  0  0  0  0  0  0  0  0
   35.4760   31.5590   32.0280 C   0  0  0  0  0  0  0  0  0  0  0  0
   35.8490   31.0230   30.8100 C   0  0  0  0  0  0  0  0  0  0  0  0
   36.2850   29.7280   30.7320 C   0  0  0  0  0  0  0  0  0  0  0  0
   36.3470   28.9690   31.8670 C   0  0  0  0  0  0  0  0  0  0  0  0
   35.1540   32.5870   31.9440 H   0  0  0  0  0  0  0  0  0  0  0  0
   35.8240   31.5670   29.8760 H   0  0  0  0  0  0  0  0  0  0  0  0
   36.5800   29.2900   29.7890 H   0  0  0  0  0  0  0  0  0  0  0  0
   38.0480   27.0430   32.0940 C   0  0  0  0  0  3  0  0  0  0  0  0
   36.8020   27.5810   31.8510 C   0  0  0  0  0  0  0  0  0  0  0  0
   35.7430   26.7280   31.5260 C   0  0  0  0  0  0  0  0  0  0  0  0
   34.7160   27.0110   31.3110 H   0  0  0  0  0  0  0  0  0  0  0  0
   35.9160   25.3560   31.4440 C   0  0  0  0  0  0  0  0  0  0  0  0
   35.1490   24.2840   31.1700 N   0  0  0  0  0  0  0  0  0  0  0  0
   35.8890   23.1450   31.2420 C   0  0  0  0  0  0  0  0  0  0  0  0
   35.5280   22.1360   31.0670 H   0  0  0  0  0  0  0  0  0  0  0  0
   37.1320   23.4900   31.5630 N   0  0  0  0  0  0  0  0  0  0  0  0
   37.1810   24.8370   31.6950 C   0  0  0  0  0  0  0  0  0  0  0  0
   38.2170   25.6790   32.0130 C   0  0  0  0  0  3  0  0  0  0  0  0
   34.1320   24.3360   30.9360 H   0  0  0  0  0  0  0  0  0  0  0  0
   35.1150   31.5480   34.2700 O   0  0  0  0  0  0  0  0  0  0  0  0
   34.7420   31.3070   35.5480 C   0  0  2  0  0  0  0  0  0  0  0  0
   33.2040   31.4920   35.7600 C   0  0  2  0  0  0  0  0  0  0  0  0
   33.1630   31.8420   37.1700 C   0  0  0  0  0  0  0  0  0  0  0  0
   34.2860   32.6040   37.4650 O   0  0  0  0  0  0  0  0  0  0  0  0
   35.1530   32.5290   36.4200 C   0  0  0  0  0  0  0  0  0  0  0  0
   35.0600   30.4040   36.0570 H   0  0  0  0  0  0  0  0  0  0  0  0
   32.9010   32.3790   35.1290 H   0  0  0  0  0  0  0  0  0  0  0  0
   32.2670   32.4890   37.3660 H   0  0  0  0  0  0  0  0  0  0  0  0
   33.1120   31.0360   37.8980 H   0  0  0  0  0  0  0  0  0  0  0  0
   35.1650   33.4430   35.8080 H   0  0  0  0  0  0  0  0  0  0  0  0
   36.1870   32.3340   36.7660 H   0  0  0  0  0  0  0  0  0  0  0  0
   31.3930   28.1960   35.6780 C   0  0  0  0  0  0  0  0  0  0  0  0
   32.1270   29.2970   36.1970 C   0  0  0  0  0  0  0  0  0  0  0  0
   32.4500   30.3560   35.2980 C   0  0  0  0  0  0  0  0  0  0  0  0
   32.0420   30.2670   33.9870 N   0  0  0  0  0  0  0  0  0  0  0  0
   31.3520   29.2090   33.5480 C   0  0  0  0  0  0  0  0  0  0  0  0
   31.0220   28.1750   34.3680 N   0  0  0  0  0  0  0  0  0  0  0  0
   31.1640   27.4110   36.3790 H   0  0  0  0  0  0  0  0  0  0  0  0
   32.4240   29.3150   37.2370 H   0  0  0  0  0  0  0  0  0  0  0  0
   31.0430   29.1640   32.5130 H   0  0  0  0  0  0  0  0  0  0  0  0
  2  3  1  0  0  0  0
  2  1  1  0  0  0  0
  3 23  1  0  0  0  0
  4  3  2  0  0  0  0
  5  4  1  0  0  0  0
  6  5  2  0  0  0  0
  6  7  1  0  0  0  0
  7  2  2  0  0  0  0
  8  4  1  0  0  0  0
  9  5  1  0  0  0  0
 10  6  1  0  0  0  0
 12  7  1  0  0  0  0
 12 11  2  0  0  0  0
 13 12  1  0  0  0  0
 14 13  1  0  0  0  0
 15 13  2  0  0  0  0
 15 20  1  0  0  0  0
 16 17  1  0  0  0  0
 16 15  1  0  0  0  0
 17 19  2  0  0  0  0
 18 17  1  0  0  0  0
 19 20  1  0  0  0  0
 20 21  2  0  0  0  0
 21 11  1  0  0  0  0
 22 16  1  0  0  0  0
 23 24  1  0  0  0  0
 24 25  1  0  0  0  0
 24 29  1  1  0  0  0
 24 28  1  0  0  0  0
 25 30  1  6  0  0  0
 25 26  1  0  0  0  0
 26 31  1  0  0  0  0
 26 27  1  0  0  0  0
 26 32  1  0  0  0  0
 28 34  1  0  0  0  0
 28 27  1  0  0  0  0
 33 28  1  0  0  0  0
 35 36  1  0  0  0  0
 35 41  1  0  0  0  0
 36 42  1  0  0  0  0
 37 25  1  0  0  0  0
 37 36  2  0  0  0  0
 38 37  1  0  0  0  0
 39 38  2  0  0  0  0
 39 40  1  0  0  0  0
 40 35  2  0  0  0  0
 43 39  1  0  0  0  0
M  END
>  <minimizedAffinity>
-6.01392603

$$$$

 OpenBabel03272501093D

 43 47  0  0  1  0  0  0  0  0999 V2000
   36.6770   27.8030   34.5850 Cl  0  0  0  0  0  0  0  0  0  0  0  0
   36.0890   28.8180   33.2890 C   0  0  0  0  0  0  0  0  0  0  0  0
   35.1680   29.7770   33.6910 C   0  0  0  0  0  0  0  0  0  0  0  0
   34.7000   30.5890   32.6760 C   0  0  0  0  0  0  0  0  0  0  0  0
   35.1210   30.4520   31.3660 C   0  0  0  0  0  0  0  0  0  0  0  0
   36.0320   29.4870   31.0330 C   0  0  0  0  0  0  0  0  0  0  0  0
   36.5230   28.6600   32.0040 C   0  0  0  0  0  0  0  0  0  0  0  0
   33.9820   31.3870   32.7950 H   0  0  0  0  0  0  0  0  0  0  0  0
   34.7730   31.0710   30.5500 H   0  0  0  0  0  0  0  0  0  0  0  0
   36.3730   29.3630   30.0150 H   0  0  0  0  0  0  0  0  0  0  0  0
   38.8690   27.6020   31.8370 C   0  0  0  0  0  3  0  0  0  0  0  0
   37.4960   27.6100   31.7140 C   0  0  0  0  0  0  0  0  0  0  0  0
   36.8480   26.4660   31.2390 C   0  0  0  0  0  0  0  0  0  0  0  0
   35.7790   26.3320   31.0920 H   0  0  0  0  0  0  0  0  0  0  0  0
   37.5530   25.3260   30.8900 C   0  0  0  0  0  0  0  0  0  0  0  0
   37.2640   24.0980   30.4190 N   0  0  0  0  0  0  0  0  0  0  0  0
   38.4040   23.3730   30.2610 C   0  0  0  0  0  0  0  0  0  0  0  0
   38.4670   22.3530   29.8970 H   0  0  0  0  0  0  0  0  0  0  0  0
   39.4240   24.1400   30.6320 N   0  0  0  0  0  0  0  0  0  0  0  0
   38.9360   25.3410   31.0240 C   0  0  0  0  0  0  0  0  0  0  0  0
   39.5670   26.4670   31.4900 C   0  0  0  0  0  3  0  0  0  0  0  0
   36.2960   23.7640   30.2090 H   0  0  0  0  0  0  0  0  0  0  0  0
   34.6260   30.0850   34.8880 O   0  0  0  0  0  0  0  0  0  0  0  0
   33.7180   30.9640   35.3730 C   0  0  2  0  0  0  0  0  0  0  0  0
   34.2590   31.7490   36.6130 C   0  0  2  0  0  0  0  0  0  0  0  0
   33.0180   32.0590   37.3020 C   0  0  0  0  0  0  0  0  0  0  0  0
   32.1420   30.9940   37.1280 O   0  0  0  0  0  0  0  0  0  0  0  0
   32.6400   30.1710   36.1670 C   0  0  0  0  0  0  0  0  0  0  0  0
   33.2120   31.6590   34.7120 H   0  0  0  0  0  0  0  0  0  0  0  0
   34.8660   31.0100   37.2150 H   0  0  0  0  0  0  0  0  0  0  0  0
   33.2170   32.1430   38.4030 H   0  0  0  0  0  0  0  0  0  0  0  0
   32.4900   32.9670   37.0250 H   0  0  0  0  0  0  0  0  0  0  0  0
   33.0750   29.2470   36.5770 H   0  0  0  0  0  0  0  0  0  0  0  0
   31.8580   29.8860   35.4350 H   0  0  0  0  0  0  0  0  0  0  0  0
   37.2320   33.6440   35.3000 C   0  0  0  0  0  0  0  0  0  0  0  0
   36.4020   32.5400   35.6370 C   0  0  0  0  0  0  0  0  0  0  0  0
   35.1380   32.8240   36.2360 C   0  0  0  0  0  0  0  0  0  0  0  0
   34.7840   34.1360   36.4570 N   0  0  0  0  0  0  0  0  0  0  0  0
   35.6020   35.1380   36.1200 C   0  0  0  0  0  0  0  0  0  0  0  0
   36.8150   34.9160   35.5470 N   0  0  0  0  0  0  0  0  0  0  0  0
   38.1780   33.3990   34.8490 H   0  0  0  0  0  0  0  0  0  0  0  0
   36.7300   31.5280   35.4420 H   0  0  0  0  0  0  0  0  0  0  0  0
   35.2990   36.1600   36.3040 H   0  0  0  0  0  0  0  0  0  0  0  0
  2  3  1  0  0  0  0
  2  1  1  0  0  0  0
  3 23  1  0  0  0  0
  4  8  1  0  0  0  0
  4  3  2  0  0  0  0
  5  4  1  0  0  0  0
  6  5  2  0  0  0  0
  6  7  1  0  0  0  0
  7  2  2  0  0  0  0
  9  5  1  0  0  0  0
 10  6  1  0  0  0  0
 12 11  1  0  0  0  0
 12  7  1  0  0  0  0
 13 12  2  0  0  0  0
 14 13  1  0  0  0  0
 15 20  2  0  0  0  0
 15 13  1  0  0  0  0
 16 15  1  0  0  0  0
 17 16  1  0  0  0  0
 17 19  2  0  0  0  0
 18 17  1  0  0  0  0
 19 20  1  0  0  0  0
 20 21  1  0  0  0  0
 21 11  2  0  0  0  0
 22 16  1  0  0  0  0
 23 24  1  0  0  0  0
 24 29  1  6  0  0  0
 24 28  1  0  0  0  0
 24 25  1  0  0  0  0
 25 30  1  1  0  0  0
 25 26  1  0  0  0  0
 26 31  1  0  0  0  0
 27 26  1  0  0  0  0
 28 33  1  0  0  0  0
 28 27  1  0  0  0  0
 32 26  1  0  0  0  0
 34 28  1  0  0  0  0
 35 40  2  0  0  0  0
 35 36  1  0  0  0  0
 36 37  2  0  0  0  0
 37 38  1  0  0  0  0
 37 25  1  0  0  0  0
 39 43  1  0  0  0  0
 39 38  2  0  0  0  0
 40 39  1  0  0  0  0
 41 35  1  0  0  0  0
 42 36  1  0  0  0  0
M  END
>  <minimizedAffinity>
-5.97291088

$$$$
