
 OpenBabel03272510023D

 24 26  0  0  0  0  0  0  0  0999 V2000
   38.3170   31.2040   50.3660 C   0  0  0  0  0  0  0  0  0  0  0  0
   38.4700   31.4940   49.0090 C   0  0  0  0  0  0  0  0  0  0  0  0
   37.4850   31.0540   48.1370 C   0  0  0  0  0  0  0  0  0  0  0  0
   36.4320   30.3700   48.6430 N   0  0  0  0  0  0  0  0  0  0  0  0
   36.3150   30.1050   49.9660 C   0  0  0  0  0  0  0  0  0  0  0  0
   37.2630   30.5270   50.8180 N   0  0  0  0  0  0  0  0  0  0  0  0
   39.1110   31.5680   51.0100 H   0  0  0  0  0  0  0  0  0  0  0  0
   39.3060   32.0330   48.6410 H   0  0  0  0  0  0  0  0  0  0  0  0
   38.4000   32.2620   46.2510 C   0  0  0  0  0  3  0  0  0  0  0  0
   37.5290   31.2940   46.7040 C   0  0  0  0  0  0  0  0  0  0  0  0
   36.7690   30.6220   45.7960 C   0  0  0  0  0  0  0  0  0  0  0  0
   36.0890   29.8700   46.1110 H   0  0  0  0  0  0  0  0  0  0  0  0
   36.8170   30.8530   44.4320 C   0  0  0  0  0  0  0  0  0  0  0  0
   36.1540   30.3030   43.3810 N   0  0  0  0  0  0  0  0  0  0  0  0
   36.6080   30.9250   42.2750 C   0  0  0  0  0  0  0  0  0  0  0  0
   36.2000   30.6290   41.3190 H   0  0  0  0  0  0  0  0  0  0  0  0
   37.5370   31.8480   42.6250 N   0  0  0  0  0  0  0  0  0  0  0  0
   37.6930   31.8310   43.9610 C   0  0  0  0  0  0  0  0  0  0  0  0
   38.4750   32.5250   44.8810 C   0  0  0  0  0  3  0  0  0  0  0  0
   35.4270   29.5320   43.4710 H   0  0  0  0  0  0  0  0  0  0  0  0
   35.1180   29.3480   50.4020 C   0  0  0  0  0  0  0  0  0  0  0  0
   35.1490   29.0690   51.7670 F   0  0  0  0  0  0  0  0  0  0  0  0
   33.9520   30.0710   50.1970 F   0  0  0  0  0  0  0  0  0  0  0  0
   34.9530   28.1510   49.7560 F   0  0  0  0  0  0  0  0  0  0  0  0
  1  6  1  0  0  0  0
  1  7  1  0  0  0  0
  2  1  2  0  0  0  0
  3  4  2  0  0  0  0
  3  2  1  0  0  0  0
  4  5  1  0  0  0  0
  5 21  1  0  0  0  0
  5  6  2  0  0  0  0
  8  2  1  0  0  0  0
  9 10  1  0  0  0  0
 10  3  1  0  0  0  0
 11 12  1  0  0  0  0
 11 10  2  0  0  0  0
 13 11  1  0  0  0  0
 14 20  1  0  0  0  0
 14 13  1  0  0  0  0
 15 17  2  0  0  0  0
 15 14  1  0  0  0  0
 16 15  1  0  0  0  0
 17 18  1  0  0  0  0
 18 13  2  0  0  0  0
 18 19  1  0  0  0  0
 19  9  2  0  0  0  0
 21 22  1  0  0  0  0
 23 21  1  0  0  0  0
 24 21  1  0  0  0  0
M  END
>  <minimizedAffinity>
-5.82670307

>  <minimizedRMSD>
0.726901531

$$$$
