
 OpenBabel03272510023D

 24 26  0  0  0  0  0  0  0  0999 V2000
   38.3920   32.8380   49.4550 C   0  0  0  0  0  0  0  0  0  0  0  0
   38.8470   32.7820   48.1360 C   0  0  0  0  0  0  0  0  0  0  0  0
   38.2540   31.8620   47.2850 C   0  0  0  0  0  0  0  0  0  0  0  0
   37.2710   31.0700   47.7720 N   0  0  0  0  0  0  0  0  0  0  0  0
   36.8540   31.1500   49.0580 C   0  0  0  0  0  0  0  0  0  0  0  0
   37.4220   32.0380   49.8910 N   0  0  0  0  0  0  0  0  0  0  0  0
   38.8850   33.5720   50.0840 H   0  0  0  0  0  0  0  0  0  0  0  0
   39.6210   33.4160   47.7810 H   0  0  0  0  0  0  0  0  0  0  0  0
   37.9280   32.4270   44.9540 C   0  0  0  0  0  3  0  0  0  0  0  0
   38.6390   31.7080   45.8910 C   0  0  0  0  0  0  0  0  0  0  0  0
   39.6520   30.9020   45.4670 C   0  0  0  0  0  0  0  0  0  0  0  0
   40.2200   30.3340   46.1610 H   0  0  0  0  0  0  0  0  0  0  0  0
   40.0140   30.7590   44.1380 C   0  0  0  0  0  0  0  0  0  0  0  0
   40.9750   30.0210   43.5210 N   0  0  0  0  0  0  0  0  0  0  0  0
   40.8640   30.2790   42.2030 C   0  0  0  0  0  0  0  0  0  0  0  0
   41.5460   29.7840   41.5260 H   0  0  0  0  0  0  0  0  0  0  0  0
   39.8550   31.1600   41.9960 N   0  0  0  0  0  0  0  0  0  0  0  0
   39.3020   31.4810   43.1800 C   0  0  0  0  0  0  0  0  0  0  0  0
   38.2650   32.3080   43.6040 C   0  0  0  0  0  3  0  0  0  0  0  0
   41.6550   29.3820   44.0290 H   0  0  0  0  0  0  0  0  0  0  0  0
   35.7690   30.2310   49.4770 C   0  0  0  0  0  0  0  0  0  0  0  0
   35.9260   29.8100   50.7970 F   0  0  0  0  0  0  0  0  0  0  0  0
   34.5280   30.8480   49.4290 F   0  0  0  0  0  0  0  0  0  0  0  0
   35.6730   29.1000   48.7090 F   0  0  0  0  0  0  0  0  0  0  0  0
  1  6  1  0  0  0  0
  1  7  1  0  0  0  0
  2  1  2  0  0  0  0
  3  4  2  0  0  0  0
  3  2  1  0  0  0  0
  4  5  1  0  0  0  0
  5 21  1  0  0  0  0
  5  6  2  0  0  0  0
  8  2  1  0  0  0  0
  9 10  1  0  0  0  0
 10  3  1  0  0  0  0
 11 10  2  0  0  0  0
 11 12  1  0  0  0  0
 13 11  1  0  0  0  0
 14 20  1  0  0  0  0
 14 13  1  0  0  0  0
 15 14  1  0  0  0  0
 16 15  1  0  0  0  0
 17 15  2  0  0  0  0
 17 18  1  0  0  0  0
 18 19  1  0  0  0  0
 18 13  2  0  0  0  0
 19  9  2  0  0  0  0
 21 22  1  0  0  0  0
 23 21  1  0  0  0  0
 24 21  1  0  0  0  0
M  END
>  <minimizedAffinity>
-6.15433359

>  <minimizedRMSD>
2.16769934

$$$$
