
 OpenBabel03272504503D

 45 49  0  0  1  0  0  0  0  0999 V2000
   36.9240   30.8420   48.7170 N   0  0  0  0  0  0  0  0  0  0  0  0
   37.5400   30.6040   50.0060 C   0  0  0  0  0  0  0  0  0  0  0  0
   38.6920   31.5100   50.3020 C   0  0  0  0  0  0  0  0  0  0  0  0
   38.4490   32.8890   49.7170 C   0  0  0  0  0  0  0  0  0  0  0  0
   38.4330   32.7300   48.2280 C   0  0  0  0  0  0  0  0  0  0  0  0
   37.3690   31.7910   47.7520 C   0  0  1  0  0  0  0  0  0  0  0  0
   36.7500   30.7390   50.7920 H   0  0  0  0  0  0  0  0  0  0  0  0
   37.9170   29.5590   50.0130 H   0  0  0  0  0  0  0  0  0  0  0  0
   39.6820   31.0980   50.0640 H   0  0  0  0  0  0  0  0  0  0  0  0
   38.7090   31.6640   51.4170 H   0  0  0  0  0  0  0  0  0  0  0  0
   37.4530   33.2130   50.0720 H   0  0  0  0  0  0  0  0  0  0  0  0
   39.2560   33.5300   50.0640 H   0  0  0  0  0  0  0  0  0  0  0  0
   39.4220   32.3550   47.8700 H   0  0  0  0  0  0  0  0  0  0  0  0
   38.3180   33.7270   47.7420 H   0  0  0  0  0  0  0  0  0  0  0  0
   36.5040   32.4210   47.4550 H   0  0  0  0  0  0  0  0  0  0  0  0
   39.2530   31.1700   46.4980 C   0  0  0  0  0  0  0  0  0  0  0  0
   37.8710   31.1470   46.4990 C   0  0  0  0  0  0  0  0  0  0  0  0
   37.2020   30.5870   45.4330 C   0  0  0  0  0  0  0  0  0  0  0  0
   36.1300   30.6430   45.5770 H   0  0  0  0  0  0  0  0  0  0  0  0
   37.9240   30.0590   44.3840 C   0  0  0  0  0  0  0  0  0  0  0  0
   37.4330   29.4850   43.2850 N   0  0  0  0  0  0  0  0  0  0  0  0
   38.4910   29.1200   42.5410 C   0  0  0  0  0  0  0  0  0  0  0  0
   38.4260   28.6240   41.5790 H   0  0  0  0  0  0  0  0  0  0  0  0
   39.6050   29.4800   43.2050 N   0  0  0  0  0  0  0  0  0  0  0  0
   39.3020   30.0810   44.3790 C   0  0  0  0  0  0  0  0  0  0  0  0
   39.9920   30.6360   45.4370 C   0  0  0  0  0  0  0  0  0  0  0  0
   36.4220   29.3310   43.0200 H   0  0  0  0  0  0  0  0  0  0  0  0
   35.6320   28.7780   48.9540 C   0  0  0  0  0  0  0  0  0  0  0  0
   35.7810   30.0500   48.4120 C   0  0  0  0  0  0  0  0  0  0  0  0
   34.7760   30.5040   47.5720 C   0  0  0  0  0  0  0  0  0  0  0  0
   33.7070   29.6950   47.3210 N   0  0  0  0  0  0  0  0  0  0  0  0
   33.5920   28.4760   47.8570 C   0  0  0  0  0  0  0  0  0  0  0  0
   34.5630   28.0240   48.6760 N   0  0  0  0  0  0  0  0  0  0  0  0
   36.3760   28.3580   49.6180 H   0  0  0  0  0  0  0  0  0  0  0  0
   34.8120   31.4790   47.1150 H   0  0  0  0  0  0  0  0  0  0  0  0
   32.4490   27.6380   47.5750 C   0  0  0  0  0  0  0  0  0  0  0  0
   32.5450   26.2810   47.5730 C   0  0  0  0  0  0  0  0  0  0  0  0
   31.4990   25.4320   47.3140 C   0  0  0  0  0  0  0  0  0  0  0  0
   30.3050   26.0740   47.0460 C   0  0  0  0  0  0  0  0  0  0  0  0
   30.1290   27.4800   47.0310 C   0  0  0  0  0  0  0  0  0  0  0  0
   31.2500   28.2170   47.3060 N   0  0  0  0  0  0  0  0  0  0  0  0
   33.5220   25.8610   47.7940 H   0  0  0  0  0  0  0  0  0  0  0  0
   31.5490   24.3710   47.3060 H   0  0  0  0  0  0  0  0  0  0  0  0
   29.4010   25.5080   46.8260 H   0  0  0  0  0  0  0  0  0  0  0  0
   29.1820   27.9100   46.8170 H   0  0  0  0  0  0  0  0  0  0  0  0
  1  2  1  0  0  0  0
  2  8  1  0  0  0  0
  2  3  1  0  0  0  0
  2  7  1  0  0  0  0
  3 10  1  0  0  0  0
  4 12  1  0  0  0  0
  4 11  1  0  0  0  0
  4  3  1  0  0  0  0
  5  4  1  0  0  0  0
  6 15  1  6  0  0  0
  6  5  1  0  0  0  0
  6  1  1  0  0  0  0
  9  3  1  0  0  0  0
 13  5  1  0  0  0  0
 14  5  1  0  0  0  0
 16 17  1  0  0  0  0
 17  6  1  0  0  0  0
 18 19  1  0  0  0  0
 18 17  2  0  0  0  0
 20 18  1  0  0  0  0
 21 20  1  0  0  0  0
 22 24  2  0  0  0  0
 22 21  1  0  0  0  0
 23 22  1  0  0  0  0
 24 25  1  0  0  0  0
 25 20  2  0  0  0  0
 25 26  1  0  0  0  0
 26 16  2  0  0  0  0
 27 21  1  0  0  0  0
 28 34  1  0  0  0  0
 29  1  1  0  0  0  0
 29 28  2  0  0  0  0
 30 29  1  0  0  0  0
 31 30  2  0  0  0  0
 31 32  1  0  0  0  0
 32 33  2  0  0  0  0
 33 28  1  0  0  0  0
 35 30  1  0  0  0  0
 36 32  1  0  0  0  0
 37 36  1  0  0  0  0
 37 42  1  0  0  0  0
 38 37  2  0  0  0  0
 39 38  1  0  0  0  0
 40 39  2  0  0  0  0
 40 41  1  0  0  0  0
 41 36  2  0  0  0  0
 43 38  1  0  0  0  0
 44 39  1  0  0  0  0
 45 40  1  0  0  0  0
M  END
>  <minimizedAffinity>
-6.32326555

>  <minimizedRMSD>
1.31388009

$$$$
