REMARK  Name = 
REMARK  2 active torsions:
REMARK  status: ('A' for Active; 'I' for Inactive)
REMARK    1  A    between atoms: C_3  and  C_14
REMARK    2  A    between atoms: C_5  and  C_7
REMARK                            x       y       z     vdW  Elec       q    Type
REMARK                         _______ _______ _______ _____ _____    ______ ____
ROOT
ATOM      1  C   UNL     1      38.305  31.239  50.116  0.00  0.00    +0.000 A 
ATOM      2  C   UNL     1      38.290  31.611  48.770  0.00  0.00    +0.000 A 
ATOM      3  C   UNL     1      37.202  31.223  48.003  0.00  0.00    +0.000 A 
ATOM      4  N   UNL     1      36.216  30.508  48.593  0.00  0.00    +0.000 NA
ATOM      5  C   UNL     1      36.263  30.163  49.902  0.00  0.00    +0.000 A 
ATOM      6  N   UNL     1      37.312  30.534  50.654  0.00  0.00    +0.000 NA
ATOM      7  H   UNL     1      39.175  31.564  50.677  0.00  0.00    +0.000 HD
ATOM      8  H   UNL     1      39.078  32.172  48.334  0.00  0.00    +0.000 HD
ENDROOT
BRANCH   3  10
ATOM      9  C   UNL     1      36.435  32.730  46.271  0.00  0.00    +0.000 A 
ATOM     10  C   UNL     1      37.070  31.549  46.592  0.00  0.00    +0.000 A 
ATOM     11  C   UNL     1      37.534  30.761  45.583  0.00  0.00    +0.000 A 
ATOM     12  H   UNL     1      38.028  29.845  45.794  0.00  0.00    +0.000 HD
ATOM     13  C   UNL     1      37.406  31.076  44.241  0.00  0.00    +0.000 A 
ATOM     14  N   UNL     1      37.793  30.438  43.105  0.00  0.00    +0.000 N 
ATOM     15  C   UNL     1      37.400  31.218  42.078  0.00  0.00    +0.000 A 
ATOM     16  H   UNL     1      37.615  30.885  41.072  0.00  0.00    +0.000 HD
ATOM     17  N   UNL     1      36.780  32.323  42.559  0.00  0.00    +0.000 NA
ATOM     18  C   UNL     1      36.765  32.269  43.903  0.00  0.00    +0.000 A 
ATOM     19  C   UNL     1      36.287  33.082  44.928  0.00  0.00    +0.000 A 
ATOM     20  H   UNL     1      38.303  29.506  43.088  0.00  0.00    +0.000 HD
ENDBRANCH   3  10
BRANCH   5  21
ATOM     21  C   UNL     1      35.124  29.379  50.437  0.00  0.00    +0.000 C 
ATOM     22  F   UNL     1      35.261  29.130  51.801  0.00  0.00    +0.000 F 
ATOM     23  F   UNL     1      33.924  30.062  50.302  0.00  0.00    +0.000 F 
ATOM     24  F   UNL     1      34.952  28.164  49.827  0.00  0.00    +0.000 F 
ENDBRANCH   5  21
TORSDOF 2
