
 OpenBabel03262520083D

 21 23  0  0  0  0  0  0  0  0999 V2000
   38.0790   26.7460   35.7850 C   0  0  0  0  0  3  0  0  0  0  0  0
   38.2590   25.4660   35.2760 C   0  0  0  0  0  0  0  0  0  0  0  0
   37.7950   25.1290   34.0200 C   0  0  0  0  0  0  0  0  0  0  0  0
   37.9180   24.1420   33.5920 H   0  0  0  0  0  0  0  0  0  0  0  0
   37.1380   26.0670   33.2420 C   0  0  0  0  0  0  0  0  0  0  0  0
   36.5910   26.0190   32.0090 N   0  0  0  0  0  0  0  0  0  0  0  0
   36.0960   27.2730   31.8100 C   0  0  0  0  0  0  0  0  0  0  0  0
   35.5760   27.6070   30.9070 H   0  0  0  0  0  0  0  0  0  0  0  0
   36.3300   28.0550   32.8760 N   0  0  0  0  0  0  0  0  0  0  0  0
   36.9820   27.3250   33.7900 C   0  0  0  0  0  0  0  0  0  0  0  0
   37.4250   27.7060   35.0310 C   0  0  0  0  0  3  0  0  0  0  0  0
   36.5500   25.2110   31.3500 H   0  0  0  0  0  0  0  0  0  0  0  0
   40.7330   22.9860   36.3990 C   0  0  0  0  0  0  0  0  0  0  0  0
   40.2140   22.5800   37.6570 C   0  0  0  0  0  0  0  0  0  0  0  0
   39.0070   23.1850   38.0810 C   0  0  0  0  0  0  0  0  0  0  0  0
   38.4280   24.1060   37.2700 N   0  0  0  0  0  0  0  0  0  0  0  0
   38.9500   24.4660   36.0840 C   0  0  0  0  0  0  0  0  0  0  0  0
   40.0910   23.9100   35.6550 N   0  0  0  0  0  0  0  0  0  0  0  0
   41.6550   22.4820   36.1440 H   0  0  0  0  0  0  0  0  0  0  0  0
   40.6980   21.8510   38.2710 H   0  0  0  0  0  0  0  0  0  0  0  0
   38.6460   22.8560   39.0300 H   0  0  0  0  0  0  0  0  0  0  0  0
  2  1  1  0  0  0  0
  2 17  1  0  0  0  0
  3  2  2  0  0  0  0
  4  3  1  0  0  0  0
  5 10  2  0  0  0  0
  5  3  1  0  0  0  0
  6  5  1  0  0  0  0
  7  6  1  0  0  0  0
  7  9  2  0  0  0  0
  8  7  1  0  0  0  0
  9 10  1  0  0  0  0
 10 11  1  0  0  0  0
 11  1  2  0  0  0  0
 12  6  1  0  0  0  0
 13 14  1  0  0  0  0
 14 15  2  0  0  0  0
 14 20  1  0  0  0  0
 15 21  1  0  0  0  0
 16 15  1  0  0  0  0
 17 16  2  0  0  0  0
 18 17  1  0  0  0  0
 18 13  2  0  0  0  0
 19 13  1  0  0  0  0
M  END
>  <minimizedAffinity>
-4.60352087

$$$$

 OpenBabel03262520083D

 21 23  0  0  0  0  0  0  0  0999 V2000
   37.9790   26.8020   35.7490 C   0  0  0  0  0  3  0  0  0  0  0  0
   38.1850   25.5200   35.2530 C   0  0  0  0  0  0  0  0  0  0  0  0
   37.7630   25.1730   33.9850 C   0  0  0  0  0  0  0  0  0  0  0  0
   37.9070   24.1850   33.5660 H   0  0  0  0  0  0  0  0  0  0  0  0
   37.1260   26.1020   33.1810 C   0  0  0  0  0  0  0  0  0  0  0  0
   36.6190   26.0440   31.9310 N   0  0  0  0  0  0  0  0  0  0  0  0
   36.1210   27.2930   31.7090 C   0  0  0  0  0  0  0  0  0  0  0  0
   35.6280   27.6180   30.7880 H   0  0  0  0  0  0  0  0  0  0  0  0
   36.3150   28.0820   32.7780 N   0  0  0  0  0  0  0  0  0  0  0  0
   36.9420   27.3620   33.7160 C   0  0  0  0  0  0  0  0  0  0  0  0
   37.3430   27.7530   34.9680 C   0  0  0  0  0  3  0  0  0  0  0  0
   36.6050   25.2320   31.2760 H   0  0  0  0  0  0  0  0  0  0  0  0
   38.9700   23.2710   38.0550 C   0  0  0  0  0  0  0  0  0  0  0  0
   40.1710   22.6480   37.6240 C   0  0  0  0  0  0  0  0  0  0  0  0
   40.6790   23.0330   36.3610 C   0  0  0  0  0  0  0  0  0  0  0  0
   39.9930   23.9610   35.6470 N   0  0  0  0  0  0  0  0  0  0  0  0
   38.8570   24.5300   36.0880 C   0  0  0  0  0  0  0  0  0  0  0  0
   38.3520   24.1860   37.2800 N   0  0  0  0  0  0  0  0  0  0  0  0
   38.6450   22.9270   39.0280 H   0  0  0  0  0  0  0  0  0  0  0  0
   40.6850   21.9190   38.2140 H   0  0  0  0  0  0  0  0  0  0  0  0
   41.5820   22.5460   36.0690 H   0  0  0  0  0  0  0  0  0  0  0  0
  2  1  1  0  0  0  0
  2 17  1  0  0  0  0
  3  2  2  0  0  0  0
  4  3  1  0  0  0  0
  5 10  2  0  0  0  0
  5  3  1  0  0  0  0
  6  5  1  0  0  0  0
  7  6  1  0  0  0  0
  7  9  2  0  0  0  0
  8  7  1  0  0  0  0
  9 10  1  0  0  0  0
 10 11  1  0  0  0  0
 11  1  2  0  0  0  0
 12  6  1  0  0  0  0
 13 19  1  0  0  0  0
 14 13  1  0  0  0  0
 14 20  1  0  0  0  0
 15 14  2  0  0  0  0
 16 17  2  0  0  0  0
 16 15  1  0  0  0  0
 17 18  1  0  0  0  0
 18 13  2  0  0  0  0
 21 15  1  0  0  0  0
M  END
>  <minimizedAffinity>
-4.58313751

$$$$

 OpenBabel03262520083D

 21 23  0  0  0  0  0  0  0  0999 V2000
   36.2030   28.6320   34.3780 C   0  0  0  0  0  3  0  0  0  0  0  0
   35.4750   29.7720   34.0560 C   0  0  0  0  0  0  0  0  0  0  0  0
   35.3550   30.1920   32.7460 C   0  0  0  0  0  0  0  0  0  0  0  0
   34.7970   31.0740   32.4590 H   0  0  0  0  0  0  0  0  0  0  0  0
   35.9610   29.4800   31.7260 C   0  0  0  0  0  0  0  0  0  0  0  0
   36.0120   29.6520   30.3880 N   0  0  0  0  0  0  0  0  0  0  0  0
   36.7700   28.6120   29.9410 C   0  0  0  0  0  0  0  0  0  0  0  0
   37.0260   28.4260   28.8930 H   0  0  0  0  0  0  0  0  0  0  0  0
   37.1660   27.8350   30.9620 N   0  0  0  0  0  0  0  0  0  0  0  0
   36.6750   28.3560   32.0930 C   0  0  0  0  0  0  0  0  0  0  0  0
   36.8210   27.9000   33.3780 C   0  0  0  0  0  3  0  0  0  0  0  0
   35.5750   30.4080   29.8160 H   0  0  0  0  0  0  0  0  0  0  0  0
   34.9400   32.0930   36.8590 C   0  0  0  0  0  0  0  0  0  0  0  0
   33.5530   31.9450   37.1220 C   0  0  0  0  0  0  0  0  0  0  0  0
   32.8370   31.0330   36.3110 C   0  0  0  0  0  0  0  0  0  0  0  0
   33.5120   30.3650   35.3420 N   0  0  0  0  0  0  0  0  0  0  0  0
   34.8290   30.5320   35.1210 C   0  0  0  0  0  0  0  0  0  0  0  0
   35.5330   31.3880   35.8730 N   0  0  0  0  0  0  0  0  0  0  0  0
   35.4180   32.8060   37.5170 H   0  0  0  0  0  0  0  0  0  0  0  0
   33.0530   32.4890   37.8950 H   0  0  0  0  0  0  0  0  0  0  0  0
   31.7980   30.9470   36.5370 H   0  0  0  0  0  0  0  0  0  0  0  0
  2  1  1  0  0  0  0
  2 17  1  0  0  0  0
  3  2  2  0  0  0  0
  4  3  1  0  0  0  0
  5 10  2  0  0  0  0
  5  3  1  0  0  0  0
  6  5  1  0  0  0  0
  7  6  1  0  0  0  0
  7  9  2  0  0  0  0
  8  7  1  0  0  0  0
  9 10  1  0  0  0  0
 10 11  1  0  0  0  0
 11  1  2  0  0  0  0
 12  6  1  0  0  0  0
 13 14  1  0  0  0  0
 13 19  1  0  0  0  0
 14 20  1  0  0  0  0
 15 21  1  0  0  0  0
 15 14  2  0  0  0  0
 16 15  1  0  0  0  0
 17 16  2  0  0  0  0
 17 18  1  0  0  0  0
 18 13  2  0  0  0  0
M  END
>  <minimizedAffinity>
-4.42831898

$$$$

 OpenBabel03262520083D

 21 23  0  0  0  0  0  0  0  0999 V2000
   38.0770   24.7820   33.7080 C   0  0  0  0  0  3  0  0  0  0  0  0
   37.9440   25.2940   34.9940 C   0  0  0  0  0  0  0  0  0  0  0  0
   37.3640   26.5280   35.2100 C   0  0  0  0  0  0  0  0  0  0  0  0
   37.2440   26.9570   36.1970 H   0  0  0  0  0  0  0  0  0  0  0  0
   36.9020   27.2800   34.1440 C   0  0  0  0  0  0  0  0  0  0  0  0
   36.3060   28.4880   34.0600 N   0  0  0  0  0  0  0  0  0  0  0  0
   36.0980   28.6710   32.7260 C   0  0  0  0  0  0  0  0  0  0  0  0
   35.6300   29.5530   32.2780 H   0  0  0  0  0  0  0  0  0  0  0  0
   36.5460   27.6190   32.0230 N   0  0  0  0  0  0  0  0  0  0  0  0
   37.0560   26.7310   32.8860 C   0  0  0  0  0  0  0  0  0  0  0  0
   37.6250   25.5120   32.6210 C   0  0  0  0  0  3  0  0  0  0  0  0
   36.0590   29.1430   34.8340 H   0  0  0  0  0  0  0  0  0  0  0  0
   39.8770   22.9130   37.0240 C   0  0  0  0  0  0  0  0  0  0  0  0
   39.2970   23.0630   38.3120 C   0  0  0  0  0  0  0  0  0  0  0  0
   38.2400   23.9950   38.4370 C   0  0  0  0  0  0  0  0  0  0  0  0
   37.8510   24.6810   37.3330 N   0  0  0  0  0  0  0  0  0  0  0  0
   38.4260   24.5120   36.1280 C   0  0  0  0  0  0  0  0  0  0  0  0
   39.4290   23.6370   35.9780 N   0  0  0  0  0  0  0  0  0  0  0  0
   40.6770   22.1850   37.0070 H   0  0  0  0  0  0  0  0  0  0  0  0
   39.6290   22.5040   39.1610 H   0  0  0  0  0  0  0  0  0  0  0  0
   37.8270   24.0810   39.4170 H   0  0  0  0  0  0  0  0  0  0  0  0
  1  2  1  0  0  0  0
  2  3  2  0  0  0  0
  2 17  1  0  0  0  0
  3  4  1  0  0  0  0
  5  3  1  0  0  0  0
  6  5  1  0  0  0  0
  6 12  1  0  0  0  0
  7  6  1  0  0  0  0
  8  7  1  0  0  0  0
  9  7  2  0  0  0  0
  9 10  1  0  0  0  0
 10  5  2  0  0  0  0
 11 10  1  0  0  0  0
 11  1  2  0  0  0  0
 13 14  1  0  0  0  0
 14 15  2  0  0  0  0
 14 20  1  0  0  0  0
 15 21  1  0  0  0  0
 16 15  1  0  0  0  0
 17 16  2  0  0  0  0
 18 17  1  0  0  0  0
 18 13  2  0  0  0  0
 19 13  1  0  0  0  0
M  END
>  <minimizedAffinity>
-4.38429117

$$$$

 OpenBabel03262520083D

 21 23  0  0  0  0  0  0  0  0999 V2000
   37.4900   23.5220   32.8290 C   0  0  0  0  0  3  0  0  0  0  0  0
   36.4850   23.0210   32.0090 C   0  0  0  0  0  0  0  0  0  0  0  0
   35.7800   23.8520   31.1620 C   0  0  0  0  0  0  0  0  0  0  0  0
   34.9920   23.4970   30.5100 H   0  0  0  0  0  0  0  0  0  0  0  0
   36.0650   25.2060   31.1130 C   0  0  0  0  0  0  0  0  0  0  0  0
   35.5520   26.2290   30.3980 N   0  0  0  0  0  0  0  0  0  0  0  0
   36.2610   27.3180   30.8080 C   0  0  0  0  0  0  0  0  0  0  0  0
   36.1170   28.3380   30.4380 H   0  0  0  0  0  0  0  0  0  0  0  0
   37.1710   26.9760   31.7340 N   0  0  0  0  0  0  0  0  0  0  0  0
   37.0710   25.6580   31.9460 C   0  0  0  0  0  0  0  0  0  0  0  0
   37.7970   24.8720   32.8040 C   0  0  0  0  0  3  0  0  0  0  0  0
   34.7850   26.2040   29.6910 H   0  0  0  0  0  0  0  0  0  0  0  0
   36.0380   19.5150   30.9910 C   0  0  0  0  0  0  0  0  0  0  0  0
   35.5700   18.9040   32.1850 C   0  0  0  0  0  0  0  0  0  0  0  0
   35.4210   19.7370   33.3190 C   0  0  0  0  0  0  0  0  0  0  0  0
   35.7320   21.0520   33.1980 N   0  0  0  0  0  0  0  0  0  0  0  0
   36.1740   21.5960   32.0490 C   0  0  0  0  0  0  0  0  0  0  0  0
   36.3250   20.8330   30.9590 N   0  0  0  0  0  0  0  0  0  0  0  0
   36.1260   18.8170   30.1700 H   0  0  0  0  0  0  0  0  0  0  0  0
   35.3350   17.8630   32.2430 H   0  0  0  0  0  0  0  0  0  0  0  0
   35.0670   19.2450   34.1970 H   0  0  0  0  0  0  0  0  0  0  0  0
  2 17  1  0  0  0  0
  2  1  2  0  0  0  0
  3  2  1  0  0  0  0
  4  3  1  0  0  0  0
  5  3  2  0  0  0  0
  5 10  1  0  0  0  0
  6  7  1  0  0  0  0
  6  5  1  0  0  0  0
  7  9  2  0  0  0  0
  8  7  1  0  0  0  0
  9 10  1  0  0  0  0
 10 11  2  0  0  0  0
 11  1  1  0  0  0  0
 12  6  1  0  0  0  0
 13 14  1  0  0  0  0
 14 20  1  0  0  0  0
 14 15  2  0  0  0  0
 15 21  1  0  0  0  0
 16 15  1  0  0  0  0
 17 16  2  0  0  0  0
 18 13  2  0  0  0  0
 18 17  1  0  0  0  0
 19 13  1  0  0  0  0
M  END
>  <minimizedAffinity>
-4.38170767

$$$$

 OpenBabel03262520083D

 21 23  0  0  0  0  0  0  0  0999 V2000
   37.9510   22.9840   33.6590 C   0  0  0  0  0  3  0  0  0  0  0  0
   37.5870   22.2670   34.7930 C   0  0  0  0  0  0  0  0  0  0  0  0
   36.6760   21.2320   34.7170 C   0  0  0  0  0  0  0  0  0  0  0  0
   36.3700   20.6530   35.5780 H   0  0  0  0  0  0  0  0  0  0  0  0
   36.1080   20.8890   33.5020 C   0  0  0  0  0  0  0  0  0  0  0  0
   35.2140   19.9460   33.1380 N   0  0  0  0  0  0  0  0  0  0  0  0
   35.0640   20.1210   31.7950 C   0  0  0  0  0  0  0  0  0  0  0  0
   34.4060   19.5270   31.1530 H   0  0  0  0  0  0  0  0  0  0  0  0
   35.8340   21.1290   31.3550 N   0  0  0  0  0  0  0  0  0  0  0  0
   36.5000   21.6290   32.4030 C   0  0  0  0  0  0  0  0  0  0  0  0
   37.3990   22.6650   32.4300 C   0  0  0  0  0  3  0  0  0  0  0  0
   34.7380   19.2390   33.7400 H   0  0  0  0  0  0  0  0  0  0  0  0
   40.0120   22.6670   37.5290 C   0  0  0  0  0  0  0  0  0  0  0  0
   39.2400   23.3050   38.5350 C   0  0  0  0  0  0  0  0  0  0  0  0
   37.8860   23.5790   38.2310 C   0  0  0  0  0  0  0  0  0  0  0  0
   37.4140   23.2210   37.0100 N   0  0  0  0  0  0  0  0  0  0  0  0
   38.1770   22.6170   36.0810 C   0  0  0  0  0  0  0  0  0  0  0  0
   39.4630   22.3450   36.3400 N   0  0  0  0  0  0  0  0  0  0  0  0
   41.0350   22.4900   37.8340 H   0  0  0  0  0  0  0  0  0  0  0  0
   39.6460   23.5730   39.4880 H   0  0  0  0  0  0  0  0  0  0  0  0
   37.3360   24.0590   39.0100 H   0  0  0  0  0  0  0  0  0  0  0  0
  1  2  1  0  0  0  0
  2 17  1  0  0  0  0
  3  2  2  0  0  0  0
  3  4  1  0  0  0  0
  5  3  1  0  0  0  0
  6  5  1  0  0  0  0
  6 12  1  0  0  0  0
  7  6  1  0  0  0  0
  8  7  1  0  0  0  0
  9  7  2  0  0  0  0
  9 10  1  0  0  0  0
 10 11  1  0  0  0  0
 10  5  2  0  0  0  0
 11  1  2  0  0  0  0
 13 19  1  0  0  0  0
 13 14  1  0  0  0  0
 14 20  1  0  0  0  0
 15 14  2  0  0  0  0
 15 21  1  0  0  0  0
 16 15  1  0  0  0  0
 17 18  1  0  0  0  0
 17 16  2  0  0  0  0
 18 13  2  0  0  0  0
M  END
>  <minimizedAffinity>
-4.371099

$$$$

 OpenBabel03262520083D

 21 23  0  0  0  0  0  0  0  0999 V2000
   39.1340   24.7630   34.2600 C   0  0  0  0  0  3  0  0  0  0  0  0
   38.2010   25.6870   34.7160 C   0  0  0  0  0  0  0  0  0  0  0  0
   37.7400   25.6470   36.0170 C   0  0  0  0  0  0  0  0  0  0  0  0
   37.0140   26.3490   36.4060 H   0  0  0  0  0  0  0  0  0  0  0  0
   38.2030   24.6810   36.8940 C   0  0  0  0  0  0  0  0  0  0  0  0
   37.9360   24.4090   38.1880 N   0  0  0  0  0  0  0  0  0  0  0  0
   38.7160   23.3290   38.4760 C   0  0  0  0  0  0  0  0  0  0  0  0
   38.7610   22.8270   39.4470 H   0  0  0  0  0  0  0  0  0  0  0  0
   39.4310   22.9560   37.4030 N   0  0  0  0  0  0  0  0  0  0  0  0
   39.1290   23.7850   36.3950 C   0  0  0  0  0  0  0  0  0  0  0  0
   39.6160   23.7850   35.1130 C   0  0  0  0  0  3  0  0  0  0  0  0
   37.2820   24.9060   38.8320 H   0  0  0  0  0  0  0  0  0  0  0  0
   37.7660   27.7910   31.7310 C   0  0  0  0  0  0  0  0  0  0  0  0
   36.7200   28.6670   32.1210 C   0  0  0  0  0  0  0  0  0  0  0  0
   36.1910   28.5010   33.4220 C   0  0  0  0  0  0  0  0  0  0  0  0
   36.7100   27.5240   34.2080 N   0  0  0  0  0  0  0  0  0  0  0  0
   37.7030   26.7110   33.8040 C   0  0  0  0  0  0  0  0  0  0  0  0
   38.2240   26.8450   32.5770 N   0  0  0  0  0  0  0  0  0  0  0  0
   38.1180   27.9780   30.7250 H   0  0  0  0  0  0  0  0  0  0  0  0
   36.3350   29.4270   31.4730 H   0  0  0  0  0  0  0  0  0  0  0  0
   35.4070   29.1760   33.6820 H   0  0  0  0  0  0  0  0  0  0  0  0
  1  2  2  0  0  0  0
  1 11  1  0  0  0  0
  2  3  1  0  0  0  0
  3  4  1  0  0  0  0
  3  5  2  0  0  0  0
  5  6  1  0  0  0  0
  6  7  1  0  0  0  0
  6 12  1  0  0  0  0
  7  8  1  0  0  0  0
  9  7  2  0  0  0  0
 10  5  1  0  0  0  0
 10  9  1  0  0  0  0
 11 10  2  0  0  0  0
 13 14  2  0  0  0  0
 13 18  1  0  0  0  0
 14 15  1  0  0  0  0
 15 21  1  0  0  0  0
 15 16  2  0  0  0  0
 17 16  1  0  0  0  0
 17  2  1  0  0  0  0
 18 17  2  0  0  0  0
 19 13  1  0  0  0  0
 20 14  1  0  0  0  0
M  END
>  <minimizedAffinity>
-4.32301426

$$$$

 OpenBabel03262520083D

 21 23  0  0  0  0  0  0  0  0999 V2000
   37.8860   27.5230   35.1120 C   0  0  0  0  0  3  0  0  0  0  0  0
   37.5390   26.9720   33.8840 C   0  0  0  0  0  0  0  0  0  0  0  0
   37.5930   25.6090   33.6770 C   0  0  0  0  0  0  0  0  0  0  0  0
   37.3310   25.1450   32.7340 H   0  0  0  0  0  0  0  0  0  0  0  0
   37.9940   24.7620   34.6960 C   0  0  0  0  0  0  0  0  0  0  0  0
   38.1380   23.4220   34.7760 N   0  0  0  0  0  0  0  0  0  0  0  0
   38.5680   23.2030   36.0510 C   0  0  0  0  0  0  0  0  0  0  0  0
   38.7920   22.2210   36.4780 H   0  0  0  0  0  0  0  0  0  0  0  0
   38.6810   24.3600   36.7230 N   0  0  0  0  0  0  0  0  0  0  0  0
   38.3300   25.3540   35.8980 C   0  0  0  0  0  0  0  0  0  0  0  0
   38.2920   26.7020   36.1510 C   0  0  0  0  0  3  0  0  0  0  0  0
   37.9640   22.7070   34.0360 H   0  0  0  0  0  0  0  0  0  0  0  0
   35.6160   29.4200   31.9250 C   0  0  0  0  0  0  0  0  0  0  0  0
   36.3580   29.5000   30.7170 C   0  0  0  0  0  0  0  0  0  0  0  0
   37.5150   28.6920   30.6170 C   0  0  0  0  0  0  0  0  0  0  0  0
   37.8420   27.9010   31.6700 N   0  0  0  0  0  0  0  0  0  0  0  0
   37.1130   27.8520   32.8010 C   0  0  0  0  0  0  0  0  0  0  0  0
   36.0130   28.6060   32.9240 N   0  0  0  0  0  0  0  0  0  0  0  0
   34.7480   30.0650   31.9270 H   0  0  0  0  0  0  0  0  0  0  0  0
   36.0700   30.1350   29.9060 H   0  0  0  0  0  0  0  0  0  0  0  0
   38.0470   28.7760   29.6960 H   0  0  0  0  0  0  0  0  0  0  0  0
  1 11  1  0  0  0  0
  2  1  2  0  0  0  0
  3  2  1  0  0  0  0
  3  5  2  0  0  0  0
  4  3  1  0  0  0  0
  5  6  1  0  0  0  0
  5 10  1  0  0  0  0
  6  7  1  0  0  0  0
  7  8  1  0  0  0  0
  7  9  2  0  0  0  0
 10 11  2  0  0  0  0
 10  9  1  0  0  0  0
 12  6  1  0  0  0  0
 13 19  1  0  0  0  0
 13 18  1  0  0  0  0
 14 13  2  0  0  0  0
 15 14  1  0  0  0  0
 15 16  2  0  0  0  0
 16 17  1  0  0  0  0
 17 18  2  0  0  0  0
 17  2  1  0  0  0  0
 20 14  1  0  0  0  0
 21 15  1  0  0  0  0
M  END
>  <minimizedAffinity>
-4.25708866

$$$$

 OpenBabel03262520083D

 21 23  0  0  0  0  0  0  0  0999 V2000
   37.7650   27.5090   35.1870 C   0  0  0  0  0  3  0  0  0  0  0  0
   37.4880   26.9640   33.9390 C   0  0  0  0  0  0  0  0  0  0  0  0
   37.5900   25.6050   33.7190 C   0  0  0  0  0  0  0  0  0  0  0  0
   37.3830   25.1470   32.7600 H   0  0  0  0  0  0  0  0  0  0  0  0
   37.9710   24.7580   34.7450 C   0  0  0  0  0  0  0  0  0  0  0  0
   38.1490   23.4220   34.8160 N   0  0  0  0  0  0  0  0  0  0  0  0
   38.5280   23.1990   36.1060 C   0  0  0  0  0  0  0  0  0  0  0  0
   38.7620   22.2180   36.5320 H   0  0  0  0  0  0  0  0  0  0  0  0
   38.5800   24.3500   36.7950 N   0  0  0  0  0  0  0  0  0  0  0  0
   38.2360   25.3440   35.9670 C   0  0  0  0  0  0  0  0  0  0  0  0
   38.1490   26.6870   36.2330 C   0  0  0  0  0  3  0  0  0  0  0  0
   38.0280   22.7110   34.0610 H   0  0  0  0  0  0  0  0  0  0  0  0
   37.3860   28.6610   30.6770 C   0  0  0  0  0  0  0  0  0  0  0  0
   36.2750   29.5330   30.8170 C   0  0  0  0  0  0  0  0  0  0  0  0
   35.5870   29.5070   32.0530 C   0  0  0  0  0  0  0  0  0  0  0  0
   36.0270   28.6590   33.0170 N   0  0  0  0  0  0  0  0  0  0  0  0
   37.0850   27.8450   32.8470 C   0  0  0  0  0  0  0  0  0  0  0  0
   37.7560   27.8490   31.6880 N   0  0  0  0  0  0  0  0  0  0  0  0
   37.8590   28.7380   29.7070 H   0  0  0  0  0  0  0  0  0  0  0  0
   35.9560   30.1890   30.0350 H   0  0  0  0  0  0  0  0  0  0  0  0
   34.7580   30.1750   32.1240 H   0  0  0  0  0  0  0  0  0  0  0  0
  1 11  1  0  0  0  0
  2  1  2  0  0  0  0
  3  2  1  0  0  0  0
  3  5  2  0  0  0  0
  4  3  1  0  0  0  0
  5  6  1  0  0  0  0
  5 10  1  0  0  0  0
  6  7  1  0  0  0  0
  7  8  1  0  0  0  0
  7  9  2  0  0  0  0
 10 11  2  0  0  0  0
 10  9  1  0  0  0  0
 12  6  1  0  0  0  0
 13 14  2  0  0  0  0
 13 18  1  0  0  0  0
 14 15  1  0  0  0  0
 15 21  1  0  0  0  0
 15 16  2  0  0  0  0
 17 16  1  0  0  0  0
 17  2  1  0  0  0  0
 18 17  2  0  0  0  0
 19 13  1  0  0  0  0
 20 14  1  0  0  0  0
M  END
>  <minimizedAffinity>
-4.24525738

$$$$
