
     RDKit          3D

 26 28  0  0  0  0  0  0  0  0999 V2000
   38.3051   31.2387   50.1157 C   0  0  0  0  0  0  0  0  0  0  0  0
   38.2898   31.6108   48.7699 C   0  0  0  0  0  0  0  0  0  0  0  0
   37.2018   31.2228   48.0026 C   0  0  0  0  0  0  0  0  0  0  0  0
   36.2164   30.5079   48.5927 N   0  0  0  0  0  0  0  0  0  0  0  0
   36.2625   30.1632   49.9023 C   0  0  0  0  0  0  0  0  0  0  0  0
   37.3121   30.5344   50.6536 N   0  0  0  0  0  0  0  0  0  0  0  0
   35.1238   29.3786   50.4374 C   0  0  0  0  0  0  0  0  0  0  0  0
   35.2608   29.1296   51.8010 F   0  0  0  0  0  0  0  0  0  0  0  0
   33.9243   30.0622   50.3016 F   0  0  0  0  0  0  0  0  0  0  0  0
   34.9524   28.1637   49.8270 F   0  0  0  0  0  0  0  0  0  0  0  0
   39.1747   31.5635   50.6771 H   0  0  0  0  0  0  0  0  0  0  0  0
   39.0781   32.1724   48.3341 H   0  0  0  0  0  0  0  0  0  0  0  0
   36.4348   32.7300   46.2710 C   0  0  0  0  0  0  0  0  0  0  0  0
   37.0702   31.5486   46.5918 C   0  0  0  0  0  0  0  0  0  0  0  0
   37.5341   30.7612   45.5826 C   0  0  0  0  0  0  0  0  0  0  0  0
   38.0278   29.8454   45.7943 H   0  0  0  0  0  0  0  0  0  0  0  0
   37.4064   31.0758   44.2409 C   0  0  0  0  0  0  0  0  0  0  0  0
   37.7926   30.4381   43.1051 N   0  0  0  0  0  0  0  0  0  0  0  0
   37.3999   31.2181   42.0775 C   0  0  0  0  0  0  0  0  0  0  0  0
   37.6155   30.8846   41.0723 H   0  0  0  0  0  0  0  0  0  0  0  0
   36.7798   32.3229   42.5591 N   0  0  0  0  0  0  0  0  0  0  0  0
   36.7652   32.2688   43.9031 C   0  0  0  0  0  0  0  0  0  0  0  0
   36.2869   33.0816   44.9277 C   0  0  0  0  0  0  0  0  0  0  0  0
   36.0184   33.4494   46.9691 H   0  0  0  0  0  0  0  0  0  0  0  0
   38.3025   29.5064   43.0877 H   0  0  0  0  0  0  0  0  0  0  0  0
   35.8111   33.9745   44.5486 H   0  0  0  0  0  0  0  0  0  0  0  0
  1  6  2  0
  2  1  1  0
  3  4  1  0
  3  2  2  0
  4  5  2  0
  5  7  1  0
  5  6  1  0
  7  8  1  0
  9  7  1  0
 10  7  1  0
  1 11  1  0
  2 12  1  0
 13 14  2  0
 14 15  1  0
 15 16  1  0
 15 17  2  0
 17 18  1  0
 18 19  1  0
 19 20  1  0
 19 21  2  0
 21 22  1  0
 22 23  2  0
 23 13  1  0
 22 17  1  0
 13 24  1  0
 18 25  1  0
 23 26  1  0
  3 14  1  0
M  ISO  4  11  14  12  14  16  15  20  14
M  END
>  <DihAtoms>  (1) 
3,2,13,12

>  <DihDeg>  (1) 
0.0009976429068668244

$$$$
