
     RDKit          3D

 33 36  0  0  0  0  0  0  0  0999 V2000
   37.9352   30.4298   50.6621 C   0  0  0  0  0  0  0  0  0  0  0  0
   37.4692   31.2351   49.6107 C   0  0  0  0  0  0  0  0  0  0  0  0
   36.1308   31.0850   49.2351 C   0  0  0  0  0  0  0  0  0  0  0  0
   35.3690   30.1799   49.9013 N   0  0  0  0  0  0  0  0  0  0  0  0
   35.8473   29.4268   50.9015 C   0  0  0  0  0  0  0  0  0  0  0  0
   37.1362   29.5505   51.2856 N   0  0  0  0  0  0  0  0  0  0  0  0
   38.3946   30.5868   46.7862 Cl  0  0  0  0  0  0  0  0  0  0  0  0
   38.8270   32.0237   47.6656 C   0  0  0  0  0  0  0  0  0  0  0  0
   38.3370   32.1884   48.9353 C   0  0  0  0  0  0  0  0  0  0  0  0
   38.7176   33.3655   49.5986 C   0  0  0  0  0  0  0  0  0  0  0  0
   39.5434   34.2807   48.9663 C   0  0  0  0  0  0  0  0  0  0  0  0
   40.0121   34.0808   47.6982 C   0  0  0  0  0  0  0  0  0  0  0  0
   39.6397   32.9240   47.0427 C   0  0  0  0  0  0  0  0  0  0  0  0
   38.9647   30.5106   50.9881 H   0  0  0  0  0  0  0  0  0  0  0  0
   35.7594   31.7058   48.4198 H   0  0  0  0  0  0  0  0  0  0  0  0
   35.0902   28.7736   51.2992 H   0  0  0  0  0  0  0  0  0  0  0  0
   38.3285   33.4977   50.6087 H   0  0  0  0  0  0  0  0  0  0  0  0
   39.7818   35.1517   49.5507 H   0  0  0  0  0  0  0  0  0  0  0  0
   40.6503   34.8214   47.2515 H   0  0  0  0  0  0  0  0  0  0  0  0
   41.4686   32.9843   45.2955 C   0  0  0  0  0  0  0  0  0  0  0  0
   40.1651   32.7547   45.6907 C   0  0  0  0  0  0  0  0  0  0  0  0
   39.2807   32.3302   44.7349 C   0  0  0  0  0  0  0  0  0  0  0  0
   38.2429   32.1314   44.9772 H   0  0  0  0  0  0  0  0  0  0  0  0
   39.6089   32.1191   43.4108 C   0  0  0  0  0  0  0  0  0  0  0  0
   38.9349   31.7125   42.3041 N   0  0  0  0  0  0  0  0  0  0  0  0
   39.7976   31.6902   41.2486 C   0  0  0  0  0  0  0  0  0  0  0  0
   39.4612   31.3916   40.2608 H   0  0  0  0  0  0  0  0  0  0  0  0
   41.0038   32.0819   41.6995 N   0  0  0  0  0  0  0  0  0  0  0  0
   40.9322   32.3548   43.0214 C   0  0  0  0  0  0  0  0  0  0  0  0
   41.8283   32.7825   43.9789 C   0  0  0  0  0  0  0  0  0  0  0  0
   42.1539   33.3178   46.0572 H   0  0  0  0  0  0  0  0  0  0  0  0
   37.9074   31.4701   42.3358 H   0  0  0  0  0  0  0  0  0  0  0  0
   42.8443   32.9709   43.7143 H   0  0  0  0  0  0  0  0  0  0  0  0
  1  6  2  0
  2  1  1  0
  3  2  2  0
  3  4  1  0
  4  5  2  0
  5  6  1  0
  7  8  1  0
  8  9  2  0
  9 10  1  0
  9  2  1  0
 11 10  2  0
 12 11  1  0
 13  8  1  0
 13 12  2  0
  1 14  1  0
  3 15  1  0
  5 16  1  0
 10 17  1  0
 11 18  1  0
 12 19  1  0
 20 21  2  0
 21 22  1  0
 22 23  1  0
 22 24  2  0
 24 25  1  0
 25 26  1  0
 26 27  1  0
 26 28  2  0
 28 29  1  0
 29 30  2  0
 30 20  1  0
 29 24  1  0
 20 31  1  0
 25 32  1  0
 30 33  1  0
 13 21  1  0
M  ISO  8  14  14  15  14  16  14  17  14  18  14  19  14  23  15  27  14
M  END
>  <DihAtoms>  (1) 
7,12,20,19

>  <DihDeg>  (1) 
-45.000929851767594

$$$$
