
 OpenBabel03262521033D

 21 23  0  0  0  0  0  0  0  0999 V2000
   38.0350   26.6380   35.7640 C   0  0  0  0  0  3  0  0  0  0  0  0
   38.2250   25.3510   35.3160 C   0  0  0  0  0  0  0  0  0  0  0  0
   37.7690   25.0710   34.0460 C   0  0  0  0  0  0  0  0  0  0  0  0
   37.9040   24.0680   33.6640 H   0  0  0  0  0  0  0  0  0  0  0  0
   37.1530   26.0570   33.2810 C   0  0  0  0  0  0  0  0  0  0  0  0
   36.6230   26.0690   32.0420 N   0  0  0  0  0  0  0  0  0  0  0  0
   36.1480   27.2980   31.7760 C   0  0  0  0  0  0  0  0  0  0  0  0
   35.6570   27.6950   30.9030 H   0  0  0  0  0  0  0  0  0  0  0  0
   36.3710   28.0980   32.8570 N   0  0  0  0  0  0  0  0  0  0  0  0
   36.9870   27.3320   33.7770 C   0  0  0  0  0  0  0  0  0  0  0  0
   37.4300   27.6270   35.0270 C   0  0  0  0  0  3  0  0  0  0  0  0
   36.5780   25.2670   31.3790 H   0  0  0  0  0  0  0  0  0  0  0  0
   40.1010   23.8840   35.6840 C   0  0  0  0  0  0  0  0  0  0  0  0
   38.8730   24.3830   36.1890 C   0  0  0  0  0  0  0  0  0  0  0  0
   38.4400   23.9100   37.4240 C   0  0  0  0  0  0  0  0  0  0  0  0
   39.2180   23.0020   38.0670 N   0  0  0  0  0  0  0  0  0  0  0  0
   40.3870   22.5380   37.5680 C   0  0  0  0  0  0  0  0  0  0  0  0
   40.8170   22.9870   36.3760 N   0  0  0  0  0  0  0  0  0  0  0  0
   40.5590   24.1650   34.7380 H   0  0  0  0  0  0  0  0  0  0  0  0
   37.5180   24.3190   37.7460 H   0  0  0  0  0  0  0  0  0  0  0  0
   40.9760   21.8150   38.1120 H   0  0  0  0  0  0  0  0  0  0  0  0
  2  1  1  0  0  0  0
  2 14  1  0  0  0  0
  3  2  2  0  0  0  0
  4  3  1  0  0  0  0
  5 10  2  0  0  0  0
  5  3  1  0  0  0  0
  6  5  1  0  0  0  0
  7  6  1  0  0  0  0
  7  9  2  0  0  0  0
  8  7  1  0  0  0  0
  9 10  1  0  0  0  0
 10 11  1  0  0  0  0
 11  1  2  0  0  0  0
 12  6  1  0  0  0  0
 13 14  2  0  0  0  0
 13 18  1  0  0  0  0
 14 15  1  0  0  0  0
 15 20  1  0  0  0  0
 15 16  2  0  0  0  0
 17 16  1  0  0  0  0
 17 21  1  0  0  0  0
 18 17  2  0  0  0  0
 19 13  1  0  0  0  0
M  END
>  <minimizedAffinity>
-4.54891062

$$$$

 OpenBabel03262521033D

 21 23  0  0  0  0  0  0  0  0999 V2000
   38.1270   26.7400   35.6730 C   0  0  0  0  0  3  0  0  0  0  0  0
   38.3060   25.4800   35.1500 C   0  0  0  0  0  0  0  0  0  0  0  0
   37.7670   25.2510   33.9030 C   0  0  0  0  0  0  0  0  0  0  0  0
   37.8910   24.2710   33.4630 H   0  0  0  0  0  0  0  0  0  0  0  0
   37.0810   26.2600   33.2320 C   0  0  0  0  0  0  0  0  0  0  0  0
   36.4650   26.3210   32.0350 N   0  0  0  0  0  0  0  0  0  0  0  0
   35.9510   27.5500   31.8630 C   0  0  0  0  0  0  0  0  0  0  0  0
   35.3920   27.9780   31.0470 H   0  0  0  0  0  0  0  0  0  0  0  0
   36.2370   28.3020   32.9640 N   0  0  0  0  0  0  0  0  0  0  0  0
   36.9290   27.5060   33.8000 C   0  0  0  0  0  0  0  0  0  0  0  0
   37.4550   27.7510   35.0290 C   0  0  0  0  0  3  0  0  0  0  0  0
   36.3860   25.5490   31.3390 H   0  0  0  0  0  0  0  0  0  0  0  0
   38.3970   24.1310   37.1450 C   0  0  0  0  0  0  0  0  0  0  0  0
   39.0320   24.4850   35.9270 C   0  0  0  0  0  0  0  0  0  0  0  0
   40.2370   23.8600   35.6180 C   0  0  0  0  0  0  0  0  0  0  0  0
   40.7280   22.9530   36.5000 N   0  0  0  0  0  0  0  0  0  0  0  0
   40.1070   22.6290   37.6580 C   0  0  0  0  0  0  0  0  0  0  0  0
   38.9430   23.2260   37.9680 N   0  0  0  0  0  0  0  0  0  0  0  0
   37.4570   24.5370   37.5110 H   0  0  0  0  0  0  0  0  0  0  0  0
   40.6600   24.1660   34.6970 H   0  0  0  0  0  0  0  0  0  0  0  0
   40.5330   21.9020   38.3330 H   0  0  0  0  0  0  0  0  0  0  0  0
  2  1  1  0  0  0  0
  2 14  1  0  0  0  0
  3  2  2  0  0  0  0
  4  3  1  0  0  0  0
  5 10  2  0  0  0  0
  5  3  1  0  0  0  0
  6  5  1  0  0  0  0
  7  6  1  0  0  0  0
  7  9  2  0  0  0  0
  8  7  1  0  0  0  0
  9 10  1  0  0  0  0
 10 11  1  0  0  0  0
 11  1  2  0  0  0  0
 12  6  1  0  0  0  0
 13 19  1  0  0  0  0
 13 18  1  0  0  0  0
 14 13  2  0  0  0  0
 15 14  1  0  0  0  0
 15 16  2  0  0  0  0
 16 17  1  0  0  0  0
 17 18  2  0  0  0  0
 17 21  1  0  0  0  0
 20 15  1  0  0  0  0
M  END
>  <minimizedAffinity>
-4.53196096

$$$$

 OpenBabel03262521033D

 21 23  0  0  0  0  0  0  0  0999 V2000
   37.3780   23.3690   32.7490 C   0  0  0  0  0  3  0  0  0  0  0  0
   36.3340   22.8320   32.0320 C   0  0  0  0  0  0  0  0  0  0  0  0
   35.6370   23.7000   31.2200 C   0  0  0  0  0  0  0  0  0  0  0  0
   34.8110   23.3090   30.6430 H   0  0  0  0  0  0  0  0  0  0  0  0
   35.9930   25.0440   31.1500 C   0  0  0  0  0  0  0  0  0  0  0  0
   35.5040   26.0950   30.4620 N   0  0  0  0  0  0  0  0  0  0  0  0
   36.2230   27.1910   30.7570 C   0  0  0  0  0  0  0  0  0  0  0  0
   36.1390   28.2090   30.4150 H   0  0  0  0  0  0  0  0  0  0  0  0
   37.1940   26.8490   31.6510 N   0  0  0  0  0  0  0  0  0  0  0  0
   37.0480   25.5330   31.8880 C   0  0  0  0  0  0  0  0  0  0  0  0
   37.7480   24.6910   32.6950 C   0  0  0  0  0  3  0  0  0  0  0  0
   34.6990   26.0820   29.8010 H   0  0  0  0  0  0  0  0  0  0  0  0
   36.1480   20.6770   30.9690 C   0  0  0  0  0  0  0  0  0  0  0  0
   36.0290   21.4150   32.1740 C   0  0  0  0  0  0  0  0  0  0  0  0
   35.6500   20.7260   33.3230 C   0  0  0  0  0  0  0  0  0  0  0  0
   35.4180   19.3930   33.2170 N   0  0  0  0  0  0  0  0  0  0  0  0
   35.5360   18.7060   32.0570 C   0  0  0  0  0  0  0  0  0  0  0  0
   35.9020   19.3610   30.9410 N   0  0  0  0  0  0  0  0  0  0  0  0
   36.4340   21.0840   30.0020 H   0  0  0  0  0  0  0  0  0  0  0  0
   35.5790   21.3310   34.1880 H   0  0  0  0  0  0  0  0  0  0  0  0
   35.3420   17.6440   32.0170 H   0  0  0  0  0  0  0  0  0  0  0  0
  2 14  1  0  0  0  0
  2  1  2  0  0  0  0
  3  2  1  0  0  0  0
  4  3  1  0  0  0  0
  5  3  2  0  0  0  0
  5 10  1  0  0  0  0
  6  7  1  0  0  0  0
  6  5  1  0  0  0  0
  7  9  2  0  0  0  0
  8  7  1  0  0  0  0
  9 10  1  0  0  0  0
 10 11  2  0  0  0  0
 11  1  1  0  0  0  0
 12  6  1  0  0  0  0
 13 14  1  0  0  0  0
 14 15  2  0  0  0  0
 15 20  1  0  0  0  0
 16 15  1  0  0  0  0
 17 16  2  0  0  0  0
 18 13  2  0  0  0  0
 18 17  1  0  0  0  0
 19 13  1  0  0  0  0
 21 17  1  0  0  0  0
M  END
>  <minimizedAffinity>
-4.47242641

$$$$

 OpenBabel03262521033D

 21 23  0  0  0  0  0  0  0  0999 V2000
   36.2320   28.6430   34.3630 C   0  0  0  0  0  3  0  0  0  0  0  0
   35.6140   29.8330   34.0510 C   0  0  0  0  0  0  0  0  0  0  0  0
   35.5550   30.1620   32.7140 C   0  0  0  0  0  0  0  0  0  0  0  0
   35.0750   31.0900   32.4370 H   0  0  0  0  0  0  0  0  0  0  0  0
   36.0990   29.3160   31.7520 C   0  0  0  0  0  0  0  0  0  0  0  0
   36.1850   29.3780   30.4090 N   0  0  0  0  0  0  0  0  0  0  0  0
   36.8190   28.2830   29.9550 C   0  0  0  0  0  0  0  0  0  0  0  0
   37.0770   27.9770   28.9550 H   0  0  0  0  0  0  0  0  0  0  0  0
   37.1510   27.4960   31.0170 N   0  0  0  0  0  0  0  0  0  0  0  0
   36.7070   28.1340   32.1160 C   0  0  0  0  0  0  0  0  0  0  0  0
   36.7760   27.7930   33.4310 C   0  0  0  0  0  3  0  0  0  0  0  0
   35.8260   30.1430   29.8000 H   0  0  0  0  0  0  0  0  0  0  0  0
   33.6720   30.5650   35.2770 C   0  0  0  0  0  0  0  0  0  0  0  0
   35.0790   30.6580   35.1260 C   0  0  0  0  0  0  0  0  0  0  0  0
   35.7710   31.4980   35.9940 C   0  0  0  0  0  0  0  0  0  0  0  0
   35.0570   32.1740   36.9290 N   0  0  0  0  0  0  0  0  0  0  0  0
   33.7140   32.0720   37.0580 C   0  0  0  0  0  0  0  0  0  0  0  0
   33.0340   31.2640   36.2250 N   0  0  0  0  0  0  0  0  0  0  0  0
   33.0090   29.9510   34.6720 H   0  0  0  0  0  0  0  0  0  0  0  0
   36.8170   31.5240   35.8300 H   0  0  0  0  0  0  0  0  0  0  0  0
   33.1830   32.6280   37.8160 H   0  0  0  0  0  0  0  0  0  0  0  0
  2  1  1  0  0  0  0
  2 14  1  0  0  0  0
  3  2  2  0  0  0  0
  4  3  1  0  0  0  0
  5 10  2  0  0  0  0
  5  3  1  0  0  0  0
  6  5  1  0  0  0  0
  7  6  1  0  0  0  0
  7  9  2  0  0  0  0
  8  7  1  0  0  0  0
  9 10  1  0  0  0  0
 10 11  1  0  0  0  0
 11  1  2  0  0  0  0
 12  6  1  0  0  0  0
 13 18  1  0  0  0  0
 14 13  2  0  0  0  0
 14 15  1  0  0  0  0
 15 16  2  0  0  0  0
 16 17  1  0  0  0  0
 17 21  1  0  0  0  0
 18 17  2  0  0  0  0
 19 13  1  0  0  0  0
 20 15  1  0  0  0  0
M  END
>  <minimizedAffinity>
-4.46076202

$$$$

 OpenBabel03262521033D

 21 23  0  0  0  0  0  0  0  0999 V2000
   41.0070   24.6020   34.9880 C   0  0  0  0  0  3  0  0  0  0  0  0
   39.7890   24.6380   35.6270 C   0  0  0  0  0  0  0  0  0  0  0  0
   39.5700   23.6700   36.5840 C   0  0  0  0  0  0  0  0  0  0  0  0
   38.6230   23.6720   37.1050 H   0  0  0  0  0  0  0  0  0  0  0  0
   40.5470   22.7200   36.8670 C   0  0  0  0  0  0  0  0  0  0  0  0
   40.6070   21.6840   37.7270 N   0  0  0  0  0  0  0  0  0  0  0  0
   41.7970   21.0720   37.6010 C   0  0  0  0  0  0  0  0  0  0  0  0
   42.2120   20.2170   38.1070 H   0  0  0  0  0  0  0  0  0  0  0  0
   42.5220   21.7180   36.6440 N   0  0  0  0  0  0  0  0  0  0  0  0
   41.7510   22.7270   36.1970 C   0  0  0  0  0  0  0  0  0  0  0  0
   41.9860   23.6740   35.2500 C   0  0  0  0  0  3  0  0  0  0  0  0
   39.8620   21.3870   38.3920 H   0  0  0  0  0  0  0  0  0  0  0  0
   38.0410   25.3410   34.1240 C   0  0  0  0  0  0  0  0  0  0  0  0
   38.8250   25.6660   35.2610 C   0  0  0  0  0  0  0  0  0  0  0  0
   38.5910   26.8890   35.8820 C   0  0  0  0  0  0  0  0  0  0  0  0
   37.6300   27.6940   35.3620 N   0  0  0  0  0  0  0  0  0  0  0  0
   36.8920   27.3660   34.2750 C   0  0  0  0  0  0  0  0  0  0  0  0
   37.1090   26.1870   33.6670 N   0  0  0  0  0  0  0  0  0  0  0  0
   38.1150   24.4240   33.5440 H   0  0  0  0  0  0  0  0  0  0  0  0
   39.2080   27.0730   36.7230 H   0  0  0  0  0  0  0  0  0  0  0  0
   36.1370   28.0360   33.8930 H   0  0  0  0  0  0  0  0  0  0  0  0
  1 11  2  0  0  0  0
  1  2  1  0  0  0  0
  2  3  2  0  0  0  0
  3  5  1  0  0  0  0
  3  4  1  0  0  0  0
  5  6  1  0  0  0  0
  6 12  1  0  0  0  0
  7  6  1  0  0  0  0
  7  8  1  0  0  0  0
  9  7  2  0  0  0  0
 10  9  1  0  0  0  0
 10  5  2  0  0  0  0
 11 10  1  0  0  0  0
 13 14  1  0  0  0  0
 14  2  1  0  0  0  0
 14 15  2  0  0  0  0
 15 20  1  0  0  0  0
 16 15  1  0  0  0  0
 17 16  2  0  0  0  0
 18 13  2  0  0  0  0
 18 17  1  0  0  0  0
 19 13  1  0  0  0  0
 21 17  1  0  0  0  0
M  END
>  <minimizedAffinity>
-4.40470076

$$$$

 OpenBabel03262521033D

 21 23  0  0  0  0  0  0  0  0999 V2000
   37.8120   24.8000   36.5310 C   0  0  0  0  0  3  0  0  0  0  0  0
   38.2970   25.0060   35.2600 C   0  0  0  0  0  0  0  0  0  0  0  0
   39.4180   24.2860   34.9070 C   0  0  0  0  0  0  0  0  0  0  0  0
   39.8230   24.4240   33.9150 H   0  0  0  0  0  0  0  0  0  0  0  0
   40.0070   23.4060   35.8110 C   0  0  0  0  0  0  0  0  0  0  0  0
   41.0800   22.5930   35.7440 N   0  0  0  0  0  0  0  0  0  0  0  0
   41.2180   21.9440   36.9120 C   0  0  0  0  0  0  0  0  0  0  0  0
   41.9470   21.2230   37.2410 H   0  0  0  0  0  0  0  0  0  0  0  0
   40.2210   22.3400   37.7530 N   0  0  0  0  0  0  0  0  0  0  0  0
   39.4820   23.2360   37.0730 C   0  0  0  0  0  0  0  0  0  0  0  0
   38.3760   23.9370   37.4390 C   0  0  0  0  0  3  0  0  0  0  0  0
   41.7150   22.4720   34.9260 H   0  0  0  0  0  0  0  0  0  0  0  0
   37.2410   27.1600   35.0260 C   0  0  0  0  0  0  0  0  0  0  0  0
   37.6190   25.9520   34.3850 C   0  0  0  0  0  0  0  0  0  0  0  0
   37.3130   25.8110   33.0340 C   0  0  0  0  0  0  0  0  0  0  0  0
   36.6730   26.8360   32.4170 N   0  0  0  0  0  0  0  0  0  0  0  0
   36.3200   27.9810   33.0460 C   0  0  0  0  0  0  0  0  0  0  0  0
   36.6110   28.1290   34.3510 N   0  0  0  0  0  0  0  0  0  0  0  0
   37.4170   27.4050   36.0710 H   0  0  0  0  0  0  0  0  0  0  0  0
   37.6190   24.8890   32.6140 H   0  0  0  0  0  0  0  0  0  0  0  0
   35.8110   28.7730   32.5170 H   0  0  0  0  0  0  0  0  0  0  0  0
  1 11  1  0  0  0  0
  2  1  2  0  0  0  0
  3  2  1  0  0  0  0
  3  5  2  0  0  0  0
  4  3  1  0  0  0  0
  5 10  1  0  0  0  0
  6  5  1  0  0  0  0
  6  7  1  0  0  0  0
  7  8  1  0  0  0  0
  7  9  2  0  0  0  0
 10 11  2  0  0  0  0
 10  9  1  0  0  0  0
 12  6  1  0  0  0  0
 13 19  1  0  0  0  0
 14 13  1  0  0  0  0
 14  2  1  0  0  0  0
 15 14  2  0  0  0  0
 16 15  1  0  0  0  0
 16 17  2  0  0  0  0
 17 18  1  0  0  0  0
 18 13  2  0  0  0  0
 20 15  1  0  0  0  0
 21 17  1  0  0  0  0
M  END
>  <minimizedAffinity>
-4.34771299

$$$$

 OpenBabel03262521033D

 21 23  0  0  0  0  0  0  0  0999 V2000
   39.0780   24.8040   34.2770 C   0  0  0  0  0  3  0  0  0  0  0  0
   38.1570   25.7490   34.6660 C   0  0  0  0  0  0  0  0  0  0  0  0
   37.7230   25.6810   35.9720 C   0  0  0  0  0  0  0  0  0  0  0  0
   37.0000   26.4100   36.3100 H   0  0  0  0  0  0  0  0  0  0  0  0
   38.2080   24.6970   36.8300 C   0  0  0  0  0  0  0  0  0  0  0  0
   37.9700   24.3970   38.1210 N   0  0  0  0  0  0  0  0  0  0  0  0
   38.7110   23.3330   38.4730 C   0  0  0  0  0  0  0  0  0  0  0  0
   38.7920   22.8020   39.4070 H   0  0  0  0  0  0  0  0  0  0  0  0
   39.4430   22.9340   37.3950 N   0  0  0  0  0  0  0  0  0  0  0  0
   39.1320   23.7730   36.3900 C   0  0  0  0  0  0  0  0  0  0  0  0
   39.5710   23.8240   35.1050 C   0  0  0  0  0  3  0  0  0  0  0  0
   37.3180   24.8960   38.7630 H   0  0  0  0  0  0  0  0  0  0  0  0
   36.7170   27.6260   34.2030 C   0  0  0  0  0  0  0  0  0  0  0  0
   37.7010   26.7370   33.6980 C   0  0  0  0  0  0  0  0  0  0  0  0
   38.1100   26.9030   32.3780 C   0  0  0  0  0  0  0  0  0  0  0  0
   37.5430   27.9040   31.6580 N   0  0  0  0  0  0  0  0  0  0  0  0
   36.6050   28.7420   32.1570 C   0  0  0  0  0  0  0  0  0  0  0  0
   36.2020   28.5910   33.4310 N   0  0  0  0  0  0  0  0  0  0  0  0
   36.3070   27.6120   35.2100 H   0  0  0  0  0  0  0  0  0  0  0  0
   38.8450   26.2100   32.0610 H   0  0  0  0  0  0  0  0  0  0  0  0
   36.1790   29.5260   31.5490 H   0  0  0  0  0  0  0  0  0  0  0  0
  1  2  2  0  0  0  0
  1 11  1  0  0  0  0
  2  3  1  0  0  0  0
  3  4  1  0  0  0  0
  3  5  2  0  0  0  0
  5  6  1  0  0  0  0
  6  7  1  0  0  0  0
  6 12  1  0  0  0  0
  7  8  1  0  0  0  0
  9  7  2  0  0  0  0
 10  5  1  0  0  0  0
 10  9  1  0  0  0  0
 11 10  2  0  0  0  0
 13 19  1  0  0  0  0
 14 13  1  0  0  0  0
 14  2  1  0  0  0  0
 15 14  2  0  0  0  0
 16 17  2  0  0  0  0
 16 15  1  0  0  0  0
 17 18  1  0  0  0  0
 18 13  2  0  0  0  0
 20 15  1  0  0  0  0
 21 17  1  0  0  0  0
M  END
>  <minimizedAffinity>
-4.31436396

$$$$

 OpenBabel03262521033D

 21 23  0  0  0  0  0  0  0  0999 V2000
   35.5760   30.5910   32.5770 C   0  0  0  0  0  3  0  0  0  0  0  0
   35.5560   29.9540   33.7970 C   0  0  0  0  0  0  0  0  0  0  0  0
   35.9950   28.6490   33.8140 C   0  0  0  0  0  0  0  0  0  0  0  0
   35.9930   28.1210   34.7570 H   0  0  0  0  0  0  0  0  0  0  0  0
   36.4310   28.0320   32.6440 C   0  0  0  0  0  0  0  0  0  0  0  0
   36.9020   26.8000   32.3690 N   0  0  0  0  0  0  0  0  0  0  0  0
   37.1840   26.7170   31.0580 C   0  0  0  0  0  0  0  0  0  0  0  0
   37.5710   25.9040   30.4660 H   0  0  0  0  0  0  0  0  0  0  0  0
   36.8930   27.9120   30.4700 N   0  0  0  0  0  0  0  0  0  0  0  0
   36.4320   28.7140   31.4470 C   0  0  0  0  0  0  0  0  0  0  0  0
   36.0010   30.0030   31.4100 C   0  0  0  0  0  3  0  0  0  0  0  0
   37.0330   26.0210   33.0480 H   0  0  0  0  0  0  0  0  0  0  0  0
   33.6860   30.5300   35.2050 C   0  0  0  0  0  0  0  0  0  0  0  0
   35.0770   30.6770   34.9670 C   0  0  0  0  0  0  0  0  0  0  0  0
   35.8070   31.4660   35.8510 C   0  0  0  0  0  0  0  0  0  0  0  0
   35.1430   32.0450   36.8830 N   0  0  0  0  0  0  0  0  0  0  0  0
   33.8140   31.8940   37.0930 C   0  0  0  0  0  0  0  0  0  0  0  0
   33.0990   31.1330   36.2460 N   0  0  0  0  0  0  0  0  0  0  0  0
   32.9980   29.9460   34.5990 H   0  0  0  0  0  0  0  0  0  0  0  0
   36.8380   31.5360   35.6200 H   0  0  0  0  0  0  0  0  0  0  0  0
   33.3250   32.3730   37.9280 H   0  0  0  0  0  0  0  0  0  0  0  0
  1  2  1  0  0  0  0
  2  3  2  0  0  0  0
  2 14  1  0  0  0  0
  3  4  1  0  0  0  0
  5  3  1  0  0  0  0
  6  5  1  0  0  0  0
  6 12  1  0  0  0  0
  7  6  1  0  0  0  0
  8  7  1  0  0  0  0
  9  7  2  0  0  0  0
  9 10  1  0  0  0  0
 10  5  2  0  0  0  0
 11 10  1  0  0  0  0
 11  1  2  0  0  0  0
 13 18  1  0  0  0  0
 14 13  2  0  0  0  0
 14 15  1  0  0  0  0
 15 16  2  0  0  0  0
 16 17  1  0  0  0  0
 17 21  1  0  0  0  0
 18 17  2  0  0  0  0
 19 13  1  0  0  0  0
 20 15  1  0  0  0  0
M  END
>  <minimizedAffinity>
-4.31017733

$$$$

 OpenBabel03262521033D

 21 23  0  0  0  0  0  0  0  0999 V2000
   35.2220   24.1700   30.9790 C   0  0  0  0  0  3  0  0  0  0  0  0
   36.1530   23.4160   31.6560 C   0  0  0  0  0  0  0  0  0  0  0  0
   37.0890   24.1120   32.3900 C   0  0  0  0  0  0  0  0  0  0  0  0
   37.8330   23.5490   32.9350 H   0  0  0  0  0  0  0  0  0  0  0  0
   37.0700   25.5040   32.4250 C   0  0  0  0  0  0  0  0  0  0  0  0
   37.8390   26.4230   33.0390 N   0  0  0  0  0  0  0  0  0  0  0  0
   37.3860   27.6520   32.7390 C   0  0  0  0  0  0  0  0  0  0  0  0
   37.7330   28.6290   33.0340 H   0  0  0  0  0  0  0  0  0  0  0  0
   36.3050   27.5320   31.9170 N   0  0  0  0  0  0  0  0  0  0  0  0
   36.1160   26.2130   31.7280 C   0  0  0  0  0  0  0  0  0  0  0  0
   35.1840   25.5440   30.9980 C   0  0  0  0  0  3  0  0  0  0  0  0
   38.6600   26.2350   33.6530 H   0  0  0  0  0  0  0  0  0  0  0  0
   35.0270   21.3770   32.2740 C   0  0  0  0  0  0  0  0  0  0  0  0
   36.1000   21.9640   31.5560 C   0  0  0  0  0  0  0  0  0  0  0  0
   36.9530   21.1170   30.8560 C   0  0  0  0  0  0  0  0  0  0  0  0
   36.7060   19.7840   30.9040 N   0  0  0  0  0  0  0  0  0  0  0  0
   35.6760   19.2410   31.5950 C   0  0  0  0  0  0  0  0  0  0  0  0
   34.8450   20.0500   32.2760 N   0  0  0  0  0  0  0  0  0  0  0  0
   34.2860   21.9150   32.8610 H   0  0  0  0  0  0  0  0  0  0  0  0
   37.7330   21.6150   30.3420 H   0  0  0  0  0  0  0  0  0  0  0  0
   35.5150   18.1740   31.6080 H   0  0  0  0  0  0  0  0  0  0  0  0
  1 11  2  0  0  0  0
  1  2  1  0  0  0  0
  2  3  2  0  0  0  0
  3  5  1  0  0  0  0
  3  4  1  0  0  0  0
  5  6  1  0  0  0  0
  6 12  1  0  0  0  0
  7  8  1  0  0  0  0
  7  6  1  0  0  0  0
  9  7  2  0  0  0  0
 10  9  1  0  0  0  0
 10  5  2  0  0  0  0
 11 10  1  0  0  0  0
 13 18  1  0  0  0  0
 13 19  1  0  0  0  0
 14  2  1  0  0  0  0
 14 13  2  0  0  0  0
 15 16  2  0  0  0  0
 15 14  1  0  0  0  0
 16 17  1  0  0  0  0
 17 21  1  0  0  0  0
 17 18  2  0  0  0  0
 20 15  1  0  0  0  0
M  END
>  <minimizedAffinity>
-4.26010513

$$$$
