
 OpenBabel03272507203D

 33 36  0  0  1  0  0  0  0  0999 V2000
   37.3330   31.2230   49.5040 C   0  0  0  0  0  0  0  0  0  0  0  0
   38.3350   32.1800   49.5420 C   0  0  0  0  0  0  0  0  0  0  0  0
   38.7940   32.5880   48.2690 C   0  0  0  0  0  0  0  0  0  0  0  0
   38.2660   32.0570   47.1290 N   0  0  0  0  0  0  0  0  0  0  0  0
   37.2830   31.1210   47.1480 C   0  0  0  0  0  0  0  0  0  0  0  0
   36.8130   30.7000   48.3670 N   0  0  0  0  0  0  0  0  0  0  0  0
   38.7290   32.5760   50.4580 H   0  0  0  0  0  0  0  0  0  0  0  0
   39.5770   33.3310   48.2070 H   0  0  0  0  0  0  0  0  0  0  0  0
   37.5260   30.5690   44.7950 C   0  0  0  0  0  3  0  0  0  0  0  0
   36.7260   30.5630   45.9180 C   0  0  0  0  0  0  0  0  0  0  0  0
   35.4500   30.0380   45.8500 C   0  0  0  0  0  0  0  0  0  0  0  0
   34.8470   30.0480   46.7480 H   0  0  0  0  0  0  0  0  0  0  0  0
   34.9230   29.5110   44.6890 C   0  0  0  0  0  0  0  0  0  0  0  0
   33.7460   28.9520   44.3530 N   0  0  0  0  0  0  0  0  0  0  0  0
   33.8370   28.6300   43.0520 C   0  0  0  0  0  0  0  0  0  0  0  0
   32.9680   28.1590   42.5900 H   0  0  0  0  0  0  0  0  0  0  0  0
   35.0500   28.9770   42.5690 N   0  0  0  0  0  0  0  0  0  0  0  0
   35.7530   29.5310   43.5740 C   0  0  0  0  0  0  0  0  0  0  0  0
   37.0310   30.0480   43.6150 C   0  0  0  0  0  3  0  0  0  0  0  0
   32.9770   28.8430   45.0590 H   0  0  0  0  0  0  0  0  0  0  0  0
   36.8020   30.7830   50.8340 C   0  0  1  0  0  0  0  0  0  0  0  0
   36.0860   29.5200   51.0020 C   0  0  2  0  0  0  0  0  0  0  0  0
   37.5370   29.5450   51.3780 C   0  0  0  0  0  0  0  0  0  0  0  0
   36.7280   31.6390   51.5450 H   0  0  0  0  0  0  0  0  0  0  0  0
   35.2660   29.5870   51.7760 H   0  0  0  0  0  0  0  0  0  0  0  0
   38.2220   28.9960   50.6970 H   0  0  0  0  0  0  0  0  0  0  0  0
   37.8430   29.6400   52.4250 H   0  0  0  0  0  0  0  0  0  0  0  0
   35.6950   28.8530   49.8490 O   0  0  0  0  0  0  0  0  0  0  0  0
   34.4610   28.4790   49.4340 C   0  0  0  0  0  0  0  0  0  0  0  0
   34.2820   27.5150   48.6580 O   0  0  0  0  0  0  0  0  0  0  0  0
   33.5270   29.3370   50.0150 N   0  0  0  0  0  0  0  0  0  0  0  0
   33.2310   28.7410   50.8430 H   0  0  0  0  0  0  0  0  0  0  0  0
   33.4580   30.2310   49.4460 H   0  0  0  0  0  0  0  0  0  0  0  0
  1  2  1  0  0  0  0
  1 21  1  0  0  0  0
  2  7  1  0  0  0  0
  3  2  2  0  0  0  0
  4  5  2  0  0  0  0
  4  3  1  0  0  0  0
  5  6  1  0  0  0  0
  6  1  2  0  0  0  0
  8  3  1  0  0  0  0
  9 10  1  0  0  0  0
 10  5  1  0  0  0  0
 11 10  2  0  0  0  0
 11 12  1  0  0  0  0
 13 11  1  0  0  0  0
 14 13  1  0  0  0  0
 14 20  1  0  0  0  0
 15 14  1  0  0  0  0
 16 15  1  0  0  0  0
 17 15  2  0  0  0  0
 17 18  1  0  0  0  0
 18 19  1  0  0  0  0
 18 13  2  0  0  0  0
 19  9  2  0  0  0  0
 21 22  1  0  0  0  0
 21 23  1  0  0  0  0
 21 24  1  1  0  0  0
 22 23  1  0  0  0  0
 22 25  1  1  0  0  0
 23 27  1  0  0  0  0
 26 23  1  0  0  0  0
 28 22  1  0  0  0  0
 29 28  1  0  0  0  0
 29 31  1  0  0  0  0
 30 29  2  0  0  0  0
 31 32  1  0  0  0  0
 33 31  1  0  0  0  0
M  END
>  <minimizedAffinity>
-5.61155128

>  <minimizedRMSD>
0.180430949

$$$$
