
 OpenBabel03272507153D

 43 48  0  0  0  0  0  0  0  0999 V2000
   35.5510   25.7500   31.1580 C   0  0  0  0  0  0  0  0  0  0  0  0
   34.6280   25.3410   30.4050 O   0  0  0  0  0  0  0  0  0  0  0  0
   35.8050   27.1470   31.3930 C   0  0  0  0  0  0  0  0  0  0  0  0
   36.6670   27.8040   30.5310 C   0  0  0  0  0  0  0  0  0  0  0  0
   36.9420   29.1550   30.7210 C   0  0  0  0  0  0  0  0  0  0  0  0
   36.3230   29.7530   31.7790 N   0  0  0  0  0  0  0  0  0  0  0  0
   35.4950   29.1130   32.6050 C   0  0  0  0  0  0  0  0  0  0  0  0
   35.2350   27.8100   32.4150 N   0  0  0  0  0  0  0  0  0  0  0  0
   37.1300   27.2960   29.7140 H   0  0  0  0  0  0  0  0  0  0  0  0
   37.6010   29.7150   30.0850 H   0  0  0  0  0  0  0  0  0  0  0  0
   33.5170   29.7490   33.9220 C   0  0  0  0  0  3  0  0  0  0  0  0
   34.8700   29.8350   33.7220 C   0  0  0  0  0  0  0  0  0  0  0  0
   35.6510   30.6100   34.5860 C   0  0  0  0  0  0  0  0  0  0  0  0
   36.7390   30.6930   34.4430 H   0  0  0  0  0  0  0  0  0  0  0  0
   35.0640   31.2990   35.6500 C   0  0  0  0  0  0  0  0  0  0  0  0
   35.5360   32.0900   36.6060 N   0  0  0  0  0  0  0  0  0  0  0  0
   34.5020   32.4800   37.3730 C   0  0  0  0  0  0  0  0  0  0  0  0
   34.6220   33.1380   38.2330 H   0  0  0  0  0  0  0  0  0  0  0  0
   33.3870   31.9180   36.8750 N   0  0  0  0  0  0  0  0  0  0  0  0
   33.6810   31.1710   35.8010 C   0  0  0  0  0  0  0  0  0  0  0  0
   32.9170   30.4160   34.9610 C   0  0  0  0  0  3  0  0  0  0  0  0
   36.5510   32.3690   36.7470 H   0  0  0  0  0  0  0  0  0  0  0  0
   36.4060   24.7860   31.8290 C   0  0  0  0  0  0  0  0  0  0  0  0
   36.2980   23.4550   31.6310 C   0  0  0  0  0  0  0  0  0  0  0  0
   37.2690   22.8440   32.4310 C   0  0  0  0  0  0  0  0  0  0  0  0
   37.9300   23.8930   33.0900 C   0  0  0  0  0  0  0  0  0  0  0  0
   37.3700   24.9960   32.6870 O   0  0  0  0  0  0  0  0  0  0  0  0
   35.5990   22.9120   30.9790 H   0  0  0  0  0  0  0  0  0  0  0  0
   37.4020   21.7840   32.4650 H   0  0  0  0  0  0  0  0  0  0  0  0
   40.2390   24.2970   33.9030 C   0  0  0  0  0  0  0  0  0  0  0  0
   39.0190   23.6510   34.0220 C   0  0  0  0  0  0  0  0  0  0  0  0
   38.7790   22.7520   35.0400 C   0  0  0  0  0  0  0  0  0  0  0  0
   39.7950   22.5140   35.9400 C   0  0  0  0  0  0  0  0  0  0  0  0
   39.8310   21.7010   37.0130 N   0  0  0  0  0  0  0  0  0  0  0  0
   41.0380   21.8260   37.5590 N   0  0  0  0  0  0  0  0  0  0  0  0
   41.7590   22.7000   36.8540 C   0  0  0  0  0  0  0  0  0  0  0  0
   41.0030   23.1750   35.7950 C   0  0  0  0  0  0  0  0  0  0  0  0
   41.2550   24.0730   34.7850 C   0  0  0  0  0  0  0  0  0  0  0  0
   40.4070   25.0020   33.0910 H   0  0  0  0  0  0  0  0  0  0  0  0
   37.8400   22.2100   35.1890 H   0  0  0  0  0  0  0  0  0  0  0  0
   39.0600   21.0710   37.3740 H   0  0  0  0  0  0  0  0  0  0  0  0
   42.7930   22.9870   37.0910 H   0  0  0  0  0  0  0  0  0  0  0  0
   42.2210   24.5550   34.7280 H   0  0  0  0  0  0  0  0  0  0  0  0
  1  3  1  0  0  0  0
  1 23  1  0  0  0  0
  2  1  2  0  0  0  0
  3  8  1  0  0  0  0
  4  5  1  0  0  0  0
  4  3  2  0  0  0  0
  5  6  2  0  0  0  0
  6  7  1  0  0  0  0
  7 12  1  0  0  0  0
  8  7  2  0  0  0  0
  9  4  1  0  0  0  0
 10  5  1  0  0  0  0
 11 21  1  0  0  0  0
 12 11  2  0  0  0  0
 12 13  1  0  0  0  0
 13 15  2  0  0  0  0
 14 13  1  0  0  0  0
 15 20  1  0  0  0  0
 15 16  1  0  0  0  0
 16 22  1  0  0  0  0
 16 17  1  0  0  0  0
 17 18  1  0  0  0  0
 19 17  2  0  0  0  0
 20 19  1  0  0  0  0
 21 20  2  0  0  0  0
 23 27  1  0  0  0  0
 24 23  2  0  0  0  0
 24 25  1  0  0  0  0
 25 29  1  0  0  0  0
 25 26  2  0  0  0  0
 26 31  1  0  0  0  0
 27 26  1  0  0  0  0
 28 24  1  0  0  0  0
 30 31  2  0  0  0  0
 30 38  1  0  0  0  0
 31 32  1  0  0  0  0
 32 40  1  0  0  0  0
 32 33  2  0  0  0  0
 33 34  1  0  0  0  0
 34 41  1  0  0  0  0
 34 35  1  0  0  0  0
 36 42  1  0  0  0  0
 36 35  2  0  0  0  0
 37 33  1  0  0  0  0
 37 36  1  0  0  0  0
 38 37  2  0  0  0  0
 39 30  1  0  0  0  0
 43 38  1  0  0  0  0
M  END
>  <minimizedAffinity>
-7.07296228

$$$$

 OpenBabel03272507153D

 43 48  0  0  0  0  0  0  0  0999 V2000
   35.2490   30.3790   31.3510 C   0  0  0  0  0  0  0  0  0  0  0  0
   35.8030   31.2570   30.6380 O   0  0  0  0  0  0  0  0  0  0  0  0
   33.8930   30.4930   31.8190 C   0  0  0  0  0  0  0  0  0  0  0  0
   33.0540   31.3810   31.1660 C   0  0  0  0  0  0  0  0  0  0  0  0
   31.7340   31.5240   31.5840 C   0  0  0  0  0  0  0  0  0  0  0  0
   31.3510   30.7540   32.6440 N   0  0  0  0  0  0  0  0  0  0  0  0
   32.1650   29.9020   33.2670 C   0  0  0  0  0  0  0  0  0  0  0  0
   33.4360   29.7700   32.8570 N   0  0  0  0  0  0  0  0  0  0  0  0
   33.3960   31.9640   30.3400 H   0  0  0  0  0  0  0  0  0  0  0  0
   31.0390   32.1950   31.1170 H   0  0  0  0  0  0  0  0  0  0  0  0
   30.8740   28.0160   34.1780 C   0  0  0  0  0  3  0  0  0  0  0  0
   31.6700   29.1100   34.4010 C   0  0  0  0  0  0  0  0  0  0  0  0
   32.0070   29.4670   35.7110 C   0  0  0  0  0  0  0  0  0  0  0  0
   32.6440   30.3420   35.9110 H   0  0  0  0  0  0  0  0  0  0  0  0
   31.5410   28.7200   36.7940 C   0  0  0  0  0  0  0  0  0  0  0  0
   31.6910   28.8140   38.1100 N   0  0  0  0  0  0  0  0  0  0  0  0
   31.0060   27.8060   38.6820 C   0  0  0  0  0  0  0  0  0  0  0  0
   30.9680   27.6570   39.7600 H   0  0  0  0  0  0  0  0  0  0  0  0
   30.4340   27.0900   37.6980 N   0  0  0  0  0  0  0  0  0  0  0  0
   30.7350   27.6160   36.5030 C   0  0  0  0  0  0  0  0  0  0  0  0
   30.4040   27.2650   35.2270 C   0  0  0  0  0  3  0  0  0  0  0  0
   32.2510   29.5530   38.6280 H   0  0  0  0  0  0  0  0  0  0  0  0
   35.9950   29.1900   31.7280 C   0  0  0  0  0  0  0  0  0  0  0  0
   36.5160   28.3390   30.8200 C   0  0  0  0  0  0  0  0  0  0  0  0
   37.1580   27.3230   31.5350 C   0  0  0  0  0  0  0  0  0  0  0  0
   36.9750   27.6410   32.8910 C   0  0  0  0  0  0  0  0  0  0  0  0
   36.2870   28.7450   32.9220 O   0  0  0  0  0  0  0  0  0  0  0  0
   36.4700   28.3930   29.7230 H   0  0  0  0  0  0  0  0  0  0  0  0
   37.6600   26.5100   31.0550 H   0  0  0  0  0  0  0  0  0  0  0  0
   37.8520   27.3320   35.1910 C   0  0  0  0  0  0  0  0  0  0  0  0
   37.5070   26.8070   33.9560 C   0  0  0  0  0  0  0  0  0  0  0  0
   37.6460   25.4630   33.6830 C   0  0  0  0  0  0  0  0  0  0  0  0
   38.1400   24.6520   34.6820 C   0  0  0  0  0  0  0  0  0  0  0  0
   38.3720   23.3250   34.6880 N   0  0  0  0  0  0  0  0  0  0  0  0
   38.8500   23.0160   35.8910 N   0  0  0  0  0  0  0  0  0  0  0  0
   38.9220   24.1180   36.6400 C   0  0  0  0  0  0  0  0  0  0  0  0
   38.4760   25.2060   35.9050 C   0  0  0  0  0  0  0  0  0  0  0  0
   38.3420   26.5440   36.1900 C   0  0  0  0  0  0  0  0  0  0  0  0
   37.7350   28.3960   35.3830 H   0  0  0  0  0  0  0  0  0  0  0  0
   37.3930   24.9860   32.7310 H   0  0  0  0  0  0  0  0  0  0  0  0
   38.2140   22.6370   33.8990 H   0  0  0  0  0  0  0  0  0  0  0  0
   39.2830   24.1430   37.6770 H   0  0  0  0  0  0  0  0  0  0  0  0
   38.6240   26.9130   37.1670 H   0  0  0  0  0  0  0  0  0  0  0  0
  1 23  1  0  0  0  0
  1  3  1  0  0  0  0
  2  1  2  0  0  0  0
  3  8  1  0  0  0  0
  4  5  1  0  0  0  0
  4  3  2  0  0  0  0
  5  6  2  0  0  0  0
  6  7  1  0  0  0  0
  7 12  1  0  0  0  0
  8  7  2  0  0  0  0
  9  4  1  0  0  0  0
 10  5  1  0  0  0  0
 11 12  2  0  0  0  0
 11 21  1  0  0  0  0
 12 13  1  0  0  0  0
 13 14  1  0  0  0  0
 13 15  2  0  0  0  0
 15 16  1  0  0  0  0
 16 22  1  0  0  0  0
 16 17  1  0  0  0  0
 17 18  1  0  0  0  0
 19 17  2  0  0  0  0
 20 15  1  0  0  0  0
 20 19  1  0  0  0  0
 21 20  2  0  0  0  0
 23 27  1  0  0  0  0
 24 25  1  0  0  0  0
 24 23  2  0  0  0  0
 25 26  2  0  0  0  0
 26 27  1  0  0  0  0
 26 31  1  0  0  0  0
 28 24  1  0  0  0  0
 29 25  1  0  0  0  0
 30 39  1  0  0  0  0
 30 38  1  0  0  0  0
 31 30  2  0  0  0  0
 32 31  1  0  0  0  0
 32 33  2  0  0  0  0
 33 34  1  0  0  0  0
 33 37  1  0  0  0  0
 34 35  1  0  0  0  0
 35 36  2  0  0  0  0
 36 42  1  0  0  0  0
 37 38  2  0  0  0  0
 37 36  1  0  0  0  0
 38 43  1  0  0  0  0
 40 32  1  0  0  0  0
 41 34  1  0  0  0  0
M  END
>  <minimizedAffinity>
-7.04453325

$$$$

 OpenBabel03272507153D

 43 48  0  0  0  0  0  0  0  0999 V2000
   36.8910   27.5530   30.9380 C   0  0  0  0  0  0  0  0  0  0  0  0
   36.5550   28.2750   29.9620 O   0  0  0  0  0  0  0  0  0  0  0  0
   37.5370   26.2770   30.7790 C   0  0  0  0  0  0  0  0  0  0  0  0
   38.8380   26.2630   30.3020 C   0  0  0  0  0  0  0  0  0  0  0  0
   39.5010   25.0510   30.1320 C   0  0  0  0  0  0  0  0  0  0  0  0
   38.7980   23.9280   30.4580 N   0  0  0  0  0  0  0  0  0  0  0  0
   37.5470   23.9510   30.9160 C   0  0  0  0  0  0  0  0  0  0  0  0
   36.9140   25.1230   31.0770 N   0  0  0  0  0  0  0  0  0  0  0  0
   39.3510   27.1660   30.0590 H   0  0  0  0  0  0  0  0  0  0  0  0
   40.5080   24.9790   29.7670 H   0  0  0  0  0  0  0  0  0  0  0  0
   35.6070   22.7180   31.7950 C   0  0  0  0  0  3  0  0  0  0  0  0
   36.8620   22.6920   31.2430 C   0  0  0  0  0  0  0  0  0  0  0  0
   37.4850   21.4650   30.9940 C   0  0  0  0  0  0  0  0  0  0  0  0
   38.4920   21.4220   30.5510 H   0  0  0  0  0  0  0  0  0  0  0  0
   36.8410   20.2650   31.3010 C   0  0  0  0  0  0  0  0  0  0  0  0
   37.1720   18.9850   31.1810 N   0  0  0  0  0  0  0  0  0  0  0  0
   36.1510   18.2430   31.6450 C   0  0  0  0  0  0  0  0  0  0  0  0
   36.1710   17.1540   31.6580 H   0  0  0  0  0  0  0  0  0  0  0  0
   35.1850   19.0850   32.0530 N   0  0  0  0  0  0  0  0  0  0  0  0
   35.5630   20.3570   31.8610 C   0  0  0  0  0  0  0  0  0  0  0  0
   34.9530   21.5520   32.1060 C   0  0  0  0  0  3  0  0  0  0  0  0
   38.0830   18.6060   30.7870 H   0  0  0  0  0  0  0  0  0  0  0  0
   36.6250   28.0110   32.2910 C   0  0  0  0  0  0  0  0  0  0  0  0
   37.1260   27.3930   33.3810 C   0  0  0  0  0  0  0  0  0  0  0  0
   36.6680   28.0990   34.4970 C   0  0  0  0  0  0  0  0  0  0  0  0
   35.8840   29.1460   33.9870 C   0  0  0  0  0  0  0  0  0  0  0  0
   35.9070   29.0270   32.6900 O   0  0  0  0  0  0  0  0  0  0  0  0
   37.7740   26.5050   33.4290 H   0  0  0  0  0  0  0  0  0  0  0  0
   36.9200   27.8200   35.4980 H   0  0  0  0  0  0  0  0  0  0  0  0
   35.9400   31.0670   35.5550 C   0  0  0  0  0  0  0  0  0  0  0  0
   35.2260   30.1090   34.8530 C   0  0  0  0  0  0  0  0  0  0  0  0
   33.8520   30.0300   34.9420 C   0  0  0  0  0  0  0  0  0  0  0  0
   33.2070   30.9390   35.7520 C   0  0  0  0  0  0  0  0  0  0  0  0
   31.8940   31.0890   36.0150 N   0  0  0  0  0  0  0  0  0  0  0  0
   31.7770   32.1110   36.8570 N   0  0  0  0  0  0  0  0  0  0  0  0
   32.9860   32.6070   37.1290 C   0  0  0  0  0  0  0  0  0  0  0  0
   33.9470   31.8850   36.4390 C   0  0  0  0  0  0  0  0  0  0  0  0
   35.3170   31.9740   36.3600 C   0  0  0  0  0  0  0  0  0  0  0  0
   37.0230   31.1100   35.4710 H   0  0  0  0  0  0  0  0  0  0  0  0
   33.2300   29.2990   34.4150 H   0  0  0  0  0  0  0  0  0  0  0  0
   31.0880   30.5140   35.6370 H   0  0  0  0  0  0  0  0  0  0  0  0
   33.1740   33.4580   37.7980 H   0  0  0  0  0  0  0  0  0  0  0  0
   35.8350   32.7370   36.9250 H   0  0  0  0  0  0  0  0  0  0  0  0
  1 23  1  0  0  0  0
  2  1  2  0  0  0  0
  3  1  1  0  0  0  0
  3  8  1  0  0  0  0
  4  3  2  0  0  0  0
  5  4  1  0  0  0  0
  5  6  2  0  0  0  0
  6  7  1  0  0  0  0
  7  8  2  0  0  0  0
  7 12  1  0  0  0  0
  9  4  1  0  0  0  0
 10  5  1  0  0  0  0
 11 21  1  0  0  0  0
 12 11  2  0  0  0  0
 13 12  1  0  0  0  0
 13 15  2  0  0  0  0
 14 13  1  0  0  0  0
 15 20  1  0  0  0  0
 16 15  1  0  0  0  0
 16 17  1  0  0  0  0
 17 18  1  0  0  0  0
 17 19  2  0  0  0  0
 20 19  1  0  0  0  0
 20 21  2  0  0  0  0
 22 16  1  0  0  0  0
 23 27  1  0  0  0  0
 23 24  2  0  0  0  0
 24 28  1  0  0  0  0
 24 25  1  0  0  0  0
 25 29  1  0  0  0  0
 26 25  2  0  0  0  0
 26 31  1  0  0  0  0
 27 26  1  0  0  0  0
 30 38  1  0  0  0  0
 31 32  1  0  0  0  0
 31 30  2  0  0  0  0
 32 33  2  0  0  0  0
 33 34  1  0  0  0  0
 33 37  1  0  0  0  0
 34 35  1  0  0  0  0
 35 36  2  0  0  0  0
 36 42  1  0  0  0  0
 37 36  1  0  0  0  0
 38 37  2  0  0  0  0
 38 43  1  0  0  0  0
 39 30  1  0  0  0  0
 40 32  1  0  0  0  0
 41 34  1  0  0  0  0
M  END
>  <minimizedAffinity>
-7.02173471

$$$$

 OpenBabel03272507153D

 43 48  0  0  0  0  0  0  0  0999 V2000
   37.6950   27.0100   30.9270 C   0  0  0  0  0  0  0  0  0  0  0  0
   38.5360   27.2280   30.0150 O   0  0  0  0  0  0  0  0  0  0  0  0
   37.4720   25.7030   31.4880 C   0  0  0  0  0  0  0  0  0  0  0  0
   36.7050   24.8070   30.7610 C   0  0  0  0  0  0  0  0  0  0  0  0
   36.4640   23.5330   31.2650 C   0  0  0  0  0  0  0  0  0  0  0  0
   37.0180   23.2490   32.4790 N   0  0  0  0  0  0  0  0  0  0  0  0
   37.7550   24.1170   33.1720 C   0  0  0  0  0  0  0  0  0  0  0  0
   37.9840   25.3450   32.6790 N   0  0  0  0  0  0  0  0  0  0  0  0
   36.2900   25.0720   29.8140 H   0  0  0  0  0  0  0  0  0  0  0  0
   35.8770   22.7980   30.7470 H   0  0  0  0  0  0  0  0  0  0  0  0
   39.3130   22.7910   34.5390 C   0  0  0  0  0  3  0  0  0  0  0  0
   38.3150   23.7300   34.4740 C   0  0  0  0  0  0  0  0  0  0  0  0
   37.8360   24.3150   35.6500 C   0  0  0  0  0  0  0  0  0  0  0  0
   37.0350   25.0700   35.6200 H   0  0  0  0  0  0  0  0  0  0  0  0
   38.3630   23.9520   36.8910 C   0  0  0  0  0  0  0  0  0  0  0  0
   38.1160   24.3260   38.1410 N   0  0  0  0  0  0  0  0  0  0  0  0
   38.9370   23.6360   38.9540 C   0  0  0  0  0  0  0  0  0  0  0  0
   38.9350   23.7590   40.0360 H   0  0  0  0  0  0  0  0  0  0  0  0
   39.6940   22.8330   38.1850 N   0  0  0  0  0  0  0  0  0  0  0  0
   39.3770   22.9910   36.8920 C   0  0  0  0  0  0  0  0  0  0  0  0
   39.8470   22.4180   35.7470 C   0  0  0  0  0  3  0  0  0  0  0  0
   37.3960   25.0430   38.4530 H   0  0  0  0  0  0  0  0  0  0  0  0
   36.9060   28.1120   31.4500 C   0  0  0  0  0  0  0  0  0  0  0  0
   36.6400   29.2230   30.7320 C   0  0  0  0  0  0  0  0  0  0  0  0
   35.8670   30.0580   31.5430 C   0  0  0  0  0  0  0  0  0  0  0  0
   35.7090   29.3670   32.7560 C   0  0  0  0  0  0  0  0  0  0  0  0
   36.3450   28.2390   32.6240 O   0  0  0  0  0  0  0  0  0  0  0  0
   36.9490   29.4660   29.7040 H   0  0  0  0  0  0  0  0  0  0  0  0
   35.5140   31.0130   31.2160 H   0  0  0  0  0  0  0  0  0  0  0  0
   33.6250   29.5960   34.0820 C   0  0  0  0  0  0  0  0  0  0  0  0
   34.9540   29.9230   33.8660 C   0  0  0  0  0  0  0  0  0  0  0  0
   35.6250   30.7880   34.7040 C   0  0  0  0  0  0  0  0  0  0  0  0
   34.9310   31.3200   35.7690 C   0  0  0  0  0  0  0  0  0  0  0  0
   35.3350   32.1740   36.7290 N   0  0  0  0  0  0  0  0  0  0  0  0
   34.2950   32.3840   37.5300 N   0  0  0  0  0  0  0  0  0  0  0  0
   33.2470   31.6810   37.0960 C   0  0  0  0  0  0  0  0  0  0  0  0
   33.6040   30.9750   35.9580 C   0  0  0  0  0  0  0  0  0  0  0  0
   32.9230   30.1140   35.1300 C   0  0  0  0  0  0  0  0  0  0  0  0
   33.1150   28.9120   33.4070 H   0  0  0  0  0  0  0  0  0  0  0  0
   36.6730   31.0860   34.5890 H   0  0  0  0  0  0  0  0  0  0  0  0
   36.2930   32.6110   36.8450 H   0  0  0  0  0  0  0  0  0  0  0  0
   32.2590   31.6730   37.5780 H   0  0  0  0  0  0  0  0  0  0  0  0
   31.8860   29.8860   35.3340 H   0  0  0  0  0  0  0  0  0  0  0  0
  1 23  1  0  0  0  0
  1  3  1  0  0  0  0
  2  1  2  0  0  0  0
  3  8  1  0  0  0  0
  4  5  1  0  0  0  0
  4  3  2  0  0  0  0
  5  6  2  0  0  0  0
  6  7  1  0  0  0  0
  7 12  1  0  0  0  0
  8  7  2  0  0  0  0
  9  4  1  0  0  0  0
 10  5  1  0  0  0  0
 11 21  1  0  0  0  0
 12 11  2  0  0  0  0
 12 13  1  0  0  0  0
 13 15  2  0  0  0  0
 14 13  1  0  0  0  0
 15 20  1  0  0  0  0
 15 16  1  0  0  0  0
 16 22  1  0  0  0  0
 16 17  1  0  0  0  0
 17 18  1  0  0  0  0
 19 17  2  0  0  0  0
 20 19  1  0  0  0  0
 21 20  2  0  0  0  0
 23 27  1  0  0  0  0
 24 23  2  0  0  0  0
 24 25  1  0  0  0  0
 25 26  2  0  0  0  0
 26 31  1  0  0  0  0
 27 26  1  0  0  0  0
 28 24  1  0  0  0  0
 29 25  1  0  0  0  0
 30 38  1  0  0  0  0
 31 30  2  0  0  0  0
 31 32  1  0  0  0  0
 32 33  2  0  0  0  0
 33 37  1  0  0  0  0
 33 34  1  0  0  0  0
 34 41  1  0  0  0  0
 34 35  1  0  0  0  0
 36 35  2  0  0  0  0
 36 42  1  0  0  0  0
 37 36  1  0  0  0  0
 38 43  1  0  0  0  0
 38 37  2  0  0  0  0
 39 30  1  0  0  0  0
 40 32  1  0  0  0  0
M  END
>  <minimizedAffinity>
-7.00947285

$$$$

 OpenBabel03272507153D

 43 48  0  0  0  0  0  0  0  0999 V2000
   35.7200   25.7510   31.1740 C   0  0  0  0  0  0  0  0  0  0  0  0
   34.5860   25.3500   30.8000 O   0  0  0  0  0  0  0  0  0  0  0  0
   36.8070   24.8540   31.4680 C   0  0  0  0  0  0  0  0  0  0  0  0
   37.4540   24.2470   30.4050 C   0  0  0  0  0  0  0  0  0  0  0  0
   38.5100   23.3720   30.6430 C   0  0  0  0  0  0  0  0  0  0  0  0
   38.8410   23.1680   31.9510 N   0  0  0  0  0  0  0  0  0  0  0  0
   38.2120   23.7560   32.9690 C   0  0  0  0  0  0  0  0  0  0  0  0
   37.1950   24.5990   32.7310 N   0  0  0  0  0  0  0  0  0  0  0  0
   37.1620   24.4350   29.3960 H   0  0  0  0  0  0  0  0  0  0  0  0
   39.0480   22.8740   29.8590 H   0  0  0  0  0  0  0  0  0  0  0  0
   39.6430   22.5850   34.5920 C   0  0  0  0  0  3  0  0  0  0  0  0
   38.6330   23.4800   34.3490 C   0  0  0  0  0  0  0  0  0  0  0  0
   38.0090   24.1280   35.4200 C   0  0  0  0  0  0  0  0  0  0  0  0
   37.1960   24.8500   35.2460 H   0  0  0  0  0  0  0  0  0  0  0  0
   38.4020   23.8710   36.7350 C   0  0  0  0  0  0  0  0  0  0  0  0
   38.0060   24.3220   37.9190 N   0  0  0  0  0  0  0  0  0  0  0  0
   38.7490   23.7200   38.8650 C   0  0  0  0  0  0  0  0  0  0  0  0
   38.6230   23.9180   39.9280 H   0  0  0  0  0  0  0  0  0  0  0  0
   39.6100   22.8940   38.2450 N   0  0  0  0  0  0  0  0  0  0  0  0
   39.4370   22.9500   36.9170 C   0  0  0  0  0  0  0  0  0  0  0  0
   40.0480   22.3160   35.8760 C   0  0  0  0  0  3  0  0  0  0  0  0
   37.2360   25.0320   38.0960 H   0  0  0  0  0  0  0  0  0  0  0  0
   35.9630   27.1750   31.3190 C   0  0  0  0  0  0  0  0  0  0  0  0
   36.5980   27.9060   30.3790 C   0  0  0  0  0  0  0  0  0  0  0  0
   36.6530   29.2200   30.8520 C   0  0  0  0  0  0  0  0  0  0  0  0
   36.0180   29.1990   32.1040 C   0  0  0  0  0  0  0  0  0  0  0  0
   35.6430   27.9690   32.3070 O   0  0  0  0  0  0  0  0  0  0  0  0
   37.0090   27.5750   29.4140 H   0  0  0  0  0  0  0  0  0  0  0  0
   37.1070   30.0140   30.2970 H   0  0  0  0  0  0  0  0  0  0  0  0
   35.9610   31.6650   32.3680 C   0  0  0  0  0  0  0  0  0  0  0  0
   35.8760   30.3950   32.9170 C   0  0  0  0  0  0  0  0  0  0  0  0
   35.6460   30.2090   34.2630 C   0  0  0  0  0  0  0  0  0  0  0  0
   35.5000   31.3300   35.0520 C   0  0  0  0  0  0  0  0  0  0  0  0
   35.2680   31.4370   36.3740 N   0  0  0  0  0  0  0  0  0  0  0  0
   35.2070   32.7350   36.6580 N   0  0  0  0  0  0  0  0  0  0  0  0
   35.3940   33.4450   35.5440 C   0  0  0  0  0  0  0  0  0  0  0  0
   35.5890   32.5850   34.4750 C   0  0  0  0  0  0  0  0  0  0  0  0
   35.8190   32.7840   33.1340 C   0  0  0  0  0  0  0  0  0  0  0  0
   36.1450   31.7880   31.3040 H   0  0  0  0  0  0  0  0  0  0  0  0
   35.5680   29.2350   34.7580 H   0  0  0  0  0  0  0  0  0  0  0  0
   35.1530   30.6530   37.0770 H   0  0  0  0  0  0  0  0  0  0  0  0
   35.3920   34.5430   35.4970 H   0  0  0  0  0  0  0  0  0  0  0  0
   35.8780   33.7920   32.7470 H   0  0  0  0  0  0  0  0  0  0  0  0
  1 23  1  0  0  0  0
  1  3  1  0  0  0  0
  2  1  2  0  0  0  0
  3  8  1  0  0  0  0
  4  5  1  0  0  0  0
  4  3  2  0  0  0  0
  5  6  2  0  0  0  0
  6  7  1  0  0  0  0
  7 12  1  0  0  0  0
  8  7  2  0  0  0  0
  9  4  1  0  0  0  0
 10  5  1  0  0  0  0
 11 21  1  0  0  0  0
 12 11  2  0  0  0  0
 12 13  1  0  0  0  0
 13 15  2  0  0  0  0
 14 13  1  0  0  0  0
 15 20  1  0  0  0  0
 15 16  1  0  0  0  0
 16 22  1  0  0  0  0
 16 17  1  0  0  0  0
 17 18  1  0  0  0  0
 19 17  2  0  0  0  0
 20 19  1  0  0  0  0
 21 20  2  0  0  0  0
 23 27  1  0  0  0  0
 24 25  1  0  0  0  0
 24 23  2  0  0  0  0
 25 26  2  0  0  0  0
 26 27  1  0  0  0  0
 26 31  1  0  0  0  0
 28 24  1  0  0  0  0
 29 25  1  0  0  0  0
 30 31  2  0  0  0  0
 30 38  1  0  0  0  0
 31 32  1  0  0  0  0
 32 40  1  0  0  0  0
 32 33  2  0  0  0  0
 33 34  1  0  0  0  0
 34 35  1  0  0  0  0
 34 41  1  0  0  0  0
 36 35  2  0  0  0  0
 37 33  1  0  0  0  0
 37 36  1  0  0  0  0
 38 37  2  0  0  0  0
 39 30  1  0  0  0  0
 42 36  1  0  0  0  0
 43 38  1  0  0  0  0
M  END
>  <minimizedAffinity>
-6.92652369

$$$$

 OpenBabel03272507153D

 43 48  0  0  0  0  0  0  0  0999 V2000
   38.9400   26.0010   34.6960 C   0  0  0  0  0  0  0  0  0  0  0  0
   40.1580   26.3220   34.6850 O   0  0  0  0  0  0  0  0  0  0  0  0
   38.4790   24.6990   35.1020 C   0  0  0  0  0  0  0  0  0  0  0  0
   38.5060   24.3930   36.4520 C   0  0  0  0  0  0  0  0  0  0  0  0
   38.0700   23.1460   36.8900 C   0  0  0  0  0  0  0  0  0  0  0  0
   37.6350   22.2860   35.9240 N   0  0  0  0  0  0  0  0  0  0  0  0
   37.6120   22.5890   34.6260 C   0  0  0  0  0  0  0  0  0  0  0  0
   38.0340   23.7940   34.2120 N   0  0  0  0  0  0  0  0  0  0  0  0
   38.8560   25.0970   37.1750 H   0  0  0  0  0  0  0  0  0  0  0  0
   38.0680   22.8530   37.9230 H   0  0  0  0  0  0  0  0  0  0  0  0
   36.0700   20.7880   33.9670 C   0  0  0  0  0  3  0  0  0  0  0  0
   37.1270   21.6030   33.6510 C   0  0  0  0  0  0  0  0  0  0  0  0
   37.7380   21.4900   32.3980 C   0  0  0  0  0  0  0  0  0  0  0  0
   38.5880   22.1340   32.1240 H   0  0  0  0  0  0  0  0  0  0  0  0
   37.2830   20.5550   31.4660 C   0  0  0  0  0  0  0  0  0  0  0  0
   37.6530   20.2290   30.2330 N   0  0  0  0  0  0  0  0  0  0  0  0
   36.8480   19.2410   29.8030 C   0  0  0  0  0  0  0  0  0  0  0  0
   36.9420   18.7920   28.8150 H   0  0  0  0  0  0  0  0  0  0  0  0
   35.9750   18.9650   30.7880 N   0  0  0  0  0  0  0  0  0  0  0  0
   36.2020   19.7550   31.8470 C   0  0  0  0  0  0  0  0  0  0  0  0
   35.6040   19.8620   33.0680 C   0  0  0  0  0  3  0  0  0  0  0  0
   38.4460   20.6670   29.6780 H   0  0  0  0  0  0  0  0  0  0  0  0
   37.9410   26.9720   34.2850 C   0  0  0  0  0  0  0  0  0  0  0  0
   37.5600   27.1260   33.0000 C   0  0  0  0  0  0  0  0  0  0  0  0
   36.5950   28.1380   32.9780 C   0  0  0  0  0  0  0  0  0  0  0  0
   36.4490   28.5490   34.3130 C   0  0  0  0  0  0  0  0  0  0  0  0
   37.2690   27.8220   35.0160 O   0  0  0  0  0  0  0  0  0  0  0  0
   37.9110   26.5830   32.1100 H   0  0  0  0  0  0  0  0  0  0  0  0
   36.1210   28.4620   32.0760 H   0  0  0  0  0  0  0  0  0  0  0  0
   34.2410   29.6720   34.1750 C   0  0  0  0  0  0  0  0  0  0  0  0
   35.5230   29.6010   34.6980 C   0  0  0  0  0  0  0  0  0  0  0  0
   35.9760   30.5240   35.6160 C   0  0  0  0  0  0  0  0  0  0  0  0
   35.1110   31.5250   36.0020 C   0  0  0  0  0  0  0  0  0  0  0  0
   35.2890   32.5400   36.8700 N   0  0  0  0  0  0  0  0  0  0  0  0
   34.1550   33.2340   36.8990 N   0  0  0  0  0  0  0  0  0  0  0  0
   33.2690   32.6790   36.0690 C   0  0  0  0  0  0  0  0  0  0  0  0
   33.8370   31.5700   35.4620 C   0  0  0  0  0  0  0  0  0  0  0  0
   33.3730   30.6560   34.5460 C   0  0  0  0  0  0  0  0  0  0  0  0
   33.9050   28.9330   33.4510 H   0  0  0  0  0  0  0  0  0  0  0  0
   36.9740   30.5240   36.0650 H   0  0  0  0  0  0  0  0  0  0  0  0
   36.1570   32.7640   37.4340 H   0  0  0  0  0  0  0  0  0  0  0  0
   32.2500   33.0560   35.9040 H   0  0  0  0  0  0  0  0  0  0  0  0
   32.3660   30.7480   34.1640 H   0  0  0  0  0  0  0  0  0  0  0  0
  1  3  1  0  0  0  0
  2  1  2  0  0  0  0
  3  4  1  0  0  0  0
  4  5  2  0  0  0  0
  4  9  1  0  0  0  0
  5 10  1  0  0  0  0
  6  5  1  0  0  0  0
  7  6  2  0  0  0  0
  8  7  1  0  0  0  0
  8  3  2  0  0  0  0
 12 11  1  0  0  0  0
 12  7  1  0  0  0  0
 13 12  2  0  0  0  0
 14 13  1  0  0  0  0
 15 20  2  0  0  0  0
 15 13  1  0  0  0  0
 16 15  1  0  0  0  0
 17 16  1  0  0  0  0
 17 19  2  0  0  0  0
 18 17  1  0  0  0  0
 19 20  1  0  0  0  0
 20 21  1  0  0  0  0
 21 11  2  0  0  0  0
 22 16  1  0  0  0  0
 23  1  1  0  0  0  0
 23 27  1  0  0  0  0
 24 23  2  0  0  0  0
 25 24  1  0  0  0  0
 25 26  2  0  0  0  0
 26 31  1  0  0  0  0
 26 27  1  0  0  0  0
 28 24  1  0  0  0  0
 29 25  1  0  0  0  0
 30 38  2  0  0  0  0
 30 31  1  0  0  0  0
 31 32  2  0  0  0  0
 32 33  1  0  0  0  0
 32 40  1  0  0  0  0
 33 34  1  0  0  0  0
 34 35  1  0  0  0  0
 34 41  1  0  0  0  0
 36 35  2  0  0  0  0
 37 33  2  0  0  0  0
 37 36  1  0  0  0  0
 38 37  1  0  0  0  0
 39 30  1  0  0  0  0
 42 36  1  0  0  0  0
 43 38  1  0  0  0  0
M  END
>  <minimizedAffinity>
-6.84199953

$$$$

 OpenBabel03272507153D

 43 48  0  0  0  0  0  0  0  0999 V2000
   38.9720   25.9670   34.8820 C   0  0  0  0  0  0  0  0  0  0  0  0
   40.1470   26.3500   35.1240 O   0  0  0  0  0  0  0  0  0  0  0  0
   38.4780   24.6710   35.2670 C   0  0  0  0  0  0  0  0  0  0  0  0
   38.4630   24.3560   36.6160 C   0  0  0  0  0  0  0  0  0  0  0  0
   37.9940   23.1140   37.0330 C   0  0  0  0  0  0  0  0  0  0  0  0
   37.5720   22.2670   36.0500 N   0  0  0  0  0  0  0  0  0  0  0  0
   37.5910   22.5780   34.7540 C   0  0  0  0  0  0  0  0  0  0  0  0
   38.0440   23.7780   34.3590 N   0  0  0  0  0  0  0  0  0  0  0  0
   38.8030   25.0500   37.3520 H   0  0  0  0  0  0  0  0  0  0  0  0
   37.9580   22.8150   38.0640 H   0  0  0  0  0  0  0  0  0  0  0  0
   36.0220   20.8250   34.0300 C   0  0  0  0  0  3  0  0  0  0  0  0
   37.1170   21.6060   33.7590 C   0  0  0  0  0  0  0  0  0  0  0  0
   37.7770   21.4720   32.5340 C   0  0  0  0  0  0  0  0  0  0  0  0
   38.6570   22.0890   32.2960 H   0  0  0  0  0  0  0  0  0  0  0  0
   37.3330   20.5510   31.5830 C   0  0  0  0  0  0  0  0  0  0  0  0
   37.7450   20.2110   30.3670 N   0  0  0  0  0  0  0  0  0  0  0  0
   36.9280   19.2480   29.9030 C   0  0  0  0  0  0  0  0  0  0  0  0
   37.0500   18.7940   28.9210 H   0  0  0  0  0  0  0  0  0  0  0  0
   36.0060   19.0010   30.8510 N   0  0  0  0  0  0  0  0  0  0  0  0
   36.2130   19.7850   31.9180 C   0  0  0  0  0  0  0  0  0  0  0  0
   35.5660   19.9130   33.1120 C   0  0  0  0  0  3  0  0  0  0  0  0
   38.5740   20.6230   29.8470 H   0  0  0  0  0  0  0  0  0  0  0  0
   38.0580   26.8580   34.1870 C   0  0  0  0  0  0  0  0  0  0  0  0
   38.0750   27.0170   32.8470 C   0  0  0  0  0  0  0  0  0  0  0  0
   37.0710   27.9380   32.5340 C   0  0  0  0  0  0  0  0  0  0  0  0
   36.4860   28.2920   33.7600 C   0  0  0  0  0  0  0  0  0  0  0  0
   37.1170   27.6200   34.6790 O   0  0  0  0  0  0  0  0  0  0  0  0
   38.7320   26.5370   32.1070 H   0  0  0  0  0  0  0  0  0  0  0  0
   36.8670   28.2480   31.5300 H   0  0  0  0  0  0  0  0  0  0  0  0
   35.3660   30.2460   34.8010 C   0  0  0  0  0  0  0  0  0  0  0  0
   35.3900   29.2430   33.8440 C   0  0  0  0  0  0  0  0  0  0  0  0
   34.3750   29.1070   32.9220 C   0  0  0  0  0  0  0  0  0  0  0  0
   33.3300   30.0030   32.9790 C   0  0  0  0  0  0  0  0  0  0  0  0
   32.2270   30.1010   32.2120 N   0  0  0  0  0  0  0  0  0  0  0  0
   31.5230   31.1340   32.6660 N   0  0  0  0  0  0  0  0  0  0  0  0
   32.1590   31.6880   33.7000 C   0  0  0  0  0  0  0  0  0  0  0  0
   33.3340   30.9940   33.9460 C   0  0  0  0  0  0  0  0  0  0  0  0
   34.3400   31.1410   34.8710 C   0  0  0  0  0  0  0  0  0  0  0  0
   36.1780   30.3340   35.5200 H   0  0  0  0  0  0  0  0  0  0  0  0
   34.3340   28.3380   32.1430 H   0  0  0  0  0  0  0  0  0  0  0  0
   31.9490   29.4840   31.3960 H   0  0  0  0  0  0  0  0  0  0  0  0
   31.7940   32.5590   34.2610 H   0  0  0  0  0  0  0  0  0  0  0  0
   34.2820   31.9370   35.6010 H   0  0  0  0  0  0  0  0  0  0  0  0
  1  2  2  0  0  0  0
  1  3  1  0  0  0  0
  3  4  1  0  0  0  0
  4  5  2  0  0  0  0
  4  9  1  0  0  0  0
  5 10  1  0  0  0  0
  6  5  1  0  0  0  0
  7  6  2  0  0  0  0
  8  7  1  0  0  0  0
  8  3  2  0  0  0  0
 12 11  1  0  0  0  0
 12  7  1  0  0  0  0
 13 12  2  0  0  0  0
 14 13  1  0  0  0  0
 15 20  2  0  0  0  0
 15 13  1  0  0  0  0
 16 15  1  0  0  0  0
 17 16  1  0  0  0  0
 17 19  2  0  0  0  0
 18 17  1  0  0  0  0
 19 20  1  0  0  0  0
 20 21  1  0  0  0  0
 21 11  2  0  0  0  0
 22 16  1  0  0  0  0
 23 27  1  0  0  0  0
 23  1  1  0  0  0  0
 24 23  2  0  0  0  0
 25 24  1  0  0  0  0
 25 26  2  0  0  0  0
 26 31  1  0  0  0  0
 26 27  1  0  0  0  0
 28 24  1  0  0  0  0
 29 25  1  0  0  0  0
 30 38  1  0  0  0  0
 30 39  1  0  0  0  0
 31 30  2  0  0  0  0
 32 33  2  0  0  0  0
 32 31  1  0  0  0  0
 33 37  1  0  0  0  0
 34 35  1  0  0  0  0
 34 33  1  0  0  0  0
 35 36  2  0  0  0  0
 36 37  1  0  0  0  0
 36 42  1  0  0  0  0
 37 38  2  0  0  0  0
 38 43  1  0  0  0  0
 40 32  1  0  0  0  0
 41 34  1  0  0  0  0
M  END
>  <minimizedAffinity>
-6.77144861

$$$$

 OpenBabel03272507153D

 43 48  0  0  0  0  0  0  0  0999 V2000
   36.1030   26.3960   31.1670 C   0  0  0  0  0  0  0  0  0  0  0  0
   35.2040   25.9220   30.4230 O   0  0  0  0  0  0  0  0  0  0  0  0
   37.3150   25.6850   31.4780 C   0  0  0  0  0  0  0  0  0  0  0  0
   38.2080   25.4430   30.4470 C   0  0  0  0  0  0  0  0  0  0  0  0
   39.3930   24.7580   30.7020 C   0  0  0  0  0  0  0  0  0  0  0  0
   39.5940   24.3610   31.9920 N   0  0  0  0  0  0  0  0  0  0  0  0
   38.7290   24.5980   32.9780 C   0  0  0  0  0  0  0  0  0  0  0  0
   37.5890   25.2590   32.7240 N   0  0  0  0  0  0  0  0  0  0  0  0
   38.0100   25.7720   29.4520 H   0  0  0  0  0  0  0  0  0  0  0  0
   40.1220   24.5420   29.9440 H   0  0  0  0  0  0  0  0  0  0  0  0
   40.1660   23.4170   34.5890 C   0  0  0  0  0  3  0  0  0  0  0  0
   39.0240   24.1340   34.3400 C   0  0  0  0  0  0  0  0  0  0  0  0
   38.1450   24.4210   35.3890 C   0  0  0  0  0  0  0  0  0  0  0  0
   37.2220   24.9950   35.2120 H   0  0  0  0  0  0  0  0  0  0  0  0
   38.4180   23.9840   36.6870 C   0  0  0  0  0  0  0  0  0  0  0  0
   37.7880   24.1020   37.8500 N   0  0  0  0  0  0  0  0  0  0  0  0
   38.5210   23.4750   38.7880 C   0  0  0  0  0  0  0  0  0  0  0  0
   38.2230   23.4250   39.8340 H   0  0  0  0  0  0  0  0  0  0  0  0
   39.6120   22.9700   38.1850 N   0  0  0  0  0  0  0  0  0  0  0  0
   39.5970   23.2590   36.8760 C   0  0  0  0  0  0  0  0  0  0  0  0
   40.4570   22.9770   35.8550 C   0  0  0  0  0  3  0  0  0  0  0  0
   36.8660   24.6020   38.0180 H   0  0  0  0  0  0  0  0  0  0  0  0
   35.9290   27.7170   31.7450 C   0  0  0  0  0  0  0  0  0  0  0  0
   36.2460   28.8500   31.0830 C   0  0  0  0  0  0  0  0  0  0  0  0
   35.9500   29.9170   31.9370 C   0  0  0  0  0  0  0  0  0  0  0  0
   35.4510   29.3350   33.1120 C   0  0  0  0  0  0  0  0  0  0  0  0
   35.4690   28.0470   32.9240 O   0  0  0  0  0  0  0  0  0  0  0  0
   36.6590   28.9600   30.0700 H   0  0  0  0  0  0  0  0  0  0  0  0
   36.1080   30.9380   31.6580 H   0  0  0  0  0  0  0  0  0  0  0  0
   35.9310   30.8840   34.9900 C   0  0  0  0  0  0  0  0  0  0  0  0
   35.0290   30.1350   34.2500 C   0  0  0  0  0  0  0  0  0  0  0  0
   33.6850   30.1210   34.5570 C   0  0  0  0  0  0  0  0  0  0  0  0
   33.2620   30.8790   35.6270 C   0  0  0  0  0  0  0  0  0  0  0  0
   32.0270   31.0480   36.1370 N   0  0  0  0  0  0  0  0  0  0  0  0
   32.1390   31.8790   37.1690 N   0  0  0  0  0  0  0  0  0  0  0  0
   33.4160   32.2360   37.3190 C   0  0  0  0  0  0  0  0  0  0  0  0
   34.1860   31.6170   36.3470 C   0  0  0  0  0  0  0  0  0  0  0  0
   35.5290   31.6390   36.0510 C   0  0  0  0  0  0  0  0  0  0  0  0
   36.9870   30.8790   34.7300 H   0  0  0  0  0  0  0  0  0  0  0  0
   32.9230   29.5520   34.0140 H   0  0  0  0  0  0  0  0  0  0  0  0
   31.1220   30.6120   35.8000 H   0  0  0  0  0  0  0  0  0  0  0  0
   33.7850   32.9180   38.0980 H   0  0  0  0  0  0  0  0  0  0  0  0
   36.1980   32.2370   36.6540 H   0  0  0  0  0  0  0  0  0  0  0  0
  1  3  1  0  0  0  0
  1 23  1  0  0  0  0
  2  1  2  0  0  0  0
  3  8  1  0  0  0  0
  4  5  1  0  0  0  0
  4  3  2  0  0  0  0
  5  6  2  0  0  0  0
  6  7  1  0  0  0  0
  7 12  1  0  0  0  0
  8  7  2  0  0  0  0
  9  4  1  0  0  0  0
 10  5  1  0  0  0  0
 11 21  1  0  0  0  0
 12 11  2  0  0  0  0
 12 13  1  0  0  0  0
 13 15  2  0  0  0  0
 14 13  1  0  0  0  0
 15 20  1  0  0  0  0
 15 16  1  0  0  0  0
 16 22  1  0  0  0  0
 16 17  1  0  0  0  0
 17 18  1  0  0  0  0
 19 17  2  0  0  0  0
 20 19  1  0  0  0  0
 21 20  2  0  0  0  0
 23 27  1  0  0  0  0
 24 23  2  0  0  0  0
 24 25  1  0  0  0  0
 25 26  2  0  0  0  0
 26 31  1  0  0  0  0
 27 26  1  0  0  0  0
 28 24  1  0  0  0  0
 29 25  1  0  0  0  0
 30 38  1  0  0  0  0
 31 32  1  0  0  0  0
 31 30  2  0  0  0  0
 32 33  2  0  0  0  0
 33 34  1  0  0  0  0
 33 37  1  0  0  0  0
 34 35  1  0  0  0  0
 35 36  2  0  0  0  0
 36 42  1  0  0  0  0
 37 36  1  0  0  0  0
 38 37  2  0  0  0  0
 38 43  1  0  0  0  0
 39 30  1  0  0  0  0
 40 32  1  0  0  0  0
 41 34  1  0  0  0  0
M  END
>  <minimizedAffinity>
-6.77046299

$$$$

 OpenBabel03272507153D

 43 48  0  0  0  0  0  0  0  0999 V2000
   36.3270   27.1480   31.9440 C   0  0  0  0  0  0  0  0  0  0  0  0
   35.6250   26.3300   31.2910 O   0  0  0  0  0  0  0  0  0  0  0  0
   36.0660   28.5630   31.9580 C   0  0  0  0  0  0  0  0  0  0  0  0
   36.2660   29.2720   30.7840 C   0  0  0  0  0  0  0  0  0  0  0  0
   36.0270   30.6420   30.7520 C   0  0  0  0  0  0  0  0  0  0  0  0
   35.6010   31.2080   31.9180 N   0  0  0  0  0  0  0  0  0  0  0  0
   35.4120   30.5190   33.0430 C   0  0  0  0  0  0  0  0  0  0  0  0
   35.6440   29.1970   33.0660 N   0  0  0  0  0  0  0  0  0  0  0  0
   36.6010   28.7880   29.8930 H   0  0  0  0  0  0  0  0  0  0  0  0
   36.1640   31.2420   29.8720 H   0  0  0  0  0  0  0  0  0  0  0  0
   35.7900   31.3390   35.3320 C   0  0  0  0  0  3  0  0  0  0  0  0
   34.9500   31.2070   34.2560 C   0  0  0  0  0  0  0  0  0  0  0  0
   33.6550   31.7300   34.3210 C   0  0  0  0  0  0  0  0  0  0  0  0
   32.9640   31.6350   33.4690 H   0  0  0  0  0  0  0  0  0  0  0  0
   33.2080   32.3860   35.4700 C   0  0  0  0  0  0  0  0  0  0  0  0
   32.0650   32.9690   35.8130 N   0  0  0  0  0  0  0  0  0  0  0  0
   32.1980   33.4450   37.0630 C   0  0  0  0  0  0  0  0  0  0  0  0
   31.3970   33.9710   37.5820 H   0  0  0  0  0  0  0  0  0  0  0  0
   33.4390   33.1480   37.4860 N   0  0  0  0  0  0  0  0  0  0  0  0
   34.1110   32.4890   36.5320 C   0  0  0  0  0  0  0  0  0  0  0  0
   35.3750   31.9790   36.4730 C   0  0  0  0  0  3  0  0  0  0  0  0
   31.1950   33.0480   35.2090 H   0  0  0  0  0  0  0  0  0  0  0  0
   37.4520   26.6610   32.7230 C   0  0  0  0  0  0  0  0  0  0  0  0
   38.6900   27.1870   32.6220 C   0  0  0  0  0  0  0  0  0  0  0  0
   39.5080   26.4790   33.5070 C   0  0  0  0  0  0  0  0  0  0  0  0
   38.6730   25.5260   34.1140 C   0  0  0  0  0  0  0  0  0  0  0  0
   37.4880   25.6950   33.6040 O   0  0  0  0  0  0  0  0  0  0  0  0
   39.0350   28.0130   31.9820 H   0  0  0  0  0  0  0  0  0  0  0  0
   40.5490   26.6940   33.6270 H   0  0  0  0  0  0  0  0  0  0  0  0
   38.4440   24.2840   36.2490 C   0  0  0  0  0  0  0  0  0  0  0  0
   39.1690   24.5890   35.1070 C   0  0  0  0  0  0  0  0  0  0  0  0
   40.3950   24.0090   34.8590 C   0  0  0  0  0  0  0  0  0  0  0  0
   40.8800   23.1100   35.7840 C   0  0  0  0  0  0  0  0  0  0  0  0
   42.0290   22.4060   35.7910 N   0  0  0  0  0  0  0  0  0  0  0  0
   42.0340   21.6760   36.9030 N   0  0  0  0  0  0  0  0  0  0  0  0
   40.9150   21.9040   37.5930 C   0  0  0  0  0  0  0  0  0  0  0  0
   40.1330   22.8260   36.9140 C   0  0  0  0  0  0  0  0  0  0  0  0
   38.9100   23.3970   37.1740 C   0  0  0  0  0  0  0  0  0  0  0  0
   37.4800   24.7540   36.4250 H   0  0  0  0  0  0  0  0  0  0  0  0
   41.0160   24.2070   33.9790 H   0  0  0  0  0  0  0  0  0  0  0  0
   42.7980   22.4160   35.0630 H   0  0  0  0  0  0  0  0  0  0  0  0
   40.6670   21.4270   38.5510 H   0  0  0  0  0  0  0  0  0  0  0  0
   38.3780   23.1310   38.0770 H   0  0  0  0  0  0  0  0  0  0  0  0
  1  3  1  0  0  0  0
  1 23  1  0  0  0  0
  2  1  2  0  0  0  0
  3  8  1  0  0  0  0
  4  3  2  0  0  0  0
  5  4  1  0  0  0  0
  5  6  2  0  0  0  0
  6  7  1  0  0  0  0
  7  8  2  0  0  0  0
  7 12  1  0  0  0  0
  9  4  1  0  0  0  0
 10  5  1  0  0  0  0
 11 21  1  0  0  0  0
 12 13  1  0  0  0  0
 12 11  2  0  0  0  0
 13 15  2  0  0  0  0
 14 13  1  0  0  0  0
 15 16  1  0  0  0  0
 15 20  1  0  0  0  0
 16 17  1  0  0  0  0
 17 19  2  0  0  0  0
 17 18  1  0  0  0  0
 20 19  1  0  0  0  0
 21 20  2  0  0  0  0
 22 16  1  0  0  0  0
 23 27  1  0  0  0  0
 24 23  2  0  0  0  0
 24 25  1  0  0  0  0
 25 29  1  0  0  0  0
 25 26  2  0  0  0  0
 26 31  1  0  0  0  0
 27 26  1  0  0  0  0
 28 24  1  0  0  0  0
 30 39  1  0  0  0  0
 30 38  1  0  0  0  0
 31 30  2  0  0  0  0
 32 31  1  0  0  0  0
 32 33  2  0  0  0  0
 33 34  1  0  0  0  0
 33 37  1  0  0  0  0
 34 35  1  0  0  0  0
 35 36  2  0  0  0  0
 36 42  1  0  0  0  0
 37 38  2  0  0  0  0
 37 36  1  0  0  0  0
 38 43  1  0  0  0  0
 40 32  1  0  0  0  0
 41 34  1  0  0  0  0
M  END
>  <minimizedAffinity>
-6.66455221

$$$$
