
     RDKit          3D

 26 28  0  0  0  0  0  0  0  0999 V2000
   38.3051   31.2387   50.1157 C   0  0  0  0  0  0  0  0  0  0  0  0
   38.2898   31.6108   48.7699 C   0  0  0  0  0  0  0  0  0  0  0  0
   37.2018   31.2228   48.0026 C   0  0  0  0  0  0  0  0  0  0  0  0
   36.2164   30.5079   48.5927 N   0  0  0  0  0  0  0  0  0  0  0  0
   36.2625   30.1632   49.9023 C   0  0  0  0  0  0  0  0  0  0  0  0
   37.3121   30.5344   50.6536 N   0  0  0  0  0  0  0  0  0  0  0  0
   35.1238   29.3786   50.4374 C   0  0  0  0  0  0  0  0  0  0  0  0
   35.2608   29.1296   51.8010 F   0  0  0  0  0  0  0  0  0  0  0  0
   33.9243   30.0622   50.3016 F   0  0  0  0  0  0  0  0  0  0  0  0
   34.9524   28.1637   49.8270 F   0  0  0  0  0  0  0  0  0  0  0  0
   39.1747   31.5635   50.6771 H   0  0  0  0  0  0  0  0  0  0  0  0
   39.0781   32.1724   48.3341 H   0  0  0  0  0  0  0  0  0  0  0  0
   37.9012   32.5271   46.0874 C   0  0  0  0  0  0  0  0  0  0  0  0
   37.0702   31.5486   46.5918 C   0  0  0  0  0  0  0  0  0  0  0  0
   36.1827   30.9481   45.7519 C   0  0  0  0  0  0  0  0  0  0  0  0
   35.5286   30.1912   46.1073 H   0  0  0  0  0  0  0  0  0  0  0  0
   36.0613   31.2618   44.4093 C   0  0  0  0  0  0  0  0  0  0  0  0
   35.2557   30.7890   43.4228 N   0  0  0  0  0  0  0  0  0  0  0  0
   35.5818   31.4697   42.3051 C   0  0  0  0  0  0  0  0  0  0  0  0
   35.0482   31.2397   41.3938 H   0  0  0  0  0  0  0  0  0  0  0  0
   36.5720   32.3517   42.5851 N   0  0  0  0  0  0  0  0  0  0  0  0
   36.8966   32.2505   43.8866 C   0  0  0  0  0  0  0  0  0  0  0  0
   37.8080   32.8711   44.7372 C   0  0  0  0  0  0  0  0  0  0  0  0
   38.6509   33.0851   46.6395 H   0  0  0  0  0  0  0  0  0  0  0  0
   34.5266   30.0289   43.5606 H   0  0  0  0  0  0  0  0  0  0  0  0
   38.3987   33.6165   44.2245 H   0  0  0  0  0  0  0  0  0  0  0  0
  1  6  2  0
  2  1  1  0
  3  4  1  0
  3  2  2  0
  4  5  2  0
  5  7  1  0
  5  6  1  0
  7  8  1  0
  9  7  1  0
 10  7  1  0
  1 11  1  0
  2 12  1  0
 13 14  2  0
 14 15  1  0
 15 16  1  0
 15 17  2  0
 17 18  1  0
 18 19  1  0
 19 20  1  0
 19 21  2  0
 21 22  1  0
 22 23  2  0
 23 13  1  0
 22 17  1  0
 13 24  1  0
 18 25  1  0
 23 26  1  0
  3 14  1  0
M  ISO  4  11  14  12  14  16  15  20  14
M  END
>  <DihAtoms>  (1) 
3,2,13,12

>  <DihDeg>  (1) 
0.0009976429068668244

$$$$
