
 OpenBabel03272505013D

 31 34  0  0  0  0  0  0  0  0999 V2000
   38.2100   27.1510   33.5070 Cl  0  0  0  0  0  0  0  0  0  0  0  0
   37.2620   25.9760   32.6430 C   0  0  0  0  0  0  0  0  0  0  0  0
   36.2710   26.4200   31.8070 C   0  0  0  0  0  0  0  0  0  0  0  0
   35.5380   25.4290   31.1340 C   0  0  0  0  0  0  0  0  0  0  0  0
   35.8350   24.0910   31.3370 C   0  0  0  0  0  0  0  0  0  0  0  0
   36.8330   23.6880   32.1800 C   0  0  0  0  0  0  0  0  0  0  0  0
   37.5560   24.6600   32.8420 C   0  0  0  0  0  0  0  0  0  0  0  0
   34.7480   25.7800   30.4690 H   0  0  0  0  0  0  0  0  0  0  0  0
   35.2220   23.4040   30.7800 H   0  0  0  0  0  0  0  0  0  0  0  0
   37.0240   22.6380   32.3010 H   0  0  0  0  0  0  0  0  0  0  0  0
   39.9550   24.1090   33.4250 C   0  0  0  0  0  3  0  0  0  0  0  0
   38.6100   24.1810   33.7310 C   0  0  0  0  0  0  0  0  0  0  0  0
   38.2240   23.7700   34.9790 C   0  0  0  0  0  0  0  0  0  0  0  0
   37.1840   23.8000   35.2850 H   0  0  0  0  0  0  0  0  0  0  0  0
   39.0890   23.2910   35.9420 C   0  0  0  0  0  0  0  0  0  0  0  0
   38.9570   22.8350   37.2150 N   0  0  0  0  0  0  0  0  0  0  0  0
   40.1870   22.4880   37.6860 C   0  0  0  0  0  0  0  0  0  0  0  0
   40.3090   22.0960   38.6920 H   0  0  0  0  0  0  0  0  0  0  0  0
   41.0810   22.7270   36.7090 N   0  0  0  0  0  0  0  0  0  0  0  0
   40.4480   23.2210   35.6210 C   0  0  0  0  0  0  0  0  0  0  0  0
   40.8450   23.6340   34.3670 C   0  0  0  0  0  3  0  0  0  0  0  0
   38.0170   22.7870   37.6950 H   0  0  0  0  0  0  0  0  0  0  0  0
   35.0460   28.5100   32.4130 C   0  0  0  0  0  0  0  0  0  0  0  0
   35.9480   27.8220   31.5860 C   0  0  0  0  0  0  0  0  0  0  0  0
   36.5260   28.5390   30.5340 C   0  0  0  0  0  0  0  0  0  0  0  0
   36.1870   29.8440   30.3770 N   0  0  0  0  0  0  0  0  0  0  0  0
   35.3210   30.4700   31.1860 C   0  0  0  0  0  0  0  0  0  0  0  0
   34.7460   29.8030   32.2100 N   0  0  0  0  0  0  0  0  0  0  0  0
   34.5730   27.9960   33.2400 H   0  0  0  0  0  0  0  0  0  0  0  0
   37.2280   28.0140   29.8870 H   0  0  0  0  0  0  0  0  0  0  0  0
   35.1850   31.4970   30.8970 H   0  0  0  0  0  0  0  0  0  0  0  0
  2  7  1  0  0  0  0
  2  1  1  0  0  0  0
  3  2  2  0  0  0  0
  4  5  2  0  0  0  0
  4  3  1  0  0  0  0
  5  6  1  0  0  0  0
  6 10  1  0  0  0  0
  6  7  2  0  0  0  0
  7 12  1  0  0  0  0
  8  4  1  0  0  0  0
  9  5  1  0  0  0  0
 11 12  2  0  0  0  0
 11 21  1  0  0  0  0
 12 13  1  0  0  0  0
 13 14  1  0  0  0  0
 13 15  2  0  0  0  0
 15 16  1  0  0  0  0
 16 17  1  0  0  0  0
 16 22  1  0  0  0  0
 17 18  1  0  0  0  0
 19 17  2  0  0  0  0
 20 15  1  0  0  0  0
 20 19  1  0  0  0  0
 21 20  2  0  0  0  0
 23 29  1  0  0  0  0
 24  3  1  0  0  0  0
 24 23  2  0  0  0  0
 25 24  1  0  0  0  0
 26 25  2  0  0  0  0
 26 27  1  0  0  0  0
 27 28  2  0  0  0  0
 28 23  1  0  0  0  0
 30 25  1  0  0  0  0
 31 27  1  0  0  0  0
M  END
>  <minimizedAffinity>
-5.56521797

$$$$

 OpenBabel03272505013D

 31 34  0  0  0  0  0  0  0  0999 V2000
   38.3690   27.0290   33.3840 Cl  0  0  0  0  0  0  0  0  0  0  0  0
   37.3490   25.8590   32.5980 C   0  0  0  0  0  0  0  0  0  0  0  0
   36.3450   26.3080   31.7810 C   0  0  0  0  0  0  0  0  0  0  0  0
   35.5540   25.3210   31.1720 C   0  0  0  0  0  0  0  0  0  0  0  0
   35.8110   23.9810   31.4140 C   0  0  0  0  0  0  0  0  0  0  0  0
   36.8230   23.5720   32.2360 C   0  0  0  0  0  0  0  0  0  0  0  0
   37.6030   24.5410   32.8360 C   0  0  0  0  0  0  0  0  0  0  0  0
   34.7530   25.6760   30.5220 H   0  0  0  0  0  0  0  0  0  0  0  0
   35.1540   23.2970   30.9050 H   0  0  0  0  0  0  0  0  0  0  0  0
   36.9810   22.5210   32.3910 H   0  0  0  0  0  0  0  0  0  0  0  0
   40.0030   23.9340   33.3590 C   0  0  0  0  0  3  0  0  0  0  0  0
   38.6710   24.0560   33.7060 C   0  0  0  0  0  0  0  0  0  0  0  0
   38.3130   23.6940   34.9770 C   0  0  0  0  0  0  0  0  0  0  0  0
   37.2850   23.7650   35.3150 H   0  0  0  0  0  0  0  0  0  0  0  0
   39.1950   23.2170   35.9270 C   0  0  0  0  0  0  0  0  0  0  0  0
   39.0910   22.8030   37.2170 N   0  0  0  0  0  0  0  0  0  0  0  0
   40.3250   22.4320   37.6590 C   0  0  0  0  0  0  0  0  0  0  0  0
   40.4670   22.0670   38.6720 H   0  0  0  0  0  0  0  0  0  0  0  0
   41.1940   22.6150   36.6470 N   0  0  0  0  0  0  0  0  0  0  0  0
   40.5410   23.0970   35.5650 C   0  0  0  0  0  0  0  0  0  0  0  0
   40.9080   23.4590   34.2870 C   0  0  0  0  0  3  0  0  0  0  0  0
   38.1660   22.7980   37.7270 H   0  0  0  0  0  0  0  0  0  0  0  0
   36.6260   28.3840   30.4220 C   0  0  0  0  0  0  0  0  0  0  0  0
   36.0640   27.7120   31.5180 C   0  0  0  0  0  0  0  0  0  0  0  0
   35.2200   28.4470   32.3550 C   0  0  0  0  0  0  0  0  0  0  0  0
   34.9950   29.7530   32.0610 N   0  0  0  0  0  0  0  0  0  0  0  0
   35.5480   30.3640   31.0040 C   0  0  0  0  0  0  0  0  0  0  0  0
   36.3690   29.6790   30.1790 N   0  0  0  0  0  0  0  0  0  0  0  0
   37.2870   27.8550   29.7460 H   0  0  0  0  0  0  0  0  0  0  0  0
   34.7780   27.9340   33.2090 H   0  0  0  0  0  0  0  0  0  0  0  0
   35.2480   31.3950   30.9430 H   0  0  0  0  0  0  0  0  0  0  0  0
  2  7  1  0  0  0  0
  2  1  1  0  0  0  0
  3  2  2  0  0  0  0
  4  5  2  0  0  0  0
  4  3  1  0  0  0  0
  5  6  1  0  0  0  0
  6 10  1  0  0  0  0
  6  7  2  0  0  0  0
  7 12  1  0  0  0  0
  8  4  1  0  0  0  0
  9  5  1  0  0  0  0
 11 12  2  0  0  0  0
 11 21  1  0  0  0  0
 12 13  1  0  0  0  0
 13 14  1  0  0  0  0
 13 15  2  0  0  0  0
 15 16  1  0  0  0  0
 16 17  1  0  0  0  0
 16 22  1  0  0  0  0
 17 18  1  0  0  0  0
 19 17  2  0  0  0  0
 20 15  1  0  0  0  0
 20 19  1  0  0  0  0
 21 20  2  0  0  0  0
 23 24  1  0  0  0  0
 24  3  1  0  0  0  0
 24 25  2  0  0  0  0
 25 30  1  0  0  0  0
 26 25  1  0  0  0  0
 27 26  2  0  0  0  0
 28 23  2  0  0  0  0
 28 27  1  0  0  0  0
 29 23  1  0  0  0  0
 31 27  1  0  0  0  0
M  END
>  <minimizedAffinity>
-5.53220654

$$$$

 OpenBabel03272505013D

 31 34  0  0  0  0  0  0  0  0999 V2000
   36.1610   30.3120   31.7010 Cl  0  0  0  0  0  0  0  0  0  0  0  0
   36.6900   28.8810   32.5360 C   0  0  0  0  0  0  0  0  0  0  0  0
   37.5710   28.0420   31.9050 C   0  0  0  0  0  0  0  0  0  0  0  0
   37.9660   26.9030   32.6260 C   0  0  0  0  0  0  0  0  0  0  0  0
   37.4640   26.6800   33.8980 C   0  0  0  0  0  0  0  0  0  0  0  0
   36.5870   27.5420   34.4940 C   0  0  0  0  0  0  0  0  0  0  0  0
   36.1980   28.6630   33.7880 C   0  0  0  0  0  0  0  0  0  0  0  0
   38.6660   26.2330   32.1250 H   0  0  0  0  0  0  0  0  0  0  0  0
   37.8220   25.7830   34.3730 H   0  0  0  0  0  0  0  0  0  0  0  0
   36.2280   27.3250   35.4830 H   0  0  0  0  0  0  0  0  0  0  0  0
   33.8820   29.5100   34.3560 C   0  0  0  0  0  3  0  0  0  0  0  0
   35.2590   29.5530   34.4650 C   0  0  0  0  0  0  0  0  0  0  0  0
   35.7980   30.5130   35.2800 C   0  0  0  0  0  0  0  0  0  0  0  0
   36.8710   30.6030   35.4110 H   0  0  0  0  0  0  0  0  0  0  0  0
   35.0560   31.4340   35.9940 C   0  0  0  0  0  0  0  0  0  0  0  0
   35.3450   32.4530   36.8440 N   0  0  0  0  0  0  0  0  0  0  0  0
   34.1790   33.0280   37.2510 C   0  0  0  0  0  0  0  0  0  0  0  0
   34.1830   33.8690   37.9390 H   0  0  0  0  0  0  0  0  0  0  0  0
   33.1680   32.3680   36.6560 N   0  0  0  0  0  0  0  0  0  0  0  0
   33.6640   31.3810   35.8750 C   0  0  0  0  0  0  0  0  0  0  0  0
   33.1130   30.4180   35.0570 C   0  0  0  0  0  3  0  0  0  0  0  0
   36.3400   32.7000   37.1000 H   0  0  0  0  0  0  0  0  0  0  0  0
   37.2740   28.6120   29.4930 C   0  0  0  0  0  0  0  0  0  0  0  0
   38.1040   28.2620   30.5690 C   0  0  0  0  0  0  0  0  0  0  0  0
   39.4710   28.1330   30.3070 C   0  0  0  0  0  0  0  0  0  0  0  0
   39.9110   28.3500   29.0410 N   0  0  0  0  0  0  0  0  0  0  0  0
   39.0900   28.6830   28.0360 C   0  0  0  0  0  0  0  0  0  0  0  0
   37.7640   28.8150   28.2590 N   0  0  0  0  0  0  0  0  0  0  0  0
   36.2080   28.7240   29.6480 H   0  0  0  0  0  0  0  0  0  0  0  0
   40.1250   27.8620   31.1370 H   0  0  0  0  0  0  0  0  0  0  0  0
   39.6290   28.8120   27.1140 H   0  0  0  0  0  0  0  0  0  0  0  0
  1  2  1  0  0  0  0
  2  7  1  0  0  0  0
  3  2  2  0  0  0  0
  3  4  1  0  0  0  0
  4  5  2  0  0  0  0
  5  9  1  0  0  0  0
  5  6  1  0  0  0  0
  6 10  1  0  0  0  0
  7 12  1  0  0  0  0
  7  6  2  0  0  0  0
  8  4  1  0  0  0  0
 11 12  2  0  0  0  0
 11 21  1  0  0  0  0
 12 13  1  0  0  0  0
 13 14  1  0  0  0  0
 13 15  2  0  0  0  0
 15 16  1  0  0  0  0
 16 22  1  0  0  0  0
 16 17  1  0  0  0  0
 17 18  1  0  0  0  0
 19 17  2  0  0  0  0
 20 15  1  0  0  0  0
 20 19  1  0  0  0  0
 21 20  2  0  0  0  0
 23 29  1  0  0  0  0
 23 24  1  0  0  0  0
 24  3  1  0  0  0  0
 25 24  2  0  0  0  0
 25 30  1  0  0  0  0
 26 25  1  0  0  0  0
 27 28  1  0  0  0  0
 27 26  2  0  0  0  0
 28 23  2  0  0  0  0
 31 27  1  0  0  0  0
M  END
>  <minimizedAffinity>
-5.50186014

$$$$

 OpenBabel03272505013D

 31 34  0  0  0  0  0  0  0  0999 V2000
   37.8640   28.0300   35.4010 Cl  0  0  0  0  0  0  0  0  0  0  0  0
   37.1590   27.3360   33.9700 C   0  0  0  0  0  0  0  0  0  0  0  0
   37.4510   26.0340   33.6610 C   0  0  0  0  0  0  0  0  0  0  0  0
   36.8550   25.5250   32.4970 C   0  0  0  0  0  0  0  0  0  0  0  0
   36.0260   26.3320   31.7330 C   0  0  0  0  0  0  0  0  0  0  0  0
   35.7590   27.6280   32.0760 C   0  0  0  0  0  0  0  0  0  0  0  0
   36.3430   28.1310   33.2210 C   0  0  0  0  0  0  0  0  0  0  0  0
   37.0870   24.4880   32.2480 H   0  0  0  0  0  0  0  0  0  0  0  0
   35.6140   25.8580   30.8600 H   0  0  0  0  0  0  0  0  0  0  0  0
   35.1090   28.2120   31.4510 H   0  0  0  0  0  0  0  0  0  0  0  0
   35.8670   30.5460   32.6340 C   0  0  0  0  0  3  0  0  0  0  0  0
   36.0280   29.5190   33.5450 C   0  0  0  0  0  0  0  0  0  0  0  0
   35.8800   29.8240   34.8720 C   0  0  0  0  0  0  0  0  0  0  0  0
   35.9930   29.0660   35.6400 H   0  0  0  0  0  0  0  0  0  0  0  0
   35.5830   31.0840   35.3530 C   0  0  0  0  0  0  0  0  0  0  0  0
   35.3900   31.6250   36.5840 N   0  0  0  0  0  0  0  0  0  0  0  0
   35.1180   32.9520   36.4410 C   0  0  0  0  0  0  0  0  0  0  0  0
   34.9310   33.5790   37.3080 H   0  0  0  0  0  0  0  0  0  0  0  0
   35.1410   33.2350   35.1250 N   0  0  0  0  0  0  0  0  0  0  0  0
   35.4220   32.1150   34.4220 C   0  0  0  0  0  0  0  0  0  0  0  0
   35.5700   31.8160   33.0840 C   0  0  0  0  0  3  0  0  0  0  0  0
   35.4580   31.0450   37.4640 H   0  0  0  0  0  0  0  0  0  0  0  0
   39.6300   24.8770   34.0470 C   0  0  0  0  0  0  0  0  0  0  0  0
   38.3200   25.1760   34.4530 C   0  0  0  0  0  0  0  0  0  0  0  0
   37.8790   24.6130   35.6540 C   0  0  0  0  0  0  0  0  0  0  0  0
   38.7330   23.8200   36.3500 N   0  0  0  0  0  0  0  0  0  0  0  0
   39.9780   23.5550   35.9320 C   0  0  0  0  0  0  0  0  0  0  0  0
   40.4320   24.0850   34.7750 N   0  0  0  0  0  0  0  0  0  0  0  0
   40.0160   25.2900   33.1230 H   0  0  0  0  0  0  0  0  0  0  0  0
   36.8630   24.8390   35.9790 H   0  0  0  0  0  0  0  0  0  0  0  0
   40.4960   22.9090   36.6200 H   0  0  0  0  0  0  0  0  0  0  0  0
  2  1  1  0  0  0  0
  3  2  1  0  0  0  0
  3 24  1  0  0  0  0
  4  3  2  0  0  0  0
  5  6  2  0  0  0  0
  5  4  1  0  0  0  0
  6  7  1  0  0  0  0
  7 12  1  0  0  0  0
  7  2  2  0  0  0  0
  8  4  1  0  0  0  0
  9  5  1  0  0  0  0
 10  6  1  0  0  0  0
 11 21  2  0  0  0  0
 11 12  1  0  0  0  0
 12 13  2  0  0  0  0
 13 15  1  0  0  0  0
 13 14  1  0  0  0  0
 15 16  1  0  0  0  0
 16 22  1  0  0  0  0
 17 16  1  0  0  0  0
 17 18  1  0  0  0  0
 19 17  2  0  0  0  0
 20 19  1  0  0  0  0
 20 15  2  0  0  0  0
 21 20  1  0  0  0  0
 23 24  2  0  0  0  0
 23 28  1  0  0  0  0
 24 25  1  0  0  0  0
 25 30  1  0  0  0  0
 25 26  2  0  0  0  0
 27 26  1  0  0  0  0
 27 31  1  0  0  0  0
 28 27  2  0  0  0  0
 29 23  1  0  0  0  0
M  END
>  <minimizedAffinity>
-5.40714359

$$$$

 OpenBabel03272505013D

 31 34  0  0  0  0  0  0  0  0999 V2000
   36.6690   27.5720   34.8820 Cl  0  0  0  0  0  0  0  0  0  0  0  0
   36.5420   28.2790   33.2970 C   0  0  0  0  0  0  0  0  0  0  0  0
   37.0700   27.5990   32.2320 C   0  0  0  0  0  0  0  0  0  0  0  0
   36.9390   28.2150   30.9770 C   0  0  0  0  0  0  0  0  0  0  0  0
   36.3050   29.4430   30.8710 C   0  0  0  0  0  0  0  0  0  0  0  0
   35.7900   30.0900   31.9590 C   0  0  0  0  0  0  0  0  0  0  0  0
   35.9170   29.4860   33.1940 C   0  0  0  0  0  0  0  0  0  0  0  0
   37.3600   27.6760   30.1270 H   0  0  0  0  0  0  0  0  0  0  0  0
   36.2520   29.8380   29.8720 H   0  0  0  0  0  0  0  0  0  0  0  0
   35.3070   31.0400   31.8240 H   0  0  0  0  0  0  0  0  0  0  0  0
   36.0620   30.9820   35.2290 C   0  0  0  0  0  3  0  0  0  0  0  0
   35.3520   30.2160   34.3260 C   0  0  0  0  0  0  0  0  0  0  0  0
   33.9960   30.1280   34.5000 C   0  0  0  0  0  0  0  0  0  0  0  0
   33.3780   29.5430   33.8280 H   0  0  0  0  0  0  0  0  0  0  0  0
   33.3010   30.7540   35.5160 C   0  0  0  0  0  0  0  0  0  0  0  0
   31.9970   30.8200   35.8930 N   0  0  0  0  0  0  0  0  0  0  0  0
   31.9010   31.6070   37.0010 C   0  0  0  0  0  0  0  0  0  0  0  0
   30.9400   31.7940   37.4700 H   0  0  0  0  0  0  0  0  0  0  0  0
   33.1410   32.0280   37.3120 N   0  0  0  0  0  0  0  0  0  0  0  0
   34.0300   31.5270   36.4250 C   0  0  0  0  0  0  0  0  0  0  0  0
   35.3960   31.6200   36.2560 C   0  0  0  0  0  3  0  0  0  0  0  0
   31.2370   30.3150   35.3610 H   0  0  0  0  0  0  0  0  0  0  0  0
   37.0260   25.1030   32.2760 C   0  0  0  0  0  0  0  0  0  0  0  0
   37.7400   26.3100   32.3280 C   0  0  0  0  0  0  0  0  0  0  0  0
   39.1270   26.2270   32.4790 C   0  0  0  0  0  0  0  0  0  0  0  0
   39.6960   24.9970   32.5650 N   0  0  0  0  0  0  0  0  0  0  0  0
   38.9840   23.8640   32.5110 C   0  0  0  0  0  0  0  0  0  0  0  0
   37.6410   23.9130   32.3660 N   0  0  0  0  0  0  0  0  0  0  0  0
   35.9490   25.1170   32.1610 H   0  0  0  0  0  0  0  0  0  0  0  0
   39.6910   27.1590   32.5200 H   0  0  0  0  0  0  0  0  0  0  0  0
   39.6150   22.9970   32.5960 H   0  0  0  0  0  0  0  0  0  0  0  0
  2  1  1  0  0  0  0
  3 24  1  0  0  0  0
  3  2  2  0  0  0  0
  4  3  1  0  0  0  0
  5  4  2  0  0  0  0
  5  6  1  0  0  0  0
  6  7  2  0  0  0  0
  7  2  1  0  0  0  0
  7 12  1  0  0  0  0
  8  4  1  0  0  0  0
  9  5  1  0  0  0  0
 10  6  1  0  0  0  0
 11 21  1  0  0  0  0
 12 13  1  0  0  0  0
 12 11  2  0  0  0  0
 13 15  2  0  0  0  0
 14 13  1  0  0  0  0
 15 16  1  0  0  0  0
 15 20  1  0  0  0  0
 16 17  1  0  0  0  0
 17 19  2  0  0  0  0
 17 18  1  0  0  0  0
 20 19  1  0  0  0  0
 21 20  2  0  0  0  0
 22 16  1  0  0  0  0
 23 24  2  0  0  0  0
 23 28  1  0  0  0  0
 24 25  1  0  0  0  0
 25 30  1  0  0  0  0
 25 26  2  0  0  0  0
 27 26  1  0  0  0  0
 27 31  1  0  0  0  0
 28 27  2  0  0  0  0
 29 23  1  0  0  0  0
M  END
>  <minimizedAffinity>
-5.38425589

$$$$

 OpenBabel03272505013D

 31 34  0  0  0  0  0  0  0  0999 V2000
   36.7730   27.4950   34.8410 Cl  0  0  0  0  0  0  0  0  0  0  0  0
   36.7140   28.1730   33.2400 C   0  0  0  0  0  0  0  0  0  0  0  0
   37.4980   27.6170   32.2630 C   0  0  0  0  0  0  0  0  0  0  0  0
   37.4100   28.2030   30.9900 C   0  0  0  0  0  0  0  0  0  0  0  0
   36.5650   29.2810   30.7810 C   0  0  0  0  0  0  0  0  0  0  0  0
   35.7980   29.8070   31.7820 C   0  0  0  0  0  0  0  0  0  0  0  0
   35.8810   29.2330   33.0350 C   0  0  0  0  0  0  0  0  0  0  0  0
   38.0340   27.7630   30.2110 H   0  0  0  0  0  0  0  0  0  0  0  0
   36.5630   29.6640   29.7750 H   0  0  0  0  0  0  0  0  0  0  0  0
   35.1580   30.6430   31.5680 H   0  0  0  0  0  0  0  0  0  0  0  0
   33.7330   29.4900   34.3460 C   0  0  0  0  0  3  0  0  0  0  0  0
   35.0440   29.8290   34.0710 C   0  0  0  0  0  0  0  0  0  0  0  0
   35.6160   30.8110   34.8360 C   0  0  0  0  0  0  0  0  0  0  0  0
   36.6410   31.1250   34.6740 H   0  0  0  0  0  0  0  0  0  0  0  0
   34.9680   31.4780   35.8570 C   0  0  0  0  0  0  0  0  0  0  0  0
   35.3060   32.4590   36.7340 N   0  0  0  0  0  0  0  0  0  0  0  0
   34.2330   32.7220   37.5320 C   0  0  0  0  0  0  0  0  0  0  0  0
   34.2890   33.4790   38.3080 H   0  0  0  0  0  0  0  0  0  0  0  0
   33.2320   31.9080   37.1510 N   0  0  0  0  0  0  0  0  0  0  0  0
   33.6410   31.1270   36.1260 C   0  0  0  0  0  0  0  0  0  0  0  0
   33.0580   30.1400   35.3600 C   0  0  0  0  0  3  0  0  0  0  0  0
   36.2670   32.8980   36.7360 H   0  0  0  0  0  0  0  0  0  0  0  0
   37.9510   25.1620   32.3110 C   0  0  0  0  0  0  0  0  0  0  0  0
   38.3900   26.4860   32.4690 C   0  0  0  0  0  0  0  0  0  0  0  0
   39.7250   26.6770   32.8360 C   0  0  0  0  0  0  0  0  0  0  0  0
   40.5110   25.5850   33.0150 N   0  0  0  0  0  0  0  0  0  0  0  0
   40.0580   24.3340   32.8550 C   0  0  0  0  0  0  0  0  0  0  0  0
   38.7730   24.1180   32.5010 N   0  0  0  0  0  0  0  0  0  0  0  0
   36.9240   24.9650   32.0270 H   0  0  0  0  0  0  0  0  0  0  0  0
   40.0770   27.7020   32.9610 H   0  0  0  0  0  0  0  0  0  0  0  0
   40.8310   23.6080   33.0410 H   0  0  0  0  0  0  0  0  0  0  0  0
  2  1  1  0  0  0  0
  3 24  1  0  0  0  0
  3  2  2  0  0  0  0
  4  3  1  0  0  0  0
  5  4  2  0  0  0  0
  5  6  1  0  0  0  0
  6  7  2  0  0  0  0
  7  2  1  0  0  0  0
  7 12  1  0  0  0  0
  8  4  1  0  0  0  0
  9  5  1  0  0  0  0
 10  6  1  0  0  0  0
 11 21  1  0  0  0  0
 12 11  2  0  0  0  0
 12 13  1  0  0  0  0
 13 15  2  0  0  0  0
 14 13  1  0  0  0  0
 15 20  1  0  0  0  0
 15 16  1  0  0  0  0
 16 22  1  0  0  0  0
 16 17  1  0  0  0  0
 17 18  1  0  0  0  0
 19 17  2  0  0  0  0
 20 19  1  0  0  0  0
 21 20  2  0  0  0  0
 23 24  2  0  0  0  0
 23 28  1  0  0  0  0
 24 25  1  0  0  0  0
 25 30  1  0  0  0  0
 25 26  2  0  0  0  0
 27 26  1  0  0  0  0
 27 31  1  0  0  0  0
 28 27  2  0  0  0  0
 29 23  1  0  0  0  0
M  END
>  <minimizedAffinity>
-5.38000345

$$$$

 OpenBabel03272505013D

 31 34  0  0  0  0  0  0  0  0999 V2000
   36.2130   28.1520   34.5590 Cl  0  0  0  0  0  0  0  0  0  0  0  0
   36.0020   29.1670   33.1620 C   0  0  0  0  0  0  0  0  0  0  0  0
   35.4610   30.4140   33.3330 C   0  0  0  0  0  0  0  0  0  0  0  0
   35.3140   31.1900   32.1720 C   0  0  0  0  0  0  0  0  0  0  0  0
   35.7070   30.6810   30.9440 C   0  0  0  0  0  0  0  0  0  0  0  0
   36.2430   29.4310   30.8150 C   0  0  0  0  0  0  0  0  0  0  0  0
   36.3900   28.6660   31.9540 C   0  0  0  0  0  0  0  0  0  0  0  0
   34.8820   32.1830   32.3060 H   0  0  0  0  0  0  0  0  0  0  0  0
   35.5570   31.3460   30.1120 H   0  0  0  0  0  0  0  0  0  0  0  0
   36.5330   29.0830   29.8410 H   0  0  0  0  0  0  0  0  0  0  0  0
   38.3150   27.0370   31.7490 C   0  0  0  0  0  3  0  0  0  0  0  0
   36.9670   27.3370   31.7660 C   0  0  0  0  0  0  0  0  0  0  0  0
   36.0860   26.3030   31.5910 C   0  0  0  0  0  0  0  0  0  0  0  0
   35.0150   26.4690   31.5930 H   0  0  0  0  0  0  0  0  0  0  0  0
   36.4610   24.9870   31.4010 C   0  0  0  0  0  0  0  0  0  0  0  0
   35.8000   23.8160   31.2100 N   0  0  0  0  0  0  0  0  0  0  0  0
   36.7140   22.8140   31.0780 C   0  0  0  0  0  0  0  0  0  0  0  0
   36.3970   21.7880   30.9160 H   0  0  0  0  0  0  0  0  0  0  0  0
   37.9390   23.3610   31.1860 N   0  0  0  0  0  0  0  0  0  0  0  0
   37.8280   24.6940   31.3850 C   0  0  0  0  0  0  0  0  0  0  0  0
   38.7200   25.7310   31.5610 C   0  0  0  0  0  3  0  0  0  0  0  0
   34.7450   23.7690   31.1800 H   0  0  0  0  0  0  0  0  0  0  0  0
   33.7760   30.6910   35.1540 C   0  0  0  0  0  0  0  0  0  0  0  0
   35.0430   30.9600   34.6150 C   0  0  0  0  0  0  0  0  0  0  0  0
   35.8950   31.7790   35.3620 C   0  0  0  0  0  0  0  0  0  0  0  0
   35.4510   32.2610   36.5520 N   0  0  0  0  0  0  0  0  0  0  0  0
   34.2330   31.9830   37.0360 C   0  0  0  0  0  0  0  0  0  0  0  0
   33.3890   31.1950   36.3370 N   0  0  0  0  0  0  0  0  0  0  0  0
   33.0810   30.0620   34.6110 H   0  0  0  0  0  0  0  0  0  0  0  0
   36.8820   31.9940   34.9530 H   0  0  0  0  0  0  0  0  0  0  0  0
   34.0710   32.4570   37.9890 H   0  0  0  0  0  0  0  0  0  0  0  0
  2  3  1  0  0  0  0
  2  1  1  0  0  0  0
  3 24  1  0  0  0  0
  4  8  1  0  0  0  0
  4  3  2  0  0  0  0
  5  4  1  0  0  0  0
  6  5  2  0  0  0  0
  6  7  1  0  0  0  0
  7  2  2  0  0  0  0
  9  5  1  0  0  0  0
 10  6  1  0  0  0  0
 11 12  1  0  0  0  0
 12  7  1  0  0  0  0
 13 14  1  0  0  0  0
 13 12  2  0  0  0  0
 15 13  1  0  0  0  0
 16 15  1  0  0  0  0
 17 19  2  0  0  0  0
 17 16  1  0  0  0  0
 18 17  1  0  0  0  0
 19 20  1  0  0  0  0
 20 15  2  0  0  0  0
 20 21  1  0  0  0  0
 21 11  2  0  0  0  0
 22 16  1  0  0  0  0
 23 28  1  0  0  0  0
 24 23  2  0  0  0  0
 24 25  1  0  0  0  0
 25 26  2  0  0  0  0
 26 27  1  0  0  0  0
 27 31  1  0  0  0  0
 28 27  2  0  0  0  0
 29 23  1  0  0  0  0
 30 25  1  0  0  0  0
M  END
>  <minimizedAffinity>
-5.35691595

$$$$

 OpenBabel03272505013D

 31 34  0  0  0  0  0  0  0  0999 V2000
   38.7670   26.1710   34.6070 Cl  0  0  0  0  0  0  0  0  0  0  0  0
   38.0090   24.8520   33.7640 C   0  0  0  0  0  0  0  0  0  0  0  0
   38.1840   23.5800   34.2440 C   0  0  0  0  0  0  0  0  0  0  0  0
   37.5500   22.5540   33.5250 C   0  0  0  0  0  0  0  0  0  0  0  0
   36.8020   22.8580   32.3990 C   0  0  0  0  0  0  0  0  0  0  0  0
   36.6510   24.1400   31.9520 C   0  0  0  0  0  0  0  0  0  0  0  0
   37.2720   25.1520   32.6570 C   0  0  0  0  0  0  0  0  0  0  0  0
   37.6880   21.5410   33.9050 H   0  0  0  0  0  0  0  0  0  0  0  0
   36.3530   22.0090   31.9130 H   0  0  0  0  0  0  0  0  0  0  0  0
   36.0600   24.3240   31.0740 H   0  0  0  0  0  0  0  0  0  0  0  0
   36.5270   27.5630   32.8320 C   0  0  0  0  0  3  0  0  0  0  0  0
   37.0830   26.5040   32.1400 C   0  0  0  0  0  0  0  0  0  0  0  0
   37.4980   26.7360   30.8550 C   0  0  0  0  0  0  0  0  0  0  0  0
   37.9430   25.9500   30.2570 H   0  0  0  0  0  0  0  0  0  0  0  0
   37.3940   27.9540   30.2130 C   0  0  0  0  0  0  0  0  0  0  0  0
   37.7210   28.4250   28.9820 N   0  0  0  0  0  0  0  0  0  0  0  0
   37.3760   29.7410   28.9100 C   0  0  0  0  0  0  0  0  0  0  0  0
   37.5530   30.3150   28.0050 H   0  0  0  0  0  0  0  0  0  0  0  0
   36.8370   30.0870   30.0930 N   0  0  0  0  0  0  0  0  0  0  0  0
   36.8290   29.0190   30.9220 C   0  0  0  0  0  0  0  0  0  0  0  0
   36.4090   28.7930   32.2160 C   0  0  0  0  0  3  0  0  0  0  0  0
   38.1690   27.8080   28.2500 H   0  0  0  0  0  0  0  0  0  0  0  0
   40.2960   22.8060   35.3270 C   0  0  0  0  0  0  0  0  0  0  0  0
   38.9680   23.2470   35.4250 C   0  0  0  0  0  0  0  0  0  0  0  0
   38.4220   23.3540   36.7070 C   0  0  0  0  0  0  0  0  0  0  0  0
   39.2000   23.0290   37.7710 N   0  0  0  0  0  0  0  0  0  0  0  0
   40.4660   22.6110   37.6410 C   0  0  0  0  0  0  0  0  0  0  0  0
   41.0200   22.4970   36.4150 N   0  0  0  0  0  0  0  0  0  0  0  0
   40.7620   22.7070   34.3540 H   0  0  0  0  0  0  0  0  0  0  0  0
   37.3900   23.6970   36.7940 H   0  0  0  0  0  0  0  0  0  0  0  0
   40.9130   22.4040   38.5980 H   0  0  0  0  0  0  0  0  0  0  0  0
  2  3  1  0  0  0  0
  2  1  1  0  0  0  0
  3 24  1  0  0  0  0
  4  8  1  0  0  0  0
  4  3  2  0  0  0  0
  5  4  1  0  0  0  0
  6  5  2  0  0  0  0
  6  7  1  0  0  0  0
  7  2  2  0  0  0  0
  9  5  1  0  0  0  0
 10  6  1  0  0  0  0
 12  7  1  0  0  0  0
 12 11  2  0  0  0  0
 13 12  1  0  0  0  0
 14 13  1  0  0  0  0
 15 13  2  0  0  0  0
 15 20  1  0  0  0  0
 16 15  1  0  0  0  0
 17 16  1  0  0  0  0
 17 19  2  0  0  0  0
 18 17  1  0  0  0  0
 19 20  1  0  0  0  0
 20 21  2  0  0  0  0
 21 11  1  0  0  0  0
 22 16  1  0  0  0  0
 23 24  2  0  0  0  0
 23 28  1  0  0  0  0
 24 25  1  0  0  0  0
 25 30  1  0  0  0  0
 25 26  2  0  0  0  0
 27 26  1  0  0  0  0
 27 31  1  0  0  0  0
 28 27  2  0  0  0  0
 29 23  1  0  0  0  0
M  END
>  <minimizedAffinity>
-5.35223055

$$$$

 OpenBabel03272505013D

 31 34  0  0  0  0  0  0  0  0999 V2000
   39.8540   27.1930   31.6460 Cl  0  0  0  0  0  0  0  0  0  0  0  0
   38.2740   27.9090   31.5280 C   0  0  0  0  0  0  0  0  0  0  0  0
   37.9570   28.6180   30.3990 C   0  0  0  0  0  0  0  0  0  0  0  0
   36.6680   29.1740   30.3580 C   0  0  0  0  0  0  0  0  0  0  0  0
   35.8010   28.9910   31.4230 C   0  0  0  0  0  0  0  0  0  0  0  0
   36.1540   28.2760   32.5330 C   0  0  0  0  0  0  0  0  0  0  0  0
   37.4200   27.7280   32.5760 C   0  0  0  0  0  0  0  0  0  0  0  0
   36.4150   29.7390   29.4600 H   0  0  0  0  0  0  0  0  0  0  0  0
   34.8360   29.4520   31.3030 H   0  0  0  0  0  0  0  0  0  0  0  0
   35.4440   28.1620   33.3310 H   0  0  0  0  0  0  0  0  0  0  0  0
   38.0790   27.5160   35.0100 C   0  0  0  0  0  3  0  0  0  0  0  0
   37.7520   26.9740   33.7820 C   0  0  0  0  0  0  0  0  0  0  0  0
   37.7330   25.6080   33.6790 C   0  0  0  0  0  0  0  0  0  0  0  0
   37.4850   25.1170   32.7440 H   0  0  0  0  0  0  0  0  0  0  0  0
   38.0200   24.7460   34.7190 C   0  0  0  0  0  0  0  0  0  0  0  0
   38.0690   23.3960   34.8650 N   0  0  0  0  0  0  0  0  0  0  0  0
   38.4190   23.1080   36.1510 C   0  0  0  0  0  0  0  0  0  0  0  0
   38.5160   22.0790   36.4840 H   0  0  0  0  0  0  0  0  0  0  0  0
   38.5870   24.2750   36.8000 N   0  0  0  0  0  0  0  0  0  0  0  0
   38.3510   25.3050   35.9570 C   0  0  0  0  0  0  0  0  0  0  0  0
   38.3720   26.6800   36.0680 C   0  0  0  0  0  3  0  0  0  0  0  0
   37.8580   22.7410   34.0650 H   0  0  0  0  0  0  0  0  0  0  0  0
   38.9300   27.9020   28.2140 C   0  0  0  0  0  0  0  0  0  0  0  0
   38.8590   28.8190   29.2750 C   0  0  0  0  0  0  0  0  0  0  0  0
   39.6930   29.9390   29.2090 C   0  0  0  0  0  0  0  0  0  0  0  0
   40.5130   30.0730   28.1360 N   0  0  0  0  0  0  0  0  0  0  0  0
   40.5560   29.1780   27.1400 C   0  0  0  0  0  0  0  0  0  0  0  0
   39.7620   28.0850   27.1760 N   0  0  0  0  0  0  0  0  0  0  0  0
   38.3030   27.0190   28.2210 H   0  0  0  0  0  0  0  0  0  0  0  0
   39.6440   30.6570   30.0280 H   0  0  0  0  0  0  0  0  0  0  0  0
   41.2670   29.4620   26.3850 H   0  0  0  0  0  0  0  0  0  0  0  0
  2  1  1  0  0  0  0
  2  7  1  0  0  0  0
  3  2  2  0  0  0  0
  4  3  1  0  0  0  0
  4  5  2  0  0  0  0
  5  6  1  0  0  0  0
  6  7  2  0  0  0  0
  6 10  1  0  0  0  0
  7 12  1  0  0  0  0
  8  4  1  0  0  0  0
  9  5  1  0  0  0  0
 11 21  1  0  0  0  0
 12 11  2  0  0  0  0
 13 12  1  0  0  0  0
 13 15  2  0  0  0  0
 14 13  1  0  0  0  0
 15 16  1  0  0  0  0
 15 20  1  0  0  0  0
 16 17  1  0  0  0  0
 17 18  1  0  0  0  0
 17 19  2  0  0  0  0
 20 21  2  0  0  0  0
 20 19  1  0  0  0  0
 22 16  1  0  0  0  0
 23 29  1  0  0  0  0
 23 24  1  0  0  0  0
 24  3  1  0  0  0  0
 25 24  2  0  0  0  0
 25 30  1  0  0  0  0
 26 25  1  0  0  0  0
 27 28  1  0  0  0  0
 27 26  2  0  0  0  0
 28 23  2  0  0  0  0
 31 27  1  0  0  0  0
M  END
>  <minimizedAffinity>
-5.23338413

$$$$
