
 OpenBabel03272507193D

 33 36  0  0  1  0  0  0  0  0999 V2000
   37.6560   31.3670   49.4480 C   0  0  0  0  0  0  0  0  0  0  0  0
   38.3230   32.5570   49.6910 C   0  0  0  0  0  0  0  0  0  0  0  0
   38.9340   33.1220   48.5500 C   0  0  0  0  0  0  0  0  0  0  0  0
   38.8490   32.5120   47.3330 N   0  0  0  0  0  0  0  0  0  0  0  0
   38.1810   31.3450   47.1480 C   0  0  0  0  0  0  0  0  0  0  0  0
   37.5740   30.7660   48.2350 N   0  0  0  0  0  0  0  0  0  0  0  0
   38.3710   33.0100   50.6630 H   0  0  0  0  0  0  0  0  0  0  0  0
   39.4780   34.0510   48.6510 H   0  0  0  0  0  0  0  0  0  0  0  0
   39.2770   30.3090   45.2440 C   0  0  0  0  0  3  0  0  0  0  0  0
   38.0970   30.7040   45.8380 C   0  0  0  0  0  0  0  0  0  0  0  0
   36.8960   30.4860   45.1910 C   0  0  0  0  0  0  0  0  0  0  0  0
   35.9870   30.8080   45.6840 H   0  0  0  0  0  0  0  0  0  0  0  0
   36.8150   29.8810   43.9540 C   0  0  0  0  0  0  0  0  0  0  0  0
   35.8060   29.5570   43.1250 N   0  0  0  0  0  0  0  0  0  0  0  0
   36.3730   28.9780   42.0520 C   0  0  0  0  0  0  0  0  0  0  0  0
   35.7060   28.6410   41.2550 H   0  0  0  0  0  0  0  0  0  0  0  0
   37.7130   28.9340   42.1960 N   0  0  0  0  0  0  0  0  0  0  0  0
   38.0200   29.4950   43.3810 C   0  0  0  0  0  0  0  0  0  0  0  0
   39.2340   29.6990   44.0050 C   0  0  0  0  0  3  0  0  0  0  0  0
   34.8100   29.7660   43.3740 H   0  0  0  0  0  0  0  0  0  0  0  0
   36.9720   30.7500   50.6290 C   0  0  1  0  0  0  0  0  0  0  0  0
   36.1240   29.5660   50.5010 C   0  0  2  0  0  0  0  0  0  0  0  0
   37.5320   29.3570   50.9690 C   0  0  0  0  0  0  0  0  0  0  0  0
   36.9210   31.4610   51.4860 H   0  0  0  0  0  0  0  0  0  0  0  0
   35.2510   29.5790   51.2180 H   0  0  0  0  0  0  0  0  0  0  0  0
   38.2170   28.8710   50.2400 H   0  0  0  0  0  0  0  0  0  0  0  0
   37.7550   29.2210   52.0330 H   0  0  0  0  0  0  0  0  0  0  0  0
   35.7700   29.1740   49.2170 O   0  0  0  0  0  0  0  0  0  0  0  0
   34.5460   29.0030   48.6640 C   0  0  0  0  0  0  0  0  0  0  0  0
   34.3910   28.7620   47.4470 O   0  0  0  0  0  0  0  0  0  0  0  0
   33.5890   29.1460   49.6700 N   0  0  0  0  0  0  0  0  0  0  0  0
   33.4260   28.1230   49.9050 H   0  0  0  0  0  0  0  0  0  0  0  0
   33.3850   30.1760   49.8270 H   0  0  0  0  0  0  0  0  0  0  0  0
  1  2  1  0  0  0  0
  1 21  1  0  0  0  0
  2  7  1  0  0  0  0
  3  8  1  0  0  0  0
  3  2  2  0  0  0  0
  4  3  1  0  0  0  0
  5  4  2  0  0  0  0
  5  6  1  0  0  0  0
  6  1  2  0  0  0  0
  9 10  1  0  0  0  0
 10  5  1  0  0  0  0
 11 12  1  0  0  0  0
 11 10  2  0  0  0  0
 13 11  1  0  0  0  0
 14 20  1  0  0  0  0
 14 13  1  0  0  0  0
 15 17  2  0  0  0  0
 15 14  1  0  0  0  0
 16 15  1  0  0  0  0
 17 18  1  0  0  0  0
 18 13  2  0  0  0  0
 18 19  1  0  0  0  0
 19  9  2  0  0  0  0
 21 23  1  0  0  0  0
 21 24  1  1  0  0  0
 22 21  1  0  0  0  0
 22 23  1  0  0  0  0
 22 25  1  1  0  0  0
 23 27  1  0  0  0  0
 26 23  1  0  0  0  0
 28 22  1  0  0  0  0
 29 28  1  0  0  0  0
 29 31  1  0  0  0  0
 30 29  2  0  0  0  0
 31 33  1  0  0  0  0
 31 32  1  0  0  0  0
M  END
>  <minimizedAffinity>
-5.90471506

>  <minimizedRMSD>
1.54955852

$$$$
