
     RDKit          3D

 33 36  0  0  0  0  0  0  0  0999 V2000
   37.9352   30.4298   50.6621 C   0  0  0  0  0  0  0  0  0  0  0  0
   37.4692   31.2351   49.6107 C   0  0  0  0  0  0  0  0  0  0  0  0
   36.1308   31.0850   49.2351 C   0  0  0  0  0  0  0  0  0  0  0  0
   35.3690   30.1799   49.9013 N   0  0  0  0  0  0  0  0  0  0  0  0
   35.8473   29.4268   50.9015 C   0  0  0  0  0  0  0  0  0  0  0  0
   37.1362   29.5505   51.2856 N   0  0  0  0  0  0  0  0  0  0  0  0
   38.3946   30.5868   46.7862 Cl  0  0  0  0  0  0  0  0  0  0  0  0
   38.8270   32.0237   47.6656 C   0  0  0  0  0  0  0  0  0  0  0  0
   38.3370   32.1884   48.9353 C   0  0  0  0  0  0  0  0  0  0  0  0
   38.7176   33.3655   49.5986 C   0  0  0  0  0  0  0  0  0  0  0  0
   39.5434   34.2807   48.9663 C   0  0  0  0  0  0  0  0  0  0  0  0
   40.0121   34.0808   47.6982 C   0  0  0  0  0  0  0  0  0  0  0  0
   39.6397   32.9240   47.0427 C   0  0  0  0  0  0  0  0  0  0  0  0
   38.9647   30.5106   50.9881 H   0  0  0  0  0  0  0  0  0  0  0  0
   35.7594   31.7058   48.4198 H   0  0  0  0  0  0  0  0  0  0  0  0
   35.0902   28.7736   51.2992 H   0  0  0  0  0  0  0  0  0  0  0  0
   38.3285   33.4977   50.6087 H   0  0  0  0  0  0  0  0  0  0  0  0
   39.7818   35.1517   49.5507 H   0  0  0  0  0  0  0  0  0  0  0  0
   40.6503   34.8214   47.2515 H   0  0  0  0  0  0  0  0  0  0  0  0
   40.9893   33.6424   45.0268 C   0  0  0  0  0  0  0  0  0  0  0  0
   40.1651   32.7547   45.6907 C   0  0  0  0  0  0  0  0  0  0  0  0
   39.8042   31.6115   45.0284 C   0  0  0  0  0  0  0  0  0  0  0  0
   39.1598   30.8727   45.4911 H   0  0  0  0  0  0  0  0  0  0  0  0
   40.2101   31.2937   43.7478 C   0  0  0  0  0  0  0  0  0  0  0  0
   39.9963   30.2553   42.8990 N   0  0  0  0  0  0  0  0  0  0  0  0
   40.6704   30.4920   41.7378 C   0  0  0  0  0  0  0  0  0  0  0  0
   40.6343   29.7812   40.9184 H   0  0  0  0  0  0  0  0  0  0  0  0
   41.3008   31.6743   41.8660 N   0  0  0  0  0  0  0  0  0  0  0  0
   41.0449   32.2002   43.0846 C   0  0  0  0  0  0  0  0  0  0  0  0
   41.4123   33.3537   43.7458 C   0  0  0  0  0  0  0  0  0  0  0  0
   41.2655   34.5375   45.5592 H   0  0  0  0  0  0  0  0  0  0  0  0
   39.3920   29.4319   43.1679 H   0  0  0  0  0  0  0  0  0  0  0  0
   42.0478   34.0647   43.2678 H   0  0  0  0  0  0  0  0  0  0  0  0
  1  6  2  0
  2  1  1  0
  3  2  2  0
  3  4  1  0
  4  5  2  0
  5  6  1  0
  7  8  1  0
  8  9  2  0
  9 10  1  0
  9  2  1  0
 11 10  2  0
 12 11  1  0
 13  8  1  0
 13 12  2  0
  1 14  1  0
  3 15  1  0
  5 16  1  0
 10 17  1  0
 11 18  1  0
 12 19  1  0
 20 21  2  0
 21 22  1  0
 22 23  1  0
 22 24  2  0
 24 25  1  0
 25 26  1  0
 26 27  1  0
 26 28  2  0
 28 29  1  0
 29 30  2  0
 30 20  1  0
 29 24  1  0
 20 31  1  0
 25 32  1  0
 30 33  1  0
 13 21  1  0
M  ISO  8  14  14  15  14  16  14  17  14  18  14  19  14  23  15  27  14
M  END
>  <DihAtoms>  (1) 
7,12,20,19

>  <DihDeg>  (1) 
-45.000929851767594

$$$$
