
 OpenBabel03272509213D

 49 54  0  0  0  0  0  0  0  0999 V2000
   40.0010   30.8310   44.1520 C   0  0  0  0  0  0  0  0  0  0  0  0
   39.5340   31.7440   45.0860 C   0  0  0  0  0  0  0  0  0  0  0  0
   38.5150   32.6040   44.7110 C   0  0  0  0  0  0  0  0  0  0  0  0
   37.9600   32.5680   43.4280 C   0  0  0  0  0  0  0  0  0  0  0  0
   36.9930   33.2480   42.7820 N   0  0  0  0  0  0  0  0  0  0  0  0
   36.8600   32.7930   41.5250 C   0  0  0  0  0  0  0  0  0  0  0  0
   37.7730   31.7910   41.3670 N   0  0  0  0  0  0  0  0  0  0  0  0
   38.4520   31.6460   42.5330 C   0  0  0  0  0  0  0  0  0  0  0  0
   39.4610   30.7870   42.8880 C   0  0  0  0  0  0  0  0  0  0  0  0
   40.7920   30.2070   44.5370 H   0  0  0  0  0  0  0  0  0  0  0  0
   38.0480   33.3700   45.3310 H   0  0  0  0  0  0  0  0  0  0  0  0
   36.4260   34.0200   43.1980 H   0  0  0  0  0  0  0  0  0  0  0  0
   36.1640   33.1550   40.7880 H   0  0  0  0  0  0  0  0  0  0  0  0
   41.0870   29.9690   41.1530 C   0  0  0  0  0  3  0  0  0  0  0  0
   40.0020   29.8000   41.9560 C   0  0  0  0  0  0  0  0  0  0  0  0
   39.3190   28.6010   41.9200 C   0  0  0  0  0  0  0  0  0  0  0  0
   38.4350   28.3910   42.5370 H   0  0  0  0  0  0  0  0  0  0  0  0
   39.7510   27.5990   41.0700 C   0  0  0  0  0  0  0  0  0  0  0  0
   39.2880   26.3580   40.8310 N   0  0  0  0  0  0  0  0  0  0  0  0
   40.0790   25.7670   39.8920 C   0  0  0  0  0  0  0  0  0  0  0  0
   40.0230   24.7780   39.4480 H   0  0  0  0  0  0  0  0  0  0  0  0
   41.0640   26.6360   39.5190 N   0  0  0  0  0  0  0  0  0  0  0  0
   40.8630   27.7560   40.2390 C   0  0  0  0  0  0  0  0  0  0  0  0
   41.5370   28.9790   40.2940 C   0  0  0  0  0  3  0  0  0  0  0  0
   38.4580   25.8870   41.2760 H   0  0  0  0  0  0  0  0  0  0  0  0
   39.9190   31.9580   46.3760 O   0  0  0  0  0  0  0  0  0  0  0  0
   38.1250   31.3750   47.8970 C   0  0  0  0  0  0  0  0  0  0  0  0
   37.2850   31.5820   48.9770 C   0  0  0  0  0  0  0  0  0  0  0  0
   37.5080   32.7830   49.6570 C   0  0  0  0  0  0  0  0  0  0  0  0
   38.5020   33.6860   49.2600 C   0  0  0  0  0  0  0  0  0  0  0  0
   39.3070   33.3780   48.1410 C   0  0  0  0  0  0  0  0  0  0  0  0
   39.0950   32.1850   47.4550 C   0  0  0  0  0  0  0  0  0  0  0  0
   36.8740   32.9940   50.5140 H   0  0  0  0  0  0  0  0  0  0  0  0
   38.6480   34.6030   49.8060 H   0  0  0  0  0  0  0  0  0  0  0  0
   40.0680   34.0790   47.8450 H   0  0  0  0  0  0  0  0  0  0  0  0
   35.1510   30.4640   48.5930 C   0  0  0  0  0  0  0  0  0  0  0  0
   36.2720   30.6690   49.3870 C   0  0  0  0  0  0  0  0  0  0  0  0
   36.3510   29.9440   50.5890 C   0  0  0  0  0  0  0  0  0  0  0  0
   35.3430   29.0930   50.9080 N   0  0  0  0  0  0  0  0  0  0  0  0
   34.2650   28.9290   50.0940 C   0  0  0  0  0  0  0  0  0  0  0  0
   34.1790   29.6120   48.9490 N   0  0  0  0  0  0  0  0  0  0  0  0
   34.9930   30.9700   47.6520 H   0  0  0  0  0  0  0  0  0  0  0  0
   33.5790   28.2050   50.5330 H   0  0  0  0  0  0  0  0  0  0  0  0
   37.5280   30.1210   51.4820 C   0  0  0  0  0  0  0  0  0  0  0  0
   38.3700   29.4730   51.1710 H   0  0  0  0  0  0  0  0  0  0  0  0
   37.2460   29.8560   52.5230 H   0  0  0  0  0  0  0  0  0  0  0  0
   37.7820   31.1900   51.4990 H   0  0  0  0  0  0  0  0  0  0  0  0
   37.9780   30.2000   47.1560 O   0  0  0  0  0  0  0  0  0  0  0  0
   38.7480   29.5710   47.1380 H   0  0  0  0  0  0  0  0  0  0  0  0
  1 10  1  0  0  0  0
  1  2  1  0  0  0  0
  2 26  1  0  0  0  0
  3  2  2  0  0  0  0
  3 11  1  0  0  0  0
  4  3  1  0  0  0  0
  5 12  1  0  0  0  0
  5  4  1  0  0  0  0
  6  5  1  0  0  0  0
  7  6  2  0  0  0  0
  7  8  1  0  0  0  0
  8  9  1  0  0  0  0
  8  4  2  0  0  0  0
  9  1  2  0  0  0  0
 13  6  1  0  0  0  0
 14 15  1  0  0  0  0
 15  9  1  0  0  0  0
 16 15  2  0  0  0  0
 16 17  1  0  0  0  0
 18 16  1  0  0  0  0
 19 18  1  0  0  0  0
 19 25  1  0  0  0  0
 20 19  1  0  0  0  0
 21 20  1  0  0  0  0
 22 20  2  0  0  0  0
 22 23  1  0  0  0  0
 23 24  1  0  0  0  0
 23 18  2  0  0  0  0
 24 14  2  0  0  0  0
 26 32  1  0  0  0  0
 27 28  1  0  0  0  0
 28 37  1  0  0  0  0
 28 29  2  0  0  0  0
 29 33  1  0  0  0  0
 30 29  1  0  0  0  0
 30 34  1  0  0  0  0
 31 30  2  0  0  0  0
 32 27  2  0  0  0  0
 32 31  1  0  0  0  0
 35 31  1  0  0  0  0
 36 41  2  0  0  0  0
 36 37  1  0  0  0  0
 37 38  2  0  0  0  0
 38 39  1  0  0  0  0
 38 44  1  0  0  0  0
 40 43  1  0  0  0  0
 40 39  2  0  0  0  0
 41 40  1  0  0  0  0
 42 36  1  0  0  0  0
 44 47  1  0  0  0  0
 44 46  1  0  0  0  0
 45 44  1  0  0  0  0
 48 27  1  0  0  0  0
 49 48  1  0  0  0  0
M  END
>  <minimizedAffinity>
-7.86442137

>  <minimizedRMSD>
1.04431057

$$$$
