
 OpenBabel03272510023D

 24 26  0  0  0  0  0  0  0  0999 V2000
   38.3070   31.4790   50.3100 C   0  0  0  0  0  0  0  0  0  0  0  0
   38.6630   31.6550   48.9710 C   0  0  0  0  0  0  0  0  0  0  0  0
   37.8790   31.0410   48.0060 C   0  0  0  0  0  0  0  0  0  0  0  0
   36.8160   30.3070   48.4080 N   0  0  0  0  0  0  0  0  0  0  0  0
   36.4990   30.1560   49.7160 C   0  0  0  0  0  0  0  0  0  0  0  0
   37.2520   30.7470   50.6590 N   0  0  0  0  0  0  0  0  0  0  0  0
   38.9490   31.9770   51.0300 H   0  0  0  0  0  0  0  0  0  0  0  0
   39.5040   32.2370   48.6860 H   0  0  0  0  0  0  0  0  0  0  0  0
   39.1540   30.3630   46.0640 C   0  0  0  0  0  3  0  0  0  0  0  0
   38.1460   31.1490   46.5810 C   0  0  0  0  0  0  0  0  0  0  0  0
   37.4640   31.9740   45.7400 C   0  0  0  0  0  0  0  0  0  0  0  0
   36.6830   32.5930   46.1050 H   0  0  0  0  0  0  0  0  0  0  0  0
   37.7230   32.0740   44.3840 C   0  0  0  0  0  0  0  0  0  0  0  0
   37.1680   32.8190   43.3930 N   0  0  0  0  0  0  0  0  0  0  0  0
   37.8270   32.5010   42.2610 C   0  0  0  0  0  0  0  0  0  0  0  0
   37.5340   32.9920   41.3440 H   0  0  0  0  0  0  0  0  0  0  0  0
   38.7760   31.5730   42.5350 N   0  0  0  0  0  0  0  0  0  0  0  0
   38.7410   31.2820   43.8480 C   0  0  0  0  0  0  0  0  0  0  0  0
   39.4440   30.4340   44.7000 C   0  0  0  0  0  3  0  0  0  0  0  0
   36.3710   33.5070   43.5380 H   0  0  0  0  0  0  0  0  0  0  0  0
   35.3110   29.3280   50.0340 C   0  0  0  0  0  0  0  0  0  0  0  0
   35.2410   29.0220   51.3920 F   0  0  0  0  0  0  0  0  0  0  0  0
   34.1300   29.9950   49.7410 F   0  0  0  0  0  0  0  0  0  0  0  0
   35.2660   28.1390   49.3560 F   0  0  0  0  0  0  0  0  0  0  0  0
  1  6  1  0  0  0  0
  1  7  1  0  0  0  0
  2  1  2  0  0  0  0
  3  4  2  0  0  0  0
  3  2  1  0  0  0  0
  4  5  1  0  0  0  0
  5 21  1  0  0  0  0
  5  6  2  0  0  0  0
  8  2  1  0  0  0  0
  9 10  1  0  0  0  0
 10  3  1  0  0  0  0
 11 12  1  0  0  0  0
 11 10  2  0  0  0  0
 13 11  1  0  0  0  0
 14 20  1  0  0  0  0
 14 13  1  0  0  0  0
 15 17  2  0  0  0  0
 15 14  1  0  0  0  0
 16 15  1  0  0  0  0
 17 18  1  0  0  0  0
 18 13  2  0  0  0  0
 18 19  1  0  0  0  0
 19  9  2  0  0  0  0
 21 22  1  0  0  0  0
 23 21  1  0  0  0  0
 24 21  1  0  0  0  0
M  END
>  <minimizedAffinity>
-5.6616993

>  <minimizedRMSD>
1.36091566

$$$$
