
 OpenBabel03272510233D

 34 38  0  0  0  0  0  0  0  0999 V2000
   37.8440   31.1730   45.6690 C   0  0  0  0  0  0  0  0  0  0  0  0
   38.2840   31.6500   46.8910 C   0  0  0  0  0  0  0  0  0  0  0  0
   39.1600   32.7160   46.9390 C   0  0  0  0  0  0  0  0  0  0  0  0
   39.5720   33.2730   45.7390 C   0  0  0  0  0  0  0  0  0  0  0  0
   40.4210   34.3160   45.5310 N   0  0  0  0  0  0  0  0  0  0  0  0
   40.5180   34.4970   44.2070 C   0  0  0  0  0  0  0  0  0  0  0  0
   39.7590   33.6030   43.5660 N   0  0  0  0  0  0  0  0  0  0  0  0
   39.1550   32.8250   44.4970 C   0  0  0  0  0  0  0  0  0  0  0  0
   38.2760   31.7550   44.4770 C   0  0  0  0  0  0  0  0  0  0  0  0
   37.1590   30.3460   45.5420 H   0  0  0  0  0  0  0  0  0  0  0  0
   39.5040   33.0880   47.8940 H   0  0  0  0  0  0  0  0  0  0  0  0
   40.9050   34.8690   46.2830 H   0  0  0  0  0  0  0  0  0  0  0  0
   37.9340   31.3860   43.5030 H   0  0  0  0  0  0  0  0  0  0  0  0
   40.7440   36.5110   42.7460 C   0  0  0  0  0  3  0  0  0  0  0  0
   41.3300   35.5180   43.5200 C   0  0  0  0  0  0  0  0  0  0  0  0
   42.7130   35.4760   43.6570 C   0  0  0  0  0  0  0  0  0  0  0  0
   43.1810   34.7140   44.2530 H   0  0  0  0  0  0  0  0  0  0  0  0
   43.4820   36.4250   43.0210 C   0  0  0  0  0  0  0  0  0  0  0  0
   44.8210   36.6760   42.9400 N   0  0  0  0  0  0  0  0  0  0  0  0
   45.0270   37.7670   42.1550 C   0  0  0  0  0  0  0  0  0  0  0  0
   45.9710   38.2310   41.8880 H   0  0  0  0  0  0  0  0  0  0  0  0
   43.8330   38.2330   41.7210 N   0  0  0  0  0  0  0  0  0  0  0  0
   42.8890   37.4210   42.2450 C   0  0  0  0  0  0  0  0  0  0  0  0
   41.5200   37.4750   42.1000 C   0  0  0  0  0  3  0  0  0  0  0  0
   45.5580   36.1080   43.4130 H   0  0  0  0  0  0  0  0  0  0  0  0
   37.7230   30.4830   50.4210 C   0  0  0  0  0  0  0  0  0  0  0  0
   38.2830   31.1800   49.3500 C   0  0  0  0  0  0  0  0  0  0  0  0
   37.7790   30.9810   48.0770 C   0  0  0  0  0  0  0  0  0  0  0  0
   36.7470   30.1010   47.9280 N   0  0  0  0  0  0  0  0  0  0  0  0
   36.2160   29.4310   48.9930 C   0  0  0  0  0  0  0  0  0  0  0  0
   36.6990   29.6210   50.2180 N   0  0  0  0  0  0  0  0  0  0  0  0
   38.1060   30.6280   51.4190 H   0  0  0  0  0  0  0  0  0  0  0  0
   39.0870   31.8600   49.4920 H   0  0  0  0  0  0  0  0  0  0  0  0
   35.4050   28.7710   48.7140 H   0  0  0  0  0  0  0  0  0  0  0  0
  1  2  1  0  0  0  0
  2  3  2  0  0  0  0
  2 28  1  0  0  0  0
  3 11  1  0  0  0  0
  4  3  1  0  0  0  0
  5  4  1  0  0  0  0
  5 12  1  0  0  0  0
  6  5  1  0  0  0  0
  7  6  2  0  0  0  0
  7  8  1  0  0  0  0
  8  4  2  0  0  0  0
  9  8  1  0  0  0  0
  9  1  2  0  0  0  0
 10  1  1  0  0  0  0
 13  9  1  0  0  0  0
 14 15  1  0  0  0  0
 15 16  2  0  0  0  0
 15  6  1  0  0  0  0
 16 17  1  0  0  0  0
 18 16  1  0  0  0  0
 19 18  1  0  0  0  0
 19 25  1  0  0  0  0
 20 19  1  0  0  0  0
 21 20  1  0  0  0  0
 22 20  2  0  0  0  0
 22 23  1  0  0  0  0
 23 18  2  0  0  0  0
 24 23  1  0  0  0  0
 24 14  2  0  0  0  0
 26 32  1  0  0  0  0
 27 33  1  0  0  0  0
 27 26  2  0  0  0  0
 28 27  1  0  0  0  0
 29 28  2  0  0  0  0
 29 30  1  0  0  0  0
 30 31  2  0  0  0  0
 31 26  1  0  0  0  0
 34 30  1  0  0  0  0
M  END
>  <minimizedAffinity>
3.82713866

>  <minimizedRMSD>
1.33865154

$$$$
