
 OpenBabel03272509063D

 36 39  0  0  0  0  0  0  0  0999 V2000
   36.1060   28.0380   31.3720 C   0  0  0  0  0  0  0  0  0  0  0  0
   35.3510   28.8930   32.2000 C   0  0  0  0  0  0  0  0  0  0  0  0
   35.6530   28.9510   33.5750 C   0  0  0  0  0  0  0  0  0  0  0  0
   36.6800   28.1500   33.9900 N   0  0  0  0  0  0  0  0  0  0  0  0
   37.3710   27.3560   33.1830 C   0  0  0  0  0  0  0  0  0  0  0  0
   37.0950   27.2890   31.8700 N   0  0  0  0  0  0  0  0  0  0  0  0
   35.8490   28.0200   30.3340 H   0  0  0  0  0  0  0  0  0  0  0  0
   34.5700   29.4850   31.8090 H   0  0  0  0  0  0  0  0  0  0  0  0
   33.5950   29.6680   34.7890 C   0  0  0  0  0  3  0  0  0  0  0  0
   34.9310   29.8020   34.5090 C   0  0  0  0  0  0  0  0  0  0  0  0
   35.6370   30.8010   35.1440 C   0  0  0  0  0  0  0  0  0  0  0  0
   36.6840   30.9930   34.9970 H   0  0  0  0  0  0  0  0  0  0  0  0
   34.9520   31.6220   36.0400 C   0  0  0  0  0  0  0  0  0  0  0  0
   35.3370   32.6620   36.8060 N   0  0  0  0  0  0  0  0  0  0  0  0
   34.2820   33.1320   37.5160 C   0  0  0  0  0  0  0  0  0  0  0  0
   34.2040   33.9440   38.2250 H   0  0  0  0  0  0  0  0  0  0  0  0
   33.2130   32.3910   37.2050 N   0  0  0  0  0  0  0  0  0  0  0  0
   33.5950   31.4660   36.3090 C   0  0  0  0  0  0  0  0  0  0  0  0
   32.8950   30.4470   35.6550 C   0  0  0  0  0  3  0  0  0  0  0  0
   36.2970   33.0670   36.8650 H   0  0  0  0  0  0  0  0  0  0  0  0
   38.4090   26.5820   33.8110 C   0  0  0  0  0  3  0  0  0  0  0  0
   38.3230   25.3000   33.8600 C   0  0  0  0  0  3  0  0  0  0  0  0
   39.2520   24.3190   34.4310 C   0  0  0  0  0  0  0  0  0  0  0  0
   39.1230   23.3700   33.8680 H   0  0  0  0  0  0  0  0  0  0  0  0
   40.3130   24.6160   34.3140 H   0  0  0  0  0  0  0  0  0  0  0  0
   39.0210   24.0600   35.8880 C   0  0  0  0  0  0  0  0  0  0  0  0
   38.0110   24.6220   36.6490 C   0  0  0  0  0  0  0  0  0  0  0  0
   37.9050   24.2920   37.9940 C   0  0  0  0  0  0  0  0  0  0  0  0
   38.8070   23.3970   38.5930 C   0  0  0  0  0  0  0  0  0  0  0  0
   39.8020   22.8460   37.8360 C   0  0  0  0  0  0  0  0  0  0  0  0
   39.9030   23.1760   36.5030 C   0  0  0  0  0  0  0  0  0  0  0  0
   37.3440   25.3020   36.1450 H   0  0  0  0  0  0  0  0  0  0  0  0
   37.0860   24.7740   38.5260 H   0  0  0  0  0  0  0  0  0  0  0  0
   38.6690   23.1810   39.6520 H   0  0  0  0  0  0  0  0  0  0  0  0
   40.4660   22.1660   38.3510 H   0  0  0  0  0  0  0  0  0  0  0  0
   40.7020   22.7210   35.9330 H   0  0  0  0  0  0  0  0  0  0  0  0
  1  6  2  0  0  0  0
  1  2  1  0  0  0  0
  2  3  2  0  0  0  0
  3  4  1  0  0  0  0
  3 10  1  0  0  0  0
  5 21  1  0  0  0  0
  5  4  2  0  0  0  0
  6  5  1  0  0  0  0
  7  1  1  0  0  0  0
  8  2  1  0  0  0  0
  9 19  1  0  0  0  0
 10  9  2  0  0  0  0
 10 11  1  0  0  0  0
 11 13  2  0  0  0  0
 12 11  1  0  0  0  0
 13 18  1  0  0  0  0
 13 14  1  0  0  0  0
 14 20  1  0  0  0  0
 14 15  1  0  0  0  0
 15 16  1  0  0  0  0
 17 15  2  0  0  0  0
 18 17  1  0  0  0  0
 19 18  2  0  0  0  0
 21 22  2  0  0  0  0
 22 23  1  0  0  0  0
 23 26  1  0  0  0  0
 24 23  1  0  0  0  0
 25 23  1  0  0  0  0
 26 31  2  0  0  0  0
 26 27  1  0  0  0  0
 27 28  2  0  0  0  0
 28 33  1  0  0  0  0
 28 29  1  0  0  0  0
 29 34  1  0  0  0  0
 30 35  1  0  0  0  0
 30 29  2  0  0  0  0
 31 30  1  0  0  0  0
 32 27  1  0  0  0  0
 36 31  1  0  0  0  0
M  END
>  <minimizedAffinity>
-6.36027765

$$$$

 OpenBabel03272509063D

 36 39  0  0  0  0  0  0  0  0999 V2000
   38.9750   27.5500   31.2680 C   0  0  0  0  0  0  0  0  0  0  0  0
   39.3690   26.6280   32.2590 C   0  0  0  0  0  0  0  0  0  0  0  0
   38.4890   26.3570   33.3250 C   0  0  0  0  0  0  0  0  0  0  0  0
   37.3000   27.0310   33.2990 N   0  0  0  0  0  0  0  0  0  0  0  0
   36.9600   27.8950   32.3500 C   0  0  0  0  0  0  0  0  0  0  0  0
   37.7890   28.1640   31.3270 N   0  0  0  0  0  0  0  0  0  0  0  0
   39.6670   27.7310   30.4740 H   0  0  0  0  0  0  0  0  0  0  0  0
   40.3040   26.1420   32.2150 H   0  0  0  0  0  0  0  0  0  0  0  0
   39.7970   24.4780   34.3150 C   0  0  0  0  0  3  0  0  0  0  0  0
   38.8050   25.4220   34.3940 C   0  0  0  0  0  0  0  0  0  0  0  0
   38.0590   25.4930   35.5510 C   0  0  0  0  0  0  0  0  0  0  0  0
   37.2610   26.1930   35.7170 H   0  0  0  0  0  0  0  0  0  0  0  0
   38.3550   24.5990   36.5800 C   0  0  0  0  0  0  0  0  0  0  0  0
   37.8310   24.4090   37.8070 N   0  0  0  0  0  0  0  0  0  0  0  0
   38.4770   23.3980   38.4390 C   0  0  0  0  0  0  0  0  0  0  0  0
   38.3380   22.9660   39.4190 H   0  0  0  0  0  0  0  0  0  0  0  0
   39.4220   22.9350   37.6140 N   0  0  0  0  0  0  0  0  0  0  0  0
   39.3680   23.6490   36.4760 C   0  0  0  0  0  0  0  0  0  0  0  0
   40.1140   23.5920   35.2950 C   0  0  0  0  0  3  0  0  0  0  0  0
   37.0440   24.9460   38.2340 H   0  0  0  0  0  0  0  0  0  0  0  0
   35.6700   28.5110   32.5030 C   0  0  0  0  0  3  0  0  0  0  0  0
   35.2910   28.9460   33.6520 C   0  0  0  0  0  3  0  0  0  0  0  0
   34.0410   29.6100   34.0380 C   0  0  0  0  0  0  0  0  0  0  0  0
   33.6380   30.1140   33.1330 H   0  0  0  0  0  0  0  0  0  0  0  0
   33.2640   28.8960   34.3760 H   0  0  0  0  0  0  0  0  0  0  0  0
   34.2180   30.6240   35.1270 C   0  0  0  0  0  0  0  0  0  0  0  0
   33.2460   30.9960   36.0380 C   0  0  0  0  0  0  0  0  0  0  0  0
   33.5430   31.9480   37.0040 C   0  0  0  0  0  0  0  0  0  0  0  0
   34.8170   32.5390   37.0700 C   0  0  0  0  0  0  0  0  0  0  0  0
   35.7720   32.1680   36.1660 C   0  0  0  0  0  0  0  0  0  0  0  0
   35.4720   31.2230   35.2100 C   0  0  0  0  0  0  0  0  0  0  0  0
   32.2860   30.5140   35.9470 H   0  0  0  0  0  0  0  0  0  0  0  0
   32.7280   32.1880   37.6850 H   0  0  0  0  0  0  0  0  0  0  0  0
   34.9840   33.2790   37.8510 H   0  0  0  0  0  0  0  0  0  0  0  0
   36.7310   32.6560   36.2650 H   0  0  0  0  0  0  0  0  0  0  0  0
   36.2520   30.9520   34.5110 H   0  0  0  0  0  0  0  0  0  0  0  0
  1  6  2  0  0  0  0
  1  2  1  0  0  0  0
  2  3  2  0  0  0  0
  3 10  1  0  0  0  0
  4  3  1  0  0  0  0
  5 21  1  0  0  0  0
  5  4  2  0  0  0  0
  6  5  1  0  0  0  0
  7  1  1  0  0  0  0
  8  2  1  0  0  0  0
  9 10  2  0  0  0  0
  9 19  1  0  0  0  0
 10 11  1  0  0  0  0
 11 12  1  0  0  0  0
 11 13  2  0  0  0  0
 13 14  1  0  0  0  0
 14 20  1  0  0  0  0
 14 15  1  0  0  0  0
 15 16  1  0  0  0  0
 17 15  2  0  0  0  0
 18 13  1  0  0  0  0
 18 17  1  0  0  0  0
 19 18  2  0  0  0  0
 21 22  2  0  0  0  0
 22 23  1  0  0  0  0
 23 25  1  0  0  0  0
 23 26  1  0  0  0  0
 24 23  1  0  0  0  0
 26 31  2  0  0  0  0
 26 27  1  0  0  0  0
 27 28  2  0  0  0  0
 28 29  1  0  0  0  0
 28 33  1  0  0  0  0
 29 34  1  0  0  0  0
 30 35  1  0  0  0  0
 30 29  2  0  0  0  0
 31 30  1  0  0  0  0
 32 27  1  0  0  0  0
 36 31  1  0  0  0  0
M  END
>  <minimizedAffinity>
-6.18218184

$$$$

 OpenBabel03272509063D

 36 39  0  0  0  0  0  0  0  0999 V2000
   36.7650   25.7090   31.9720 C   0  0  0  0  0  0  0  0  0  0  0  0
   37.4270   24.8640   32.8860 C   0  0  0  0  0  0  0  0  0  0  0  0
   37.6960   25.3430   34.1840 C   0  0  0  0  0  0  0  0  0  0  0  0
   37.2760   26.6170   34.4450 N   0  0  0  0  0  0  0  0  0  0  0  0
   36.6550   27.3870   33.5600 C   0  0  0  0  0  0  0  0  0  0  0  0
   36.3920   26.9450   32.3190 N   0  0  0  0  0  0  0  0  0  0  0  0
   36.5780   25.3130   30.9970 H   0  0  0  0  0  0  0  0  0  0  0  0
   37.7230   23.8880   32.6160 H   0  0  0  0  0  0  0  0  0  0  0  0
   37.9780   24.4830   36.5080 C   0  0  0  0  0  3  0  0  0  0  0  0
   38.3730   24.5460   35.1970 C   0  0  0  0  0  0  0  0  0  0  0  0
   39.4760   23.8170   34.8080 C   0  0  0  0  0  0  0  0  0  0  0  0
   39.8690   23.7960   33.8090 H   0  0  0  0  0  0  0  0  0  0  0  0
   40.1320   23.0520   35.7730 C   0  0  0  0  0  0  0  0  0  0  0  0
   41.2110   22.2460   35.7250 N   0  0  0  0  0  0  0  0  0  0  0  0
   41.4540   21.7210   36.9510 C   0  0  0  0  0  0  0  0  0  0  0  0
   42.2220   21.0430   37.2960 H   0  0  0  0  0  0  0  0  0  0  0  0
   40.5280   22.1910   37.7920 N   0  0  0  0  0  0  0  0  0  0  0  0
   39.7110   23.0040   37.1000 C   0  0  0  0  0  0  0  0  0  0  0  0
   38.5900   23.7500   37.4750 C   0  0  0  0  0  3  0  0  0  0  0  0
   41.7910   22.0390   34.8830 H   0  0  0  0  0  0  0  0  0  0  0  0
   36.3000   28.7030   34.0200 C   0  0  0  0  0  3  0  0  0  0  0  0
   35.8530   29.5800   33.1930 C   0  0  0  0  0  3  0  0  0  0  0  0
   35.4240   30.9620   33.4340 C   0  0  0  0  0  0  0  0  0  0  0  0
   36.3380   31.5940   33.4720 H   0  0  0  0  0  0  0  0  0  0  0  0
   34.7950   31.3640   32.6140 H   0  0  0  0  0  0  0  0  0  0  0  0
   34.6570   31.1330   34.7080 C   0  0  0  0  0  0  0  0  0  0  0  0
   33.3790   30.6550   34.9420 C   0  0  0  0  0  0  0  0  0  0  0  0
   32.7800   30.8780   36.1750 C   0  0  0  0  0  0  0  0  0  0  0  0
   33.4530   31.5820   37.1890 C   0  0  0  0  0  0  0  0  0  0  0  0
   34.7140   32.0520   36.9520 C   0  0  0  0  0  0  0  0  0  0  0  0
   35.3030   31.8270   35.7270 C   0  0  0  0  0  0  0  0  0  0  0  0
   32.9050   30.1220   34.1340 H   0  0  0  0  0  0  0  0  0  0  0  0
   31.7760   30.4730   36.2830 H   0  0  0  0  0  0  0  0  0  0  0  0
   32.9270   31.7230   38.1320 H   0  0  0  0  0  0  0  0  0  0  0  0
   35.1800   32.5850   37.7670 H   0  0  0  0  0  0  0  0  0  0  0  0
   36.3030   32.2120   35.5740 H   0  0  0  0  0  0  0  0  0  0  0  0
  1  6  2  0  0  0  0
  1  2  1  0  0  0  0
  2  3  2  0  0  0  0
  3  4  1  0  0  0  0
  3 10  1  0  0  0  0
  5 21  1  0  0  0  0
  5  4  2  0  0  0  0
  6  5  1  0  0  0  0
  7  1  1  0  0  0  0
  8  2  1  0  0  0  0
  9 19  1  0  0  0  0
 10  9  2  0  0  0  0
 11 10  1  0  0  0  0
 11 13  2  0  0  0  0
 12 11  1  0  0  0  0
 13 18  1  0  0  0  0
 14 13  1  0  0  0  0
 14 15  1  0  0  0  0
 15 16  1  0  0  0  0
 15 17  2  0  0  0  0
 18 19  2  0  0  0  0
 18 17  1  0  0  0  0
 20 14  1  0  0  0  0
 22 23  1  0  0  0  0
 22 21  2  0  0  0  0
 23 24  1  0  0  0  0
 23 26  1  0  0  0  0
 25 23  1  0  0  0  0
 26 27  2  0  0  0  0
 26 31  1  0  0  0  0
 27 28  1  0  0  0  0
 28 33  1  0  0  0  0
 28 29  2  0  0  0  0
 29 34  1  0  0  0  0
 30 29  1  0  0  0  0
 30 35  1  0  0  0  0
 31 30  2  0  0  0  0
 32 27  1  0  0  0  0
 36 31  1  0  0  0  0
M  END
>  <minimizedAffinity>
-6.06765795

$$$$

 OpenBabel03272509063D

 36 39  0  0  0  0  0  0  0  0999 V2000
   37.0380   26.3600   32.2370 C   0  0  0  0  0  0  0  0  0  0  0  0
   37.6570   25.4310   33.0970 C   0  0  0  0  0  0  0  0  0  0  0  0
   37.7490   25.7320   34.4700 C   0  0  0  0  0  0  0  0  0  0  0  0
   37.2130   26.9290   34.8530 N   0  0  0  0  0  0  0  0  0  0  0  0
   36.6360   27.7820   34.0160 C   0  0  0  0  0  0  0  0  0  0  0  0
   36.5420   27.5100   32.7030 N   0  0  0  0  0  0  0  0  0  0  0  0
   36.9860   26.0990   31.2020 H   0  0  0  0  0  0  0  0  0  0  0  0
   38.0500   24.5230   32.7320 H   0  0  0  0  0  0  0  0  0  0  0  0
   37.8360   24.5550   36.6680 C   0  0  0  0  0  3  0  0  0  0  0  0
   38.3700   24.8370   35.4360 C   0  0  0  0  0  0  0  0  0  0  0  0
   39.5630   24.2430   35.0870 C   0  0  0  0  0  0  0  0  0  0  0  0
   40.0660   24.3950   34.1500 H   0  0  0  0  0  0  0  0  0  0  0  0
   40.1650   23.3850   36.0080 C   0  0  0  0  0  0  0  0  0  0  0  0
   41.3020   22.6630   35.9800 N   0  0  0  0  0  0  0  0  0  0  0  0
   41.4480   21.9770   37.1400 C   0  0  0  0  0  0  0  0  0  0  0  0
   42.2230   21.3040   37.4780 H   0  0  0  0  0  0  0  0  0  0  0  0
   40.3990   22.2590   37.9190 N   0  0  0  0  0  0  0  0  0  0  0  0
   39.6030   23.1140   37.2540 C   0  0  0  0  0  0  0  0  0  0  0  0
   38.3920   23.7250   37.5900 C   0  0  0  0  0  3  0  0  0  0  0  0
   41.9880   22.6190   35.1950 H   0  0  0  0  0  0  0  0  0  0  0  0
   36.1400   28.9960   34.6070 C   0  0  0  0  0  3  0  0  0  0  0  0
   35.5080   29.8560   33.8900 C   0  0  0  0  0  3  0  0  0  0  0  0
   34.9110   31.1400   34.2740 C   0  0  0  0  0  0  0  0  0  0  0  0
   34.1050   31.3650   33.5430 H   0  0  0  0  0  0  0  0  0  0  0  0
   34.4330   31.1070   35.2740 H   0  0  0  0  0  0  0  0  0  0  0  0
   35.8930   32.2710   34.2870 C   0  0  0  0  0  0  0  0  0  0  0  0
   36.4390   32.8420   35.4230 C   0  0  0  0  0  0  0  0  0  0  0  0
   37.3460   33.8860   35.2950 C   0  0  0  0  0  0  0  0  0  0  0  0
   37.7160   34.3720   34.0290 C   0  0  0  0  0  0  0  0  0  0  0  0
   37.1720   33.8040   32.9110 C   0  0  0  0  0  0  0  0  0  0  0  0
   36.2740   32.7690   33.0440 C   0  0  0  0  0  0  0  0  0  0  0  0
   36.1250   32.4350   36.3700 H   0  0  0  0  0  0  0  0  0  0  0  0
   37.7320   34.2830   36.2320 H   0  0  0  0  0  0  0  0  0  0  0  0
   38.4310   35.1930   33.9980 H   0  0  0  0  0  0  0  0  0  0  0  0
   37.4930   34.2190   31.9660 H   0  0  0  0  0  0  0  0  0  0  0  0
   35.8630   32.3420   32.1380 H   0  0  0  0  0  0  0  0  0  0  0  0
  1  6  2  0  0  0  0
  1  2  1  0  0  0  0
  2  3  2  0  0  0  0
  3  4  1  0  0  0  0
  3 10  1  0  0  0  0
  5 21  1  0  0  0  0
  5  4  2  0  0  0  0
  6  5  1  0  0  0  0
  7  1  1  0  0  0  0
  8  2  1  0  0  0  0
  9 19  1  0  0  0  0
 10  9  2  0  0  0  0
 11 10  1  0  0  0  0
 11 13  2  0  0  0  0
 12 11  1  0  0  0  0
 13 18  1  0  0  0  0
 14 13  1  0  0  0  0
 14 15  1  0  0  0  0
 15 16  1  0  0  0  0
 15 17  2  0  0  0  0
 18 19  2  0  0  0  0
 18 17  1  0  0  0  0
 20 14  1  0  0  0  0
 22 23  1  0  0  0  0
 22 21  2  0  0  0  0
 23 26  1  0  0  0  0
 23 25  1  0  0  0  0
 24 23  1  0  0  0  0
 26 27  1  0  0  0  0
 27 32  1  0  0  0  0
 28 27  2  0  0  0  0
 28 33  1  0  0  0  0
 29 28  1  0  0  0  0
 30 31  1  0  0  0  0
 30 29  2  0  0  0  0
 31 26  2  0  0  0  0
 34 29  1  0  0  0  0
 35 30  1  0  0  0  0
 36 31  1  0  0  0  0
M  END
>  <minimizedAffinity>
-6.04425859

$$$$

 OpenBabel03272509063D

 36 39  0  0  0  0  0  0  0  0999 V2000
   35.9500   24.9490   31.3960 C   0  0  0  0  0  0  0  0  0  0  0  0
   36.9230   24.3630   32.2310 C   0  0  0  0  0  0  0  0  0  0  0  0
   37.6180   25.1800   33.1440 C   0  0  0  0  0  0  0  0  0  0  0  0
   37.2740   26.5030   33.1380 N   0  0  0  0  0  0  0  0  0  0  0  0
   36.3520   27.0230   32.3370 C   0  0  0  0  0  0  0  0  0  0  0  0
   35.6810   26.2570   31.4600 N   0  0  0  0  0  0  0  0  0  0  0  0
   35.4430   24.2990   30.7160 H   0  0  0  0  0  0  0  0  0  0  0  0
   37.1370   23.3310   32.1830 H   0  0  0  0  0  0  0  0  0  0  0  0
   39.9640   25.0110   33.9750 C   0  0  0  0  0  3  0  0  0  0  0  0
   38.6380   24.6680   34.0470 C   0  0  0  0  0  0  0  0  0  0  0  0
   38.2420   23.7860   35.0300 C   0  0  0  0  0  0  0  0  0  0  0  0
   37.2310   23.4520   35.1740 H   0  0  0  0  0  0  0  0  0  0  0  0
   39.2140   23.2900   35.8980 C   0  0  0  0  0  0  0  0  0  0  0  0
   39.1620   22.4350   36.9390 N   0  0  0  0  0  0  0  0  0  0  0  0
   40.3990   22.2710   37.4690 C   0  0  0  0  0  0  0  0  0  0  0  0
   40.7450   21.6720   38.2990 H   0  0  0  0  0  0  0  0  0  0  0  0
   41.2510   23.0240   36.7670 N   0  0  0  0  0  0  0  0  0  0  0  0
   40.5550   23.6540   35.8050 C   0  0  0  0  0  0  0  0  0  0  0  0
   40.9380   24.5500   34.8020 C   0  0  0  0  0  3  0  0  0  0  0  0
   38.3100   21.9560   37.3040 H   0  0  0  0  0  0  0  0  0  0  0  0
   36.1380   28.4390   32.4720 C   0  0  0  0  0  3  0  0  0  0  0  0
   35.8600   28.9470   33.6210 C   0  0  0  0  0  3  0  0  0  0  0  0
   35.6160   30.3440   33.9940 C   0  0  0  0  0  0  0  0  0  0  0  0
   36.5640   30.7490   34.4100 H   0  0  0  0  0  0  0  0  0  0  0  0
   35.3540   30.9800   33.1240 H   0  0  0  0  0  0  0  0  0  0  0  0
   34.5270   30.5060   35.0090 C   0  0  0  0  0  0  0  0  0  0  0  0
   33.3560   29.7690   35.0490 C   0  0  0  0  0  0  0  0  0  0  0  0
   32.4260   30.0180   36.0510 C   0  0  0  0  0  0  0  0  0  0  0  0
   32.6560   31.0070   37.0220 C   0  0  0  0  0  0  0  0  0  0  0  0
   33.8140   31.7320   36.9760 C   0  0  0  0  0  0  0  0  0  0  0  0
   34.7320   31.4810   35.9810 C   0  0  0  0  0  0  0  0  0  0  0  0
   33.2260   29.0230   34.2840 H   0  0  0  0  0  0  0  0  0  0  0  0
   31.5320   29.3980   36.0170 H   0  0  0  0  0  0  0  0  0  0  0  0
   31.8870   31.1520   37.7790 H   0  0  0  0  0  0  0  0  0  0  0  0
   33.9350   32.4780   37.7480 H   0  0  0  0  0  0  0  0  0  0  0  0
   35.6380   32.0730   35.9750 H   0  0  0  0  0  0  0  0  0  0  0  0
  1  6  2  0  0  0  0
  1  2  1  0  0  0  0
  2  3  2  0  0  0  0
  3 10  1  0  0  0  0
  4  3  1  0  0  0  0
  5 21  1  0  0  0  0
  5  4  2  0  0  0  0
  6  5  1  0  0  0  0
  7  1  1  0  0  0  0
  8  2  1  0  0  0  0
  9 10  2  0  0  0  0
  9 19  1  0  0  0  0
 10 11  1  0  0  0  0
 11 12  1  0  0  0  0
 11 13  2  0  0  0  0
 13 14  1  0  0  0  0
 14 20  1  0  0  0  0
 14 15  1  0  0  0  0
 15 16  1  0  0  0  0
 17 15  2  0  0  0  0
 18 13  1  0  0  0  0
 18 17  1  0  0  0  0
 19 18  2  0  0  0  0
 21 22  2  0  0  0  0
 22 23  1  0  0  0  0
 23 24  1  0  0  0  0
 23 26  1  0  0  0  0
 25 23  1  0  0  0  0
 26 27  2  0  0  0  0
 26 31  1  0  0  0  0
 27 28  1  0  0  0  0
 28 29  2  0  0  0  0
 29 34  1  0  0  0  0
 30 29  1  0  0  0  0
 30 35  1  0  0  0  0
 31 30  2  0  0  0  0
 32 27  1  0  0  0  0
 33 28  1  0  0  0  0
 36 31  1  0  0  0  0
M  END
>  <minimizedAffinity>
-6.02901077

$$$$

 OpenBabel03272509063D

 36 39  0  0  0  0  0  0  0  0999 V2000
   38.3030   26.2320   35.4740 C   0  0  0  0  0  0  0  0  0  0  0  0
   37.6340   27.4440   35.2100 C   0  0  0  0  0  0  0  0  0  0  0  0
   36.9140   27.5760   34.0060 C   0  0  0  0  0  0  0  0  0  0  0  0
   36.9310   26.4850   33.1820 N   0  0  0  0  0  0  0  0  0  0  0  0
   37.5730   25.3570   33.4610 C   0  0  0  0  0  0  0  0  0  0  0  0
   38.2640   25.2170   34.6050 N   0  0  0  0  0  0  0  0  0  0  0  0
   38.8390   26.1670   36.3960 H   0  0  0  0  0  0  0  0  0  0  0  0
   37.6630   28.2470   35.8930 H   0  0  0  0  0  0  0  0  0  0  0  0
   35.6680   29.6650   34.5580 C   0  0  0  0  0  3  0  0  0  0  0  0
   36.1910   28.7860   33.6440 C   0  0  0  0  0  0  0  0  0  0  0  0
   36.0250   29.0590   32.3030 C   0  0  0  0  0  0  0  0  0  0  0  0
   36.3940   28.4380   31.5080 H   0  0  0  0  0  0  0  0  0  0  0  0
   35.3320   30.2160   31.9490 C   0  0  0  0  0  0  0  0  0  0  0  0
   35.0060   30.7600   30.7590 N   0  0  0  0  0  0  0  0  0  0  0  0
   34.3170   31.9120   30.9480 C   0  0  0  0  0  0  0  0  0  0  0  0
   33.8960   32.6140   30.2420 H   0  0  0  0  0  0  0  0  0  0  0  0
   34.2010   32.1120   32.2640 N   0  0  0  0  0  0  0  0  0  0  0  0
   34.8100   31.0940   32.8960 C   0  0  0  0  0  0  0  0  0  0  0  0
   34.9880   30.8010   34.2510 C   0  0  0  0  0  3  0  0  0  0  0  0
   35.2350   30.3720   29.8180 H   0  0  0  0  0  0  0  0  0  0  0  0
   37.4800   24.3250   32.4630 C   0  0  0  0  0  3  0  0  0  0  0  0
   36.3300   23.8880   32.0870 C   0  0  0  0  0  3  0  0  0  0  0  0
   35.9970   22.8640   31.0920 C   0  0  0  0  0  0  0  0  0  0  0  0
   35.0280   23.1510   30.6290 H   0  0  0  0  0  0  0  0  0  0  0  0
   36.7380   22.8100   30.2690 H   0  0  0  0  0  0  0  0  0  0  0  0
   35.8750   21.4890   31.6720 C   0  0  0  0  0  0  0  0  0  0  0  0
   35.5030   21.2010   32.9740 C   0  0  0  0  0  0  0  0  0  0  0  0
   35.4230   19.8770   33.3850 C   0  0  0  0  0  0  0  0  0  0  0  0
   35.7160   18.8250   32.5000 C   0  0  0  0  0  0  0  0  0  0  0  0
   36.0840   19.1160   31.2160 C   0  0  0  0  0  0  0  0  0  0  0  0
   36.1610   20.4310   30.8140 C   0  0  0  0  0  0  0  0  0  0  0  0
   35.2880   22.0410   33.6140 H   0  0  0  0  0  0  0  0  0  0  0  0
   35.1240   19.7310   34.4210 H   0  0  0  0  0  0  0  0  0  0  0  0
   35.6360   17.8100   32.8850 H   0  0  0  0  0  0  0  0  0  0  0  0
   36.2980   18.2680   30.5820 H   0  0  0  0  0  0  0  0  0  0  0  0
   36.4550   20.6250   29.7900 H   0  0  0  0  0  0  0  0  0  0  0  0
  1  7  1  0  0  0  0
  2  1  1  0  0  0  0
  2  8  1  0  0  0  0
  3  2  2  0  0  0  0
  4  5  2  0  0  0  0
  4  3  1  0  0  0  0
  5  6  1  0  0  0  0
  6  1  2  0  0  0  0
 10  3  1  0  0  0  0
 10  9  2  0  0  0  0
 11 10  1  0  0  0  0
 12 11  1  0  0  0  0
 13 11  2  0  0  0  0
 13 18  1  0  0  0  0
 14 15  1  0  0  0  0
 14 13  1  0  0  0  0
 15 17  2  0  0  0  0
 16 15  1  0  0  0  0
 17 18  1  0  0  0  0
 18 19  2  0  0  0  0
 19  9  1  0  0  0  0
 20 14  1  0  0  0  0
 21  5  1  0  0  0  0
 22 21  2  0  0  0  0
 23 26  1  0  0  0  0
 23 22  1  0  0  0  0
 24 23  1  0  0  0  0
 25 23  1  0  0  0  0
 26 27  1  0  0  0  0
 27 28  2  0  0  0  0
 27 32  1  0  0  0  0
 28 33  1  0  0  0  0
 29 34  1  0  0  0  0
 29 28  1  0  0  0  0
 30 29  2  0  0  0  0
 31 30  1  0  0  0  0
 31 26  2  0  0  0  0
 35 30  1  0  0  0  0
 36 31  1  0  0  0  0
M  END
>  <minimizedAffinity>
-5.98022652

$$$$

 OpenBabel03272509063D

 36 39  0  0  0  0  0  0  0  0999 V2000
   35.7710   24.6660   31.3370 C   0  0  0  0  0  0  0  0  0  0  0  0
   36.7300   24.1220   32.2150 C   0  0  0  0  0  0  0  0  0  0  0  0
   37.5820   24.9960   32.9190 C   0  0  0  0  0  0  0  0  0  0  0  0
   37.3940   26.3280   32.6790 N   0  0  0  0  0  0  0  0  0  0  0  0
   36.4810   26.8080   31.8440 C   0  0  0  0  0  0  0  0  0  0  0  0
   35.6610   25.9870   31.1660 N   0  0  0  0  0  0  0  0  0  0  0  0
   35.1420   23.9730   30.8210 H   0  0  0  0  0  0  0  0  0  0  0  0
   36.8200   23.0800   32.3530 H   0  0  0  0  0  0  0  0  0  0  0  0
   39.9170   24.9190   33.7950 C   0  0  0  0  0  3  0  0  0  0  0  0
   38.6020   24.5310   33.8470 C   0  0  0  0  0  0  0  0  0  0  0  0
   38.2180   23.6480   34.8340 C   0  0  0  0  0  0  0  0  0  0  0  0
   37.2170   23.2800   34.9630 H   0  0  0  0  0  0  0  0  0  0  0  0
   39.1900   23.1960   35.7260 C   0  0  0  0  0  0  0  0  0  0  0  0
   39.1470   22.3530   36.7770 N   0  0  0  0  0  0  0  0  0  0  0  0
   40.3790   22.2390   37.3320 C   0  0  0  0  0  0  0  0  0  0  0  0
   40.7290   21.6620   38.1770 H   0  0  0  0  0  0  0  0  0  0  0  0
   41.2180   23.0120   36.6360 N   0  0  0  0  0  0  0  0  0  0  0  0
   40.5200   23.6050   35.6530 C   0  0  0  0  0  0  0  0  0  0  0  0
   40.8900   24.5020   34.6460 C   0  0  0  0  0  3  0  0  0  0  0  0
   38.3060   21.8490   37.1330 H   0  0  0  0  0  0  0  0  0  0  0  0
   36.4430   28.2400   31.7180 C   0  0  0  0  0  3  0  0  0  0  0  0
   35.4290   28.9030   32.1520 C   0  0  0  0  0  3  0  0  0  0  0  0
   35.1800   30.3480   32.1410 C   0  0  0  0  0  0  0  0  0  0  0  0
   35.7680   30.7820   31.3050 H   0  0  0  0  0  0  0  0  0  0  0  0
   34.1170   30.5980   31.9460 H   0  0  0  0  0  0  0  0  0  0  0  0
   35.5680   31.0270   33.4190 C   0  0  0  0  0  0  0  0  0  0  0  0
   35.5760   30.4340   34.6690 C   0  0  0  0  0  0  0  0  0  0  0  0
   35.9640   31.1770   35.7760 C   0  0  0  0  0  0  0  0  0  0  0  0
   36.3480   32.5230   35.6450 C   0  0  0  0  0  0  0  0  0  0  0  0
   36.3370   33.1040   34.4080 C   0  0  0  0  0  0  0  0  0  0  0  0
   35.9510   32.3610   33.3140 C   0  0  0  0  0  0  0  0  0  0  0  0
   35.2750   29.4010   34.7170 H   0  0  0  0  0  0  0  0  0  0  0  0
   35.9450   30.6420   36.7230 H   0  0  0  0  0  0  0  0  0  0  0  0
   36.6400   33.0500   36.5520 H   0  0  0  0  0  0  0  0  0  0  0  0
   36.6400   34.1390   34.3700 H   0  0  0  0  0  0  0  0  0  0  0  0
   35.9550   32.8520   32.3490 H   0  0  0  0  0  0  0  0  0  0  0  0
  1  2  1  0  0  0  0
  2  8  1  0  0  0  0
  2  3  2  0  0  0  0
  3 10  1  0  0  0  0
  4  3  1  0  0  0  0
  5  4  2  0  0  0  0
  6  1  2  0  0  0  0
  6  5  1  0  0  0  0
  7  1  1  0  0  0  0
  9 10  2  0  0  0  0
  9 19  1  0  0  0  0
 10 11  1  0  0  0  0
 11 12  1  0  0  0  0
 11 13  2  0  0  0  0
 13 14  1  0  0  0  0
 14 20  1  0  0  0  0
 14 15  1  0  0  0  0
 15 16  1  0  0  0  0
 17 15  2  0  0  0  0
 18 13  1  0  0  0  0
 18 17  1  0  0  0  0
 19 18  2  0  0  0  0
 21  5  1  0  0  0  0
 21 22  2  0  0  0  0
 23 22  1  0  0  0  0
 23 26  1  0  0  0  0
 24 23  1  0  0  0  0
 25 23  1  0  0  0  0
 26 27  1  0  0  0  0
 27 32  1  0  0  0  0
 27 28  2  0  0  0  0
 28 33  1  0  0  0  0
 29 28  1  0  0  0  0
 29 34  1  0  0  0  0
 30 29  2  0  0  0  0
 31 26  2  0  0  0  0
 31 30  1  0  0  0  0
 35 30  1  0  0  0  0
 36 31  1  0  0  0  0
M  END
>  <minimizedAffinity>
-5.96631908

$$$$

 OpenBabel03272509063D

 36 39  0  0  0  0  0  0  0  0999 V2000
   37.6200   27.2100   31.3740 C   0  0  0  0  0  0  0  0  0  0  0  0
   38.1490   26.2530   32.2630 C   0  0  0  0  0  0  0  0  0  0  0  0
   37.8430   26.3550   33.6340 C   0  0  0  0  0  0  0  0  0  0  0  0
   37.0370   27.4020   33.9860 N   0  0  0  0  0  0  0  0  0  0  0  0
   36.5550   28.2870   33.1220 C   0  0  0  0  0  0  0  0  0  0  0  0
   36.8390   28.2030   31.8120 N   0  0  0  0  0  0  0  0  0  0  0  0
   37.8730   27.1020   30.3410 H   0  0  0  0  0  0  0  0  0  0  0  0
   38.7660   25.4690   31.9200 H   0  0  0  0  0  0  0  0  0  0  0  0
   39.3270   24.4950   34.3830 C   0  0  0  0  0  3  0  0  0  0  0  0
   38.3400   25.4160   34.6280 C   0  0  0  0  0  0  0  0  0  0  0  0
   37.7820   25.4580   35.8880 C   0  0  0  0  0  0  0  0  0  0  0  0
   37.0050   26.1380   36.1850 H   0  0  0  0  0  0  0  0  0  0  0  0
   38.2530   24.5600   36.8460 C   0  0  0  0  0  0  0  0  0  0  0  0
   37.9300   24.3460   38.1370 N   0  0  0  0  0  0  0  0  0  0  0  0
   38.6870   23.3440   38.6460 C   0  0  0  0  0  0  0  0  0  0  0  0
   38.7120   22.8980   39.6300 H   0  0  0  0  0  0  0  0  0  0  0  0
   39.5010   22.9110   37.6790 N   0  0  0  0  0  0  0  0  0  0  0  0
   39.2570   23.6350   36.5730 C   0  0  0  0  0  0  0  0  0  0  0  0
   39.8110   23.6060   35.2900 C   0  0  0  0  0  3  0  0  0  0  0  0
   37.2080   24.8610   38.6880 H   0  0  0  0  0  0  0  0  0  0  0  0
   35.7330   29.3230   33.6870 C   0  0  0  0  0  3  0  0  0  0  0  0
   34.6070   29.6260   33.1420 C   0  0  0  0  0  3  0  0  0  0  0  0
   33.6120   30.6260   33.5430 C   0  0  0  0  0  0  0  0  0  0  0  0
   34.1100   31.6190   33.5250 H   0  0  0  0  0  0  0  0  0  0  0  0
   32.7580   30.6860   32.8380 H   0  0  0  0  0  0  0  0  0  0  0  0
   33.0450   30.3860   34.9090 C   0  0  0  0  0  0  0  0  0  0  0  0
   33.1780   31.2390   35.9900 C   0  0  0  0  0  0  0  0  0  0  0  0
   32.5970   30.8970   37.2050 C   0  0  0  0  0  0  0  0  0  0  0  0
   31.8770   29.6990   37.3520 C   0  0  0  0  0  0  0  0  0  0  0  0
   31.7500   28.8610   36.2800 C   0  0  0  0  0  0  0  0  0  0  0  0
   32.3280   29.2050   35.0780 C   0  0  0  0  0  0  0  0  0  0  0  0
   33.7380   32.1440   35.8280 H   0  0  0  0  0  0  0  0  0  0  0  0
   32.7450   31.6180   38.0070 H   0  0  0  0  0  0  0  0  0  0  0  0
   31.4470   29.4910   38.3300 H   0  0  0  0  0  0  0  0  0  0  0  0
   31.1870   27.9560   36.4520 H   0  0  0  0  0  0  0  0  0  0  0  0
   32.2070   28.5180   34.2500 H   0  0  0  0  0  0  0  0  0  0  0  0
  1  6  2  0  0  0  0
  1  2  1  0  0  0  0
  2  3  2  0  0  0  0
  3  4  1  0  0  0  0
  3 10  1  0  0  0  0
  5 21  1  0  0  0  0
  5  4  2  0  0  0  0
  6  5  1  0  0  0  0
  7  1  1  0  0  0  0
  8  2  1  0  0  0  0
  9 10  2  0  0  0  0
  9 19  1  0  0  0  0
 10 11  1  0  0  0  0
 11 12  1  0  0  0  0
 11 13  2  0  0  0  0
 13 14  1  0  0  0  0
 14 15  1  0  0  0  0
 14 20  1  0  0  0  0
 15 16  1  0  0  0  0
 17 15  2  0  0  0  0
 18 13  1  0  0  0  0
 18 17  1  0  0  0  0
 19 18  2  0  0  0  0
 22 23  1  0  0  0  0
 22 21  2  0  0  0  0
 23 26  1  0  0  0  0
 24 23  1  0  0  0  0
 25 23  1  0  0  0  0
 26 31  2  0  0  0  0
 26 27  1  0  0  0  0
 27 28  2  0  0  0  0
 28 29  1  0  0  0  0
 28 33  1  0  0  0  0
 29 34  1  0  0  0  0
 30 35  1  0  0  0  0
 30 29  2  0  0  0  0
 31 30  1  0  0  0  0
 32 27  1  0  0  0  0
 36 31  1  0  0  0  0
M  END
>  <minimizedAffinity>
-5.7703681

$$$$

 OpenBabel03272509063D

 36 39  0  0  0  0  0  0  0  0999 V2000
   38.8150   25.6180   35.1920 C   0  0  0  0  0  0  0  0  0  0  0  0
   38.5010   24.4180   34.5220 C   0  0  0  0  0  0  0  0  0  0  0  0
   37.6280   24.4620   33.4180 C   0  0  0  0  0  0  0  0  0  0  0  0
   37.1530   25.7000   33.0870 N   0  0  0  0  0  0  0  0  0  0  0  0
   37.4680   26.8120   33.7400 C   0  0  0  0  0  0  0  0  0  0  0  0
   38.2990   26.7850   34.7950 N   0  0  0  0  0  0  0  0  0  0  0  0
   39.4800   25.5460   36.0250 H   0  0  0  0  0  0  0  0  0  0  0  0
   38.9070   23.4950   34.8330 H   0  0  0  0  0  0  0  0  0  0  0  0
   36.1570   23.2220   31.8300 C   0  0  0  0  0  3  0  0  0  0  0  0
   37.2460   23.2780   32.6630 C   0  0  0  0  0  0  0  0  0  0  0  0
   38.0270   22.1500   32.7970 C   0  0  0  0  0  0  0  0  0  0  0  0
   38.8990   22.0870   33.4210 H   0  0  0  0  0  0  0  0  0  0  0  0
   37.6660   21.0110   32.0780 C   0  0  0  0  0  0  0  0  0  0  0  0
   38.2020   19.7780   31.9860 N   0  0  0  0  0  0  0  0  0  0  0  0
   37.4700   19.0140   31.1390 C   0  0  0  0  0  0  0  0  0  0  0  0
   37.5900   17.9880   30.8210 H   0  0  0  0  0  0  0  0  0  0  0  0
   36.4590   19.7590   30.6810 N   0  0  0  0  0  0  0  0  0  0  0  0
   36.5560   20.9780   31.2380 C   0  0  0  0  0  0  0  0  0  0  0  0
   35.7750   22.1320   31.1140 C   0  0  0  0  0  3  0  0  0  0  0  0
   39.0530   19.4350   32.4830 H   0  0  0  0  0  0  0  0  0  0  0  0
   36.8580   28.0180   33.2460 C   0  0  0  0  0  3  0  0  0  0  0  0
   36.0260   28.6700   33.9780 C   0  0  0  0  0  3  0  0  0  0  0  0
   35.3000   29.9120   33.6930 C   0  0  0  0  0  0  0  0  0  0  0  0
   35.9860   30.5770   33.1250 H   0  0  0  0  0  0  0  0  0  0  0  0
   34.4110   29.7500   33.0500 H   0  0  0  0  0  0  0  0  0  0  0  0
   34.8340   30.6250   34.9250 C   0  0  0  0  0  0  0  0  0  0  0  0
   35.6220   31.4320   35.7270 C   0  0  0  0  0  0  0  0  0  0  0  0
   35.0630   32.0410   36.8430 C   0  0  0  0  0  0  0  0  0  0  0  0
   33.7090   31.8480   37.1700 C   0  0  0  0  0  0  0  0  0  0  0  0
   32.9370   31.0490   36.3750 C   0  0  0  0  0  0  0  0  0  0  0  0
   33.4970   30.4490   35.2690 C   0  0  0  0  0  0  0  0  0  0  0  0
   36.6520   31.5490   35.4350 H   0  0  0  0  0  0  0  0  0  0  0  0
   35.7440   32.6600   37.4240 H   0  0  0  0  0  0  0  0  0  0  0  0
   33.3330   32.3530   38.0590 H   0  0  0  0  0  0  0  0  0  0  0  0
   31.9060   30.9380   36.6760 H   0  0  0  0  0  0  0  0  0  0  0  0
   32.8570   29.8230   34.6610 H   0  0  0  0  0  0  0  0  0  0  0  0
  1  7  1  0  0  0  0
  2  8  1  0  0  0  0
  2  1  2  0  0  0  0
  3  2  1  0  0  0  0
  4  3  2  0  0  0  0
  4  5  1  0  0  0  0
  5  6  2  0  0  0  0
  6  1  1  0  0  0  0
  9 10  1  0  0  0  0
 10 11  2  0  0  0  0
 10  3  1  0  0  0  0
 11 12  1  0  0  0  0
 13 11  1  0  0  0  0
 14 13  1  0  0  0  0
 14 20  1  0  0  0  0
 15 14  1  0  0  0  0
 16 15  1  0  0  0  0
 17 15  2  0  0  0  0
 17 18  1  0  0  0  0
 18 13  2  0  0  0  0
 19 18  1  0  0  0  0
 19  9  2  0  0  0  0
 21  5  1  0  0  0  0
 21 22  2  0  0  0  0
 23 22  1  0  0  0  0
 23 26  1  0  0  0  0
 24 23  1  0  0  0  0
 25 23  1  0  0  0  0
 26 31  2  0  0  0  0
 26 27  1  0  0  0  0
 27 28  2  0  0  0  0
 28 29  1  0  0  0  0
 28 33  1  0  0  0  0
 29 34  1  0  0  0  0
 30 35  1  0  0  0  0
 30 29  2  0  0  0  0
 31 30  1  0  0  0  0
 32 27  1  0  0  0  0
 36 31  1  0  0  0  0
M  END
>  <minimizedAffinity>
-5.76777029

$$$$
