
 OpenBabel03272508563D

 43 47  0  0  1  0  0  0  0  0999 V2000
   39.0810   31.3570   43.2950 C   0  0  0  0  0  0  0  0  0  0  0  0
   40.2060   30.5930   43.4280 C   0  0  0  0  0  0  0  0  0  0  0  0
   40.9140   30.2890   42.2760 C   0  0  0  0  0  0  0  0  0  0  0  0
   40.4510   30.7640   41.0790 C   0  0  0  0  0  0  0  0  0  0  0  0
   39.2990   31.5470   40.9420 C   0  0  0  0  0  0  0  0  0  0  0  0
   38.6560   31.8090   42.0950 N   0  0  0  0  0  0  0  0  0  0  0  0
   40.5800   30.2110   44.3720 H   0  0  0  0  0  0  0  0  0  0  0  0
   41.8160   29.6920   42.2670 H   0  0  0  0  0  0  0  0  0  0  0  0
   40.9630   30.5600   40.1320 H   0  0  0  0  0  0  0  0  0  0  0  0
   38.3050   31.7020   44.5060 C   0  0  0  0  0  0  0  0  0  0  0  0
   37.1090   32.0370   44.4390 O   0  0  0  0  0  0  0  0  0  0  0  0
   38.9970   31.6360   45.7870 N   0  0  0  0  0  0  0  0  0  0  0  0
   40.0120   31.5610   45.8820 H   0  0  0  0  0  0  0  0  0  0  0  0
   38.7160   31.2530   48.2270 C   0  0  2  0  0  0  0  0  0  0  0  0
   38.6570   32.7230   48.0150 C   0  0  0  0  0  0  0  0  0  0  0  0
   38.1820   31.6800   46.9760 C   0  0  1  0  0  0  0  0  0  0  0  0
   39.7380   30.8290   48.3060 H   0  0  0  0  0  0  0  0  0  0  0  0
   37.9000   33.3310   48.5300 H   0  0  0  0  0  0  0  0  0  0  0  0
   39.5880   33.2490   47.8100 H   0  0  0  0  0  0  0  0  0  0  0  0
   37.0630   31.7130   46.8410 H   0  0  0  0  0  0  0  0  0  0  0  0
   35.9540   29.2260   49.6790 C   0  0  0  0  0  0  0  0  0  0  0  0
   36.1820   29.3860   51.0820 C   0  0  0  0  0  0  0  0  0  0  0  0
   37.2970   30.2120   51.4990 C   0  0  0  0  0  0  0  0  0  0  0  0
   38.0940   30.8090   50.5510 N   0  0  0  0  0  0  0  0  0  0  0  0
   37.8000   30.6000   49.2390 C   0  0  0  0  0  0  0  0  0  0  0  0
   36.7490   29.8220   48.7650 N   0  0  0  0  0  0  0  0  0  0  0  0
   35.1310   28.6170   49.3730 H   0  0  0  0  0  0  0  0  0  0  0  0
   35.5610   28.9210   51.8010 H   0  0  0  0  0  0  0  0  0  0  0  0
   37.4680   30.3330   52.5560 H   0  0  0  0  0  0  0  0  0  0  0  0
   38.8370   32.0350   39.6430 C   0  0  0  0  0  0  0  0  0  0  0  0
   39.2980   33.1220   39.2210 O   0  0  0  0  0  0  0  0  0  0  0  0
   37.5320   29.9290   39.1750 C   0  0  0  0  0  3  0  0  0  0  0  0
   37.8550   31.2230   38.9020 C   0  0  0  0  0  0  0  0  0  0  0  0
   37.1900   31.8000   37.8350 C   0  0  0  0  0  0  0  0  0  0  0  0
   37.4220   32.8400   37.5840 H   0  0  0  0  0  0  0  0  0  0  0  0
   36.2480   31.1530   37.0590 C   0  0  0  0  0  0  0  0  0  0  0  0
   35.5240   31.5900   35.9920 N   0  0  0  0  0  0  0  0  0  0  0  0
   34.7670   30.5330   35.6370 C   0  0  0  0  0  0  0  0  0  0  0  0
   34.0900   30.6480   34.7870 H   0  0  0  0  0  0  0  0  0  0  0  0
   35.0090   29.4910   36.4440 N   0  0  0  0  0  0  0  0  0  0  0  0
   35.9450   29.8450   37.3610 C   0  0  0  0  0  0  0  0  0  0  0  0
   36.5960   29.2430   38.4240 C   0  0  0  0  0  3  0  0  0  0  0  0
   35.5750   32.5540   35.5680 H   0  0  0  0  0  0  0  0  0  0  0  0
  1  2  1  0  0  0  0
  1 10  1  0  0  0  0
  2  7  1  0  0  0  0
  3  2  2  0  0  0  0
  4  3  1  0  0  0  0
  5  4  2  0  0  0  0
  5  6  1  0  0  0  0
  6  1  2  0  0  0  0
  8  3  1  0  0  0  0
  9  4  1  0  0  0  0
 10 12  1  0  0  0  0
 11 10  2  0  0  0  0
 12 13  1  0  0  0  0
 12 16  1  0  0  0  0
 14 17  1  6  0  0  0
 14 25  1  0  0  0  0
 15 14  1  0  0  0  0
 15 18  1  0  0  0  0
 16 20  1  6  0  0  0
 16 15  1  0  0  0  0
 16 14  1  0  0  0  0
 19 15  1  0  0  0  0
 21 22  1  0  0  0  0
 22 23  2  0  0  0  0
 22 28  1  0  0  0  0
 23 29  1  0  0  0  0
 24 23  1  0  0  0  0
 25 24  2  0  0  0  0
 26 25  1  0  0  0  0
 26 21  2  0  0  0  0
 27 21  1  0  0  0  0
 30  5  1  0  0  0  0
 31 30  2  0  0  0  0
 33 32  1  0  0  0  0
 33 30  1  0  0  0  0
 34 33  2  0  0  0  0
 35 34  1  0  0  0  0
 36 41  2  0  0  0  0
 36 34  1  0  0  0  0
 37 36  1  0  0  0  0
 38 37  1  0  0  0  0
 38 40  2  0  0  0  0
 39 38  1  0  0  0  0
 40 41  1  0  0  0  0
 41 42  1  0  0  0  0
 42 32  2  0  0  0  0
 43 37  1  0  0  0  0
M  END
>  <minimizedAffinity>
-4.84013796

>  <minimizedRMSD>
1.69338167

$$$$
