
 OpenBabel03272508573D

 43 47  0  0  1  0  0  0  0  0999 V2000
   39.1280   31.5040   43.3280 C   0  0  0  0  0  0  0  0  0  0  0  0
   40.1120   30.5650   43.4620 C   0  0  0  0  0  0  0  0  0  0  0  0
   40.8280   30.2200   42.3260 C   0  0  0  0  0  0  0  0  0  0  0  0
   40.5130   30.8320   41.1430 C   0  0  0  0  0  0  0  0  0  0  0  0
   39.5070   31.7940   41.0050 C   0  0  0  0  0  0  0  0  0  0  0  0
   38.8470   32.0870   42.1410 N   0  0  0  0  0  0  0  0  0  0  0  0
   40.3680   30.0750   44.3950 H   0  0  0  0  0  0  0  0  0  0  0  0
   41.6260   29.4900   42.3200 H   0  0  0  0  0  0  0  0  0  0  0  0
   41.0410   30.6050   40.2100 H   0  0  0  0  0  0  0  0  0  0  0  0
   38.3480   31.8970   44.5210 C   0  0  0  0  0  0  0  0  0  0  0  0
   37.2280   32.4280   44.4200 O   0  0  0  0  0  0  0  0  0  0  0  0
   38.9420   31.6370   45.8260 N   0  0  0  0  0  0  0  0  0  0  0  0
   39.9250   31.3900   45.9640 H   0  0  0  0  0  0  0  0  0  0  0  0
   38.4370   31.1140   48.2030 C   0  0  2  0  0  0  0  0  0  0  0  0
   38.6740   32.5800   48.1280 C   0  0  0  0  0  0  0  0  0  0  0  0
   38.0770   31.7410   46.9740 C   0  0  1  0  0  0  0  0  0  0  0  0
   39.3520   30.4930   48.2900 H   0  0  0  0  0  0  0  0  0  0  0  0
   38.0160   33.2800   48.6620 H   0  0  0  0  0  0  0  0  0  0  0  0
   39.7000   32.9280   48.0170 H   0  0  0  0  0  0  0  0  0  0  0  0
   36.9950   32.0040   46.7900 H   0  0  0  0  0  0  0  0  0  0  0  0
   35.0680   30.2290   49.5110 C   0  0  0  0  0  0  0  0  0  0  0  0
   35.3980   29.5420   50.7220 C   0  0  0  0  0  0  0  0  0  0  0  0
   36.7980   29.4080   51.0670 C   0  0  0  0  0  0  0  0  0  0  0  0
   37.7580   29.9340   50.2350 N   0  0  0  0  0  0  0  0  0  0  0  0
   37.3500   30.5720   49.1050 C   0  0  0  0  0  0  0  0  0  0  0  0
   36.0270   30.7400   48.7100 N   0  0  0  0  0  0  0  0  0  0  0  0
   34.0350   30.3290   49.2590 H   0  0  0  0  0  0  0  0  0  0  0  0
   34.6500   29.1420   51.3540 H   0  0  0  0  0  0  0  0  0  0  0  0
   37.0450   28.8900   51.9790 H   0  0  0  0  0  0  0  0  0  0  0  0
   39.2000   32.4240   39.7210 C   0  0  0  0  0  0  0  0  0  0  0  0
   38.7900   33.6090   39.7260 O   0  0  0  0  0  0  0  0  0  0  0  0
   38.5820   30.6240   38.0670 C   0  0  0  0  0  3  0  0  0  0  0  0
   39.3910   31.6320   38.4930 C   0  0  0  0  0  0  0  0  0  0  0  0
   40.4790   31.9150   37.6850 C   0  0  0  0  0  0  0  0  0  0  0  0
   41.1550   32.7210   37.9930 H   0  0  0  0  0  0  0  0  0  0  0  0
   40.7740   31.2520   36.5110 C   0  0  0  0  0  0  0  0  0  0  0  0
   41.7960   31.4230   35.6280 N   0  0  0  0  0  0  0  0  0  0  0  0
   41.5780   30.4980   34.6710 C   0  0  0  0  0  0  0  0  0  0  0  0
   42.2840   30.4430   33.8390 H   0  0  0  0  0  0  0  0  0  0  0  0
   40.4760   29.7890   34.9480 N   0  0  0  0  0  0  0  0  0  0  0  0
   39.9350   30.2380   36.1090 C   0  0  0  0  0  0  0  0  0  0  0  0
   38.8400   29.9330   36.8980 C   0  0  0  0  0  3  0  0  0  0  0  0
   42.5690   32.1340   35.7110 H   0  0  0  0  0  0  0  0  0  0  0  0
  1  2  1  0  0  0  0
  1 10  1  0  0  0  0
  2  7  1  0  0  0  0
  3  2  2  0  0  0  0
  4  3  1  0  0  0  0
  5  4  2  0  0  0  0
  5  6  1  0  0  0  0
  6  1  2  0  0  0  0
  8  3  1  0  0  0  0
  9  4  1  0  0  0  0
 10 12  1  0  0  0  0
 11 10  2  0  0  0  0
 12 13  1  0  0  0  0
 12 16  1  0  0  0  0
 14 17  1  6  0  0  0
 14 25  1  0  0  0  0
 15 14  1  0  0  0  0
 15 18  1  0  0  0  0
 16 20  1  6  0  0  0
 16 15  1  0  0  0  0
 16 14  1  0  0  0  0
 19 15  1  0  0  0  0
 21 22  1  0  0  0  0
 22 23  2  0  0  0  0
 22 28  1  0  0  0  0
 23 29  1  0  0  0  0
 24 23  1  0  0  0  0
 25 24  2  0  0  0  0
 26 25  1  0  0  0  0
 26 21  2  0  0  0  0
 27 21  1  0  0  0  0
 30 31  2  0  0  0  0
 30  5  1  0  0  0  0
 32 33  1  0  0  0  0
 33 30  1  0  0  0  0
 34 35  1  0  0  0  0
 34 33  2  0  0  0  0
 36 34  1  0  0  0  0
 37 43  1  0  0  0  0
 37 36  1  0  0  0  0
 38 40  2  0  0  0  0
 38 37  1  0  0  0  0
 39 38  1  0  0  0  0
 40 41  1  0  0  0  0
 41 36  2  0  0  0  0
 41 42  1  0  0  0  0
 42 32  2  0  0  0  0
M  END
>  <minimizedAffinity>
-4.96691465

>  <minimizedRMSD>
0.37270987

$$$$
