
 OpenBabel03272508563D

 43 47  0  0  1  0  0  0  0  0999 V2000
   39.2030   31.4130   43.3720 C   0  0  0  0  0  0  0  0  0  0  0  0
   40.2250   30.5230   43.5450 C   0  0  0  0  0  0  0  0  0  0  0  0
   40.9470   30.1500   42.4220 C   0  0  0  0  0  0  0  0  0  0  0  0
   40.5980   30.6870   41.2120 C   0  0  0  0  0  0  0  0  0  0  0  0
   39.5510   31.5980   41.0350 C   0  0  0  0  0  0  0  0  0  0  0  0
   38.8890   31.9220   42.1610 N   0  0  0  0  0  0  0  0  0  0  0  0
   40.5080   30.0920   44.5000 H   0  0  0  0  0  0  0  0  0  0  0  0
   41.7740   29.4540   42.4460 H   0  0  0  0  0  0  0  0  0  0  0  0
   41.1280   30.4330   40.2870 H   0  0  0  0  0  0  0  0  0  0  0  0
   38.4150   31.8340   44.5510 C   0  0  0  0  0  0  0  0  0  0  0  0
   37.3310   32.4320   44.4300 O   0  0  0  0  0  0  0  0  0  0  0  0
   38.9590   31.5230   45.8670 N   0  0  0  0  0  0  0  0  0  0  0  0
   39.9220   31.2170   46.0270 H   0  0  0  0  0  0  0  0  0  0  0  0
   38.4170   31.0900   48.2540 C   0  0  2  0  0  0  0  0  0  0  0  0
   38.6380   32.5550   48.1240 C   0  0  0  0  0  0  0  0  0  0  0  0
   38.0720   31.6620   46.9940 C   0  0  1  0  0  0  0  0  0  0  0  0
   39.3380   30.4850   48.3820 H   0  0  0  0  0  0  0  0  0  0  0  0
   37.9610   33.2660   48.6170 H   0  0  0  0  0  0  0  0  0  0  0  0
   39.6610   32.9110   48.0170 H   0  0  0  0  0  0  0  0  0  0  0  0
   36.9910   31.9030   46.7810 H   0  0  0  0  0  0  0  0  0  0  0  0
   35.0360   30.2130   49.5360 C   0  0  0  0  0  0  0  0  0  0  0  0
   35.3520   29.5810   50.7810 C   0  0  0  0  0  0  0  0  0  0  0  0
   36.7470   29.4810   51.1560 C   0  0  0  0  0  0  0  0  0  0  0  0
   37.7150   29.9860   50.3210 N   0  0  0  0  0  0  0  0  0  0  0  0
   37.3200   30.5700   49.1580 C   0  0  0  0  0  0  0  0  0  0  0  0
   36.0030   30.7030   48.7310 N   0  0  0  0  0  0  0  0  0  0  0  0
   34.0070   30.2870   49.2600 H   0  0  0  0  0  0  0  0  0  0  0  0
   34.5970   29.1970   51.4140 H   0  0  0  0  0  0  0  0  0  0  0  0
   36.9840   29.0060   52.0940 H   0  0  0  0  0  0  0  0  0  0  0  0
   39.2100   32.1480   39.7230 C   0  0  0  0  0  0  0  0  0  0  0  0
   38.9040   33.3610   39.6510 O   0  0  0  0  0  0  0  0  0  0  0  0
   38.4060   30.1940   38.3470 C   0  0  0  0  0  3  0  0  0  0  0  0
   39.2440   31.2450   38.5580 C   0  0  0  0  0  0  0  0  0  0  0  0
   40.2010   31.4610   37.5820 C   0  0  0  0  0  0  0  0  0  0  0  0
   40.8950   32.2980   37.7150 H   0  0  0  0  0  0  0  0  0  0  0  0
   40.3430   30.6940   36.4430 C   0  0  0  0  0  0  0  0  0  0  0  0
   41.2260   30.7880   35.4120 N   0  0  0  0  0  0  0  0  0  0  0  0
   40.8960   29.7760   34.5850 C   0  0  0  0  0  0  0  0  0  0  0  0
   41.4790   29.6500   33.6690 H   0  0  0  0  0  0  0  0  0  0  0  0
   39.8600   29.0870   35.0780 N   0  0  0  0  0  0  0  0  0  0  0  0
   39.4780   29.6380   36.2590 C   0  0  0  0  0  0  0  0  0  0  0  0
   38.5120   29.3990   37.2210 C   0  0  0  0  0  3  0  0  0  0  0  0
   41.9870   31.5120   35.3180 H   0  0  0  0  0  0  0  0  0  0  0  0
  1  2  1  0  0  0  0
  1 10  1  0  0  0  0
  2  7  1  0  0  0  0
  3  8  1  0  0  0  0
  3  2  2  0  0  0  0
  4  3  1  0  0  0  0
  5  4  2  0  0  0  0
  5  6  1  0  0  0  0
  6  1  2  0  0  0  0
  9  4  1  0  0  0  0
 10 12  1  0  0  0  0
 11 10  2  0  0  0  0
 12 13  1  0  0  0  0
 12 16  1  0  0  0  0
 14 17  1  6  0  0  0
 14 25  1  0  0  0  0
 15 14  1  0  0  0  0
 15 18  1  0  0  0  0
 16 20  1  6  0  0  0
 16 15  1  0  0  0  0
 16 14  1  0  0  0  0
 19 15  1  0  0  0  0
 21 22  1  0  0  0  0
 22 23  2  0  0  0  0
 22 28  1  0  0  0  0
 23 29  1  0  0  0  0
 24 23  1  0  0  0  0
 25 24  2  0  0  0  0
 26 25  1  0  0  0  0
 26 21  2  0  0  0  0
 27 21  1  0  0  0  0
 30  5  1  0  0  0  0
 31 30  2  0  0  0  0
 32 33  1  0  0  0  0
 33 30  1  0  0  0  0
 34 35  1  0  0  0  0
 34 33  2  0  0  0  0
 36 34  1  0  0  0  0
 37 36  1  0  0  0  0
 38 40  2  0  0  0  0
 38 37  1  0  0  0  0
 39 38  1  0  0  0  0
 40 41  1  0  0  0  0
 41 36  2  0  0  0  0
 41 42  1  0  0  0  0
 42 32  2  0  0  0  0
 43 37  1  0  0  0  0
M  END
>  <minimizedAffinity>
-4.91567183

>  <minimizedRMSD>
0.790952981

$$$$
