
 OpenBabel03272508573D

 43 47  0  0  1  0  0  0  0  0999 V2000
   38.7510   31.5000   44.0520 C   0  0  0  0  0  0  0  0  0  0  0  0
   39.8130   30.6420   43.9930 C   0  0  0  0  0  0  0  0  0  0  0  0
   40.5300   30.5910   42.8070 C   0  0  0  0  0  0  0  0  0  0  0  0
   40.1370   31.3920   41.7700 C   0  0  0  0  0  0  0  0  0  0  0  0
   39.0500   32.2700   41.8290 C   0  0  0  0  0  0  0  0  0  0  0  0
   38.3940   32.2760   43.0050 N   0  0  0  0  0  0  0  0  0  0  0  0
   40.1310   30.0040   44.8090 H   0  0  0  0  0  0  0  0  0  0  0  0
   41.3860   29.9480   42.6530 H   0  0  0  0  0  0  0  0  0  0  0  0
   40.6600   31.3980   40.8070 H   0  0  0  0  0  0  0  0  0  0  0  0
   37.9680   31.5820   45.3030 C   0  0  0  0  0  0  0  0  0  0  0  0
   36.9340   30.9110   45.4700 O   0  0  0  0  0  0  0  0  0  0  0  0
   38.4540   32.4830   46.3400 N   0  0  0  0  0  0  0  0  0  0  0  0
   39.1730   33.1940   46.1850 H   0  0  0  0  0  0  0  0  0  0  0  0
   38.4780   31.4880   48.6180 C   0  0  2  0  0  0  0  0  0  0  0  0
   38.7500   32.9410   48.7830 C   0  0  0  0  0  0  0  0  0  0  0  0
   37.8750   32.3480   47.6530 C   0  0  1  0  0  0  0  0  0  0  0  0
   39.3630   30.8690   48.3690 H   0  0  0  0  0  0  0  0  0  0  0  0
   38.2570   33.5130   49.5810 H   0  0  0  0  0  0  0  0  0  0  0  0
   39.7370   33.3110   48.5120 H   0  0  0  0  0  0  0  0  0  0  0  0
   36.7910   32.6340   47.7780 H   0  0  0  0  0  0  0  0  0  0  0  0
   35.6190   29.6050   50.0760 C   0  0  0  0  0  0  0  0  0  0  0  0
   36.0500   29.4240   51.4290 C   0  0  0  0  0  0  0  0  0  0  0  0
   37.3330   29.9730   51.8120 C   0  0  0  0  0  0  0  0  0  0  0  0
   38.0920   30.6430   50.8810 N   0  0  0  0  0  0  0  0  0  0  0  0
   37.6010   30.7670   49.6190 C   0  0  0  0  0  0  0  0  0  0  0  0
   36.3800   30.2670   49.1790 N   0  0  0  0  0  0  0  0  0  0  0  0
   34.6710   29.2000   49.7950 H   0  0  0  0  0  0  0  0  0  0  0  0
   35.4560   28.9060   52.1350 H   0  0  0  0  0  0  0  0  0  0  0  0
   37.6570   29.8370   52.8300 H   0  0  0  0  0  0  0  0  0  0  0  0
   38.6610   33.1100   40.6970 C   0  0  0  0  0  0  0  0  0  0  0  0
   38.3980   34.3160   40.9160 O   0  0  0  0  0  0  0  0  0  0  0  0
   37.7060   31.5470   38.9630 C   0  0  0  0  0  3  0  0  0  0  0  0
   38.6020   32.4920   39.3590 C   0  0  0  0  0  0  0  0  0  0  0  0
   39.5240   32.8890   38.4070 C   0  0  0  0  0  0  0  0  0  0  0  0
   40.2630   33.6480   38.6870 H   0  0  0  0  0  0  0  0  0  0  0  0
   39.5810   32.3930   37.1190 C   0  0  0  0  0  0  0  0  0  0  0  0
   40.4220   32.6860   36.0900 N   0  0  0  0  0  0  0  0  0  0  0  0
   40.0100   31.8980   35.0770 C   0  0  0  0  0  0  0  0  0  0  0  0
   40.5450   31.9600   34.1260 H   0  0  0  0  0  0  0  0  0  0  0  0
   38.9640   31.1530   35.4580 N   0  0  0  0  0  0  0  0  0  0  0  0
   38.6600   31.4370   36.7500 C   0  0  0  0  0  0  0  0  0  0  0  0
   37.7270   31.0220   37.6830 C   0  0  0  0  0  3  0  0  0  0  0  0
   41.2110   33.3840   36.1210 H   0  0  0  0  0  0  0  0  0  0  0  0
  1 10  1  0  0  0  0
  2  1  1  0  0  0  0
  2  7  1  0  0  0  0
  3  2  2  0  0  0  0
  4  5  2  0  0  0  0
  4  3  1  0  0  0  0
  5  6  1  0  0  0  0
  6  1  2  0  0  0  0
  8  3  1  0  0  0  0
  9  4  1  0  0  0  0
 10 11  2  0  0  0  0
 10 12  1  0  0  0  0
 12 16  1  0  0  0  0
 13 12  1  0  0  0  0
 14 17  1  6  0  0  0
 14 15  1  0  0  0  0
 14 25  1  0  0  0  0
 15 18  1  0  0  0  0
 16 20  1  1  0  0  0
 16 14  1  0  0  0  0
 16 15  1  0  0  0  0
 19 15  1  0  0  0  0
 21 22  1  0  0  0  0
 22 23  2  0  0  0  0
 22 28  1  0  0  0  0
 23 29  1  0  0  0  0
 24 23  1  0  0  0  0
 25 24  2  0  0  0  0
 26 25  1  0  0  0  0
 26 21  2  0  0  0  0
 27 21  1  0  0  0  0
 30 31  2  0  0  0  0
 30  5  1  0  0  0  0
 32 33  1  0  0  0  0
 33 30  1  0  0  0  0
 34 35  1  0  0  0  0
 34 33  2  0  0  0  0
 36 34  1  0  0  0  0
 37 43  1  0  0  0  0
 37 36  1  0  0  0  0
 38 40  2  0  0  0  0
 38 37  1  0  0  0  0
 39 38  1  0  0  0  0
 40 41  1  0  0  0  0
 41 36  2  0  0  0  0
 41 42  1  0  0  0  0
 42 32  2  0  0  0  0
M  END
>  <minimizedAffinity>
-5.44279909

>  <minimizedRMSD>
1.7499944

$$$$
