
 OpenBabel03272508573D

 43 47  0  0  1  0  0  0  0  0999 V2000
   39.1410   31.4920   43.3270 C   0  0  0  0  0  0  0  0  0  0  0  0
   40.1450   30.5760   43.4710 C   0  0  0  0  0  0  0  0  0  0  0  0
   40.8610   30.2270   42.3370 C   0  0  0  0  0  0  0  0  0  0  0  0
   40.5270   30.8110   41.1460 C   0  0  0  0  0  0  0  0  0  0  0  0
   39.5000   31.7490   40.9970 C   0  0  0  0  0  0  0  0  0  0  0  0
   38.8410   32.0480   42.1320 N   0  0  0  0  0  0  0  0  0  0  0  0
   40.4160   30.1070   44.4110 H   0  0  0  0  0  0  0  0  0  0  0  0
   41.6740   29.5130   42.3390 H   0  0  0  0  0  0  0  0  0  0  0  0
   41.0540   30.5790   40.2140 H   0  0  0  0  0  0  0  0  0  0  0  0
   38.3590   31.8890   44.5170 C   0  0  0  0  0  0  0  0  0  0  0  0
   37.2430   32.4270   44.4130 O   0  0  0  0  0  0  0  0  0  0  0  0
   38.9480   31.6260   45.8240 N   0  0  0  0  0  0  0  0  0  0  0  0
   39.9290   31.3720   45.9660 H   0  0  0  0  0  0  0  0  0  0  0  0
   38.4370   31.1130   48.2030 C   0  0  2  0  0  0  0  0  0  0  0  0
   38.6740   32.5780   48.1220 C   0  0  0  0  0  0  0  0  0  0  0  0
   38.0800   31.7350   46.9700 C   0  0  1  0  0  0  0  0  0  0  0  0
   39.3520   30.4930   48.2940 H   0  0  0  0  0  0  0  0  0  0  0  0
   38.0150   33.2800   48.6510 H   0  0  0  0  0  0  0  0  0  0  0  0
   39.7000   32.9260   48.0120 H   0  0  0  0  0  0  0  0  0  0  0  0
   36.9990   31.9960   46.7830 H   0  0  0  0  0  0  0  0  0  0  0  0
   35.0650   30.2360   49.5080 C   0  0  0  0  0  0  0  0  0  0  0  0
   35.3920   29.5510   50.7210 C   0  0  0  0  0  0  0  0  0  0  0  0
   36.7910   29.4160   51.0680 C   0  0  0  0  0  0  0  0  0  0  0  0
   37.7530   29.9390   50.2370 N   0  0  0  0  0  0  0  0  0  0  0  0
   37.3480   30.5740   49.1040 C   0  0  0  0  0  0  0  0  0  0  0  0
   36.0260   30.7430   48.7060 N   0  0  0  0  0  0  0  0  0  0  0  0
   34.0320   30.3360   49.2530 H   0  0  0  0  0  0  0  0  0  0  0  0
   34.6420   29.1530   51.3520 H   0  0  0  0  0  0  0  0  0  0  0  0
   37.0360   28.9010   51.9820 H   0  0  0  0  0  0  0  0  0  0  0  0
   39.1730   32.3510   39.7050 C   0  0  0  0  0  0  0  0  0  0  0  0
   38.8660   33.5660   39.6770 O   0  0  0  0  0  0  0  0  0  0  0  0
   38.3470   30.4970   38.2080 C   0  0  0  0  0  3  0  0  0  0  0  0
   39.2240   31.4950   38.5050 C   0  0  0  0  0  0  0  0  0  0  0  0
   40.2380   31.7020   37.5870 C   0  0  0  0  0  0  0  0  0  0  0  0
   40.9650   32.4960   37.7910 H   0  0  0  0  0  0  0  0  0  0  0  0
   40.4020   30.9740   36.4260 C   0  0  0  0  0  0  0  0  0  0  0  0
   41.3410   31.0660   35.4440 N   0  0  0  0  0  0  0  0  0  0  0  0
   41.0060   30.1050   34.5600 C   0  0  0  0  0  0  0  0  0  0  0  0
   41.6280   29.9860   33.6700 H   0  0  0  0  0  0  0  0  0  0  0  0
   39.9130   29.4500   34.9720 N   0  0  0  0  0  0  0  0  0  0  0  0
   39.4980   29.9720   36.1540 C   0  0  0  0  0  0  0  0  0  0  0  0
   38.4730   29.7430   37.0550 C   0  0  0  0  0  3  0  0  0  0  0  0
   42.1390   31.7520   35.4200 H   0  0  0  0  0  0  0  0  0  0  0  0
  1  2  1  0  0  0  0
  1 10  1  0  0  0  0
  2  7  1  0  0  0  0
  3  8  1  0  0  0  0
  3  2  2  0  0  0  0
  4  3  1  0  0  0  0
  5  4  2  0  0  0  0
  5  6  1  0  0  0  0
  6  1  2  0  0  0  0
  9  4  1  0  0  0  0
 10 12  1  0  0  0  0
 11 10  2  0  0  0  0
 12 13  1  0  0  0  0
 12 16  1  0  0  0  0
 14 17  1  6  0  0  0
 14 25  1  0  0  0  0
 15 14  1  0  0  0  0
 15 18  1  0  0  0  0
 16 20  1  6  0  0  0
 16 15  1  0  0  0  0
 16 14  1  0  0  0  0
 19 15  1  0  0  0  0
 21 22  1  0  0  0  0
 22 23  2  0  0  0  0
 22 28  1  0  0  0  0
 23 29  1  0  0  0  0
 24 23  1  0  0  0  0
 25 24  2  0  0  0  0
 26 25  1  0  0  0  0
 26 21  2  0  0  0  0
 27 21  1  0  0  0  0
 30  5  1  0  0  0  0
 31 30  2  0  0  0  0
 32 33  1  0  0  0  0
 33 30  1  0  0  0  0
 34 35  1  0  0  0  0
 34 33  2  0  0  0  0
 36 34  1  0  0  0  0
 37 36  1  0  0  0  0
 38 40  2  0  0  0  0
 38 37  1  0  0  0  0
 39 38  1  0  0  0  0
 40 41  1  0  0  0  0
 41 36  2  0  0  0  0
 41 42  1  0  0  0  0
 42 32  2  0  0  0  0
 43 37  1  0  0  0  0
M  END
>  <minimizedAffinity>
-4.92607737

>  <minimizedRMSD>
0.0659770742

$$$$
