
 OpenBabel03272507413D

 44 48  0  0  0  0  0  0  0  0999 V2000
   36.6330   31.1730   50.0790 C   0  0  0  0  0  0  0  0  0  0  0  0
   35.5640   30.3080   49.8560 C   0  0  0  0  0  0  0  0  0  0  0  0
   35.3550   29.1890   50.6270 C   0  0  0  0  0  0  0  0  0  0  0  0
   36.2420   28.9540   51.6310 N   0  0  0  0  0  0  0  0  0  0  0  0
   37.2890   29.8020   51.8500 C   0  0  0  0  0  0  0  0  0  0  0  0
   37.4640   30.8750   51.0850 N   0  0  0  0  0  0  0  0  0  0  0  0
   34.5710   28.4870   50.5210 H   0  0  0  0  0  0  0  0  0  0  0  0
   38.0110   29.6280   52.6510 H   0  0  0  0  0  0  0  0  0  0  0  0
   34.2330   29.3680   48.0070 C   0  0  0  0  0  0  0  0  0  0  0  0
   34.7300   28.1860   47.8750 O   0  0  0  0  0  0  0  0  0  0  0  0
   34.5980   30.4480   48.8400 N   0  0  0  0  0  0  0  0  0  0  0  0
   34.2560   31.4090   48.8400 H   0  0  0  0  0  0  0  0  0  0  0  0
   32.0700   28.6760   46.9440 C   0  0  0  0  0  3  0  0  0  0  0  0
   33.0920   29.5850   47.1180 C   0  0  0  0  0  0  0  0  0  0  0  0
   32.9160   30.7230   46.3600 C   0  0  0  0  0  0  0  0  0  0  0  0
   33.6660   31.5170   46.4180 H   0  0  0  0  0  0  0  0  0  0  0  0
   31.8630   30.9770   45.5100 C   0  0  0  0  0  0  0  0  0  0  0  0
   31.5480   32.0160   44.7140 N   0  0  0  0  0  0  0  0  0  0  0  0
   30.3870   31.7320   44.0960 C   0  0  0  0  0  0  0  0  0  0  0  0
   29.8290   32.3410   43.3770 H   0  0  0  0  0  0  0  0  0  0  0  0
   29.9820   30.5120   44.5100 N   0  0  0  0  0  0  0  0  0  0  0  0
   30.8820   30.0160   45.3930 C   0  0  0  0  0  0  0  0  0  0  0  0
   30.9820   28.8470   46.1180 C   0  0  0  0  0  3  0  0  0  0  0  0
   32.0810   32.9030   44.5730 H   0  0  0  0  0  0  0  0  0  0  0  0
   36.6680   32.2140   49.2170 O   0  0  0  0  0  0  0  0  0  0  0  0
   38.1780   32.1970   47.2680 C   0  0  0  0  0  0  0  0  0  0  0  0
   37.7870   32.6270   48.5280 C   0  0  0  0  0  0  0  0  0  0  0  0
   38.5460   33.5570   49.2150 C   0  0  0  0  0  0  0  0  0  0  0  0
   39.7020   34.0620   48.6410 C   0  0  0  0  0  0  0  0  0  0  0  0
   40.0890   33.6320   47.3850 C   0  0  0  0  0  0  0  0  0  0  0  0
   39.3120   32.7020   46.7240 C   0  0  0  0  0  0  0  0  0  0  0  0
   38.3080   33.9340   50.1870 H   0  0  0  0  0  0  0  0  0  0  0  0
   40.3260   34.7910   49.1450 H   0  0  0  0  0  0  0  0  0  0  0  0
   40.9880   33.9960   46.8910 H   0  0  0  0  0  0  0  0  0  0  0  0
   39.7370   32.2530   45.3860 C   0  0  0  0  0  0  0  0  0  0  0  0
   40.5620   31.2170   45.0290 C   0  0  0  0  0  0  0  0  0  0  0  0
   40.6490   31.2090   43.6380 C   0  0  0  0  0  0  0  0  0  0  0  0
   39.8510   32.2670   43.2310 C   0  0  0  0  0  0  0  0  0  0  0  0
   39.3180   32.8760   44.2820 O   0  0  0  0  0  0  0  0  0  0  0  0
   41.0460   30.5420   45.7170 H   0  0  0  0  0  0  0  0  0  0  0  0
   41.2140   30.5250   43.0180 H   0  0  0  0  0  0  0  0  0  0  0  0
   39.6820   32.5630   42.1940 H   0  0  0  0  0  0  0  0  0  0  0  0
   36.6770   30.4660   46.0920 N   0  0  0  0  0  0  0  0  0  0  0  0
   37.3420   31.2370   46.6260 C   0  0  0  0  0  0  0  0  0  0  0  0
  1  6  1  0  0  0  0
  2  1  2  0  0  0  0
  2  3  1  0  0  0  0
  3  4  2  0  0  0  0
  4  5  1  0  0  0  0
  5  8  1  0  0  0  0
  6  5  2  0  0  0  0
  7  3  1  0  0  0  0
  9 11  1  0  0  0  0
 10  9  2  0  0  0  0
 11  2  1  0  0  0  0
 12 11  1  0  0  0  0
 13 14  1  0  0  0  0
 14  9  1  0  0  0  0
 15 16  1  0  0  0  0
 15 14  2  0  0  0  0
 17 15  1  0  0  0  0
 18 17  1  0  0  0  0
 19 21  2  0  0  0  0
 19 18  1  0  0  0  0
 20 19  1  0  0  0  0
 21 22  1  0  0  0  0
 22 17  2  0  0  0  0
 22 23  1  0  0  0  0
 23 13  2  0  0  0  0
 24 18  1  0  0  0  0
 25  1  1  0  0  0  0
 26 27  1  0  0  0  0
 27 28  2  0  0  0  0
 27 25  1  0  0  0  0
 28 32  1  0  0  0  0
 29 33  1  0  0  0  0
 29 28  1  0  0  0  0
 30 29  2  0  0  0  0
 31 26  2  0  0  0  0
 31 30  1  0  0  0  0
 34 30  1  0  0  0  0
 35 31  1  0  0  0  0
 36 35  2  0  0  0  0
 36 40  1  0  0  0  0
 37 36  1  0  0  0  0
 38 37  2  0  0  0  0
 38 39  1  0  0  0  0
 39 35  1  0  0  0  0
 41 37  1  0  0  0  0
 42 38  1  0  0  0  0
 43 44  3  0  0  0  0
 44 26  1  0  0  0  0
M  END
>  <minimizedAffinity>
-6.33323193

>  <minimizedRMSD>
0.518544734

$$$$
