
 OpenBabel03262523553D

 41 44  0  0  1  0  0  0  0  0999 V2000
   37.6000   30.3690   47.8090 C   0  0  1  0  0  0  0  0  0  0  0  0
   37.0380   30.6450   46.4950 C   0  0  0  0  0  0  0  0  0  0  0  0
   38.1300   30.5640   45.4730 C   0  0  0  0  0  0  0  0  0  0  0  0
   39.3730   31.2090   45.9670 C   0  0  0  0  0  0  0  0  0  0  0  0
   39.2150   32.1420   47.0930 C   0  0  0  0  0  0  0  0  0  0  0  0
   38.3800   31.6000   48.2510 C   0  0  1  0  0  0  0  0  0  0  0  0
   38.3770   29.5560   47.7920 H   0  0  0  0  0  0  0  0  0  0  0  0
   36.3080   29.8200   46.2430 H   0  0  0  0  0  0  0  0  0  0  0  0
   36.4710   31.5750   46.4450 H   0  0  0  0  0  0  0  0  0  0  0  0
   37.7460   31.0880   44.5620 H   0  0  0  0  0  0  0  0  0  0  0  0
   38.2900   29.4960   45.1470 H   0  0  0  0  0  0  0  0  0  0  0  0
   39.8210   31.7670   45.1220 H   0  0  0  0  0  0  0  0  0  0  0  0
   40.1140   30.4150   46.2150 H   0  0  0  0  0  0  0  0  0  0  0  0
   38.7560   33.1160   46.7800 H   0  0  0  0  0  0  0  0  0  0  0  0
   40.2090   32.4030   47.5090 H   0  0  0  0  0  0  0  0  0  0  0  0
   39.0630   31.2700   49.0650 H   0  0  0  0  0  0  0  0  0  0  0  0
   36.2520   29.2570   51.0860 C   0  0  0  0  0  0  0  0  0  0  0  0
   37.1800   29.5530   50.0550 C   0  0  0  0  0  0  0  0  0  0  0  0
   36.6410   30.0810   48.8890 C   0  0  0  0  0  0  0  0  0  0  0  0
   35.2760   30.2930   48.7740 N   0  0  0  0  0  0  0  0  0  0  0  0
   34.4360   29.9990   49.7750 C   0  0  0  0  0  0  0  0  0  0  0  0
   34.9150   29.4750   50.9460 N   0  0  0  0  0  0  0  0  0  0  0  0
   36.6900   28.8440   51.9920 H   0  0  0  0  0  0  0  0  0  0  0  0
   38.2340   29.3720   50.1890 H   0  0  0  0  0  0  0  0  0  0  0  0
   33.3700   30.1600   49.6970 H   0  0  0  0  0  0  0  0  0  0  0  0
   37.7630   33.6400   49.8230 C   0  0  0  0  0  0  0  0  0  0  0  0
   38.9330   33.6270   50.2320 O   0  0  0  0  0  0  0  0  0  0  0  0
   37.5710   32.6460   48.8150 N   0  0  0  0  0  0  0  0  0  0  0  0
   36.6550   32.5480   48.2720 H   0  0  0  0  0  0  0  0  0  0  0  0
   35.6790   35.0000   49.4370 C   0  0  0  0  0  3  0  0  0  0  0  0
   36.6830   34.4810   50.2290 C   0  0  0  0  0  0  0  0  0  0  0  0
   36.6780   34.7900   51.5940 C   0  0  0  0  0  0  0  0  0  0  0  0
   37.4230   34.4290   52.2880 H   0  0  0  0  0  0  0  0  0  0  0  0
   35.7000   35.5920   52.1360 C   0  0  0  0  0  0  0  0  0  0  0  0
   35.4530   36.0450   53.3950 N   0  0  0  0  0  0  0  0  0  0  0  0
   34.3400   36.8130   53.3660 C   0  0  0  0  0  0  0  0  0  0  0  0
   33.9400   37.2890   54.2520 H   0  0  0  0  0  0  0  0  0  0  0  0
   33.8940   36.8350   52.0850 N   0  0  0  0  0  0  0  0  0  0  0  0
   34.7120   36.0930   51.3140 C   0  0  0  0  0  0  0  0  0  0  0  0
   34.6830   35.8050   49.9450 C   0  0  0  0  0  3  0  0  0  0  0  0
   36.0460   35.8170   54.2100 H   0  0  0  0  0  0  0  0  0  0  0  0
  1  7  1  6  0  0  0
  1  6  1  0  0  0  0
  1 19  1  0  0  0  0
  2  1  1  0  0  0  0
  3  4  1  0  0  0  0
  3  2  1  0  0  0  0
  4 13  1  0  0  0  0
  4  5  1  0  0  0  0
  5 15  1  0  0  0  0
  5  6  1  0  0  0  0
  6 28  1  0  0  0  0
  6 16  1  1  0  0  0
  8  2  1  0  0  0  0
  9  2  1  0  0  0  0
 10  3  1  0  0  0  0
 11  3  1  0  0  0  0
 12  4  1  0  0  0  0
 14  5  1  0  0  0  0
 17 23  1  0  0  0  0
 18 24  1  0  0  0  0
 18 17  2  0  0  0  0
 19 18  1  0  0  0  0
 20 19  2  0  0  0  0
 20 21  1  0  0  0  0
 21 22  2  0  0  0  0
 22 17  1  0  0  0  0
 25 21  1  0  0  0  0
 26 31  1  0  0  0  0
 26 27  2  0  0  0  0
 28 26  1  0  0  0  0
 29 28  1  0  0  0  0
 30 40  2  0  0  0  0
 30 31  1  0  0  0  0
 31 32  2  0  0  0  0
 32 34  1  0  0  0  0
 32 33  1  0  0  0  0
 34 35  1  0  0  0  0
 35 41  1  0  0  0  0
 36 35  1  0  0  0  0
 36 37  1  0  0  0  0
 38 36  2  0  0  0  0
 39 38  1  0  0  0  0
 39 34  2  0  0  0  0
 40 39  1  0  0  0  0
M  END
>  <minimizedAffinity>
9.01067734

>  <minimizedRMSD>
0.896158338

$$$$
