
 OpenBabel03272507413D

 44 48  0  0  0  0  0  0  0  0999 V2000
   36.7870   31.2020   50.1140 C   0  0  0  0  0  0  0  0  0  0  0  0
   35.7510   30.3010   49.8780 C   0  0  0  0  0  0  0  0  0  0  0  0
   35.5750   29.1710   50.6400 C   0  0  0  0  0  0  0  0  0  0  0  0
   36.4630   28.9610   51.6500 N   0  0  0  0  0  0  0  0  0  0  0  0
   37.4780   29.8430   51.8830 C   0  0  0  0  0  0  0  0  0  0  0  0
   37.6200   30.9270   51.1260 N   0  0  0  0  0  0  0  0  0  0  0  0
   34.8180   28.4430   50.5240 H   0  0  0  0  0  0  0  0  0  0  0  0
   38.1980   29.6900   52.6890 H   0  0  0  0  0  0  0  0  0  0  0  0
   34.3340   29.2870   48.1340 C   0  0  0  0  0  0  0  0  0  0  0  0
   34.7390   28.0640   48.1200 O   0  0  0  0  0  0  0  0  0  0  0  0
   34.7890   30.4130   48.8550 N   0  0  0  0  0  0  0  0  0  0  0  0
   34.5210   31.3930   48.7610 H   0  0  0  0  0  0  0  0  0  0  0  0
   32.1830   28.5940   47.0480 C   0  0  0  0  0  3  0  0  0  0  0  0
   33.2040   29.5020   47.2310 C   0  0  0  0  0  0  0  0  0  0  0  0
   33.0400   30.6380   46.4660 C   0  0  0  0  0  0  0  0  0  0  0  0
   33.7910   31.4300   46.5280 H   0  0  0  0  0  0  0  0  0  0  0  0
   31.9970   30.8900   45.6020 C   0  0  0  0  0  0  0  0  0  0  0  0
   31.6950   31.9260   44.7980 N   0  0  0  0  0  0  0  0  0  0  0  0
   30.5410   31.6400   44.1660 C   0  0  0  0  0  0  0  0  0  0  0  0
   29.9930   32.2480   43.4390 H   0  0  0  0  0  0  0  0  0  0  0  0
   30.1280   30.4240   44.5800 N   0  0  0  0  0  0  0  0  0  0  0  0
   31.0170   29.9300   45.4770 C   0  0  0  0  0  0  0  0  0  0  0  0
   31.1070   28.7640   46.2080 C   0  0  0  0  0  3  0  0  0  0  0  0
   32.2310   32.8120   44.6600 H   0  0  0  0  0  0  0  0  0  0  0  0
   36.7920   32.2490   49.2600 O   0  0  0  0  0  0  0  0  0  0  0  0
   38.2490   32.2360   47.2700 C   0  0  0  0  0  0  0  0  0  0  0  0
   37.8870   32.6700   48.5380 C   0  0  0  0  0  0  0  0  0  0  0  0
   38.6550   33.6120   49.1980 C   0  0  0  0  0  0  0  0  0  0  0  0
   39.7890   34.1250   48.5900 C   0  0  0  0  0  0  0  0  0  0  0  0
   40.1470   33.6920   47.3260 C   0  0  0  0  0  0  0  0  0  0  0  0
   39.3610   32.7500   46.6920 C   0  0  0  0  0  0  0  0  0  0  0  0
   38.4390   33.9920   50.1740 H   0  0  0  0  0  0  0  0  0  0  0  0
   40.4190   34.8640   49.0730 H   0  0  0  0  0  0  0  0  0  0  0  0
   41.0280   34.0620   46.8060 H   0  0  0  0  0  0  0  0  0  0  0  0
   39.7550   32.2970   45.3460 C   0  0  0  0  0  0  0  0  0  0  0  0
   40.5880   31.2730   44.9730 C   0  0  0  0  0  0  0  0  0  0  0  0
   40.6330   31.2540   43.5800 C   0  0  0  0  0  0  0  0  0  0  0  0
   39.8040   32.2930   43.1880 C   0  0  0  0  0  0  0  0  0  0  0  0
   39.2910   32.9020   44.2500 O   0  0  0  0  0  0  0  0  0  0  0  0
   41.1060   30.6140   45.6510 H   0  0  0  0  0  0  0  0  0  0  0  0
   41.1930   30.5760   42.9490 H   0  0  0  0  0  0  0  0  0  0  0  0
   39.5970   32.5770   42.1550 H   0  0  0  0  0  0  0  0  0  0  0  0
   36.7350   30.4820   46.1460 N   0  0  0  0  0  0  0  0  0  0  0  0
   37.4050   31.2630   46.6570 C   0  0  0  0  0  0  0  0  0  0  0  0
  1  6  1  0  0  0  0
  2  1  2  0  0  0  0
  2  3  1  0  0  0  0
  3  4  2  0  0  0  0
  4  5  1  0  0  0  0
  5  8  1  0  0  0  0
  6  5  2  0  0  0  0
  7  3  1  0  0  0  0
  9 11  1  0  0  0  0
 10  9  2  0  0  0  0
 11  2  1  0  0  0  0
 12 11  1  0  0  0  0
 13 14  1  0  0  0  0
 14  9  1  0  0  0  0
 15 16  1  0  0  0  0
 15 14  2  0  0  0  0
 17 15  1  0  0  0  0
 18 17  1  0  0  0  0
 19 21  2  0  0  0  0
 19 18  1  0  0  0  0
 20 19  1  0  0  0  0
 21 22  1  0  0  0  0
 22 17  2  0  0  0  0
 22 23  1  0  0  0  0
 23 13  2  0  0  0  0
 24 18  1  0  0  0  0
 25  1  1  0  0  0  0
 26 27  1  0  0  0  0
 27 28  2  0  0  0  0
 27 25  1  0  0  0  0
 28 32  1  0  0  0  0
 29 33  1  0  0  0  0
 29 28  1  0  0  0  0
 30 29  2  0  0  0  0
 31 26  2  0  0  0  0
 31 30  1  0  0  0  0
 34 30  1  0  0  0  0
 35 31  1  0  0  0  0
 36 35  2  0  0  0  0
 36 40  1  0  0  0  0
 37 36  1  0  0  0  0
 38 37  2  0  0  0  0
 38 39  1  0  0  0  0
 39 35  1  0  0  0  0
 41 37  1  0  0  0  0
 42 38  1  0  0  0  0
 43 44  3  0  0  0  0
 44 26  1  0  0  0  0
M  END
>  <minimizedAffinity>
-6.40061378

>  <minimizedRMSD>
0.619877577

$$$$
