
     RDKit          3D

 46 50  0  0  0  0  0  0  0  0999 V2000
   38.2661   32.2891   47.3928 C   0  0  0  0  0  0  0  0  0  0  0  0
   37.9077   32.7336   48.6577 C   0  0  0  0  0  0  0  0  0  0  0  0
   38.6740   33.6862   49.3054 C   0  0  0  0  0  0  0  0  0  0  0  0
   39.8043   34.1979   48.6868 C   0  0  0  0  0  0  0  0  0  0  0  0
   40.1583   33.7527   47.4264 C   0  0  0  0  0  0  0  0  0  0  0  0
   39.3739   32.8010   46.8048 C   0  0  0  0  0  0  0  0  0  0  0  0
   39.7636   32.3364   45.4623 C   0  0  0  0  0  0  0  0  0  0  0  0
   40.6169   31.3264   45.0955 C   0  0  0  0  0  0  0  0  0  0  0  0
   40.6481   31.2856   43.7032 C   0  0  0  0  0  0  0  0  0  0  0  0
   39.7901   32.2991   43.3040 C   0  0  0  0  0  0  0  0  0  0  0  0
   39.2744   32.9118   44.3620 O   0  0  0  0  0  0  0  0  0  0  0  0
   36.7548   30.5160   46.2935 N   0  0  0  0  0  0  0  0  0  0  0  0
   37.4236   31.3056   46.7935 C   0  0  0  0  0  0  0  0  0  0  0  0
   36.8178   32.3164   49.3887 O   0  0  0  0  0  0  0  0  0  0  0  0
   36.7861   31.2080   50.1622 C   0  0  0  0  0  0  0  0  0  0  0  0
   35.6545   30.4226   49.9551 C   0  0  0  0  0  0  0  0  0  0  0  0
   35.4372   29.2545   50.6464 C   0  0  0  0  0  0  0  0  0  0  0  0
   36.3817   28.8871   51.5535 N   0  0  0  0  0  0  0  0  0  0  0  0
   37.4913   29.6559   51.7568 C   0  0  0  0  0  0  0  0  0  0  0  0
   37.6706   30.7812   51.0710 N   0  0  0  0  0  0  0  0  0  0  0  0
   34.1337   29.7180   48.1466 C   0  0  0  0  0  0  0  0  0  0  0  0
   34.5503   28.5277   47.8790 O   0  0  0  0  0  0  0  0  0  0  0  0
   34.6239   30.7013   49.0349 N   0  0  0  0  0  0  0  0  0  0  0  0
   38.4611   34.0756   50.2776 H   0  0  0  0  0  0  0  0  0  0  0  0
   40.4323   34.9454   49.1589 H   0  0  0  0  0  0  0  0  0  0  0  0
   41.0348   34.1218   46.8979 H   0  0  0  0  0  0  0  0  0  0  0  0
   41.1567   30.6900   45.7790 H   0  0  0  0  0  0  0  0  0  0  0  0
   41.2167   30.6114   43.0774 H   0  0  0  0  0  0  0  0  0  0  0  0
   39.5663   32.5607   42.2686 H   0  0  0  0  0  0  0  0  0  0  0  0
   34.6066   28.6069   50.5461 H   0  0  0  0  0  0  0  0  0  0  0  0
   38.2588   29.3756   52.4806 H   0  0  0  0  0  0  0  0  0  0  0  0
   34.3403   31.6754   49.1415 H   0  0  0  0  0  0  0  0  0  0  0  0
   32.9675   30.4044   46.0363 C   0  0  0  0  0  0  0  0  0  0  0  0
   32.9440   30.0710   47.3735 C   0  0  0  0  0  0  0  0  0  0  0  0
   31.6695   30.1077   47.9011 C   0  0  0  0  0  0  0  0  0  0  0  0
   31.5283   29.8609   48.9564 H   0  0  0  0  0  0  0  0  0  0  0  0
   30.5185   30.4326   47.2184 C   0  0  0  0  0  0  0  0  0  0  0  0
   29.2249   30.5141   47.5779 N   0  0  0  0  0  0  0  0  0  0  0  0
   28.5129   30.8809   46.4965 C   0  0  0  0  0  0  0  0  0  0  0  0
   27.4339   31.0455   46.4126 H   0  0  0  0  0  0  0  0  0  0  0  0
   29.3700   31.0268   45.4638 N   0  0  0  0  0  0  0  0  0  0  0  0
   30.6297   30.7538   45.8830 C   0  0  0  0  0  0  0  0  0  0  0  0
   31.8688   30.7411   45.2788 C   0  0  0  0  0  0  0  0  0  0  0  0
   33.8910   30.4204   45.4870 H   0  0  0  0  0  0  0  0  0  0  0  0
   28.8047   30.3335   48.5175 H   0  0  0  0  0  0  0  0  0  0  0  0
   31.9265   30.9966   44.2329 H   0  0  0  0  0  0  0  0  0  0  0  0
  1  2  2  0
  2  3  1  0
  2 14  1  0
  4  3  2  0
  5  4  1  0
  6  1  1  0
  6  5  2  0
  7  6  1  0
  8  7  2  0
  9  8  1  0
 10  9  2  0
 10 11  1  0
 11  7  1  0
 12 13  3  0
 13  1  1  0
 14 15  1  0
 15 20  2  0
 16 15  1  0
 16 17  2  0
 17 18  1  0
 18 19  2  0
 20 19  1  0
 21 23  1  0
 22 21  2  0
 23 16  1  0
  3 24  1  0
  4 25  1  0
  5 26  1  0
  8 27  1  0
  9 28  1  0
 10 29  1  0
 17 30  1  0
 19 31  1  0
 23 32  1  0
 33 34  2  0
 34 35  1  0
 35 36  1  0
 35 37  2  0
 37 38  1  0
 38 39  1  0
 39 40  1  0
 39 41  2  0
 41 42  1  0
 42 43  2  0
 43 33  1  0
 42 37  1  0
 33 44  1  0
 38 45  1  0
 43 46  1  0
 21 34  1  0
M  ISO  8  24  14  25  14  26  14  27  14  28  14  29  14  30  14  31  14
M  ISO  2  36  15  40  14
M  END
>  <DihAtoms>  (1) 
22,20,33,32

>  <DihDeg>  (1) 
-0.44519809574425423

$$$$
