
 OpenBabel03272507413D

 44 48  0  0  0  0  0  0  0  0999 V2000
   36.6320   31.1720   50.0780 C   0  0  0  0  0  0  0  0  0  0  0  0
   35.5640   30.3070   49.8540 C   0  0  0  0  0  0  0  0  0  0  0  0
   35.3540   29.1880   50.6250 C   0  0  0  0  0  0  0  0  0  0  0  0
   36.2410   28.9520   51.6290 N   0  0  0  0  0  0  0  0  0  0  0  0
   37.2880   29.8000   51.8490 C   0  0  0  0  0  0  0  0  0  0  0  0
   37.4630   30.8740   51.0850 N   0  0  0  0  0  0  0  0  0  0  0  0
   34.5700   28.4860   50.5180 H   0  0  0  0  0  0  0  0  0  0  0  0
   38.0090   29.6260   52.6510 H   0  0  0  0  0  0  0  0  0  0  0  0
   34.2310   29.3670   48.0060 C   0  0  0  0  0  0  0  0  0  0  0  0
   34.7280   28.1850   47.8750 O   0  0  0  0  0  0  0  0  0  0  0  0
   34.5980   30.4470   48.8390 N   0  0  0  0  0  0  0  0  0  0  0  0
   34.2560   31.4090   48.8380 H   0  0  0  0  0  0  0  0  0  0  0  0
   32.0690   28.6760   46.9420 C   0  0  0  0  0  3  0  0  0  0  0  0
   33.0910   29.5850   47.1160 C   0  0  0  0  0  0  0  0  0  0  0  0
   32.9150   30.7240   46.3580 C   0  0  0  0  0  0  0  0  0  0  0  0
   33.6660   31.5170   46.4160 H   0  0  0  0  0  0  0  0  0  0  0  0
   31.8620   30.9780   45.5080 C   0  0  0  0  0  0  0  0  0  0  0  0
   31.5480   32.0170   44.7130 N   0  0  0  0  0  0  0  0  0  0  0  0
   30.3880   31.7320   44.0930 C   0  0  0  0  0  0  0  0  0  0  0  0
   29.8310   32.3420   43.3760 H   0  0  0  0  0  0  0  0  0  0  0  0
   29.9820   30.5130   44.5070 N   0  0  0  0  0  0  0  0  0  0  0  0
   30.8820   30.0160   45.3910 C   0  0  0  0  0  0  0  0  0  0  0  0
   30.9830   28.8470   46.1150 C   0  0  0  0  0  3  0  0  0  0  0  0
   32.0820   32.9040   44.5720 H   0  0  0  0  0  0  0  0  0  0  0  0
   36.6680   32.2130   49.2170 O   0  0  0  0  0  0  0  0  0  0  0  0
   38.1780   32.1970   47.2680 C   0  0  0  0  0  0  0  0  0  0  0  0
   37.7860   32.6270   48.5280 C   0  0  0  0  0  0  0  0  0  0  0  0
   38.5450   33.5560   49.2150 C   0  0  0  0  0  0  0  0  0  0  0  0
   39.7010   34.0610   48.6420 C   0  0  0  0  0  0  0  0  0  0  0  0
   40.0890   33.6320   47.3850 C   0  0  0  0  0  0  0  0  0  0  0  0
   39.3110   32.7020   46.7240 C   0  0  0  0  0  0  0  0  0  0  0  0
   38.3070   33.9340   50.1870 H   0  0  0  0  0  0  0  0  0  0  0  0
   40.3250   34.7910   49.1460 H   0  0  0  0  0  0  0  0  0  0  0  0
   40.9880   33.9960   46.8910 H   0  0  0  0  0  0  0  0  0  0  0  0
   39.7370   32.2530   45.3860 C   0  0  0  0  0  0  0  0  0  0  0  0
   40.5620   31.2170   45.0290 C   0  0  0  0  0  0  0  0  0  0  0  0
   40.6490   31.2090   43.6380 C   0  0  0  0  0  0  0  0  0  0  0  0
   39.8510   32.2670   43.2310 C   0  0  0  0  0  0  0  0  0  0  0  0
   39.3170   32.8750   44.2820 O   0  0  0  0  0  0  0  0  0  0  0  0
   41.0460   30.5420   45.7170 H   0  0  0  0  0  0  0  0  0  0  0  0
   41.2150   30.5260   43.0180 H   0  0  0  0  0  0  0  0  0  0  0  0
   39.6810   32.5630   42.1950 H   0  0  0  0  0  0  0  0  0  0  0  0
   36.6770   30.4650   46.0920 N   0  0  0  0  0  0  0  0  0  0  0  0
   37.3410   31.2370   46.6260 C   0  0  0  0  0  0  0  0  0  0  0  0
  1  6  1  0  0  0  0
  2  1  2  0  0  0  0
  2  3  1  0  0  0  0
  3  4  2  0  0  0  0
  4  5  1  0  0  0  0
  5  8  1  0  0  0  0
  6  5  2  0  0  0  0
  7  3  1  0  0  0  0
  9 11  1  0  0  0  0
 10  9  2  0  0  0  0
 11  2  1  0  0  0  0
 12 11  1  0  0  0  0
 13 14  1  0  0  0  0
 14  9  1  0  0  0  0
 15 16  1  0  0  0  0
 15 14  2  0  0  0  0
 17 15  1  0  0  0  0
 18 17  1  0  0  0  0
 19 21  2  0  0  0  0
 19 18  1  0  0  0  0
 20 19  1  0  0  0  0
 21 22  1  0  0  0  0
 22 17  2  0  0  0  0
 22 23  1  0  0  0  0
 23 13  2  0  0  0  0
 24 18  1  0  0  0  0
 25  1  1  0  0  0  0
 26 27  1  0  0  0  0
 27 28  2  0  0  0  0
 27 25  1  0  0  0  0
 28 32  1  0  0  0  0
 29 33  1  0  0  0  0
 29 28  1  0  0  0  0
 30 29  2  0  0  0  0
 31 26  2  0  0  0  0
 31 30  1  0  0  0  0
 34 30  1  0  0  0  0
 35 31  1  0  0  0  0
 36 35  2  0  0  0  0
 36 40  1  0  0  0  0
 37 36  1  0  0  0  0
 38 37  2  0  0  0  0
 38 39  1  0  0  0  0
 39 35  1  0  0  0  0
 41 37  1  0  0  0  0
 42 38  1  0  0  0  0
 43 44  3  0  0  0  0
 44 26  1  0  0  0  0
M  END
>  <minimizedAffinity>
-6.33125639

>  <minimizedRMSD>
0.608938873

$$$$
