
 OpenBabel03272509193D

 35 37  0  0  0  0  0  0  0  0999 V2000
   39.6480   24.9550   34.7730 C   0  0  0  0  0  0  0  0  0  0  0  0
   39.6460   26.3000   34.4410 C   0  0  0  0  0  0  0  0  0  0  0  0
   38.8400   27.0900   35.2670 C   0  0  0  0  0  0  0  0  0  0  0  0
   38.1100   26.5480   36.3310 C   0  0  0  0  0  0  0  0  0  0  0  0
   38.1820   25.1710   36.5830 C   0  0  0  0  0  0  0  0  0  0  0  0
   38.9670   24.3870   35.7800 C   0  0  0  0  0  0  0  0  0  0  0  0
   38.7550   28.1620   35.1070 H   0  0  0  0  0  0  0  0  0  0  0  0
   37.4930   27.1790   36.9580 H   0  0  0  0  0  0  0  0  0  0  0  0
   37.6030   24.7810   37.4170 H   0  0  0  0  0  0  0  0  0  0  0  0
   41.7120   27.2930   33.5560 C   0  0  0  0  0  0  0  0  0  0  0  0
   40.3890   26.8600   33.3550 C   0  0  0  0  0  0  0  0  0  0  0  0
   39.8540   27.0030   32.0770 C   0  0  0  0  0  0  0  0  0  0  0  0
   40.6340   27.5480   31.1040 N   0  0  0  0  0  0  0  0  0  0  0  0
   41.9090   27.9510   31.3450 C   0  0  0  0  0  0  0  0  0  0  0  0
   42.4390   27.8220   32.5620 N   0  0  0  0  0  0  0  0  0  0  0  0
   42.1030   27.1710   34.5550 H   0  0  0  0  0  0  0  0  0  0  0  0
   42.5220   28.3840   30.5610 H   0  0  0  0  0  0  0  0  0  0  0  0
   38.4640   26.5660   31.8030 C   0  0  0  0  0  0  0  0  0  0  0  0
   38.3030   25.6490   32.3950 H   0  0  0  0  0  0  0  0  0  0  0  0
   38.4020   26.3820   30.7120 H   0  0  0  0  0  0  0  0  0  0  0  0
   37.7240   27.3460   32.0510 H   0  0  0  0  0  0  0  0  0  0  0  0
   40.4340   24.0800   33.9920 O   0  0  0  0  0  0  0  0  0  0  0  0
   41.4310   24.2860   33.9150 H   0  0  0  0  0  0  0  0  0  0  0  0
   39.0130   23.0190   36.0640 O   0  0  0  0  0  0  0  0  0  0  0  0
   36.8370   21.9190   36.6600 C   0  0  0  0  0  0  0  0  0  0  0  0
   37.8450   22.2980   35.7990 C   0  0  0  0  0  0  0  0  0  0  0  0
   37.7800   21.9600   34.4560 C   0  0  0  0  0  0  0  0  0  0  0  0
   38.5120   22.2020   33.6820 H   0  0  0  0  0  0  0  0  0  0  0  0
   36.7100   21.2390   33.9450 C   0  0  0  0  0  3  0  0  0  0  0  0
   35.7030   20.8630   34.8140 C   0  0  0  0  0  3  0  0  0  0  0  0
   35.7780   21.2020   36.1380 C   0  0  0  0  0  0  0  0  0  0  0  0
   37.0370   22.3230   37.9610 O   0  0  0  0  0  0  0  0  0  0  0  0
   36.5510   23.0820   38.4040 H   0  0  0  0  0  0  0  0  0  0  0  0
   34.8000   20.8530   37.0580 O   0  0  0  0  0  0  0  0  0  0  0  0
   34.0270   21.4450   37.2910 H   0  0  0  0  0  0  0  0  0  0  0  0
  1  6  1  0  0  0  0
  2  1  2  0  0  0  0
  2  3  1  0  0  0  0
  3  4  2  0  0  0  0
  4  5  1  0  0  0  0
  4  8  1  0  0  0  0
  5  9  1  0  0  0  0
  6 24  1  0  0  0  0
  6  5  2  0  0  0  0
  7  3  1  0  0  0  0
 10 16  1  0  0  0  0
 11 10  1  0  0  0  0
 11  2  1  0  0  0  0
 12 11  2  0  0  0  0
 13 14  2  0  0  0  0
 13 12  1  0  0  0  0
 14 15  1  0  0  0  0
 15 10  2  0  0  0  0
 17 14  1  0  0  0  0
 18 21  1  0  0  0  0
 18 12  1  0  0  0  0
 18 19  1  0  0  0  0
 20 18  1  0  0  0  0
 22  1  1  0  0  0  0
 23 22  1  0  0  0  0
 25 32  1  0  0  0  0
 26 24  1  0  0  0  0
 26 25  2  0  0  0  0
 27 26  1  0  0  0  0
 28 27  1  0  0  0  0
 29 27  2  0  0  0  0
 29 30  1  0  0  0  0
 30 31  2  0  0  0  0
 31 25  1  0  0  0  0
 31 34  1  0  0  0  0
 32 33  1  0  0  0  0
 34 35  1  0  0  0  0
M  END
>  <minimizedAffinity>
-6.09532452

$$$$

 OpenBabel03272509193D

 35 37  0  0  0  0  0  0  0  0999 V2000
   37.7670   25.4550   34.0470 C   0  0  0  0  0  0  0  0  0  0  0  0
   37.7850   26.8240   33.8400 C   0  0  0  0  0  0  0  0  0  0  0  0
   38.1100   27.5690   34.9780 C   0  0  0  0  0  0  0  0  0  0  0  0
   38.3920   26.9620   36.2070 C   0  0  0  0  0  0  0  0  0  0  0  0
   38.3470   25.5650   36.3110 C   0  0  0  0  0  0  0  0  0  0  0  0
   38.0280   24.8250   35.2030 C   0  0  0  0  0  0  0  0  0  0  0  0
   38.1570   28.6540   34.9430 H   0  0  0  0  0  0  0  0  0  0  0  0
   38.6420   27.5590   37.0750 H   0  0  0  0  0  0  0  0  0  0  0  0
   38.5700   25.1240   37.2790 H   0  0  0  0  0  0  0  0  0  0  0  0
   36.2000   27.9170   32.3130 C   0  0  0  0  0  0  0  0  0  0  0  0
   37.4980   27.4510   32.5870 C   0  0  0  0  0  0  0  0  0  0  0  0
   38.4660   27.6270   31.6000 C   0  0  0  0  0  0  0  0  0  0  0  0
   38.1030   28.2350   30.4370 N   0  0  0  0  0  0  0  0  0  0  0  0
   36.8350   28.6700   30.2170 C   0  0  0  0  0  0  0  0  0  0  0  0
   35.8950   28.5100   31.1500 N   0  0  0  0  0  0  0  0  0  0  0  0
   35.4700   27.7690   33.0930 H   0  0  0  0  0  0  0  0  0  0  0  0
   36.5570   29.1530   29.2860 H   0  0  0  0  0  0  0  0  0  0  0  0
   39.8520   27.1570   31.8300 C   0  0  0  0  0  0  0  0  0  0  0  0
   40.0740   27.3490   32.8930 H   0  0  0  0  0  0  0  0  0  0  0  0
   40.5010   27.7450   31.1500 H   0  0  0  0  0  0  0  0  0  0  0  0
   39.9810   26.0920   31.5720 H   0  0  0  0  0  0  0  0  0  0  0  0
   37.4470   24.6230   32.9520 O   0  0  0  0  0  0  0  0  0  0  0  0
   38.0220   24.7080   32.1130 H   0  0  0  0  0  0  0  0  0  0  0  0
   37.9940   23.4350   35.3450 O   0  0  0  0  0  0  0  0  0  0  0  0
   39.7020   22.3050   36.7970 C   0  0  0  0  0  0  0  0  0  0  0  0
   39.2190   22.8150   35.6110 C   0  0  0  0  0  0  0  0  0  0  0  0
   39.9880   22.7510   34.4590 C   0  0  0  0  0  0  0  0  0  0  0  0
   39.7160   23.1180   33.4660 H   0  0  0  0  0  0  0  0  0  0  0  0
   41.2510   22.1780   34.4660 C   0  0  0  0  0  3  0  0  0  0  0  0
   41.7290   21.6680   35.6590 C   0  0  0  0  0  3  0  0  0  0  0  0
   40.9610   21.7370   36.7890 C   0  0  0  0  0  0  0  0  0  0  0  0
   38.8310   22.4390   37.8550 O   0  0  0  0  0  0  0  0  0  0  0  0
   38.2880   21.6890   38.2450 H   0  0  0  0  0  0  0  0  0  0  0  0
   41.3860   21.2440   38.0160 O   0  0  0  0  0  0  0  0  0  0  0  0
   41.1850   20.3160   38.3340 H   0  0  0  0  0  0  0  0  0  0  0  0
  1  6  1  0  0  0  0
  2  1  2  0  0  0  0
  2  3  1  0  0  0  0
  3  4  2  0  0  0  0
  4  5  1  0  0  0  0
  4  8  1  0  0  0  0
  5  9  1  0  0  0  0
  6 24  1  0  0  0  0
  6  5  2  0  0  0  0
  7  3  1  0  0  0  0
 10 11  1  0  0  0  0
 10 16  1  0  0  0  0
 11  2  1  0  0  0  0
 12 18  1  0  0  0  0
 12 11  2  0  0  0  0
 13 12  1  0  0  0  0
 14 13  2  0  0  0  0
 14 15  1  0  0  0  0
 15 10  2  0  0  0  0
 17 14  1  0  0  0  0
 18 19  1  0  0  0  0
 20 18  1  0  0  0  0
 21 18  1  0  0  0  0
 22  1  1  0  0  0  0
 23 22  1  0  0  0  0
 24 26  1  0  0  0  0
 25 32  1  0  0  0  0
 26 25  2  0  0  0  0
 27 29  2  0  0  0  0
 27 26  1  0  0  0  0
 28 27  1  0  0  0  0
 29 30  1  0  0  0  0
 30 31  2  0  0  0  0
 31 25  1  0  0  0  0
 31 34  1  0  0  0  0
 32 33  1  0  0  0  0
 34 35  1  0  0  0  0
M  END
>  <minimizedAffinity>
-6.00598526

$$$$

 OpenBabel03272509193D

 35 37  0  0  0  0  0  0  0  0999 V2000
   37.9770   22.6410   32.8560 C   0  0  0  0  0  0  0  0  0  0  0  0
   36.9330   22.2030   32.0590 C   0  0  0  0  0  0  0  0  0  0  0  0
   36.0700   23.2200   31.6410 C   0  0  0  0  0  0  0  0  0  0  0  0
   36.2640   24.5560   32.0070 C   0  0  0  0  0  0  0  0  0  0  0  0
   37.3550   24.8950   32.8190 C   0  0  0  0  0  0  0  0  0  0  0  0
   38.2070   23.9070   33.2350 C   0  0  0  0  0  0  0  0  0  0  0  0
   35.2110   23.0020   31.0100 H   0  0  0  0  0  0  0  0  0  0  0  0
   35.5830   25.3280   31.6710 H   0  0  0  0  0  0  0  0  0  0  0  0
   37.4780   25.9420   33.0860 H   0  0  0  0  0  0  0  0  0  0  0  0
   37.2100   20.3700   30.4450 C   0  0  0  0  0  0  0  0  0  0  0  0
   36.7280   20.8380   31.6800 C   0  0  0  0  0  0  0  0  0  0  0  0
   36.0580   19.9290   32.4950 C   0  0  0  0  0  0  0  0  0  0  0  0
   35.9090   18.6500   32.0540 N   0  0  0  0  0  0  0  0  0  0  0  0
   36.3930   18.2420   30.8520 C   0  0  0  0  0  0  0  0  0  0  0  0
   37.0380   19.0980   30.0580 N   0  0  0  0  0  0  0  0  0  0  0  0
   37.7260   21.0940   29.8330 H   0  0  0  0  0  0  0  0  0  0  0  0
   36.2680   17.2200   30.5100 H   0  0  0  0  0  0  0  0  0  0  0  0
   35.5260   20.3630   33.8090 C   0  0  0  0  0  0  0  0  0  0  0  0
   36.2620   21.0740   34.2230 H   0  0  0  0  0  0  0  0  0  0  0  0
   35.4280   19.4480   34.4260 H   0  0  0  0  0  0  0  0  0  0  0  0
   34.5240   20.8170   33.7250 H   0  0  0  0  0  0  0  0  0  0  0  0
   38.9000   21.6810   33.3260 O   0  0  0  0  0  0  0  0  0  0  0  0
   39.3830   21.1130   32.6290 H   0  0  0  0  0  0  0  0  0  0  0  0
   39.2840   24.2840   34.0430 O   0  0  0  0  0  0  0  0  0  0  0  0
   39.9510   22.9560   36.0660 C   0  0  0  0  0  0  0  0  0  0  0  0
   39.2090   23.8980   35.3850 C   0  0  0  0  0  0  0  0  0  0  0  0
   38.2210   24.6170   36.0410 C   0  0  0  0  0  0  0  0  0  0  0  0
   37.5720   25.3830   35.6110 H   0  0  0  0  0  0  0  0  0  0  0  0
   37.9550   24.4110   37.3870 C   0  0  0  0  0  3  0  0  0  0  0  0
   38.7020   23.4660   38.0640 C   0  0  0  0  0  3  0  0  0  0  0  0
   39.6740   22.7630   37.4050 C   0  0  0  0  0  0  0  0  0  0  0  0
   40.8930   22.3220   35.2880 O   0  0  0  0  0  0  0  0  0  0  0  0
   41.8810   22.5060   35.3230 H   0  0  0  0  0  0  0  0  0  0  0  0
   40.4570   21.8010   38.0300 O   0  0  0  0  0  0  0  0  0  0  0  0
   41.3460   22.0010   38.4450 H   0  0  0  0  0  0  0  0  0  0  0  0
  1  6  1  0  0  0  0
  1 22  1  0  0  0  0
  2  1  2  0  0  0  0
  3  4  2  0  0  0  0
  3  2  1  0  0  0  0
  4  5  1  0  0  0  0
  5  9  1  0  0  0  0
  5  6  2  0  0  0  0
  6 24  1  0  0  0  0
  7  3  1  0  0  0  0
  8  4  1  0  0  0  0
 10 11  1  0  0  0  0
 11  2  1  0  0  0  0
 11 12  2  0  0  0  0
 12 18  1  0  0  0  0
 13 12  1  0  0  0  0
 14 13  2  0  0  0  0
 15 10  2  0  0  0  0
 15 14  1  0  0  0  0
 16 10  1  0  0  0  0
 17 14  1  0  0  0  0
 18 19  1  0  0  0  0
 18 20  1  0  0  0  0
 21 18  1  0  0  0  0
 23 22  1  0  0  0  0
 24 26  1  0  0  0  0
 25 31  1  0  0  0  0
 26 27  1  0  0  0  0
 26 25  2  0  0  0  0
 27 29  2  0  0  0  0
 28 27  1  0  0  0  0
 29 30  1  0  0  0  0
 31 34  1  0  0  0  0
 31 30  2  0  0  0  0
 32 33  1  0  0  0  0
 32 25  1  0  0  0  0
 34 35  1  0  0  0  0
M  END
>  <minimizedAffinity>
-6.00445795

$$$$

 OpenBabel03272509193D

 35 37  0  0  0  0  0  0  0  0999 V2000
   38.2360   25.7800   33.1450 C   0  0  0  0  0  0  0  0  0  0  0  0
   38.6080   27.0210   32.6560 C   0  0  0  0  0  0  0  0  0  0  0  0
   39.9350   27.3680   32.9320 C   0  0  0  0  0  0  0  0  0  0  0  0
   40.7920   26.5190   33.6400 C   0  0  0  0  0  0  0  0  0  0  0  0
   40.3160   25.2810   34.0920 C   0  0  0  0  0  0  0  0  0  0  0  0
   39.0180   24.9300   33.8280 C   0  0  0  0  0  0  0  0  0  0  0  0
   40.3460   28.3180   32.6010 H   0  0  0  0  0  0  0  0  0  0  0  0
   41.8160   26.8080   33.8420 H   0  0  0  0  0  0  0  0  0  0  0  0
   41.0060   24.6440   34.6390 H   0  0  0  0  0  0  0  0  0  0  0  0
   37.8870   28.0450   30.5420 C   0  0  0  0  0  0  0  0  0  0  0  0
   37.7370   27.8940   31.9320 C   0  0  0  0  0  0  0  0  0  0  0  0
   36.7220   28.6200   32.5510 C   0  0  0  0  0  0  0  0  0  0  0  0
   35.9410   29.4280   31.7820 N   0  0  0  0  0  0  0  0  0  0  0  0
   36.1230   29.5410   30.4410 C   0  0  0  0  0  0  0  0  0  0  0  0
   37.0890   28.8530   29.8310 N   0  0  0  0  0  0  0  0  0  0  0  0
   38.6800   27.4710   30.0870 H   0  0  0  0  0  0  0  0  0  0  0  0
   35.4940   30.1870   29.8380 H   0  0  0  0  0  0  0  0  0  0  0  0
   36.5150   28.5040   34.0140 C   0  0  0  0  0  0  0  0  0  0  0  0
   36.7070   27.4490   34.2730 H   0  0  0  0  0  0  0  0  0  0  0  0
   35.4650   28.8020   34.2070 H   0  0  0  0  0  0  0  0  0  0  0  0
   37.1640   29.1890   34.5840 H   0  0  0  0  0  0  0  0  0  0  0  0
   36.9120   25.3460   32.9140 O   0  0  0  0  0  0  0  0  0  0  0  0
   36.5940   25.3020   31.9450 H   0  0  0  0  0  0  0  0  0  0  0  0
   38.5790   23.6870   34.2950 O   0  0  0  0  0  0  0  0  0  0  0  0
   39.7650   22.5640   36.2010 C   0  0  0  0  0  0  0  0  0  0  0  0
   38.8340   23.4130   35.6420 C   0  0  0  0  0  0  0  0  0  0  0  0
   37.9800   24.1450   36.4540 C   0  0  0  0  0  0  0  0  0  0  0  0
   37.2060   24.8450   36.1300 H   0  0  0  0  0  0  0  0  0  0  0  0
   38.0380   24.0440   37.8360 C   0  0  0  0  0  3  0  0  0  0  0  0
   38.9740   23.1910   38.3900 C   0  0  0  0  0  3  0  0  0  0  0  0
   39.8110   22.4740   37.5780 C   0  0  0  0  0  0  0  0  0  0  0  0
   40.5410   21.9050   35.2750 O   0  0  0  0  0  0  0  0  0  0  0  0
   41.4990   22.1310   35.0680 H   0  0  0  0  0  0  0  0  0  0  0  0
   40.7700   21.6020   38.0740 O   0  0  0  0  0  0  0  0  0  0  0  0
   41.7160   21.8720   38.2570 H   0  0  0  0  0  0  0  0  0  0  0  0
  1  6  1  0  0  0  0
  2  3  1  0  0  0  0
  2  1  2  0  0  0  0
  3  4  2  0  0  0  0
  4  8  1  0  0  0  0
  4  5  1  0  0  0  0
  5  9  1  0  0  0  0
  6  5  2  0  0  0  0
  6 24  1  0  0  0  0
  7  3  1  0  0  0  0
 10 11  1  0  0  0  0
 11 12  2  0  0  0  0
 11  2  1  0  0  0  0
 12 18  1  0  0  0  0
 13 12  1  0  0  0  0
 14 13  2  0  0  0  0
 15 14  1  0  0  0  0
 15 10  2  0  0  0  0
 16 10  1  0  0  0  0
 17 14  1  0  0  0  0
 18 20  1  0  0  0  0
 18 19  1  0  0  0  0
 18 21  1  0  0  0  0
 22  1  1  0  0  0  0
 23 22  1  0  0  0  0
 24 26  1  0  0  0  0
 25 31  1  0  0  0  0
 26 25  2  0  0  0  0
 26 27  1  0  0  0  0
 27 29  2  0  0  0  0
 28 27  1  0  0  0  0
 29 30  1  0  0  0  0
 31 34  1  0  0  0  0
 31 30  2  0  0  0  0
 32 25  1  0  0  0  0
 33 32  1  0  0  0  0
 34 35  1  0  0  0  0
M  END
>  <minimizedAffinity>
-5.84197521

$$$$

 OpenBabel03272509193D

 35 37  0  0  0  0  0  0  0  0999 V2000
   38.1360   26.2760   33.1640 C   0  0  0  0  0  0  0  0  0  0  0  0
   37.0690   26.4230   32.2950 C   0  0  0  0  0  0  0  0  0  0  0  0
   36.5040   25.2150   31.8760 C   0  0  0  0  0  0  0  0  0  0  0  0
   36.9880   23.9780   32.3120 C   0  0  0  0  0  0  0  0  0  0  0  0
   38.0760   23.9370   33.1960 C   0  0  0  0  0  0  0  0  0  0  0  0
   38.6390   25.1150   33.6120 C   0  0  0  0  0  0  0  0  0  0  0  0
   35.6590   25.2000   31.1910 H   0  0  0  0  0  0  0  0  0  0  0  0
   36.5340   23.0540   31.9750 H   0  0  0  0  0  0  0  0  0  0  0  0
   38.4290   22.9610   33.5160 H   0  0  0  0  0  0  0  0  0  0  0  0
   35.5140   28.3110   32.5330 C   0  0  0  0  0  0  0  0  0  0  0  0
   36.5680   27.6860   31.8440 C   0  0  0  0  0  0  0  0  0  0  0  0
   37.0860   28.3410   30.7300 C   0  0  0  0  0  0  0  0  0  0  0  0
   36.5470   29.5390   30.3730 N   0  0  0  0  0  0  0  0  0  0  0  0
   35.5280   30.1060   31.0700 C   0  0  0  0  0  0  0  0  0  0  0  0
   35.0200   29.4940   32.1400 N   0  0  0  0  0  0  0  0  0  0  0  0
   35.1310   27.7830   33.3930 H   0  0  0  0  0  0  0  0  0  0  0  0
   35.1060   31.0620   30.7770 H   0  0  0  0  0  0  0  0  0  0  0  0
   38.1980   27.7320   29.9620 C   0  0  0  0  0  0  0  0  0  0  0  0
   38.8570   27.2450   30.7010 H   0  0  0  0  0  0  0  0  0  0  0  0
   38.7020   28.5610   29.4260 H   0  0  0  0  0  0  0  0  0  0  0  0
   37.8390   27.0160   29.2030 H   0  0  0  0  0  0  0  0  0  0  0  0
   38.7710   27.4450   33.6400 O   0  0  0  0  0  0  0  0  0  0  0  0
   38.1910   28.1310   34.1220 H   0  0  0  0  0  0  0  0  0  0  0  0
   39.7210   25.0340   34.4940 O   0  0  0  0  0  0  0  0  0  0  0  0
   40.1450   23.2810   36.2390 C   0  0  0  0  0  0  0  0  0  0  0  0
   39.4840   24.3620   35.6960 C   0  0  0  0  0  0  0  0  0  0  0  0
   38.4140   24.9350   36.3680 C   0  0  0  0  0  0  0  0  0  0  0  0
   37.8150   25.7880   36.0410 H   0  0  0  0  0  0  0  0  0  0  0  0
   37.9830   24.4420   37.5910 C   0  0  0  0  0  3  0  0  0  0  0  0
   38.6510   23.3580   38.1290 C   0  0  0  0  0  3  0  0  0  0  0  0
   39.7050   22.8010   37.4570 C   0  0  0  0  0  0  0  0  0  0  0  0
   41.1840   22.8190   35.4630 O   0  0  0  0  0  0  0  0  0  0  0  0
   42.1570   22.9730   35.6610 H   0  0  0  0  0  0  0  0  0  0  0  0
   40.4150   21.7130   37.9460 O   0  0  0  0  0  0  0  0  0  0  0  0
   41.2420   21.8000   38.5020 H   0  0  0  0  0  0  0  0  0  0  0  0
  1  6  1  0  0  0  0
  1 22  1  0  0  0  0
  2  1  2  0  0  0  0
  3  2  1  0  0  0  0
  3  4  2  0  0  0  0
  4  5  1  0  0  0  0
  5  9  1  0  0  0  0
  5  6  2  0  0  0  0
  6 24  1  0  0  0  0
  7  3  1  0  0  0  0
  8  4  1  0  0  0  0
 10 16  1  0  0  0  0
 11  2  1  0  0  0  0
 11 10  2  0  0  0  0
 12 11  1  0  0  0  0
 13 12  2  0  0  0  0
 13 14  1  0  0  0  0
 14 15  2  0  0  0  0
 15 10  1  0  0  0  0
 17 14  1  0  0  0  0
 18 19  1  0  0  0  0
 18 12  1  0  0  0  0
 20 18  1  0  0  0  0
 21 18  1  0  0  0  0
 22 23  1  0  0  0  0
 24 26  1  0  0  0  0
 25 31  1  0  0  0  0
 26 25  2  0  0  0  0
 26 27  1  0  0  0  0
 27 29  2  0  0  0  0
 28 27  1  0  0  0  0
 29 30  1  0  0  0  0
 31 34  1  0  0  0  0
 31 30  2  0  0  0  0
 32 33  1  0  0  0  0
 32 25  1  0  0  0  0
 34 35  1  0  0  0  0
M  END
>  <minimizedAffinity>
-5.79509878

$$$$

 OpenBabel03272509193D

 35 37  0  0  0  0  0  0  0  0999 V2000
   37.9880   25.3950   34.1460 C   0  0  0  0  0  0  0  0  0  0  0  0
   38.7790   25.3450   35.2810 C   0  0  0  0  0  0  0  0  0  0  0  0
   38.7440   26.5110   36.0520 C   0  0  0  0  0  0  0  0  0  0  0  0
   37.9700   27.6180   35.6900 C   0  0  0  0  0  0  0  0  0  0  0  0
   37.2020   27.5670   34.5180 C   0  0  0  0  0  0  0  0  0  0  0  0
   37.2290   26.4300   33.7540 C   0  0  0  0  0  0  0  0  0  0  0  0
   39.3240   26.5940   36.9680 H   0  0  0  0  0  0  0  0  0  0  0  0
   37.9580   28.5110   36.3030 H   0  0  0  0  0  0  0  0  0  0  0  0
   36.6120   28.4430   34.2640 H   0  0  0  0  0  0  0  0  0  0  0  0
   40.9010   24.1090   35.2080 C   0  0  0  0  0  0  0  0  0  0  0  0
   39.5740   24.2160   35.6580 C   0  0  0  0  0  0  0  0  0  0  0  0
   39.0840   23.1950   36.4680 C   0  0  0  0  0  0  0  0  0  0  0  0
   39.9120   22.1580   36.7750 N   0  0  0  0  0  0  0  0  0  0  0  0
   41.1900   22.0960   36.3180 C   0  0  0  0  0  0  0  0  0  0  0  0
   41.6750   23.0660   35.5420 N   0  0  0  0  0  0  0  0  0  0  0  0
   41.2560   24.9130   34.5820 H   0  0  0  0  0  0  0  0  0  0  0  0
   41.8410   21.2660   36.5690 H   0  0  0  0  0  0  0  0  0  0  0  0
   37.6920   23.2510   36.9730 C   0  0  0  0  0  0  0  0  0  0  0  0
   37.4850   24.3120   37.1970 H   0  0  0  0  0  0  0  0  0  0  0  0
   37.6600   22.6140   37.8790 H   0  0  0  0  0  0  0  0  0  0  0  0
   36.9680   22.8390   36.2510 H   0  0  0  0  0  0  0  0  0  0  0  0
   37.9620   24.2610   33.3050 O   0  0  0  0  0  0  0  0  0  0  0  0
   37.6850   23.3720   33.7240 H   0  0  0  0  0  0  0  0  0  0  0  0
   36.4500   26.4170   32.5940 O   0  0  0  0  0  0  0  0  0  0  0  0
   35.8700   28.6030   31.5050 C   0  0  0  0  0  0  0  0  0  0  0  0
   36.6460   27.4830   31.7100 C   0  0  0  0  0  0  0  0  0  0  0  0
   37.8110   27.2980   30.9810 C   0  0  0  0  0  0  0  0  0  0  0  0
   38.5050   26.4560   31.0530 H   0  0  0  0  0  0  0  0  0  0  0  0
   38.2240   28.2250   30.0350 C   0  0  0  0  0  3  0  0  0  0  0  0
   37.4400   29.3460   29.8350 C   0  0  0  0  0  3  0  0  0  0  0  0
   36.2930   29.5170   30.5610 C   0  0  0  0  0  0  0  0  0  0  0  0
   34.7460   28.6520   32.2990 O   0  0  0  0  0  0  0  0  0  0  0  0
   34.6390   29.2460   33.1020 H   0  0  0  0  0  0  0  0  0  0  0  0
   35.4650   30.6210   30.4050 O   0  0  0  0  0  0  0  0  0  0  0  0
   35.5470   31.4510   30.9570 H   0  0  0  0  0  0  0  0  0  0  0  0
  1  2  1  0  0  0  0
  2 11  1  0  0  0  0
  2  3  2  0  0  0  0
  3  7  1  0  0  0  0
  4  3  1  0  0  0  0
  4  8  1  0  0  0  0
  5  4  2  0  0  0  0
  6  1  2  0  0  0  0
  6  5  1  0  0  0  0
  9  5  1  0  0  0  0
 10 15  2  0  0  0  0
 10 11  1  0  0  0  0
 11 12  2  0  0  0  0
 12 13  1  0  0  0  0
 12 18  1  0  0  0  0
 14 17  1  0  0  0  0
 14 13  2  0  0  0  0
 15 14  1  0  0  0  0
 16 10  1  0  0  0  0
 18 19  1  0  0  0  0
 18 20  1  0  0  0  0
 21 18  1  0  0  0  0
 22 23  1  0  0  0  0
 22  1  1  0  0  0  0
 24  6  1  0  0  0  0
 25 26  1  0  0  0  0
 25 32  1  0  0  0  0
 26 24  1  0  0  0  0
 27 28  1  0  0  0  0
 27 26  2  0  0  0  0
 29 27  1  0  0  0  0
 30 29  2  0  0  0  0
 30 31  1  0  0  0  0
 31 25  2  0  0  0  0
 32 33  1  0  0  0  0
 34 31  1  0  0  0  0
 34 35  1  0  0  0  0
M  END
>  <minimizedAffinity>
-5.77335024

$$$$

 OpenBabel03272509193D

 35 37  0  0  0  0  0  0  0  0999 V2000
   37.7940   25.6910   33.9840 C   0  0  0  0  0  0  0  0  0  0  0  0
   38.6970   25.5550   35.0250 C   0  0  0  0  0  0  0  0  0  0  0  0
   38.7600   26.6650   35.8740 C   0  0  0  0  0  0  0  0  0  0  0  0
   37.9690   27.8000   35.6710 C   0  0  0  0  0  0  0  0  0  0  0  0
   37.0830   27.8370   34.5860 C   0  0  0  0  0  0  0  0  0  0  0  0
   37.0140   26.7560   33.7460 C   0  0  0  0  0  0  0  0  0  0  0  0
   39.4330   26.6790   36.7280 H   0  0  0  0  0  0  0  0  0  0  0  0
   38.0330   28.6480   36.3420 H   0  0  0  0  0  0  0  0  0  0  0  0
   36.4820   28.7330   34.4550 H   0  0  0  0  0  0  0  0  0  0  0  0
   40.7810   24.3100   34.6430 C   0  0  0  0  0  0  0  0  0  0  0  0
   39.5100   24.3970   35.2380 C   0  0  0  0  0  0  0  0  0  0  0  0
   39.0930   23.3260   36.0240 C   0  0  0  0  0  0  0  0  0  0  0  0
   39.9330   22.2640   36.1710 N   0  0  0  0  0  0  0  0  0  0  0  0
   41.1540   22.2240   35.5770 C   0  0  0  0  0  0  0  0  0  0  0  0
   41.5700   23.2410   34.8210 N   0  0  0  0  0  0  0  0  0  0  0  0
   41.0800   25.1530   34.0390 H   0  0  0  0  0  0  0  0  0  0  0  0
   41.8150   21.3730   35.7010 H   0  0  0  0  0  0  0  0  0  0  0  0
   37.7630   23.3590   36.6770 C   0  0  0  0  0  0  0  0  0  0  0  0
   37.5970   24.4030   36.9930 H   0  0  0  0  0  0  0  0  0  0  0  0
   37.8170   22.6600   37.5360 H   0  0  0  0  0  0  0  0  0  0  0  0
   36.9610   23.0020   36.0090 H   0  0  0  0  0  0  0  0  0  0  0  0
   37.6640   24.6180   33.0740 O   0  0  0  0  0  0  0  0  0  0  0  0
   37.4190   23.7050   33.4570 H   0  0  0  0  0  0  0  0  0  0  0  0
   36.1180   26.8300   32.6750 O   0  0  0  0  0  0  0  0  0  0  0  0
   37.2170   27.4270   30.4990 C   0  0  0  0  0  0  0  0  0  0  0  0
   36.4790   27.6900   31.6330 C   0  0  0  0  0  0  0  0  0  0  0  0
   35.9770   28.9620   31.8600 C   0  0  0  0  0  0  0  0  0  0  0  0
   35.3820   29.2900   32.7160 H   0  0  0  0  0  0  0  0  0  0  0  0
   36.2020   29.9970   30.9630 C   0  0  0  0  0  3  0  0  0  0  0  0
   36.9440   29.7260   29.8280 C   0  0  0  0  0  3  0  0  0  0  0  0
   37.4330   28.4660   29.6150 C   0  0  0  0  0  0  0  0  0  0  0  0
   37.6490   26.1230   30.4070 O   0  0  0  0  0  0  0  0  0  0  0  0
   37.2520   25.4330   29.7930 H   0  0  0  0  0  0  0  0  0  0  0  0
   38.1840   28.1340   28.4950 O   0  0  0  0  0  0  0  0  0  0  0  0
   37.7840   27.7640   27.6560 H   0  0  0  0  0  0  0  0  0  0  0  0
  1  2  1  0  0  0  0
  2 11  1  0  0  0  0
  2  3  2  0  0  0  0
  3  7  1  0  0  0  0
  4  3  1  0  0  0  0
  4  8  1  0  0  0  0
  5  4  2  0  0  0  0
  6  1  2  0  0  0  0
  6  5  1  0  0  0  0
  9  5  1  0  0  0  0
 10 15  2  0  0  0  0
 10 11  1  0  0  0  0
 11 12  2  0  0  0  0
 12 13  1  0  0  0  0
 12 18  1  0  0  0  0
 14 17  1  0  0  0  0
 14 13  2  0  0  0  0
 15 14  1  0  0  0  0
 16 10  1  0  0  0  0
 18 19  1  0  0  0  0
 18 20  1  0  0  0  0
 21 18  1  0  0  0  0
 22 23  1  0  0  0  0
 22  1  1  0  0  0  0
 24  6  1  0  0  0  0
 25 26  1  0  0  0  0
 26 27  2  0  0  0  0
 26 24  1  0  0  0  0
 27 28  1  0  0  0  0
 29 27  1  0  0  0  0
 30 29  2  0  0  0  0
 31 30  1  0  0  0  0
 31 25  2  0  0  0  0
 32 25  1  0  0  0  0
 33 32  1  0  0  0  0
 34 31  1  0  0  0  0
 35 34  1  0  0  0  0
M  END
>  <minimizedAffinity>
-5.64563465

$$$$

 OpenBabel03272509193D

 35 37  0  0  0  0  0  0  0  0999 V2000
   37.8060   25.6440   34.1380 C   0  0  0  0  0  0  0  0  0  0  0  0
   38.5690   25.5910   35.2920 C   0  0  0  0  0  0  0  0  0  0  0  0
   38.5290   26.7620   36.0560 C   0  0  0  0  0  0  0  0  0  0  0  0
   37.7760   27.8750   35.6700 C   0  0  0  0  0  0  0  0  0  0  0  0
   37.0370   27.8260   34.4810 C   0  0  0  0  0  0  0  0  0  0  0  0
   37.0680   26.6850   33.7230 C   0  0  0  0  0  0  0  0  0  0  0  0
   39.0880   26.8430   36.9860 H   0  0  0  0  0  0  0  0  0  0  0  0
   37.7600   28.7710   36.2780 H   0  0  0  0  0  0  0  0  0  0  0  0
   36.4620   28.7080   34.2080 H   0  0  0  0  0  0  0  0  0  0  0  0
   38.7730   23.4760   36.5280 C   0  0  0  0  0  0  0  0  0  0  0  0
   39.3410   24.4550   35.6940 C   0  0  0  0  0  0  0  0  0  0  0  0
   40.6610   24.2680   35.2900 C   0  0  0  0  0  0  0  0  0  0  0  0
   41.3200   23.1570   35.7210 N   0  0  0  0  0  0  0  0  0  0  0  0
   40.7290   22.2370   36.5260 C   0  0  0  0  0  0  0  0  0  0  0  0
   39.4660   22.3990   36.9230 N   0  0  0  0  0  0  0  0  0  0  0  0
   37.7490   23.6450   36.8260 H   0  0  0  0  0  0  0  0  0  0  0  0
   41.2630   21.3550   36.8640 H   0  0  0  0  0  0  0  0  0  0  0  0
   41.3160   25.2660   34.4110 C   0  0  0  0  0  0  0  0  0  0  0  0
   40.5420   25.6150   33.7060 H   0  0  0  0  0  0  0  0  0  0  0  0
   42.1470   24.7390   33.9010 H   0  0  0  0  0  0  0  0  0  0  0  0
   41.7540   26.1020   34.9820 H   0  0  0  0  0  0  0  0  0  0  0  0
   37.7870   24.5050   33.3030 O   0  0  0  0  0  0  0  0  0  0  0  0
   37.4890   23.6220   33.7190 H   0  0  0  0  0  0  0  0  0  0  0  0
   36.3170   26.6740   32.5440 O   0  0  0  0  0  0  0  0  0  0  0  0
   35.8200   28.8820   31.4580 C   0  0  0  0  0  0  0  0  0  0  0  0
   36.5510   27.7300   31.6580 C   0  0  0  0  0  0  0  0  0  0  0  0
   37.7020   27.4970   30.9200 C   0  0  0  0  0  0  0  0  0  0  0  0
   38.3600   26.6280   30.9880 H   0  0  0  0  0  0  0  0  0  0  0  0
   38.1450   28.4050   29.9700 C   0  0  0  0  0  3  0  0  0  0  0  0
   37.4070   29.5570   29.7740 C   0  0  0  0  0  3  0  0  0  0  0  0
   36.2740   29.7770   30.5090 C   0  0  0  0  0  0  0  0  0  0  0  0
   34.7050   28.9780   32.2590 O   0  0  0  0  0  0  0  0  0  0  0  0
   34.6290   29.5770   33.0630 H   0  0  0  0  0  0  0  0  0  0  0  0
   35.4910   30.9140   30.3570 O   0  0  0  0  0  0  0  0  0  0  0  0
   35.6110   31.7400   30.9080 H   0  0  0  0  0  0  0  0  0  0  0  0
  1  2  1  0  0  0  0
  2 11  1  0  0  0  0
  2  3  2  0  0  0  0
  3  7  1  0  0  0  0
  4  3  1  0  0  0  0
  4  8  1  0  0  0  0
  5  4  2  0  0  0  0
  6  1  2  0  0  0  0
  6  5  1  0  0  0  0
  9  5  1  0  0  0  0
 10 16  1  0  0  0  0
 10 15  1  0  0  0  0
 11 10  2  0  0  0  0
 12 11  1  0  0  0  0
 12 13  2  0  0  0  0
 13 14  1  0  0  0  0
 14 17  1  0  0  0  0
 14 15  2  0  0  0  0
 18 21  1  0  0  0  0
 18 12  1  0  0  0  0
 19 18  1  0  0  0  0
 20 18  1  0  0  0  0
 22 23  1  0  0  0  0
 22  1  1  0  0  0  0
 24  6  1  0  0  0  0
 25 26  1  0  0  0  0
 25 32  1  0  0  0  0
 26 24  1  0  0  0  0
 27 28  1  0  0  0  0
 27 26  2  0  0  0  0
 29 27  1  0  0  0  0
 30 29  2  0  0  0  0
 30 31  1  0  0  0  0
 31 25  2  0  0  0  0
 32 33  1  0  0  0  0
 34 31  1  0  0  0  0
 34 35  1  0  0  0  0
M  END
>  <minimizedAffinity>
-5.58565712

$$$$

 OpenBabel03272509193D

 35 37  0  0  0  0  0  0  0  0999 V2000
   37.7930   25.7040   34.0660 C   0  0  0  0  0  0  0  0  0  0  0  0
   38.6080   25.6360   35.1830 C   0  0  0  0  0  0  0  0  0  0  0  0
   38.5720   26.7800   35.9860 C   0  0  0  0  0  0  0  0  0  0  0  0
   37.7740   27.8840   35.6700 C   0  0  0  0  0  0  0  0  0  0  0  0
   36.9830   27.8530   34.5140 C   0  0  0  0  0  0  0  0  0  0  0  0
   37.0100   26.7370   33.7180 C   0  0  0  0  0  0  0  0  0  0  0  0
   39.1690   26.8470   36.8920 H   0  0  0  0  0  0  0  0  0  0  0  0
   37.7610   28.7600   36.3070 H   0  0  0  0  0  0  0  0  0  0  0  0
   36.3740   28.7260   34.2950 H   0  0  0  0  0  0  0  0  0  0  0  0
   38.9120   23.4750   36.3120 C   0  0  0  0  0  0  0  0  0  0  0  0
   39.4270   24.5100   35.5120 C   0  0  0  0  0  0  0  0  0  0  0  0
   40.7410   24.3860   35.0680 C   0  0  0  0  0  0  0  0  0  0  0  0
   41.4470   23.2800   35.4310 N   0  0  0  0  0  0  0  0  0  0  0  0
   40.9070   22.3040   36.2060 C   0  0  0  0  0  0  0  0  0  0  0  0
   39.6500   22.4050   36.6400 N   0  0  0  0  0  0  0  0  0  0  0  0
   37.8920   23.5950   36.6420 H   0  0  0  0  0  0  0  0  0  0  0  0
   41.4790   21.4260   36.4900 H   0  0  0  0  0  0  0  0  0  0  0  0
   41.3400   25.4450   34.2220 C   0  0  0  0  0  0  0  0  0  0  0  0
   40.5380   25.8000   33.5520 H   0  0  0  0  0  0  0  0  0  0  0  0
   42.1750   24.9700   33.6680 H   0  0  0  0  0  0  0  0  0  0  0  0
   41.7650   26.2680   34.8200 H   0  0  0  0  0  0  0  0  0  0  0  0
   37.7660   24.5930   33.1950 O   0  0  0  0  0  0  0  0  0  0  0  0
   37.5100   23.6890   33.5950 H   0  0  0  0  0  0  0  0  0  0  0  0
   36.2070   26.7430   32.5740 O   0  0  0  0  0  0  0  0  0  0  0  0
   37.4350   27.2560   30.4460 C   0  0  0  0  0  0  0  0  0  0  0  0
   36.6380   27.5640   31.5270 C   0  0  0  0  0  0  0  0  0  0  0  0
   36.1420   28.8490   31.6850 C   0  0  0  0  0  0  0  0  0  0  0  0
   35.5050   29.2120   32.4940 H   0  0  0  0  0  0  0  0  0  0  0  0
   36.4320   29.8510   30.7690 C   0  0  0  0  0  3  0  0  0  0  0  0
   37.2320   29.5350   29.6870 C   0  0  0  0  0  3  0  0  0  0  0  0
   37.7150   28.2630   29.5420 C   0  0  0  0  0  0  0  0  0  0  0  0
   37.8530   25.9440   30.4200 O   0  0  0  0  0  0  0  0  0  0  0  0
   37.4820   25.2390   29.8070 H   0  0  0  0  0  0  0  0  0  0  0  0
   38.5230   27.8840   28.4790 O   0  0  0  0  0  0  0  0  0  0  0  0
   38.1660   27.4920   27.6300 H   0  0  0  0  0  0  0  0  0  0  0  0
  1  2  1  0  0  0  0
  2 11  1  0  0  0  0
  2  3  2  0  0  0  0
  3  7  1  0  0  0  0
  4  3  1  0  0  0  0
  4  8  1  0  0  0  0
  5  4  2  0  0  0  0
  6  1  2  0  0  0  0
  6  5  1  0  0  0  0
  9  5  1  0  0  0  0
 10 15  1  0  0  0  0
 10 16  1  0  0  0  0
 11 10  2  0  0  0  0
 12 13  2  0  0  0  0
 12 11  1  0  0  0  0
 13 14  1  0  0  0  0
 14 17  1  0  0  0  0
 14 15  2  0  0  0  0
 18 21  1  0  0  0  0
 18 12  1  0  0  0  0
 19 18  1  0  0  0  0
 20 18  1  0  0  0  0
 22 23  1  0  0  0  0
 22  1  1  0  0  0  0
 24  6  1  0  0  0  0
 25 26  1  0  0  0  0
 26 27  2  0  0  0  0
 26 24  1  0  0  0  0
 27 28  1  0  0  0  0
 29 27  1  0  0  0  0
 30 29  2  0  0  0  0
 31 30  1  0  0  0  0
 31 25  2  0  0  0  0
 32 25  1  0  0  0  0
 33 32  1  0  0  0  0
 34 31  1  0  0  0  0
 35 34  1  0  0  0  0
M  END
>  <minimizedAffinity>
-5.53963757

$$$$
