
     RDKit          3D

 45 48  0  0  0  0  0  0  0  0999 V2000
   38.4964   31.1400   45.9682 C   0  0  0  0  0  0  0  0  0  0  0  0
   39.8110   31.1966   46.3118 C   0  0  0  0  0  0  0  0  0  0  0  0
   40.4777   31.5201   45.1221 C   0  0  0  0  0  0  0  0  0  0  0  0
   39.5806   31.6441   44.1350 N   0  0  0  0  0  0  0  0  0  0  0  0
   38.3547   31.4117   44.6457 N   0  0  0  0  0  0  0  0  0  0  0  0
   36.4370   30.6281   49.0639 C   0  0  0  0  0  0  0  0  0  0  0  0
   37.5128   30.9306   48.2414 C   0  0  0  0  0  0  0  0  0  0  0  0
   37.4020   30.8354   46.8737 C   0  0  0  0  0  0  0  0  0  0  0  0
   36.2141   30.4393   46.3737 N   0  0  0  0  0  0  0  0  0  0  0  0
   35.1632   30.1446   47.1930 C   0  0  0  0  0  0  0  0  0  0  0  0
   35.2581   30.2324   48.5069 N   0  0  0  0  0  0  0  0  0  0  0  0
   36.7107   30.7738   50.4144 O   0  0  0  0  0  0  0  0  0  0  0  0
   36.7950   29.6871   51.3184 C   0  0  0  0  0  0  0  0  0  0  0  0
   35.5423   29.1952   51.6257 F   0  0  0  0  0  0  0  0  0  0  0  0
   37.4539   30.1044   52.4447 F   0  0  0  0  0  0  0  0  0  0  0  0
   37.5512   28.6907   50.7298 F   0  0  0  0  0  0  0  0  0  0  0  0
   39.9136   30.7024   41.8992 C   0  0  2  0  0  0  0  0  0  0  0  0
   39.9192   31.9710   42.7786 C   0  0  1  0  0  0  0  0  0  0  0  0
   38.8660   32.7596   42.0700 C   0  0  0  0  0  0  0  0  0  0  0  0
   38.9887   32.4932   40.7280 O   0  0  0  0  0  0  0  0  0  0  0  0
   39.8149   31.4274   40.5420 C   0  0  0  0  0  0  0  0  0  0  0  0
   38.7318   30.0694   42.1566 O   0  0  0  0  0  0  0  0  0  0  0  0
   40.2909   31.0335   47.2875 H   0  0  0  0  0  0  0  0  0  0  0  0
   41.5698   31.6359   45.0893 H   0  0  0  0  0  0  0  0  0  0  0  0
   38.4809   31.2517   48.6124 H   0  0  0  0  0  0  0  0  0  0  0  0
   34.1987   29.8236   46.7998 H   0  0  0  0  0  0  0  0  0  0  0  0
   40.8467   30.1559   41.9894 H   0  0  0  0  0  0  0  0  0  0  0  0
   40.8841   32.4912   42.7322 H   0  0  0  0  0  0  0  0  0  0  0  0
   38.8401   33.8329   42.3140 H   0  0  0  0  0  0  0  0  0  0  0  0
   37.8539   32.3689   42.3830 H   0  0  0  0  0  0  0  0  0  0  0  0
   40.8430   31.8207   40.3636 H   0  0  0  0  0  0  0  0  0  0  0  0
   39.5043   30.7388   39.7395 H   0  0  0  0  0  0  0  0  0  0  0  0
   36.3884   28.5451   41.5657 O   0  0  0  0  0  0  0  0  0  0  0  0
   37.3778   27.9487   42.3204 C   0  0  0  0  0  0  0  0  0  0  0  0
   38.4525   28.7860   42.5351 C   0  0  0  0  0  0  0  0  0  0  0  0
   39.5148   28.2740   43.2932 C   0  0  0  0  0  0  0  0  0  0  0  0
   40.4472   28.7889   43.5656 H   0  0  0  0  0  0  0  0  0  0  0  0
   39.4855   26.9778   43.8063 C   0  0  0  0  0  0  0  0  0  0  0  0
   38.3985   26.1601   43.5772 C   0  0  0  0  0  0  0  0  0  0  0  0
   37.3689   26.6703   42.8368 C   0  0  0  0  0  0  0  0  0  0  0  0
   36.1821   25.9920   42.4995 O   0  0  0  0  0  0  0  0  0  0  0  0
   35.3973   28.3464   41.6498 H   0  0  0  0  0  0  0  0  0  0  0  0
   40.2835   26.5467   44.3946 H   0  0  0  0  0  0  0  0  0  0  0  0
   38.2846   25.1440   43.9323 H   0  0  0  0  0  0  0  0  0  0  0  0
   36.1465   24.9698   42.4312 H   0  0  0  0  0  0  0  0  0  0  0  0
  1  2  1  0
  1  8  1  0
  3  2  2  0
  4  5  1  0
  4  3  1  0
  5  1  2  0
  6 12  1  0
  7  6  2  0
  8  7  1  0
  9  8  2  0
  9 10  1  0
 10 11  2  0
 11  6  1  0
 12 13  1  0
 13 14  1  0
 13 15  1  0
 16 13  1  0
 17 22  1  0
 17 18  1  0
 18  4  1  0
 19 18  1  0
 20 19  1  0
 21 20  1  0
 21 17  1  0
  2 23  1  0
  3 24  1  0
  7 25  1  0
 10 26  1  0
 17 27  1  6
 18 28  1  1
 19 29  1  0
 19 30  1  0
 21 31  1  0
 21 32  1  0
 33 34  1  0
 34 35  2  0
 35 36  1  0
 36 37  1  0
 36 38  2  0
 38 39  1  0
 39 40  2  0
 40 41  1  0
 40 34  1  0
 33 42  1  0
 38 43  1  0
 39 44  1  0
 41 45  1  0
 22 35  1  0
M  ISO  8  23  14  24  14  25  14  26  14  27  13  28  13  29  13  30  13
M  ISO  3  31  13  32  13  37  16
M  END
>  <DihAtoms>  (1) 
16,21,34,33

>  <DihDeg>  (1) 
-0.0021447765254892876

$$$$
