
 OpenBabel03272503423D

 43 46  0  0  1  0  0  0  0  0999 V2000
   39.9010   30.7130   41.8790 C   0  0  2  0  0  0  0  0  0  0  0  0
   39.9160   31.9660   42.7820 C   0  0  1  0  0  0  0  0  0  0  0  0
   38.8600   32.7700   42.0960 C   0  0  0  0  0  0  0  0  0  0  0  0
   38.9720   32.5280   40.7480 O   0  0  0  0  0  0  0  0  0  0  0  0
   39.7940   31.4640   40.5360 C   0  0  0  0  0  0  0  0  0  0  0  0
   40.8340   30.1630   41.9520 H   0  0  0  0  0  0  0  0  0  0  0  0
   40.8820   32.4840   42.7380 H   0  0  0  0  0  0  0  0  0  0  0  0
   38.8380   33.8390   42.3600 H   0  0  0  0  0  0  0  0  0  0  0  0
   37.8490   32.3760   42.4090 H   0  0  0  0  0  0  0  0  0  0  0  0
   40.8220   31.8590   40.3580 H   0  0  0  0  0  0  0  0  0  0  0  0
   39.4760   30.7920   39.7230 H   0  0  0  0  0  0  0  0  0  0  0  0
   38.5120   31.1110   45.9730 C   0  0  0  0  0  0  0  0  0  0  0  0
   39.8340   31.0860   46.2910 C   0  0  0  0  0  0  0  0  0  0  0  0
   40.4950   31.4110   45.0980 C   0  0  0  0  0  0  0  0  0  0  0  0
   39.5870   31.6140   44.1340 N   0  0  0  0  0  0  0  0  0  0  0  0
   38.3600   31.4320   44.6630 N   0  0  0  0  0  0  0  0  0  0  0  0
   40.3230   30.8660   47.2510 H   0  0  0  0  0  0  0  0  0  0  0  0
   41.5910   31.4690   45.0460 H   0  0  0  0  0  0  0  0  0  0  0  0
   36.4770   30.6520   49.0930 C   0  0  0  0  0  0  0  0  0  0  0  0
   37.5510   30.9250   48.2580 C   0  0  0  0  0  0  0  0  0  0  0  0
   37.4200   30.8360   46.8920 C   0  0  0  0  0  0  0  0  0  0  0  0
   36.2150   30.4770   46.4060 N   0  0  0  0  0  0  0  0  0  0  0  0
   35.1660   30.2120   47.2370 C   0  0  0  0  0  0  0  0  0  0  0  0
   35.2800   30.2930   48.5500 N   0  0  0  0  0  0  0  0  0  0  0  0
   38.5330   31.2160   48.6170 H   0  0  0  0  0  0  0  0  0  0  0  0
   34.1880   29.9210   46.8560 H   0  0  0  0  0  0  0  0  0  0  0  0
   36.7720   30.7860   50.4400 O   0  0  0  0  0  0  0  0  0  0  0  0
   36.8320   29.6940   51.3410 C   0  0  0  0  0  0  0  0  0  0  0  0
   35.5690   29.2190   51.6340 F   0  0  0  0  0  0  0  0  0  0  0  0
   37.4850   30.0980   52.4760 F   0  0  0  0  0  0  0  0  0  0  0  0
   37.5800   28.6900   50.7570 F   0  0  0  0  0  0  0  0  0  0  0  0
   38.7200   30.0780   42.1330 O   0  0  0  0  0  0  0  0  0  0  0  0
   39.2030   27.6550   42.6310 C   0  0  0  0  0  0  0  0  0  0  0  0
   38.4280   28.7650   42.3710 C   0  0  0  0  0  0  0  0  0  0  0  0
   37.0390   28.5740   42.3290 C   0  0  0  0  0  0  0  0  0  0  0  0
   36.2680   29.3330   42.1380 H   0  0  0  0  0  0  0  0  0  0  0  0
   36.4700   27.3180   42.5410 C   0  0  0  0  0  3  0  0  0  0  0  0
   37.2680   26.2240   42.7980 C   0  0  0  0  0  3  0  0  0  0  0  0
   38.6200   26.4220   42.8360 C   0  0  0  0  0  0  0  0  0  0  0  0
   40.5510   27.9470   42.6500 O   0  0  0  0  0  0  0  0  0  0  0  0
   41.2880   27.3050   42.3770 H   0  0  0  0  0  0  0  0  0  0  0  0
   39.5910   25.4330   43.0830 O   0  0  0  0  0  0  0  0  0  0  0  0
   39.3780   24.5940   43.6310 H   0  0  0  0  0  0  0  0  0  0  0  0
  1  6  1  1  0  0  0
  1 32  1  0  0  0  0
  1  2  1  0  0  0  0
  2  7  1  6  0  0  0
  2 15  1  0  0  0  0
  3  8  1  0  0  0  0
  3  9  1  0  0  0  0
  3  2  1  0  0  0  0
  4  3  1  0  0  0  0
  5  4  1  0  0  0  0
  5  1  1  0  0  0  0
 10  5  1  0  0  0  0
 11  5  1  0  0  0  0
 12 13  1  0  0  0  0
 12 21  1  0  0  0  0
 13 17  1  0  0  0  0
 14 13  2  0  0  0  0
 15 16  1  0  0  0  0
 15 14  1  0  0  0  0
 16 12  2  0  0  0  0
 18 14  1  0  0  0  0
 19 27  1  0  0  0  0
 20 25  1  0  0  0  0
 20 19  2  0  0  0  0
 21 20  1  0  0  0  0
 22 21  2  0  0  0  0
 22 23  1  0  0  0  0
 23 24  2  0  0  0  0
 24 19  1  0  0  0  0
 26 23  1  0  0  0  0
 27 28  1  0  0  0  0
 28 29  1  0  0  0  0
 28 30  1  0  0  0  0
 31 28  1  0  0  0  0
 32 34  1  0  0  0  0
 33 40  1  0  0  0  0
 33 39  1  0  0  0  0
 34 33  2  0  0  0  0
 35 34  1  0  0  0  0
 35 37  2  0  0  0  0
 36 35  1  0  0  0  0
 37 38  1  0  0  0  0
 38 39  2  0  0  0  0
 39 42  1  0  0  0  0
 41 40  1  0  0  0  0
 42 43  1  0  0  0  0
M  END
>  <minimizedAffinity>
-6.90647984

>  <minimizedRMSD>
0.431379735

$$$$
