REMARK  Name = 
REMARK  11 active torsions:
REMARK  status: ('A' for Active; 'I' for Inactive)
REMARK    1  A    between atoms: P_2  and  O_3
REMARK    2  A    between atoms: P_2  and  O_4
REMARK    3  A    between atoms: P_2  and  O_14
REMARK    4  A    between atoms: O_4  and  C_5
REMARK    5  A    between atoms: C_5  and  C_7
REMARK    6  A    between atoms: C_6  and  C_12
REMARK    7  A    between atoms: O_14  and  C_16
REMARK    8  A    between atoms: C_15  and  S_21
REMARK    9  A    between atoms: S_21  and  C_38
REMARK   10  A    between atoms: O_36  and  C_37
REMARK   11  A    between atoms: C_43  and  O_44
REMARK                            x       y       z     vdW  Elec       q    Type
REMARK                         _______ _______ _______ _____ _____    ______ ____
ROOT
ATOM      1  C   UNL     1      27.184  28.413  49.357  0.00  0.00    +0.000 A 
ATOM      2  C   UNL     1      28.538  28.060  49.423  0.00  0.00    +0.000 A 
ATOM      3  C   UNL     1      29.059  27.407  50.526  0.00  0.00    +0.000 A 
ATOM      4  C   UNL     1      28.250  27.090  51.588  0.00  0.00    +0.000 A 
ATOM      5  C   UNL     1      26.924  27.435  51.527  0.00  0.00    +0.000 A 
ATOM      6  C   UNL     1      26.367  28.087  50.447  0.00  0.00    +0.000 A 
ATOM      7  H   UNL     1      30.115  27.188  50.461  0.00  0.00    +0.000 HD
ATOM      8  H   UNL     1      28.804  26.583  52.367  0.00  0.00    +0.000 HD
ATOM      9  H   UNL     1      26.445  27.100  52.462  0.00  0.00    +0.000 HD
ATOM     10  H   UNL     1      25.371  28.230  50.714  0.00  0.00    +0.000 HD
ENDROOT
BRANCH   1  11
ATOM     11  S   UNL     1      26.451  29.239  48.043  0.00  0.00    +0.000 S 
ATOM     12  O   UNL     1      27.182  30.518  47.726  0.00  0.00    +0.000 OA
ATOM     13  O   UNL     1      26.535  28.302  46.791  0.00  0.00    +0.000 OA
BRANCH  11  15
ATOM     14  C   UNL     1      24.452  29.979  49.430  0.00  0.00    +0.000 A 
ATOM     15  C   UNL     1      24.757  29.494  48.135  0.00  0.00    +0.000 A 
ATOM     16  C   UNL     1      23.642  29.435  47.378  0.00  0.00    +0.000 A 
ATOM     17  H   UNL     1      23.799  29.130  46.373  0.00  0.00    +0.000 HD
ATOM     18  C   UNL     1      22.364  29.764  47.711  0.00  0.00    +0.000 A 
ATOM     19  C   UNL     1      22.145  30.224  48.980  0.00  0.00    +0.000 A 
ATOM     20  C   UNL     1      23.194  30.338  49.861  0.00  0.00    +0.000 A 
BRANCH  14  21
ATOM     21  O   UNL     1      25.359  30.180  50.498  0.00  0.00    +0.000 OA
ATOM     22  H   UNL     1      25.448  29.373  51.130  0.00  0.00    +0.000 HD
ENDBRANCH  14  21
BRANCH  20  23
ATOM     23  O   UNL     1      22.823  30.818  51.108  0.00  0.00    +0.000 OA
ATOM     24  H   UNL     1      22.207  30.276  51.718  0.00  0.00    +0.000 HD
ENDBRANCH  20  23
ENDBRANCH  11  15
ENDBRANCH   1  11
BRANCH   2  25
ATOM     25  O   UNL     1      29.235  28.430  48.308  0.00  0.00    +0.000 OA
BRANCH  25  27
ATOM     26  O   UNL     1      30.368  26.201  47.450  0.00  0.00    +0.000 OA
ATOM     27  P   UNL     1      30.613  27.699  47.670  0.00  0.00    +0.000 P 
BRANCH  27  28
ATOM     28  O   UNL     1      31.080  28.460  46.229  0.00  0.00    +0.000 OA
ATOM     29  H   UNL     1      30.727  27.868  45.492  0.00  0.00    +0.000 HD
ENDBRANCH  27  28
BRANCH  27  30
ATOM     30  O   UNL     1      31.924  27.761  48.746  0.00  0.00    +0.000 OA
BRANCH  30  31
ATOM     31  C   UNL     1      33.076  27.327  48.072  0.00  0.00    +0.000 C 
ATOM     32  H   UNL     1      32.883  27.404  46.998  0.00  0.00    +0.000 HD
ATOM     33  H   UNL     1      33.204  26.228  48.271  0.00  0.00    +0.000 HD
BRANCH  31  35
ATOM     34  C   UNL     1      34.550  28.438  49.717  0.00  0.00    +0.000 C 
ATOM     35  C   UNL     1      34.271  28.097  48.486  0.00  0.00    +0.000 C 
BRANCH  34  40
ATOM     36  C   UNL     1      37.322  30.184  51.352  0.00  0.00    +0.000 A 
ATOM     37  C   UNL     1      38.082  30.625  50.262  0.00  0.00    +0.000 A 
ATOM     38  C   UNL     1      37.619  30.309  48.969  0.00  0.00    +0.000 A 
ATOM     39  N   UNL     1      36.459  29.595  48.906  0.00  0.00    +0.000 NA
ATOM     40  C   UNL     1      35.772  29.198  49.959  0.00  0.00    +0.000 A 
ATOM     41  N   UNL     1      36.203  29.492  51.182  0.00  0.00    +0.000 NA
ATOM     42  H   UNL     1      37.758  30.475  52.303  0.00  0.00    +0.000 HD
ATOM     43  H   UNL     1      39.003  31.192  50.282  0.00  0.00    +0.000 HD
ATOM     44  H   UNL     1      38.125  30.599  48.058  0.00  0.00    +0.000 HD
ENDBRANCH  34  40
ENDBRANCH  31  35
ENDBRANCH  30  31
ENDBRANCH  27  30
ENDBRANCH  25  27
ENDBRANCH   2  25
TORSDOF 11
