
 OpenBabel03272503423D

 43 46  0  0  1  0  0  0  0  0999 V2000
   39.9040   30.7120   41.8840 C   0  0  2  0  0  0  0  0  0  0  0  0
   39.9170   31.9650   42.7860 C   0  0  1  0  0  0  0  0  0  0  0  0
   38.8620   32.7690   42.0970 C   0  0  0  0  0  0  0  0  0  0  0  0
   38.9760   32.5250   40.7500 O   0  0  0  0  0  0  0  0  0  0  0  0
   39.7980   31.4600   40.5400 C   0  0  0  0  0  0  0  0  0  0  0  0
   40.8360   30.1620   41.9590 H   0  0  0  0  0  0  0  0  0  0  0  0
   40.8840   32.4840   42.7410 H   0  0  0  0  0  0  0  0  0  0  0  0
   38.8400   33.8380   42.3590 H   0  0  0  0  0  0  0  0  0  0  0  0
   37.8510   32.3750   42.4100 H   0  0  0  0  0  0  0  0  0  0  0  0
   40.8260   31.8540   40.3630 H   0  0  0  0  0  0  0  0  0  0  0  0
   39.4800   30.7860   39.7280 H   0  0  0  0  0  0  0  0  0  0  0  0
   38.5100   31.1140   45.9760 C   0  0  0  0  0  0  0  0  0  0  0  0
   39.8320   31.0950   46.2970 C   0  0  0  0  0  0  0  0  0  0  0  0
   40.4940   31.4190   45.1040 C   0  0  0  0  0  0  0  0  0  0  0  0
   39.5870   31.6160   44.1380 N   0  0  0  0  0  0  0  0  0  0  0  0
   38.3600   31.4310   44.6650 N   0  0  0  0  0  0  0  0  0  0  0  0
   40.3200   30.8790   47.2580 H   0  0  0  0  0  0  0  0  0  0  0  0
   41.5900   31.4810   45.0540 H   0  0  0  0  0  0  0  0  0  0  0  0
   36.4720   30.6510   49.0940 C   0  0  0  0  0  0  0  0  0  0  0  0
   37.5470   30.9260   48.2600 C   0  0  0  0  0  0  0  0  0  0  0  0
   37.4180   30.8370   46.8940 C   0  0  0  0  0  0  0  0  0  0  0  0
   36.2140   30.4770   46.4060 N   0  0  0  0  0  0  0  0  0  0  0  0
   35.1640   30.2110   47.2360 C   0  0  0  0  0  0  0  0  0  0  0  0
   35.2760   30.2910   48.5490 N   0  0  0  0  0  0  0  0  0  0  0  0
   38.5280   31.2180   48.6200 H   0  0  0  0  0  0  0  0  0  0  0  0
   34.1870   29.9180   46.8530 H   0  0  0  0  0  0  0  0  0  0  0  0
   36.7660   30.7860   50.4410 O   0  0  0  0  0  0  0  0  0  0  0  0
   36.8280   29.6940   51.3410 C   0  0  0  0  0  0  0  0  0  0  0  0
   35.5670   29.2170   51.6370 F   0  0  0  0  0  0  0  0  0  0  0  0
   37.4840   30.0980   52.4750 F   0  0  0  0  0  0  0  0  0  0  0  0
   37.5760   28.6910   50.7550 F   0  0  0  0  0  0  0  0  0  0  0  0
   38.7220   30.0770   42.1390 O   0  0  0  0  0  0  0  0  0  0  0  0
   39.2040   27.6530   42.6320 C   0  0  0  0  0  0  0  0  0  0  0  0
   38.4290   28.7640   42.3740 C   0  0  0  0  0  0  0  0  0  0  0  0
   37.0400   28.5740   42.3340 C   0  0  0  0  0  0  0  0  0  0  0  0
   36.2690   29.3340   42.1440 H   0  0  0  0  0  0  0  0  0  0  0  0
   36.4700   27.3180   42.5430 C   0  0  0  0  0  3  0  0  0  0  0  0
   37.2680   26.2230   42.7980 C   0  0  0  0  0  3  0  0  0  0  0  0
   38.6200   26.4200   42.8360 C   0  0  0  0  0  0  0  0  0  0  0  0
   40.5530   27.9450   42.6500 O   0  0  0  0  0  0  0  0  0  0  0  0
   41.2870   27.3020   42.3760 H   0  0  0  0  0  0  0  0  0  0  0  0
   39.5900   25.4300   43.0800 O   0  0  0  0  0  0  0  0  0  0  0  0
   39.3780   24.5900   43.6260 H   0  0  0  0  0  0  0  0  0  0  0  0
  1  6  1  1  0  0  0
  1 32  1  0  0  0  0
  1  2  1  0  0  0  0
  2  7  1  6  0  0  0
  2 15  1  0  0  0  0
  3  8  1  0  0  0  0
  3  9  1  0  0  0  0
  3  2  1  0  0  0  0
  4  3  1  0  0  0  0
  5  4  1  0  0  0  0
  5  1  1  0  0  0  0
 10  5  1  0  0  0  0
 11  5  1  0  0  0  0
 12 13  1  0  0  0  0
 12 21  1  0  0  0  0
 13 17  1  0  0  0  0
 14 13  2  0  0  0  0
 15 16  1  0  0  0  0
 15 14  1  0  0  0  0
 16 12  2  0  0  0  0
 18 14  1  0  0  0  0
 19 27  1  0  0  0  0
 20 25  1  0  0  0  0
 20 19  2  0  0  0  0
 21 20  1  0  0  0  0
 22 21  2  0  0  0  0
 22 23  1  0  0  0  0
 23 24  2  0  0  0  0
 24 19  1  0  0  0  0
 26 23  1  0  0  0  0
 27 28  1  0  0  0  0
 28 29  1  0  0  0  0
 28 30  1  0  0  0  0
 31 28  1  0  0  0  0
 32 34  1  0  0  0  0
 33 40  1  0  0  0  0
 33 39  1  0  0  0  0
 34 33  2  0  0  0  0
 35 34  1  0  0  0  0
 35 37  2  0  0  0  0
 36 35  1  0  0  0  0
 37 38  1  0  0  0  0
 38 39  2  0  0  0  0
 39 42  1  0  0  0  0
 41 40  1  0  0  0  0
 42 43  1  0  0  0  0
M  END
>  <minimizedAffinity>
-6.90840864

>  <minimizedRMSD>
0.233727932

$$$$
