
 OpenBabel03272503413D

 43 46  0  0  1  0  0  0  0  0999 V2000
   39.9330   31.1750   41.7430 C   0  0  2  0  0  0  0  0  0  0  0  0
   39.5820   32.3300   42.7060 C   0  0  1  0  0  0  0  0  0  0  0  0
   38.3640   32.8560   42.0170 C   0  0  0  0  0  0  0  0  0  0  0  0
   38.5720   32.7310   40.6650 O   0  0  0  0  0  0  0  0  0  0  0  0
   39.6590   31.9440   40.4350 C   0  0  0  0  0  0  0  0  0  0  0  0
   40.9780   30.8960   41.8260 H   0  0  0  0  0  0  0  0  0  0  0  0
   40.3700   33.0930   42.7250 H   0  0  0  0  0  0  0  0  0  0  0  0
   38.0440   33.8610   42.3320 H   0  0  0  0  0  0  0  0  0  0  0  0
   37.4920   32.1850   42.2700 H   0  0  0  0  0  0  0  0  0  0  0  0
   40.5440   32.6130   40.3170 H   0  0  0  0  0  0  0  0  0  0  0  0
   39.5570   31.2590   39.5780 H   0  0  0  0  0  0  0  0  0  0  0  0
   38.3550   31.1560   45.8680 C   0  0  0  0  0  0  0  0  0  0  0  0
   39.6920   30.9990   46.0690 C   0  0  0  0  0  0  0  0  0  0  0  0
   40.2850   31.4340   44.8750 C   0  0  0  0  0  0  0  0  0  0  0  0
   39.3270   31.8250   44.0250 N   0  0  0  0  0  0  0  0  0  0  0  0
   38.1330   31.6590   44.6270 N   0  0  0  0  0  0  0  0  0  0  0  0
   40.2320   30.6210   46.9490 H   0  0  0  0  0  0  0  0  0  0  0  0
   41.3750   31.4240   44.7390 H   0  0  0  0  0  0  0  0  0  0  0  0
   36.4770   30.6160   49.0730 C   0  0  0  0  0  0  0  0  0  0  0  0
   37.5020   30.9320   48.1920 C   0  0  0  0  0  0  0  0  0  0  0  0
   37.3170   30.8370   46.8330 C   0  0  0  0  0  0  0  0  0  0  0  0
   36.1070   30.4280   46.3990 N   0  0  0  0  0  0  0  0  0  0  0  0
   35.1070   30.1210   47.2740 C   0  0  0  0  0  0  0  0  0  0  0  0
   35.2740   30.2070   48.5810 N   0  0  0  0  0  0  0  0  0  0  0  0
   38.4860   31.2640   48.5090 H   0  0  0  0  0  0  0  0  0  0  0  0
   34.1260   29.7890   46.9350 H   0  0  0  0  0  0  0  0  0  0  0  0
   36.8240   30.7620   50.4060 O   0  0  0  0  0  0  0  0  0  0  0  0
   36.8810   29.6850   51.3230 C   0  0  0  0  0  0  0  0  0  0  0  0
   35.6160   29.2340   51.6440 F   0  0  0  0  0  0  0  0  0  0  0  0
   37.5590   30.0970   52.4410 F   0  0  0  0  0  0  0  0  0  0  0  0
   37.6050   28.6600   50.7440 F   0  0  0  0  0  0  0  0  0  0  0  0
   38.9640   30.2300   41.9190 O   0  0  0  0  0  0  0  0  0  0  0  0
   38.9130   28.0020   40.7380 C   0  0  0  0  0  0  0  0  0  0  0  0
   38.9930   28.8680   41.8090 C   0  0  0  0  0  0  0  0  0  0  0  0
   39.1340   28.2940   43.0810 C   0  0  0  0  0  0  0  0  0  0  0  0
   39.2140   28.8190   44.0440 H   0  0  0  0  0  0  0  0  0  0  0  0
   39.1920   26.9120   43.2540 C   0  0  0  0  0  3  0  0  0  0  0  0
   39.1100   26.0670   42.1670 C   0  0  0  0  0  3  0  0  0  0  0  0
   38.9720   26.6380   40.9320 C   0  0  0  0  0  0  0  0  0  0  0  0
   38.7760   28.6640   39.5360 O   0  0  0  0  0  0  0  0  0  0  0  0
   38.2750   28.3040   38.7310 H   0  0  0  0  0  0  0  0  0  0  0  0
   38.8730   25.9450   39.7110 O   0  0  0  0  0  0  0  0  0  0  0  0
   39.2790   25.0120   39.5860 H   0  0  0  0  0  0  0  0  0  0  0  0
  1  6  1  1  0  0  0
  1 32  1  0  0  0  0
  1  2  1  0  0  0  0
  2  7  1  1  0  0  0
  2 15  1  0  0  0  0
  3  9  1  0  0  0  0
  3  8  1  0  0  0  0
  3  2  1  0  0  0  0
  4  3  1  0  0  0  0
  5  4  1  0  0  0  0
  5  1  1  0  0  0  0
 10  5  1  0  0  0  0
 11  5  1  0  0  0  0
 12 13  1  0  0  0  0
 12 21  1  0  0  0  0
 13 17  1  0  0  0  0
 14 13  2  0  0  0  0
 15 16  1  0  0  0  0
 15 14  1  0  0  0  0
 16 12  2  0  0  0  0
 18 14  1  0  0  0  0
 19 27  1  0  0  0  0
 20 25  1  0  0  0  0
 20 19  2  0  0  0  0
 21 20  1  0  0  0  0
 22 21  2  0  0  0  0
 22 23  1  0  0  0  0
 23 24  2  0  0  0  0
 24 19  1  0  0  0  0
 26 23  1  0  0  0  0
 27 28  1  0  0  0  0
 28 29  1  0  0  0  0
 28 30  1  0  0  0  0
 31 28  1  0  0  0  0
 33 39  2  0  0  0  0
 33 34  1  0  0  0  0
 34 32  1  0  0  0  0
 34 35  2  0  0  0  0
 35 37  1  0  0  0  0
 35 36  1  0  0  0  0
 38 37  2  0  0  0  0
 39 38  1  0  0  0  0
 40 33  1  0  0  0  0
 41 40  1  0  0  0  0
 42 39  1  0  0  0  0
 43 42  1  0  0  0  0
M  END
>  <minimizedAffinity>
-6.30315924

>  <minimizedRMSD>
0.923561692

$$$$
