
     RDKit          3D

 48 50  0  0  0  0  0  0  0  0999 V2000
   30.3676   26.2015   47.4496 O   0  0  0  0  0  0  0  0  0  0  0  0
   30.6134   27.6989   47.6702 P   0  0  2  0  0  0  0  0  0  0  0  0
   31.0799   28.4598   46.2288 O   0  0  0  0  0  0  0  0  0  0  0  0
   31.9239   27.7606   48.7462 O   0  0  0  0  0  0  0  0  0  0  0  0
   33.0764   27.3272   48.0719 C   0  0  0  0  0  0  0  0  0  0  0  0
   34.5502   28.4375   49.7171 C   0  0  0  0  0  0  0  0  0  0  0  0
   34.2712   28.0968   48.4863 C   0  0  0  0  0  0  0  0  0  0  0  0
   37.3220   30.1844   51.3517 C   0  0  0  0  0  0  0  0  0  0  0  0
   38.0816   30.6249   50.2623 C   0  0  0  0  0  0  0  0  0  0  0  0
   37.6186   30.3093   48.9695 C   0  0  0  0  0  0  0  0  0  0  0  0
   36.4591   29.5952   48.9058 N   0  0  0  0  0  0  0  0  0  0  0  0
   35.7723   29.1984   49.9589 C   0  0  0  0  0  0  0  0  0  0  0  0
   36.2028   29.4925   51.1816 N   0  0  0  0  0  0  0  0  0  0  0  0
   29.2350   28.4303   48.3082 O   0  0  0  0  0  0  0  0  0  0  0  0
   27.1844   28.4134   49.3572 C   0  0  0  0  0  0  0  0  0  0  0  0
   28.5380   28.0602   49.4235 C   0  0  0  0  0  0  0  0  0  0  0  0
   29.0589   27.4070   50.5264 C   0  0  0  0  0  0  0  0  0  0  0  0
   28.2502   27.0895   51.5879 C   0  0  0  0  0  0  0  0  0  0  0  0
   26.9245   27.4347   51.5272 C   0  0  0  0  0  0  0  0  0  0  0  0
   26.3673   28.0865   50.4471 C   0  0  0  0  0  0  0  0  0  0  0  0
   26.4510   29.2395   48.0431 S   0  0  0  0  0  0  0  0  0  0  0  0
   27.1824   30.5184   47.7261 O   0  0  0  0  0  0  0  0  0  0  0  0
   26.5351   28.3016   46.7906 O   0  0  0  0  0  0  0  0  0  0  0  0
   30.7271   27.8678   45.4925 H   0  0  0  0  0  0  0  0  0  0  0  0
   32.8832   27.4043   46.9982 H   0  0  0  0  0  0  0  0  0  0  0  0
   33.2044   26.2281   48.2707 H   0  0  0  0  0  0  0  0  0  0  0  0
   33.8765   28.1497   50.5127 H   0  0  0  0  0  0  0  0  0  0  0  0
   34.9382   28.3735   47.6514 H   0  0  0  0  0  0  0  0  0  0  0  0
   37.7579   30.4752   52.3029 H   0  0  0  0  0  0  0  0  0  0  0  0
   39.0032   31.1916   50.2820 H   0  0  0  0  0  0  0  0  0  0  0  0
   38.1249   30.5985   48.0582 H   0  0  0  0  0  0  0  0  0  0  0  0
   30.1153   27.1879   50.4609 H   0  0  0  0  0  0  0  0  0  0  0  0
   28.8044   26.5827   52.3671 H   0  0  0  0  0  0  0  0  0  0  0  0
   26.4453   27.0999   52.4617 H   0  0  0  0  0  0  0  0  0  0  0  0
   25.3709   28.2302   50.7144 H   0  0  0  0  0  0  0  0  0  0  0  0
   25.3587   30.1801   50.4985 O   0  0  0  0  0  0  0  0  0  0  0  0
   24.4520   29.9787   49.4297 C   0  0  0  0  0  0  0  0  0  0  0  0
   24.7568   29.4941   48.1350 C   0  0  0  0  0  0  0  0  0  0  0  0
   23.6419   29.4346   47.3777 C   0  0  0  0  0  0  0  0  0  0  0  0
   23.7994   29.1302   46.3727 H   0  0  0  0  0  0  0  0  0  0  0  0
   22.3642   29.7638   47.7109 C   0  0  0  0  0  0  0  0  0  0  0  0
   22.1450   30.2239   48.9798 C   0  0  0  0  0  0  0  0  0  0  0  0
   23.1941   30.3384   49.8614 C   0  0  0  0  0  0  0  0  0  0  0  0
   22.8233   30.8184   51.1084 O   0  0  0  0  0  0  0  0  0  0  0  0
   25.4476   29.3726   51.1305 H   0  0  0  0  0  0  0  0  0  0  0  0
   21.5838   29.6546   46.9822 H   0  0  0  0  0  0  0  0  0  0  0  0
   21.1258   30.4795   49.2265 H   0  0  0  0  0  0  0  0  0  0  0  0
   22.2071   30.2760   51.7177 H   0  0  0  0  0  0  0  0  0  0  0  0
  2  1  2  0
  2 14  1  1
  2  4  1  0
  3  2  1  0
  5  7  1  0
  5  4  1  0
  6 12  1  0
  7  6  2  0
  9  8  2  0
 10  9  1  0
 11 10  2  0
 11 12  1  0
 12 13  2  0
 13  8  1  0
 14 16  1  0
 15 16  1  0
 15 20  2  0
 16 17  2  0
 17 18  1  0
 19 18  2  0
 20 19  1  0
 21 15  1  0
 22 21  2  0
 23 21  2  0
  3 24  1  0
  5 25  1  0
  5 26  1  0
  6 27  1  0
  7 28  1  0
  8 29  1  0
  9 30  1  0
 10 31  1  0
 17 32  1  0
 18 33  1  0
 19 34  1  0
 20 35  1  0
 36 37  1  0
 37 38  2  0
 38 39  1  0
 39 40  1  0
 39 41  2  0
 41 42  1  0
 42 43  2  0
 43 44  1  0
 43 37  1  0
 36 45  1  0
 41 46  1  0
 42 47  1  0
 44 48  1  0
 21 38  1  0
M  ISO  8  24   3  25   8  26   8  29  14  30  14  31  14  32  14  33  14
M  ISO  3  34  14  35  14  40  16
M  END
>  <DihAtoms>  (1) 
14,20,37,36

>  <DihDeg>  (1) 
166.3645419927995

$$$$
