
 OpenBabel03272503413D

 43 46  0  0  1  0  0  0  0  0999 V2000
   39.9330   31.1760   41.7420 C   0  0  2  0  0  0  0  0  0  0  0  0
   39.5820   32.3310   42.7050 C   0  0  1  0  0  0  0  0  0  0  0  0
   38.3640   32.8570   42.0160 C   0  0  0  0  0  0  0  0  0  0  0  0
   38.5720   32.7320   40.6640 O   0  0  0  0  0  0  0  0  0  0  0  0
   39.6590   31.9450   40.4340 C   0  0  0  0  0  0  0  0  0  0  0  0
   40.9780   30.8970   41.8250 H   0  0  0  0  0  0  0  0  0  0  0  0
   40.3700   33.0940   42.7240 H   0  0  0  0  0  0  0  0  0  0  0  0
   38.0450   33.8620   42.3310 H   0  0  0  0  0  0  0  0  0  0  0  0
   37.4920   32.1850   42.2690 H   0  0  0  0  0  0  0  0  0  0  0  0
   40.5440   32.6140   40.3160 H   0  0  0  0  0  0  0  0  0  0  0  0
   39.5570   31.2600   39.5770 H   0  0  0  0  0  0  0  0  0  0  0  0
   38.3560   31.1580   45.8680 C   0  0  0  0  0  0  0  0  0  0  0  0
   39.6920   31.0010   46.0680 C   0  0  0  0  0  0  0  0  0  0  0  0
   40.2860   31.4360   44.8740 C   0  0  0  0  0  0  0  0  0  0  0  0
   39.3280   31.8260   44.0240 N   0  0  0  0  0  0  0  0  0  0  0  0
   38.1330   31.6590   44.6260 N   0  0  0  0  0  0  0  0  0  0  0  0
   40.2330   30.6230   46.9480 H   0  0  0  0  0  0  0  0  0  0  0  0
   41.3760   31.4260   44.7380 H   0  0  0  0  0  0  0  0  0  0  0  0
   36.4790   30.6160   49.0720 C   0  0  0  0  0  0  0  0  0  0  0  0
   37.5040   30.9330   48.1910 C   0  0  0  0  0  0  0  0  0  0  0  0
   37.3180   30.8380   46.8320 C   0  0  0  0  0  0  0  0  0  0  0  0
   36.1080   30.4290   46.3980 N   0  0  0  0  0  0  0  0  0  0  0  0
   35.1080   30.1210   47.2740 C   0  0  0  0  0  0  0  0  0  0  0  0
   35.2750   30.2070   48.5810 N   0  0  0  0  0  0  0  0  0  0  0  0
   38.4870   31.2640   48.5090 H   0  0  0  0  0  0  0  0  0  0  0  0
   34.1270   29.7900   46.9340 H   0  0  0  0  0  0  0  0  0  0  0  0
   36.8260   30.7620   50.4050 O   0  0  0  0  0  0  0  0  0  0  0  0
   36.8840   29.6840   51.3220 C   0  0  0  0  0  0  0  0  0  0  0  0
   35.6200   29.2350   51.6470 F   0  0  0  0  0  0  0  0  0  0  0  0
   37.5660   30.0950   52.4380 F   0  0  0  0  0  0  0  0  0  0  0  0
   37.6040   28.6580   50.7400 F   0  0  0  0  0  0  0  0  0  0  0  0
   38.9640   30.2310   41.9180 O   0  0  0  0  0  0  0  0  0  0  0  0
   38.9140   28.0030   40.7380 C   0  0  0  0  0  0  0  0  0  0  0  0
   38.9940   28.8690   41.8090 C   0  0  0  0  0  0  0  0  0  0  0  0
   39.1350   28.2960   43.0800 C   0  0  0  0  0  0  0  0  0  0  0  0
   39.2130   28.8210   44.0420 H   0  0  0  0  0  0  0  0  0  0  0  0
   39.1920   26.9120   43.2530 C   0  0  0  0  0  3  0  0  0  0  0  0
   39.1100   26.0680   42.1660 C   0  0  0  0  0  3  0  0  0  0  0  0
   38.9730   26.6390   40.9310 C   0  0  0  0  0  0  0  0  0  0  0  0
   38.7770   28.6650   39.5350 O   0  0  0  0  0  0  0  0  0  0  0  0
   38.2750   28.3040   38.7310 H   0  0  0  0  0  0  0  0  0  0  0  0
   38.8740   25.9460   39.7110 O   0  0  0  0  0  0  0  0  0  0  0  0
   39.2810   25.0130   39.5860 H   0  0  0  0  0  0  0  0  0  0  0  0
  1  6  1  1  0  0  0
  1 32  1  0  0  0  0
  1  2  1  0  0  0  0
  2  7  1  1  0  0  0
  2 15  1  0  0  0  0
  3  9  1  0  0  0  0
  3  8  1  0  0  0  0
  3  2  1  0  0  0  0
  4  3  1  0  0  0  0
  5  4  1  0  0  0  0
  5  1  1  0  0  0  0
 10  5  1  0  0  0  0
 11  5  1  0  0  0  0
 12 13  1  0  0  0  0
 12 21  1  0  0  0  0
 13 17  1  0  0  0  0
 14 13  2  0  0  0  0
 15 16  1  0  0  0  0
 15 14  1  0  0  0  0
 16 12  2  0  0  0  0
 18 14  1  0  0  0  0
 19 27  1  0  0  0  0
 20 25  1  0  0  0  0
 20 19  2  0  0  0  0
 21 20  1  0  0  0  0
 22 21  2  0  0  0  0
 22 23  1  0  0  0  0
 23 24  2  0  0  0  0
 24 19  1  0  0  0  0
 26 23  1  0  0  0  0
 27 28  1  0  0  0  0
 28 29  1  0  0  0  0
 28 30  1  0  0  0  0
 31 28  1  0  0  0  0
 33 39  2  0  0  0  0
 33 34  1  0  0  0  0
 34 32  1  0  0  0  0
 34 35  2  0  0  0  0
 35 37  1  0  0  0  0
 35 36  1  0  0  0  0
 38 37  2  0  0  0  0
 39 38  1  0  0  0  0
 40 33  1  0  0  0  0
 41 40  1  0  0  0  0
 42 39  1  0  0  0  0
 43 42  1  0  0  0  0
M  END
>  <minimizedAffinity>
-6.29994822

>  <minimizedRMSD>
0.897941291

$$$$
