
     RDKit          3D

 37 39  0  0  0  0  0  0  0  0999 V2000
   37.9956   31.3950   47.6370 C   0  0  0  0  0  0  0  0  0  0  0  0
   37.0790   31.3256   48.6725 C   0  0  0  0  0  0  0  0  0  0  0  0
   37.2048   32.3512   49.6146 C   0  0  0  0  0  0  0  0  0  0  0  0
   38.1780   33.3487   49.5007 C   0  0  0  0  0  0  0  0  0  0  0  0
   39.0605   33.3294   48.4118 C   0  0  0  0  0  0  0  0  0  0  0  0
   38.9470   32.3291   47.4819 C   0  0  0  0  0  0  0  0  0  0  0  0
   34.9343   30.3446   47.9828 C   0  0  0  0  0  0  0  0  0  0  0  0
   36.0811   30.3082   48.7950 C   0  0  0  0  0  0  0  0  0  0  0  0
   36.1926   29.2567   49.7022 C   0  0  0  0  0  0  0  0  0  0  0  0
   35.1945   28.3330   49.7505 N   0  0  0  0  0  0  0  0  0  0  0  0
   34.1028   28.4087   48.9450 C   0  0  0  0  0  0  0  0  0  0  0  0
   33.9787   29.4079   48.0704 N   0  0  0  0  0  0  0  0  0  0  0  0
   37.3788   29.1640   50.5858 C   0  0  0  0  0  0  0  0  0  0  0  0
   37.9439   30.3990   46.6370 O   0  0  0  0  0  0  0  0  0  0  0  0
   39.8444   32.3429   46.4099 O   0  0  0  0  0  0  0  0  0  0  0  0
   36.5420   32.4053   50.4746 H   0  0  0  0  0  0  0  0  0  0  0  0
   38.2574   34.1344   50.2430 H   0  0  0  0  0  0  0  0  0  0  0  0
   39.8049   34.1176   48.3517 H   0  0  0  0  0  0  0  0  0  0  0  0
   34.8717   31.1687   47.2887 H   0  0  0  0  0  0  0  0  0  0  0  0
   33.3129   27.6668   48.9917 H   0  0  0  0  0  0  0  0  0  0  0  0
   38.2421   29.5004   49.9858 H   0  0  0  0  0  0  0  0  0  0  0  0
   37.4630   28.1007   50.8895 H   0  0  0  0  0  0  0  0  0  0  0  0
   37.2637   29.7631   51.5053 H   0  0  0  0  0  0  0  0  0  0  0  0
   37.0622   30.2802   46.1379 H   0  0  0  0  0  0  0  0  0  0  0  0
   37.1224   31.9179   45.7789 O   0  0  0  0  0  0  0  0  0  0  0  0
   37.9682   32.2509   44.7455 C   0  0  0  0  0  0  0  0  0  0  0  0
   39.2765   32.4409   45.1359 C   0  0  0  0  0  0  0  0  0  0  0  0
   40.2425   32.7810   44.2012 C   0  0  0  0  0  0  0  0  0  0  0  0
   41.3043   32.9564   44.3882 H   0  0  0  0  0  0  0  0  0  0  0  0
   39.9233   32.9381   42.8603 C   0  0  0  0  0  0  0  0  0  0  0  0
   38.6093   32.7462   42.4749 C   0  0  0  0  0  0  0  0  0  0  0  0
   37.6653   32.4108   43.4070 C   0  0  0  0  0  0  0  0  0  0  0  0
   36.3313   32.2050   43.0824 O   0  0  0  0  0  0  0  0  0  0  0  0
   36.4595   32.5461   46.1987 H   0  0  0  0  0  0  0  0  0  0  0  0
   40.6321   33.2004   42.0961 H   0  0  0  0  0  0  0  0  0  0  0  0
   38.3175   32.8581   41.4434 H   0  0  0  0  0  0  0  0  0  0  0  0
   35.6379   32.9264   43.1220 H   0  0  0  0  0  0  0  0  0  0  0  0
  1  2  2  0
  2  8  1  0
  2  3  1  0
  4  3  2  0
  5  4  1  0
  6  1  1  0
  6  5  2  0
  7 12  2  0
  7  8  1  0
  8  9  2  0
  9 10  1  0
  9 13  1  0
 11 10  2  0
 12 11  1  0
 14  1  1  0
 15  6  1  0
  3 16  1  0
  4 17  1  0
  5 18  1  0
  7 19  1  0
 11 20  1  0
 13 21  1  0
 13 22  1  0
 13 23  1  0
 14 24  1  0
 25 26  1  0
 26 27  2  0
 27 28  1  0
 28 29  1  0
 28 30  2  0
 30 31  1  0
 31 32  2  0
 32 33  1  0
 32 26  1  0
 25 34  1  0
 30 35  1  0
 31 36  1  0
 33 37  1  0
 15 27  1  0
M  ISO  8  16  14  17  14  18  14  19  14  20  14  21   8  22   8  23   8
M  ISO  2  24   3  29  16
M  END
>  <DihAtoms>  (1) 
5,14,26,25

>  <DihDeg>  (1) 
60.00025782826734

$$$$
