
 OpenBabel03272509183D

 35 37  0  0  0  0  0  0  0  0999 V2000
   38.3150   31.3310   47.9900 C   0  0  0  0  0  0  0  0  0  0  0  0
   37.3410   31.6120   48.9330 C   0  0  0  0  0  0  0  0  0  0  0  0
   37.4460   32.8860   49.5000 C   0  0  0  0  0  0  0  0  0  0  0  0
   38.4540   33.7820   49.1290 C   0  0  0  0  0  0  0  0  0  0  0  0
   39.3930   33.4000   48.1610 C   0  0  0  0  0  0  0  0  0  0  0  0
   39.3000   32.1540   47.5990 C   0  0  0  0  0  0  0  0  0  0  0  0
   36.7400   33.2230   50.2540 H   0  0  0  0  0  0  0  0  0  0  0  0
   38.5160   34.7650   49.5800 H   0  0  0  0  0  0  0  0  0  0  0  0
   40.1630   34.1190   47.8940 H   0  0  0  0  0  0  0  0  0  0  0  0
   35.2020   30.4930   48.4750 C   0  0  0  0  0  0  0  0  0  0  0  0
   36.3080   30.6990   49.3180 C   0  0  0  0  0  0  0  0  0  0  0  0
   36.3460   29.9890   50.5150 C   0  0  0  0  0  0  0  0  0  0  0  0
   35.3180   29.1430   50.8000 N   0  0  0  0  0  0  0  0  0  0  0  0
   34.2680   28.9740   49.9540 C   0  0  0  0  0  0  0  0  0  0  0  0
   34.2160   29.6460   48.8020 N   0  0  0  0  0  0  0  0  0  0  0  0
   35.1980   31.0550   47.5540 H   0  0  0  0  0  0  0  0  0  0  0  0
   33.4550   28.2970   50.1900 H   0  0  0  0  0  0  0  0  0  0  0  0
   37.4860   30.1650   51.4460 C   0  0  0  0  0  0  0  0  0  0  0  0
   38.3860   30.2810   50.8180 H   0  0  0  0  0  0  0  0  0  0  0  0
   37.5230   29.2520   52.0740 H   0  0  0  0  0  0  0  0  0  0  0  0
   37.3460   31.0260   52.1210 H   0  0  0  0  0  0  0  0  0  0  0  0
   38.2880   30.0650   47.3650 O   0  0  0  0  0  0  0  0  0  0  0  0
   37.4310   29.8000   46.8780 H   0  0  0  0  0  0  0  0  0  0  0  0
   40.2540   31.8090   46.6370 O   0  0  0  0  0  0  0  0  0  0  0  0
   39.4600   31.0670   44.3760 C   0  0  0  0  0  0  0  0  0  0  0  0
   39.8770   31.9970   45.3040 C   0  0  0  0  0  0  0  0  0  0  0  0
   39.9680   33.3360   44.9610 C   0  0  0  0  0  0  0  0  0  0  0  0
   40.2830   34.1600   45.6050 H   0  0  0  0  0  0  0  0  0  0  0  0
   39.6440   33.7760   43.6840 C   0  0  0  0  0  3  0  0  0  0  0  0
   39.2260   32.8380   42.7570 C   0  0  0  0  0  3  0  0  0  0  0  0
   39.1410   31.5190   43.1100 C   0  0  0  0  0  0  0  0  0  0  0  0
   39.4190   29.7790   44.8580 O   0  0  0  0  0  0  0  0  0  0  0  0
   38.5770   29.2870   45.0990 H   0  0  0  0  0  0  0  0  0  0  0  0
   38.7290   30.5320   42.2250 O   0  0  0  0  0  0  0  0  0  0  0  0
   37.7770   30.2300   42.1410 H   0  0  0  0  0  0  0  0  0  0  0  0
  1  2  1  0  0  0  0
  2 11  1  0  0  0  0
  2  3  2  0  0  0  0
  3  7  1  0  0  0  0
  4  3  1  0  0  0  0
  4  8  1  0  0  0  0
  5  4  2  0  0  0  0
  6  1  2  0  0  0  0
  6  5  1  0  0  0  0
  9  5  1  0  0  0  0
 10 15  2  0  0  0  0
 10 11  1  0  0  0  0
 11 12  2  0  0  0  0
 12 13  1  0  0  0  0
 12 18  1  0  0  0  0
 14 17  1  0  0  0  0
 14 13  2  0  0  0  0
 15 14  1  0  0  0  0
 16 10  1  0  0  0  0
 18 20  1  0  0  0  0
 18 21  1  0  0  0  0
 19 18  1  0  0  0  0
 22  1  1  0  0  0  0
 23 22  1  0  0  0  0
 24  6  1  0  0  0  0
 25 32  1  0  0  0  0
 25 26  1  0  0  0  0
 26 24  1  0  0  0  0
 27 26  2  0  0  0  0
 27 28  1  0  0  0  0
 29 27  1  0  0  0  0
 30 31  1  0  0  0  0
 30 29  2  0  0  0  0
 31 25  2  0  0  0  0
 32 33  1  0  0  0  0
 34 31  1  0  0  0  0
 35 34  1  0  0  0  0
M  END
>  <minimizedAffinity>
-6.53590393

>  <minimizedRMSD>
0.936389089

$$$$
