
 OpenBabel03272503423D

 43 46  0  0  1  0  0  0  0  0999 V2000
   39.8920   30.8100   41.7750 C   0  0  2  0  0  0  0  0  0  0  0  0
   39.8420   32.0430   42.7040 C   0  0  1  0  0  0  0  0  0  0  0  0
   38.7410   32.8030   42.0380 C   0  0  0  0  0  0  0  0  0  0  0  0
   38.8610   32.5950   40.6850 O   0  0  0  0  0  0  0  0  0  0  0  0
   39.7390   31.5820   40.4490 C   0  0  0  0  0  0  0  0  0  0  0  0
   40.8530   30.3110   41.8340 H   0  0  0  0  0  0  0  0  0  0  0  0
   40.7780   32.6140   42.6680 H   0  0  0  0  0  0  0  0  0  0  0  0
   38.6620   33.8620   42.3240 H   0  0  0  0  0  0  0  0  0  0  0  0
   37.7540   32.3470   42.3450 H   0  0  0  0  0  0  0  0  0  0  0  0
   40.7430   32.0360   40.2760 H   0  0  0  0  0  0  0  0  0  0  0  0
   39.4550   30.9100   39.6220 H   0  0  0  0  0  0  0  0  0  0  0  0
   38.4960   31.0990   45.8960 C   0  0  0  0  0  0  0  0  0  0  0  0
   39.8250   31.0210   46.1760 C   0  0  0  0  0  0  0  0  0  0  0  0
   40.4640   31.3750   44.9790 C   0  0  0  0  0  0  0  0  0  0  0  0
   39.5380   31.6460   44.0500 N   0  0  0  0  0  0  0  0  0  0  0  0
   38.3200   31.4790   44.6050 N   0  0  0  0  0  0  0  0  0  0  0  0
   40.3320   30.7470   47.1120 H   0  0  0  0  0  0  0  0  0  0  0  0
   41.5590   31.4020   44.8990 H   0  0  0  0  0  0  0  0  0  0  0  0
   36.5140   30.6340   49.0490 C   0  0  0  0  0  0  0  0  0  0  0  0
   37.5740   30.9110   48.1960 C   0  0  0  0  0  0  0  0  0  0  0  0
   37.4210   30.8200   46.8320 C   0  0  0  0  0  0  0  0  0  0  0  0
   36.2100   30.4550   46.3660 N   0  0  0  0  0  0  0  0  0  0  0  0
   35.1760   30.1860   47.2150 C   0  0  0  0  0  0  0  0  0  0  0  0
   35.3100   30.2680   48.5260 N   0  0  0  0  0  0  0  0  0  0  0  0
   38.5590   31.2070   48.5390 H   0  0  0  0  0  0  0  0  0  0  0  0
   34.1930   29.8890   46.8490 H   0  0  0  0  0  0  0  0  0  0  0  0
   36.8310   30.7710   50.3910 O   0  0  0  0  0  0  0  0  0  0  0  0
   36.8910   29.6830   51.2960 C   0  0  0  0  0  0  0  0  0  0  0  0
   35.6260   29.2420   51.6320 F   0  0  0  0  0  0  0  0  0  0  0  0
   37.5900   30.0760   52.4070 F   0  0  0  0  0  0  0  0  0  0  0  0
   37.5940   28.6570   50.6950 F   0  0  0  0  0  0  0  0  0  0  0  0
   38.7480   30.1070   42.0190 O   0  0  0  0  0  0  0  0  0  0  0  0
   37.6290   27.9630   41.3080 C   0  0  0  0  0  0  0  0  0  0  0  0
   38.4910   28.7650   42.0260 C   0  0  0  0  0  0  0  0  0  0  0  0
   39.3020   28.1330   42.9790 C   0  0  0  0  0  0  0  0  0  0  0  0
   40.0430   28.6040   43.6400 H   0  0  0  0  0  0  0  0  0  0  0  0
   39.2390   26.7560   43.1910 C   0  0  0  0  0  3  0  0  0  0  0  0
   38.3680   25.9750   42.4590 C   0  0  0  0  0  3  0  0  0  0  0  0
   37.5830   26.6030   41.5330 C   0  0  0  0  0  0  0  0  0  0  0  0
   36.8770   28.6790   40.3990 O   0  0  0  0  0  0  0  0  0  0  0  0
   35.9350   28.4370   40.1080 H   0  0  0  0  0  0  0  0  0  0  0  0
   36.6380   25.9790   40.6960 O   0  0  0  0  0  0  0  0  0  0  0  0
   36.7270   24.9950   40.4220 H   0  0  0  0  0  0  0  0  0  0  0  0
  1  6  1  1  0  0  0
  1 32  1  0  0  0  0
  1  2  1  0  0  0  0
  2  7  1  6  0  0  0
  2 15  1  0  0  0  0
  3  8  1  0  0  0  0
  3  9  1  0  0  0  0
  3  2  1  0  0  0  0
  4  3  1  0  0  0  0
  5  4  1  0  0  0  0
  5  1  1  0  0  0  0
 10  5  1  0  0  0  0
 11  5  1  0  0  0  0
 12 13  1  0  0  0  0
 12 21  1  0  0  0  0
 13 17  1  0  0  0  0
 14 13  2  0  0  0  0
 15 16  1  0  0  0  0
 15 14  1  0  0  0  0
 16 12  2  0  0  0  0
 18 14  1  0  0  0  0
 19 27  1  0  0  0  0
 20 25  1  0  0  0  0
 20 19  2  0  0  0  0
 21 20  1  0  0  0  0
 22 21  2  0  0  0  0
 22 23  1  0  0  0  0
 23 24  2  0  0  0  0
 24 19  1  0  0  0  0
 26 23  1  0  0  0  0
 27 28  1  0  0  0  0
 28 29  1  0  0  0  0
 28 30  1  0  0  0  0
 31 28  1  0  0  0  0
 32 34  1  0  0  0  0
 33 39  2  0  0  0  0
 33 34  1  0  0  0  0
 34 35  2  0  0  0  0
 35 37  1  0  0  0  0
 35 36  1  0  0  0  0
 38 37  2  0  0  0  0
 39 38  1  0  0  0  0
 40 33  1  0  0  0  0
 41 40  1  0  0  0  0
 42 39  1  0  0  0  0
 43 42  1  0  0  0  0
M  END
>  <minimizedAffinity>
-6.28700256

>  <minimizedRMSD>
0.533239603

$$$$
