REMARK  Name = 
REMARK  7 active torsions:
REMARK  status: ('A' for Active; 'I' for Inactive)
REMARK    1  A    between atoms: C_1  and  O_14
REMARK    2  A    between atoms: C_2  and  C_8
REMARK    3  A    between atoms: C_6  and  O_15
REMARK    4  A    between atoms: C_9  and  C_13
REMARK    5  A    between atoms: O_15  and  C_27
REMARK    6  A    between atoms: O_25  and  C_26
REMARK    7  A    between atoms: C_32  and  O_33
REMARK                            x       y       z     vdW  Elec       q    Type
REMARK                         _______ _______ _______ _____ _____    ______ ____
ROOT
ATOM      1  C   UNL     1      37.996  31.395  47.637  0.00  0.00    +0.000 A 
ATOM      2  C   UNL     1      37.079  31.326  48.672  0.00  0.00    +0.000 A 
ATOM      3  C   UNL     1      37.205  32.351  49.615  0.00  0.00    +0.000 A 
ATOM      4  C   UNL     1      38.178  33.349  49.501  0.00  0.00    +0.000 A 
ATOM      5  C   UNL     1      39.060  33.329  48.412  0.00  0.00    +0.000 A 
ATOM      6  C   UNL     1      38.947  32.329  47.482  0.00  0.00    +0.000 A 
ATOM      7  H   UNL     1      36.542  32.405  50.475  0.00  0.00    +0.000 HD
ATOM      8  H   UNL     1      38.257  34.134  50.243  0.00  0.00    +0.000 HD
ATOM      9  H   UNL     1      39.805  34.118  48.352  0.00  0.00    +0.000 HD
ENDROOT
BRANCH   2  11
ATOM     10  C   UNL     1      34.934  30.345  47.983  0.00  0.00    +0.000 A 
ATOM     11  C   UNL     1      36.081  30.308  48.795  0.00  0.00    +0.000 A 
ATOM     12  C   UNL     1      36.193  29.257  49.702  0.00  0.00    +0.000 A 
ATOM     13  N   UNL     1      35.194  28.333  49.751  0.00  0.00    +0.000 NA
ATOM     14  C   UNL     1      34.103  28.409  48.945  0.00  0.00    +0.000 A 
ATOM     15  N   UNL     1      33.979  29.408  48.070  0.00  0.00    +0.000 NA
ATOM     16  H   UNL     1      34.872  31.169  47.289  0.00  0.00    +0.000 HD
ATOM     17  H   UNL     1      33.313  27.667  48.992  0.00  0.00    +0.000 HD
BRANCH  12  18
ATOM     18  C   UNL     1      37.379  29.164  50.586  0.00  0.00    +0.000 C 
ATOM     19  H   UNL     1      38.242  29.500  49.986  0.00  0.00    +0.000 HD
ATOM     20  H   UNL     1      37.463  28.101  50.889  0.00  0.00    +0.000 HD
ATOM     21  H   UNL     1      37.264  29.763  51.505  0.00  0.00    +0.000 HD
ENDBRANCH  12  18
ENDBRANCH   2  11
BRANCH   1  22
ATOM     22  O   UNL     1      37.944  30.399  46.637  0.00  0.00    +0.000 OA
ATOM     23  H   UNL     1      37.062  30.280  46.138  0.00  0.00    +0.000 HD
ENDBRANCH   1  22
BRANCH   6  24
ATOM     24  O   UNL     1      39.844  32.343  46.410  0.00  0.00    +0.000 OA
BRANCH  24  26
ATOM     25  C   UNL     1      38.619  31.482  44.396  0.00  0.00    +0.000 A 
ATOM     26  C   UNL     1      39.276  32.441  45.136  0.00  0.00    +0.000 A 
ATOM     27  C   UNL     1      39.450  33.719  44.627  0.00  0.00    +0.000 A 
ATOM     28  H   UNL     1      39.951  34.558  45.115  0.00  0.00    +0.000 HD
ATOM     29  C   UNL     1      38.971  34.065  43.371  0.00  0.00    +0.000 A 
ATOM     30  C   UNL     1      38.312  33.098  42.635  0.00  0.00    +0.000 A 
ATOM     31  C   UNL     1      38.147  31.841  43.148  0.00  0.00    +0.000 A 
BRANCH  25  32
ATOM     32  O   UNL     1      38.522  30.262  45.028  0.00  0.00    +0.000 OA
ATOM     33  H   UNL     1      37.683  29.903  45.450  0.00  0.00    +0.000 HD
ENDBRANCH  25  32
BRANCH  31  34
ATOM     34  O   UNL     1      37.495  30.828  42.458  0.00  0.00    +0.000 OA
ATOM     35  H   UNL     1      36.517  30.638  42.554  0.00  0.00    +0.000 HD
ENDBRANCH  31  34
ENDBRANCH  24  26
ENDBRANCH   6  24
TORSDOF 7
