
 OpenBabel03262521083D

 47 49  0  0  1  0  0  0  0  0999 V2000
   32.8360   28.7630   45.5800 C   0  0  2  0  0  0  0  0  0  0  0  0
   33.2200   28.0530   44.3680 C   0  0  0  0  0  0  0  0  0  0  0  0
   34.7310   27.9330   44.1980 C   0  0  0  0  0  0  0  0  0  0  0  0
   35.4250   29.2650   44.2220 C   0  0  0  0  0  0  0  0  0  0  0  0
   34.8200   30.2480   45.1850 C   0  0  0  0  0  0  0  0  0  0  0  0
   33.9540   29.5440   46.2210 C   0  0  2  0  0  0  0  0  0  0  0  0
   32.0410   29.5210   45.3060 H   0  0  0  0  0  0  0  0  0  0  0  0
   32.8690   27.0150   44.2980 H   0  0  0  0  0  0  0  0  0  0  0  0
   32.8230   28.5450   43.4310 H   0  0  0  0  0  0  0  0  0  0  0  0
   35.1660   27.1690   44.8550 H   0  0  0  0  0  0  0  0  0  0  0  0
   34.8460   27.5490   43.1600 H   0  0  0  0  0  0  0  0  0  0  0  0
   35.4200   29.7420   43.2070 H   0  0  0  0  0  0  0  0  0  0  0  0
   36.4920   29.0880   44.4640 H   0  0  0  0  0  0  0  0  0  0  0  0
   35.6240   30.7650   45.7580 H   0  0  0  0  0  0  0  0  0  0  0  0
   34.1640   30.9880   44.6810 H   0  0  0  0  0  0  0  0  0  0  0  0
   33.4720   30.3700   46.8020 H   0  0  0  0  0  0  0  0  0  0  0  0
   32.2280   27.9410   46.6310 C   0  0  0  0  0  0  0  0  0  0  0  0
   32.2080   26.5700   46.3490 C   0  0  0  0  0  0  0  0  0  0  0  0
   31.6600   25.7430   47.3160 C   0  0  0  0  0  0  0  0  0  0  0  0
   31.1740   26.2860   48.4720 N   0  0  0  0  0  0  0  0  0  0  0  0
   31.2120   27.6080   48.7020 C   0  0  0  0  0  0  0  0  0  0  0  0
   31.7310   28.3720   47.7840 N   0  0  0  0  0  0  0  0  0  0  0  0
   32.5020   25.9330   45.5430 H   0  0  0  0  0  0  0  0  0  0  0  0
   31.5360   24.6750   47.3280 H   0  0  0  0  0  0  0  0  0  0  0  0
   30.8200   28.0270   49.6280 H   0  0  0  0  0  0  0  0  0  0  0  0
   34.8230   28.8940   47.0940 N   0  0  0  0  0  0  0  0  0  0  0  0
   35.5380   28.2520   46.6880 H   0  0  0  0  0  0  0  0  0  0  0  0
   35.5630   29.8220   48.3040 S   0  0  1  0  0  0  0  0  0  0  0  0
   36.4460   28.8500   49.0750 O   0  0  0  0  0  0  0  0  0  0  0  0
   37.4060   28.6980   48.8310 H   0  0  0  0  0  0  0  0  0  0  0  0
   36.3960   30.9090   47.7880 O   0  0  0  0  0  0  0  0  0  0  0  0
   37.9830   32.5270   48.6740 C   0  0  0  0  0  0  0  0  0  0  0  0
   37.4820   31.6840   47.6680 C   0  0  0  0  0  0  0  0  0  0  0  0
   38.2240   31.7210   46.5030 C   0  0  0  0  0  0  0  0  0  0  0  0
   37.9660   31.1240   45.6300 H   0  0  0  0  0  0  0  0  0  0  0  0
   39.3480   32.5030   46.3350 C   0  0  0  0  0  0  0  0  0  0  0  0
   39.7510   33.2930   47.3880 C   0  0  0  0  0  0  0  0  0  0  0  0
   39.0910   33.3400   48.5970 C   0  0  0  0  0  0  0  0  0  0  0  0
   37.2550   32.5200   49.8770 O   0  0  0  0  0  0  0  0  0  0  0  0
   36.9170   33.4330   50.2080 H   0  0  0  0  0  0  0  0  0  0  0  0
   39.4620   34.1130   49.6680 O   0  0  0  0  0  0  0  0  0  0  0  0
   39.0070   34.9730   49.9430 H   0  0  0  0  0  0  0  0  0  0  0  0
   34.4570   30.4040   49.4280 O   0  0  0  0  0  0  0  0  0  0  0  0
   34.1380   29.4720   50.3990 C   0  0  0  0  0  0  0  0  0  0  0  0
   34.1340   28.2170   49.8570 F   0  0  0  0  0  0  0  0  0  0  0  0
   35.1520   29.5010   51.3420 F   0  0  0  0  0  0  0  0  0  0  0  0
   32.9670   29.7640   51.0860 F   0  0  0  0  0  0  0  0  0  0  0  0
  1  7  1  6  0  0  0
  1  6  1  0  0  0  0
  1 17  1  0  0  0  0
  2  1  1  0  0  0  0
  3  4  1  0  0  0  0
  3  2  1  0  0  0  0
  3 10  1  0  0  0  0
  4 13  1  0  0  0  0
  4  5  1  0  0  0  0
  5 14  1  0  0  0  0
  5  6  1  0  0  0  0
  6 16  1  1  0  0  0
  6 26  1  0  0  0  0
  8  2  1  0  0  0  0
  9  2  1  0  0  0  0
 11  3  1  0  0  0  0
 12  4  1  0  0  0  0
 15  5  1  0  0  0  0
 17 22  1  0  0  0  0
 18 17  2  0  0  0  0
 18 19  1  0  0  0  0
 19 24  1  0  0  0  0
 19 20  2  0  0  0  0
 20 21  1  0  0  0  0
 21 25  1  0  0  0  0
 22 21  2  0  0  0  0
 23 18  1  0  0  0  0
 26 28  1  0  0  0  0
 27 26  1  0  0  0  0
 28 31  1  6  0  0  0
 28 29  1  0  0  0  0
 28 43  1  0  0  0  0
 30 29  1  0  0  0  0
 32 39  1  0  0  0  0
 33 31  1  0  0  0  0
 33 32  2  0  0  0  0
 34 33  1  0  0  0  0
 35 34  1  0  0  0  0
 36 34  2  0  0  0  0
 36 37  1  0  0  0  0
 37 38  2  0  0  0  0
 38 32  1  0  0  0  0
 38 41  1  0  0  0  0
 39 40  1  0  0  0  0
 41 42  1  0  0  0  0
 43 44  1  0  0  0  0
 44 47  1  0  0  0  0
 44 46  1  0  0  0  0
 45 44  1  0  0  0  0
M  END
>  <minimizedAffinity>
-5.51972675

>  <minimizedRMSD>
4.67182684

$$$$
