
 OpenBabel03272510173D

 30 32  0  0  0  0  0  0  0  0999 V2000
   37.3020   29.3170   51.0600 Br  0  0  0  0  0  0  0  0  0  0  0  0
   35.9710   29.3250   49.6860 C   0  0  0  0  0  0  0  0  0  0  0  0
   35.9870   30.2800   48.6680 C   0  0  0  0  0  0  0  0  0  0  0  0
   34.9950   30.2180   47.7130 C   0  0  0  0  0  0  0  0  0  0  0  0
   33.9950   29.2590   47.7210 C   0  0  0  0  0  0  0  0  0  0  0  0
   34.0060   28.3320   48.7370 C   0  0  0  0  0  0  0  0  0  0  0  0
   34.9860   28.3740   49.7020 C   0  0  0  0  0  0  0  0  0  0  0  0
   35.0010   30.9590   46.9170 H   0  0  0  0  0  0  0  0  0  0  0  0
   33.2300   27.5780   48.7530 H   0  0  0  0  0  0  0  0  0  0  0  0
   34.9740   27.6260   50.5000 H   0  0  0  0  0  0  0  0  0  0  0  0
   37.9210   33.2400   49.5910 C   0  0  0  0  0  0  0  0  0  0  0  0
   38.9670   33.2510   48.6460 C   0  0  0  0  0  0  0  0  0  0  0  0
   39.0020   32.2280   47.6840 C   0  0  0  0  0  0  0  0  0  0  0  0
   38.0190   31.2750   47.7160 N   0  0  0  0  0  0  0  0  0  0  0  0
   37.0280   31.2970   48.6400 C   0  0  0  0  0  0  0  0  0  0  0  0
   36.9820   32.2720   49.5690 N   0  0  0  0  0  0  0  0  0  0  0  0
   37.9370   34.0510   50.3140 H   0  0  0  0  0  0  0  0  0  0  0  0
   39.7530   33.9680   48.5810 H   0  0  0  0  0  0  0  0  0  0  0  0
   39.7440   32.1250   46.9120 H   0  0  0  0  0  0  0  0  0  0  0  0
   33.2210   29.9300   45.4660 C   0  0  0  0  0  0  0  0  0  0  0  0
   32.9880   29.2820   46.6580 C   0  0  0  0  0  0  0  0  0  0  0  0
   31.7850   28.6480   46.8420 C   0  0  0  0  0  0  0  0  0  0  0  0
   31.5360   28.1290   47.7350 H   0  0  0  0  0  0  0  0  0  0  0  0
   30.8630   28.7020   45.7970 C   0  0  0  0  0  3  0  0  0  0  0  0
   31.0930   29.3520   44.5950 C   0  0  0  0  0  3  0  0  0  0  0  0
   32.3070   29.9810   44.4340 C   0  0  0  0  0  0  0  0  0  0  0  0
   34.4520   30.5660   45.3020 O   0  0  0  0  0  0  0  0  0  0  0  0
   34.5450   31.4800   44.8830 H   0  0  0  0  0  0  0  0  0  0  0  0
   32.6230   30.6640   43.2500 O   0  0  0  0  0  0  0  0  0  0  0  0
   32.3990   31.6650   43.1700 H   0  0  0  0  0  0  0  0  0  0  0  0
  2  7  1  0  0  0  0
  2  1  1  0  0  0  0
  3  2  2  0  0  0  0
  4  5  2  0  0  0  0
  4  3  1  0  0  0  0
  5  6  1  0  0  0  0
  6  9  1  0  0  0  0
  6  7  2  0  0  0  0
  7 10  1  0  0  0  0
  8  4  1  0  0  0  0
 11 17  1  0  0  0  0
 12 11  2  0  0  0  0
 13 14  2  0  0  0  0
 13 12  1  0  0  0  0
 14 15  1  0  0  0  0
 15  3  1  0  0  0  0
 15 16  2  0  0  0  0
 16 11  1  0  0  0  0
 18 12  1  0  0  0  0
 19 13  1  0  0  0  0
 20 21  1  0  0  0  0
 21 22  2  0  0  0  0
 21  5  1  0  0  0  0
 22 23  1  0  0  0  0
 24 22  1  0  0  0  0
 25 24  2  0  0  0  0
 26 25  1  0  0  0  0
 26 20  2  0  0  0  0
 27 20  1  0  0  0  0
 28 27  1  0  0  0  0
 29 26  1  0  0  0  0
 30 29  1  0  0  0  0
M  END
>  <minimizedAffinity>
-6.25890207

>  <minimizedRMSD>
0.135555148

$$$$
