
 OpenBabel03272504103D

 35 37  0  0  0  0  0  0  0  0999 V2000
   41.2430   27.4790   33.5010 C   0  0  0  0  0  0  0  0  0  0  0  0
   40.2010   26.5900   33.6950 C   0  0  0  0  0  0  0  0  0  0  0  0
   40.4590   25.2400   34.0310 C   0  0  0  0  0  0  0  0  0  0  0  0
   41.7610   24.8730   34.1470 N   0  0  0  0  0  0  0  0  0  0  0  0
   42.7730   25.7820   33.9460 C   0  0  0  0  0  0  0  0  0  0  0  0
   42.5100   27.0750   33.6260 N   0  0  0  0  0  0  0  0  0  0  0  0
   44.1170   25.3090   34.0900 N   0  0  0  0  0  0  0  0  0  0  0  0
   41.0080   28.5010   33.2460 H   0  0  0  0  0  0  0  0  0  0  0  0
   44.5070   24.5600   33.4610 H   0  0  0  0  0  0  0  0  0  0  0  0
   44.7770   25.6630   34.8040 H   0  0  0  0  0  0  0  0  0  0  0  0
   38.5860   27.5320   36.0900 Cl  0  0  0  0  0  0  0  0  0  0  0  0
   37.9450   27.5590   34.4860 C   0  0  0  0  0  0  0  0  0  0  0  0
   38.8160   27.1040   33.5400 C   0  0  0  0  0  0  0  0  0  0  0  0
   38.3850   27.0950   32.1950 C   0  0  0  0  0  0  0  0  0  0  0  0
   37.1500   27.5180   31.8340 C   0  0  0  0  0  0  0  0  0  0  0  0
   36.2880   27.9730   32.8210 C   0  0  0  0  0  0  0  0  0  0  0  0
   34.6890   28.5300   32.4020 Cl  0  0  0  0  0  0  0  0  0  0  0  0
   36.6990   27.9850   34.1170 C   0  0  0  0  0  0  0  0  0  0  0  0
   38.9920   26.7700   31.3610 H   0  0  0  0  0  0  0  0  0  0  0  0
   36.7710   27.5310   30.8180 H   0  0  0  0  0  0  0  0  0  0  0  0
   36.0630   28.3320   34.9280 H   0  0  0  0  0  0  0  0  0  0  0  0
   39.3470   24.3290   34.2410 C   0  0  0  0  0  0  0  0  0  0  0  0
   39.3040   23.4260   33.6300 H   0  0  0  0  0  0  0  0  0  0  0  0
   38.4120   24.9010   33.9660 H   0  0  0  0  0  0  0  0  0  0  0  0
   40.0100   22.9250   36.2300 C   0  0  0  0  0  0  0  0  0  0  0  0
   39.2050   23.9240   35.6680 C   0  0  0  0  0  0  0  0  0  0  0  0
   38.2890   24.4940   36.5240 C   0  0  0  0  0  0  0  0  0  0  0  0
   37.6740   25.2660   36.0650 H   0  0  0  0  0  0  0  0  0  0  0  0
   38.0930   24.1820   37.8520 C   0  0  0  0  0  3  0  0  0  0  0  0
   38.9250   23.1790   38.3560 C   0  0  0  0  0  3  0  0  0  0  0  0
   39.8480   22.5800   37.5580 C   0  0  0  0  0  0  0  0  0  0  0  0
   40.9650   22.3030   35.4070 O   0  0  0  0  0  0  0  0  0  0  0  0
   41.9470   22.5410   35.4460 H   0  0  0  0  0  0  0  0  0  0  0  0
   40.6780   21.5800   38.0630 O   0  0  0  0  0  0  0  0  0  0  0  0
   40.3840   21.0780   38.8800 H   0  0  0  0  0  0  0  0  0  0  0  0
  1  6  2  0  0  0  0
  1  2  1  0  0  0  0
  2  3  2  0  0  0  0
  3  4  1  0  0  0  0
  3 22  1  0  0  0  0
  5  7  1  0  0  0  0
  5  4  2  0  0  0  0
  6  5  1  0  0  0  0
  7 10  1  0  0  0  0
  8  1  1  0  0  0  0
  9  7  1  0  0  0  0
 12 11  1  0  0  0  0
 13  2  1  0  0  0  0
 13 12  2  0  0  0  0
 14 13  1  0  0  0  0
 15 14  2  0  0  0  0
 15 16  1  0  0  0  0
 16 18  2  0  0  0  0
 17 16  1  0  0  0  0
 18 12  1  0  0  0  0
 18 21  1  0  0  0  0
 19 14  1  0  0  0  0
 20 15  1  0  0  0  0
 22 26  1  0  0  0  0
 23 22  1  0  0  0  0
 24 22  1  0  0  0  0
 25 31  1  0  0  0  0
 26 25  2  0  0  0  0
 26 27  1  0  0  0  0
 27 29  2  0  0  0  0
 28 27  1  0  0  0  0
 29 30  1  0  0  0  0
 31 34  1  0  0  0  0
 31 30  2  0  0  0  0
 32 33  1  0  0  0  0
 32 25  1  0  0  0  0
 34 35  1  0  0  0  0
M  END
>  <minimizedAffinity>
-6.34528923

$$$$

 OpenBabel03272504103D

 35 37  0  0  0  0  0  0  0  0999 V2000
   35.7180   22.6400   31.7490 C   0  0  0  0  0  0  0  0  0  0  0  0
   36.8630   23.1960   32.2890 C   0  0  0  0  0  0  0  0  0  0  0  0
   37.5320   22.5640   33.3650 C   0  0  0  0  0  0  0  0  0  0  0  0
   36.9940   21.4060   33.8280 N   0  0  0  0  0  0  0  0  0  0  0  0
   35.8530   20.8820   33.2670 C   0  0  0  0  0  0  0  0  0  0  0  0
   35.2240   21.4980   32.2350 N   0  0  0  0  0  0  0  0  0  0  0  0
   35.3560   19.6560   33.8180 N   0  0  0  0  0  0  0  0  0  0  0  0
   35.2360   23.1500   30.9280 H   0  0  0  0  0  0  0  0  0  0  0  0
   35.0340   19.5930   34.8180 H   0  0  0  0  0  0  0  0  0  0  0  0
   35.2830   18.7740   33.2820 H   0  0  0  0  0  0  0  0  0  0  0  0
   39.0540   23.2170   30.1850 Cl  0  0  0  0  0  0  0  0  0  0  0  0
   38.3270   24.6730   30.7650 C   0  0  0  0  0  0  0  0  0  0  0  0
   37.3590   24.4670   31.7030 C   0  0  0  0  0  0  0  0  0  0  0  0
   36.6990   25.5980   32.2320 C   0  0  0  0  0  0  0  0  0  0  0  0
   37.0040   26.8570   31.8370 C   0  0  0  0  0  0  0  0  0  0  0  0
   37.9950   27.0320   30.8810 C   0  0  0  0  0  0  0  0  0  0  0  0
   38.4190   28.6360   30.3390 Cl  0  0  0  0  0  0  0  0  0  0  0  0
   38.6320   25.9470   30.3680 C   0  0  0  0  0  0  0  0  0  0  0  0
   35.9090   25.5560   32.9680 H   0  0  0  0  0  0  0  0  0  0  0  0
   36.5290   27.7570   32.2100 H   0  0  0  0  0  0  0  0  0  0  0  0
   39.4150   26.0290   29.6180 H   0  0  0  0  0  0  0  0  0  0  0  0
   38.7390   23.1610   33.9090 C   0  0  0  0  0  0  0  0  0  0  0  0
   39.2560   23.9080   33.3040 H   0  0  0  0  0  0  0  0  0  0  0  0
   39.4860   22.3210   34.0200 H   0  0  0  0  0  0  0  0  0  0  0  0
   38.6940   22.9670   36.4240 C   0  0  0  0  0  0  0  0  0  0  0  0
   38.5270   23.7380   35.2660 C   0  0  0  0  0  0  0  0  0  0  0  0
   38.1600   25.0480   35.4780 C   0  0  0  0  0  0  0  0  0  0  0  0
   38.0350   25.6270   34.5640 H   0  0  0  0  0  0  0  0  0  0  0  0
   37.9470   25.6610   36.6950 C   0  0  0  0  0  3  0  0  0  0  0  0
   38.1290   24.8420   37.8110 C   0  0  0  0  0  3  0  0  0  0  0  0
   38.4900   23.5400   37.6650 C   0  0  0  0  0  0  0  0  0  0  0  0
   39.0680   21.6200   36.2740 O   0  0  0  0  0  0  0  0  0  0  0  0
   40.0170   21.3040   36.4240 H   0  0  0  0  0  0  0  0  0  0  0  0
   38.6720   22.7250   38.7810 O   0  0  0  0  0  0  0  0  0  0  0  0
   38.2260   22.9820   39.6410 H   0  0  0  0  0  0  0  0  0  0  0  0
  1  6  2  0  0  0  0
  1  2  1  0  0  0  0
  2  3  2  0  0  0  0
  3  4  1  0  0  0  0
  3 22  1  0  0  0  0
  5  7  1  0  0  0  0
  5  4  2  0  0  0  0
  6  5  1  0  0  0  0
  7  9  1  0  0  0  0
  8  1  1  0  0  0  0
 10  7  1  0  0  0  0
 11 12  1  0  0  0  0
 12 13  1  0  0  0  0
 13 14  2  0  0  0  0
 13  2  1  0  0  0  0
 14 19  1  0  0  0  0
 15 20  1  0  0  0  0
 15 14  1  0  0  0  0
 16 15  2  0  0  0  0
 17 16  1  0  0  0  0
 18 12  2  0  0  0  0
 18 16  1  0  0  0  0
 21 18  1  0  0  0  0
 22 24  1  0  0  0  0
 22 26  1  0  0  0  0
 23 22  1  0  0  0  0
 25 31  1  0  0  0  0
 26 27  1  0  0  0  0
 26 25  2  0  0  0  0
 27 29  2  0  0  0  0
 28 27  1  0  0  0  0
 29 30  1  0  0  0  0
 31 30  2  0  0  0  0
 31 34  1  0  0  0  0
 32 25  1  0  0  0  0
 32 33  1  0  0  0  0
 34 35  1  0  0  0  0
M  END
>  <minimizedAffinity>
-6.15282536

$$$$

 OpenBabel03272504103D

 35 37  0  0  0  0  0  0  0  0999 V2000
   38.1810   25.4840   36.9090 C   0  0  0  0  0  0  0  0  0  0  0  0
   38.4070   24.8760   35.6880 C   0  0  0  0  0  0  0  0  0  0  0  0
   38.5640   23.4720   35.6010 C   0  0  0  0  0  0  0  0  0  0  0  0
   38.4840   22.7710   36.7610 N   0  0  0  0  0  0  0  0  0  0  0  0
   38.2590   23.4080   37.9590 C   0  0  0  0  0  0  0  0  0  0  0  0
   38.1090   24.7550   38.0270 N   0  0  0  0  0  0  0  0  0  0  0  0
   38.1880   22.5910   39.1330 N   0  0  0  0  0  0  0  0  0  0  0  0
   38.0650   26.5570   36.9370 H   0  0  0  0  0  0  0  0  0  0  0  0
   39.0120   22.0210   39.4570 H   0  0  0  0  0  0  0  0  0  0  0  0
   37.3440   22.5080   39.7250 H   0  0  0  0  0  0  0  0  0  0  0  0
   41.0720   25.7520   34.5240 Cl  0  0  0  0  0  0  0  0  0  0  0  0
   39.5670   26.2390   33.8310 C   0  0  0  0  0  0  0  0  0  0  0  0
   38.4770   25.7440   34.4850 C   0  0  0  0  0  0  0  0  0  0  0  0
   37.1980   26.0810   33.9880 C   0  0  0  0  0  0  0  0  0  0  0  0
   37.0360   26.8700   32.9000 C   0  0  0  0  0  0  0  0  0  0  0  0
   38.1660   27.3580   32.2580 C   0  0  0  0  0  0  0  0  0  0  0  0
   38.0060   28.3760   30.8500 Cl  0  0  0  0  0  0  0  0  0  0  0  0
   39.3990   27.0360   32.7320 C   0  0  0  0  0  0  0  0  0  0  0  0
   36.2670   25.7370   34.4160 H   0  0  0  0  0  0  0  0  0  0  0  0
   36.0800   27.1580   32.4790 H   0  0  0  0  0  0  0  0  0  0  0  0
   40.3150   27.3910   32.2660 H   0  0  0  0  0  0  0  0  0  0  0  0
   38.7890   22.8550   34.3060 C   0  0  0  0  0  0  0  0  0  0  0  0
   39.5960   22.1250   34.2200 H   0  0  0  0  0  0  0  0  0  0  0  0
   39.0880   23.6900   33.6040 H   0  0  0  0  0  0  0  0  0  0  0  0
   37.0660   22.5930   32.4820 C   0  0  0  0  0  0  0  0  0  0  0  0
   37.5530   22.2390   33.7460 C   0  0  0  0  0  0  0  0  0  0  0  0
   36.8140   21.2910   34.4190 C   0  0  0  0  0  0  0  0  0  0  0  0
   37.2110   21.0330   35.4000 H   0  0  0  0  0  0  0  0  0  0  0  0
   35.6650   20.6720   33.9760 C   0  0  0  0  0  3  0  0  0  0  0  0
   35.2280   21.0650   32.7090 C   0  0  0  0  0  3  0  0  0  0  0  0
   35.9160   21.9970   31.9980 C   0  0  0  0  0  0  0  0  0  0  0  0
   37.7750   23.5570   31.7440 O   0  0  0  0  0  0  0  0  0  0  0  0
   38.3910   23.3060   30.9820 H   0  0  0  0  0  0  0  0  0  0  0  0
   35.4790   22.3880   30.7330 O   0  0  0  0  0  0  0  0  0  0  0  0
   34.5150   22.2490   30.4940 H   0  0  0  0  0  0  0  0  0  0  0  0
  1  8  1  0  0  0  0
  1  6  1  0  0  0  0
  2  1  2  0  0  0  0
  3  2  1  0  0  0  0
  3  4  2  0  0  0  0
  4  5  1  0  0  0  0
  5  6  2  0  0  0  0
  5  7  1  0  0  0  0
  7  9  1  0  0  0  0
  7 10  1  0  0  0  0
 12 13  1  0  0  0  0
 12 11  1  0  0  0  0
 13  2  1  0  0  0  0
 14 19  1  0  0  0  0
 14 13  2  0  0  0  0
 15 14  1  0  0  0  0
 16 18  1  0  0  0  0
 16 15  2  0  0  0  0
 17 16  1  0  0  0  0
 18 12  2  0  0  0  0
 20 15  1  0  0  0  0
 21 18  1  0  0  0  0
 22  3  1  0  0  0  0
 23 22  1  0  0  0  0
 24 22  1  0  0  0  0
 25 26  1  0  0  0  0
 26 22  1  0  0  0  0
 26 27  2  0  0  0  0
 27 28  1  0  0  0  0
 29 27  1  0  0  0  0
 30 29  2  0  0  0  0
 31 25  2  0  0  0  0
 31 30  1  0  0  0  0
 32 25  1  0  0  0  0
 33 32  1  0  0  0  0
 34 31  1  0  0  0  0
 35 34  1  0  0  0  0
M  END
>  <minimizedAffinity>
-6.05243111

$$$$

 OpenBabel03272504103D

 35 37  0  0  0  0  0  0  0  0999 V2000
   36.1620   23.4460   31.5410 C   0  0  0  0  0  0  0  0  0  0  0  0
   37.3110   23.8980   32.1630 C   0  0  0  0  0  0  0  0  0  0  0  0
   37.8920   23.1660   33.2260 C   0  0  0  0  0  0  0  0  0  0  0  0
   37.2680   22.0180   33.5940 N   0  0  0  0  0  0  0  0  0  0  0  0
   36.1250   21.5960   32.9540 C   0  0  0  0  0  0  0  0  0  0  0  0
   35.5810   22.3090   31.9350 N   0  0  0  0  0  0  0  0  0  0  0  0
   35.5340   20.3740   33.4070 N   0  0  0  0  0  0  0  0  0  0  0  0
   35.7480   24.0300   30.7340 H   0  0  0  0  0  0  0  0  0  0  0  0
   35.1640   20.2720   34.3870 H   0  0  0  0  0  0  0  0  0  0  0  0
   35.4350   19.5300   32.8160 H   0  0  0  0  0  0  0  0  0  0  0  0
   36.8710   26.5160   33.6390 Cl  0  0  0  0  0  0  0  0  0  0  0  0
   37.8140   26.4280   32.1940 C   0  0  0  0  0  0  0  0  0  0  0  0
   37.9060   25.1700   31.6760 C   0  0  0  0  0  0  0  0  0  0  0  0
   38.6640   24.9940   30.4970 C   0  0  0  0  0  0  0  0  0  0  0  0
   39.2880   26.0280   29.8840 C   0  0  0  0  0  0  0  0  0  0  0  0
   39.1730   27.2960   30.4370 C   0  0  0  0  0  0  0  0  0  0  0  0
   39.9620   28.6570   29.6830 Cl  0  0  0  0  0  0  0  0  0  0  0  0
   38.4460   27.4700   31.5720 C   0  0  0  0  0  0  0  0  0  0  0  0
   38.8170   24.0430   30.0060 H   0  0  0  0  0  0  0  0  0  0  0  0
   39.8800   25.9470   28.9800 H   0  0  0  0  0  0  0  0  0  0  0  0
   38.3250   28.4410   32.0450 H   0  0  0  0  0  0  0  0  0  0  0  0
   39.1060   23.6560   33.8550 C   0  0  0  0  0  0  0  0  0  0  0  0
   39.4330   24.6690   33.6130 H   0  0  0  0  0  0  0  0  0  0  0  0
   39.9440   22.9930   33.4880 H   0  0  0  0  0  0  0  0  0  0  0  0
   39.9030   22.6330   36.0190 C   0  0  0  0  0  0  0  0  0  0  0  0
   39.0690   23.5290   35.3390 C   0  0  0  0  0  0  0  0  0  0  0  0
   38.2270   24.2720   36.1370 C   0  0  0  0  0  0  0  0  0  0  0  0
   37.5860   24.9600   35.5870 H   0  0  0  0  0  0  0  0  0  0  0  0
   38.1300   24.2190   37.5110 C   0  0  0  0  0  3  0  0  0  0  0  0
   38.9870   23.3080   38.1320 C   0  0  0  0  0  3  0  0  0  0  0  0
   39.8390   22.5470   37.3970 C   0  0  0  0  0  0  0  0  0  0  0  0
   40.7860   21.8450   35.2600 O   0  0  0  0  0  0  0  0  0  0  0  0
   41.7700   22.0620   35.1820 H   0  0  0  0  0  0  0  0  0  0  0  0
   40.6950   21.6390   38.0190 O   0  0  0  0  0  0  0  0  0  0  0  0
   40.4580   21.3060   38.9350 H   0  0  0  0  0  0  0  0  0  0  0  0
  1  6  2  0  0  0  0
  1  2  1  0  0  0  0
  2  3  2  0  0  0  0
  3  4  1  0  0  0  0
  3 22  1  0  0  0  0
  5  7  1  0  0  0  0
  5  4  2  0  0  0  0
  6  5  1  0  0  0  0
  7  9  1  0  0  0  0
  8  1  1  0  0  0  0
 10  7  1  0  0  0  0
 12 11  1  0  0  0  0
 13  2  1  0  0  0  0
 13 12  1  0  0  0  0
 14 13  2  0  0  0  0
 15 16  2  0  0  0  0
 15 14  1  0  0  0  0
 16 18  1  0  0  0  0
 17 16  1  0  0  0  0
 18 21  1  0  0  0  0
 18 12  2  0  0  0  0
 19 14  1  0  0  0  0
 20 15  1  0  0  0  0
 22 26  1  0  0  0  0
 23 22  1  0  0  0  0
 24 22  1  0  0  0  0
 25 31  1  0  0  0  0
 26 25  2  0  0  0  0
 26 27  1  0  0  0  0
 27 29  2  0  0  0  0
 28 27  1  0  0  0  0
 29 30  1  0  0  0  0
 31 34  1  0  0  0  0
 31 30  2  0  0  0  0
 32 25  1  0  0  0  0
 33 32  1  0  0  0  0
 34 35  1  0  0  0  0
M  END
>  <minimizedAffinity>
-6.03086424

$$$$

 OpenBabel03272504103D

 35 37  0  0  0  0  0  0  0  0999 V2000
   39.8640   25.6210   31.4140 C   0  0  0  0  0  0  0  0  0  0  0  0
   39.0920   25.1820   32.4750 C   0  0  0  0  0  0  0  0  0  0  0  0
   39.3270   25.6650   33.7840 C   0  0  0  0  0  0  0  0  0  0  0  0
   40.3340   26.5630   33.9370 N   0  0  0  0  0  0  0  0  0  0  0  0
   41.0820   26.9780   32.8600 C   0  0  0  0  0  0  0  0  0  0  0  0
   40.8450   26.5070   31.6100 N   0  0  0  0  0  0  0  0  0  0  0  0
   42.1230   27.9280   33.1130 N   0  0  0  0  0  0  0  0  0  0  0  0
   39.6550   25.2310   30.4290 H   0  0  0  0  0  0  0  0  0  0  0  0
   42.9380   27.6980   33.7400 H   0  0  0  0  0  0  0  0  0  0  0  0
   42.1430   28.8800   32.7070 H   0  0  0  0  0  0  0  0  0  0  0  0
   36.2640   26.0710   31.8110 Cl  0  0  0  0  0  0  0  0  0  0  0  0
   36.7060   24.4030   31.8820 C   0  0  0  0  0  0  0  0  0  0  0  0
   38.0190   24.1960   32.1880 C   0  0  0  0  0  0  0  0  0  0  0  0
   38.4790   22.8630   32.2610 C   0  0  0  0  0  0  0  0  0  0  0  0
   37.6600   21.8070   32.0390 C   0  0  0  0  0  0  0  0  0  0  0  0
   36.3290   22.0530   31.7310 C   0  0  0  0  0  0  0  0  0  0  0  0
   35.2370   20.7240   31.4350 Cl  0  0  0  0  0  0  0  0  0  0  0  0
   35.8820   23.3340   31.6580 C   0  0  0  0  0  0  0  0  0  0  0  0
   39.4990   22.5790   32.4820 H   0  0  0  0  0  0  0  0  0  0  0  0
   37.9610   20.7670   32.0830 H   0  0  0  0  0  0  0  0  0  0  0  0
   34.8500   23.5800   31.4200 H   0  0  0  0  0  0  0  0  0  0  0  0
   38.4960   25.1970   34.8800 C   0  0  0  0  0  0  0  0  0  0  0  0
   37.5240   24.7660   34.6360 H   0  0  0  0  0  0  0  0  0  0  0  0
   38.2530   26.1070   35.5040 H   0  0  0  0  0  0  0  0  0  0  0  0
   38.6780   23.8440   37.0020 C   0  0  0  0  0  0  0  0  0  0  0  0
   39.2120   24.2390   35.7690 C   0  0  0  0  0  0  0  0  0  0  0  0
   40.4290   23.6800   35.4470 C   0  0  0  0  0  0  0  0  0  0  0  0
   40.8250   24.0030   34.4850 H   0  0  0  0  0  0  0  0  0  0  0  0
   41.1560   22.7890   36.2070 C   0  0  0  0  0  3  0  0  0  0  0  0
   40.5720   22.4330   37.4250 C   0  0  0  0  0  3  0  0  0  0  0  0
   39.3730   22.9520   37.7960 C   0  0  0  0  0  0  0  0  0  0  0  0
   37.4370   24.3810   37.3880 O   0  0  0  0  0  0  0  0  0  0  0  0
   36.5770   23.8560   37.3130 H   0  0  0  0  0  0  0  0  0  0  0  0
   38.7920   22.5950   39.0120 O   0  0  0  0  0  0  0  0  0  0  0  0
   39.3820   22.2400   39.7400 H   0  0  0  0  0  0  0  0  0  0  0  0
  1  6  2  0  0  0  0
  1  2  1  0  0  0  0
  2  3  2  0  0  0  0
  3  4  1  0  0  0  0
  3 22  1  0  0  0  0
  5  7  1  0  0  0  0
  5  4  2  0  0  0  0
  6  5  1  0  0  0  0
  7  9  1  0  0  0  0
  8  1  1  0  0  0  0
 10  7  1  0  0  0  0
 11 12  1  0  0  0  0
 12 13  1  0  0  0  0
 13 14  2  0  0  0  0
 13  2  1  0  0  0  0
 14 19  1  0  0  0  0
 15 20  1  0  0  0  0
 15 14  1  0  0  0  0
 16 15  2  0  0  0  0
 17 16  1  0  0  0  0
 18 16  1  0  0  0  0
 18 12  2  0  0  0  0
 21 18  1  0  0  0  0
 22 24  1  0  0  0  0
 22 26  1  0  0  0  0
 23 22  1  0  0  0  0
 25 32  1  0  0  0  0
 25 31  1  0  0  0  0
 26 25  2  0  0  0  0
 27 26  1  0  0  0  0
 27 29  2  0  0  0  0
 28 27  1  0  0  0  0
 29 30  1  0  0  0  0
 30 31  2  0  0  0  0
 31 34  1  0  0  0  0
 33 32  1  0  0  0  0
 34 35  1  0  0  0  0
M  END
>  <minimizedAffinity>
-5.94556618

$$$$

 OpenBabel03272504103D

 35 37  0  0  0  0  0  0  0  0999 V2000
   35.4400   26.1770   31.1260 C   0  0  0  0  0  0  0  0  0  0  0  0
   36.2800   26.8680   31.9800 C   0  0  0  0  0  0  0  0  0  0  0  0
   37.2230   26.1770   32.7780 C   0  0  0  0  0  0  0  0  0  0  0  0
   37.2540   24.8240   32.6610 N   0  0  0  0  0  0  0  0  0  0  0  0
   36.4030   24.1690   31.8010 C   0  0  0  0  0  0  0  0  0  0  0  0
   35.5050   24.8450   31.0410 N   0  0  0  0  0  0  0  0  0  0  0  0
   36.5050   22.7420   31.7410 N   0  0  0  0  0  0  0  0  0  0  0  0
   34.7340   26.7380   30.5320 H   0  0  0  0  0  0  0  0  0  0  0  0
   36.3080   22.1400   32.5820 H   0  0  0  0  0  0  0  0  0  0  0  0
   36.7730   22.2200   30.8880 H   0  0  0  0  0  0  0  0  0  0  0  0
   37.2990   28.6110   29.7110 Cl  0  0  0  0  0  0  0  0  0  0  0  0
   36.5550   29.2830   31.1180 C   0  0  0  0  0  0  0  0  0  0  0  0
   36.1550   28.3470   32.0260 C   0  0  0  0  0  0  0  0  0  0  0  0
   35.5270   28.7990   33.2080 C   0  0  0  0  0  0  0  0  0  0  0  0
   35.3190   30.1140   33.4530 C   0  0  0  0  0  0  0  0  0  0  0  0
   35.7390   31.0410   32.5080 C   0  0  0  0  0  0  0  0  0  0  0  0
   35.4900   32.7460   32.7800 Cl  0  0  0  0  0  0  0  0  0  0  0  0
   36.3430   30.6110   31.3690 C   0  0  0  0  0  0  0  0  0  0  0  0
   35.1580   28.1490   33.9890 H   0  0  0  0  0  0  0  0  0  0  0  0
   34.8430   30.5130   34.3410 H   0  0  0  0  0  0  0  0  0  0  0  0
   36.6890   31.2950   30.5980 H   0  0  0  0  0  0  0  0  0  0  0  0
   38.1020   26.9250   33.6590 C   0  0  0  0  0  0  0  0  0  0  0  0
   38.2090   26.5790   34.6880 H   0  0  0  0  0  0  0  0  0  0  0  0
   37.6520   27.9580   33.7530 H   0  0  0  0  0  0  0  0  0  0  0  0
   40.6000   27.1760   33.9090 C   0  0  0  0  0  0  0  0  0  0  0  0
   39.4680   27.0970   33.0880 C   0  0  0  0  0  0  0  0  0  0  0  0
   39.7120   27.1880   31.7360 C   0  0  0  0  0  0  0  0  0  0  0  0
   38.8170   27.1260   31.1180 H   0  0  0  0  0  0  0  0  0  0  0  0
   40.9380   27.3450   31.1260 C   0  0  0  0  0  3  0  0  0  0  0  0
   42.0290   27.4170   31.9950 C   0  0  0  0  0  3  0  0  0  0  0  0
   41.8490   27.3340   33.3400 C   0  0  0  0  0  0  0  0  0  0  0  0
   40.4170   27.0910   35.3000 O   0  0  0  0  0  0  0  0  0  0  0  0
   40.6080   26.2440   35.8180 H   0  0  0  0  0  0  0  0  0  0  0  0
   42.9400   27.4050   34.2060 O   0  0  0  0  0  0  0  0  0  0  0  0
   43.7820   27.8420   33.8820 H   0  0  0  0  0  0  0  0  0  0  0  0
  1  2  1  0  0  0  0
  2 13  1  0  0  0  0
  2  3  2  0  0  0  0
  3 22  1  0  0  0  0
  4  3  1  0  0  0  0
  5  4  2  0  0  0  0
  6  1  2  0  0  0  0
  6  5  1  0  0  0  0
  7  5  1  0  0  0  0
  7  9  1  0  0  0  0
  8  1  1  0  0  0  0
 10  7  1  0  0  0  0
 11 12  1  0  0  0  0
 12 18  2  0  0  0  0
 12 13  1  0  0  0  0
 13 14  2  0  0  0  0
 14 15  1  0  0  0  0
 14 19  1  0  0  0  0
 15 20  1  0  0  0  0
 16 17  1  0  0  0  0
 16 15  2  0  0  0  0
 18 16  1  0  0  0  0
 21 18  1  0  0  0  0
 22 24  1  0  0  0  0
 22 23  1  0  0  0  0
 25 32  1  0  0  0  0
 26 22  1  0  0  0  0
 26 25  2  0  0  0  0
 27 26  1  0  0  0  0
 28 27  1  0  0  0  0
 29 27  2  0  0  0  0
 29 30  1  0  0  0  0
 30 31  2  0  0  0  0
 31 25  1  0  0  0  0
 31 34  1  0  0  0  0
 32 33  1  0  0  0  0
 35 34  1  0  0  0  0
M  END
>  <minimizedAffinity>
-5.85643148

$$$$

 OpenBabel03272504103D

 35 37  0  0  0  0  0  0  0  0999 V2000
   38.6650   26.2970   35.9730 C   0  0  0  0  0  0  0  0  0  0  0  0
   38.9540   25.2060   35.1760 C   0  0  0  0  0  0  0  0  0  0  0  0
   38.3510   25.0630   33.9030 C   0  0  0  0  0  0  0  0  0  0  0  0
   37.4880   26.0390   33.5190 N   0  0  0  0  0  0  0  0  0  0  0  0
   37.2230   27.1120   34.3380 C   0  0  0  0  0  0  0  0  0  0  0  0
   37.8100   27.2360   35.5550 N   0  0  0  0  0  0  0  0  0  0  0  0
   36.3010   28.0940   33.8520 N   0  0  0  0  0  0  0  0  0  0  0  0
   39.1440   26.3730   36.9370 H   0  0  0  0  0  0  0  0  0  0  0  0
   35.2970   27.8530   33.6470 H   0  0  0  0  0  0  0  0  0  0  0  0
   36.5550   29.0820   33.6740 H   0  0  0  0  0  0  0  0  0  0  0  0
   41.8330   25.1100   34.2120 Cl  0  0  0  0  0  0  0  0  0  0  0  0
   41.2240   24.0000   35.3870 C   0  0  0  0  0  0  0  0  0  0  0  0
   39.9120   24.1990   35.7010 C   0  0  0  0  0  0  0  0  0  0  0  0
   39.3240   23.3450   36.6600 C   0  0  0  0  0  0  0  0  0  0  0  0
   40.0230   22.3530   37.2610 C   0  0  0  0  0  0  0  0  0  0  0  0
   41.3560   22.1760   36.9180 C   0  0  0  0  0  0  0  0  0  0  0  0
   42.2960   20.9120   37.6690 Cl  0  0  0  0  0  0  0  0  0  0  0  0
   41.9260   22.9970   35.9970 C   0  0  0  0  0  0  0  0  0  0  0  0
   38.2990   23.4170   36.9960 H   0  0  0  0  0  0  0  0  0  0  0  0
   39.6210   21.6710   38.0020 H   0  0  0  0  0  0  0  0  0  0  0  0
   42.9660   22.9010   35.6940 H   0  0  0  0  0  0  0  0  0  0  0  0
   38.6790   23.9130   33.0790 C   0  0  0  0  0  0  0  0  0  0  0  0
   39.4270   23.2130   33.4540 H   0  0  0  0  0  0  0  0  0  0  0  0
   39.1280   24.3230   32.1270 H   0  0  0  0  0  0  0  0  0  0  0  0
   37.0700   21.9980   33.4080 C   0  0  0  0  0  0  0  0  0  0  0  0
   37.4730   23.1300   32.6890 C   0  0  0  0  0  0  0  0  0  0  0  0
   36.6790   23.4580   31.6120 C   0  0  0  0  0  0  0  0  0  0  0  0
   37.0120   24.3400   31.0670 H   0  0  0  0  0  0  0  0  0  0  0  0
   35.5500   22.7930   31.1840 C   0  0  0  0  0  3  0  0  0  0  0  0
   35.1990   21.6720   31.9400 C   0  0  0  0  0  3  0  0  0  0  0  0
   35.9440   21.2990   33.0130 C   0  0  0  0  0  0  0  0  0  0  0  0
   37.8400   21.6100   34.5180 O   0  0  0  0  0  0  0  0  0  0  0  0
   37.5530   21.8070   35.4670 H   0  0  0  0  0  0  0  0  0  0  0  0
   35.5910   20.1810   33.7680 O   0  0  0  0  0  0  0  0  0  0  0  0
   35.0150   19.4780   33.3440 H   0  0  0  0  0  0  0  0  0  0  0  0
  1  8  1  0  0  0  0
  2 13  1  0  0  0  0
  2  1  2  0  0  0  0
  3  2  1  0  0  0  0
  4  3  2  0  0  0  0
  4  5  1  0  0  0  0
  5  6  2  0  0  0  0
  6  1  1  0  0  0  0
  7  5  1  0  0  0  0
  9  7  1  0  0  0  0
 10  7  1  0  0  0  0
 11 12  1  0  0  0  0
 12 13  2  0  0  0  0
 12 18  1  0  0  0  0
 13 14  1  0  0  0  0
 14 19  1  0  0  0  0
 14 15  2  0  0  0  0
 15 20  1  0  0  0  0
 16 15  1  0  0  0  0
 16 17  1  0  0  0  0
 18 16  2  0  0  0  0
 21 18  1  0  0  0  0
 22 23  1  0  0  0  0
 22  3  1  0  0  0  0
 24 22  1  0  0  0  0
 25 32  1  0  0  0  0
 26 22  1  0  0  0  0
 26 25  2  0  0  0  0
 27 26  1  0  0  0  0
 28 27  1  0  0  0  0
 29 27  2  0  0  0  0
 29 30  1  0  0  0  0
 30 31  2  0  0  0  0
 31 25  1  0  0  0  0
 31 34  1  0  0  0  0
 32 33  1  0  0  0  0
 35 34  1  0  0  0  0
M  END
>  <minimizedAffinity>
-5.8076005

$$$$

 OpenBabel03272504103D

 35 37  0  0  0  0  0  0  0  0999 V2000
   36.2640   21.0670   33.7680 C   0  0  0  0  0  0  0  0  0  0  0  0
   37.3900   21.8570   33.9090 C   0  0  0  0  0  0  0  0  0  0  0  0
   37.8090   22.2940   35.1880 C   0  0  0  0  0  0  0  0  0  0  0  0
   37.0560   21.9030   36.2480 N   0  0  0  0  0  0  0  0  0  0  0  0
   35.9400   21.1170   36.0730 C   0  0  0  0  0  0  0  0  0  0  0  0
   35.5520   20.7050   34.8400 N   0  0  0  0  0  0  0  0  0  0  0  0
   35.2060   20.7510   37.2460 N   0  0  0  0  0  0  0  0  0  0  0  0
   35.9750   20.7520   32.7770 H   0  0  0  0  0  0  0  0  0  0  0  0
   34.7440   21.4760   37.8550 H   0  0  0  0  0  0  0  0  0  0  0  0
   35.0850   19.7750   37.5670 H   0  0  0  0  0  0  0  0  0  0  0  0
   37.1250   24.6160   32.6650 Cl  0  0  0  0  0  0  0  0  0  0  0  0
   38.1370   23.3960   31.9790 C   0  0  0  0  0  0  0  0  0  0  0  0
   38.1350   22.2250   32.6770 C   0  0  0  0  0  0  0  0  0  0  0  0
   38.9400   21.1680   32.1980 C   0  0  0  0  0  0  0  0  0  0  0  0
   39.6970   21.2910   31.0830 C   0  0  0  0  0  0  0  0  0  0  0  0
   39.6770   22.4960   30.3950 C   0  0  0  0  0  0  0  0  0  0  0  0
   40.6390   22.7020   28.9540 Cl  0  0  0  0  0  0  0  0  0  0  0  0
   38.9040   23.5170   30.8520 C   0  0  0  0  0  0  0  0  0  0  0  0
   39.0270   20.2020   32.6760 H   0  0  0  0  0  0  0  0  0  0  0  0
   40.3310   20.5120   30.6730 H   0  0  0  0  0  0  0  0  0  0  0  0
   38.8530   24.4800   30.3510 H   0  0  0  0  0  0  0  0  0  0  0  0
   39.0010   23.1140   35.3100 C   0  0  0  0  0  0  0  0  0  0  0  0
   38.9830   23.9400   36.0230 H   0  0  0  0  0  0  0  0  0  0  0  0
   39.1490   23.6100   34.3060 H   0  0  0  0  0  0  0  0  0  0  0  0
   40.5410   21.8650   36.8700 C   0  0  0  0  0  0  0  0  0  0  0  0
   40.2230   22.3040   35.5790 C   0  0  0  0  0  0  0  0  0  0  0  0
   41.1120   21.9340   34.5950 C   0  0  0  0  0  0  0  0  0  0  0  0
   40.8450   22.2890   33.6000 H   0  0  0  0  0  0  0  0  0  0  0  0
   42.2600   21.1880   34.7550 C   0  0  0  0  0  3  0  0  0  0  0  0
   42.5240   20.7790   36.0640 C   0  0  0  0  0  3  0  0  0  0  0  0
   41.6830   21.1140   37.0770 C   0  0  0  0  0  0  0  0  0  0  0  0
   39.6730   22.2110   37.9200 O   0  0  0  0  0  0  0  0  0  0  0  0
   39.0070   21.5560   38.3070 H   0  0  0  0  0  0  0  0  0  0  0  0
   41.9480   20.7040   38.3830 O   0  0  0  0  0  0  0  0  0  0  0  0
   42.8900   20.4650   38.6300 H   0  0  0  0  0  0  0  0  0  0  0  0
  1  2  2  0  0  0  0
  1  6  1  0  0  0  0
  2  3  1  0  0  0  0
  3 22  1  0  0  0  0
  3  4  2  0  0  0  0
  5  4  1  0  0  0  0
  5  7  1  0  0  0  0
  6  5  2  0  0  0  0
  7 10  1  0  0  0  0
  7  9  1  0  0  0  0
  8  1  1  0  0  0  0
 12 11  1  0  0  0  0
 12 13  1  0  0  0  0
 13  2  1  0  0  0  0
 14 19  1  0  0  0  0
 14 13  2  0  0  0  0
 15 14  1  0  0  0  0
 16 18  1  0  0  0  0
 16 15  2  0  0  0  0
 17 16  1  0  0  0  0
 18 12  2  0  0  0  0
 20 15  1  0  0  0  0
 21 18  1  0  0  0  0
 22 26  1  0  0  0  0
 22 23  1  0  0  0  0
 24 22  1  0  0  0  0
 25 31  1  0  0  0  0
 25 32  1  0  0  0  0
 26 25  2  0  0  0  0
 27 29  2  0  0  0  0
 27 26  1  0  0  0  0
 28 27  1  0  0  0  0
 29 30  1  0  0  0  0
 30 31  2  0  0  0  0
 31 34  1  0  0  0  0
 32 33  1  0  0  0  0
 34 35  1  0  0  0  0
M  END
>  <minimizedAffinity>
-5.8043685

$$$$

 OpenBabel03272504103D

 35 37  0  0  0  0  0  0  0  0999 V2000
   36.9760   28.5480   29.8380 C   0  0  0  0  0  0  0  0  0  0  0  0
   36.6300   28.1340   31.1110 C   0  0  0  0  0  0  0  0  0  0  0  0
   36.3320   29.0810   32.1200 C   0  0  0  0  0  0  0  0  0  0  0  0
   36.4060   30.3920   31.7740 N   0  0  0  0  0  0  0  0  0  0  0  0
   36.7550   30.7690   30.4980 C   0  0  0  0  0  0  0  0  0  0  0  0
   37.0360   29.8490   29.5400 N   0  0  0  0  0  0  0  0  0  0  0  0
   36.8070   32.1730   30.2210 N   0  0  0  0  0  0  0  0  0  0  0  0
   37.1960   27.7970   29.0940 H   0  0  0  0  0  0  0  0  0  0  0  0
   37.4840   32.8070   30.7190 H   0  0  0  0  0  0  0  0  0  0  0  0
   36.1980   32.6450   29.5300 H   0  0  0  0  0  0  0  0  0  0  0  0
   38.9680   26.6840   32.3970 Cl  0  0  0  0  0  0  0  0  0  0  0  0
   37.5250   25.8580   31.9300 C   0  0  0  0  0  0  0  0  0  0  0  0
   36.5820   26.6730   31.3750 C   0  0  0  0  0  0  0  0  0  0  0  0
   35.3620   26.0910   30.9670 C   0  0  0  0  0  0  0  0  0  0  0  0
   35.1140   24.7670   31.1120 C   0  0  0  0  0  0  0  0  0  0  0  0
   36.0950   23.9660   31.6810 C   0  0  0  0  0  0  0  0  0  0  0  0
   35.8190   22.2560   31.8900 Cl  0  0  0  0  0  0  0  0  0  0  0  0
   37.2700   24.5220   32.0750 C   0  0  0  0  0  0  0  0  0  0  0  0
   34.5400   26.6390   30.5280 H   0  0  0  0  0  0  0  0  0  0  0  0
   34.1970   24.2710   30.8170 H   0  0  0  0  0  0  0  0  0  0  0  0
   38.0700   23.9390   32.5260 H   0  0  0  0  0  0  0  0  0  0  0  0
   35.9590   28.6220   33.4460 C   0  0  0  0  0  0  0  0  0  0  0  0
   36.7280   28.1430   34.0560 H   0  0  0  0  0  0  0  0  0  0  0  0
   35.1770   27.8200   33.2960 H   0  0  0  0  0  0  0  0  0  0  0  0
   33.9570   29.9650   34.1880 C   0  0  0  0  0  0  0  0  0  0  0  0
   35.3290   29.6960   34.2650 C   0  0  0  0  0  0  0  0  0  0  0  0
   36.0370   30.4870   35.1420 C   0  0  0  0  0  0  0  0  0  0  0  0
   37.1020   30.2600   35.1830 H   0  0  0  0  0  0  0  0  0  0  0  0
   35.5350   31.4960   35.9350 C   0  0  0  0  0  3  0  0  0  0  0  0
   34.1610   31.7180   35.8150 C   0  0  0  0  0  3  0  0  0  0  0  0
   33.4100   30.9690   34.9650 C   0  0  0  0  0  0  0  0  0  0  0  0
   33.1780   29.1920   33.3090 O   0  0  0  0  0  0  0  0  0  0  0  0
   32.5920   28.4340   33.6330 H   0  0  0  0  0  0  0  0  0  0  0  0
   32.0390   31.1910   34.8480 O   0  0  0  0  0  0  0  0  0  0  0  0
   31.6730   32.0850   35.1160 H   0  0  0  0  0  0  0  0  0  0  0  0
  1  2  1  0  0  0  0
  2 13  1  0  0  0  0
  2  3  2  0  0  0  0
  3 22  1  0  0  0  0
  4  3  1  0  0  0  0
  5  4  2  0  0  0  0
  6  1  2  0  0  0  0
  6  5  1  0  0  0  0
  7  5  1  0  0  0  0
  7  9  1  0  0  0  0
  8  1  1  0  0  0  0
 10  7  1  0  0  0  0
 12 18  1  0  0  0  0
 12 11  1  0  0  0  0
 13 12  2  0  0  0  0
 14 15  2  0  0  0  0
 14 13  1  0  0  0  0
 15 16  1  0  0  0  0
 16 17  1  0  0  0  0
 16 18  2  0  0  0  0
 18 21  1  0  0  0  0
 19 14  1  0  0  0  0
 20 15  1  0  0  0  0
 22 23  1  0  0  0  0
 22 26  1  0  0  0  0
 24 22  1  0  0  0  0
 25 26  2  0  0  0  0
 25 31  1  0  0  0  0
 26 27  1  0  0  0  0
 27 28  1  0  0  0  0
 27 29  2  0  0  0  0
 30 29  1  0  0  0  0
 31 30  2  0  0  0  0
 32 33  1  0  0  0  0
 32 25  1  0  0  0  0
 34 31  1  0  0  0  0
 34 35  1  0  0  0  0
M  END
>  <minimizedAffinity>
-5.80306816

$$$$
