
 OpenBabel03272505563D

 36 38  0  0  1  0  0  0  0  0999 V2000
   38.8440   25.5160   32.4310 C   0  0  2  0  0  0  0  0  0  0  0  0
   39.1210   24.6220   33.5700 C   0  0  0  0  0  0  0  0  0  0  0  0
   39.1970   25.3990   34.8810 C   0  0  2  0  0  0  0  0  0  0  0  0
   40.3310   26.3710   34.8540 C   0  0  0  0  0  0  0  0  0  0  0  0
   40.3890   27.1450   33.5490 C   0  0  0  0  0  0  0  0  0  0  0  0
   39.1610   26.9530   32.7080 C   0  0  0  0  0  0  0  0  0  0  0  0
   39.4800   25.2260   31.5340 H   0  0  0  0  0  0  0  0  0  0  0  0
   38.5970   23.7010   33.6820 H   0  0  0  0  0  0  0  0  0  0  0  0
   40.1960   24.3410   33.4440 H   0  0  0  0  0  0  0  0  0  0  0  0
   38.2500   26.0400   34.8430 H   0  0  0  0  0  0  0  0  0  0  0  0
   41.2800   25.8670   35.0790 H   0  0  0  0  0  0  0  0  0  0  0  0
   40.1500   27.0700   35.7220 H   0  0  0  0  0  0  0  0  0  0  0  0
   40.4610   28.2190   33.8020 H   0  0  0  0  0  0  0  0  0  0  0  0
   41.3080   26.8980   32.9720 H   0  0  0  0  0  0  0  0  0  0  0  0
   39.3450   27.4920   31.7560 H   0  0  0  0  0  0  0  0  0  0  0  0
   38.3030   27.4990   33.1760 H   0  0  0  0  0  0  0  0  0  0  0  0
   37.4720   25.4480   31.9230 C   0  0  0  0  0  0  0  0  0  0  0  0
   36.9420   24.1530   31.7260 C   0  0  0  0  0  0  0  0  0  0  0  0
   35.6330   24.0630   31.2040 C   0  0  0  0  0  0  0  0  0  0  0  0
   34.9510   25.2290   30.9180 N   0  0  0  0  0  0  0  0  0  0  0  0
   35.5100   26.4390   31.1270 C   0  0  0  0  0  0  0  0  0  0  0  0
   36.7420   26.5420   31.6190 N   0  0  0  0  0  0  0  0  0  0  0  0
   37.4410   23.2320   31.9370 H   0  0  0  0  0  0  0  0  0  0  0  0
   35.1650   23.1140   31.0280 H   0  0  0  0  0  0  0  0  0  0  0  0
   34.8600   27.2630   30.8590 H   0  0  0  0  0  0  0  0  0  0  0  0
   39.8450   23.5260   36.4890 C   0  0  0  0  0  0  0  0  0  0  0  0
   39.0830   24.6140   36.0850 C   0  0  0  0  0  0  0  0  0  0  0  0
   38.1130   24.8960   37.0600 C   0  0  0  0  0  0  0  0  0  0  0  0
   37.4420   25.7450   36.8520 H   0  0  0  0  0  0  0  0  0  0  0  0
   37.8920   24.2460   38.2460 C   0  0  0  0  0  3  0  0  0  0  0  0
   38.7230   23.1840   38.5210 C   0  0  0  0  0  3  0  0  0  0  0  0
   39.7120   22.8140   37.6380 C   0  0  0  0  0  0  0  0  0  0  0  0
   40.8590   23.1010   35.6440 O   0  0  0  0  0  0  0  0  0  0  0  0
   40.6340   22.3980   34.9530 H   0  0  0  0  0  0  0  0  0  0  0  0
   40.5210   21.7400   37.9580 O   0  0  0  0  0  0  0  0  0  0  0  0
   40.2070   20.7760   38.0390 H   0  0  0  0  0  0  0  0  0  0  0  0
  1  7  1  6  0  0  0
  1  6  1  0  0  0  0
  1  2  1  0  0  0  0
  2  8  1  0  0  0  0
  2  3  1  0  0  0  0
  3 10  1  6  0  0  0
  3 27  1  0  0  0  0
  4  3  1  0  0  0  0
  4 11  1  0  0  0  0
  4 12  1  0  0  0  0
  5 13  1  0  0  0  0
  5  4  1  0  0  0  0
  6 16  1  0  0  0  0
  6  5  1  0  0  0  0
  9  2  1  0  0  0  0
 14  5  1  0  0  0  0
 15  6  1  0  0  0  0
 17  1  1  0  0  0  0
 18 17  1  0  0  0  0
 18 23  1  0  0  0  0
 19 18  2  0  0  0  0
 20 21  2  0  0  0  0
 20 19  1  0  0  0  0
 21 22  1  0  0  0  0
 22 17  2  0  0  0  0
 24 19  1  0  0  0  0
 25 21  1  0  0  0  0
 26 32  1  0  0  0  0
 27 26  2  0  0  0  0
 27 28  1  0  0  0  0
 28 30  2  0  0  0  0
 29 28  1  0  0  0  0
 30 31  1  0  0  0  0
 32 35  1  0  0  0  0
 32 31  2  0  0  0  0
 33 26  1  0  0  0  0
 34 33  1  0  0  0  0
 35 36  1  0  0  0  0
M  END
>  <minimizedAffinity>
-6.31750154

$$$$

 OpenBabel03272505563D

 36 38  0  0  1  0  0  0  0  0999 V2000
   37.8480   26.4390   33.1900 C   0  0  2  0  0  0  0  0  0  0  0  0
   39.0910   25.7940   33.6490 C   0  0  0  0  0  0  0  0  0  0  0  0
   39.0260   25.4540   35.1340 C   0  0  2  0  0  0  0  0  0  0  0  0
   38.8970   26.6960   35.9550 C   0  0  0  0  0  0  0  0  0  0  0  0
   37.8640   27.6530   35.3850 C   0  0  0  0  0  0  0  0  0  0  0  0
   37.0350   27.0300   34.3010 C   0  0  0  0  0  0  0  0  0  0  0  0
   38.0840   27.3020   32.4870 H   0  0  0  0  0  0  0  0  0  0  0  0
   39.5430   25.0140   33.0800 H   0  0  0  0  0  0  0  0  0  0  0  0
   39.8400   26.6240   33.6680 H   0  0  0  0  0  0  0  0  0  0  0  0
   38.0130   24.9280   35.2230 H   0  0  0  0  0  0  0  0  0  0  0  0
   39.8750   27.1750   36.0920 H   0  0  0  0  0  0  0  0  0  0  0  0
   38.5880   26.3470   36.9840 H   0  0  0  0  0  0  0  0  0  0  0  0
   37.1850   27.9390   36.2080 H   0  0  0  0  0  0  0  0  0  0  0  0
   38.3390   28.5950   35.0300 H   0  0  0  0  0  0  0  0  0  0  0  0
   36.3790   27.8320   33.9060 H   0  0  0  0  0  0  0  0  0  0  0  0
   36.3280   26.2890   34.7550 H   0  0  0  0  0  0  0  0  0  0  0  0
   36.9680   25.5750   32.3990 C   0  0  0  0  0  0  0  0  0  0  0  0
   35.9750   26.2280   31.6350 C   0  0  0  0  0  0  0  0  0  0  0  0
   35.0930   25.4130   30.8910 C   0  0  0  0  0  0  0  0  0  0  0  0
   35.2480   24.0420   30.9480 N   0  0  0  0  0  0  0  0  0  0  0  0
   36.2180   23.4750   31.6970 C   0  0  0  0  0  0  0  0  0  0  0  0
   37.0570   24.2280   32.4030 N   0  0  0  0  0  0  0  0  0  0  0  0
   35.8270   27.2840   31.5680 H   0  0  0  0  0  0  0  0  0  0  0  0
   34.3130   25.8370   30.2890 H   0  0  0  0  0  0  0  0  0  0  0  0
   36.2210   22.3930   31.6450 H   0  0  0  0  0  0  0  0  0  0  0  0
   39.8370   23.4770   36.5290 C   0  0  0  0  0  0  0  0  0  0  0  0
   39.9990   24.5000   35.6050 C   0  0  0  0  0  0  0  0  0  0  0  0
   41.3210   24.5010   35.1310 C   0  0  0  0  0  0  0  0  0  0  0  0
   41.5740   25.2730   34.3870 H   0  0  0  0  0  0  0  0  0  0  0  0
   42.3440   23.6580   35.4790 C   0  0  0  0  0  3  0  0  0  0  0  0
   42.0430   22.6870   36.4080 C   0  0  0  0  0  3  0  0  0  0  0  0
   40.7790   22.5900   36.9430 C   0  0  0  0  0  0  0  0  0  0  0  0
   38.5860   23.3240   37.1070 O   0  0  0  0  0  0  0  0  0  0  0  0
   38.3990   23.8230   37.9660 H   0  0  0  0  0  0  0  0  0  0  0  0
   40.5240   21.5990   37.8730 O   0  0  0  0  0  0  0  0  0  0  0  0
   40.9410   21.5470   38.7990 H   0  0  0  0  0  0  0  0  0  0  0  0
  1  7  1  6  0  0  0
  1  2  1  0  0  0  0
  1  6  1  0  0  0  0
  2  9  1  0  0  0  0
  2  3  1  0  0  0  0
  3 10  1  1  0  0  0
  3 27  1  0  0  0  0
  3  4  1  0  0  0  0
  4 11  1  0  0  0  0
  4 12  1  0  0  0  0
  5  4  1  0  0  0  0
  5 13  1  0  0  0  0
  6 16  1  0  0  0  0
  6  5  1  0  0  0  0
  8  2  1  0  0  0  0
 14  5  1  0  0  0  0
 15  6  1  0  0  0  0
 17 22  1  0  0  0  0
 17  1  1  0  0  0  0
 18 17  2  0  0  0  0
 19 20  2  0  0  0  0
 19 18  1  0  0  0  0
 20 21  1  0  0  0  0
 21 22  2  0  0  0  0
 23 18  1  0  0  0  0
 24 19  1  0  0  0  0
 25 21  1  0  0  0  0
 26 32  1  0  0  0  0
 26 33  1  0  0  0  0
 27 26  2  0  0  0  0
 28 30  2  0  0  0  0
 28 27  1  0  0  0  0
 29 28  1  0  0  0  0
 30 31  1  0  0  0  0
 31 32  2  0  0  0  0
 32 35  1  0  0  0  0
 33 34  1  0  0  0  0
 35 36  1  0  0  0  0
M  END
>  <minimizedAffinity>
-5.98154783

$$$$

 OpenBabel03272505563D

 36 38  0  0  1  0  0  0  0  0999 V2000
   39.9970   27.1860   33.5120 C   0  0  2  0  0  0  0  0  0  0  0  0
   39.6110   26.6840   34.8430 C   0  0  0  0  0  0  0  0  0  0  0  0
   39.0610   25.2630   34.7630 C   0  0  2  0  0  0  0  0  0  0  0  0
   37.8110   25.2250   33.9470 C   0  0  0  0  0  0  0  0  0  0  0  0
   37.9430   26.0240   32.6620 C   0  0  0  0  0  0  0  0  0  0  0  0
   39.3570   26.4390   32.3820 C   0  0  0  0  0  0  0  0  0  0  0  0
   39.6740   28.2700   33.3870 H   0  0  0  0  0  0  0  0  0  0  0  0
   40.2520   26.8170   35.6840 H   0  0  0  0  0  0  0  0  0  0  0  0
   38.6750   27.2450   35.0880 H   0  0  0  0  0  0  0  0  0  0  0  0
   39.8510   24.7280   34.1300 H   0  0  0  0  0  0  0  0  0  0  0  0
   36.9470   25.5420   34.5450 H   0  0  0  0  0  0  0  0  0  0  0  0
   37.6320   24.1340   33.7190 H   0  0  0  0  0  0  0  0  0  0  0  0
   37.6100   25.3750   31.8310 H   0  0  0  0  0  0  0  0  0  0  0  0
   37.2630   26.9050   32.6620 H   0  0  0  0  0  0  0  0  0  0  0  0
   39.3250   27.0770   31.4750 H   0  0  0  0  0  0  0  0  0  0  0  0
   39.9520   25.5420   32.0710 H   0  0  0  0  0  0  0  0  0  0  0  0
   41.4410   27.2210   33.2680 C   0  0  0  0  0  0  0  0  0  0  0  0
   42.2530   26.5820   34.2320 C   0  0  0  0  0  0  0  0  0  0  0  0
   43.6500   26.6330   34.0360 C   0  0  0  0  0  0  0  0  0  0  0  0
   44.1410   27.2940   32.9270 N   0  0  0  0  0  0  0  0  0  0  0  0
   43.3150   27.8860   32.0390 C   0  0  0  0  0  0  0  0  0  0  0  0
   41.9960   27.8480   32.2090 N   0  0  0  0  0  0  0  0  0  0  0  0
   41.9070   26.0630   35.1000 H   0  0  0  0  0  0  0  0  0  0  0  0
   44.3290   26.1720   34.7260 H   0  0  0  0  0  0  0  0  0  0  0  0
   43.8380   28.3650   31.2210 H   0  0  0  0  0  0  0  0  0  0  0  0
   39.7850   23.4620   36.4200 C   0  0  0  0  0  0  0  0  0  0  0  0
   39.0100   24.5370   36.0080 C   0  0  0  0  0  0  0  0  0  0  0  0
   38.0990   24.8770   37.0220 C   0  0  0  0  0  0  0  0  0  0  0  0
   37.4240   25.7220   36.8110 H   0  0  0  0  0  0  0  0  0  0  0  0
   37.9420   24.2870   38.2490 C   0  0  0  0  0  3  0  0  0  0  0  0
   38.7780   23.2300   38.5270 C   0  0  0  0  0  3  0  0  0  0  0  0
   39.7120   22.8080   37.6080 C   0  0  0  0  0  0  0  0  0  0  0  0
   40.7460   22.9860   35.5410 O   0  0  0  0  0  0  0  0  0  0  0  0
   40.4750   22.2530   34.8990 H   0  0  0  0  0  0  0  0  0  0  0  0
   40.5300   21.7410   37.9330 O   0  0  0  0  0  0  0  0  0  0  0  0
   40.2130   20.7860   38.0780 H   0  0  0  0  0  0  0  0  0  0  0  0
  1  7  1  6  0  0  0
  1  2  1  0  0  0  0
  2  9  1  0  0  0  0
  2  8  1  0  0  0  0
  3 10  1  6  0  0  0
  3  2  1  0  0  0  0
  3 27  1  0  0  0  0
  4 11  1  0  0  0  0
  4  3  1  0  0  0  0
  5 14  1  0  0  0  0
  5  4  1  0  0  0  0
  6  5  1  0  0  0  0
  6  1  1  0  0  0  0
 12  4  1  0  0  0  0
 13  5  1  0  0  0  0
 15  6  1  0  0  0  0
 16  6  1  0  0  0  0
 17  1  1  0  0  0  0
 17 18  1  0  0  0  0
 18 23  1  0  0  0  0
 19 18  2  0  0  0  0
 19 24  1  0  0  0  0
 20 19  1  0  0  0  0
 21 22  1  0  0  0  0
 21 20  2  0  0  0  0
 22 17  2  0  0  0  0
 25 21  1  0  0  0  0
 26 32  1  0  0  0  0
 27 26  2  0  0  0  0
 27 28  1  0  0  0  0
 28 30  2  0  0  0  0
 29 28  1  0  0  0  0
 30 31  1  0  0  0  0
 32 35  1  0  0  0  0
 32 31  2  0  0  0  0
 33 26  1  0  0  0  0
 34 33  1  0  0  0  0
 35 36  1  0  0  0  0
M  END
>  <minimizedAffinity>
-5.769382

$$$$

 OpenBabel03272505563D

 36 38  0  0  1  0  0  0  0  0999 V2000
   37.8380   22.8040   32.1180 C   0  0  2  0  0  0  0  0  0  0  0  0
   38.5550   22.7650   33.4040 C   0  0  0  0  0  0  0  0  0  0  0  0
   38.0170   23.8130   34.3730 C   0  0  2  0  0  0  0  0  0  0  0  0
   38.2360   25.1900   33.8390 C   0  0  0  0  0  0  0  0  0  0  0  0
   37.8590   25.3000   32.3710 C   0  0  0  0  0  0  0  0  0  0  0  0
   37.1170   24.0950   31.8740 C   0  0  0  0  0  0  0  0  0  0  0  0
   38.5670   22.6890   31.2520 H   0  0  0  0  0  0  0  0  0  0  0  0
   38.7570   21.8380   33.8890 H   0  0  0  0  0  0  0  0  0  0  0  0
   39.5570   23.2060   33.1730 H   0  0  0  0  0  0  0  0  0  0  0  0
   36.8860   23.6430   34.3170 H   0  0  0  0  0  0  0  0  0  0  0  0
   39.2650   25.5220   34.0280 H   0  0  0  0  0  0  0  0  0  0  0  0
   37.5840   25.8650   34.4670 H   0  0  0  0  0  0  0  0  0  0  0  0
   37.1940   26.1760   32.2630 H   0  0  0  0  0  0  0  0  0  0  0  0
   38.7520   25.5060   31.7390 H   0  0  0  0  0  0  0  0  0  0  0  0
   36.9660   24.2460   30.7850 H   0  0  0  0  0  0  0  0  0  0  0  0
   36.0820   24.0940   32.3020 H   0  0  0  0  0  0  0  0  0  0  0  0
   36.8830   21.7110   31.9180 C   0  0  0  0  0  0  0  0  0  0  0  0
   37.2740   20.6990   31.0120 C   0  0  0  0  0  0  0  0  0  0  0  0
   36.3550   19.6530   30.7780 C   0  0  0  0  0  0  0  0  0  0  0  0
   35.1420   19.6730   31.4380 N   0  0  0  0  0  0  0  0  0  0  0  0
   34.8250   20.6680   32.2940 C   0  0  0  0  0  0  0  0  0  0  0  0
   35.6790   21.6620   32.5260 N   0  0  0  0  0  0  0  0  0  0  0  0
   38.2020   20.6520   30.4850 H   0  0  0  0  0  0  0  0  0  0  0  0
   36.5810   18.8510   30.1030 H   0  0  0  0  0  0  0  0  0  0  0  0
   33.8440   20.5540   32.7390 H   0  0  0  0  0  0  0  0  0  0  0  0
   39.3340   22.7950   36.3090 C   0  0  0  0  0  0  0  0  0  0  0  0
   38.3650   23.6250   35.7600 C   0  0  0  0  0  0  0  0  0  0  0  0
   37.7100   24.3260   36.7860 C   0  0  0  0  0  0  0  0  0  0  0  0
   36.9140   25.0210   36.4740 H   0  0  0  0  0  0  0  0  0  0  0  0
   37.9370   24.2550   38.1360 C   0  0  0  0  0  3  0  0  0  0  0  0
   38.9290   23.3910   38.5420 C   0  0  0  0  0  3  0  0  0  0  0  0
   39.6380   22.6500   37.6240 C   0  0  0  0  0  0  0  0  0  0  0  0
   40.0850   22.0200   35.4390 O   0  0  0  0  0  0  0  0  0  0  0  0
   39.7440   21.0950   35.2160 H   0  0  0  0  0  0  0  0  0  0  0  0
   40.6250   21.7960   38.0800 O   0  0  0  0  0  0  0  0  0  0  0  0
   40.4630   20.9690   38.6510 H   0  0  0  0  0  0  0  0  0  0  0  0
  1  7  1  6  0  0  0
  1  2  1  0  0  0  0
  2  8  1  0  0  0  0
  2  3  1  0  0  0  0
  3 10  1  6  0  0  0
  3 27  1  0  0  0  0
  4 11  1  0  0  0  0
  4  3  1  0  0  0  0
  4 12  1  0  0  0  0
  5  4  1  0  0  0  0
  6  1  1  0  0  0  0
  6 16  1  0  0  0  0
  6  5  1  0  0  0  0
  9  2  1  0  0  0  0
 13  5  1  0  0  0  0
 14  5  1  0  0  0  0
 15  6  1  0  0  0  0
 17  1  1  0  0  0  0
 17 22  1  0  0  0  0
 18 17  2  0  0  0  0
 19 18  1  0  0  0  0
 19 20  2  0  0  0  0
 20 21  1  0  0  0  0
 21 22  2  0  0  0  0
 21 25  1  0  0  0  0
 23 18  1  0  0  0  0
 24 19  1  0  0  0  0
 26 32  1  0  0  0  0
 27 26  2  0  0  0  0
 27 28  1  0  0  0  0
 28 30  2  0  0  0  0
 29 28  1  0  0  0  0
 30 31  1  0  0  0  0
 32 35  1  0  0  0  0
 32 31  2  0  0  0  0
 33 26  1  0  0  0  0
 34 33  1  0  0  0  0
 35 36  1  0  0  0  0
M  END
>  <minimizedAffinity>
-5.71336842

$$$$

 OpenBabel03272505563D

 36 38  0  0  1  0  0  0  0  0999 V2000
   36.5110   23.4680   30.9270 C   0  0  2  0  0  0  0  0  0  0  0  0
   37.6300   24.2880   31.4250 C   0  0  0  0  0  0  0  0  0  0  0  0
   37.1500   25.3370   32.4230 C   0  0  2  0  0  0  0  0  0  0  0  0
   36.2140   26.3000   31.7680 C   0  0  0  0  0  0  0  0  0  0  0  0
   35.1810   25.5950   30.9050 C   0  0  0  0  0  0  0  0  0  0  0  0
   35.1700   24.1100   31.1140 C   0  0  0  0  0  0  0  0  0  0  0  0
   36.6150   23.2910   29.8080 H   0  0  0  0  0  0  0  0  0  0  0  0
   38.5450   23.8350   31.7310 H   0  0  0  0  0  0  0  0  0  0  0  0
   37.8960   24.9450   30.5600 H   0  0  0  0  0  0  0  0  0  0  0  0
   36.4990   24.7210   33.1350 H   0  0  0  0  0  0  0  0  0  0  0  0
   36.7700   27.0630   31.2090 H   0  0  0  0  0  0  0  0  0  0  0  0
   35.7110   26.8550   32.6140 H   0  0  0  0  0  0  0  0  0  0  0  0
   34.1870   25.9850   31.1910 H   0  0  0  0  0  0  0  0  0  0  0  0
   35.3170   25.8440   29.8290 H   0  0  0  0  0  0  0  0  0  0  0  0
   34.4450   23.6950   30.3840 H   0  0  0  0  0  0  0  0  0  0  0  0
   34.7220   23.8800   32.1140 H   0  0  0  0  0  0  0  0  0  0  0  0
   36.4460   22.1180   31.4900 C   0  0  0  0  0  0  0  0  0  0  0  0
   35.2500   21.7780   32.1620 C   0  0  0  0  0  0  0  0  0  0  0  0
   35.1790   20.4930   32.7430 C   0  0  0  0  0  0  0  0  0  0  0  0
   36.2650   19.6480   32.6230 N   0  0  0  0  0  0  0  0  0  0  0  0
   37.3820   20.0290   31.9680 C   0  0  0  0  0  0  0  0  0  0  0  0
   37.4660   21.2360   31.4150 N   0  0  0  0  0  0  0  0  0  0  0  0
   34.3930   22.4050   32.2730 H   0  0  0  0  0  0  0  0  0  0  0  0
   34.3040   20.1650   33.2690 H   0  0  0  0  0  0  0  0  0  0  0  0
   38.1500   19.2660   31.9530 H   0  0  0  0  0  0  0  0  0  0  0  0
   38.0350   26.5600   34.4810 C   0  0  0  0  0  0  0  0  0  0  0  0
   38.1700   25.9320   33.2500 C   0  0  0  0  0  0  0  0  0  0  0  0
   39.5220   25.9310   32.8680 C   0  0  0  0  0  0  0  0  0  0  0  0
   39.7580   25.4580   31.9010 H   0  0  0  0  0  0  0  0  0  0  0  0
   40.5930   26.4480   33.5490 C   0  0  0  0  0  3  0  0  0  0  0  0
   40.3150   27.0420   34.7590 C   0  0  0  0  0  3  0  0  0  0  0  0
   39.0250   27.1030   35.2360 C   0  0  0  0  0  0  0  0  0  0  0  0
   36.7610   26.6550   35.0190 O   0  0  0  0  0  0  0  0  0  0  0  0
   36.2150   27.4760   34.7950 H   0  0  0  0  0  0  0  0  0  0  0  0
   38.7950   27.7100   36.4560 O   0  0  0  0  0  0  0  0  0  0  0  0
   38.9330   28.6990   36.6510 H   0  0  0  0  0  0  0  0  0  0  0  0
  1  7  1  6  0  0  0
  1  6  1  0  0  0  0
  1  2  1  0  0  0  0
  1 17  1  0  0  0  0
  2  8  1  0  0  0  0
  2  3  1  0  0  0  0
  3 10  1  1  0  0  0
  3 27  1  0  0  0  0
  4  3  1  0  0  0  0
  4 12  1  0  0  0  0
  5  6  1  0  0  0  0
  5 13  1  0  0  0  0
  5  4  1  0  0  0  0
  6 16  1  0  0  0  0
  9  2  1  0  0  0  0
 11  4  1  0  0  0  0
 14  5  1  0  0  0  0
 15  6  1  0  0  0  0
 17 18  1  0  0  0  0
 18 23  1  0  0  0  0
 18 19  2  0  0  0  0
 19 24  1  0  0  0  0
 20 19  1  0  0  0  0
 21 20  2  0  0  0  0
 22 17  2  0  0  0  0
 22 21  1  0  0  0  0
 25 21  1  0  0  0  0
 26 33  1  0  0  0  0
 26 32  1  0  0  0  0
 27 26  2  0  0  0  0
 28 27  1  0  0  0  0
 28 30  2  0  0  0  0
 29 28  1  0  0  0  0
 30 31  1  0  0  0  0
 31 32  2  0  0  0  0
 32 35  1  0  0  0  0
 34 33  1  0  0  0  0
 35 36  1  0  0  0  0
M  END
>  <minimizedAffinity>
-5.67637634

$$$$

 OpenBabel03272505563D

 36 38  0  0  1  0  0  0  0  0999 V2000
   36.2310   28.4000   31.5980 C   0  0  2  0  0  0  0  0  0  0  0  0
   35.1830   28.8450   32.5330 C   0  0  0  0  0  0  0  0  0  0  0  0
   35.7730   29.2420   33.8830 C   0  0  2  0  0  0  0  0  0  0  0  0
   36.4190   28.0690   34.5430 C   0  0  0  0  0  0  0  0  0  0  0  0
   37.2850   27.2770   33.5780 C   0  0  0  0  0  0  0  0  0  0  0  0
   37.5020   27.9910   32.2770 C   0  0  0  0  0  0  0  0  0  0  0  0
   35.8830   27.4860   31.0170 H   0  0  0  0  0  0  0  0  0  0  0  0
   34.4200   29.5190   32.2170 H   0  0  0  0  0  0  0  0  0  0  0  0
   34.6510   27.9040   32.8190 H   0  0  0  0  0  0  0  0  0  0  0  0
   36.6350   29.9320   33.5810 H   0  0  0  0  0  0  0  0  0  0  0  0
   35.6700   27.4390   35.0380 H   0  0  0  0  0  0  0  0  0  0  0  0
   37.0470   28.4990   35.3770 H   0  0  0  0  0  0  0  0  0  0  0  0
   38.2720   27.1360   34.0560 H   0  0  0  0  0  0  0  0  0  0  0  0
   36.8730   26.2570   33.4080 H   0  0  0  0  0  0  0  0  0  0  0  0
   38.0730   27.2950   31.6270 H   0  0  0  0  0  0  0  0  0  0  0  0
   38.1980   28.8530   32.4390 H   0  0  0  0  0  0  0  0  0  0  0  0
   36.5700   29.3690   30.5540 C   0  0  0  0  0  0  0  0  0  0  0  0
   37.3260   28.8770   29.4670 C   0  0  0  0  0  0  0  0  0  0  0  0
   37.6940   29.8020   28.4640 C   0  0  0  0  0  0  0  0  0  0  0  0
   37.2990   31.1180   28.5990 N   0  0  0  0  0  0  0  0  0  0  0  0
   36.5760   31.5300   29.6620 C   0  0  0  0  0  0  0  0  0  0  0  0
   36.2210   30.6720   30.6150 N   0  0  0  0  0  0  0  0  0  0  0  0
   37.6470   27.8670   29.3310 H   0  0  0  0  0  0  0  0  0  0  0  0
   38.2680   29.5010   27.6100 H   0  0  0  0  0  0  0  0  0  0  0  0
   36.3380   32.5860   29.6340 H   0  0  0  0  0  0  0  0  0  0  0  0
   35.2800   30.8980   35.7620 C   0  0  0  0  0  0  0  0  0  0  0  0
   34.9220   30.0380   34.7320 C   0  0  0  0  0  0  0  0  0  0  0  0
   33.5240   30.0320   34.5890 C   0  0  0  0  0  0  0  0  0  0  0  0
   33.1160   29.3820   33.7980 H   0  0  0  0  0  0  0  0  0  0  0  0
   32.5980   30.7350   35.3130 C   0  0  0  0  0  3  0  0  0  0  0  0
   33.0930   31.5520   36.3040 C   0  0  0  0  0  3  0  0  0  0  0  0
   34.4460   31.6390   36.5360 C   0  0  0  0  0  0  0  0  0  0  0  0
   36.6300   31.0320   36.0480 O   0  0  0  0  0  0  0  0  0  0  0  0
   37.0300   30.4080   36.7350 H   0  0  0  0  0  0  0  0  0  0  0  0
   34.8960   32.4730   37.5440 O   0  0  0  0  0  0  0  0  0  0  0  0
   34.7150   32.3390   38.5360 H   0  0  0  0  0  0  0  0  0  0  0  0
  1  7  1  6  0  0  0
  1  6  1  0  0  0  0
  1  2  1  0  0  0  0
  2  9  1  0  0  0  0
  2  3  1  0  0  0  0
  3 10  1  6  0  0  0
  3  4  1  0  0  0  0
  3 27  1  0  0  0  0
  4 11  1  0  0  0  0
  4 12  1  0  0  0  0
  5 13  1  0  0  0  0
  5  4  1  0  0  0  0
  6 16  1  0  0  0  0
  6  5  1  0  0  0  0
  8  2  1  0  0  0  0
 14  5  1  0  0  0  0
 15  6  1  0  0  0  0
 17 22  1  0  0  0  0
 17  1  1  0  0  0  0
 18 17  2  0  0  0  0
 19 20  2  0  0  0  0
 19 18  1  0  0  0  0
 20 21  1  0  0  0  0
 21 22  2  0  0  0  0
 23 18  1  0  0  0  0
 24 19  1  0  0  0  0
 25 21  1  0  0  0  0
 26 33  1  0  0  0  0
 26 32  1  0  0  0  0
 27 26  2  0  0  0  0
 28 27  1  0  0  0  0
 28 30  2  0  0  0  0
 29 28  1  0  0  0  0
 30 31  1  0  0  0  0
 31 32  2  0  0  0  0
 32 35  1  0  0  0  0
 33 34  1  0  0  0  0
 35 36  1  0  0  0  0
M  END
>  <minimizedAffinity>
-5.55779886

$$$$

 OpenBabel03272505563D

 36 38  0  0  1  0  0  0  0  0999 V2000
   37.5740   22.9060   31.8640 C   0  0  2  0  0  0  0  0  0  0  0  0
   38.6440   22.8180   32.8730 C   0  0  0  0  0  0  0  0  0  0  0  0
   38.2650   23.5550   34.1530 C   0  0  2  0  0  0  0  0  0  0  0  0
   38.0880   25.0140   33.8910 C   0  0  0  0  0  0  0  0  0  0  0  0
   37.2700   25.2730   32.6360 C   0  0  0  0  0  0  0  0  0  0  0  0
   36.6160   24.0320   32.1070 C   0  0  0  0  0  0  0  0  0  0  0  0
   38.0140   23.0920   30.8320 H   0  0  0  0  0  0  0  0  0  0  0  0
   39.1290   21.8900   33.0750 H   0  0  0  0  0  0  0  0  0  0  0  0
   39.4450   23.4950   32.4840 H   0  0  0  0  0  0  0  0  0  0  0  0
   37.2130   23.1560   34.3650 H   0  0  0  0  0  0  0  0  0  0  0  0
   39.0580   25.5260   33.8660 H   0  0  0  0  0  0  0  0  0  0  0  0
   37.5570   25.4230   34.8000 H   0  0  0  0  0  0  0  0  0  0  0  0
   36.4720   25.9900   32.9020 H   0  0  0  0  0  0  0  0  0  0  0  0
   37.8840   25.7660   31.8490 H   0  0  0  0  0  0  0  0  0  0  0  0
   36.1190   24.3190   31.1570 H   0  0  0  0  0  0  0  0  0  0  0  0
   35.7740   23.7390   32.7840 H   0  0  0  0  0  0  0  0  0  0  0  0
   36.7920   21.6790   31.6950 C   0  0  0  0  0  0  0  0  0  0  0  0
   35.5490   21.6320   32.3660 C   0  0  0  0  0  0  0  0  0  0  0  0
   34.7940   20.4450   32.2450 C   0  0  0  0  0  0  0  0  0  0  0  0
   35.3030   19.4090   31.4870 N   0  0  0  0  0  0  0  0  0  0  0  0
   36.4980   19.5120   30.8680 C   0  0  0  0  0  0  0  0  0  0  0  0
   37.2220   20.6230   30.9720 N   0  0  0  0  0  0  0  0  0  0  0  0
   35.1260   22.4140   32.9590 H   0  0  0  0  0  0  0  0  0  0  0  0
   33.8420   20.3370   32.7260 H   0  0  0  0  0  0  0  0  0  0  0  0
   36.7690   18.6240   30.3100 H   0  0  0  0  0  0  0  0  0  0  0  0
   38.6420   23.1880   36.6510 C   0  0  0  0  0  0  0  0  0  0  0  0
   39.0430   23.2260   35.3230 C   0  0  0  0  0  0  0  0  0  0  0  0
   40.4000   22.8740   35.2300 C   0  0  0  0  0  0  0  0  0  0  0  0
   40.8360   22.8690   34.2180 H   0  0  0  0  0  0  0  0  0  0  0  0
   41.2560   22.5350   36.2450 C   0  0  0  0  0  3  0  0  0  0  0  0
   40.7250   22.5370   37.5150 C   0  0  0  0  0  3  0  0  0  0  0  0
   39.4060   22.8660   37.7270 C   0  0  0  0  0  0  0  0  0  0  0  0
   37.3240   23.5100   36.9350 O   0  0  0  0  0  0  0  0  0  0  0  0
   37.1070   24.4770   37.1340 H   0  0  0  0  0  0  0  0  0  0  0  0
   38.9180   22.8550   39.0210 O   0  0  0  0  0  0  0  0  0  0  0  0
   39.2140   23.4850   39.7620 H   0  0  0  0  0  0  0  0  0  0  0  0
  1  7  1  6  0  0  0
  1  6  1  0  0  0  0
  1  2  1  0  0  0  0
  2  8  1  0  0  0  0
  2  3  1  0  0  0  0
  3 10  1  1  0  0  0
  3 27  1  0  0  0  0
  4  3  1  0  0  0  0
  4 12  1  0  0  0  0
  5 13  1  0  0  0  0
  5  4  1  0  0  0  0
  6  5  1  0  0  0  0
  6 16  1  0  0  0  0
  9  2  1  0  0  0  0
 11  4  1  0  0  0  0
 14  5  1  0  0  0  0
 15  6  1  0  0  0  0
 17  1  1  0  0  0  0
 17 18  1  0  0  0  0
 18 23  1  0  0  0  0
 19 18  2  0  0  0  0
 19 24  1  0  0  0  0
 20 19  1  0  0  0  0
 21 22  1  0  0  0  0
 21 20  2  0  0  0  0
 22 17  2  0  0  0  0
 25 21  1  0  0  0  0
 26 33  1  0  0  0  0
 26 32  1  0  0  0  0
 27 26  2  0  0  0  0
 28 27  1  0  0  0  0
 28 30  2  0  0  0  0
 29 28  1  0  0  0  0
 30 31  1  0  0  0  0
 31 32  2  0  0  0  0
 32 35  1  0  0  0  0
 33 34  1  0  0  0  0
 35 36  1  0  0  0  0
M  END
>  <minimizedAffinity>
-5.53048897

$$$$

 OpenBabel03272505563D

 36 38  0  0  1  0  0  0  0  0999 V2000
   39.4950   27.1350   33.2870 C   0  0  2  0  0  0  0  0  0  0  0  0
   39.6240   26.5720   34.6430 C   0  0  0  0  0  0  0  0  0  0  0  0
   38.4000   25.7440   35.0200 C   0  0  2  0  0  0  0  0  0  0  0  0
   37.1760   26.5980   35.0600 C   0  0  0  0  0  0  0  0  0  0  0  0
   37.0830   27.5200   33.8570 C   0  0  0  0  0  0  0  0  0  0  0  0
   38.0830   27.1820   32.7910 C   0  0  0  0  0  0  0  0  0  0  0  0
   39.8660   28.2110   33.2660 H   0  0  0  0  0  0  0  0  0  0  0  0
   40.5320   26.1110   34.9580 H   0  0  0  0  0  0  0  0  0  0  0  0
   39.4840   27.4510   35.3200 H   0  0  0  0  0  0  0  0  0  0  0  0
   38.2680   25.0690   34.1040 H   0  0  0  0  0  0  0  0  0  0  0  0
   37.1150   27.1460   36.0080 H   0  0  0  0  0  0  0  0  0  0  0  0
   36.3050   25.8780   35.0750 H   0  0  0  0  0  0  0  0  0  0  0  0
   36.0730   27.4020   33.4240 H   0  0  0  0  0  0  0  0  0  0  0  0
   37.1700   28.5880   34.1590 H   0  0  0  0  0  0  0  0  0  0  0  0
   37.9810   27.9590   32.0060 H   0  0  0  0  0  0  0  0  0  0  0  0
   37.7750   26.2320   32.2840 H   0  0  0  0  0  0  0  0  0  0  0  0
   40.3080   26.4660   32.2690 C   0  0  0  0  0  0  0  0  0  0  0  0
   40.4880   27.1660   31.0540 C   0  0  0  0  0  0  0  0  0  0  0  0
   41.2400   26.5260   30.0450 C   0  0  0  0  0  0  0  0  0  0  0  0
   41.7530   25.2680   30.2960 N   0  0  0  0  0  0  0  0  0  0  0  0
   41.5480   24.6490   31.4780 C   0  0  0  0  0  0  0  0  0  0  0  0
   40.8420   25.2380   32.4390 N   0  0  0  0  0  0  0  0  0  0  0  0
   40.1060   28.1380   30.8280 H   0  0  0  0  0  0  0  0  0  0  0  0
   41.4170   26.9950   29.0970 H   0  0  0  0  0  0  0  0  0  0  0  0
   42.0080   23.6700   31.5330 H   0  0  0  0  0  0  0  0  0  0  0  0
   39.3230   23.6860   36.2160 C   0  0  0  0  0  0  0  0  0  0  0  0
   38.5670   24.8480   36.1380 C   0  0  0  0  0  0  0  0  0  0  0  0
   37.9340   25.0810   37.3700 C   0  0  0  0  0  0  0  0  0  0  0  0
   37.3000   25.9800   37.4320 H   0  0  0  0  0  0  0  0  0  0  0  0
   38.0040   24.3270   38.5120 C   0  0  0  0  0  3  0  0  0  0  0  0
   38.7930   23.2000   38.4490 C   0  0  0  0  0  3  0  0  0  0  0  0
   39.4610   22.8700   37.2920 C   0  0  0  0  0  0  0  0  0  0  0  0
   40.0230   23.2960   35.0840 O   0  0  0  0  0  0  0  0  0  0  0  0
   39.5580   22.6790   34.4310 H   0  0  0  0  0  0  0  0  0  0  0  0
   40.2410   21.7280   37.2770 O   0  0  0  0  0  0  0  0  0  0  0  0
   39.8870   20.7790   37.3660 H   0  0  0  0  0  0  0  0  0  0  0  0
  1  7  1  1  0  0  0
  1  2  1  0  0  0  0
  2  8  1  0  0  0  0
  2  3  1  0  0  0  0
  2  9  1  0  0  0  0
  3 10  1  6  0  0  0
  3  4  1  0  0  0  0
  3 27  1  0  0  0  0
  4 12  1  0  0  0  0
  4 11  1  0  0  0  0
  5 14  1  0  0  0  0
  5  4  1  0  0  0  0
  6  1  1  0  0  0  0
  6  5  1  0  0  0  0
 13  5  1  0  0  0  0
 15  6  1  0  0  0  0
 16  6  1  0  0  0  0
 17 22  1  0  0  0  0
 17  1  1  0  0  0  0
 18 17  2  0  0  0  0
 19 20  2  0  0  0  0
 19 18  1  0  0  0  0
 20 21  1  0  0  0  0
 21 25  1  0  0  0  0
 21 22  2  0  0  0  0
 23 18  1  0  0  0  0
 24 19  1  0  0  0  0
 26 32  1  0  0  0  0
 27 26  2  0  0  0  0
 27 28  1  0  0  0  0
 28 29  1  0  0  0  0
 28 30  2  0  0  0  0
 31 30  1  0  0  0  0
 32 31  2  0  0  0  0
 33 26  1  0  0  0  0
 34 33  1  0  0  0  0
 35 32  1  0  0  0  0
 35 36  1  0  0  0  0
M  END
>  <minimizedAffinity>
-5.49177408

$$$$

 OpenBabel03272505563D

 36 38  0  0  1  0  0  0  0  0999 V2000
   36.8820   28.2100   32.1170 C   0  0  2  0  0  0  0  0  0  0  0  0
   36.4610   28.8290   33.3860 C   0  0  0  0  0  0  0  0  0  0  0  0
   35.3560   29.8570   33.1640 C   0  0  2  0  0  0  0  0  0  0  0  0
   35.8460   30.9850   32.3170 C   0  0  0  0  0  0  0  0  0  0  0  0
   36.6320   30.4950   31.1130 C   0  0  0  0  0  0  0  0  0  0  0  0
   36.5120   29.0140   30.9080 C   0  0  0  0  0  0  0  0  0  0  0  0
   38.0150   28.1040   32.0830 H   0  0  0  0  0  0  0  0  0  0  0  0
   36.2840   28.2340   34.2520 H   0  0  0  0  0  0  0  0  0  0  0  0
   37.3090   29.5060   33.6570 H   0  0  0  0  0  0  0  0  0  0  0  0
   34.6150   29.2840   32.5060 H   0  0  0  0  0  0  0  0  0  0  0  0
   36.4150   31.7050   32.9180 H   0  0  0  0  0  0  0  0  0  0  0  0
   34.9190   31.5390   31.9850 H   0  0  0  0  0  0  0  0  0  0  0  0
   36.2170   30.9950   30.2180 H   0  0  0  0  0  0  0  0  0  0  0  0
   37.7000   30.8030   31.1750 H   0  0  0  0  0  0  0  0  0  0  0  0
   37.1830   28.7580   30.0620 H   0  0  0  0  0  0  0  0  0  0  0  0
   35.4850   28.7730   30.5330 H   0  0  0  0  0  0  0  0  0  0  0  0
   36.3980   26.8430   31.9150 C   0  0  0  0  0  0  0  0  0  0  0  0
   37.1660   25.8140   32.5050 C   0  0  0  0  0  0  0  0  0  0  0  0
   36.7370   24.4850   32.2940 C   0  0  0  0  0  0  0  0  0  0  0  0
   35.6050   24.2660   31.5350 N   0  0  0  0  0  0  0  0  0  0  0  0
   34.9110   25.2910   30.9960 C   0  0  0  0  0  0  0  0  0  0  0  0
   35.3010   26.5490   31.1850 N   0  0  0  0  0  0  0  0  0  0  0  0
   38.0450   25.9480   33.0980 H   0  0  0  0  0  0  0  0  0  0  0  0
   37.2700   23.6530   32.7100 H   0  0  0  0  0  0  0  0  0  0  0  0
   34.0470   24.9700   30.4270 H   0  0  0  0  0  0  0  0  0  0  0  0
   35.0130   31.0380   35.4010 C   0  0  0  0  0  0  0  0  0  0  0  0
   34.6100   30.2430   34.3370 C   0  0  0  0  0  0  0  0  0  0  0  0
   33.2850   29.8250   34.5380 C   0  0  0  0  0  0  0  0  0  0  0  0
   32.8490   29.1830   33.7550 H   0  0  0  0  0  0  0  0  0  0  0  0
   32.4570   30.1150   35.5910 C   0  0  0  0  0  3  0  0  0  0  0  0
   32.9860   30.9170   36.5770 C   0  0  0  0  0  3  0  0  0  0  0  0
   34.2770   31.3860   36.4870 C   0  0  0  0  0  0  0  0  0  0  0  0
   36.3040   31.5440   35.3740 O   0  0  0  0  0  0  0  0  0  0  0  0
   37.0350   30.9940   35.8030 H   0  0  0  0  0  0  0  0  0  0  0  0
   34.7650   32.1880   37.5030 O   0  0  0  0  0  0  0  0  0  0  0  0
   34.9210   31.8850   38.4620 H   0  0  0  0  0  0  0  0  0  0  0  0
  1  7  1  1  0  0  0
  1  2  1  0  0  0  0
  2  9  1  0  0  0  0
  2  8  1  0  0  0  0
  3 10  1  6  0  0  0
  3  2  1  0  0  0  0
  3 27  1  0  0  0  0
  4 11  1  0  0  0  0
  4  3  1  0  0  0  0
  5 14  1  0  0  0  0
  5  4  1  0  0  0  0
  6  5  1  0  0  0  0
  6  1  1  0  0  0  0
 12  4  1  0  0  0  0
 13  5  1  0  0  0  0
 15  6  1  0  0  0  0
 16  6  1  0  0  0  0
 17  1  1  0  0  0  0
 17 18  1  0  0  0  0
 18 23  1  0  0  0  0
 19 18  2  0  0  0  0
 19 24  1  0  0  0  0
 20 19  1  0  0  0  0
 21 22  1  0  0  0  0
 21 20  2  0  0  0  0
 22 17  2  0  0  0  0
 25 21  1  0  0  0  0
 26 32  1  0  0  0  0
 27 28  1  0  0  0  0
 27 26  2  0  0  0  0
 28 30  2  0  0  0  0
 29 28  1  0  0  0  0
 30 31  1  0  0  0  0
 32 31  2  0  0  0  0
 32 35  1  0  0  0  0
 33 26  1  0  0  0  0
 33 34  1  0  0  0  0
 35 36  1  0  0  0  0
M  END
>  <minimizedAffinity>
-5.48452139

$$$$
