
 OpenBabel03272505523D

 46 49  0  0  1  0  0  0  0  0999 V2000
   37.1840   29.2100   50.4160 C   0  0  0  0  0  0  0  0  0  0  0  0
   37.3200   30.5660   50.8000 C   0  0  0  0  0  0  0  0  0  0  0  0
   36.5630   31.4980   50.1020 C   0  0  0  0  0  0  0  0  0  0  0  0
   35.7470   31.0580   49.1040 N   0  0  0  0  0  0  0  0  0  0  0  0
   35.6500   29.7730   48.7760 C   0  0  0  0  0  0  0  0  0  0  0  0
   36.3660   28.8490   49.4290 N   0  0  0  0  0  0  0  0  0  0  0  0
   34.7820   29.3760   47.7280 N   0  0  0  0  0  0  0  0  0  0  0  0
   34.1680   28.0610   47.7050 C   0  0  0  0  0  0  0  0  0  0  0  0
   32.6870   28.1810   47.5480 C   0  0  0  0  0  0  0  0  0  0  0  0
   32.2070   29.4160   47.1650 N   0  0  0  0  0  0  0  0  0  0  0  0
   33.0290   30.3500   46.4370 C   0  0  0  0  0  0  0  0  0  0  0  0
   34.4630   30.2660   46.6290 C   0  0  2  0  0  0  0  0  0  0  0  0
   37.7240   28.3770   50.8850 H   0  0  0  0  0  0  0  0  0  0  0  0
   37.9940   30.7780   51.5980 H   0  0  0  0  0  0  0  0  0  0  0  0
   36.6520   32.5300   50.3790 H   0  0  0  0  0  0  0  0  0  0  0  0
   34.6730   27.3270   47.0870 H   0  0  0  0  0  0  0  0  0  0  0  0
   34.3190   27.6560   48.7630 H   0  0  0  0  0  0  0  0  0  0  0  0
   32.1190   27.8210   48.4300 H   0  0  0  0  0  0  0  0  0  0  0  0
   32.4120   27.4330   46.7450 H   0  0  0  0  0  0  0  0  0  0  0  0
   31.3350   29.7890   47.5480 H   0  0  0  0  0  0  0  0  0  0  0  0
   32.7110   31.3440   46.9110 H   0  0  0  0  0  0  0  0  0  0  0  0
   32.5700   30.4270   45.4660 H   0  0  0  0  0  0  0  0  0  0  0  0
   34.9330   31.2660   46.8800 H   0  0  0  0  0  0  0  0  0  0  0  0
   35.2050   29.7870   45.4700 N   0  0  2  0  0  0  0  0  0  0  0  0
   36.5670   30.3290   45.4600 C   0  0  0  0  0  0  0  0  0  0  0  0
   36.9270   30.5950   44.0100 C   0  0  0  0  0  0  0  0  0  0  0  0
   35.7970   29.9880   43.2710 C   0  0  0  0  0  0  0  0  0  0  0  0
   34.6100   30.1460   44.2400 C   0  0  1  0  0  0  0  0  0  0  0  0
   36.5290   31.2930   46.0080 H   0  0  0  0  0  0  0  0  0  0  0  0
   37.2750   29.6440   45.9440 H   0  0  0  0  0  0  0  0  0  0  0  0
   37.9240   30.1760   43.7700 H   0  0  0  0  0  0  0  0  0  0  0  0
   36.9900   31.6880   43.8070 H   0  0  0  0  0  0  0  0  0  0  0  0
   35.5660   30.4690   42.3000 H   0  0  0  0  0  0  0  0  0  0  0  0
   35.9730   28.8920   43.1620 H   0  0  0  0  0  0  0  0  0  0  0  0
   34.4150   31.2200   44.0880 H   0  0  0  0  0  0  0  0  0  0  0  0
   33.7090   27.8630   43.7530 C   0  0  0  0  0  0  0  0  0  0  0  0
   33.6270   29.2460   43.6470 C   0  0  0  0  0  0  0  0  0  0  0  0
   32.5130   29.6510   42.9480 C   0  0  0  0  0  0  0  0  0  0  0  0
   32.3250   30.7050   42.8060 H   0  0  0  0  0  0  0  0  0  0  0  0
   31.5620   28.8210   42.3990 C   0  0  0  0  0  3  0  0  0  0  0  0
   31.7040   27.4560   42.5410 C   0  0  0  0  0  3  0  0  0  0  0  0
   32.7970   26.9730   43.2310 C   0  0  0  0  0  0  0  0  0  0  0  0
   34.7610   27.2610   44.4240 O   0  0  0  0  0  0  0  0  0  0  0  0
   35.5110   26.8710   43.8960 H   0  0  0  0  0  0  0  0  0  0  0  0
   32.9020   25.6120   43.3510 O   0  0  0  0  0  0  0  0  0  0  0  0
   32.9560   25.0770   42.4920 H   0  0  0  0  0  0  0  0  0  0  0  0
  1  2  1  0  0  0  0
  1 13  1  0  0  0  0
  2 14  1  0  0  0  0
  3 15  1  0  0  0  0
  3  2  2  0  0  0  0
  4  3  1  0  0  0  0
  5  4  2  0  0  0  0
  5  6  1  0  0  0  0
  6  1  2  0  0  0  0
  7  5  1  0  0  0  0
  8  7  1  0  0  0  0
  8 17  1  0  0  0  0
  9  8  1  0  0  0  0
  9 18  1  0  0  0  0
 10  9  1  0  0  0  0
 10 20  1  0  0  0  0
 11 12  1  0  0  0  0
 11 21  1  0  0  0  0
 11 10  1  0  0  0  0
 12 23  1  1  0  0  0
 12  7  1  0  0  0  0
 16  8  1  0  0  0  0
 19  9  1  0  0  0  0
 22 11  1  0  0  0  0
 24 25  1  6  0  0  0
 24 12  1  0  0  0  0
 25 30  1  0  0  0  0
 25 29  1  0  0  0  0
 26 25  1  0  0  0  0
 27 26  1  0  0  0  0
 27 28  1  0  0  0  0
 28 35  1  1  0  0  0
 28 24  1  0  0  0  0
 31 26  1  0  0  0  0
 32 26  1  0  0  0  0
 33 27  1  0  0  0  0
 34 27  1  0  0  0  0
 36 43  1  0  0  0  0
 37 36  1  0  0  0  0
 37 28  1  0  0  0  0
 38 37  2  0  0  0  0
 39 38  1  0  0  0  0
 40 41  2  0  0  0  0
 40 38  1  0  0  0  0
 41 42  1  0  0  0  0
 42 45  1  0  0  0  0
 42 36  2  0  0  0  0
 44 43  1  0  0  0  0
 46 45  1  0  0  0  0
M  END
>  <minimizedAffinity>
-4.49221659

>  <minimizedRMSD>
0.934063911

$$$$
