
 OpenBabel03272505523D

 46 49  0  0  1  0  0  0  0  0999 V2000
   37.2790   29.2700   50.5580 C   0  0  0  0  0  0  0  0  0  0  0  0
   37.4280   30.6500   50.8350 C   0  0  0  0  0  0  0  0  0  0  0  0
   36.6710   31.5310   50.0740 C   0  0  0  0  0  0  0  0  0  0  0  0
   35.8430   31.0220   49.1210 N   0  0  0  0  0  0  0  0  0  0  0  0
   35.7320   29.7160   48.8940 C   0  0  0  0  0  0  0  0  0  0  0  0
   36.4490   28.8400   49.6100 N   0  0  0  0  0  0  0  0  0  0  0  0
   34.8510   29.2470   47.8880 N   0  0  0  0  0  0  0  0  0  0  0  0
   34.2280   27.9390   47.9730 C   0  0  0  0  0  0  0  0  0  0  0  0
   32.7460   28.0590   47.8210 C   0  0  0  0  0  0  0  0  0  0  0  0
   32.2720   29.2640   47.3470 N   0  0  0  0  0  0  0  0  0  0  0  0
   33.0930   30.1320   46.5420 C   0  0  0  0  0  0  0  0  0  0  0  0
   34.5280   30.0520   46.7270 C   0  0  2  0  0  0  0  0  0  0  0  0
   37.8170   28.4710   51.0850 H   0  0  0  0  0  0  0  0  0  0  0  0
   38.1110   30.9180   51.6070 H   0  0  0  0  0  0  0  0  0  0  0  0
   36.7700   32.5810   50.2690 H   0  0  0  0  0  0  0  0  0  0  0  0
   34.7210   27.1550   47.4080 H   0  0  0  0  0  0  0  0  0  0  0  0
   34.3860   27.6150   49.0580 H   0  0  0  0  0  0  0  0  0  0  0  0
   32.1840   27.7730   48.7330 H   0  0  0  0  0  0  0  0  0  0  0  0
   32.4580   27.2530   47.0810 H   0  0  0  0  0  0  0  0  0  0  0  0
   31.4060   29.6720   47.7090 H   0  0  0  0  0  0  0  0  0  0  0  0
   32.7870   31.1620   46.9400 H   0  0  0  0  0  0  0  0  0  0  0  0
   32.6250   30.1380   45.5730 H   0  0  0  0  0  0  0  0  0  0  0  0
   35.0080   31.0640   46.8950 H   0  0  0  0  0  0  0  0  0  0  0  0
   35.2550   29.4790   45.6010 N   0  0  2  0  0  0  0  0  0  0  0  0
   36.3720   30.3410   45.2060 C   0  0  0  0  0  0  0  0  0  0  0  0
   36.4760   30.2660   43.6930 C   0  0  0  0  0  0  0  0  0  0  0  0
   35.5190   29.1900   43.3480 C   0  0  0  0  0  0  0  0  0  0  0  0
   34.4510   29.2940   44.4550 C   0  0  1  0  0  0  0  0  0  0  0  0
   36.0950   31.3740   45.5000 H   0  0  0  0  0  0  0  0  0  0  0  0
   37.3050   30.0430   45.7000 H   0  0  0  0  0  0  0  0  0  0  0  0
   37.5230   30.0810   43.3810 H   0  0  0  0  0  0  0  0  0  0  0  0
   36.1740   31.2290   43.2230 H   0  0  0  0  0  0  0  0  0  0  0  0
   35.0490   29.2910   42.3510 H   0  0  0  0  0  0  0  0  0  0  0  0
   36.0140   28.2000   43.4790 H   0  0  0  0  0  0  0  0  0  0  0  0
   33.9170   30.1840   44.0850 H   0  0  0  0  0  0  0  0  0  0  0  0
   32.4340   27.9570   43.8180 C   0  0  0  0  0  0  0  0  0  0  0  0
   33.7400   28.0310   44.2920 C   0  0  0  0  0  0  0  0  0  0  0  0
   34.2700   26.7910   44.5570 C   0  0  0  0  0  0  0  0  0  0  0  0
   35.2850   26.7100   44.9180 H   0  0  0  0  0  0  0  0  0  0  0  0
   33.6240   25.5850   44.3890 C   0  0  0  0  0  3  0  0  0  0  0  0
   32.3290   25.5830   43.9160 C   0  0  0  0  0  3  0  0  0  0  0  0
   31.7270   26.7890   43.6270 C   0  0  0  0  0  0  0  0  0  0  0  0
   31.7280   29.1030   43.4930 O   0  0  0  0  0  0  0  0  0  0  0  0
   31.0570   29.4560   44.1390 H   0  0  0  0  0  0  0  0  0  0  0  0
   30.4400   26.7450   43.1580 O   0  0  0  0  0  0  0  0  0  0  0  0
   29.7460   26.3160   43.7590 H   0  0  0  0  0  0  0  0  0  0  0  0
  1  2  1  0  0  0  0
  1 13  1  0  0  0  0
  2 14  1  0  0  0  0
  3 15  1  0  0  0  0
  3  2  2  0  0  0  0
  4  3  1  0  0  0  0
  5  4  2  0  0  0  0
  5  6  1  0  0  0  0
  6  1  2  0  0  0  0
  7  8  1  0  0  0  0
  7  5  1  0  0  0  0
  8 17  1  0  0  0  0
  9  8  1  0  0  0  0
  9 18  1  0  0  0  0
 10 20  1  0  0  0  0
 10  9  1  0  0  0  0
 11 12  1  0  0  0  0
 11 21  1  0  0  0  0
 11 10  1  0  0  0  0
 12 23  1  1  0  0  0
 12  7  1  0  0  0  0
 16  8  1  0  0  0  0
 19  9  1  0  0  0  0
 22 11  1  0  0  0  0
 24 25  1  6  0  0  0
 24 12  1  0  0  0  0
 25 29  1  0  0  0  0
 25 30  1  0  0  0  0
 26 25  1  0  0  0  0
 27 34  1  0  0  0  0
 27 26  1  0  0  0  0
 27 28  1  0  0  0  0
 28 35  1  6  0  0  0
 28 24  1  0  0  0  0
 31 26  1  0  0  0  0
 32 26  1  0  0  0  0
 33 27  1  0  0  0  0
 36 37  1  0  0  0  0
 37 28  1  0  0  0  0
 37 38  2  0  0  0  0
 38 39  1  0  0  0  0
 40 38  1  0  0  0  0
 41 40  2  0  0  0  0
 42 36  2  0  0  0  0
 42 41  1  0  0  0  0
 43 36  1  0  0  0  0
 43 44  1  0  0  0  0
 45 42  1  0  0  0  0
 45 46  1  0  0  0  0
M  END
>  <minimizedAffinity>
-4.79789066

>  <minimizedRMSD>
0.857101083

$$$$
