
 OpenBabel03272501093D

 42 45  0  0  1  0  0  0  0  0999 V2000
   38.4140   25.2620   31.2920 O   0  0  0  0  0  0  0  0  0  0  0  0
   37.1980   25.2830   30.6890 C   0  0  2  0  0  0  0  0  0  0  0  0
   36.1360   26.0520   31.5390 C   0  0  2  0  0  0  0  0  0  0  0  0
   34.9130   25.4020   31.1000 C   0  0  0  0  0  0  0  0  0  0  0  0
   35.1860   24.0700   30.8560 O   0  0  0  0  0  0  0  0  0  0  0  0
   36.5400   23.8840   30.8610 C   0  0  0  0  0  0  0  0  0  0  0  0
   37.1330   25.5750   29.6420 H   0  0  0  0  0  0  0  0  0  0  0  0
   36.3660   25.7870   32.6060 H   0  0  0  0  0  0  0  0  0  0  0  0
   34.1820   25.4080   31.9610 H   0  0  0  0  0  0  0  0  0  0  0  0
   34.4100   25.7960   30.2220 H   0  0  0  0  0  0  0  0  0  0  0  0
   36.9510   23.4720   31.7820 H   0  0  0  0  0  0  0  0  0  0  0  0
   36.8020   23.2280   30.0070 H   0  0  0  0  0  0  0  0  0  0  0  0
   36.0590   29.7380   32.2910 C   0  0  0  0  0  0  0  0  0  0  0  0
   35.9280   28.3370   32.4920 C   0  0  0  0  0  0  0  0  0  0  0  0
   36.2580   27.4790   31.4010 C   0  0  0  0  0  0  0  0  0  0  0  0
   36.6820   28.0390   30.2150 N   0  0  0  0  0  0  0  0  0  0  0  0
   36.7870   29.3650   30.0790 C   0  0  0  0  0  0  0  0  0  0  0  0
   36.4830   30.2200   31.0980 N   0  0  0  0  0  0  0  0  0  0  0  0
   35.7960   30.3320   33.1510 H   0  0  0  0  0  0  0  0  0  0  0  0
   35.5950   27.9560   33.4300 H   0  0  0  0  0  0  0  0  0  0  0  0
   37.1150   29.8480   29.1670 H   0  0  0  0  0  0  0  0  0  0  0  0
   37.9070   23.3930   33.6980 Cl  0  0  0  0  0  0  0  0  0  0  0  0
   38.8300   24.8650   33.7480 C   0  0  0  0  0  0  0  0  0  0  0  0
   38.9010   25.5280   32.5260 C   0  0  0  0  0  0  0  0  0  0  0  0
   39.6190   26.7150   32.5470 C   0  0  0  0  0  0  0  0  0  0  0  0
   40.2180   27.2010   33.6990 C   0  0  0  0  0  0  0  0  0  0  0  0
   40.1130   26.5040   34.8680 C   0  0  0  0  0  0  0  0  0  0  0  0
   39.4150   25.3320   34.8860 C   0  0  0  0  0  0  0  0  0  0  0  0
   39.7840   27.3670   31.6990 H   0  0  0  0  0  0  0  0  0  0  0  0
   40.7830   28.1220   33.7480 H   0  0  0  0  0  0  0  0  0  0  0  0
   40.5430   26.8010   35.8140 H   0  0  0  0  0  0  0  0  0  0  0  0
   40.0210   23.4480   36.4820 C   0  0  0  0  0  0  0  0  0  0  0  0
   39.2540   24.5230   36.0960 C   0  0  0  0  0  0  0  0  0  0  0  0
   38.1850   24.9640   36.8770 C   0  0  0  0  0  0  0  0  0  0  0  0
   37.5350   25.7970   36.6470 H   0  0  0  0  0  0  0  0  0  0  0  0
   37.9240   24.2760   38.0630 C   0  0  0  0  0  3  0  0  0  0  0  0
   38.6740   23.1930   38.4800 C   0  0  0  0  0  3  0  0  0  0  0  0
   39.7180   22.8040   37.6640 C   0  0  0  0  0  0  0  0  0  0  0  0
   41.0460   23.1130   35.6230 O   0  0  0  0  0  0  0  0  0  0  0  0
   41.7090   22.4180   35.9570 H   0  0  0  0  0  0  0  0  0  0  0  0
   40.5210   21.7210   38.0160 O   0  0  0  0  0  0  0  0  0  0  0  0
   40.0660   20.9200   38.4410 H   0  0  0  0  0  0  0  0  0  0  0  0
  1 24  1  0  0  0  0
  2  7  1  6  0  0  0
  2  6  1  0  0  0  0
  2  1  1  0  0  0  0
  2  3  1  0  0  0  0
  3  8  1  1  0  0  0
  4  3  1  0  0  0  0
  4  9  1  0  0  0  0
  5  6  1  0  0  0  0
  5  4  1  0  0  0  0
  6 11  1  0  0  0  0
 10  4  1  0  0  0  0
 12  6  1  0  0  0  0
 13 14  1  0  0  0  0
 13 19  1  0  0  0  0
 14 20  1  0  0  0  0
 15  3  1  0  0  0  0
 15 14  2  0  0  0  0
 16 15  1  0  0  0  0
 17 16  2  0  0  0  0
 17 18  1  0  0  0  0
 18 13  2  0  0  0  0
 21 17  1  0  0  0  0
 22 23  1  0  0  0  0
 23 28  1  0  0  0  0
 24 25  1  0  0  0  0
 24 23  2  0  0  0  0
 25 26  2  0  0  0  0
 26 30  1  0  0  0  0
 26 27  1  0  0  0  0
 27 28  2  0  0  0  0
 27 31  1  0  0  0  0
 28 33  1  0  0  0  0
 29 25  1  0  0  0  0
 32 38  1  0  0  0  0
 33 32  2  0  0  0  0
 33 34  1  0  0  0  0
 34 36  2  0  0  0  0
 35 34  1  0  0  0  0
 36 37  1  0  0  0  0
 38 41  1  0  0  0  0
 38 37  2  0  0  0  0
 39 40  1  0  0  0  0
 39 32  1  0  0  0  0
 41 42  1  0  0  0  0
M  END
>  <minimizedAffinity>
-6.87178516

$$$$

 OpenBabel03272501093D

 42 45  0  0  1  0  0  0  0  0999 V2000
   36.6430   27.2920   32.9560 O   0  0  0  0  0  0  0  0  0  0  0  0
   36.0080   27.9470   31.9500 C   0  0  2  0  0  0  0  0  0  0  0  0
   36.8910   29.0850   31.3440 C   0  0  2  0  0  0  0  0  0  0  0  0
   35.8670   29.9910   30.8510 C   0  0  0  0  0  0  0  0  0  0  0  0
   34.7900   29.9490   31.7160 O   0  0  0  0  0  0  0  0  0  0  0  0
   34.9490   28.8990   32.5760 C   0  0  0  0  0  0  0  0  0  0  0  0
   35.5360   27.3680   31.1580 H   0  0  0  0  0  0  0  0  0  0  0  0
   37.4320   29.5350   32.2190 H   0  0  0  0  0  0  0  0  0  0  0  0
   36.2680   31.0450   30.9180 H   0  0  0  0  0  0  0  0  0  0  0  0
   35.4840   29.8340   29.8470 H   0  0  0  0  0  0  0  0  0  0  0  0
   35.3270   29.1590   33.5640 H   0  0  0  0  0  0  0  0  0  0  0  0
   33.9740   28.3800   32.6710 H   0  0  0  0  0  0  0  0  0  0  0  0
   38.7120   28.2240   28.1650 C   0  0  0  0  0  0  0  0  0  0  0  0
   37.7080   28.7560   29.0210 C   0  0  0  0  0  0  0  0  0  0  0  0
   37.8770   28.5790   30.4260 C   0  0  0  0  0  0  0  0  0  0  0  0
   38.9900   27.9090   30.8870 N   0  0  0  0  0  0  0  0  0  0  0  0
   39.9030   27.4280   30.0380 C   0  0  0  0  0  0  0  0  0  0  0  0
   39.7810   27.5760   28.6870 N   0  0  0  0  0  0  0  0  0  0  0  0
   38.5280   28.3900   27.1160 H   0  0  0  0  0  0  0  0  0  0  0  0
   36.8670   29.2660   28.6120 H   0  0  0  0  0  0  0  0  0  0  0  0
   40.7920   26.8950   30.3540 H   0  0  0  0  0  0  0  0  0  0  0  0
   38.4690   26.5930   35.3460 Cl  0  0  0  0  0  0  0  0  0  0  0  0
   37.8920   25.4600   34.1590 C   0  0  0  0  0  0  0  0  0  0  0  0
   37.0880   26.0330   33.1790 C   0  0  0  0  0  0  0  0  0  0  0  0
   36.6300   25.1510   32.2110 C   0  0  0  0  0  0  0  0  0  0  0  0
   36.9510   23.8030   32.2230 C   0  0  0  0  0  0  0  0  0  0  0  0
   37.7440   23.2990   33.2140 C   0  0  0  0  0  0  0  0  0  0  0  0
   38.2130   24.1370   34.1830 C   0  0  0  0  0  0  0  0  0  0  0  0
   35.9960   25.4080   31.3720 H   0  0  0  0  0  0  0  0  0  0  0  0
   36.6100   23.0900   31.4840 H   0  0  0  0  0  0  0  0  0  0  0  0
   38.0470   22.2670   33.3080 H   0  0  0  0  0  0  0  0  0  0  0  0
   38.6680   23.3080   36.5430 C   0  0  0  0  0  0  0  0  0  0  0  0
   39.0680   23.6800   35.2810 C   0  0  0  0  0  0  0  0  0  0  0  0
   40.4130   23.6520   34.9140 C   0  0  0  0  0  0  0  0  0  0  0  0
   40.8110   23.9270   33.9460 H   0  0  0  0  0  0  0  0  0  0  0  0
   41.3370   23.2320   35.8730 C   0  0  0  0  0  3  0  0  0  0  0  0
   40.9690   22.8530   37.1490 C   0  0  0  0  0  3  0  0  0  0  0  0
   39.6230   22.9020   37.4530 C   0  0  0  0  0  0  0  0  0  0  0  0
   37.3120   23.3810   36.7800 O   0  0  0  0  0  0  0  0  0  0  0  0
   36.9800   22.9770   37.6530 H   0  0  0  0  0  0  0  0  0  0  0  0
   39.1720   22.5340   38.7190 O   0  0  0  0  0  0  0  0  0  0  0  0
   39.7400   22.8050   39.5140 H   0  0  0  0  0  0  0  0  0  0  0  0
  1 24  1  0  0  0  0
  2  7  1  6  0  0  0
  2  6  1  0  0  0  0
  2  1  1  0  0  0  0
  3  2  1  0  0  0  0
  3  8  1  1  0  0  0
  4  9  1  0  0  0  0
  4  3  1  0  0  0  0
  4  5  1  0  0  0  0
  5  6  1  0  0  0  0
  6 12  1  0  0  0  0
  6 11  1  0  0  0  0
 10  4  1  0  0  0  0
 13 18  2  0  0  0  0
 13 14  1  0  0  0  0
 14 15  2  0  0  0  0
 15 16  1  0  0  0  0
 15  3  1  0  0  0  0
 17 21  1  0  0  0  0
 17 16  2  0  0  0  0
 18 17  1  0  0  0  0
 19 13  1  0  0  0  0
 20 14  1  0  0  0  0
 23 28  1  0  0  0  0
 23 22  1  0  0  0  0
 24 23  2  0  0  0  0
 25 26  2  0  0  0  0
 25 24  1  0  0  0  0
 26 27  1  0  0  0  0
 27 31  1  0  0  0  0
 27 28  2  0  0  0  0
 28 33  1  0  0  0  0
 29 25  1  0  0  0  0
 30 26  1  0  0  0  0
 32 39  1  0  0  0  0
 32 38  1  0  0  0  0
 33 32  2  0  0  0  0
 34 33  1  0  0  0  0
 34 36  2  0  0  0  0
 35 34  1  0  0  0  0
 36 37  1  0  0  0  0
 37 38  2  0  0  0  0
 38 41  1  0  0  0  0
 39 40  1  0  0  0  0
 41 42  1  0  0  0  0
M  END
>  <minimizedAffinity>
-6.18736315

$$$$

 OpenBabel03272501093D

 42 45  0  0  1  0  0  0  0  0999 V2000
   36.4920   26.7710   32.5430 O   0  0  0  0  0  0  0  0  0  0  0  0
   36.9680   28.0210   32.3110 C   0  0  2  0  0  0  0  0  0  0  0  0
   35.8580   28.9810   31.7730 C   0  0  2  0  0  0  0  0  0  0  0  0
   36.6580   29.9250   31.0130 C   0  0  0  0  0  0  0  0  0  0  0  0
   37.7170   29.2450   30.4430 O   0  0  0  0  0  0  0  0  0  0  0  0
   37.7920   27.9950   30.9920 C   0  0  0  0  0  0  0  0  0  0  0  0
   37.5570   28.5140   33.0830 H   0  0  0  0  0  0  0  0  0  0  0  0
   35.2300   28.3490   31.0880 H   0  0  0  0  0  0  0  0  0  0  0  0
   36.0360   30.2970   30.1460 H   0  0  0  0  0  0  0  0  0  0  0  0
   37.0680   30.7860   31.5340 H   0  0  0  0  0  0  0  0  0  0  0  0
   37.3660   27.1950   30.3880 H   0  0  0  0  0  0  0  0  0  0  0  0
   38.8570   27.7760   31.2070 H   0  0  0  0  0  0  0  0  0  0  0  0
   34.6850   30.5260   34.9980 C   0  0  0  0  0  0  0  0  0  0  0  0
   35.5770   30.0700   33.9880 C   0  0  0  0  0  0  0  0  0  0  0  0
   35.0070   29.4720   32.8250 C   0  0  0  0  0  0  0  0  0  0  0  0
   33.6370   29.3630   32.7320 N   0  0  0  0  0  0  0  0  0  0  0  0
   32.8430   29.8090   33.7110 C   0  0  0  0  0  0  0  0  0  0  0  0
   33.3460   30.3880   34.8400 N   0  0  0  0  0  0  0  0  0  0  0  0
   35.1750   30.9680   35.8500 H   0  0  0  0  0  0  0  0  0  0  0  0
   36.6290   30.1790   34.1110 H   0  0  0  0  0  0  0  0  0  0  0  0
   31.7620   29.7440   33.6810 H   0  0  0  0  0  0  0  0  0  0  0  0
   38.3660   26.3470   34.9600 Cl  0  0  0  0  0  0  0  0  0  0  0  0
   37.8600   25.1060   33.8530 C   0  0  0  0  0  0  0  0  0  0  0  0
   37.0180   25.5610   32.8430 C   0  0  0  0  0  0  0  0  0  0  0  0
   36.6150   24.5900   31.9370 C   0  0  0  0  0  0  0  0  0  0  0  0
   37.0230   23.2690   32.0340 C   0  0  0  0  0  0  0  0  0  0  0  0
   37.8500   22.8830   33.0500 C   0  0  0  0  0  0  0  0  0  0  0  0
   38.2660   23.8100   33.9600 C   0  0  0  0  0  0  0  0  0  0  0  0
   35.9640   24.7520   31.0890 H   0  0  0  0  0  0  0  0  0  0  0  0
   36.7270   22.4900   31.3450 H   0  0  0  0  0  0  0  0  0  0  0  0
   38.2200   21.8800   33.2080 H   0  0  0  0  0  0  0  0  0  0  0  0
   38.7800   23.1530   36.3610 C   0  0  0  0  0  0  0  0  0  0  0  0
   39.1520   23.4810   35.0780 C   0  0  0  0  0  0  0  0  0  0  0  0
   40.4960   23.5320   34.7080 C   0  0  0  0  0  0  0  0  0  0  0  0
   40.8730   23.7800   33.7250 H   0  0  0  0  0  0  0  0  0  0  0  0
   41.4480   23.2380   35.6860 C   0  0  0  0  0  3  0  0  0  0  0  0
   41.1080   22.9050   36.9840 C   0  0  0  0  0  3  0  0  0  0  0  0
   39.7630   22.8710   37.2890 C   0  0  0  0  0  0  0  0  0  0  0  0
   37.4220   23.1390   36.5990 O   0  0  0  0  0  0  0  0  0  0  0  0
   37.1210   22.7620   37.4950 H   0  0  0  0  0  0  0  0  0  0  0  0
   39.3390   22.5440   38.5750 O   0  0  0  0  0  0  0  0  0  0  0  0
   39.8860   22.9010   39.3520 H   0  0  0  0  0  0  0  0  0  0  0  0
  1 24  1  0  0  0  0
  2  1  1  0  0  0  0
  2  7  1  1  0  0  0
  3  8  1  6  0  0  0
  3  2  1  0  0  0  0
  3 15  1  0  0  0  0
  4 10  1  0  0  0  0
  4  3  1  0  0  0  0
  5  6  1  0  0  0  0
  5  4  1  0  0  0  0
  6 12  1  0  0  0  0
  6  2  1  0  0  0  0
  9  4  1  0  0  0  0
 11  6  1  0  0  0  0
 13 19  1  0  0  0  0
 14 20  1  0  0  0  0
 14 13  2  0  0  0  0
 15 14  1  0  0  0  0
 16 15  2  0  0  0  0
 16 17  1  0  0  0  0
 17 18  2  0  0  0  0
 18 13  1  0  0  0  0
 21 17  1  0  0  0  0
 23 28  1  0  0  0  0
 23 22  1  0  0  0  0
 24 23  2  0  0  0  0
 25 26  2  0  0  0  0
 25 24  1  0  0  0  0
 26 27  1  0  0  0  0
 27 31  1  0  0  0  0
 27 28  2  0  0  0  0
 28 33  1  0  0  0  0
 29 25  1  0  0  0  0
 30 26  1  0  0  0  0
 32 39  1  0  0  0  0
 32 38  1  0  0  0  0
 33 32  2  0  0  0  0
 34 33  1  0  0  0  0
 34 36  2  0  0  0  0
 35 34  1  0  0  0  0
 36 37  1  0  0  0  0
 37 38  2  0  0  0  0
 38 41  1  0  0  0  0
 39 40  1  0  0  0  0
 41 42  1  0  0  0  0
M  END
>  <minimizedAffinity>
-6.1424346

$$$$

 OpenBabel03272501093D

 42 45  0  0  1  0  0  0  0  0999 V2000
   37.7010   23.9100   33.4120 O   0  0  0  0  0  0  0  0  0  0  0  0
   39.0030   23.5360   33.4990 C   0  0  2  0  0  0  0  0  0  0  0  0
   39.7900   24.3950   34.5410 C   0  0  2  0  0  0  0  0  0  0  0  0
   41.1360   24.3100   34.0030 C   0  0  0  0  0  0  0  0  0  0  0  0
   41.0580   24.2840   32.6230 O   0  0  0  0  0  0  0  0  0  0  0  0
   39.7560   24.0880   32.2540 C   0  0  0  0  0  0  0  0  0  0  0  0
   39.2430   22.4810   33.6150 H   0  0  0  0  0  0  0  0  0  0  0  0
   39.3830   25.4360   34.4320 H   0  0  0  0  0  0  0  0  0  0  0  0
   41.6780   25.2690   34.2560 H   0  0  0  0  0  0  0  0  0  0  0  0
   41.7600   23.4750   34.3080 H   0  0  0  0  0  0  0  0  0  0  0  0
   39.2170   24.9850   31.9520 H   0  0  0  0  0  0  0  0  0  0  0  0
   39.7390   23.3440   31.4330 H   0  0  0  0  0  0  0  0  0  0  0  0
   38.2570   24.0230   37.9570 C   0  0  0  0  0  0  0  0  0  0  0  0
   38.4350   24.4780   36.6220 C   0  0  0  0  0  0  0  0  0  0  0  0
   39.5490   23.9640   35.8930 C   0  0  0  0  0  0  0  0  0  0  0  0
   40.3920   23.0630   36.5070 N   0  0  0  0  0  0  0  0  0  0  0  0
   40.1780   22.6690   37.7660 C   0  0  0  0  0  0  0  0  0  0  0  0
   39.1250   23.1340   38.4980 N   0  0  0  0  0  0  0  0  0  0  0  0
   37.3990   24.4460   38.4540 H   0  0  0  0  0  0  0  0  0  0  0  0
   37.7540   25.1760   36.1950 H   0  0  0  0  0  0  0  0  0  0  0  0
   40.8130   21.9640   38.2880 H   0  0  0  0  0  0  0  0  0  0  0  0
   37.9780   26.9800   33.2310 Cl  0  0  0  0  0  0  0  0  0  0  0  0
   36.8810   26.0150   32.2900 C   0  0  0  0  0  0  0  0  0  0  0  0
   36.9480   24.6530   32.5680 C   0  0  0  0  0  0  0  0  0  0  0  0
   36.0680   23.8650   31.8400 C   0  0  0  0  0  0  0  0  0  0  0  0
   35.1910   24.3970   30.9080 C   0  0  0  0  0  0  0  0  0  0  0  0
   35.1740   25.7430   30.6780 C   0  0  0  0  0  0  0  0  0  0  0  0
   36.0250   26.5490   31.3750 C   0  0  0  0  0  0  0  0  0  0  0  0
   35.9740   22.7900   31.9170 H   0  0  0  0  0  0  0  0  0  0  0  0
   34.4940   23.8100   30.3250 H   0  0  0  0  0  0  0  0  0  0  0  0
   34.5290   26.2490   29.9740 H   0  0  0  0  0  0  0  0  0  0  0  0
   36.7240   28.6890   30.1940 C   0  0  0  0  0  0  0  0  0  0  0  0
   36.0720   28.0010   31.1900 C   0  0  0  0  0  0  0  0  0  0  0  0
   35.3500   28.6730   32.1760 C   0  0  0  0  0  0  0  0  0  0  0  0
   34.8100   28.2110   32.9920 H   0  0  0  0  0  0  0  0  0  0  0  0
   35.3140   30.0680   32.1140 C   0  0  0  0  0  3  0  0  0  0  0  0
   35.9580   30.7890   31.1270 C   0  0  0  0  0  3  0  0  0  0  0  0
   36.6550   30.0670   30.1800 C   0  0  0  0  0  0  0  0  0  0  0  0
   37.4020   27.9090   29.2810 O   0  0  0  0  0  0  0  0  0  0  0  0
   37.7690   28.3840   28.4600 H   0  0  0  0  0  0  0  0  0  0  0  0
   37.3320   30.7220   29.1520 O   0  0  0  0  0  0  0  0  0  0  0  0
   37.8090   31.5870   29.3830 H   0  0  0  0  0  0  0  0  0  0  0  0
  1  2  1  0  0  0  0
  2  7  1  1  0  0  0
  2  3  1  0  0  0  0
  3  8  1  6  0  0  0
  3 15  1  0  0  0  0
  4  9  1  0  0  0  0
  4 10  1  0  0  0  0
  4  3  1  0  0  0  0
  5  4  1  0  0  0  0
  6  5  1  0  0  0  0
  6  2  1  0  0  0  0
 11  6  1  0  0  0  0
 12  6  1  0  0  0  0
 13 19  1  0  0  0  0
 13 18  1  0  0  0  0
 14 13  2  0  0  0  0
 15 16  2  0  0  0  0
 15 14  1  0  0  0  0
 16 17  1  0  0  0  0
 17 21  1  0  0  0  0
 17 18  2  0  0  0  0
 20 14  1  0  0  0  0
 23 24  1  0  0  0  0
 23 22  1  0  0  0  0
 24  1  1  0  0  0  0
 25 29  1  0  0  0  0
 25 24  2  0  0  0  0
 26 25  1  0  0  0  0
 27 26  2  0  0  0  0
 27 28  1  0  0  0  0
 28 23  2  0  0  0  0
 30 26  1  0  0  0  0
 31 27  1  0  0  0  0
 32 33  1  0  0  0  0
 33 28  1  0  0  0  0
 33 34  2  0  0  0  0
 34 35  1  0  0  0  0
 36 34  1  0  0  0  0
 37 36  2  0  0  0  0
 38 32  2  0  0  0  0
 38 37  1  0  0  0  0
 39 32  1  0  0  0  0
 40 39  1  0  0  0  0
 41 42  1  0  0  0  0
 41 38  1  0  0  0  0
M  END
>  <minimizedAffinity>
-6.12565756

$$$$

 OpenBabel03272501093D

 42 45  0  0  1  0  0  0  0  0999 V2000
   38.1380   25.2580   32.2160 O   0  0  0  0  0  0  0  0  0  0  0  0
   36.7810   25.2080   32.2460 C   0  0  2  0  0  0  0  0  0  0  0  0
   36.2010   24.3490   31.0760 C   0  0  2  0  0  0  0  0  0  0  0  0
   34.8940   24.9590   30.9120 C   0  0  0  0  0  0  0  0  0  0  0  0
   35.0060   26.3130   31.1630 O   0  0  0  0  0  0  0  0  0  0  0  0
   36.2280   26.5640   31.7220 C   0  0  0  0  0  0  0  0  0  0  0  0
   36.2820   24.9630   33.1820 H   0  0  0  0  0  0  0  0  0  0  0  0
   36.8590   24.5730   30.1930 H   0  0  0  0  0  0  0  0  0  0  0  0
   34.6000   24.8770   29.8240 H   0  0  0  0  0  0  0  0  0  0  0  0
   34.0730   24.5840   31.5170 H   0  0  0  0  0  0  0  0  0  0  0  0
   36.9820   26.9500   31.0380 H   0  0  0  0  0  0  0  0  0  0  0  0
   36.0850   27.2720   32.5620 H   0  0  0  0  0  0  0  0  0  0  0  0
   37.3470   20.7640   31.0460 C   0  0  0  0  0  0  0  0  0  0  0  0
   37.3230   22.1550   30.7530 C   0  0  0  0  0  0  0  0  0  0  0  0
   36.2860   22.9370   31.3440 C   0  0  0  0  0  0  0  0  0  0  0  0
   35.3660   22.3190   32.1630 N   0  0  0  0  0  0  0  0  0  0  0  0
   35.4350   21.0060   32.4060 C   0  0  0  0  0  0  0  0  0  0  0  0
   36.4100   20.2220   31.8610 N   0  0  0  0  0  0  0  0  0  0  0  0
   38.1520   20.2290   30.5710 H   0  0  0  0  0  0  0  0  0  0  0  0
   38.0580   22.5830   30.1120 H   0  0  0  0  0  0  0  0  0  0  0  0
   34.7350   20.4770   33.0410 H   0  0  0  0  0  0  0  0  0  0  0  0
   39.2670   22.7220   33.5700 Cl  0  0  0  0  0  0  0  0  0  0  0  0
   39.8180   24.3450   33.8610 C   0  0  0  0  0  0  0  0  0  0  0  0
   39.1370   25.3120   33.1270 C   0  0  0  0  0  0  0  0  0  0  0  0
   39.5490   26.6170   33.3570 C   0  0  0  0  0  0  0  0  0  0  0  0
   40.5620   26.9290   34.2490 C   0  0  0  0  0  0  0  0  0  0  0  0
   41.1940   25.9350   34.9400 C   0  0  0  0  0  0  0  0  0  0  0  0
   40.8160   24.6400   34.7390 C   0  0  0  0  0  0  0  0  0  0  0  0
   39.1410   27.4990   32.8820 H   0  0  0  0  0  0  0  0  0  0  0  0
   40.9060   27.9350   34.4500 H   0  0  0  0  0  0  0  0  0  0  0  0
   41.9920   26.0790   35.6540 H   0  0  0  0  0  0  0  0  0  0  0  0
   40.9380   22.8270   36.5180 C   0  0  0  0  0  0  0  0  0  0  0  0
   41.4410   23.5140   35.4370 C   0  0  0  0  0  0  0  0  0  0  0  0
   42.6730   23.1750   34.8780 C   0  0  0  0  0  0  0  0  0  0  0  0
   43.1390   23.6620   34.0320 H   0  0  0  0  0  0  0  0  0  0  0  0
   43.3740   22.1140   35.4530 C   0  0  0  0  0  3  0  0  0  0  0  0
   42.8980   21.4030   36.5370 C   0  0  0  0  0  3  0  0  0  0  0  0
   41.6730   21.7860   37.0470 C   0  0  0  0  0  0  0  0  0  0  0  0
   39.7120   23.2610   36.9770 O   0  0  0  0  0  0  0  0  0  0  0  0
   39.2580   22.6800   37.6780 H   0  0  0  0  0  0  0  0  0  0  0  0
   41.1240   21.1190   38.1400 O   0  0  0  0  0  0  0  0  0  0  0  0
   41.7580   20.8310   38.8780 H   0  0  0  0  0  0  0  0  0  0  0  0
  1  2  1  0  0  0  0
  1 24  1  0  0  0  0
  2  7  1  1  0  0  0
  3  8  1  6  0  0  0
  3 15  1  0  0  0  0
  3  2  1  0  0  0  0
  4  3  1  0  0  0  0
  4  5  1  0  0  0  0
  4 10  1  0  0  0  0
  5  6  1  0  0  0  0
  6  2  1  0  0  0  0
  6 12  1  0  0  0  0
  9  4  1  0  0  0  0
 11  6  1  0  0  0  0
 13 18  1  0  0  0  0
 14 13  2  0  0  0  0
 14 15  1  0  0  0  0
 15 16  2  0  0  0  0
 16 17  1  0  0  0  0
 17 21  1  0  0  0  0
 18 17  2  0  0  0  0
 19 13  1  0  0  0  0
 20 14  1  0  0  0  0
 22 23  1  0  0  0  0
 23 28  1  0  0  0  0
 24 25  1  0  0  0  0
 24 23  2  0  0  0  0
 25 26  2  0  0  0  0
 26 30  1  0  0  0  0
 26 27  1  0  0  0  0
 27 31  1  0  0  0  0
 28 27  2  0  0  0  0
 28 33  1  0  0  0  0
 29 25  1  0  0  0  0
 32 39  1  0  0  0  0
 32 38  1  0  0  0  0
 33 32  2  0  0  0  0
 34 33  1  0  0  0  0
 34 36  2  0  0  0  0
 35 34  1  0  0  0  0
 36 37  1  0  0  0  0
 37 38  2  0  0  0  0
 38 41  1  0  0  0  0
 39 40  1  0  0  0  0
 41 42  1  0  0  0  0
M  END
>  <minimizedAffinity>
-5.97728968

$$$$

 OpenBabel03272501093D

 42 45  0  0  1  0  0  0  0  0999 V2000
   38.0520   26.4080   32.5550 O   0  0  0  0  0  0  0  0  0  0  0  0
   39.2890   26.0430   32.9780 C   0  0  2  0  0  0  0  0  0  0  0  0
   39.3640   25.9210   34.5340 C   0  0  2  0  0  0  0  0  0  0  0  0
   40.7720   26.1960   34.7620 C   0  0  0  0  0  0  0  0  0  0  0  0
   41.1930   27.1320   33.8370 O   0  0  0  0  0  0  0  0  0  0  0  0
   40.2270   27.2810   32.8820 C   0  0  0  0  0  0  0  0  0  0  0  0
   39.7790   25.1940   32.5050 H   0  0  0  0  0  0  0  0  0  0  0  0
   38.7270   26.7590   34.9260 H   0  0  0  0  0  0  0  0  0  0  0  0
   40.8750   26.6980   35.7690 H   0  0  0  0  0  0  0  0  0  0  0  0
   41.4700   25.3640   34.7220 H   0  0  0  0  0  0  0  0  0  0  0  0
   39.5840   28.1520   33.0000 H   0  0  0  0  0  0  0  0  0  0  0  0
   40.7220   27.3120   31.8910 H   0  0  0  0  0  0  0  0  0  0  0  0
   37.7070   23.3550   36.7320 C   0  0  0  0  0  0  0  0  0  0  0  0
   38.2310   24.6090   36.3140 C   0  0  0  0  0  0  0  0  0  0  0  0
   38.8070   24.6820   35.0110 C   0  0  0  0  0  0  0  0  0  0  0  0
   38.8310   23.5510   34.2250 N   0  0  0  0  0  0  0  0  0  0  0  0
   38.3230   22.3960   34.6680 C   0  0  0  0  0  0  0  0  0  0  0  0
   37.7630   22.2820   35.9060 N   0  0  0  0  0  0  0  0  0  0  0  0
   37.2850   23.3630   37.7240 H   0  0  0  0  0  0  0  0  0  0  0  0
   38.1870   25.4540   36.9610 H   0  0  0  0  0  0  0  0  0  0  0  0
   38.3200   21.4820   34.0860 H   0  0  0  0  0  0  0  0  0  0  0  0
   36.5380   27.5610   34.9880 Cl  0  0  0  0  0  0  0  0  0  0  0  0
   36.5920   28.2820   33.4070 C   0  0  0  0  0  0  0  0  0  0  0  0
   37.3400   27.5570   32.4830 C   0  0  0  0  0  0  0  0  0  0  0  0
   37.3830   28.1050   31.2090 C   0  0  0  0  0  0  0  0  0  0  0  0
   36.7300   29.2830   30.8850 C   0  0  0  0  0  0  0  0  0  0  0  0
   36.0120   29.9500   31.8360 C   0  0  0  0  0  0  0  0  0  0  0  0
   35.9480   29.4420   33.1000 C   0  0  0  0  0  0  0  0  0  0  0  0
   37.9100   27.6880   30.3610 H   0  0  0  0  0  0  0  0  0  0  0  0
   36.7440   29.7350   29.9020 H   0  0  0  0  0  0  0  0  0  0  0  0
   35.4720   30.8720   31.6800 H   0  0  0  0  0  0  0  0  0  0  0  0
   33.8570   29.9760   34.4430 C   0  0  0  0  0  0  0  0  0  0  0  0
   35.2020   30.0920   34.1790 C   0  0  0  0  0  0  0  0  0  0  0  0
   36.0250   30.8940   34.9700 C   0  0  0  0  0  0  0  0  0  0  0  0
   37.0880   31.0390   34.8320 H   0  0  0  0  0  0  0  0  0  0  0  0
   35.4350   31.5720   36.0380 C   0  0  0  0  0  3  0  0  0  0  0  0
   34.0880   31.4780   36.3310 C   0  0  0  0  0  3  0  0  0  0  0  0
   33.3250   30.6690   35.5120 C   0  0  0  0  0  0  0  0  0  0  0  0
   33.1540   29.1550   33.5880 O   0  0  0  0  0  0  0  0  0  0  0  0
   32.1940   28.9420   33.8490 H   0  0  0  0  0  0  0  0  0  0  0  0
   31.9590   30.5220   35.7420 O   0  0  0  0  0  0  0  0  0  0  0  0
   31.4420   31.3450   36.0330 H   0  0  0  0  0  0  0  0  0  0  0  0
  1  2  1  0  0  0  0
  2  7  1  6  0  0  0
  2  3  1  0  0  0  0
  3  4  1  0  0  0  0
  3  8  1  1  0  0  0
  3 15  1  0  0  0  0
  4  9  1  0  0  0  0
  5  4  1  0  0  0  0
  6  2  1  0  0  0  0
  6 11  1  0  0  0  0
  6  5  1  0  0  0  0
 10  4  1  0  0  0  0
 12  6  1  0  0  0  0
 13 19  1  0  0  0  0
 14 13  1  0  0  0  0
 14 20  1  0  0  0  0
 15 14  2  0  0  0  0
 16 17  2  0  0  0  0
 16 15  1  0  0  0  0
 17 18  1  0  0  0  0
 18 13  2  0  0  0  0
 21 17  1  0  0  0  0
 23 22  1  0  0  0  0
 24  1  1  0  0  0  0
 24 23  2  0  0  0  0
 25 24  1  0  0  0  0
 26 25  2  0  0  0  0
 26 27  1  0  0  0  0
 27 28  2  0  0  0  0
 28 23  1  0  0  0  0
 28 33  1  0  0  0  0
 29 25  1  0  0  0  0
 30 26  1  0  0  0  0
 31 27  1  0  0  0  0
 32 38  1  0  0  0  0
 33 32  2  0  0  0  0
 33 34  1  0  0  0  0
 34 36  2  0  0  0  0
 35 34  1  0  0  0  0
 36 37  1  0  0  0  0
 38 41  1  0  0  0  0
 38 37  2  0  0  0  0
 39 40  1  0  0  0  0
 39 32  1  0  0  0  0
 41 42  1  0  0  0  0
M  END
>  <minimizedAffinity>
-5.96310377

$$$$

 OpenBabel03272501093D

 42 45  0  0  1  0  0  0  0  0999 V2000
   36.0390   21.9550   31.3980 O   0  0  0  0  0  0  0  0  0  0  0  0
   36.4270   20.8080   32.0140 C   0  0  2  0  0  0  0  0  0  0  0  0
   36.0990   19.5430   31.1560 C   0  0  2  0  0  0  0  0  0  0  0  0
   35.9600   18.5380   32.1950 C   0  0  0  0  0  0  0  0  0  0  0  0
   35.3980   19.1310   33.3090 O   0  0  0  0  0  0  0  0  0  0  0  0
   35.4070   20.4880   33.1440 C   0  0  0  0  0  0  0  0  0  0  0  0
   37.4340   20.7420   32.4210 H   0  0  0  0  0  0  0  0  0  0  0  0
   35.1060   19.7610   30.6790 H   0  0  0  0  0  0  0  0  0  0  0  0
   35.2050   17.7730   31.8470 H   0  0  0  0  0  0  0  0  0  0  0  0
   36.8530   18.0120   32.5230 H   0  0  0  0  0  0  0  0  0  0  0  0
   34.4610   20.9250   32.8260 H   0  0  0  0  0  0  0  0  0  0  0  0
   35.7320   20.9510   34.0980 H   0  0  0  0  0  0  0  0  0  0  0  0
   37.6280   18.7010   27.8220 C   0  0  0  0  0  0  0  0  0  0  0  0
   36.6300   18.9000   28.8160 C   0  0  0  0  0  0  0  0  0  0  0  0
   37.0600   19.3350   30.1050 C   0  0  0  0  0  0  0  0  0  0  0  0
   38.4040   19.5410   30.3280 N   0  0  0  0  0  0  0  0  0  0  0  0
   39.3010   19.3380   29.3570 C   0  0  0  0  0  0  0  0  0  0  0  0
   38.9330   18.9230   28.1100 N   0  0  0  0  0  0  0  0  0  0  0  0
   37.2410   18.3730   26.8710 H   0  0  0  0  0  0  0  0  0  0  0  0
   35.6040   18.7260   28.5910 H   0  0  0  0  0  0  0  0  0  0  0  0
   40.3660   19.4860   29.4860 H   0  0  0  0  0  0  0  0  0  0  0  0
   38.3060   23.0620   33.1800 Cl  0  0  0  0  0  0  0  0  0  0  0  0
   37.1430   24.0270   32.3190 C   0  0  0  0  0  0  0  0  0  0  0  0
   36.2200   23.2820   31.5930 C   0  0  0  0  0  0  0  0  0  0  0  0
   35.2710   24.0310   30.9120 C   0  0  0  0  0  0  0  0  0  0  0  0
   35.2490   25.4160   30.9540 C   0  0  0  0  0  0  0  0  0  0  0  0
   36.1840   26.0920   31.6850 C   0  0  0  0  0  0  0  0  0  0  0  0
   37.1330   25.3880   32.3680 C   0  0  0  0  0  0  0  0  0  0  0  0
   34.4760   23.6320   30.2960 H   0  0  0  0  0  0  0  0  0  0  0  0
   34.5240   26.0290   30.4350 H   0  0  0  0  0  0  0  0  0  0  0  0
   36.2470   27.1660   31.7790 H   0  0  0  0  0  0  0  0  0  0  0  0
   38.0400   26.5250   34.4520 C   0  0  0  0  0  0  0  0  0  0  0  0
   38.1710   26.0330   33.1740 C   0  0  0  0  0  0  0  0  0  0  0  0
   39.3850   26.1110   32.4930 C   0  0  0  0  0  0  0  0  0  0  0  0
   39.5720   25.7490   31.4900 H   0  0  0  0  0  0  0  0  0  0  0  0
   40.4610   26.7060   33.1540 C   0  0  0  0  0  3  0  0  0  0  0  0
   40.3640   27.2110   34.4360 C   0  0  0  0  0  3  0  0  0  0  0  0
   39.1360   27.1040   35.0590 C   0  0  0  0  0  0  0  0  0  0  0  0
   36.7890   26.3870   35.0150 O   0  0  0  0  0  0  0  0  0  0  0  0
   36.7080   26.6130   36.0040 H   0  0  0  0  0  0  0  0  0  0  0  0
   38.9580   27.5890   36.3530 O   0  0  0  0  0  0  0  0  0  0  0  0
   39.4200   28.4600   36.5940 H   0  0  0  0  0  0  0  0  0  0  0  0
  1 24  1  0  0  0  0
  1  2  1  0  0  0  0
  2  7  1  1  0  0  0
  2  6  1  0  0  0  0
  3  8  1  6  0  0  0
  3  2  1  0  0  0  0
  3  4  1  0  0  0  0
  4 10  1  0  0  0  0
  4  5  1  0  0  0  0
  6  5  1  0  0  0  0
  6 12  1  0  0  0  0
  9  4  1  0  0  0  0
 11  6  1  0  0  0  0
 13 18  2  0  0  0  0
 13 14  1  0  0  0  0
 14 15  2  0  0  0  0
 15 16  1  0  0  0  0
 15  3  1  0  0  0  0
 17 21  1  0  0  0  0
 17 16  2  0  0  0  0
 18 17  1  0  0  0  0
 19 13  1  0  0  0  0
 20 14  1  0  0  0  0
 23 28  1  0  0  0  0
 23 22  1  0  0  0  0
 24 23  2  0  0  0  0
 25 26  2  0  0  0  0
 25 24  1  0  0  0  0
 26 27  1  0  0  0  0
 27 31  1  0  0  0  0
 27 28  2  0  0  0  0
 28 33  1  0  0  0  0
 29 25  1  0  0  0  0
 30 26  1  0  0  0  0
 32 39  1  0  0  0  0
 32 38  1  0  0  0  0
 33 32  2  0  0  0  0
 34 36  2  0  0  0  0
 34 33  1  0  0  0  0
 35 34  1  0  0  0  0
 36 37  1  0  0  0  0
 37 38  2  0  0  0  0
 38 41  1  0  0  0  0
 39 40  1  0  0  0  0
 41 42  1  0  0  0  0
M  END
>  <minimizedAffinity>
-5.9624052

$$$$

 OpenBabel03272501093D

 42 45  0  0  1  0  0  0  0  0999 V2000
   37.6900   27.5990   32.1630 O   0  0  0  0  0  0  0  0  0  0  0  0
   38.2390   26.9290   31.1170 C   0  0  2  0  0  0  0  0  0  0  0  0
   38.8260   25.5470   31.5490 C   0  0  2  0  0  0  0  0  0  0  0  0
   39.8610   25.3650   30.5470 C   0  0  0  0  0  0  0  0  0  0  0  0
   40.4010   26.6000   30.2440 O   0  0  0  0  0  0  0  0  0  0  0  0
   39.6140   27.5770   30.7870 C   0  0  0  0  0  0  0  0  0  0  0  0
   37.6670   26.8300   30.1960 H   0  0  0  0  0  0  0  0  0  0  0  0
   39.2790   25.7230   32.5620 H   0  0  0  0  0  0  0  0  0  0  0  0
   40.7030   24.7730   31.0140 H   0  0  0  0  0  0  0  0  0  0  0  0
   39.5890   24.8900   29.6090 H   0  0  0  0  0  0  0  0  0  0  0  0
   39.9770   28.0010   31.7220 H   0  0  0  0  0  0  0  0  0  0  0  0
   39.4900   28.3800   30.0330 H   0  0  0  0  0  0  0  0  0  0  0  0
   35.6000   23.6470   31.1690 C   0  0  0  0  0  0  0  0  0  0  0  0
   36.5740   24.6650   30.9800 C   0  0  0  0  0  0  0  0  0  0  0  0
   37.8040   24.5420   31.6910 C   0  0  0  0  0  0  0  0  0  0  0  0
   37.9930   23.4570   32.5190 N   0  0  0  0  0  0  0  0  0  0  0  0
   37.0430   22.5270   32.6610 C   0  0  0  0  0  0  0  0  0  0  0  0
   35.8520   22.6060   31.9990 N   0  0  0  0  0  0  0  0  0  0  0  0
   34.6930   23.7960   30.6060 H   0  0  0  0  0  0  0  0  0  0  0  0
   36.3770   25.4840   30.3270 H   0  0  0  0  0  0  0  0  0  0  0  0
   37.1470   21.6590   33.3000 H   0  0  0  0  0  0  0  0  0  0  0  0
   36.4690   28.2620   34.9220 Cl  0  0  0  0  0  0  0  0  0  0  0  0
   36.0830   29.0710   33.4320 C   0  0  0  0  0  0  0  0  0  0  0  0
   36.7680   28.5750   32.3270 C   0  0  0  0  0  0  0  0  0  0  0  0
   36.4620   29.1950   31.1240 C   0  0  0  0  0  0  0  0  0  0  0  0
   35.5430   30.2290   31.0340 C   0  0  0  0  0  0  0  0  0  0  0  0
   34.9030   30.6720   32.1560 C   0  0  0  0  0  0  0  0  0  0  0  0
   35.1790   30.0870   33.3570 C   0  0  0  0  0  0  0  0  0  0  0  0
   36.8900   28.9490   30.1620 H   0  0  0  0  0  0  0  0  0  0  0  0
   35.2820   30.7320   30.1130 H   0  0  0  0  0  0  0  0  0  0  0  0
   34.1730   31.4690   32.1860 H   0  0  0  0  0  0  0  0  0  0  0  0
   35.0530   31.3490   35.5600 C   0  0  0  0  0  0  0  0  0  0  0  0
   34.5390   30.5010   34.6070 C   0  0  0  0  0  0  0  0  0  0  0  0
   33.2780   29.9250   34.7600 C   0  0  0  0  0  0  0  0  0  0  0  0
   32.8010   29.2510   34.0610 H   0  0  0  0  0  0  0  0  0  0  0  0
   32.5580   30.2410   35.9140 C   0  0  0  0  0  3  0  0  0  0  0  0
   33.0460   31.0880   36.8910 C   0  0  0  0  0  3  0  0  0  0  0  0
   34.2990   31.6260   36.6820 C   0  0  0  0  0  0  0  0  0  0  0  0
   36.3080   31.8510   35.2900 O   0  0  0  0  0  0  0  0  0  0  0  0
   36.6460   32.5870   35.9070 H   0  0  0  0  0  0  0  0  0  0  0  0
   34.8610   32.4900   37.6210 O   0  0  0  0  0  0  0  0  0  0  0  0
   34.7080   32.2780   38.6020 H   0  0  0  0  0  0  0  0  0  0  0  0
  1 24  1  0  0  0  0
  2  7  1  6  0  0  0
  2  3  1  0  0  0  0
  2  1  1  0  0  0  0
  3 15  1  0  0  0  0
  3  8  1  1  0  0  0
  4  9  1  0  0  0  0
  4  3  1  0  0  0  0
  5  4  1  0  0  0  0
  5  6  1  0  0  0  0
  6  2  1  0  0  0  0
  6 11  1  0  0  0  0
 10  4  1  0  0  0  0
 12  6  1  0  0  0  0
 13 18  1  0  0  0  0
 14 13  2  0  0  0  0
 14 15  1  0  0  0  0
 15 16  2  0  0  0  0
 16 17  1  0  0  0  0
 17 21  1  0  0  0  0
 18 17  2  0  0  0  0
 19 13  1  0  0  0  0
 20 14  1  0  0  0  0
 23 22  1  0  0  0  0
 24 23  2  0  0  0  0
 25 24  1  0  0  0  0
 26 25  2  0  0  0  0
 26 27  1  0  0  0  0
 27 31  1  0  0  0  0
 27 28  2  0  0  0  0
 28 23  1  0  0  0  0
 28 33  1  0  0  0  0
 29 25  1  0  0  0  0
 30 26  1  0  0  0  0
 32 38  1  0  0  0  0
 33 34  1  0  0  0  0
 33 32  2  0  0  0  0
 34 36  2  0  0  0  0
 35 34  1  0  0  0  0
 36 37  1  0  0  0  0
 38 37  2  0  0  0  0
 38 41  1  0  0  0  0
 39 32  1  0  0  0  0
 39 40  1  0  0  0  0
 41 42  1  0  0  0  0
M  END
>  <minimizedAffinity>
-5.84819031

$$$$

 OpenBabel03272501093D

 42 45  0  0  1  0  0  0  0  0999 V2000
   36.6620   26.0860   32.4940 O   0  0  0  0  0  0  0  0  0  0  0  0
   36.7770   26.5190   31.2120 C   0  0  2  0  0  0  0  0  0  0  0  0
   38.1690   27.1750   30.9380 C   0  0  2  0  0  0  0  0  0  0  0  0
   37.8330   28.0880   29.8610 C   0  0  0  0  0  0  0  0  0  0  0  0
   36.5550   28.5690   30.0740 O   0  0  0  0  0  0  0  0  0  0  0  0
   35.9610   27.8350   31.0620 C   0  0  0  0  0  0  0  0  0  0  0  0
   36.5080   25.8450   30.4000 H   0  0  0  0  0  0  0  0  0  0  0  0
   38.4160   27.7410   31.8770 H   0  0  0  0  0  0  0  0  0  0  0  0
   38.5100   28.9900   29.9380 H   0  0  0  0  0  0  0  0  0  0  0  0
   37.8740   27.7160   28.8410 H   0  0  0  0  0  0  0  0  0  0  0  0
   35.9580   28.2980   32.0480 H   0  0  0  0  0  0  0  0  0  0  0  0
   34.9220   27.6100   30.7500 H   0  0  0  0  0  0  0  0  0  0  0  0
   41.4580   25.3530   31.0940 C   0  0  0  0  0  0  0  0  0  0  0  0
   40.4760   26.3490   31.3500 C   0  0  0  0  0  0  0  0  0  0  0  0
   39.2010   26.1940   30.7280 C   0  0  0  0  0  0  0  0  0  0  0  0
   38.9800   25.1010   29.9180 N   0  0  0  0  0  0  0  0  0  0  0  0
   39.9400   24.1940   29.7120 C   0  0  0  0  0  0  0  0  0  0  0  0
   41.1720   24.3030   30.2870 N   0  0  0  0  0  0  0  0  0  0  0  0
   42.3980   25.5260   31.5920 H   0  0  0  0  0  0  0  0  0  0  0  0
   40.6990   27.1750   31.9840 H   0  0  0  0  0  0  0  0  0  0  0  0
   39.8120   23.3200   29.0840 H   0  0  0  0  0  0  0  0  0  0  0  0
   38.5740   23.7690   33.2120 Cl  0  0  0  0  0  0  0  0  0  0  0  0
   38.3580   25.2190   34.1470 C   0  0  0  0  0  0  0  0  0  0  0  0
   37.4290   26.1040   33.6080 C   0  0  0  0  0  0  0  0  0  0  0  0
   37.2280   27.2610   34.3470 C   0  0  0  0  0  0  0  0  0  0  0  0
   37.9020   27.5120   35.5320 C   0  0  0  0  0  0  0  0  0  0  0  0
   38.8020   26.6040   36.0100 C   0  0  0  0  0  0  0  0  0  0  0  0
   39.0270   25.4560   35.3100 C   0  0  0  0  0  0  0  0  0  0  0  0
   36.5490   28.0630   34.0900 H   0  0  0  0  0  0  0  0  0  0  0  0
   37.7670   28.4030   36.1310 H   0  0  0  0  0  0  0  0  0  0  0  0
   39.3740   26.7110   36.9210 H   0  0  0  0  0  0  0  0  0  0  0  0
   39.7420   23.4210   36.6560 C   0  0  0  0  0  0  0  0  0  0  0  0
   39.9750   24.4310   35.7510 C   0  0  0  0  0  0  0  0  0  0  0  0
   41.2180   24.5730   35.1350 C   0  0  0  0  0  0  0  0  0  0  0  0
   41.4840   25.3360   34.4150 H   0  0  0  0  0  0  0  0  0  0  0  0
   42.2150   23.6550   35.4700 C   0  0  0  0  0  3  0  0  0  0  0  0
   42.0150   22.6310   36.3740 C   0  0  0  0  0  3  0  0  0  0  0  0
   40.7640   22.5410   36.9500 C   0  0  0  0  0  0  0  0  0  0  0  0
   38.4730   23.3890   37.1940 O   0  0  0  0  0  0  0  0  0  0  0  0
   38.2360   22.5720   37.7520 H   0  0  0  0  0  0  0  0  0  0  0  0
   40.4830   21.5350   37.8720 O   0  0  0  0  0  0  0  0  0  0  0  0
   41.2120   21.2890   38.5330 H   0  0  0  0  0  0  0  0  0  0  0  0
  1 24  1  0  0  0  0
  2  7  1  6  0  0  0
  2  1  1  0  0  0  0
  3  2  1  0  0  0  0
  3  8  1  1  0  0  0
  4  9  1  0  0  0  0
  4  5  1  0  0  0  0
  4  3  1  0  0  0  0
  5  6  1  0  0  0  0
  6  2  1  0  0  0  0
  6 11  1  0  0  0  0
 10  4  1  0  0  0  0
 12  6  1  0  0  0  0
 13 14  1  0  0  0  0
 13 19  1  0  0  0  0
 14 20  1  0  0  0  0
 15  3  1  0  0  0  0
 15 14  2  0  0  0  0
 16 15  1  0  0  0  0
 17 16  2  0  0  0  0
 17 18  1  0  0  0  0
 18 13  2  0  0  0  0
 21 17  1  0  0  0  0
 22 23  1  0  0  0  0
 23 28  1  0  0  0  0
 24 23  2  0  0  0  0
 24 25  1  0  0  0  0
 25 26  2  0  0  0  0
 26 27  1  0  0  0  0
 26 30  1  0  0  0  0
 27 31  1  0  0  0  0
 28 33  1  0  0  0  0
 28 27  2  0  0  0  0
 29 25  1  0  0  0  0
 32 38  1  0  0  0  0
 32 39  1  0  0  0  0
 33 32  2  0  0  0  0
 34 36  2  0  0  0  0
 34 33  1  0  0  0  0
 35 34  1  0  0  0  0
 36 37  1  0  0  0  0
 37 38  2  0  0  0  0
 38 41  1  0  0  0  0
 39 40  1  0  0  0  0
 41 42  1  0  0  0  0
M  END
>  <minimizedAffinity>
-5.84154367

$$$$
