
 OpenBabel03272510173D

 30 32  0  0  0  0  0  0  0  0999 V2000
   37.2130   29.5390   51.1890 Br  0  0  0  0  0  0  0  0  0  0  0  0
   35.9690   29.3740   49.7450 C   0  0  0  0  0  0  0  0  0  0  0  0
   36.0500   30.2000   48.6230 C   0  0  0  0  0  0  0  0  0  0  0  0
   35.1170   30.0170   47.6230 C   0  0  0  0  0  0  0  0  0  0  0  0
   34.1170   29.0610   47.6860 C   0  0  0  0  0  0  0  0  0  0  0  0
   34.0640   28.2630   48.8050 C   0  0  0  0  0  0  0  0  0  0  0  0
   34.9830   28.4260   49.8160 C   0  0  0  0  0  0  0  0  0  0  0  0
   35.1730   30.6560   46.7450 H   0  0  0  0  0  0  0  0  0  0  0  0
   33.2870   27.5130   48.8650 H   0  0  0  0  0  0  0  0  0  0  0  0
   34.9200   27.7800   50.6960 H   0  0  0  0  0  0  0  0  0  0  0  0
   38.0110   33.1840   49.3970 C   0  0  0  0  0  0  0  0  0  0  0  0
   39.0360   33.1570   48.4290 C   0  0  0  0  0  0  0  0  0  0  0  0
   39.0470   32.1010   47.5040 C   0  0  0  0  0  0  0  0  0  0  0  0
   38.0620   31.1530   47.5910 N   0  0  0  0  0  0  0  0  0  0  0  0
   37.0920   31.2110   48.5360 C   0  0  0  0  0  0  0  0  0  0  0  0
   37.0690   32.2180   49.4300 N   0  0  0  0  0  0  0  0  0  0  0  0
   38.0460   34.0190   50.0900 H   0  0  0  0  0  0  0  0  0  0  0  0
   39.8220   33.8690   48.3210 H   0  0  0  0  0  0  0  0  0  0  0  0
   39.7710   31.9680   46.7190 H   0  0  0  0  0  0  0  0  0  0  0  0
   33.1090   27.8060   45.8030 C   0  0  0  0  0  0  0  0  0  0  0  0
   33.1770   28.9500   46.5690 C   0  0  0  0  0  0  0  0  0  0  0  0
   32.3420   29.9960   46.2710 C   0  0  0  0  0  0  0  0  0  0  0  0
   32.3390   30.9080   46.8180 H   0  0  0  0  0  0  0  0  0  0  0  0
   31.4670   29.8350   45.1960 C   0  0  0  0  0  3  0  0  0  0  0  0
   31.3960   28.6890   44.4220 C   0  0  0  0  0  3  0  0  0  0  0  0
   32.2430   27.6510   44.7400 C   0  0  0  0  0  0  0  0  0  0  0  0
   33.9680   26.7560   46.1250 O   0  0  0  0  0  0  0  0  0  0  0  0
   34.4640   26.2190   45.4290 H   0  0  0  0  0  0  0  0  0  0  0  0
   32.2370   26.4540   44.0100 O   0  0  0  0  0  0  0  0  0  0  0  0
   32.8610   26.3570   43.1970 H   0  0  0  0  0  0  0  0  0  0  0  0
  2  7  1  0  0  0  0
  2  1  1  0  0  0  0
  3  2  2  0  0  0  0
  4  5  2  0  0  0  0
  4  3  1  0  0  0  0
  5  6  1  0  0  0  0
  6  9  1  0  0  0  0
  6  7  2  0  0  0  0
  7 10  1  0  0  0  0
  8  4  1  0  0  0  0
 11 16  1  0  0  0  0
 11 17  1  0  0  0  0
 12 11  2  0  0  0  0
 13 14  2  0  0  0  0
 13 12  1  0  0  0  0
 14 15  1  0  0  0  0
 15  3  1  0  0  0  0
 15 16  2  0  0  0  0
 18 12  1  0  0  0  0
 19 13  1  0  0  0  0
 20 27  1  0  0  0  0
 20 21  1  0  0  0  0
 21  5  1  0  0  0  0
 22 21  2  0  0  0  0
 22 23  1  0  0  0  0
 24 22  1  0  0  0  0
 25 26  1  0  0  0  0
 25 24  2  0  0  0  0
 26 20  2  0  0  0  0
 28 27  1  0  0  0  0
 29 26  1  0  0  0  0
 30 29  1  0  0  0  0
M  END
>  <minimizedAffinity>
-6.00293684

>  <minimizedRMSD>
0.403219849

$$$$
