
 OpenBabel03272506483D

 44 47  0  0  1  0  0  0  0  0999 V2000
   32.1320   28.4160   47.4040 C   0  0  2  0  0  0  0  0  0  0  0  0
   33.3550   28.3380   48.2710 C   0  0  1  0  0  0  0  0  0  0  0  0
   33.8060   27.0530   48.2490 O   0  0  0  0  0  0  0  0  0  0  0  0
   33.1530   26.3490   47.2430 C   0  0  0  0  0  0  0  0  0  0  0  0
   32.5400   27.3740   46.3200 C   0  0  1  0  0  0  0  0  0  0  0  0
   31.2080   28.0740   47.8560 H   0  0  0  0  0  0  0  0  0  0  0  0
   33.1680   28.7340   49.2980 H   0  0  0  0  0  0  0  0  0  0  0  0
   32.4400   25.7000   47.7590 H   0  0  0  0  0  0  0  0  0  0  0  0
   33.8580   25.6760   46.6960 H   0  0  0  0  0  0  0  0  0  0  0  0
   33.2900   27.8340   45.6840 H   0  0  0  0  0  0  0  0  0  0  0  0
   32.0320   29.6880   46.8040 O   0  0  0  0  0  0  0  0  0  0  0  0
   32.1290   30.3340   47.5460 H   0  0  0  0  0  0  0  0  0  0  0  0
   34.6460   29.3980   47.5060 S   0  0  0  0  0  0  0  0  0  0  0  0
   37.1080   29.2770   50.6090 C   0  0  0  0  0  0  0  0  0  0  0  0
   37.5830   30.5790   50.7480 C   0  0  0  0  0  0  0  0  0  0  0  0
   37.1280   31.5370   49.8470 C   0  0  0  0  0  0  0  0  0  0  0  0
   36.2410   31.1580   48.8770 N   0  0  0  0  0  0  0  0  0  0  0  0
   35.8070   29.8810   48.7830 C   0  0  0  0  0  0  0  0  0  0  0  0
   36.2320   28.9250   49.6430 N   0  0  0  0  0  0  0  0  0  0  0  0
   37.4510   28.5200   51.3010 H   0  0  0  0  0  0  0  0  0  0  0  0
   38.2840   30.8320   51.5310 H   0  0  0  0  0  0  0  0  0  0  0  0
   37.4730   32.5530   49.9230 H   0  0  0  0  0  0  0  0  0  0  0  0
   31.4370   26.8280   45.7110 O   0  0  0  0  0  0  0  0  0  0  0  0
   30.0230   28.6380   43.8690 Cl  0  0  0  0  0  0  0  0  0  0  0  0
   29.4110   27.8450   45.3030 C   0  0  0  0  0  0  0  0  0  0  0  0
   30.1710   27.0060   46.0840 C   0  0  0  0  0  0  0  0  0  0  0  0
   29.5610   26.4120   47.1900 C   0  0  0  0  0  0  0  0  0  0  0  0
   28.2420   26.6620   47.4880 C   0  0  0  0  0  0  0  0  0  0  0  0
   27.4690   27.5040   46.7090 C   0  0  0  0  0  0  0  0  0  0  0  0
   28.0610   28.0990   45.6090 C   0  0  0  0  0  0  0  0  0  0  0  0
   30.0550   25.7370   47.8640 H   0  0  0  0  0  0  0  0  0  0  0  0
   27.7000   26.2430   48.3230 H   0  0  0  0  0  0  0  0  0  0  0  0
   26.4220   27.7200   46.9230 H   0  0  0  0  0  0  0  0  0  0  0  0
   27.3170   30.3020   45.2510 C   0  0  0  0  0  0  0  0  0  0  0  0
   27.2660   28.9950   44.7710 C   0  0  0  0  0  0  0  0  0  0  0  0
   26.5280   28.7060   43.6450 C   0  0  0  0  0  0  0  0  0  0  0  0
   26.5640   27.6630   43.3690 H   0  0  0  0  0  0  0  0  0  0  0  0
   25.8480   29.7250   43.0070 C   0  0  0  0  0  3  0  0  0  0  0  0
   25.8830   31.0230   43.4600 C   0  0  0  0  0  3  0  0  0  0  0  0
   26.6300   31.3210   44.6030 C   0  0  0  0  0  0  0  0  0  0  0  0
   28.0120   30.7470   46.3650 O   0  0  0  0  0  0  0  0  0  0  0  0
   27.7820   30.5630   47.3160 H   0  0  0  0  0  0  0  0  0  0  0  0
   26.6260   32.6470   45.0100 O   0  0  0  0  0  0  0  0  0  0  0  0
   26.7900   32.8120   46.0130 H   0  0  0  0  0  0  0  0  0  0  0  0
  1  6  1  1  0  0  0
  1  2  1  0  0  0  0
  2  7  1  1  0  0  0
  3  2  1  0  0  0  0
  4  8  1  0  0  0  0
  4  3  1  0  0  0  0
  5 10  1  6  0  0  0
  5  4  1  0  0  0  0
  5  1  1  0  0  0  0
  9  4  1  0  0  0  0
 11  1  1  0  0  0  0
 11 12  1  0  0  0  0
 13  2  1  0  0  0  0
 13 18  1  0  0  0  0
 14 15  1  0  0  0  0
 14 20  1  0  0  0  0
 15 21  1  0  0  0  0
 16 22  1  0  0  0  0
 16 15  2  0  0  0  0
 17 16  1  0  0  0  0
 18 17  2  0  0  0  0
 18 19  1  0  0  0  0
 19 14  2  0  0  0  0
 23 26  1  0  0  0  0
 23  5  1  0  0  0  0
 24 25  1  0  0  0  0
 25 30  2  0  0  0  0
 25 26  1  0  0  0  0
 26 27  2  0  0  0  0
 27 28  1  0  0  0  0
 27 31  1  0  0  0  0
 28 32  1  0  0  0  0
 29 33  1  0  0  0  0
 29 28  2  0  0  0  0
 30 29  1  0  0  0  0
 34 41  1  0  0  0  0
 35 34  1  0  0  0  0
 35 30  1  0  0  0  0
 36 35  2  0  0  0  0
 37 36  1  0  0  0  0
 38 39  2  0  0  0  0
 38 36  1  0  0  0  0
 39 40  1  0  0  0  0
 40 43  1  0  0  0  0
 40 34  2  0  0  0  0
 41 42  1  0  0  0  0
 43 44  1  0  0  0  0
M  END
>  <minimizedAffinity>
-5.5682373

>  <minimizedRMSD>
0.483068436

$$$$
