
 OpenBabel03262523393D

 47 50  0  0  1  0  0  0  0  0999 V2000
   36.8220   23.6340   31.1700 C   0  0  2  0  0  0  0  0  0  0  0  0
   37.9450   24.3700   31.8030 C   0  0  0  0  0  0  0  0  0  0  0  0
   37.4870   25.3820   32.8510 C   0  0  2  0  0  0  0  0  0  0  0  0
   36.6240   26.4240   32.1810 C   0  0  0  0  0  0  0  0  0  0  0  0
   35.5720   25.8090   31.2810 C   0  0  0  0  0  0  0  0  0  0  0  0
   35.4970   24.3120   31.4510 C   0  0  0  0  0  0  0  0  0  0  0  0
   36.8830   23.5910   30.0440 H   0  0  0  0  0  0  0  0  0  0  0  0
   38.3330   25.0600   30.9680 H   0  0  0  0  0  0  0  0  0  0  0  0
   38.8060   23.8850   32.1660 H   0  0  0  0  0  0  0  0  0  0  0  0
   36.7990   24.8240   33.5150 H   0  0  0  0  0  0  0  0  0  0  0  0
   36.0530   26.9120   33.0230 H   0  0  0  0  0  0  0  0  0  0  0  0
   37.2450   27.1750   31.6870 H   0  0  0  0  0  0  0  0  0  0  0  0
   34.5790   26.2410   31.4020 H   0  0  0  0  0  0  0  0  0  0  0  0
   35.9240   25.9990   30.2370 H   0  0  0  0  0  0  0  0  0  0  0  0
   35.1240   24.0940   32.4610 H   0  0  0  0  0  0  0  0  0  0  0  0
   34.7520   23.9390   30.7160 H   0  0  0  0  0  0  0  0  0  0  0  0
   38.5920   25.9010   33.6620 C   0  0  2  0  0  0  0  0  0  0  0  0
   39.4870   26.9130   32.9830 C   0  0  0  0  0  0  0  0  0  0  0  0
   40.6020   26.9630   34.0400 C   0  0  0  0  0  0  0  0  0  0  0  0
   40.7750   25.6590   34.4290 O   0  0  0  0  0  0  0  0  0  0  0  0
   39.5860   24.9440   34.1760 C   0  0  1  0  0  0  0  0  0  0  0  0
   38.1500   26.4470   34.5270 H   0  0  0  0  0  0  0  0  0  0  0  0
   39.8590   26.5600   32.0150 H   0  0  0  0  0  0  0  0  0  0  0  0
   39.0090   27.9040   32.9410 H   0  0  0  0  0  0  0  0  0  0  0  0
   40.2100   27.5500   34.8870 H   0  0  0  0  0  0  0  0  0  0  0  0
   41.5090   27.4210   33.5940 H   0  0  0  0  0  0  0  0  0  0  0  0
   39.8690   24.1100   33.5460 H   0  0  0  0  0  0  0  0  0  0  0  0
   39.9490   23.3500   36.1480 C   0  0  0  0  0  0  0  0  0  0  0  0
   39.2500   24.3660   35.5310 C   0  0  0  0  0  0  0  0  0  0  0  0
   38.1620   24.8440   36.2650 C   0  0  0  0  0  0  0  0  0  0  0  0
   37.5440   25.6340   35.8870 H   0  0  0  0  0  0  0  0  0  0  0  0
   37.7920   24.3650   37.5030 C   0  0  0  0  0  3  0  0  0  0  0  0
   38.5390   23.3480   38.0580 C   0  0  0  0  0  3  0  0  0  0  0  0
   39.6240   22.8350   37.3800 C   0  0  0  0  0  0  0  0  0  0  0  0
   41.0320   22.8190   35.5060 O   0  0  0  0  0  0  0  0  0  0  0  0
   41.9960   22.9380   35.8290 H   0  0  0  0  0  0  0  0  0  0  0  0
   40.3800   21.8120   37.9340 O   0  0  0  0  0  0  0  0  0  0  0  0
   41.0560   22.0180   38.6390 H   0  0  0  0  0  0  0  0  0  0  0  0
   36.7040   22.2370   31.6410 C   0  0  0  0  0  0  0  0  0  0  0  0
   35.4480   21.8690   32.1260 C   0  0  0  0  0  0  0  0  0  0  0  0
   35.2670   20.5730   32.5590 C   0  0  0  0  0  0  0  0  0  0  0  0
   36.3310   19.6910   32.4980 N   0  0  0  0  0  0  0  0  0  0  0  0
   37.5470   20.0850   32.0200 C   0  0  0  0  0  0  0  0  0  0  0  0
   37.6980   21.3360   31.6080 N   0  0  0  0  0  0  0  0  0  0  0  0
   34.4880   22.3280   32.2830 H   0  0  0  0  0  0  0  0  0  0  0  0
   34.4370   20.0410   32.9640 H   0  0  0  0  0  0  0  0  0  0  0  0
   38.3840   19.4180   31.9640 H   0  0  0  0  0  0  0  0  0  0  0  0
  1  7  1  6  0  0  0
  1  6  1  0  0  0  0
  1 39  1  0  0  0  0
  1  2  1  0  0  0  0
  2  9  1  0  0  0  0
  2  3  1  0  0  0  0
  3 10  1  1  0  0  0
  3 17  1  0  0  0  0
  4  3  1  0  0  0  0
  4 11  1  0  0  0  0
  5 13  1  0  0  0  0
  5  6  1  0  0  0  0
  5  4  1  0  0  0  0
  6 15  1  0  0  0  0
  8  2  1  0  0  0  0
 12  4  1  0  0  0  0
 14  5  1  0  0  0  0
 16  6  1  0  0  0  0
 17 21  1  0  0  0  0
 17 22  1  1  0  0  0
 18 17  1  0  0  0  0
 18 19  1  0  0  0  0
 19 20  1  0  0  0  0
 19 25  1  0  0  0  0
 21 27  1  6  0  0  0
 21 20  1  0  0  0  0
 21 29  1  0  0  0  0
 23 18  1  0  0  0  0
 24 18  1  0  0  0  0
 26 19  1  0  0  0  0
 28 34  1  0  0  0  0
 29 28  2  0  0  0  0
 29 30  1  0  0  0  0
 30 32  2  0  0  0  0
 31 30  1  0  0  0  0
 32 33  1  0  0  0  0
 34 37  1  0  0  0  0
 34 33  2  0  0  0  0
 35 36  1  0  0  0  0
 35 28  1  0  0  0  0
 37 38  1  0  0  0  0
 39 40  1  0  0  0  0
 40 45  1  0  0  0  0
 40 41  2  0  0  0  0
 41 46  1  0  0  0  0
 42 41  1  0  0  0  0
 43 42  2  0  0  0  0
 44 39  2  0  0  0  0
 44 43  1  0  0  0  0
 47 43  1  0  0  0  0
M  END
>  <minimizedAffinity>
-6.78753757

$$$$

 OpenBabel03262523393D

 47 50  0  0  1  0  0  0  0  0999 V2000
   37.9670   22.4310   31.9010 C   0  0  2  0  0  0  0  0  0  0  0  0
   38.3450   23.2740   33.0630 C   0  0  0  0  0  0  0  0  0  0  0  0
   37.7610   24.6840   33.0000 C   0  0  2  0  0  0  0  0  0  0  0  0
   38.3020   25.3830   31.7760 C   0  0  0  0  0  0  0  0  0  0  0  0
   38.2140   24.5230   30.5330 C   0  0  0  0  0  0  0  0  0  0  0  0
   37.4030   23.2740   30.7750 C   0  0  0  0  0  0  0  0  0  0  0  0
   38.8360   21.8830   31.4340 H   0  0  0  0  0  0  0  0  0  0  0  0
   39.4670   23.4810   32.9050 H   0  0  0  0  0  0  0  0  0  0  0  0
   38.2780   22.9320   34.0560 H   0  0  0  0  0  0  0  0  0  0  0  0
   36.6820   24.5440   32.7960 H   0  0  0  0  0  0  0  0  0  0  0  0
   37.5950   26.2450   31.5990 H   0  0  0  0  0  0  0  0  0  0  0  0
   39.3030   25.7780   31.9720 H   0  0  0  0  0  0  0  0  0  0  0  0
   37.8260   25.0460   29.6590 H   0  0  0  0  0  0  0  0  0  0  0  0
   39.2620   24.1940   30.3230 H   0  0  0  0  0  0  0  0  0  0  0  0
   36.3600   23.5640   30.9560 H   0  0  0  0  0  0  0  0  0  0  0  0
   37.4420   22.6760   29.8400 H   0  0  0  0  0  0  0  0  0  0  0  0
   37.9030   25.4150   34.2620 C   0  0  2  0  0  0  0  0  0  0  0  0
   37.4050   26.8420   34.2550 C   0  0  0  0  0  0  0  0  0  0  0  0
   37.9780   27.2810   35.6130 C   0  0  0  0  0  0  0  0  0  0  0  0
   39.2260   26.7150   35.6660 O   0  0  0  0  0  0  0  0  0  0  0  0
   39.2550   25.5900   34.8160 C   0  0  1  0  0  0  0  0  0  0  0  0
   37.2750   24.8980   35.0240 H   0  0  0  0  0  0  0  0  0  0  0  0
   37.8240   27.4270   33.4290 H   0  0  0  0  0  0  0  0  0  0  0  0
   36.3060   26.8830   34.3170 H   0  0  0  0  0  0  0  0  0  0  0  0
   37.3370   26.8290   36.3880 H   0  0  0  0  0  0  0  0  0  0  0  0
   37.9850   28.3890   35.6650 H   0  0  0  0  0  0  0  0  0  0  0  0
   40.0750   25.7570   34.1280 H   0  0  0  0  0  0  0  0  0  0  0  0
   38.9550   24.0080   36.8090 C   0  0  0  0  0  0  0  0  0  0  0  0
   39.6940   24.4830   35.7470 C   0  0  0  0  0  0  0  0  0  0  0  0
   40.9300   23.8540   35.5800 C   0  0  0  0  0  0  0  0  0  0  0  0
   41.5930   24.1370   34.7860 H   0  0  0  0  0  0  0  0  0  0  0  0
   41.4000   22.8420   36.3880 C   0  0  0  0  0  3  0  0  0  0  0  0
   40.6050   22.4190   37.4310 C   0  0  0  0  0  3  0  0  0  0  0  0
   39.3750   23.0030   37.6470 C   0  0  0  0  0  0  0  0  0  0  0  0
   37.7300   24.5630   37.0510 O   0  0  0  0  0  0  0  0  0  0  0  0
   36.8460   24.0620   36.9210 H   0  0  0  0  0  0  0  0  0  0  0  0
   38.5700   22.5810   38.6950 O   0  0  0  0  0  0  0  0  0  0  0  0
   38.0350   21.7430   38.6060 H   0  0  0  0  0  0  0  0  0  0  0  0
   36.9500   21.4100   32.2310 C   0  0  0  0  0  0  0  0  0  0  0  0
   36.5450   20.5980   31.1700 C   0  0  0  0  0  0  0  0  0  0  0  0
   35.6150   19.6120   31.4180 C   0  0  0  0  0  0  0  0  0  0  0  0
   35.1200   19.4640   32.7010 N   0  0  0  0  0  0  0  0  0  0  0  0
   35.5380   20.2760   33.7160 C   0  0  0  0  0  0  0  0  0  0  0  0
   36.4330   21.2180   33.4540 N   0  0  0  0  0  0  0  0  0  0  0  0
   36.7520   20.4980   30.1190 H   0  0  0  0  0  0  0  0  0  0  0  0
   35.1450   18.8730   30.8100 H   0  0  0  0  0  0  0  0  0  0  0  0
   35.1670   20.1790   34.7160 H   0  0  0  0  0  0  0  0  0  0  0  0
  1  7  1  6  0  0  0
  1 39  1  0  0  0  0
  1  2  1  0  0  0  0
  2  9  1  0  0  0  0
  3 10  1  6  0  0  0
  3  2  1  0  0  0  0
  3 17  1  0  0  0  0
  4 12  1  0  0  0  0
  4  3  1  0  0  0  0
  5  6  1  0  0  0  0
  5  4  1  0  0  0  0
  6 15  1  0  0  0  0
  6  1  1  0  0  0  0
  8  2  1  0  0  0  0
 11  4  1  0  0  0  0
 13  5  1  0  0  0  0
 14  5  1  0  0  0  0
 16  6  1  0  0  0  0
 17 21  1  0  0  0  0
 17 22  1  1  0  0  0
 18 17  1  0  0  0  0
 18 24  1  0  0  0  0
 18 19  1  0  0  0  0
 19 26  1  0  0  0  0
 19 20  1  0  0  0  0
 19 25  1  0  0  0  0
 21 27  1  6  0  0  0
 21 20  1  0  0  0  0
 21 29  1  0  0  0  0
 23 18  1  0  0  0  0
 28 35  1  0  0  0  0
 28 34  1  0  0  0  0
 29 28  2  0  0  0  0
 30 29  1  0  0  0  0
 30 32  2  0  0  0  0
 31 30  1  0  0  0  0
 32 33  1  0  0  0  0
 33 34  2  0  0  0  0
 34 37  1  0  0  0  0
 36 35  1  0  0  0  0
 38 37  1  0  0  0  0
 39 44  1  0  0  0  0
 40 41  1  0  0  0  0
 40 39  2  0  0  0  0
 41 42  2  0  0  0  0
 42 43  1  0  0  0  0
 43 47  1  0  0  0  0
 44 43  2  0  0  0  0
 45 40  1  0  0  0  0
 46 41  1  0  0  0  0
M  END
>  <minimizedAffinity>
-6.47152042

$$$$

 OpenBabel03262523393D

 47 50  0  0  1  0  0  0  0  0999 V2000
   36.2110   27.6500   32.5990 C   0  0  2  0  0  0  0  0  0  0  0  0
   37.3120   27.4120   33.5660 C   0  0  0  0  0  0  0  0  0  0  0  0
   38.3880   26.4680   33.0330 C   0  0  2  0  0  0  0  0  0  0  0  0
   37.7650   25.1200   32.7610 C   0  0  0  0  0  0  0  0  0  0  0  0
   36.4700   25.2290   31.9840 C   0  0  0  0  0  0  0  0  0  0  0  0
   36.2380   26.6310   31.4780 C   0  0  0  0  0  0  0  0  0  0  0  0
   35.1810   27.5480   33.0480 H   0  0  0  0  0  0  0  0  0  0  0  0
   36.8280   26.7690   34.3890 H   0  0  0  0  0  0  0  0  0  0  0  0
   37.7870   28.1930   34.0870 H   0  0  0  0  0  0  0  0  0  0  0  0
   38.6580   26.8660   32.0350 H   0  0  0  0  0  0  0  0  0  0  0  0
   38.4900   24.6010   32.0680 H   0  0  0  0  0  0  0  0  0  0  0  0
   37.6800   24.5440   33.6860 H   0  0  0  0  0  0  0  0  0  0  0  0
   36.3890   24.5240   31.1570 H   0  0  0  0  0  0  0  0  0  0  0  0
   35.6590   25.0140   32.7240 H   0  0  0  0  0  0  0  0  0  0  0  0
   37.0040   26.8620   30.7250 H   0  0  0  0  0  0  0  0  0  0  0  0
   35.2460   26.6370   30.9800 H   0  0  0  0  0  0  0  0  0  0  0  0
   39.5940   26.4520   33.8650 C   0  0  2  0  0  0  0  0  0  0  0  0
   40.7970   27.1690   33.2940 C   0  0  0  0  0  0  0  0  0  0  0  0
   41.8440   26.6810   34.3090 C   0  0  0  0  0  0  0  0  0  0  0  0
   41.5420   25.3600   34.5180 O   0  0  0  0  0  0  0  0  0  0  0  0
   40.1810   25.1480   34.2140 C   0  0  1  0  0  0  0  0  0  0  0  0
   39.3610   26.9970   34.8090 H   0  0  0  0  0  0  0  0  0  0  0  0
   41.0350   26.8410   32.2760 H   0  0  0  0  0  0  0  0  0  0  0  0
   40.6990   28.2600   33.3990 H   0  0  0  0  0  0  0  0  0  0  0  0
   41.6720   27.2490   35.2390 H   0  0  0  0  0  0  0  0  0  0  0  0
   42.8600   26.8480   33.8950 H   0  0  0  0  0  0  0  0  0  0  0  0
   40.1600   24.3600   33.4710 H   0  0  0  0  0  0  0  0  0  0  0  0
   40.1600   23.4300   36.1140 C   0  0  0  0  0  0  0  0  0  0  0  0
   39.6450   24.5470   35.4930 C   0  0  0  0  0  0  0  0  0  0  0  0
   38.5440   25.1100   36.1440 C   0  0  0  0  0  0  0  0  0  0  0  0
   38.0580   25.9830   35.7550 H   0  0  0  0  0  0  0  0  0  0  0  0
   37.9970   24.6180   37.3090 C   0  0  0  0  0  3  0  0  0  0  0  0
   38.5670   23.4970   37.8730 C   0  0  0  0  0  3  0  0  0  0  0  0
   39.6540   22.8960   37.2750 C   0  0  0  0  0  0  0  0  0  0  0  0
   41.2400   22.8100   35.5510 O   0  0  0  0  0  0  0  0  0  0  0  0
   42.1720   22.8020   35.9740 H   0  0  0  0  0  0  0  0  0  0  0  0
   40.2320   21.7680   37.8390 O   0  0  0  0  0  0  0  0  0  0  0  0
   40.8490   21.8610   38.6180 H   0  0  0  0  0  0  0  0  0  0  0  0
   36.2690   28.9880   31.9710 C   0  0  0  0  0  0  0  0  0  0  0  0
   36.6940   29.0130   30.6430 C   0  0  0  0  0  0  0  0  0  0  0  0
   36.7480   30.2280   29.9940 C   0  0  0  0  0  0  0  0  0  0  0  0
   36.3810   31.3710   30.6810 N   0  0  0  0  0  0  0  0  0  0  0  0
   35.9700   31.3110   31.9820 C   0  0  0  0  0  0  0  0  0  0  0  0
   35.9260   30.1320   32.5850 N   0  0  0  0  0  0  0  0  0  0  0  0
   37.0270   28.3100   29.8990 H   0  0  0  0  0  0  0  0  0  0  0  0
   37.0270   30.5250   29.0100 H   0  0  0  0  0  0  0  0  0  0  0  0
   35.6830   32.1840   32.5320 H   0  0  0  0  0  0  0  0  0  0  0  0
  1  7  1  1  0  0  0
  1  2  1  0  0  0  0
  2  9  1  0  0  0  0
  2  8  1  0  0  0  0
  3 10  1  6  0  0  0
  3  2  1  0  0  0  0
  3 17  1  0  0  0  0
  4  3  1  0  0  0  0
  4 12  1  0  0  0  0
  5 14  1  0  0  0  0
  5  4  1  0  0  0  0
  6  5  1  0  0  0  0
  6  1  1  0  0  0  0
 11  4  1  0  0  0  0
 13  5  1  0  0  0  0
 15  6  1  0  0  0  0
 16  6  1  0  0  0  0
 17 21  1  0  0  0  0
 17 22  1  1  0  0  0
 18 24  1  0  0  0  0
 18 17  1  0  0  0  0
 18 19  1  0  0  0  0
 19 20  1  0  0  0  0
 19 25  1  0  0  0  0
 21 27  1  6  0  0  0
 21 20  1  0  0  0  0
 21 29  1  0  0  0  0
 23 18  1  0  0  0  0
 26 19  1  0  0  0  0
 28 34  1  0  0  0  0
 29 28  2  0  0  0  0
 29 30  1  0  0  0  0
 30 32  2  0  0  0  0
 31 30  1  0  0  0  0
 32 33  1  0  0  0  0
 34 37  1  0  0  0  0
 34 33  2  0  0  0  0
 35 36  1  0  0  0  0
 35 28  1  0  0  0  0
 37 38  1  0  0  0  0
 39 44  1  0  0  0  0
 39  1  1  0  0  0  0
 40 39  2  0  0  0  0
 41 40  1  0  0  0  0
 41 42  2  0  0  0  0
 42 43  1  0  0  0  0
 43 47  1  0  0  0  0
 43 44  2  0  0  0  0
 45 40  1  0  0  0  0
 46 41  1  0  0  0  0
M  END
>  <minimizedAffinity>
-6.33756304

$$$$

 OpenBabel03262523393D

 47 50  0  0  1  0  0  0  0  0999 V2000
   35.0460   31.6860   36.2750 C   0  0  2  0  0  0  0  0  0  0  0  0
   35.9020   30.8300   35.4160 C   0  0  0  0  0  0  0  0  0  0  0  0
   35.2040   30.3700   34.1380 C   0  0  2  0  0  0  0  0  0  0  0  0
   34.0050   29.5300   34.5100 C   0  0  0  0  0  0  0  0  0  0  0  0
   33.1600   30.1780   35.5870 C   0  0  0  0  0  0  0  0  0  0  0  0
   33.5920   31.5970   35.8580 C   0  0  0  0  0  0  0  0  0  0  0  0
   35.0460   31.3850   37.3620 H   0  0  0  0  0  0  0  0  0  0  0  0
   35.9880   29.8430   36.0010 H   0  0  0  0  0  0  0  0  0  0  0  0
   36.8960   31.0820   35.1770 H   0  0  0  0  0  0  0  0  0  0  0  0
   34.7810   31.2890   33.6880 H   0  0  0  0  0  0  0  0  0  0  0  0
   33.3600   29.5200   33.5850 H   0  0  0  0  0  0  0  0  0  0  0  0
   34.3120   28.5070   34.7430 H   0  0  0  0  0  0  0  0  0  0  0  0
   32.0890   30.1550   35.3830 H   0  0  0  0  0  0  0  0  0  0  0  0
   33.3630   29.5930   36.5180 H   0  0  0  0  0  0  0  0  0  0  0  0
   33.3760   32.2040   34.9690 H   0  0  0  0  0  0  0  0  0  0  0  0
   32.9670   31.9720   36.6960 H   0  0  0  0  0  0  0  0  0  0  0  0
   36.1250   29.7650   33.1720 C   0  0  2  0  0  0  0  0  0  0  0  0
   36.0560   30.3110   31.7640 C   0  0  0  0  0  0  0  0  0  0  0  0
   36.9370   29.2560   31.0760 C   0  0  0  0  0  0  0  0  0  0  0  0
   36.5680   28.0650   31.6470 O   0  0  0  0  0  0  0  0  0  0  0  0
   36.0170   28.3180   32.9200 C   0  0  1  0  0  0  0  0  0  0  0  0
   37.1640   29.9860   33.5120 H   0  0  0  0  0  0  0  0  0  0  0  0
   35.0350   30.3110   31.3660 H   0  0  0  0  0  0  0  0  0  0  0  0
   36.5630   31.2850   31.6880 H   0  0  0  0  0  0  0  0  0  0  0  0
   37.9800   29.4880   31.3490 H   0  0  0  0  0  0  0  0  0  0  0  0
   36.7690   29.2990   29.9800 H   0  0  0  0  0  0  0  0  0  0  0  0
   35.0310   27.8710   32.9120 H   0  0  0  0  0  0  0  0  0  0  0  0
   37.1350   26.1250   33.6290 C   0  0  0  0  0  0  0  0  0  0  0  0
   36.8700   27.4630   33.8280 C   0  0  0  0  0  0  0  0  0  0  0  0
   37.4610   28.0020   34.9740 C   0  0  0  0  0  0  0  0  0  0  0  0
   37.3270   29.0330   35.2330 H   0  0  0  0  0  0  0  0  0  0  0  0
   38.2460   27.2850   35.8500 C   0  0  0  0  0  3  0  0  0  0  0  0
   38.4670   25.9510   35.5850 C   0  0  0  0  0  3  0  0  0  0  0  0
   37.9100   25.3630   34.4700 C   0  0  0  0  0  0  0  0  0  0  0  0
   36.6000   25.5110   32.5320 O   0  0  0  0  0  0  0  0  0  0  0  0
   37.1590   25.1770   31.7410 H   0  0  0  0  0  0  0  0  0  0  0  0
   38.1300   24.0210   34.1980 O   0  0  0  0  0  0  0  0  0  0  0  0
   38.9920   23.7300   33.7860 H   0  0  0  0  0  0  0  0  0  0  0  0
   35.4240   33.1150   36.2310 C   0  0  0  0  0  0  0  0  0  0  0  0
   36.5880   33.4090   35.5200 C   0  0  0  0  0  0  0  0  0  0  0  0
   36.9820   34.7270   35.4240 C   0  0  0  0  0  0  0  0  0  0  0  0
   36.2140   35.7020   36.0330 N   0  0  0  0  0  0  0  0  0  0  0  0
   35.0810   35.3800   36.7230 C   0  0  0  0  0  0  0  0  0  0  0  0
   34.7210   34.1060   36.8020 N   0  0  0  0  0  0  0  0  0  0  0  0
   37.3450   32.8740   34.9750 H   0  0  0  0  0  0  0  0  0  0  0  0
   37.8040   35.2170   34.9550 H   0  0  0  0  0  0  0  0  0  0  0  0
   34.4720   36.1190   37.2030 H   0  0  0  0  0  0  0  0  0  0  0  0
  1  7  1  1  0  0  0
  2  8  1  0  0  0  0
  2  1  1  0  0  0  0
  3 10  1  6  0  0  0
  3  4  1  0  0  0  0
  3  2  1  0  0  0  0
  4 12  1  0  0  0  0
  4  5  1  0  0  0  0
  5  6  1  0  0  0  0
  5 14  1  0  0  0  0
  6  1  1  0  0  0  0
  6 16  1  0  0  0  0
  9  2  1  0  0  0  0
 11  4  1  0  0  0  0
 13  5  1  0  0  0  0
 15  6  1  0  0  0  0
 17 22  1  1  0  0  0
 17  3  1  0  0  0  0
 18 17  1  0  0  0  0
 19 25  1  0  0  0  0
 19 20  1  0  0  0  0
 19 18  1  0  0  0  0
 20 21  1  0  0  0  0
 21 27  1  1  0  0  0
 21 17  1  0  0  0  0
 21 29  1  0  0  0  0
 23 18  1  0  0  0  0
 24 18  1  0  0  0  0
 26 19  1  0  0  0  0
 28 29  2  0  0  0  0
 28 34  1  0  0  0  0
 29 30  1  0  0  0  0
 30 31  1  0  0  0  0
 30 32  2  0  0  0  0
 33 32  1  0  0  0  0
 34 33  2  0  0  0  0
 35 28  1  0  0  0  0
 36 35  1  0  0  0  0
 37 34  1  0  0  0  0
 38 37  1  0  0  0  0
 39  1  1  0  0  0  0
 39 44  1  0  0  0  0
 40 39  2  0  0  0  0
 41 40  1  0  0  0  0
 41 42  2  0  0  0  0
 42 43  1  0  0  0  0
 43 44  2  0  0  0  0
 43 47  1  0  0  0  0
 45 40  1  0  0  0  0
 46 41  1  0  0  0  0
M  END
>  <minimizedAffinity>
-6.27487993

$$$$

 OpenBabel03262523393D

 47 50  0  0  1  0  0  0  0  0999 V2000
   35.7600   28.5930   33.8900 C   0  0  2  0  0  0  0  0  0  0  0  0
   36.8280   27.7740   34.5160 C   0  0  0  0  0  0  0  0  0  0  0  0
   37.9250   27.3650   33.5350 C   0  0  2  0  0  0  0  0  0  0  0  0
   37.3180   26.5090   32.4500 C   0  0  0  0  0  0  0  0  0  0  0  0
   36.0490   27.1110   31.8830 C   0  0  0  0  0  0  0  0  0  0  0  0
   35.8290   28.5190   32.3790 C   0  0  0  0  0  0  0  0  0  0  0  0
   34.7150   28.2470   34.1420 H   0  0  0  0  0  0  0  0  0  0  0  0
   36.3190   26.7640   34.7280 H   0  0  0  0  0  0  0  0  0  0  0  0
   37.2820   28.0360   35.4280 H   0  0  0  0  0  0  0  0  0  0  0  0
   38.2270   28.3010   33.0270 H   0  0  0  0  0  0  0  0  0  0  0  0
   38.0670   26.5350   31.6070 H   0  0  0  0  0  0  0  0  0  0  0  0
   37.2040   25.4780   32.7940 H   0  0  0  0  0  0  0  0  0  0  0  0
   35.9980   27.0950   30.7950 H   0  0  0  0  0  0  0  0  0  0  0  0
   35.2150   26.4890   32.2940 H   0  0  0  0  0  0  0  0  0  0  0  0
   36.6180   29.1610   31.9670 H   0  0  0  0  0  0  0  0  0  0  0  0
   34.8540   28.8580   31.9690 H   0  0  0  0  0  0  0  0  0  0  0  0
   39.1030   26.8010   34.2020 C   0  0  2  0  0  0  0  0  0  0  0  0
   40.4420   27.2770   33.6860 C   0  0  0  0  0  0  0  0  0  0  0  0
   41.3350   26.2740   34.4350 C   0  0  0  0  0  0  0  0  0  0  0  0
   40.6620   25.0810   34.3580 O   0  0  0  0  0  0  0  0  0  0  0  0
   39.2890   25.3410   34.1660 C   0  0  1  0  0  0  0  0  0  0  0  0
   39.0760   27.1260   35.2670 H   0  0  0  0  0  0  0  0  0  0  0  0
   40.5340   27.1710   32.5990 H   0  0  0  0  0  0  0  0  0  0  0  0
   40.6760   28.2870   34.0550 H   0  0  0  0  0  0  0  0  0  0  0  0
   41.3730   26.6070   35.4860 H   0  0  0  0  0  0  0  0  0  0  0  0
   42.3380   26.2540   33.9620 H   0  0  0  0  0  0  0  0  0  0  0  0
   39.0090   24.8090   33.2650 H   0  0  0  0  0  0  0  0  0  0  0  0
   38.1430   23.3220   35.2500 C   0  0  0  0  0  0  0  0  0  0  0  0
   38.6470   24.6040   35.3180 C   0  0  0  0  0  0  0  0  0  0  0  0
   38.5150   25.2070   36.5710 C   0  0  0  0  0  0  0  0  0  0  0  0
   38.8700   26.2030   36.7460 H   0  0  0  0  0  0  0  0  0  0  0  0
   37.9380   24.6010   37.6660 C   0  0  0  0  0  3  0  0  0  0  0  0
   37.4570   23.3170   37.5220 C   0  0  0  0  0  3  0  0  0  0  0  0
   37.5580   22.6710   36.3090 C   0  0  0  0  0  0  0  0  0  0  0  0
   38.2290   22.6500   34.0630 O   0  0  0  0  0  0  0  0  0  0  0  0
   38.8300   21.8350   33.9160 H   0  0  0  0  0  0  0  0  0  0  0  0
   37.0770   21.3780   36.1580 O   0  0  0  0  0  0  0  0  0  0  0  0
   37.6130   20.6050   36.4920 H   0  0  0  0  0  0  0  0  0  0  0  0
   35.8330   30.0230   34.2590 C   0  0  0  0  0  0  0  0  0  0  0  0
   35.6150   30.9260   33.2180 C   0  0  0  0  0  0  0  0  0  0  0  0
   35.6480   32.2740   33.5020 C   0  0  0  0  0  0  0  0  0  0  0  0
   35.8950   32.6790   34.8010 N   0  0  0  0  0  0  0  0  0  0  0  0
   36.1050   31.7690   35.7960 C   0  0  0  0  0  0  0  0  0  0  0  0
   36.0690   30.4770   35.5000 N   0  0  0  0  0  0  0  0  0  0  0  0
   35.4130   30.8910   32.1620 H   0  0  0  0  0  0  0  0  0  0  0  0
   35.5180   33.1530   32.9150 H   0  0  0  0  0  0  0  0  0  0  0  0
   36.2990   32.0620   36.8090 H   0  0  0  0  0  0  0  0  0  0  0  0
  1  7  1  1  0  0  0
  1 39  1  0  0  0  0
  1  2  1  0  0  0  0
  2  8  1  0  0  0  0
  2  9  1  0  0  0  0
  3 10  1  6  0  0  0
  3 17  1  0  0  0  0
  3  2  1  0  0  0  0
  4 12  1  0  0  0  0
  4  3  1  0  0  0  0
  5 14  1  0  0  0  0
  5  6  1  0  0  0  0
  5  4  1  0  0  0  0
  6  1  1  0  0  0  0
 11  4  1  0  0  0  0
 13  5  1  0  0  0  0
 15  6  1  0  0  0  0
 16  6  1  0  0  0  0
 17 22  1  1  0  0  0
 18 24  1  0  0  0  0
 18 17  1  0  0  0  0
 18 19  1  0  0  0  0
 19 25  1  0  0  0  0
 20 19  1  0  0  0  0
 21 27  1  6  0  0  0
 21 17  1  0  0  0  0
 21 20  1  0  0  0  0
 21 29  1  0  0  0  0
 23 18  1  0  0  0  0
 26 19  1  0  0  0  0
 28 29  2  0  0  0  0
 28 34  1  0  0  0  0
 29 30  1  0  0  0  0
 30 31  1  0  0  0  0
 30 32  2  0  0  0  0
 33 32  1  0  0  0  0
 34 33  2  0  0  0  0
 35 28  1  0  0  0  0
 36 35  1  0  0  0  0
 37 34  1  0  0  0  0
 37 38  1  0  0  0  0
 39 44  1  0  0  0  0
 40 41  1  0  0  0  0
 40 39  2  0  0  0  0
 41 42  2  0  0  0  0
 42 43  1  0  0  0  0
 43 47  1  0  0  0  0
 44 43  2  0  0  0  0
 45 40  1  0  0  0  0
 46 41  1  0  0  0  0
M  END
>  <minimizedAffinity>
-6.26355886

$$$$

 OpenBabel03262523393D

 47 50  0  0  1  0  0  0  0  0999 V2000
   38.8770   26.4260   35.6830 C   0  0  2  0  0  0  0  0  0  0  0  0
   37.7170   26.6900   34.7940 C   0  0  0  0  0  0  0  0  0  0  0  0
   37.9700   26.2950   33.3410 C   0  0  2  0  0  0  0  0  0  0  0  0
   39.1130   27.1190   32.8010 C   0  0  0  0  0  0  0  0  0  0  0  0
   40.2980   27.1500   33.7440 C   0  0  0  0  0  0  0  0  0  0  0  0
   40.1340   26.1700   34.8780 C   0  0  0  0  0  0  0  0  0  0  0  0
   39.1440   27.2930   36.3540 H   0  0  0  0  0  0  0  0  0  0  0  0
   37.6790   27.8380   34.7180 H   0  0  0  0  0  0  0  0  0  0  0  0
   36.7350   26.4110   35.0470 H   0  0  0  0  0  0  0  0  0  0  0  0
   38.3590   25.2590   33.3840 H   0  0  0  0  0  0  0  0  0  0  0  0
   39.4680   26.5590   31.8880 H   0  0  0  0  0  0  0  0  0  0  0  0
   38.7620   28.1090   32.4980 H   0  0  0  0  0  0  0  0  0  0  0  0
   41.2580   26.9850   33.2540 H   0  0  0  0  0  0  0  0  0  0  0  0
   40.2930   28.1730   34.1960 H   0  0  0  0  0  0  0  0  0  0  0  0
   40.1650   25.1520   34.4680 H   0  0  0  0  0  0  0  0  0  0  0  0
   41.0090   26.3020   35.5500 H   0  0  0  0  0  0  0  0  0  0  0  0
   36.7490   26.2970   32.5310 C   0  0  2  0  0  0  0  0  0  0  0  0
   36.3510   24.9650   31.9360 C   0  0  0  0  0  0  0  0  0  0  0  0
   35.2450   25.4680   30.9930 C   0  0  0  0  0  0  0  0  0  0  0  0
   35.7400   26.6310   30.4610 O   0  0  0  0  0  0  0  0  0  0  0  0
   36.7060   27.1620   31.3400 C   0  0  1  0  0  0  0  0  0  0  0  0
   35.9010   26.5750   33.1980 H   0  0  0  0  0  0  0  0  0  0  0  0
   37.1710   24.4910   31.3850 H   0  0  0  0  0  0  0  0  0  0  0  0
   35.8870   24.3120   32.6910 H   0  0  0  0  0  0  0  0  0  0  0  0
   34.3700   25.6960   31.6240 H   0  0  0  0  0  0  0  0  0  0  0  0
   35.0270   24.6860   30.2360 H   0  0  0  0  0  0  0  0  0  0  0  0
   37.6110   27.2770   30.7560 H   0  0  0  0  0  0  0  0  0  0  0  0
   36.1080   29.5590   30.6600 C   0  0  0  0  0  0  0  0  0  0  0  0
   36.1850   28.5560   31.6030 C   0  0  0  0  0  0  0  0  0  0  0  0
   35.7370   28.9270   32.8730 C   0  0  0  0  0  0  0  0  0  0  0  0
   35.7470   28.2310   33.6890 H   0  0  0  0  0  0  0  0  0  0  0  0
   35.2520   30.1780   33.1900 C   0  0  0  0  0  3  0  0  0  0  0  0
   35.2050   31.1290   32.1940 C   0  0  0  0  0  3  0  0  0  0  0  0
   35.6350   30.8220   30.9200 C   0  0  0  0  0  0  0  0  0  0  0  0
   36.5230   29.2890   29.3860 O   0  0  0  0  0  0  0  0  0  0  0  0
   35.8900   29.2360   28.5840 H   0  0  0  0  0  0  0  0  0  0  0  0
   35.5890   31.7760   29.9140 O   0  0  0  0  0  0  0  0  0  0  0  0
   34.7240   31.9760   29.4570 H   0  0  0  0  0  0  0  0  0  0  0  0
   38.6780   25.2550   36.5640 C   0  0  0  0  0  0  0  0  0  0  0  0
   39.2080   24.0520   36.0960 C   0  0  0  0  0  0  0  0  0  0  0  0
   39.0760   22.9270   36.8810 C   0  0  0  0  0  0  0  0  0  0  0  0
   38.4250   23.0320   38.0970 N   0  0  0  0  0  0  0  0  0  0  0  0
   37.9160   24.2250   38.5250 C   0  0  0  0  0  0  0  0  0  0  0  0
   38.0560   25.2930   37.7530 N   0  0  0  0  0  0  0  0  0  0  0  0
   39.7360   23.6970   35.2280 H   0  0  0  0  0  0  0  0  0  0  0  0
   39.3780   21.9120   36.7700 H   0  0  0  0  0  0  0  0  0  0  0  0
   37.4080   24.3280   39.4620 H   0  0  0  0  0  0  0  0  0  0  0  0
  1  7  1  1  0  0  0
  1 39  1  0  0  0  0
  2  9  1  0  0  0  0
  2  1  1  0  0  0  0
  3 10  1  1  0  0  0
  3  2  1  0  0  0  0
  4  3  1  0  0  0  0
  4  5  1  0  0  0  0
  5 14  1  0  0  0  0
  5  6  1  0  0  0  0
  6 16  1  0  0  0  0
  6  1  1  0  0  0  0
  8  2  1  0  0  0  0
 11  4  1  0  0  0  0
 12  4  1  0  0  0  0
 13  5  1  0  0  0  0
 15  6  1  0  0  0  0
 17 22  1  1  0  0  0
 17  3  1  0  0  0  0
 18 17  1  0  0  0  0
 18 24  1  0  0  0  0
 19 25  1  0  0  0  0
 19 18  1  0  0  0  0
 20 19  1  0  0  0  0
 20 21  1  0  0  0  0
 21 27  1  6  0  0  0
 21 29  1  0  0  0  0
 21 17  1  0  0  0  0
 23 18  1  0  0  0  0
 26 19  1  0  0  0  0
 28 34  2  0  0  0  0
 28 29  1  0  0  0  0
 29 30  2  0  0  0  0
 30 32  1  0  0  0  0
 30 31  1  0  0  0  0
 33 32  2  0  0  0  0
 34 33  1  0  0  0  0
 35 28  1  0  0  0  0
 36 35  1  0  0  0  0
 37 34  1  0  0  0  0
 38 37  1  0  0  0  0
 39 44  1  0  0  0  0
 40 39  2  0  0  0  0
 40 41  1  0  0  0  0
 41 42  2  0  0  0  0
 42 43  1  0  0  0  0
 43 47  1  0  0  0  0
 44 43  2  0  0  0  0
 45 40  1  0  0  0  0
 46 41  1  0  0  0  0
M  END
>  <minimizedAffinity>
-6.22532225

$$$$

 OpenBabel03262523393D

 47 50  0  0  1  0  0  0  0  0999 V2000
   35.8760   26.7620   31.7750 C   0  0  2  0  0  0  0  0  0  0  0  0
   36.9600   26.2250   32.6350 C   0  0  0  0  0  0  0  0  0  0  0  0
   37.5930   24.9510   32.0810 C   0  0  2  0  0  0  0  0  0  0  0  0
   36.5390   23.8730   32.0080 C   0  0  0  0  0  0  0  0  0  0  0  0
   35.2560   24.3630   31.3690 C   0  0  0  0  0  0  0  0  0  0  0  0
   35.4230   25.7320   30.7600 C   0  0  0  0  0  0  0  0  0  0  0  0
   34.9370   27.0320   32.3400 H   0  0  0  0  0  0  0  0  0  0  0  0
   36.4090   25.8260   33.5630 H   0  0  0  0  0  0  0  0  0  0  0  0
   37.7260   26.8330   33.0250 H   0  0  0  0  0  0  0  0  0  0  0  0
   37.8410   25.1820   31.0270 H   0  0  0  0  0  0  0  0  0  0  0  0
   36.9580   23.1060   31.2940 H   0  0  0  0  0  0  0  0  0  0  0  0
   36.3970   23.4090   32.9870 H   0  0  0  0  0  0  0  0  0  0  0  0
   34.8430   23.6810   30.6260 H   0  0  0  0  0  0  0  0  0  0  0  0
   34.5260   24.4690   32.2100 H   0  0  0  0  0  0  0  0  0  0  0  0
   36.1140   25.6550   29.9100 H   0  0  0  0  0  0  0  0  0  0  0  0
   34.4280   26.0390   30.3730 H   0  0  0  0  0  0  0  0  0  0  0  0
   38.8300   24.5820   32.7760 C   0  0  2  0  0  0  0  0  0  0  0  0
   39.9720   24.1340   31.8930 C   0  0  0  0  0  0  0  0  0  0  0  0
   40.9070   23.6070   32.9940 C   0  0  0  0  0  0  0  0  0  0  0  0
   40.0810   22.9560   33.8740 O   0  0  0  0  0  0  0  0  0  0  0  0
   38.7770   23.4800   33.7510 C   0  0  1  0  0  0  0  0  0  0  0  0
   39.2110   25.4920   33.2940 H   0  0  0  0  0  0  0  0  0  0  0  0
   39.6760   23.3400   31.1970 H   0  0  0  0  0  0  0  0  0  0  0  0
   40.4620   24.9910   31.4070 H   0  0  0  0  0  0  0  0  0  0  0  0
   41.3450   24.4910   33.4870 H   0  0  0  0  0  0  0  0  0  0  0  0
   41.6790   22.9540   32.5370 H   0  0  0  0  0  0  0  0  0  0  0  0
   38.1350   22.6350   33.5360 H   0  0  0  0  0  0  0  0  0  0  0  0
   38.0950   23.0640   36.1850 C   0  0  0  0  0  0  0  0  0  0  0  0
   38.4590   23.9150   35.1630 C   0  0  0  0  0  0  0  0  0  0  0  0
   38.5110   25.2620   35.5280 C   0  0  0  0  0  0  0  0  0  0  0  0
   38.7820   26.0180   34.8180 H   0  0  0  0  0  0  0  0  0  0  0  0
   38.2310   25.7340   36.7920 C   0  0  0  0  0  3  0  0  0  0  0  0
   37.8750   24.8230   37.7630 C   0  0  0  0  0  3  0  0  0  0  0  0
   37.8050   23.4800   37.4630 C   0  0  0  0  0  0  0  0  0  0  0  0
   38.0180   21.7250   35.9230 O   0  0  0  0  0  0  0  0  0  0  0  0
   38.6650   21.0340   36.3140 H   0  0  0  0  0  0  0  0  0  0  0  0
   37.4480   22.5590   38.4360 O   0  0  0  0  0  0  0  0  0  0  0  0
   38.1210   22.2610   39.1110 H   0  0  0  0  0  0  0  0  0  0  0  0
   36.2760   27.9690   31.0200 C   0  0  0  0  0  0  0  0  0  0  0  0
   35.8750   29.1860   31.5730 C   0  0  0  0  0  0  0  0  0  0  0  0
   36.2370   30.3500   30.9290 C   0  0  0  0  0  0  0  0  0  0  0  0
   36.9790   30.2680   29.7640 N   0  0  0  0  0  0  0  0  0  0  0  0
   37.3540   29.0610   29.2500 C   0  0  0  0  0  0  0  0  0  0  0  0
   36.9950   27.9550   29.8860 N   0  0  0  0  0  0  0  0  0  0  0  0
   35.3160   29.5280   32.4260 H   0  0  0  0  0  0  0  0  0  0  0  0
   36.0700   31.3830   31.1270 H   0  0  0  0  0  0  0  0  0  0  0  0
   37.9270   28.9750   28.3490 H   0  0  0  0  0  0  0  0  0  0  0  0
  1  7  1  1  0  0  0
  1  2  1  0  0  0  0
  2  9  1  0  0  0  0
  2  8  1  0  0  0  0
  3 10  1  6  0  0  0
  3  2  1  0  0  0  0
  3 17  1  0  0  0  0
  4  3  1  0  0  0  0
  4 12  1  0  0  0  0
  5  4  1  0  0  0  0
  5 14  1  0  0  0  0
  6  5  1  0  0  0  0
  6  1  1  0  0  0  0
 11  4  1  0  0  0  0
 13  5  1  0  0  0  0
 15  6  1  0  0  0  0
 16  6  1  0  0  0  0
 17 22  1  1  0  0  0
 17 21  1  0  0  0  0
 18 17  1  0  0  0  0
 18 19  1  0  0  0  0
 19 25  1  0  0  0  0
 19 20  1  0  0  0  0
 21 27  1  6  0  0  0
 21 20  1  0  0  0  0
 21 29  1  0  0  0  0
 23 18  1  0  0  0  0
 24 18  1  0  0  0  0
 26 19  1  0  0  0  0
 28 34  1  0  0  0  0
 29 30  1  0  0  0  0
 29 28  2  0  0  0  0
 30 32  2  0  0  0  0
 31 30  1  0  0  0  0
 32 33  1  0  0  0  0
 34 33  2  0  0  0  0
 34 37  1  0  0  0  0
 35 28  1  0  0  0  0
 35 36  1  0  0  0  0
 37 38  1  0  0  0  0
 39 40  1  0  0  0  0
 39  1  1  0  0  0  0
 40 45  1  0  0  0  0
 41 46  1  0  0  0  0
 41 40  2  0  0  0  0
 42 41  1  0  0  0  0
 43 42  2  0  0  0  0
 43 44  1  0  0  0  0
 44 39  2  0  0  0  0
 47 43  1  0  0  0  0
M  END
>  <minimizedAffinity>
-6.09575891

$$$$

 OpenBabel03262523393D

 47 50  0  0  1  0  0  0  0  0999 V2000
   38.7300   26.2220   35.0590 C   0  0  2  0  0  0  0  0  0  0  0  0
   37.6670   26.1240   34.0280 C   0  0  0  0  0  0  0  0  0  0  0  0
   38.1950   25.7060   32.6570 C   0  0  2  0  0  0  0  0  0  0  0  0
   39.1650   26.7530   32.1660 C   0  0  0  0  0  0  0  0  0  0  0  0
   40.1740   27.1460   33.2250 C   0  0  0  0  0  0  0  0  0  0  0  0
   40.1060   26.2360   34.4260 C   0  0  0  0  0  0  0  0  0  0  0  0
   38.6890   27.1720   35.6670 H   0  0  0  0  0  0  0  0  0  0  0  0
   37.3630   27.2170   33.8350 H   0  0  0  0  0  0  0  0  0  0  0  0
   36.7570   25.6240   34.1980 H   0  0  0  0  0  0  0  0  0  0  0  0
   38.8130   24.8070   32.8440 H   0  0  0  0  0  0  0  0  0  0  0  0
   39.7610   26.2400   31.3570 H   0  0  0  0  0  0  0  0  0  0  0  0
   38.6270   27.6000   31.7310 H   0  0  0  0  0  0  0  0  0  0  0  0
   41.2010   27.1950   32.8620 H   0  0  0  0  0  0  0  0  0  0  0  0
   39.8630   28.1630   33.5710 H   0  0  0  0  0  0  0  0  0  0  0  0
   40.4350   25.2330   34.1240 H   0  0  0  0  0  0  0  0  0  0  0  0
   40.8280   26.6300   35.1730 H   0  0  0  0  0  0  0  0  0  0  0  0
   37.1250   25.3450   31.7220 C   0  0  2  0  0  0  0  0  0  0  0  0
   36.0040   26.3500   31.5850 C   0  0  0  0  0  0  0  0  0  0  0  0
   35.0300   25.4810   30.7710 C   0  0  0  0  0  0  0  0  0  0  0  0
   35.1190   24.2340   31.3340 O   0  0  0  0  0  0  0  0  0  0  0  0
   36.3680   24.1080   31.9760 C   0  0  1  0  0  0  0  0  0  0  0  0
   37.5740   25.2800   30.7040 H   0  0  0  0  0  0  0  0  0  0  0  0
   35.5800   26.6370   32.5540 H   0  0  0  0  0  0  0  0  0  0  0  0
   36.3060   27.2040   30.9610 H   0  0  0  0  0  0  0  0  0  0  0  0
   35.4210   25.4480   29.7410 H   0  0  0  0  0  0  0  0  0  0  0  0
   34.0140   25.9250   30.8230 H   0  0  0  0  0  0  0  0  0  0  0  0
   36.1510   23.8410   33.0020 H   0  0  0  0  0  0  0  0  0  0  0  0
   36.3570   21.6330   31.3140 C   0  0  0  0  0  0  0  0  0  0  0  0
   36.9540   22.8760   31.3250 C   0  0  0  0  0  0  0  0  0  0  0  0
   38.1890   22.9270   30.6750 C   0  0  0  0  0  0  0  0  0  0  0  0
   38.7480   23.8400   30.6180 H   0  0  0  0  0  0  0  0  0  0  0  0
   38.7880   21.8470   30.0640 C   0  0  0  0  0  3  0  0  0  0  0  0
   38.1310   20.6350   30.0930 C   0  0  0  0  0  3  0  0  0  0  0  0
   36.9090   20.5230   30.7200 C   0  0  0  0  0  0  0  0  0  0  0  0
   35.1440   21.4870   31.9250 O   0  0  0  0  0  0  0  0  0  0  0  0
   34.2730   21.3040   31.4180 H   0  0  0  0  0  0  0  0  0  0  0  0
   36.2430   19.3070   30.7520 O   0  0  0  0  0  0  0  0  0  0  0  0
   35.7370   18.9950   29.9500 H   0  0  0  0  0  0  0  0  0  0  0  0
   38.7070   25.1020   36.0250 C   0  0  0  0  0  0  0  0  0  0  0  0
   39.5990   24.0610   35.7610 C   0  0  0  0  0  0  0  0  0  0  0  0
   39.6420   22.9970   36.6360 C   0  0  0  0  0  0  0  0  0  0  0  0
   38.8040   23.0000   37.7370 N   0  0  0  0  0  0  0  0  0  0  0  0
   37.9420   24.0340   37.9640 C   0  0  0  0  0  0  0  0  0  0  0  0
   37.9180   25.0470   37.1090 N   0  0  0  0  0  0  0  0  0  0  0  0
   40.3300   23.8080   35.0140 H   0  0  0  0  0  0  0  0  0  0  0  0
   40.2120   22.0980   36.6750 H   0  0  0  0  0  0  0  0  0  0  0  0
   37.2840   24.0560   38.8090 H   0  0  0  0  0  0  0  0  0  0  0  0
  1  7  1  1  0  0  0
  1 39  1  0  0  0  0
  2  9  1  0  0  0  0
  2  1  1  0  0  0  0
  3 10  1  1  0  0  0
  3  2  1  0  0  0  0
  4  3  1  0  0  0  0
  4  5  1  0  0  0  0
  5 14  1  0  0  0  0
  5  6  1  0  0  0  0
  6  1  1  0  0  0  0
  6 16  1  0  0  0  0
  8  2  1  0  0  0  0
 11  4  1  0  0  0  0
 12  4  1  0  0  0  0
 13  5  1  0  0  0  0
 15  6  1  0  0  0  0
 17 22  1  6  0  0  0
 17 21  1  0  0  0  0
 17  3  1  0  0  0  0
 18 17  1  0  0  0  0
 18 23  1  0  0  0  0
 19 26  1  0  0  0  0
 19 20  1  0  0  0  0
 19 18  1  0  0  0  0
 20 21  1  0  0  0  0
 21 27  1  1  0  0  0
 24 18  1  0  0  0  0
 25 19  1  0  0  0  0
 28 29  1  0  0  0  0
 28 35  1  0  0  0  0
 29 21  1  0  0  0  0
 30 29  2  0  0  0  0
 31 30  1  0  0  0  0
 32 33  2  0  0  0  0
 32 30  1  0  0  0  0
 33 34  1  0  0  0  0
 34 37  1  0  0  0  0
 34 28  2  0  0  0  0
 36 35  1  0  0  0  0
 38 37  1  0  0  0  0
 39 44  1  0  0  0  0
 40 39  2  0  0  0  0
 40 41  1  0  0  0  0
 41 46  1  0  0  0  0
 41 42  2  0  0  0  0
 42 43  1  0  0  0  0
 43 47  1  0  0  0  0
 44 43  2  0  0  0  0
 45 40  1  0  0  0  0
M  END
>  <minimizedAffinity>
-6.04359627

$$$$

 OpenBabel03262523393D

 47 50  0  0  1  0  0  0  0  0999 V2000
   39.0250   22.7620   36.4040 C   0  0  2  0  0  0  0  0  0  0  0  0
   39.5160   24.0280   35.8030 C   0  0  0  0  0  0  0  0  0  0  0  0
   40.8850   23.8880   35.1400 C   0  0  2  0  0  0  0  0  0  0  0  0
   41.8980   23.4970   36.1880 C   0  0  0  0  0  0  0  0  0  0  0  0
   41.4140   22.3580   37.0620 C   0  0  0  0  0  0  0  0  0  0  0  0
   40.1420   21.7470   36.5290 C   0  0  0  0  0  0  0  0  0  0  0  0
   38.6320   22.8800   37.4550 H   0  0  0  0  0  0  0  0  0  0  0  0
   39.7650   24.6900   36.7100 H   0  0  0  0  0  0  0  0  0  0  0  0
   38.9130   24.6350   35.1900 H   0  0  0  0  0  0  0  0  0  0  0  0
   40.8000   23.0040   34.4780 H   0  0  0  0  0  0  0  0  0  0  0  0
   42.7710   23.0810   35.6060 H   0  0  0  0  0  0  0  0  0  0  0  0
   42.2290   24.3750   36.7480 H   0  0  0  0  0  0  0  0  0  0  0  0
   42.1560   21.5760   37.2210 H   0  0  0  0  0  0  0  0  0  0  0  0
   41.1620   22.8250   38.0460 H   0  0  0  0  0  0  0  0  0  0  0  0
   40.3650   21.2540   35.5730 H   0  0  0  0  0  0  0  0  0  0  0  0
   39.8260   20.9700   37.2570 H   0  0  0  0  0  0  0  0  0  0  0  0
   41.2390   25.0480   34.3170 C   0  0  2  0  0  0  0  0  0  0  0  0
   42.7150   25.3630   34.2260 C   0  0  0  0  0  0  0  0  0  0  0  0
   42.6040   26.7360   33.5410 C   0  0  0  0  0  0  0  0  0  0  0  0
   41.5420   27.3490   34.1560 O   0  0  0  0  0  0  0  0  0  0  0  0
   40.6920   26.3620   34.6950 C   0  0  1  0  0  0  0  0  0  0  0  0
   40.9300   24.8270   33.2700 H   0  0  0  0  0  0  0  0  0  0  0  0
   43.1890   25.4380   35.2110 H   0  0  0  0  0  0  0  0  0  0  0  0
   43.2280   24.6770   33.5360 H   0  0  0  0  0  0  0  0  0  0  0  0
   42.3550   26.5440   32.4850 H   0  0  0  0  0  0  0  0  0  0  0  0
   43.5640   27.2800   33.6560 H   0  0  0  0  0  0  0  0  0  0  0  0
   40.5960   26.5940   35.7490 H   0  0  0  0  0  0  0  0  0  0  0  0
   38.3470   27.3930   34.6730 C   0  0  0  0  0  0  0  0  0  0  0  0
   39.3600   26.6870   34.0600 C   0  0  0  0  0  0  0  0  0  0  0  0
   39.0630   26.2670   32.7620 C   0  0  0  0  0  0  0  0  0  0  0  0
   39.7730   25.7090   32.1840 H   0  0  0  0  0  0  0  0  0  0  0  0
   37.8710   26.5210   32.1180 C   0  0  0  0  0  3  0  0  0  0  0  0
   36.9050   27.2340   32.7950 C   0  0  0  0  0  3  0  0  0  0  0  0
   37.1400   27.6750   34.0800 C   0  0  0  0  0  0  0  0  0  0  0  0
   38.5470   27.8470   35.9470 O   0  0  0  0  0  0  0  0  0  0  0  0
   38.6400   28.8380   36.1860 H   0  0  0  0  0  0  0  0  0  0  0  0
   36.1720   28.3940   34.7650 O   0  0  0  0  0  0  0  0  0  0  0  0
   36.0430   29.3650   34.5730 H   0  0  0  0  0  0  0  0  0  0  0  0
   37.9460   22.1260   35.6170 C   0  0  0  0  0  0  0  0  0  0  0  0
   38.1490   22.0870   34.2370 C   0  0  0  0  0  0  0  0  0  0  0  0
   37.1890   21.4870   33.4500 C   0  0  0  0  0  0  0  0  0  0  0  0
   36.0670   20.9500   34.0550 N   0  0  0  0  0  0  0  0  0  0  0  0
   35.8990   21.0070   35.4080 C   0  0  0  0  0  0  0  0  0  0  0  0
   36.8350   21.5880   36.1450 N   0  0  0  0  0  0  0  0  0  0  0  0
   38.8920   22.4130   33.5310 H   0  0  0  0  0  0  0  0  0  0  0  0
   37.0940   21.3220   32.4020 H   0  0  0  0  0  0  0  0  0  0  0  0
   35.0370   20.5980   35.8960 H   0  0  0  0  0  0  0  0  0  0  0  0
  1  6  1  0  0  0  0
  1  7  1  1  0  0  0
  2  1  1  0  0  0  0
  2  8  1  0  0  0  0
  3 10  1  6  0  0  0
  3  2  1  0  0  0  0
  3  4  1  0  0  0  0
  4 12  1  0  0  0  0
  4  5  1  0  0  0  0
  5 13  1  0  0  0  0
  5 14  1  0  0  0  0
  6  5  1  0  0  0  0
  6 16  1  0  0  0  0
  9  2  1  0  0  0  0
 11  4  1  0  0  0  0
 15  6  1  0  0  0  0
 17 22  1  6  0  0  0
 17 21  1  0  0  0  0
 17  3  1  0  0  0  0
 18 17  1  0  0  0  0
 18 23  1  0  0  0  0
 19 26  1  0  0  0  0
 19 20  1  0  0  0  0
 19 18  1  0  0  0  0
 20 21  1  0  0  0  0
 21 27  1  1  0  0  0
 24 18  1  0  0  0  0
 25 19  1  0  0  0  0
 28 35  1  0  0  0  0
 29 28  2  0  0  0  0
 29 21  1  0  0  0  0
 30 29  1  0  0  0  0
 31 30  1  0  0  0  0
 32 30  2  0  0  0  0
 32 33  1  0  0  0  0
 33 34  2  0  0  0  0
 34 28  1  0  0  0  0
 34 37  1  0  0  0  0
 35 36  1  0  0  0  0
 38 37  1  0  0  0  0
 39 44  1  0  0  0  0
 39  1  1  0  0  0  0
 40 39  2  0  0  0  0
 41 42  2  0  0  0  0
 41 40  1  0  0  0  0
 42 43  1  0  0  0  0
 43 47  1  0  0  0  0
 43 44  2  0  0  0  0
 45 40  1  0  0  0  0
 46 41  1  0  0  0  0
M  END
>  <minimizedAffinity>
-5.90289974

$$$$
