
 OpenBabel03272505523D

 46 49  0  0  1  0  0  0  0  0999 V2000
   37.1670   29.2150   50.3930 C   0  0  0  0  0  0  0  0  0  0  0  0
   37.3030   30.5780   50.7530 C   0  0  0  0  0  0  0  0  0  0  0  0
   36.5330   31.4950   50.0490 C   0  0  0  0  0  0  0  0  0  0  0  0
   35.7070   31.0360   49.0700 N   0  0  0  0  0  0  0  0  0  0  0  0
   35.6100   29.7460   48.7640 C   0  0  0  0  0  0  0  0  0  0  0  0
   36.3380   28.8350   49.4230 N   0  0  0  0  0  0  0  0  0  0  0  0
   34.7300   29.3290   47.7340 N   0  0  0  0  0  0  0  0  0  0  0  0
   34.1210   28.0110   47.7400 C   0  0  0  0  0  0  0  0  0  0  0  0
   32.6380   28.1230   47.6000 C   0  0  0  0  0  0  0  0  0  0  0  0
   32.1490   29.3500   47.2030 N   0  0  0  0  0  0  0  0  0  0  0  0
   32.9570   30.2740   46.4500 C   0  0  0  0  0  0  0  0  0  0  0  0
   34.3940   30.1990   46.6250 C   0  0  2  0  0  0  0  0  0  0  0  0
   37.7160   28.3920   50.8690 H   0  0  0  0  0  0  0  0  0  0  0  0
   37.9860   30.8060   51.5390 H   0  0  0  0  0  0  0  0  0  0  0  0
   36.6220   32.5320   50.3090 H   0  0  0  0  0  0  0  0  0  0  0  0
   34.6220   27.2690   47.1280 H   0  0  0  0  0  0  0  0  0  0  0  0
   34.2880   27.6240   48.8030 H   0  0  0  0  0  0  0  0  0  0  0  0
   32.0820   27.7760   48.4960 H   0  0  0  0  0  0  0  0  0  0  0  0
   32.3560   27.3610   46.8130 H   0  0  0  0  0  0  0  0  0  0  0  0
   31.2800   29.7250   47.5920 H   0  0  0  0  0  0  0  0  0  0  0  0
   32.6410   31.2750   46.9110 H   0  0  0  0  0  0  0  0  0  0  0  0
   32.4860   30.3340   45.4840 H   0  0  0  0  0  0  0  0  0  0  0  0
   34.8630   31.2050   46.8530 H   0  0  0  0  0  0  0  0  0  0  0  0
   35.1230   29.7040   45.4640 N   0  0  2  0  0  0  0  0  0  0  0  0
   36.4640   30.2940   45.3970 C   0  0  0  0  0  0  0  0  0  0  0  0
   36.7760   30.5180   43.9290 C   0  0  0  0  0  0  0  0  0  0  0  0
   35.6500   29.8420   43.2440 C   0  0  0  0  0  0  0  0  0  0  0  0
   34.4830   29.9940   44.2390 C   0  0  1  0  0  0  0  0  0  0  0  0
   36.4040   31.2760   45.9100 H   0  0  0  0  0  0  0  0  0  0  0  0
   37.2090   29.6540   45.8860 H   0  0  0  0  0  0  0  0  0  0  0  0
   37.7810   30.1260   43.6780 H   0  0  0  0  0  0  0  0  0  0  0  0
   36.7930   31.6040   43.6840 H   0  0  0  0  0  0  0  0  0  0  0  0
   35.3770   30.2780   42.2630 H   0  0  0  0  0  0  0  0  0  0  0  0
   35.8640   28.7510   43.1710 H   0  0  0  0  0  0  0  0  0  0  0  0
   34.2450   31.0540   44.0520 H   0  0  0  0  0  0  0  0  0  0  0  0
   33.6580   27.6630   43.8590 C   0  0  0  0  0  0  0  0  0  0  0  0
   33.5200   29.0380   43.7060 C   0  0  0  0  0  0  0  0  0  0  0  0
   32.3730   29.3760   43.0260 C   0  0  0  0  0  0  0  0  0  0  0  0
   32.1410   30.4160   42.8530 H   0  0  0  0  0  0  0  0  0  0  0  0
   31.4390   28.4910   42.5330 C   0  0  0  0  0  3  0  0  0  0  0  0
   31.6360   27.1400   42.7200 C   0  0  0  0  0  3  0  0  0  0  0  0
   32.7650   26.7220   43.3950 C   0  0  0  0  0  0  0  0  0  0  0  0
   34.7490   27.1260   44.5200 O   0  0  0  0  0  0  0  0  0  0  0  0
   35.4990   26.7450   43.9850 H   0  0  0  0  0  0  0  0  0  0  0  0
   32.9250   25.3700   43.5590 O   0  0  0  0  0  0  0  0  0  0  0  0
   32.9760   24.8070   42.7180 H   0  0  0  0  0  0  0  0  0  0  0  0
  1  2  1  0  0  0  0
  1 13  1  0  0  0  0
  2 14  1  0  0  0  0
  3 15  1  0  0  0  0
  3  2  2  0  0  0  0
  4  3  1  0  0  0  0
  5  4  2  0  0  0  0
  5  6  1  0  0  0  0
  6  1  2  0  0  0  0
  7  8  1  0  0  0  0
  7  5  1  0  0  0  0
  8 17  1  0  0  0  0
  9  8  1  0  0  0  0
  9 18  1  0  0  0  0
 10 20  1  0  0  0  0
 10  9  1  0  0  0  0
 11 12  1  0  0  0  0
 11 21  1  0  0  0  0
 11 10  1  0  0  0  0
 12 23  1  1  0  0  0
 12  7  1  0  0  0  0
 16  8  1  0  0  0  0
 19  9  1  0  0  0  0
 22 11  1  0  0  0  0
 24 25  1  6  0  0  0
 24 12  1  0  0  0  0
 25 30  1  0  0  0  0
 25 29  1  0  0  0  0
 26 25  1  0  0  0  0
 27 26  1  0  0  0  0
 27 28  1  0  0  0  0
 28 35  1  6  0  0  0
 28 24  1  0  0  0  0
 31 26  1  0  0  0  0
 32 26  1  0  0  0  0
 33 27  1  0  0  0  0
 34 27  1  0  0  0  0
 36 43  1  0  0  0  0
 37 36  1  0  0  0  0
 37 28  1  0  0  0  0
 38 37  2  0  0  0  0
 39 38  1  0  0  0  0
 40 41  2  0  0  0  0
 40 38  1  0  0  0  0
 41 42  1  0  0  0  0
 42 45  1  0  0  0  0
 42 36  2  0  0  0  0
 44 43  1  0  0  0  0
 46 45  1  0  0  0  0
M  END
>  <minimizedAffinity>
-4.46645451

>  <minimizedRMSD>
0.788947165

$$$$
