
 OpenBabel03272508053D

 37 40  0  0  0  0  0  0  0  0999 V2000
   38.8530   30.9540   45.7900 C   0  0  0  0  0  0  0  0  0  0  0  0
   39.9930   31.7090   46.0240 C   0  0  0  0  0  0  0  0  0  0  0  0
   40.8370   31.6590   44.9230 C   0  0  0  0  0  0  0  0  0  0  0  0
   40.1620   30.8650   44.0590 N   0  0  0  0  0  0  0  0  0  0  0  0
   39.0050   30.4500   44.5560 N   0  0  0  0  0  0  0  0  0  0  0  0
   40.2300   32.2710   46.9210 H   0  0  0  0  0  0  0  0  0  0  0  0
   41.7840   32.1010   44.7300 H   0  0  0  0  0  0  0  0  0  0  0  0
   37.7490   30.7720   46.7100 C   0  0  0  0  0  0  0  0  0  0  0  0
   37.9730   30.9770   48.0990 C   0  0  0  0  0  0  0  0  0  0  0  0
   36.8870   30.7940   48.9540 C   0  0  0  0  0  0  0  0  0  0  0  0
   35.6890   30.4350   48.4190 N   0  0  0  0  0  0  0  0  0  0  0  0
   35.5050   30.2450   47.0930 C   0  0  0  0  0  0  0  0  0  0  0  0
   36.5440   30.4180   46.2500 N   0  0  0  0  0  0  0  0  0  0  0  0
   38.9210   31.2610   48.4980 H   0  0  0  0  0  0  0  0  0  0  0  0
   34.5280   29.9590   46.7290 H   0  0  0  0  0  0  0  0  0  0  0  0
   37.1010   31.0050   50.4160 C   0  0  0  0  0  0  0  0  0  0  0  0
   36.5870   32.2540   50.6840 F   0  0  0  0  0  0  0  0  0  0  0  0
   36.4160   30.0760   51.1840 F   0  0  0  0  0  0  0  0  0  0  0  0
   38.4430   31.0060   50.7480 F   0  0  0  0  0  0  0  0  0  0  0  0
   40.5580   30.4480   42.7090 C   0  0  0  0  0  0  0  0  0  0  0  0
   40.2010   31.1930   41.5770 C   0  0  0  0  0  0  0  0  0  0  0  0
   40.5870   30.7770   40.3480 C   0  0  0  0  0  0  0  0  0  0  0  0
   41.3490   29.5880   40.2420 C   0  0  0  0  0  0  0  0  0  0  0  0
   41.5070   29.0560   42.0100 S   0  0  0  0  0  0  0  0  0  0  0  0
   39.6130   32.1150   41.6330 H   0  0  0  0  0  0  0  0  0  0  0  0
   40.4150   31.2060   39.3810 H   0  0  0  0  0  0  0  0  0  0  0  0
   43.1430   29.2400   38.6890 C   0  0  0  0  0  0  0  0  0  0  0  0
   41.9290   28.8360   39.1940 C   0  0  0  0  0  0  0  0  0  0  0  0
   41.2130   27.7450   38.7650 C   0  0  0  0  0  0  0  0  0  0  0  0
   40.2700   27.4670   39.1870 H   0  0  0  0  0  0  0  0  0  0  0  0
   41.7480   26.9680   37.7290 C   0  0  0  0  0  3  0  0  0  0  0  0
   42.9820   27.3390   37.1820 C   0  0  0  0  0  3  0  0  0  0  0  0
   43.6750   28.4610   37.6530 C   0  0  0  0  0  0  0  0  0  0  0  0
   43.8640   30.3410   39.1240 O   0  0  0  0  0  0  0  0  0  0  0  0
   44.4660   30.3470   39.9280 H   0  0  0  0  0  0  0  0  0  0  0  0
   44.8990   28.8370   37.1170 O   0  0  0  0  0  0  0  0  0  0  0  0
   45.6970   28.2340   37.3020 H   0  0  0  0  0  0  0  0  0  0  0  0
  1  2  1  0  0  0  0
  1  8  1  0  0  0  0
  2  6  1  0  0  0  0
  3  2  2  0  0  0  0
  4  5  1  0  0  0  0
  4  3  1  0  0  0  0
  5  1  2  0  0  0  0
  7  3  1  0  0  0  0
  8  9  1  0  0  0  0
  9 14  1  0  0  0  0
  9 10  2  0  0  0  0
 10 16  1  0  0  0  0
 11 10  1  0  0  0  0
 12 11  2  0  0  0  0
 13  8  2  0  0  0  0
 13 12  1  0  0  0  0
 15 12  1  0  0  0  0
 16 17  1  0  0  0  0
 16 19  1  0  0  0  0
 16 18  1  0  0  0  0
 20  4  1  0  0  0  0
 21 25  1  0  0  0  0
 21 20  2  0  0  0  0
 22 21  1  0  0  0  0
 23 22  2  0  0  0  0
 23 24  1  0  0  0  0
 24 20  1  0  0  0  0
 26 22  1  0  0  0  0
 27 34  1  0  0  0  0
 27 28  1  0  0  0  0
 28 23  1  0  0  0  0
 29 30  1  0  0  0  0
 29 28  2  0  0  0  0
 31 29  1  0  0  0  0
 32 33  1  0  0  0  0
 32 31  2  0  0  0  0
 33 27  2  0  0  0  0
 34 35  1  0  0  0  0
 36 37  1  0  0  0  0
 36 33  1  0  0  0  0
M  END
>  <minimizedAffinity>
-6.73279667

>  <minimizedRMSD>
0.70542872

$$$$
