REMARK  Name = 
REMARK  7 active torsions:
REMARK  status: ('A' for Active; 'I' for Inactive)
REMARK    1  A    between atoms: C_2  and  N_7
REMARK    2  A    between atoms: C_3  and  C_15
REMARK    3  A    between atoms: C_11  and  N_14
REMARK    4  A    between atoms: C_20  and  C_21
REMARK    5  A    between atoms: C_21  and  C_41
REMARK    6  A    between atoms: O_39  and  C_40
REMARK    7  A    between atoms: C_46  and  O_47
REMARK                            x       y       z     vdW  Elec       q    Type
REMARK                         _______ _______ _______ _____ _____    ______ ____
ROOT
ATOM      1  C   UNL     1      34.819  30.093  46.869  0.00  0.00    +0.000 A 
ATOM      2  C   UNL     1      36.145  30.585  46.937  0.00  0.00    +0.000 A 
ATOM      3  C   UNL     1      36.838  30.750  45.742  0.00  0.00    +0.000 A 
ATOM      4  N   UNL     1      36.215  30.434  44.574  0.00  0.00    +0.000 NA
ATOM      5  C   UNL     1      34.953  29.968  44.546  0.00  0.00    +0.000 A 
ATOM      6  N   UNL     1      34.262  29.799  45.673  0.00  0.00    +0.000 NA
ATOM      7  H   UNL     1      34.211  29.948  47.733  0.00  0.00    +0.000 HD
ATOM      8  H   UNL     1      34.424  29.705  43.629  0.00  0.00    +0.000 HD
ENDROOT
BRANCH   2   9
ATOM      9  N   UNL     1      36.641  30.846  48.269  0.00  0.00    +0.000 N 
ATOM     10  C   UNL     1      37.074  31.944  49.083  0.00  0.00    +0.000 C 
ATOM     11  C   UNL     1      38.396  31.482  49.609  0.00  0.00    +0.000 C 
ATOM     12  C   UNL     1      38.200  29.971  49.778  0.00  0.00    +0.000 C 
ATOM     13  C   UNL     1      36.838  29.720  49.226  0.00  0.00    +0.000 C 
ATOM     14  H   UNL     1      36.970  32.949  48.738  0.00  0.00    +0.000 HD
ATOM     15  H   UNL     1      36.388  31.906  49.988  0.00  0.00    +0.000 HD
ATOM     16  H   UNL     1      38.665  31.966  50.574  0.00  0.00    +0.000 HD
ATOM     17  H   UNL     1      39.227  31.603  48.915  0.00  0.00    +0.000 HD
ATOM     18  H   UNL     1      39.011  29.381  49.339  0.00  0.00    +0.000 HD
ATOM     19  H   UNL     1      38.189  29.737  50.876  0.00  0.00    +0.000 HD
ATOM     20  H   UNL     1      36.682  28.763  48.737  0.00  0.00    +0.000 HD
BRANCH  13  23
ATOM     21  C   UNL     1      34.793  28.977  50.425  0.00  0.00    +0.000 C 
ATOM     22  O   UNL     1      34.488  28.045  49.610  0.00  0.00    +0.000 OA
ATOM     23  N   UNL     1      35.868  29.912  50.303  0.00  0.00    +0.000 N 
ATOM     24  H   UNL     1      34.023  28.811  51.157  0.00  0.00    +0.000 HD
ATOM     25  H   UNL     1      35.661  30.544  51.099  0.00  0.00    +0.000 HD
ENDBRANCH  13  23
ENDBRANCH   2   9
BRANCH   3  26
ATOM     26  C   UNL     1      38.188  31.244  45.694  0.00  0.00    +0.000 A 
ATOM     27  C   UNL     1      38.441  32.466  46.246  0.00  0.00    +0.000 A 
ATOM     28  C   UNL     1      39.704  33.026  46.278  0.00  0.00    +0.000 A 
ATOM     29  C   UNL     1      40.749  32.296  45.715  0.00  0.00    +0.000 A 
ATOM     30  C   UNL     1      40.555  31.057  45.140  0.00  0.00    +0.000 A 
ATOM     31  C   UNL     1      39.243  30.568  45.154  0.00  0.00    +0.000 A 
ATOM     32  H   UNL     1      37.764  33.183  46.674  0.00  0.00    +0.000 HD
ATOM     33  H   UNL     1      40.038  33.951  46.676  0.00  0.00    +0.000 HD
ATOM     34  H   UNL     1      41.785  32.630  45.682  0.00  0.00    +0.000 HD
ATOM     35  H   UNL     1      41.364  30.484  44.697  0.00  0.00    +0.000 HD
BRANCH  31  36
ATOM     36  C   UNL     1      39.013  29.245  44.532  0.00  0.00    +0.000 C 
ATOM     37  H   UNL     1      38.214  28.686  45.117  0.00  0.00    +0.000 HD
ATOM     38  H   UNL     1      39.933  28.625  44.637  0.00  0.00    +0.000 HD
BRANCH  36  40
ATOM     39  C   UNL     1      38.417  28.202  42.270  0.00  0.00    +0.000 A 
ATOM     40  C   UNL     1      38.513  29.266  43.144  0.00  0.00    +0.000 A 
ATOM     41  C   UNL     1      38.066  30.502  42.657  0.00  0.00    +0.000 A 
ATOM     42  H   UNL     1      38.117  31.366  43.296  0.00  0.00    +0.000 HD
ATOM     43  C   UNL     1      37.554  30.673  41.377  0.00  0.00    +0.000 A 
ATOM     44  C   UNL     1      37.454  29.626  40.504  0.00  0.00    +0.000 A 
ATOM     45  C   UNL     1      37.896  28.409  40.989  0.00  0.00    +0.000 A 
BRANCH  39  46
ATOM     46  O   UNL     1      38.852  26.989  42.744  0.00  0.00    +0.000 OA
ATOM     47  H   UNL     1      38.309  26.156  42.810  0.00  0.00    +0.000 HD
ENDBRANCH  39  46
BRANCH  45  48
ATOM     48  O   UNL     1      37.807  27.321  40.122  0.00  0.00    +0.000 OA
ATOM     49  H   UNL     1      37.052  27.223  39.449  0.00  0.00    +0.000 HD
ENDBRANCH  45  48
ENDBRANCH  36  40
ENDBRANCH  31  36
ENDBRANCH   3  26
TORSDOF 7
