
 OpenBabel03272506473D

 44 47  0  0  1  0  0  0  0  0999 V2000
   31.9340   28.3680   47.5060 C   0  0  2  0  0  0  0  0  0  0  0  0
   33.1930   28.2450   48.3150 C   0  0  1  0  0  0  0  0  0  0  0  0
   33.5690   26.9360   48.3120 O   0  0  0  0  0  0  0  0  0  0  0  0
   32.8270   26.2410   47.3620 C   0  0  0  0  0  0  0  0  0  0  0  0
   32.2270   27.2710   46.4380 C   0  0  1  0  0  0  0  0  0  0  0  0
   31.0160   28.0930   48.0140 H   0  0  0  0  0  0  0  0  0  0  0  0
   33.0800   28.6820   49.3360 H   0  0  0  0  0  0  0  0  0  0  0  0
   32.1060   25.6500   47.9340 H   0  0  0  0  0  0  0  0  0  0  0  0
   33.4650   25.5130   46.8040 H   0  0  0  0  0  0  0  0  0  0  0  0
   32.9690   27.6690   45.7510 H   0  0  0  0  0  0  0  0  0  0  0  0
   31.8760   29.6250   46.8700 O   0  0  0  0  0  0  0  0  0  0  0  0
   32.0460   30.2860   47.5850 H   0  0  0  0  0  0  0  0  0  0  0  0
   34.5010   29.2050   47.4530 S   0  0  0  0  0  0  0  0  0  0  0  0
   37.0080   29.2700   50.5220 C   0  0  0  0  0  0  0  0  0  0  0  0
   37.5030   30.5720   50.5590 C   0  0  0  0  0  0  0  0  0  0  0  0
   37.0480   31.4690   49.5990 C   0  0  0  0  0  0  0  0  0  0  0  0
   36.1420   31.0350   48.6710 N   0  0  0  0  0  0  0  0  0  0  0  0
   35.6890   29.7610   48.6760 C   0  0  0  0  0  0  0  0  0  0  0  0
   36.1130   28.8630   49.5960 N   0  0  0  0  0  0  0  0  0  0  0  0
   37.3510   28.5590   51.2610 H   0  0  0  0  0  0  0  0  0  0  0  0
   38.2200   30.8690   51.3120 H   0  0  0  0  0  0  0  0  0  0  0  0
   37.4090   32.4830   49.5960 H   0  0  0  0  0  0  0  0  0  0  0  0
   31.0660   26.7730   45.9020 O   0  0  0  0  0  0  0  0  0  0  0  0
   29.7480   28.5680   43.9760 Cl  0  0  0  0  0  0  0  0  0  0  0  0
   29.1180   27.9250   45.4750 C   0  0  0  0  0  0  0  0  0  0  0  0
   29.8300   27.0800   46.2930 C   0  0  0  0  0  0  0  0  0  0  0  0
   29.2080   26.6130   47.4520 C   0  0  0  0  0  0  0  0  0  0  0  0
   27.9230   26.9910   47.7640 C   0  0  0  0  0  0  0  0  0  0  0  0
   27.1980   27.8410   46.9490 C   0  0  0  0  0  0  0  0  0  0  0  0
   27.8020   28.3100   45.7970 C   0  0  0  0  0  0  0  0  0  0  0  0
   29.6660   25.9450   48.1580 H   0  0  0  0  0  0  0  0  0  0  0  0
   27.3750   26.6740   48.6390 H   0  0  0  0  0  0  0  0  0  0  0  0
   26.1790   28.1560   47.1740 H   0  0  0  0  0  0  0  0  0  0  0  0
   26.2750   28.4920   44.0170 C   0  0  0  0  0  0  0  0  0  0  0  0
   27.0570   29.2120   44.9190 C   0  0  0  0  0  0  0  0  0  0  0  0
   27.0470   30.5870   44.8900 C   0  0  0  0  0  0  0  0  0  0  0  0
   27.6910   31.0330   45.6330 H   0  0  0  0  0  0  0  0  0  0  0  0
   26.2560   31.2350   43.9610 C   0  0  0  0  0  3  0  0  0  0  0  0
   25.4750   30.5480   43.0600 C   0  0  0  0  0  3  0  0  0  0  0  0
   25.4830   29.1510   43.0870 C   0  0  0  0  0  0  0  0  0  0  0  0
   26.1800   27.1120   43.9220 O   0  0  0  0  0  0  0  0  0  0  0  0
   26.8800   26.4930   43.5810 H   0  0  0  0  0  0  0  0  0  0  0  0
   24.6750   28.5160   42.1530 O   0  0  0  0  0  0  0  0  0  0  0  0
   24.9660   27.5690   41.8730 H   0  0  0  0  0  0  0  0  0  0  0  0
  1  6  1  1  0  0  0
  1  2  1  0  0  0  0
  2  7  1  1  0  0  0
  3  2  1  0  0  0  0
  4  8  1  0  0  0  0
  4  3  1  0  0  0  0
  5 10  1  6  0  0  0
  5  4  1  0  0  0  0
  5  1  1  0  0  0  0
  9  4  1  0  0  0  0
 11  1  1  0  0  0  0
 11 12  1  0  0  0  0
 13  2  1  0  0  0  0
 13 18  1  0  0  0  0
 14 15  1  0  0  0  0
 14 20  1  0  0  0  0
 15 21  1  0  0  0  0
 16 15  2  0  0  0  0
 17 18  2  0  0  0  0
 17 16  1  0  0  0  0
 18 19  1  0  0  0  0
 19 14  2  0  0  0  0
 22 16  1  0  0  0  0
 23 26  1  0  0  0  0
 23  5  1  0  0  0  0
 24 25  1  0  0  0  0
 25 30  2  0  0  0  0
 25 26  1  0  0  0  0
 26 27  2  0  0  0  0
 27 28  1  0  0  0  0
 27 31  1  0  0  0  0
 28 32  1  0  0  0  0
 29 33  1  0  0  0  0
 29 28  2  0  0  0  0
 30 29  1  0  0  0  0
 34 35  1  0  0  0  0
 35 30  1  0  0  0  0
 36 35  2  0  0  0  0
 36 37  1  0  0  0  0
 38 36  1  0  0  0  0
 39 40  1  0  0  0  0
 39 38  2  0  0  0  0
 40 34  2  0  0  0  0
 41 34  1  0  0  0  0
 42 41  1  0  0  0  0
 43 40  1  0  0  0  0
 44 43  1  0  0  0  0
M  END
>  <minimizedAffinity>
-5.66919184

>  <minimizedRMSD>
0.743989766

$$$$
