
 OpenBabel03272506483D

 44 47  0  0  1  0  0  0  0  0999 V2000
   31.9390   28.3590   47.4420 C   0  0  2  0  0  0  0  0  0  0  0  0
   33.1800   28.2310   48.2790 C   0  0  1  0  0  0  0  0  0  0  0  0
   33.5630   26.9240   48.2660 O   0  0  0  0  0  0  0  0  0  0  0  0
   32.8480   26.2390   47.2890 C   0  0  0  0  0  0  0  0  0  0  0  0
   32.2640   27.2800   46.3660 C   0  0  1  0  0  0  0  0  0  0  0  0
   31.0110   28.0720   47.9240 H   0  0  0  0  0  0  0  0  0  0  0  0
   33.0400   28.6520   49.3040 H   0  0  0  0  0  0  0  0  0  0  0  0
   32.1160   25.6360   47.8350 H   0  0  0  0  0  0  0  0  0  0  0  0
   33.5030   25.5220   46.7360 H   0  0  0  0  0  0  0  0  0  0  0  0
   33.0200   27.6910   45.7030 H   0  0  0  0  0  0  0  0  0  0  0  0
   31.8900   29.6250   46.8240 O   0  0  0  0  0  0  0  0  0  0  0  0
   32.0390   30.2760   47.5520 H   0  0  0  0  0  0  0  0  0  0  0  0
   34.5030   29.2100   47.4630 S   0  0  0  0  0  0  0  0  0  0  0  0
   36.9990   29.2440   50.5410 C   0  0  0  0  0  0  0  0  0  0  0  0
   37.4100   30.5700   50.6610 C   0  0  0  0  0  0  0  0  0  0  0  0
   36.8980   31.4940   49.7560 C   0  0  0  0  0  0  0  0  0  0  0  0
   36.0220   31.0620   48.7990 N   0  0  0  0  0  0  0  0  0  0  0  0
   35.6510   29.7630   48.7230 C   0  0  0  0  0  0  0  0  0  0  0  0
   36.1320   28.8390   49.5880 N   0  0  0  0  0  0  0  0  0  0  0  0
   37.3860   28.5130   51.2360 H   0  0  0  0  0  0  0  0  0  0  0  0
   38.1050   30.8660   51.4350 H   0  0  0  0  0  0  0  0  0  0  0  0
   37.1930   32.5270   49.8180 H   0  0  0  0  0  0  0  0  0  0  0  0
   31.1190   26.7830   45.7950 O   0  0  0  0  0  0  0  0  0  0  0  0
   29.7830   28.6210   43.9220 Cl  0  0  0  0  0  0  0  0  0  0  0  0
   29.1520   27.9110   45.3900 C   0  0  0  0  0  0  0  0  0  0  0  0
   29.8730   27.0510   46.1840 C   0  0  0  0  0  0  0  0  0  0  0  0
   29.2490   26.5290   47.3180 C   0  0  0  0  0  0  0  0  0  0  0  0
   27.9530   26.8690   47.6300 C   0  0  0  0  0  0  0  0  0  0  0  0
   27.2190   27.7330   46.8390 C   0  0  0  0  0  0  0  0  0  0  0  0
   27.8250   28.2570   45.7110 C   0  0  0  0  0  0  0  0  0  0  0  0
   29.7130   25.8450   48.0040 H   0  0  0  0  0  0  0  0  0  0  0  0
   27.4030   26.5090   48.4870 H   0  0  0  0  0  0  0  0  0  0  0  0
   26.1910   28.0200   47.0630 H   0  0  0  0  0  0  0  0  0  0  0  0
   26.2910   28.4720   43.9400 C   0  0  0  0  0  0  0  0  0  0  0  0
   27.0710   29.1750   44.8590 C   0  0  0  0  0  0  0  0  0  0  0  0
   27.0500   30.5500   44.8650 C   0  0  0  0  0  0  0  0  0  0  0  0
   27.6930   30.9810   45.6170 H   0  0  0  0  0  0  0  0  0  0  0  0
   26.2520   31.2160   43.9550 C   0  0  0  0  0  3  0  0  0  0  0  0
   25.4740   30.5470   43.0400 C   0  0  0  0  0  3  0  0  0  0  0  0
   25.4900   29.1500   43.0290 C   0  0  0  0  0  0  0  0  0  0  0  0
   26.2060   27.0940   43.8120 O   0  0  0  0  0  0  0  0  0  0  0  0
   26.9100   26.4910   43.4530 H   0  0  0  0  0  0  0  0  0  0  0  0
   24.6850   28.5330   42.0830 O   0  0  0  0  0  0  0  0  0  0  0  0
   24.9830   27.5950   41.7770 H   0  0  0  0  0  0  0  0  0  0  0  0
  1  6  1  1  0  0  0
  1  2  1  0  0  0  0
  2  7  1  1  0  0  0
  3  2  1  0  0  0  0
  4  8  1  0  0  0  0
  4  3  1  0  0  0  0
  5 10  1  6  0  0  0
  5  4  1  0  0  0  0
  5  1  1  0  0  0  0
  9  4  1  0  0  0  0
 11  1  1  0  0  0  0
 11 12  1  0  0  0  0
 13  2  1  0  0  0  0
 13 18  1  0  0  0  0
 14 15  1  0  0  0  0
 14 20  1  0  0  0  0
 15 21  1  0  0  0  0
 16 22  1  0  0  0  0
 16 15  2  0  0  0  0
 17 16  1  0  0  0  0
 18 17  2  0  0  0  0
 18 19  1  0  0  0  0
 19 14  2  0  0  0  0
 23 26  1  0  0  0  0
 23  5  1  0  0  0  0
 24 25  1  0  0  0  0
 25 30  2  0  0  0  0
 25 26  1  0  0  0  0
 26 27  2  0  0  0  0
 27 28  1  0  0  0  0
 27 31  1  0  0  0  0
 28 32  1  0  0  0  0
 29 33  1  0  0  0  0
 29 28  2  0  0  0  0
 30 29  1  0  0  0  0
 34 35  1  0  0  0  0
 35 36  2  0  0  0  0
 35 30  1  0  0  0  0
 36 37  1  0  0  0  0
 38 36  1  0  0  0  0
 39 38  2  0  0  0  0
 40 39  1  0  0  0  0
 40 34  2  0  0  0  0
 41 34  1  0  0  0  0
 42 41  1  0  0  0  0
 43 40  1  0  0  0  0
 44 43  1  0  0  0  0
M  END
>  <minimizedAffinity>
-5.65069914

>  <minimizedRMSD>
0.94415468

$$$$
