REMARK  Name = 
REMARK  5 active torsions:
REMARK  status: ('A' for Active; 'I' for Inactive)
REMARK    1  A    between atoms: C_1  and  C_7
REMARK    2  A    between atoms: C_3  and  C_15
REMARK    3  A    between atoms: C_19  and  C_38
REMARK    4  A    between atoms: O_36  and  C_37
REMARK    5  A    between atoms: C_43  and  O_44
REMARK                            x       y       z     vdW  Elec       q    Type
REMARK                         _______ _______ _______ _____ _____    ______ ____
ROOT
ATOM      1  C   UNL     1      35.328  30.368  49.967  0.00  0.00    +0.000 C 
ATOM      2  C   UNL     1      36.252  31.343  49.342  0.00  0.00    +0.000 C 
ATOM      3  C   UNL     1      37.716  30.896  49.397  0.00  0.00    +0.000 C 
ATOM      4  C   UNL     1      38.199  30.594  50.745  0.00  0.00    +0.000 C 
ATOM      5  C   UNL     1      37.174  29.868  51.609  0.00  0.00    +0.000 C 
ATOM      6  C   UNL     1      36.043  29.319  50.791  0.00  0.00    +0.000 C 
ATOM      7  H   UNL     1      34.611  30.850  50.692  0.00  0.00    +0.000 HD
ATOM      8  H   UNL     1      36.133  31.678  48.341  0.00  0.00    +0.000 HD
ATOM      9  H   UNL     1      36.235  32.279  49.994  0.00  0.00    +0.000 HD
ATOM     10  H   UNL     1      37.783  30.070  48.686  0.00  0.00    +0.000 HD
ATOM     11  H   UNL     1      39.157  30.038  50.696  0.00  0.00    +0.000 HD
ATOM     12  H   UNL     1      38.429  31.523  51.296  0.00  0.00    +0.000 HD
ATOM     13  H   UNL     1      37.696  28.988  52.039  0.00  0.00    +0.000 HD
ATOM     14  H   UNL     1      36.830  30.458  52.469  0.00  0.00    +0.000 HD
ATOM     15  H   UNL     1      36.426  28.561  50.087  0.00  0.00    +0.000 HD
ATOM     16  H   UNL     1      35.326  28.847  51.465  0.00  0.00    +0.000 HD
ENDROOT
BRANCH   3  19
ATOM     17 CL   UNL     1      38.558  30.571  46.589  0.00  0.00    +0.000 Cl
ATOM     18  C   UNL     1      38.942  32.004  47.529  0.00  0.00    +0.000 A 
ATOM     19  C   UNL     1      38.467  32.055  48.834  0.00  0.00    +0.000 A 
ATOM     20  C   UNL     1      38.803  33.220  49.475  0.00  0.00    +0.000 A 
ATOM     21  C   UNL     1      39.535  34.226  48.879  0.00  0.00    +0.000 A 
ATOM     22  C   UNL     1      39.974  34.099  47.567  0.00  0.00    +0.000 A 
ATOM     23  C   UNL     1      39.660  32.939  46.872  0.00  0.00    +0.000 A 
ATOM     24  H   UNL     1      38.471  33.350  50.496  0.00  0.00    +0.000 HD
ATOM     25  H   UNL     1      39.755  35.120  49.470  0.00  0.00    +0.000 HD
ATOM     26  H   UNL     1      40.541  34.913  47.150  0.00  0.00    +0.000 HD
BRANCH  23  28
ATOM     27  C   UNL     1      40.175  31.653  44.710  0.00  0.00    +0.000 A 
ATOM     28  C   UNL     1      40.116  32.795  45.492  0.00  0.00    +0.000 A 
ATOM     29  C   UNL     1      40.539  34.004  44.937  0.00  0.00    +0.000 A 
ATOM     30  H   UNL     1      40.531  34.964  45.477  0.00  0.00    +0.000 HD
ATOM     31  C   UNL     1      41.009  34.121  43.660  0.00  0.00    +0.000 A 
ATOM     32  C   UNL     1      41.053  32.949  42.903  0.00  0.00    +0.000 A 
ATOM     33  C   UNL     1      40.641  31.732  43.423  0.00  0.00    +0.000 A 
BRANCH  27  34
ATOM     34  O   UNL     1      39.727  30.521  45.379  0.00  0.00    +0.000 OA
ATOM     35  H   UNL     1      39.763  29.659  44.818  0.00  0.00    +0.000 HD
ENDBRANCH  27  34
BRANCH  33  36
ATOM     36  O   UNL     1      40.665  30.543  42.713  0.00  0.00    +0.000 OA
ATOM     37  H   UNL     1      41.434  30.315  42.093  0.00  0.00    +0.000 HD
ENDBRANCH  33  36
ENDBRANCH  23  28
ENDBRANCH   3  19
BRANCH   1  38
ATOM     38  C   UNL     1      34.489  29.658  48.988  0.00  0.00    +0.000 A 
ATOM     39  C   UNL     1      34.445  30.231  47.717  0.00  0.00    +0.000 A 
ATOM     40  C   UNL     1      33.673  29.587  46.740  0.00  0.00    +0.000 A 
ATOM     41  N   UNL     1      32.996  28.422  47.081  0.00  0.00    +0.000 NA
ATOM     42  C   UNL     1      33.069  27.907  48.322  0.00  0.00    +0.000 A 
ATOM     43  N   UNL     1      33.810  28.536  49.239  0.00  0.00    +0.000 NA
ATOM     44  H   UNL     1      34.832  31.080  47.183  0.00  0.00    +0.000 HD
ATOM     45  H   UNL     1      33.472  29.802  45.716  0.00  0.00    +0.000 HD
ATOM     46  H   UNL     1      32.547  27.005  48.597  0.00  0.00    +0.000 HD
ENDBRANCH   1  38
TORSDOF 5
