REMARK  Name = 
REMARK  4 active torsions:
REMARK  status: ('A' for Active; 'I' for Inactive)
REMARK    1  A    between atoms: C_5  and  C_9
REMARK    2  A    between atoms: C_11  and  C_22
REMARK    3  A    between atoms: O_20  and  C_21
REMARK    4  A    between atoms: C_27  and  O_28
REMARK                            x       y       z     vdW  Elec       q    Type
REMARK                         _______ _______ _______ _____ _____    ______ ____
ROOT
ATOM      1 BR   UNL     1      37.281  29.359  51.054  0.00  0.00    +0.000 Br
ATOM      2  C   UNL     1      35.962  29.317  49.669  0.00  0.00    +0.000 A 
ATOM      3  C   UNL     1      35.998  30.223  48.608  0.00  0.00    +0.000 A 
ATOM      4  C   UNL     1      35.013  30.127  47.648  0.00  0.00    +0.000 A 
ATOM      5  C   UNL     1      34.002  29.180  47.692  0.00  0.00    +0.000 A 
ATOM      6  C   UNL     1      33.994  28.302  48.750  0.00  0.00    +0.000 A 
ATOM      7  C   UNL     1      34.966  28.378  49.721  0.00  0.00    +0.000 A 
ATOM      8  H   UNL     1      35.034  30.829  46.818  0.00  0.00    +0.000 HD
ATOM      9  H   UNL     1      33.210  27.558  48.795  0.00  0.00    +0.000 HD
ATOM     10  H   UNL     1      34.939  27.669  50.553  0.00  0.00    +0.000 HD
ENDROOT
BRANCH   3  15
ATOM     11  C   UNL     1      37.984  33.176  49.439  0.00  0.00    +0.000 A 
ATOM     12  C   UNL     1      39.013  33.155  48.475  0.00  0.00    +0.000 A 
ATOM     13  C   UNL     1      39.018  32.113  47.533  0.00  0.00    +0.000 A 
ATOM     14  N   UNL     1      38.024  31.174  47.601  0.00  0.00    +0.000 NA
ATOM     15  C   UNL     1      37.050  31.226  48.542  0.00  0.00    +0.000 A 
ATOM     16  N   UNL     1      37.033  32.219  49.452  0.00  0.00    +0.000 NA
ATOM     17  H   UNL     1      38.023  34.000  50.145  0.00  0.00    +0.000 HD
ATOM     18  H   UNL     1      39.806  33.861  48.382  0.00  0.00    +0.000 HD
ATOM     19  H   UNL     1      39.745  31.986  46.750  0.00  0.00    +0.000 HD
ENDBRANCH   3  15
BRANCH   5  21
ATOM     20  C   UNL     1      31.845  29.902  46.711  0.00  0.00    +0.000 A 
ATOM     21  C   UNL     1      33.005  29.164  46.620  0.00  0.00    +0.000 A 
ATOM     22  C   UNL     1      33.218  28.402  45.500  0.00  0.00    +0.000 A 
ATOM     23  H   UNL     1      34.088  27.808  45.361  0.00  0.00    +0.000 HD
ATOM     24  C   UNL     1      32.234  28.424  44.510  0.00  0.00    +0.000 A 
ATOM     25  C   UNL     1      31.067  29.165  44.597  0.00  0.00    +0.000 A 
ATOM     26  C   UNL     1      30.875  29.921  45.731  0.00  0.00    +0.000 A 
BRANCH  20  27
ATOM     27  O   UNL     1      31.651  30.668  47.860  0.00  0.00    +0.000 OA
ATOM     28  H   UNL     1      30.763  30.725  48.339  0.00  0.00    +0.000 HD
ENDBRANCH  20  27
BRANCH  26  29
ATOM     29  O   UNL     1      29.722  30.701  45.901  0.00  0.00    +0.000 OA
ATOM     30  H   UNL     1      28.898  30.290  46.364  0.00  0.00    +0.000 HD
ENDBRANCH  26  29
ENDBRANCH   5  21
TORSDOF 4
