REMARK  Name = 
REMARK  6 active torsions:
REMARK  status: ('A' for Active; 'I' for Inactive)
REMARK    1  A    between atoms: N_1  and  C_11
REMARK    2  A    between atoms: C_3  and  C_15
REMARK    3  A    between atoms: N_6  and  C_21
REMARK    4  A    between atoms: C_19  and  C_34
REMARK    5  A    between atoms: O_32  and  C_33
REMARK    6  A    between atoms: C_39  and  O_40
REMARK                            x       y       z     vdW  Elec       q    Type
REMARK                         _______ _______ _______ _____ _____    ______ ____
ROOT
ATOM      1  N   UNL     1      37.370  31.059  47.145  0.00  0.00    +0.000 N 
ATOM      2  C   UNL     1      36.783  30.719  45.967  0.00  0.00    +0.000 A 
ATOM      3  C   UNL     1      37.250  31.193  44.745  0.00  0.00    +0.000 A 
ATOM      4  C   UNL     1      38.360  32.045  44.764  0.00  0.00    +0.000 A 
ATOM      5  O   UNL     1      38.817  32.497  43.692  0.00  0.00    +0.000 OA
ATOM      6  N   UNL     1      38.949  32.385  45.959  0.00  0.00    +0.000 N 
ATOM      7  C   UNL     1      38.410  31.867  47.056  0.00  0.00    +0.000 A 
ATOM      8  O   UNL     1      38.978  32.204  48.121  0.00  0.00    +0.000 OA
ATOM      9  H   UNL     1      35.925  30.059  45.958  0.00  0.00    +0.000 HD
ENDROOT
BRANCH   1  12
ATOM     10  C   UNL     1      37.243  29.478  50.498  0.00  0.00    +0.000 A 
ATOM     11  C   UNL     1      37.725  29.960  49.276  0.00  0.00    +0.000 A 
ATOM     12  C   UNL     1      36.894  30.579  48.361  0.00  0.00    +0.000 A 
ATOM     13  N   UNL     1      35.603  30.691  48.706  0.00  0.00    +0.000 NA
ATOM     14  C   UNL     1      35.095  30.236  49.884  0.00  0.00    +0.000 A 
ATOM     15  N   UNL     1      35.945  29.624  50.777  0.00  0.00    +0.000 NA
ATOM     16  H   UNL     1      37.958  29.010  51.152  0.00  0.00    +0.000 HD
ATOM     17  H   UNL     1      38.780  29.849  49.034  0.00  0.00    +0.000 HD
ATOM     18  H   UNL     1      34.035  30.348  50.127  0.00  0.00    +0.000 HD
ENDBRANCH   1  12
BRANCH   3  19
ATOM     19  C   UNL     1      36.655  30.856  43.461  0.00  0.00    +0.000 A 
ATOM     20  C   UNL     1      37.006  29.759  42.729  0.00  0.00    +0.000 A 
ATOM     21  C   UNL     1      36.457  29.418  41.510  0.00  0.00    +0.000 A 
ATOM     22  C   UNL     1      35.465  30.260  40.985  0.00  0.00    +0.000 A 
ATOM     23  C   UNL     1      35.137  31.359  41.755  0.00  0.00    +0.000 A 
ATOM     24  N   UNL     1      35.716  31.615  42.922  0.00  0.00    +0.000 NA
ATOM     25  H   UNL     1      37.772  29.078  43.097  0.00  0.00    +0.000 HD
ATOM     26  H   UNL     1      36.772  28.544  40.978  0.00  0.00    +0.000 HD
ATOM     27  H   UNL     1      35.036  30.009  40.049  0.00  0.00    +0.000 HD
BRANCH  23  29
ATOM     28  C   UNL     1      33.962  33.541  41.842  0.00  0.00    +0.000 A 
ATOM     29  C   UNL     1      34.115  32.285  41.282  0.00  0.00    +0.000 A 
ATOM     30  C   UNL     1      33.219  32.034  40.266  0.00  0.00    +0.000 A 
ATOM     31  H   UNL     1      33.263  31.077  39.769  0.00  0.00    +0.000 HD
ATOM     32  C   UNL     1      32.269  32.942  39.853  0.00  0.00    +0.000 A 
ATOM     33  C   UNL     1      32.178  34.177  40.462  0.00  0.00    +0.000 A 
ATOM     34  C   UNL     1      33.042  34.500  41.488  0.00  0.00    +0.000 A 
BRANCH  28  35
ATOM     35  O   UNL     1      34.837  33.886  42.890  0.00  0.00    +0.000 OA
ATOM     36  H   UNL     1      35.685  34.379  42.571  0.00  0.00    +0.000 HD
ENDBRANCH  28  35
BRANCH  34  37
ATOM     37  O   UNL     1      32.999  35.726  42.138  0.00  0.00    +0.000 OA
ATOM     38  H   UNL     1      32.955  36.558  41.545  0.00  0.00    +0.000 HD
ENDBRANCH  34  37
ENDBRANCH  23  29
ENDBRANCH   3  19
BRANCH   6  39
ATOM     39  C   UNL     1      40.091  33.263  45.966  0.00  0.00    +0.000 C 
ATOM     40  F   UNL     1      39.960  34.235  45.034  0.00  0.00    +0.000 F 
ATOM     41  F   UNL     1      41.282  32.614  45.690  0.00  0.00    +0.000 F 
ATOM     42  F   UNL     1      40.169  33.875  47.223  0.00  0.00    +0.000 F 
ENDBRANCH   6  39
TORSDOF 6
