
 OpenBabel03272505313D

 42 45  0  0  0  0  0  0  0  0999 V2000
   37.4030   31.2400   47.0390 N   0  0  0  0  0  0  0  0  0  0  0  0
   36.7030   31.0530   45.8890 C   0  0  0  0  0  0  0  0  0  0  0  0
   37.1170   31.5940   44.6760 C   0  0  0  0  0  0  0  0  0  0  0  0
   38.2940   32.3500   44.6740 C   0  0  0  0  0  0  0  0  0  0  0  0
   38.7070   32.8580   43.6090 O   0  0  0  0  0  0  0  0  0  0  0  0
   38.9980   32.5360   45.8410 N   0  0  0  0  0  0  0  0  0  0  0  0
   38.4990   31.9670   46.9320 C   0  0  0  0  0  0  0  0  0  0  0  0
   39.1720   32.1630   47.9710 O   0  0  0  0  0  0  0  0  0  0  0  0
   35.7930   30.4660   45.8960 H   0  0  0  0  0  0  0  0  0  0  0  0
   37.4340   29.5530   50.3420 C   0  0  0  0  0  0  0  0  0  0  0  0
   37.8640   30.1020   49.1290 C   0  0  0  0  0  0  0  0  0  0  0  0
   36.9790   30.6930   48.2460 C   0  0  0  0  0  0  0  0  0  0  0  0
   35.6900   30.7110   48.6140 N   0  0  0  0  0  0  0  0  0  0  0  0
   35.2320   30.1890   49.7850 C   0  0  0  0  0  0  0  0  0  0  0  0
   36.1350   29.6060   50.6450 N   0  0  0  0  0  0  0  0  0  0  0  0
   38.1890   29.1120   50.9710 H   0  0  0  0  0  0  0  0  0  0  0  0
   38.9190   30.0660   48.8680 H   0  0  0  0  0  0  0  0  0  0  0  0
   34.1720   30.2250   50.0470 H   0  0  0  0  0  0  0  0  0  0  0  0
   36.4010   31.4200   43.4210 C   0  0  0  0  0  0  0  0  0  0  0  0
   36.5950   30.3640   42.5790 C   0  0  0  0  0  0  0  0  0  0  0  0
   35.9300   30.1770   41.3850 C   0  0  0  0  0  0  0  0  0  0  0  0
   34.9830   31.1420   41.0100 C   0  0  0  0  0  0  0  0  0  0  0  0
   34.8140   32.1950   41.8880 C   0  0  0  0  0  0  0  0  0  0  0  0
   35.4980   32.3000   43.0210 N   0  0  0  0  0  0  0  0  0  0  0  0
   37.3210   29.5910   42.8300 H   0  0  0  0  0  0  0  0  0  0  0  0
   36.1240   29.3280   40.7630 H   0  0  0  0  0  0  0  0  0  0  0  0
   34.4660   31.0090   40.0950 H   0  0  0  0  0  0  0  0  0  0  0  0
   32.8820   33.6310   42.4820 C   0  0  0  0  0  0  0  0  0  0  0  0
   33.8490   33.2410   41.5740 C   0  0  0  0  0  0  0  0  0  0  0  0
   33.7890   33.9400   40.3870 C   0  0  0  0  0  0  0  0  0  0  0  0
   34.5050   33.7040   39.6160 H   0  0  0  0  0  0  0  0  0  0  0  0
   32.8570   34.9230   40.1350 C   0  0  0  0  0  3  0  0  0  0  0  0
   31.9220   35.2550   41.0930 C   0  0  0  0  0  3  0  0  0  0  0  0
   31.9210   34.6000   42.3070 C   0  0  0  0  0  0  0  0  0  0  0  0
   32.8680   32.9700   43.7260 O   0  0  0  0  0  0  0  0  0  0  0  0
   33.4220   33.4500   44.4520 H   0  0  0  0  0  0  0  0  0  0  0  0
   31.0060   34.8900   43.3100 O   0  0  0  0  0  0  0  0  0  0  0  0
   30.8690   35.8780   43.5320 H   0  0  0  0  0  0  0  0  0  0  0  0
   40.2080   33.3160   45.8260 C   0  0  0  0  0  0  0  0  0  0  0  0
   40.1680   34.2540   44.8520 F   0  0  0  0  0  0  0  0  0  0  0  0
   41.3440   32.5600   45.5960 F   0  0  0  0  0  0  0  0  0  0  0  0
   40.3230   33.9750   47.0570 F   0  0  0  0  0  0  0  0  0  0  0  0
  1 12  1  0  0  0  0
  2  9  1  0  0  0  0
  2  1  1  0  0  0  0
  3  2  2  0  0  0  0
  4  3  1  0  0  0  0
  4  6  1  0  0  0  0
  5  4  2  0  0  0  0
  6  7  1  0  0  0  0
  7  1  1  0  0  0  0
  7  8  2  0  0  0  0
 10 15  1  0  0  0  0
 10 16  1  0  0  0  0
 11 10  2  0  0  0  0
 12 13  2  0  0  0  0
 12 11  1  0  0  0  0
 13 14  1  0  0  0  0
 14 18  1  0  0  0  0
 14 15  2  0  0  0  0
 17 11  1  0  0  0  0
 19  3  1  0  0  0  0
 20 25  1  0  0  0  0
 20 19  2  0  0  0  0
 21 20  1  0  0  0  0
 22 21  2  0  0  0  0
 22 23  1  0  0  0  0
 23 24  2  0  0  0  0
 24 19  1  0  0  0  0
 26 21  1  0  0  0  0
 27 22  1  0  0  0  0
 28 35  1  0  0  0  0
 29 23  1  0  0  0  0
 29 28  2  0  0  0  0
 30 29  1  0  0  0  0
 31 30  1  0  0  0  0
 32 30  2  0  0  0  0
 32 33  1  0  0  0  0
 33 34  2  0  0  0  0
 34 28  1  0  0  0  0
 34 37  1  0  0  0  0
 35 36  1  0  0  0  0
 37 38  1  0  0  0  0
 39  6  1  0  0  0  0
 39 42  1  0  0  0  0
 40 39  1  0  0  0  0
 41 39  1  0  0  0  0
M  END
>  <minimizedAffinity>
-7.25562

>  <minimizedRMSD>
0.69630152

$$$$
