
 OpenBabel03272507513D

 30 32  0  0  0  0  0  0  0  0999 V2000
   37.9420   23.9410   33.2830 C   0  0  0  0  0  0  0  0  0  0  0  0
   38.0750   22.6190   33.7330 C   0  0  0  0  0  0  0  0  0  0  0  0
   37.2270   21.6560   33.1550 C   0  0  0  0  0  0  0  0  0  0  0  0
   36.3430   22.0700   32.2060 N   0  0  0  0  0  0  0  0  0  0  0  0
   36.2440   23.3360   31.8020 C   0  0  0  0  0  0  0  0  0  0  0  0
   37.0420   24.2850   32.3360 N   0  0  0  0  0  0  0  0  0  0  0  0
   37.3880   20.6780   33.5510 H   0  0  0  0  0  0  0  0  0  0  0  0
   35.4720   23.3710   31.0510 H   0  0  0  0  0  0  0  0  0  0  0  0
   39.0570   22.3330   34.7300 N   0  0  0  0  0  0  0  0  0  0  0  0
   40.3230   22.0470   34.4020 C   0  0  0  0  0  0  0  0  0  0  0  0
   41.2600   21.7670   35.4140 C   0  0  0  0  0  0  0  0  0  0  0  0
   40.7220   21.8290   36.6910 C   0  0  0  0  0  0  0  0  0  0  0  0
   41.5740   21.5790   37.5970 O   0  0  0  0  0  0  0  0  0  0  0  0
   39.4660   22.1110   37.0320 N   0  0  0  0  0  0  0  0  0  0  0  0
   38.6180   22.3690   36.0050 C   0  0  0  0  0  0  0  0  0  0  0  0
   37.4330   22.6360   36.3130 O   0  0  0  0  0  0  0  0  0  0  0  0
   40.6590   22.0180   33.3720 H   0  0  0  0  0  0  0  0  0  0  0  0
   42.2890   21.5300   35.2140 H   0  0  0  0  0  0  0  0  0  0  0  0
   39.2240   22.1160   38.0340 H   0  0  0  0  0  0  0  0  0  0  0  0
   38.3700   25.8860   34.8430 C   0  0  0  0  0  0  0  0  0  0  0  0
   38.7190   25.0810   33.7560 C   0  0  0  0  0  0  0  0  0  0  0  0
   39.9080   25.3510   33.0630 C   0  0  0  0  0  0  0  0  0  0  0  0
   40.2620   24.7770   32.2060 H   0  0  0  0  0  0  0  0  0  0  0  0
   40.7300   26.3900   33.4390 C   0  0  0  0  0  3  0  0  0  0  0  0
   40.3810   27.1670   34.5000 C   0  0  0  0  0  3  0  0  0  0  0  0
   39.2020   26.9150   35.2020 C   0  0  0  0  0  0  0  0  0  0  0  0
   37.1720   25.5900   35.5120 O   0  0  0  0  0  0  0  0  0  0  0  0
   36.3330   26.0570   35.1500 H   0  0  0  0  0  0  0  0  0  0  0  0
   38.8620   27.7190   36.2860 O   0  0  0  0  0  0  0  0  0  0  0  0
   38.2120   27.3580   36.9690 H   0  0  0  0  0  0  0  0  0  0  0  0
  1  2  1  0  0  0  0
  1 21  1  0  0  0  0
  2  9  1  0  0  0  0
  3  7  1  0  0  0  0
  3  2  2  0  0  0  0
  4  3  1  0  0  0  0
  5  4  2  0  0  0  0
  5  6  1  0  0  0  0
  6  1  2  0  0  0  0
  8  5  1  0  0  0  0
  9 15  1  0  0  0  0
 10  9  1  0  0  0  0
 10 11  2  0  0  0  0
 11 12  1  0  0  0  0
 12 14  1  0  0  0  0
 12 13  2  0  0  0  0
 14 19  1  0  0  0  0
 15 16  2  0  0  0  0
 15 14  1  0  0  0  0
 17 10  1  0  0  0  0
 18 11  1  0  0  0  0
 20 26  1  0  0  0  0
 20 27  1  0  0  0  0
 21 20  2  0  0  0  0
 22 24  2  0  0  0  0
 22 21  1  0  0  0  0
 23 22  1  0  0  0  0
 24 25  1  0  0  0  0
 25 26  2  0  0  0  0
 26 29  1  0  0  0  0
 28 27  1  0  0  0  0
 29 30  1  0  0  0  0
M  END
>  <minimizedAffinity>
-5.67717981

$$$$

 OpenBabel03272507513D

 30 32  0  0  0  0  0  0  0  0999 V2000
   39.9390   25.2210   34.4960 C   0  0  0  0  0  0  0  0  0  0  0  0
   39.6580   24.8860   33.1630 C   0  0  0  0  0  0  0  0  0  0  0  0
   40.1680   25.7380   32.1650 C   0  0  0  0  0  0  0  0  0  0  0  0
   40.8950   26.8190   32.5590 N   0  0  0  0  0  0  0  0  0  0  0  0
   41.1450   27.1070   33.8370 C   0  0  0  0  0  0  0  0  0  0  0  0
   40.6700   26.3110   34.8180 N   0  0  0  0  0  0  0  0  0  0  0  0
   39.9090   25.4170   31.1810 H   0  0  0  0  0  0  0  0  0  0  0  0
   41.7380   28.0070   33.8500 H   0  0  0  0  0  0  0  0  0  0  0  0
   38.8870   23.7110   32.9020 N   0  0  0  0  0  0  0  0  0  0  0  0
   39.4580   22.5040   32.8320 C   0  0  0  0  0  0  0  0  0  0  0  0
   38.6650   21.3710   32.5700 C   0  0  0  0  0  0  0  0  0  0  0  0
   37.3200   21.6690   32.4110 C   0  0  0  0  0  0  0  0  0  0  0  0
   36.6120   20.6420   32.1790 O   0  0  0  0  0  0  0  0  0  0  0  0
   36.7380   22.8650   32.4770 N   0  0  0  0  0  0  0  0  0  0  0  0
   37.5630   23.9100   32.7320 C   0  0  0  0  0  0  0  0  0  0  0  0
   37.0280   25.0420   32.7970 O   0  0  0  0  0  0  0  0  0  0  0  0
   40.5240   22.3600   32.9680 H   0  0  0  0  0  0  0  0  0  0  0  0
   39.0650   20.3750   32.5010 H   0  0  0  0  0  0  0  0  0  0  0  0
   35.7190   22.9180   32.3360 H   0  0  0  0  0  0  0  0  0  0  0  0
   40.2250   23.4470   36.2770 C   0  0  0  0  0  0  0  0  0  0  0  0
   39.5000   24.4750   35.6690 C   0  0  0  0  0  0  0  0  0  0  0  0
   38.2670   24.8550   36.2200 C   0  0  0  0  0  0  0  0  0  0  0  0
   37.6340   25.6460   35.8160 H   0  0  0  0  0  0  0  0  0  0  0  0
   37.7670   24.2340   37.3420 C   0  0  0  0  0  3  0  0  0  0  0  0
   38.4820   23.2340   37.9270 C   0  0  0  0  0  3  0  0  0  0  0  0
   39.7110   22.8410   37.3940 C   0  0  0  0  0  0  0  0  0  0  0  0
   41.4530   23.0910   35.6990 O   0  0  0  0  0  0  0  0  0  0  0  0
   41.4110   22.3640   34.9750 H   0  0  0  0  0  0  0  0  0  0  0  0
   40.4290   21.8190   38.0070 O   0  0  0  0  0  0  0  0  0  0  0  0
   41.4220   21.7560   37.8310 H   0  0  0  0  0  0  0  0  0  0  0  0
  1  6  1  0  0  0  0
  1 21  1  0  0  0  0
  2  1  2  0  0  0  0
  3  4  2  0  0  0  0
  3  2  1  0  0  0  0
  4  5  1  0  0  0  0
  5  8  1  0  0  0  0
  5  6  2  0  0  0  0
  7  3  1  0  0  0  0
  9  2  1  0  0  0  0
 10  9  1  0  0  0  0
 10 17  1  0  0  0  0
 11 10  2  0  0  0  0
 12 14  1  0  0  0  0
 12 11  1  0  0  0  0
 13 12  2  0  0  0  0
 14 15  1  0  0  0  0
 15 16  2  0  0  0  0
 15  9  1  0  0  0  0
 18 11  1  0  0  0  0
 19 14  1  0  0  0  0
 20 26  1  0  0  0  0
 21 22  1  0  0  0  0
 21 20  2  0  0  0  0
 22 24  2  0  0  0  0
 23 22  1  0  0  0  0
 24 25  1  0  0  0  0
 26 25  2  0  0  0  0
 26 29  1  0  0  0  0
 27 20  1  0  0  0  0
 28 27  1  0  0  0  0
 30 29  1  0  0  0  0
M  END
>  <minimizedAffinity>
-5.36970568

$$$$

 OpenBabel03272507513D

 30 32  0  0  0  0  0  0  0  0999 V2000
   36.8240   25.5800   32.4700 C   0  0  0  0  0  0  0  0  0  0  0  0
   36.0080   26.3210   31.6030 C   0  0  0  0  0  0  0  0  0  0  0  0
   35.1660   25.5970   30.7380 C   0  0  0  0  0  0  0  0  0  0  0  0
   35.1990   24.2380   30.8030 N   0  0  0  0  0  0  0  0  0  0  0  0
   35.9880   23.5650   31.6410 C   0  0  0  0  0  0  0  0  0  0  0  0
   36.8080   24.2290   32.4830 N   0  0  0  0  0  0  0  0  0  0  0  0
   34.5810   26.2320   30.1110 H   0  0  0  0  0  0  0  0  0  0  0  0
   35.8050   22.5160   31.4760 H   0  0  0  0  0  0  0  0  0  0  0  0
   36.0750   27.7470   31.6550 N   0  0  0  0  0  0  0  0  0  0  0  0
   35.2780   28.4530   32.4650 C   0  0  0  0  0  0  0  0  0  0  0  0
   35.3720   29.8580   32.4860 C   0  0  0  0  0  0  0  0  0  0  0  0
   36.3320   30.3550   31.6170 C   0  0  0  0  0  0  0  0  0  0  0  0
   36.4130   31.6210   31.6440 O   0  0  0  0  0  0  0  0  0  0  0  0
   37.1310   29.6650   30.8050 N   0  0  0  0  0  0  0  0  0  0  0  0
   36.9840   28.3170   30.8380 C   0  0  0  0  0  0  0  0  0  0  0  0
   37.7310   27.6560   30.0780 O   0  0  0  0  0  0  0  0  0  0  0  0
   34.5500   27.9810   33.1140 H   0  0  0  0  0  0  0  0  0  0  0  0
   34.7600   30.4800   33.1130 H   0  0  0  0  0  0  0  0  0  0  0  0
   37.7960   30.1880   30.2180 H   0  0  0  0  0  0  0  0  0  0  0  0
   39.1090   26.4100   33.1670 C   0  0  0  0  0  0  0  0  0  0  0  0
   37.7660   26.1370   33.4330 C   0  0  0  0  0  0  0  0  0  0  0  0
   37.2510   26.4290   34.7060 C   0  0  0  0  0  0  0  0  0  0  0  0
   36.2170   26.2520   35.0040 H   0  0  0  0  0  0  0  0  0  0  0  0
   38.0460   26.9790   35.6860 C   0  0  0  0  0  3  0  0  0  0  0  0
   39.3540   27.2430   35.4150 C   0  0  0  0  0  3  0  0  0  0  0  0
   39.8850   26.9590   34.1560 C   0  0  0  0  0  0  0  0  0  0  0  0
   39.5920   26.1030   31.8860 O   0  0  0  0  0  0  0  0  0  0  0  0
   39.9670   25.1550   31.7660 H   0  0  0  0  0  0  0  0  0  0  0  0
   41.2240   27.2380   33.8960 O   0  0  0  0  0  0  0  0  0  0  0  0
   41.5170   27.3370   32.9360 H   0  0  0  0  0  0  0  0  0  0  0  0
  1  6  1  0  0  0  0
  1 21  1  0  0  0  0
  2  9  1  0  0  0  0
  2  1  2  0  0  0  0
  3  4  2  0  0  0  0
  3  2  1  0  0  0  0
  4  5  1  0  0  0  0
  5  6  2  0  0  0  0
  7  3  1  0  0  0  0
  8  5  1  0  0  0  0
  9 10  1  0  0  0  0
 10 11  2  0  0  0  0
 10 17  1  0  0  0  0
 11 18  1  0  0  0  0
 12 13  2  0  0  0  0
 12 11  1  0  0  0  0
 14 15  1  0  0  0  0
 14 12  1  0  0  0  0
 15  9  1  0  0  0  0
 16 15  2  0  0  0  0
 19 14  1  0  0  0  0
 20 21  2  0  0  0  0
 20 26  1  0  0  0  0
 21 22  1  0  0  0  0
 22 23  1  0  0  0  0
 22 24  2  0  0  0  0
 25 24  1  0  0  0  0
 26 25  2  0  0  0  0
 27 20  1  0  0  0  0
 28 27  1  0  0  0  0
 29 26  1  0  0  0  0
 30 29  1  0  0  0  0
M  END
>  <minimizedAffinity>
-5.30209017

$$$$

 OpenBabel03272507513D

 30 32  0  0  0  0  0  0  0  0999 V2000
   36.3480   26.2150   31.5580 C   0  0  0  0  0  0  0  0  0  0  0  0
   37.4680   25.4340   31.8800 C   0  0  0  0  0  0  0  0  0  0  0  0
   37.3210   24.0360   31.8010 C   0  0  0  0  0  0  0  0  0  0  0  0
   36.1120   23.5420   31.4180 N   0  0  0  0  0  0  0  0  0  0  0  0
   35.0680   24.3140   31.1180 C   0  0  0  0  0  0  0  0  0  0  0  0
   35.1750   25.6580   31.1840 N   0  0  0  0  0  0  0  0  0  0  0  0
   38.2150   23.5150   32.0620 H   0  0  0  0  0  0  0  0  0  0  0  0
   34.2540   23.6590   30.8500 H   0  0  0  0  0  0  0  0  0  0  0  0
   38.6760   26.0970   32.2560 N   0  0  0  0  0  0  0  0  0  0  0  0
   38.9600   26.3540   33.5380 C   0  0  0  0  0  0  0  0  0  0  0  0
   40.1600   27.0120   33.8690 C   0  0  0  0  0  0  0  0  0  0  0  0
   40.9360   27.3250   32.7620 C   0  0  0  0  0  0  0  0  0  0  0  0
   42.0170   27.9150   33.0680 O   0  0  0  0  0  0  0  0  0  0  0  0
   40.6650   27.0760   31.4820 N   0  0  0  0  0  0  0  0  0  0  0  0
   39.4920   26.4400   31.2390 C   0  0  0  0  0  0  0  0  0  0  0  0
   39.2260   26.2000   30.0380 O   0  0  0  0  0  0  0  0  0  0  0  0
   38.2920   26.0750   34.3450 H   0  0  0  0  0  0  0  0  0  0  0  0
   40.4440   27.2470   34.8780 H   0  0  0  0  0  0  0  0  0  0  0  0
   41.3510   27.3740   30.7730 H   0  0  0  0  0  0  0  0  0  0  0  0
   36.4820   28.4950   30.4710 C   0  0  0  0  0  0  0  0  0  0  0  0
   36.2920   27.6710   31.5830 C   0  0  0  0  0  0  0  0  0  0  0  0
   36.0030   28.2590   32.8240 C   0  0  0  0  0  0  0  0  0  0  0  0
   35.8370   27.6980   33.7440 H   0  0  0  0  0  0  0  0  0  0  0  0
   35.9030   29.6260   32.9570 C   0  0  0  0  0  3  0  0  0  0  0  0
   36.0890   30.4190   31.8670 C   0  0  0  0  0  3  0  0  0  0  0  0
   36.3780   29.8530   30.6240 C   0  0  0  0  0  0  0  0  0  0  0  0
   36.7720   27.8740   29.2460 O   0  0  0  0  0  0  0  0  0  0  0  0
   37.7680   27.7160   29.0520 H   0  0  0  0  0  0  0  0  0  0  0  0
   36.5630   30.6790   29.5190 O   0  0  0  0  0  0  0  0  0  0  0  0
   36.4510   30.2830   28.5980 H   0  0  0  0  0  0  0  0  0  0  0  0
  1 21  1  0  0  0  0
  1  2  1  0  0  0  0
  2  9  1  0  0  0  0
  3  2  2  0  0  0  0
  3  7  1  0  0  0  0
  4  3  1  0  0  0  0
  5  6  1  0  0  0  0
  5  4  2  0  0  0  0
  6  1  2  0  0  0  0
  8  5  1  0  0  0  0
  9 10  1  0  0  0  0
 10 11  2  0  0  0  0
 10 17  1  0  0  0  0
 11 18  1  0  0  0  0
 12 13  2  0  0  0  0
 12 11  1  0  0  0  0
 14 12  1  0  0  0  0
 15 14  1  0  0  0  0
 15  9  1  0  0  0  0
 16 15  2  0  0  0  0
 19 14  1  0  0  0  0
 20 26  2  0  0  0  0
 20 21  1  0  0  0  0
 21 22  2  0  0  0  0
 22 24  1  0  0  0  0
 22 23  1  0  0  0  0
 25 24  2  0  0  0  0
 26 25  1  0  0  0  0
 27 20  1  0  0  0  0
 28 27  1  0  0  0  0
 29 26  1  0  0  0  0
 30 29  1  0  0  0  0
M  END
>  <minimizedAffinity>
-5.29671526

$$$$

 OpenBabel03272507513D

 30 32  0  0  0  0  0  0  0  0999 V2000
   38.0880   22.5940   34.3320 C   0  0  0  0  0  0  0  0  0  0  0  0
   38.1130   23.5550   33.3110 C   0  0  0  0  0  0  0  0  0  0  0  0
   37.1860   23.4020   32.2620 C   0  0  0  0  0  0  0  0  0  0  0  0
   36.3350   22.3410   32.3110 N   0  0  0  0  0  0  0  0  0  0  0  0
   36.3380   21.4460   33.2990 C   0  0  0  0  0  0  0  0  0  0  0  0
   37.2140   21.5630   34.3190 N   0  0  0  0  0  0  0  0  0  0  0  0
   37.2710   24.1700   31.5260 H   0  0  0  0  0  0  0  0  0  0  0  0
   35.5660   20.7270   33.0800 H   0  0  0  0  0  0  0  0  0  0  0  0
   39.0600   24.6210   33.4000 N   0  0  0  0  0  0  0  0  0  0  0  0
   40.2520   24.5480   32.7960 C   0  0  0  0  0  0  0  0  0  0  0  0
   41.1580   25.6180   32.9100 C   0  0  0  0  0  0  0  0  0  0  0  0
   40.6720   26.6690   33.6750 C   0  0  0  0  0  0  0  0  0  0  0  0
   41.4940   27.6310   33.7700 O   0  0  0  0  0  0  0  0  0  0  0  0
   39.4900   26.7550   34.2810 N   0  0  0  0  0  0  0  0  0  0  0  0
   38.6680   25.6870   34.1290 C   0  0  0  0  0  0  0  0  0  0  0  0
   37.5520   25.7550   34.6950 O   0  0  0  0  0  0  0  0  0  0  0  0
   40.5530   23.6830   32.2170 H   0  0  0  0  0  0  0  0  0  0  0  0
   42.1290   25.6190   32.4500 H   0  0  0  0  0  0  0  0  0  0  0  0
   39.2780   27.6100   34.8150 H   0  0  0  0  0  0  0  0  0  0  0  0
   38.6130   23.0350   36.7660 C   0  0  0  0  0  0  0  0  0  0  0  0
   38.9640   22.5700   35.4970 C   0  0  0  0  0  0  0  0  0  0  0  0
   40.2370   22.0130   35.3040 C   0  0  0  0  0  0  0  0  0  0  0  0
   40.5970   21.6220   34.3520 H   0  0  0  0  0  0  0  0  0  0  0  0
   41.1370   21.9180   36.3420 C   0  0  0  0  0  3  0  0  0  0  0  0
   40.7840   22.3740   37.5750 C   0  0  0  0  0  3  0  0  0  0  0  0
   39.5230   22.9320   37.7870 C   0  0  0  0  0  0  0  0  0  0  0  0
   37.3330   23.5890   36.9240 O   0  0  0  0  0  0  0  0  0  0  0  0
   37.2600   24.5980   36.7500 H   0  0  0  0  0  0  0  0  0  0  0  0
   39.1790   23.3910   39.0550 O   0  0  0  0  0  0  0  0  0  0  0  0
   38.2000   23.4890   39.2830 H   0  0  0  0  0  0  0  0  0  0  0  0
  1 21  1  0  0  0  0
  2  9  1  0  0  0  0
  2  1  2  0  0  0  0
  3  4  2  0  0  0  0
  3  2  1  0  0  0  0
  4  5  1  0  0  0  0
  5  6  2  0  0  0  0
  6  1  1  0  0  0  0
  7  3  1  0  0  0  0
  8  5  1  0  0  0  0
  9 15  1  0  0  0  0
 10 11  2  0  0  0  0
 10  9  1  0  0  0  0
 11 12  1  0  0  0  0
 12 13  2  0  0  0  0
 12 14  1  0  0  0  0
 14 19  1  0  0  0  0
 15 14  1  0  0  0  0
 15 16  2  0  0  0  0
 17 10  1  0  0  0  0
 18 11  1  0  0  0  0
 20 27  1  0  0  0  0
 20 26  1  0  0  0  0
 21 20  2  0  0  0  0
 22 21  1  0  0  0  0
 22 24  2  0  0  0  0
 23 22  1  0  0  0  0
 24 25  1  0  0  0  0
 25 26  2  0  0  0  0
 26 29  1  0  0  0  0
 28 27  1  0  0  0  0
 29 30  1  0  0  0  0
M  END
>  <minimizedAffinity>
-5.28640413

$$$$

 OpenBabel03272507513D

 30 32  0  0  0  0  0  0  0  0999 V2000
   38.8120   23.5550   34.2220 C   0  0  0  0  0  0  0  0  0  0  0  0
   40.0700   23.6430   33.6100 C   0  0  0  0  0  0  0  0  0  0  0  0
   40.1520   23.2780   32.2520 C   0  0  0  0  0  0  0  0  0  0  0  0
   39.0120   22.8700   31.6310 N   0  0  0  0  0  0  0  0  0  0  0  0
   37.8300   22.7980   32.2450 C   0  0  0  0  0  0  0  0  0  0  0  0
   37.7180   23.1410   33.5460 N   0  0  0  0  0  0  0  0  0  0  0  0
   41.1400   23.3710   31.8620 H   0  0  0  0  0  0  0  0  0  0  0  0
   37.1150   22.4490   31.5180 H   0  0  0  0  0  0  0  0  0  0  0  0
   41.1780   24.1000   34.3890 N   0  0  0  0  0  0  0  0  0  0  0  0
   41.9030   23.2560   35.1320 C   0  0  0  0  0  0  0  0  0  0  0  0
   42.9850   23.7460   35.8880 C   0  0  0  0  0  0  0  0  0  0  0  0
   43.1700   25.1140   35.7570 C   0  0  0  0  0  0  0  0  0  0  0  0
   44.1480   25.5470   36.4390 O   0  0  0  0  0  0  0  0  0  0  0  0
   42.4560   25.9650   35.0220 N   0  0  0  0  0  0  0  0  0  0  0  0
   41.4290   25.4240   34.3210 C   0  0  0  0  0  0  0  0  0  0  0  0
   40.7490   26.2140   33.6250 O   0  0  0  0  0  0  0  0  0  0  0  0
   41.6860   22.1950   35.1780 H   0  0  0  0  0  0  0  0  0  0  0  0
   43.6040   23.1200   36.5040 H   0  0  0  0  0  0  0  0  0  0  0  0
   42.7250   26.9600   35.0320 H   0  0  0  0  0  0  0  0  0  0  0  0
   38.5850   22.9730   36.6730 C   0  0  0  0  0  0  0  0  0  0  0  0
   38.5190   23.8800   35.6130 C   0  0  0  0  0  0  0  0  0  0  0  0
   38.1700   25.2120   35.8780 C   0  0  0  0  0  0  0  0  0  0  0  0
   38.0950   25.9890   35.1160 H   0  0  0  0  0  0  0  0  0  0  0  0
   37.8960   25.6350   37.1590 C   0  0  0  0  0  3  0  0  0  0  0  0
   37.9640   24.7430   38.1850 C   0  0  0  0  0  3  0  0  0  0  0  0
   38.3090   23.4130   37.9420 C   0  0  0  0  0  0  0  0  0  0  0  0
   38.9350   21.6470   36.3720 O   0  0  0  0  0  0  0  0  0  0  0  0
   38.1530   21.0210   36.1450 H   0  0  0  0  0  0  0  0  0  0  0  0
   38.3760   22.5150   39.0040 O   0  0  0  0  0  0  0  0  0  0  0  0
   38.9190   21.6720   38.8880 H   0  0  0  0  0  0  0  0  0  0  0  0
  1 21  1  0  0  0  0
  2  1  1  0  0  0  0
  2  9  1  0  0  0  0
  3  2  2  0  0  0  0
  4  5  2  0  0  0  0
  4  3  1  0  0  0  0
  5  6  1  0  0  0  0
  6  1  2  0  0  0  0
  7  3  1  0  0  0  0
  8  5  1  0  0  0  0
  9 10  1  0  0  0  0
 10 17  1  0  0  0  0
 10 11  2  0  0  0  0
 11 18  1  0  0  0  0
 12 11  1  0  0  0  0
 12 13  2  0  0  0  0
 14 19  1  0  0  0  0
 14 12  1  0  0  0  0
 15  9  1  0  0  0  0
 15 14  1  0  0  0  0
 16 15  2  0  0  0  0
 20 26  1  0  0  0  0
 21 22  1  0  0  0  0
 21 20  2  0  0  0  0
 22 24  2  0  0  0  0
 23 22  1  0  0  0  0
 24 25  1  0  0  0  0
 26 25  2  0  0  0  0
 26 29  1  0  0  0  0
 27 20  1  0  0  0  0
 28 27  1  0  0  0  0
 30 29  1  0  0  0  0
M  END
>  <minimizedAffinity>
-5.27261782

$$$$

 OpenBabel03272507513D

 30 32  0  0  0  0  0  0  0  0999 V2000
   40.3410   25.2860   34.7540 C   0  0  0  0  0  0  0  0  0  0  0  0
   40.4420   23.9840   35.2650 C   0  0  0  0  0  0  0  0  0  0  0  0
   41.7180   23.5510   35.6750 C   0  0  0  0  0  0  0  0  0  0  0  0
   42.7580   24.4210   35.5480 N   0  0  0  0  0  0  0  0  0  0  0  0
   42.6260   25.6530   35.0570 C   0  0  0  0  0  0  0  0  0  0  0  0
   41.4170   26.0990   34.6560 N   0  0  0  0  0  0  0  0  0  0  0  0
   41.7110   22.5530   36.0490 H   0  0  0  0  0  0  0  0  0  0  0  0
   43.6020   26.1100   35.0760 H   0  0  0  0  0  0  0  0  0  0  0  0
   39.2580   23.1890   35.3470 N   0  0  0  0  0  0  0  0  0  0  0  0
   38.8610   22.4220   34.3250 C   0  0  0  0  0  0  0  0  0  0  0  0
   37.6870   21.6560   34.4420 C   0  0  0  0  0  0  0  0  0  0  0  0
   37.0590   21.8010   35.6710 C   0  0  0  0  0  0  0  0  0  0  0  0
   36.0030   21.1050   35.7710 O   0  0  0  0  0  0  0  0  0  0  0  0
   37.4410   22.5610   36.6960 N   0  0  0  0  0  0  0  0  0  0  0  0
   38.5810   23.2720   36.5110 C   0  0  0  0  0  0  0  0  0  0  0  0
   38.9520   23.9910   37.4680 O   0  0  0  0  0  0  0  0  0  0  0  0
   39.4140   22.3690   33.3940 H   0  0  0  0  0  0  0  0  0  0  0  0
   37.3160   21.0210   33.6580 H   0  0  0  0  0  0  0  0  0  0  0  0
   36.8600   22.5580   37.5470 H   0  0  0  0  0  0  0  0  0  0  0  0
   38.4470   26.9530   34.9270 C   0  0  0  0  0  0  0  0  0  0  0  0
   39.1180   25.9170   34.2730 C   0  0  0  0  0  0  0  0  0  0  0  0
   38.6150   25.4450   33.0520 C   0  0  0  0  0  0  0  0  0  0  0  0
   39.0720   24.6440   32.4700 H   0  0  0  0  0  0  0  0  0  0  0  0
   37.4780   25.9850   32.4940 C   0  0  0  0  0  3  0  0  0  0  0  0
   36.8320   26.9950   33.1390 C   0  0  0  0  0  3  0  0  0  0  0  0
   37.3170   27.4780   34.3550 C   0  0  0  0  0  0  0  0  0  0  0  0
   38.9760   27.4000   36.1480 O   0  0  0  0  0  0  0  0  0  0  0  0
   38.6340   26.9150   36.9860 H   0  0  0  0  0  0  0  0  0  0  0  0
   36.6450   28.5130   35.0000 O   0  0  0  0  0  0  0  0  0  0  0  0
   37.1480   29.0640   35.6800 H   0  0  0  0  0  0  0  0  0  0  0  0
  1  2  1  0  0  0  0
  2  9  1  0  0  0  0
  2  3  2  0  0  0  0
  3  7  1  0  0  0  0
  4  3  1  0  0  0  0
  5  8  1  0  0  0  0
  5  4  2  0  0  0  0
  6  1  2  0  0  0  0
  6  5  1  0  0  0  0
  9 15  1  0  0  0  0
 10 11  2  0  0  0  0
 10  9  1  0  0  0  0
 11 12  1  0  0  0  0
 12 13  2  0  0  0  0
 12 14  1  0  0  0  0
 14 19  1  0  0  0  0
 15 14  1  0  0  0  0
 15 16  2  0  0  0  0
 17 10  1  0  0  0  0
 18 11  1  0  0  0  0
 20 27  1  0  0  0  0
 21  1  1  0  0  0  0
 21 20  2  0  0  0  0
 22 21  1  0  0  0  0
 23 22  1  0  0  0  0
 24 22  2  0  0  0  0
 24 25  1  0  0  0  0
 25 26  2  0  0  0  0
 26 20  1  0  0  0  0
 26 29  1  0  0  0  0
 27 28  1  0  0  0  0
 29 30  1  0  0  0  0
M  END
>  <minimizedAffinity>
-5.26818228

$$$$

 OpenBabel03272507513D

 30 32  0  0  0  0  0  0  0  0999 V2000
   40.6450   25.6270   34.7270 C   0  0  0  0  0  0  0  0  0  0  0  0
   40.7820   24.3090   35.1870 C   0  0  0  0  0  0  0  0  0  0  0  0
   42.0910   23.8170   35.3490 C   0  0  0  0  0  0  0  0  0  0  0  0
   43.1270   24.6490   35.0520 N   0  0  0  0  0  0  0  0  0  0  0  0
   42.9600   25.8980   34.6170 C   0  0  0  0  0  0  0  0  0  0  0  0
   41.7180   26.4000   34.4510 N   0  0  0  0  0  0  0  0  0  0  0  0
   42.1090   22.8100   35.6990 H   0  0  0  0  0  0  0  0  0  0  0  0
   43.9420   26.3160   34.4660 H   0  0  0  0  0  0  0  0  0  0  0  0
   39.5990   23.5580   35.4680 N   0  0  0  0  0  0  0  0  0  0  0  0
   38.9920   23.6320   36.6580 C   0  0  0  0  0  0  0  0  0  0  0  0
   37.8310   22.8740   36.8970 C   0  0  0  0  0  0  0  0  0  0  0  0
   37.4430   22.1070   35.8080 C   0  0  0  0  0  0  0  0  0  0  0  0
   36.3940   21.4300   36.0300 O   0  0  0  0  0  0  0  0  0  0  0  0
   38.0370   22.0230   34.6190 N   0  0  0  0  0  0  0  0  0  0  0  0
   39.1510   22.7800   34.4610 C   0  0  0  0  0  0  0  0  0  0  0  0
   39.7200   22.7100   33.3460 O   0  0  0  0  0  0  0  0  0  0  0  0
   39.3670   24.2590   37.4590 H   0  0  0  0  0  0  0  0  0  0  0  0
   37.2990   22.8900   37.8310 H   0  0  0  0  0  0  0  0  0  0  0  0
   37.6200   21.4030   33.9100 H   0  0  0  0  0  0  0  0  0  0  0  0
   38.6590   26.2640   33.2970 C   0  0  0  0  0  0  0  0  0  0  0  0
   39.3830   26.3170   34.4900 C   0  0  0  0  0  0  0  0  0  0  0  0
   38.8730   27.0630   35.5630 C   0  0  0  0  0  0  0  0  0  0  0  0
   39.3670   27.1600   36.5310 H   0  0  0  0  0  0  0  0  0  0  0  0
   37.6770   27.7360   35.4570 C   0  0  0  0  0  3  0  0  0  0  0  0
   36.9780   27.6770   34.2900 C   0  0  0  0  0  3  0  0  0  0  0  0
   37.4690   26.9410   33.2110 C   0  0  0  0  0  0  0  0  0  0  0  0
   39.1990   25.5110   32.2430 O   0  0  0  0  0  0  0  0  0  0  0  0
   39.8260   26.0190   31.6090 H   0  0  0  0  0  0  0  0  0  0  0  0
   36.7400   26.8890   32.0270 O   0  0  0  0  0  0  0  0  0  0  0  0
   36.9160   26.1290   31.3860 H   0  0  0  0  0  0  0  0  0  0  0  0
  1  2  1  0  0  0  0
  2  3  2  0  0  0  0
  2  9  1  0  0  0  0
  3  7  1  0  0  0  0
  4  3  1  0  0  0  0
  5  4  2  0  0  0  0
  6  5  1  0  0  0  0
  6  1  2  0  0  0  0
  8  5  1  0  0  0  0
  9 10  1  0  0  0  0
 10 11  2  0  0  0  0
 10 17  1  0  0  0  0
 11 18  1  0  0  0  0
 12 13  2  0  0  0  0
 12 11  1  0  0  0  0
 14 12  1  0  0  0  0
 15 14  1  0  0  0  0
 15  9  1  0  0  0  0
 16 15  2  0  0  0  0
 19 14  1  0  0  0  0
 20 21  1  0  0  0  0
 21  1  1  0  0  0  0
 21 22  2  0  0  0  0
 22 23  1  0  0  0  0
 24 22  1  0  0  0  0
 25 24  2  0  0  0  0
 26 20  2  0  0  0  0
 26 25  1  0  0  0  0
 27 20  1  0  0  0  0
 28 27  1  0  0  0  0
 29 26  1  0  0  0  0
 30 29  1  0  0  0  0
M  END
>  <minimizedAffinity>
-5.2609477

$$$$

 OpenBabel03272507513D

 30 32  0  0  0  0  0  0  0  0999 V2000
   40.2240   26.9440   32.9580 C   0  0  0  0  0  0  0  0  0  0  0  0
   39.6530   27.1490   31.6930 C   0  0  0  0  0  0  0  0  0  0  0  0
   40.4700   27.7340   30.7060 C   0  0  0  0  0  0  0  0  0  0  0  0
   41.7480   28.0570   31.0450 N   0  0  0  0  0  0  0  0  0  0  0  0
   42.2590   27.8470   32.2590 C   0  0  0  0  0  0  0  0  0  0  0  0
   41.5030   27.2880   33.2270 N   0  0  0  0  0  0  0  0  0  0  0  0
   39.9630   27.8570   29.7760 H   0  0  0  0  0  0  0  0  0  0  0  0
   43.2790   28.1940   32.2390 H   0  0  0  0  0  0  0  0  0  0  0  0
   38.2980   26.7490   31.4830 N   0  0  0  0  0  0  0  0  0  0  0  0
   37.2780   27.5710   31.7550 C   0  0  0  0  0  0  0  0  0  0  0  0
   35.9560   27.1390   31.5380 C   0  0  0  0  0  0  0  0  0  0  0  0
   35.8780   25.8460   31.0400 C   0  0  0  0  0  0  0  0  0  0  0  0
   34.6830   25.4650   30.8430 O   0  0  0  0  0  0  0  0  0  0  0  0
   36.8830   25.0170   30.7650 N   0  0  0  0  0  0  0  0  0  0  0  0
   38.1280   25.5000   31.0000 C   0  0  0  0  0  0  0  0  0  0  0  0
   39.0840   24.7300   30.7460 O   0  0  0  0  0  0  0  0  0  0  0  0
   37.4300   28.5700   32.1460 H   0  0  0  0  0  0  0  0  0  0  0  0
   35.0960   27.7510   31.7370 H   0  0  0  0  0  0  0  0  0  0  0  0
   36.6550   24.0820   30.3980 H   0  0  0  0  0  0  0  0  0  0  0  0
   39.5020   24.9950   34.3990 C   0  0  0  0  0  0  0  0  0  0  0  0
   39.5480   26.3600   34.1100 C   0  0  0  0  0  0  0  0  0  0  0  0
   38.9260   27.2620   34.9870 C   0  0  0  0  0  0  0  0  0  0  0  0
   38.9120   28.3430   34.8450 H   0  0  0  0  0  0  0  0  0  0  0  0
   38.2780   26.8220   36.1190 C   0  0  0  0  0  3  0  0  0  0  0  0
   38.2410   25.4890   36.3910 C   0  0  0  0  0  3  0  0  0  0  0  0
   38.8520   24.5760   35.5310 C   0  0  0  0  0  0  0  0  0  0  0  0
   40.1310   24.1200   33.4990 O   0  0  0  0  0  0  0  0  0  0  0  0
   39.5460   23.7750   32.7290 H   0  0  0  0  0  0  0  0  0  0  0  0
   38.8050   23.2160   35.8270 O   0  0  0  0  0  0  0  0  0  0  0  0
   39.4930   22.6080   35.4070 H   0  0  0  0  0  0  0  0  0  0  0  0
  1  6  1  0  0  0  0
  1 21  1  0  0  0  0
  2  1  2  0  0  0  0
  3  4  2  0  0  0  0
  3  2  1  0  0  0  0
  4  5  1  0  0  0  0
  5  6  2  0  0  0  0
  7  3  1  0  0  0  0
  8  5  1  0  0  0  0
  9  2  1  0  0  0  0
  9 10  1  0  0  0  0
 10 17  1  0  0  0  0
 11 18  1  0  0  0  0
 11 10  2  0  0  0  0
 12 11  1  0  0  0  0
 13 12  2  0  0  0  0
 14 15  1  0  0  0  0
 14 12  1  0  0  0  0
 15  9  1  0  0  0  0
 16 15  2  0  0  0  0
 19 14  1  0  0  0  0
 20 26  1  0  0  0  0
 21 20  2  0  0  0  0
 21 22  1  0  0  0  0
 22 24  2  0  0  0  0
 23 22  1  0  0  0  0
 24 25  1  0  0  0  0
 26 29  1  0  0  0  0
 26 25  2  0  0  0  0
 27 20  1  0  0  0  0
 28 27  1  0  0  0  0
 30 29  1  0  0  0  0
M  END
>  <minimizedAffinity>
-5.20408916

$$$$
