
 OpenBabel03272508293D

 40 43  0  0  1  0  0  0  0  0999 V2000
   37.1130   25.4790   33.0260 C   0  0  2  0  0  0  0  0  0  0  0  0
   37.6570   26.8660   32.7020 C   0  0  2  0  0  0  0  0  0  0  0  0
   38.4000   27.2260   33.7930 O   0  0  0  0  0  0  0  0  0  0  0  0
   38.8230   26.1280   34.4770 C   0  0  0  0  0  0  0  0  0  0  0  0
   38.3420   24.8980   33.7340 C   0  0  1  0  0  0  0  0  0  0  0  0
   36.2810   25.5120   33.7430 H   0  0  0  0  0  0  0  0  0  0  0  0
   38.2990   26.7710   31.8150 H   0  0  0  0  0  0  0  0  0  0  0  0
   39.9330   26.0890   34.4870 H   0  0  0  0  0  0  0  0  0  0  0  0
   38.4080   26.0490   35.5100 H   0  0  0  0  0  0  0  0  0  0  0  0
   39.1000   24.6220   32.9860 H   0  0  0  0  0  0  0  0  0  0  0  0
   36.1930   28.9030   33.3490 C   0  0  1  0  0  0  0  0  0  0  0  0
   36.4760   27.7640   32.5060 C   0  0  1  0  0  0  0  0  0  0  0  0
   36.6140   29.1160   31.8860 C   0  0  0  0  0  0  0  0  0  0  0  0
   36.8770   29.4390   34.0320 H   0  0  0  0  0  0  0  0  0  0  0  0
   35.5720   27.1840   32.1620 H   0  0  0  0  0  0  0  0  0  0  0  0
   35.8360   29.4500   31.1580 H   0  0  0  0  0  0  0  0  0  0  0  0
   37.5870   29.5610   31.6850 H   0  0  0  0  0  0  0  0  0  0  0  0
   34.7630   29.3580   33.5910 C   0  0  0  0  0  0  0  0  0  0  0  0
   34.5300   30.1880   34.6910 C   0  0  0  0  0  0  0  0  0  0  0  0
   33.2170   30.5640   34.8840 C   0  0  0  0  0  0  0  0  0  0  0  0
   32.2280   30.1310   34.0350 N   0  0  0  0  0  0  0  0  0  0  0  0
   32.4980   29.3250   32.9810 C   0  0  0  0  0  0  0  0  0  0  0  0
   33.7790   28.9340   32.7570 N   0  0  0  0  0  0  0  0  0  0  0  0
   35.3510   30.4930   35.3190 H   0  0  0  0  0  0  0  0  0  0  0  0
   32.9910   31.2120   35.7280 H   0  0  0  0  0  0  0  0  0  0  0  0
   31.6890   29.0080   32.3380 H   0  0  0  0  0  0  0  0  0  0  0  0
   36.7730   24.7380   31.9170 O   0  0  0  0  0  0  0  0  0  0  0  0
   37.5330   24.5670   31.3310 H   0  0  0  0  0  0  0  0  0  0  0  0
   38.0190   23.8520   34.5460 O   0  0  0  0  0  0  0  0  0  0  0  0
   39.2170   22.8840   36.2260 C   0  0  0  0  0  0  0  0  0  0  0  0
   38.2130   23.8020   35.8930 C   0  0  0  0  0  0  0  0  0  0  0  0
   37.6130   24.4700   36.9360 C   0  0  0  0  0  0  0  0  0  0  0  0
   36.8550   25.1560   36.6040 H   0  0  0  0  0  0  0  0  0  0  0  0
   37.9770   24.2540   38.2370 C   0  0  0  0  0  3  0  0  0  0  0  0
   38.9640   23.3520   38.5650 C   0  0  0  0  0  3  0  0  0  0  0  0
   39.5890   22.6610   37.5480 C   0  0  0  0  0  0  0  0  0  0  0  0
   39.9400   22.1120   35.3250 O   0  0  0  0  0  0  0  0  0  0  0  0
   39.5110   21.2640   34.9660 H   0  0  0  0  0  0  0  0  0  0  0  0
   40.5680   21.7720   37.9350 O   0  0  0  0  0  0  0  0  0  0  0  0
   41.4490   21.6530   37.4230 H   0  0  0  0  0  0  0  0  0  0  0  0
  1  5  1  0  0  0  0
  1  6  1  1  0  0  0
  2  7  1  6  0  0  0
  2  1  1  0  0  0  0
  2  3  1  0  0  0  0
  3  4  1  0  0  0  0
  4  8  1  0  0  0  0
  4  9  1  0  0  0  0
  5 10  1  6  0  0  0
  5  4  1  0  0  0  0
  5 29  1  0  0  0  0
 11 18  1  0  0  0  0
 11 14  1  1  0  0  0
 12 15  1  6  0  0  0
 12  2  1  0  0  0  0
 12 11  1  0  0  0  0
 13 12  1  0  0  0  0
 13 11  1  0  0  0  0
 16 13  1  0  0  0  0
 17 13  1  0  0  0  0
 18 19  1  0  0  0  0
 19 20  2  0  0  0  0
 19 24  1  0  0  0  0
 20 25  1  0  0  0  0
 21 20  1  0  0  0  0
 22 21  2  0  0  0  0
 23 22  1  0  0  0  0
 23 18  2  0  0  0  0
 26 22  1  0  0  0  0
 27  1  1  0  0  0  0
 28 27  1  0  0  0  0
 29 31  1  0  0  0  0
 30 36  1  0  0  0  0
 31 30  2  0  0  0  0
 31 32  1  0  0  0  0
 32 34  2  0  0  0  0
 33 32  1  0  0  0  0
 34 35  1  0  0  0  0
 36 39  1  0  0  0  0
 36 35  2  0  0  0  0
 37 30  1  0  0  0  0
 38 37  1  0  0  0  0
 40 39  1  0  0  0  0
M  END
>  <minimizedAffinity>
-6.16837788

$$$$

 OpenBabel03272508293D

 40 43  0  0  1  0  0  0  0  0999 V2000
   37.0860   26.5660   33.8670 C   0  0  2  0  0  0  0  0  0  0  0  0
   37.2400   28.0550   34.1530 C   0  0  2  0  0  0  0  0  0  0  0  0
   37.7370   28.1280   35.4260 O   0  0  0  0  0  0  0  0  0  0  0  0
   38.3870   26.9790   35.7610 C   0  0  0  0  0  0  0  0  0  0  0  0
   38.3530   26.0540   34.5610 C   0  0  1  0  0  0  0  0  0  0  0  0
   36.2130   26.1300   34.3710 H   0  0  0  0  0  0  0  0  0  0  0  0
   37.9670   28.4580   33.4340 H   0  0  0  0  0  0  0  0  0  0  0  0
   39.4540   27.1950   35.9770 H   0  0  0  0  0  0  0  0  0  0  0  0
   37.9110   26.4170   36.6000 H   0  0  0  0  0  0  0  0  0  0  0  0
   39.2290   26.2680   33.9310 H   0  0  0  0  0  0  0  0  0  0  0  0
   35.5550   29.9850   34.5360 C   0  0  1  0  0  0  0  0  0  0  0  0
   35.8770   28.6640   34.0480 C   0  0  1  0  0  0  0  0  0  0  0  0
   35.5620   29.7050   33.0250 C   0  0  0  0  0  0  0  0  0  0  0  0
   36.2430   30.8140   34.7810 H   0  0  0  0  0  0  0  0  0  0  0  0
   35.0690   27.8890   34.1880 H   0  0  0  0  0  0  0  0  0  0  0  0
   34.5800   29.6520   32.4950 H   0  0  0  0  0  0  0  0  0  0  0  0
   36.3350   30.1660   32.4150 H   0  0  0  0  0  0  0  0  0  0  0  0
   34.1580   30.3110   35.0380 C   0  0  0  0  0  0  0  0  0  0  0  0
   33.9270   31.6110   35.4960 C   0  0  0  0  0  0  0  0  0  0  0  0
   32.6510   31.8600   35.9580 C   0  0  0  0  0  0  0  0  0  0  0  0
   31.6950   30.8730   35.9580 N   0  0  0  0  0  0  0  0  0  0  0  0
   31.9640   29.6250   35.5060 C   0  0  0  0  0  0  0  0  0  0  0  0
   33.2070   29.3410   35.0410 N   0  0  0  0  0  0  0  0  0  0  0  0
   34.7190   32.3410   35.4690 H   0  0  0  0  0  0  0  0  0  0  0  0
   32.4270   32.8610   36.3220 H   0  0  0  0  0  0  0  0  0  0  0  0
   31.1820   28.8780   35.5240 H   0  0  0  0  0  0  0  0  0  0  0  0
   37.0840   26.2510   32.5270 O   0  0  0  0  0  0  0  0  0  0  0  0
   37.9150   26.4960   32.0810 H   0  0  0  0  0  0  0  0  0  0  0  0
   38.2640   24.7340   34.8830 O   0  0  0  0  0  0  0  0  0  0  0  0
   38.5430   23.6720   36.8810 C   0  0  0  0  0  0  0  0  0  0  0  0
   39.1380   24.0460   35.6700 C   0  0  0  0  0  0  0  0  0  0  0  0
   40.4510   23.6760   35.4840 C   0  0  0  0  0  0  0  0  0  0  0  0
   40.8390   23.9970   34.5350 H   0  0  0  0  0  0  0  0  0  0  0  0
   41.1450   22.9750   36.4320 C   0  0  0  0  0  3  0  0  0  0  0  0
   40.5610   22.6060   37.6220 C   0  0  0  0  0  3  0  0  0  0  0  0
   39.2450   22.9590   37.8470 C   0  0  0  0  0  0  0  0  0  0  0  0
   37.2350   23.9490   37.2600 O   0  0  0  0  0  0  0  0  0  0  0  0
   37.0270   24.8710   37.6310 H   0  0  0  0  0  0  0  0  0  0  0  0
   38.7130   22.5640   39.0550 O   0  0  0  0  0  0  0  0  0  0  0  0
   37.7560   22.2080   39.1530 H   0  0  0  0  0  0  0  0  0  0  0  0
  1  2  1  0  0  0  0
  1  6  1  1  0  0  0
  1  5  1  0  0  0  0
  2  7  1  6  0  0  0
  2  3  1  0  0  0  0
  3  4  1  0  0  0  0
  4  8  1  0  0  0  0
  4  9  1  0  0  0  0
  5 10  1  6  0  0  0
  5 29  1  0  0  0  0
  5  4  1  0  0  0  0
 11 14  1  1  0  0  0
 11 18  1  0  0  0  0
 12  2  1  0  0  0  0
 12 15  1  1  0  0  0
 12 11  1  0  0  0  0
 13 12  1  0  0  0  0
 13 11  1  0  0  0  0
 16 13  1  0  0  0  0
 17 13  1  0  0  0  0
 18 23  2  0  0  0  0
 18 19  1  0  0  0  0
 19 20  2  0  0  0  0
 20 25  1  0  0  0  0
 21 20  1  0  0  0  0
 22 26  1  0  0  0  0
 22 21  2  0  0  0  0
 23 22  1  0  0  0  0
 24 19  1  0  0  0  0
 27  1  1  0  0  0  0
 28 27  1  0  0  0  0
 29 31  1  0  0  0  0
 30 37  1  0  0  0  0
 30 36  1  0  0  0  0
 31 30  2  0  0  0  0
 32 31  1  0  0  0  0
 32 34  2  0  0  0  0
 33 32  1  0  0  0  0
 34 35  1  0  0  0  0
 35 36  2  0  0  0  0
 36 39  1  0  0  0  0
 37 38  1  0  0  0  0
 39 40  1  0  0  0  0
M  END
>  <minimizedAffinity>
-5.93530178

$$$$

 OpenBabel03272508293D

 40 43  0  0  1  0  0  0  0  0999 V2000
   37.9390   26.6790   33.6850 C   0  0  2  0  0  0  0  0  0  0  0  0
   37.0050   26.8090   32.4880 C   0  0  2  0  0  0  0  0  0  0  0  0
   37.1300   25.6320   31.8020 O   0  0  0  0  0  0  0  0  0  0  0  0
   37.5600   24.6340   32.6230 C   0  0  0  0  0  0  0  0  0  0  0  0
   37.6950   25.2030   34.0210 C   0  0  1  0  0  0  0  0  0  0  0  0
   38.9950   26.8020   33.4090 H   0  0  0  0  0  0  0  0  0  0  0  0
   35.9820   26.9200   32.8760 H   0  0  0  0  0  0  0  0  0  0  0  0
   36.7990   23.8270   32.6720 H   0  0  0  0  0  0  0  0  0  0  0  0
   38.5630   24.2260   32.3550 H   0  0  0  0  0  0  0  0  0  0  0  0
   36.7280   25.0980   34.5360 H   0  0  0  0  0  0  0  0  0  0  0  0
   37.1880   28.1570   30.2830 C   0  0  1  0  0  0  0  0  0  0  0  0
   37.4830   27.9790   31.6860 C   0  0  1  0  0  0  0  0  0  0  0  0
   36.5710   29.1050   31.3240 C   0  0  0  0  0  0  0  0  0  0  0  0
   36.3970   27.6750   29.6800 H   0  0  0  0  0  0  0  0  0  0  0  0
   38.5160   28.3000   32.0050 H   0  0  0  0  0  0  0  0  0  0  0  0
   36.9640   30.1490   31.3830 H   0  0  0  0  0  0  0  0  0  0  0  0
   35.4980   29.0570   31.4990 H   0  0  0  0  0  0  0  0  0  0  0  0
   38.1590   28.8860   29.3690 C   0  0  0  0  0  0  0  0  0  0  0  0
   39.5230   28.7560   29.6440 C   0  0  0  0  0  0  0  0  0  0  0  0
   40.3680   29.4470   28.8000 C   0  0  0  0  0  0  0  0  0  0  0  0
   39.8690   30.2060   27.7700 N   0  0  0  0  0  0  0  0  0  0  0  0
   38.5380   30.3040   27.5390 C   0  0  0  0  0  0  0  0  0  0  0  0
   37.6750   29.6380   28.3470 N   0  0  0  0  0  0  0  0  0  0  0  0
   39.8500   28.1440   30.4690 H   0  0  0  0  0  0  0  0  0  0  0  0
   41.4390   29.3720   28.9790 H   0  0  0  0  0  0  0  0  0  0  0  0
   38.1900   30.9130   26.7160 H   0  0  0  0  0  0  0  0  0  0  0  0
   37.6110   27.4960   34.7430 O   0  0  0  0  0  0  0  0  0  0  0  0
   36.7270   27.3060   35.1060 H   0  0  0  0  0  0  0  0  0  0  0  0
   38.7190   24.6640   34.7400 O   0  0  0  0  0  0  0  0  0  0  0  0
   39.5630   23.2780   36.3410 C   0  0  0  0  0  0  0  0  0  0  0  0
   38.6710   24.3200   36.0570 C   0  0  0  0  0  0  0  0  0  0  0  0
   37.9250   24.8020   37.1090 C   0  0  0  0  0  0  0  0  0  0  0  0
   37.2650   25.5970   36.8160 H   0  0  0  0  0  0  0  0  0  0  0  0
   38.0450   24.2920   38.3730 C   0  0  0  0  0  3  0  0  0  0  0  0
   38.9220   23.2690   38.6530 C   0  0  0  0  0  3  0  0  0  0  0  0
   39.6880   22.7570   37.6250 C   0  0  0  0  0  0  0  0  0  0  0  0
   40.4010   22.6560   35.4240 O   0  0  0  0  0  0  0  0  0  0  0  0
   40.0070   21.9370   34.8240 H   0  0  0  0  0  0  0  0  0  0  0  0
   40.5470   21.7340   37.9630 O   0  0  0  0  0  0  0  0  0  0  0  0
   41.4980   21.6570   37.5880 H   0  0  0  0  0  0  0  0  0  0  0  0
  1  6  1  6  0  0  0
  1  5  1  0  0  0  0
  1 27  1  0  0  0  0
  2  7  1  1  0  0  0
  2  1  1  0  0  0  0
  3  2  1  0  0  0  0
  3  4  1  0  0  0  0
  4  8  1  0  0  0  0
  4  5  1  0  0  0  0
  5 10  1  1  0  0  0
  5 29  1  0  0  0  0
  9  4  1  0  0  0  0
 11 14  1  6  0  0  0
 11 13  1  0  0  0  0
 11 12  1  0  0  0  0
 12 15  1  1  0  0  0
 12  2  1  0  0  0  0
 13 16  1  0  0  0  0
 13 17  1  0  0  0  0
 13 12  1  0  0  0  0
 18 19  1  0  0  0  0
 18 11  1  0  0  0  0
 19 24  1  0  0  0  0
 20 25  1  0  0  0  0
 20 19  2  0  0  0  0
 21 20  1  0  0  0  0
 22 21  2  0  0  0  0
 22 23  1  0  0  0  0
 23 18  2  0  0  0  0
 26 22  1  0  0  0  0
 27 28  1  0  0  0  0
 29 31  1  0  0  0  0
 30 36  1  0  0  0  0
 31 30  2  0  0  0  0
 31 32  1  0  0  0  0
 32 34  2  0  0  0  0
 33 32  1  0  0  0  0
 34 35  1  0  0  0  0
 36 39  1  0  0  0  0
 36 35  2  0  0  0  0
 37 30  1  0  0  0  0
 38 37  1  0  0  0  0
 40 39  1  0  0  0  0
M  END
>  <minimizedAffinity>
-5.81473923

$$$$

 OpenBabel03272508293D

 40 43  0  0  1  0  0  0  0  0999 V2000
   37.2260   25.6730   32.8480 C   0  0  2  0  0  0  0  0  0  0  0  0
   37.7810   26.7380   31.9090 C   0  0  2  0  0  0  0  0  0  0  0  0
   38.6620   27.4620   32.6650 O   0  0  0  0  0  0  0  0  0  0  0  0
   39.1210   26.7260   33.7160 C   0  0  0  0  0  0  0  0  0  0  0  0
   38.5070   25.3440   33.6240 C   0  0  1  0  0  0  0  0  0  0  0  0
   36.4870   26.0790   33.5520 H   0  0  0  0  0  0  0  0  0  0  0  0
   38.3090   26.2200   31.0960 H   0  0  0  0  0  0  0  0  0  0  0  0
   40.2210   26.6000   33.6400 H   0  0  0  0  0  0  0  0  0  0  0  0
   38.8290   27.1300   34.7140 H   0  0  0  0  0  0  0  0  0  0  0  0
   39.1590   24.7120   33.0030 H   0  0  0  0  0  0  0  0  0  0  0  0
   36.5380   28.9950   31.6480 C   0  0  1  0  0  0  0  0  0  0  0  0
   36.6220   27.5660   31.4530 C   0  0  1  0  0  0  0  0  0  0  0  0
   36.7030   28.4220   30.2310 C   0  0  0  0  0  0  0  0  0  0  0  0
   37.3520   29.7070   31.8760 H   0  0  0  0  0  0  0  0  0  0  0  0
   35.6480   27.0070   31.5660 H   0  0  0  0  0  0  0  0  0  0  0  0
   35.8230   28.4550   29.5440 H   0  0  0  0  0  0  0  0  0  0  0  0
   37.6420   28.5920   29.7080 H   0  0  0  0  0  0  0  0  0  0  0  0
   35.1920   29.6810   31.8200 C   0  0  0  0  0  0  0  0  0  0  0  0
   34.2690   29.0800   32.6800 C   0  0  0  0  0  0  0  0  0  0  0  0
   33.0560   29.7260   32.7940 C   0  0  0  0  0  0  0  0  0  0  0  0
   32.8020   30.8790   32.0930 N   0  0  0  0  0  0  0  0  0  0  0  0
   33.7250   31.4270   31.2680 C   0  0  0  0  0  0  0  0  0  0  0  0
   34.9330   30.8220   31.1300 N   0  0  0  0  0  0  0  0  0  0  0  0
   34.5310   28.1750   33.2030 H   0  0  0  0  0  0  0  0  0  0  0  0
   32.3080   29.2920   33.4560 H   0  0  0  0  0  0  0  0  0  0  0  0
   33.4830   32.3360   30.7350 H   0  0  0  0  0  0  0  0  0  0  0  0
   36.7280   24.5630   32.2040 O   0  0  0  0  0  0  0  0  0  0  0  0
   37.4050   24.0940   31.6840 H   0  0  0  0  0  0  0  0  0  0  0  0
   38.2430   24.7750   34.8320 O   0  0  0  0  0  0  0  0  0  0  0  0
   38.5780   23.7350   36.8330 C   0  0  0  0  0  0  0  0  0  0  0  0
   39.1250   24.0620   35.5860 C   0  0  0  0  0  0  0  0  0  0  0  0
   40.4090   23.6300   35.3390 C   0  0  0  0  0  0  0  0  0  0  0  0
   40.7600   23.9170   34.3650 H   0  0  0  0  0  0  0  0  0  0  0  0
   41.1200   22.9140   36.2630 C   0  0  0  0  0  3  0  0  0  0  0  0
   40.5830   22.5910   37.4890 C   0  0  0  0  0  3  0  0  0  0  0  0
   39.2980   23.0080   37.7750 C   0  0  0  0  0  0  0  0  0  0  0  0
   37.3060   24.0770   37.2740 O   0  0  0  0  0  0  0  0  0  0  0  0
   37.1590   25.0130   37.6380 H   0  0  0  0  0  0  0  0  0  0  0  0
   38.8130   22.6570   39.0160 O   0  0  0  0  0  0  0  0  0  0  0  0
   37.8480   22.3460   39.1710 H   0  0  0  0  0  0  0  0  0  0  0  0
  1  6  1  1  0  0  0
  1  5  1  0  0  0  0
  2  7  1  6  0  0  0
  2  3  1  0  0  0  0
  2  1  1  0  0  0  0
  3  4  1  0  0  0  0
  4  9  1  0  0  0  0
  5 10  1  6  0  0  0
  5  4  1  0  0  0  0
  5 29  1  0  0  0  0
  8  4  1  0  0  0  0
 11 18  1  0  0  0  0
 11 14  1  1  0  0  0
 12 15  1  1  0  0  0
 12 11  1  0  0  0  0
 12  2  1  0  0  0  0
 13 12  1  0  0  0  0
 13 11  1  0  0  0  0
 16 13  1  0  0  0  0
 17 13  1  0  0  0  0
 18 19  1  0  0  0  0
 19 20  2  0  0  0  0
 19 24  1  0  0  0  0
 20 25  1  0  0  0  0
 21 20  1  0  0  0  0
 22 21  2  0  0  0  0
 23 22  1  0  0  0  0
 23 18  2  0  0  0  0
 26 22  1  0  0  0  0
 27  1  1  0  0  0  0
 28 27  1  0  0  0  0
 29 31  1  0  0  0  0
 30 37  1  0  0  0  0
 30 36  1  0  0  0  0
 31 30  2  0  0  0  0
 32 31  1  0  0  0  0
 32 34  2  0  0  0  0
 33 32  1  0  0  0  0
 34 35  1  0  0  0  0
 35 36  2  0  0  0  0
 36 39  1  0  0  0  0
 37 38  1  0  0  0  0
 39 40  1  0  0  0  0
M  END
>  <minimizedAffinity>
-5.81244707

$$$$

 OpenBabel03272508293D

 40 43  0  0  1  0  0  0  0  0999 V2000
   37.1260   27.7050   34.6560 C   0  0  2  0  0  0  0  0  0  0  0  0
   38.0650   27.1070   33.6150 C   0  0  2  0  0  0  0  0  0  0  0  0
   37.3070   26.9640   32.4850 O   0  0  0  0  0  0  0  0  0  0  0  0
   36.2540   27.8270   32.4940 C   0  0  0  0  0  0  0  0  0  0  0  0
   36.3450   28.6660   33.7520 C   0  0  1  0  0  0  0  0  0  0  0  0
   36.4240   26.9640   35.0630 H   0  0  0  0  0  0  0  0  0  0  0  0
   38.8750   27.8300   33.4460 H   0  0  0  0  0  0  0  0  0  0  0  0
   36.3250   28.5240   31.6310 H   0  0  0  0  0  0  0  0  0  0  0  0
   35.2580   27.3260   32.5260 H   0  0  0  0  0  0  0  0  0  0  0  0
   36.9620   29.5520   33.5380 H   0  0  0  0  0  0  0  0  0  0  0  0
   37.8960   25.1140   35.2610 C   0  0  1  0  0  0  0  0  0  0  0  0
   38.5270   25.7880   34.1500 C   0  0  1  0  0  0  0  0  0  0  0  0
   37.7990   24.5200   33.8460 C   0  0  0  0  0  0  0  0  0  0  0  0
   36.8880   25.2790   35.6830 H   0  0  0  0  0  0  0  0  0  0  0  0
   39.6510   25.7000   34.1110 H   0  0  0  0  0  0  0  0  0  0  0  0
   38.3960   23.6040   33.6180 H   0  0  0  0  0  0  0  0  0  0  0  0
   36.8310   24.5170   33.3500 H   0  0  0  0  0  0  0  0  0  0  0  0
   38.7000   24.2180   36.1890 C   0  0  0  0  0  0  0  0  0  0  0  0
   38.1690   23.9630   37.4560 C   0  0  0  0  0  0  0  0  0  0  0  0
   38.9380   23.1600   38.2720 C   0  0  0  0  0  0  0  0  0  0  0  0
   40.1430   22.6620   37.8390 N   0  0  0  0  0  0  0  0  0  0  0  0
   40.6210   22.9360   36.6010 C   0  0  0  0  0  0  0  0  0  0  0  0
   39.8920   23.7220   35.7680 N   0  0  0  0  0  0  0  0  0  0  0  0
   37.2170   24.3830   37.7360 H   0  0  0  0  0  0  0  0  0  0  0  0
   38.5610   22.9350   39.2680 H   0  0  0  0  0  0  0  0  0  0  0  0
   41.5740   22.5230   36.3010 H   0  0  0  0  0  0  0  0  0  0  0  0
   37.7690   28.3790   35.6700 O   0  0  0  0  0  0  0  0  0  0  0  0
   38.2860   29.1390   35.3480 H   0  0  0  0  0  0  0  0  0  0  0  0
   35.1360   29.0020   34.2820 O   0  0  0  0  0  0  0  0  0  0  0  0
   33.5250   30.1690   35.3950 C   0  0  0  0  0  0  0  0  0  0  0  0
   34.8840   30.0880   35.0640 C   0  0  0  0  0  0  0  0  0  0  0  0
   35.7030   31.0760   35.5600 C   0  0  0  0  0  0  0  0  0  0  0  0
   36.7280   30.9480   35.2660 H   0  0  0  0  0  0  0  0  0  0  0  0
   35.2200   32.0910   36.3400 C   0  0  0  0  0  3  0  0  0  0  0  0
   33.8850   32.1710   36.6670 C   0  0  0  0  0  3  0  0  0  0  0  0
   33.0300   31.1990   36.1880 C   0  0  0  0  0  0  0  0  0  0  0  0
   32.5390   29.2750   34.9950 O   0  0  0  0  0  0  0  0  0  0  0  0
   32.1500   29.3740   34.0630 H   0  0  0  0  0  0  0  0  0  0  0  0
   31.7060   31.3310   36.5450 O   0  0  0  0  0  0  0  0  0  0  0  0
   31.1160   30.5330   36.8060 H   0  0  0  0  0  0  0  0  0  0  0  0
  1  6  1  1  0  0  0
  1 27  1  0  0  0  0
  2  7  1  6  0  0  0
  2 12  1  0  0  0  0
  2  1  1  0  0  0  0
  3  4  1  0  0  0  0
  3  2  1  0  0  0  0
  4  9  1  0  0  0  0
  4  5  1  0  0  0  0
  5 10  1  6  0  0  0
  5 29  1  0  0  0  0
  5  1  1  0  0  0  0
  8  4  1  0  0  0  0
 11 14  1  1  0  0  0
 11 18  1  0  0  0  0
 12 15  1  6  0  0  0
 12 11  1  0  0  0  0
 13 12  1  0  0  0  0
 13 11  1  0  0  0  0
 16 13  1  0  0  0  0
 17 13  1  0  0  0  0
 18 19  1  0  0  0  0
 19 24  1  0  0  0  0
 19 20  2  0  0  0  0
 20 25  1  0  0  0  0
 21 20  1  0  0  0  0
 22 21  2  0  0  0  0
 23 18  2  0  0  0  0
 23 22  1  0  0  0  0
 26 22  1  0  0  0  0
 28 27  1  0  0  0  0
 29 31  1  0  0  0  0
 30 36  1  0  0  0  0
 31 30  2  0  0  0  0
 31 32  1  0  0  0  0
 32 34  2  0  0  0  0
 33 32  1  0  0  0  0
 34 35  1  0  0  0  0
 36 39  1  0  0  0  0
 36 35  2  0  0  0  0
 37 30  1  0  0  0  0
 38 37  1  0  0  0  0
 39 40  1  0  0  0  0
M  END
>  <minimizedAffinity>
-5.71570539

$$$$

 OpenBabel03272508293D

 40 43  0  0  1  0  0  0  0  0999 V2000
   37.3490   26.2360   33.4870 C   0  0  2  0  0  0  0  0  0  0  0  0
   36.6370   25.9350   32.1730 C   0  0  2  0  0  0  0  0  0  0  0  0
   37.3780   24.9520   31.5770 O   0  0  0  0  0  0  0  0  0  0  0  0
   38.0940   24.2540   32.5010 C   0  0  0  0  0  0  0  0  0  0  0  0
   37.7580   24.8090   33.8710 C   0  0  1  0  0  0  0  0  0  0  0  0
   38.2600   26.8310   33.3430 H   0  0  0  0  0  0  0  0  0  0  0  0
   35.6320   25.5620   32.4180 H   0  0  0  0  0  0  0  0  0  0  0  0
   37.7840   23.1880   32.4970 H   0  0  0  0  0  0  0  0  0  0  0  0
   39.2000   24.3530   32.3890 H   0  0  0  0  0  0  0  0  0  0  0  0
   36.8830   24.2690   34.2610 H   0  0  0  0  0  0  0  0  0  0  0  0
   36.9720   28.4920   31.9310 C   0  0  1  0  0  0  0  0  0  0  0  0
   36.6380   27.2010   31.3750 C   0  0  1  0  0  0  0  0  0  0  0  0
   37.9090   27.8310   30.9070 C   0  0  0  0  0  0  0  0  0  0  0  0
   37.5160   28.7180   32.8660 H   0  0  0  0  0  0  0  0  0  0  0  0
   35.8070   27.2060   30.6120 H   0  0  0  0  0  0  0  0  0  0  0  0
   37.9450   28.2550   29.8750 H   0  0  0  0  0  0  0  0  0  0  0  0
   38.8830   27.4810   31.2440 H   0  0  0  0  0  0  0  0  0  0  0  0
   36.3490   29.7630   31.3780 C   0  0  0  0  0  0  0  0  0  0  0  0
   37.1340   30.5480   30.5300 C   0  0  0  0  0  0  0  0  0  0  0  0
   36.5370   31.7010   30.0650 C   0  0  0  0  0  0  0  0  0  0  0  0
   35.2550   32.0290   30.4330 N   0  0  0  0  0  0  0  0  0  0  0  0
   34.5290   31.2390   31.2590 C   0  0  0  0  0  0  0  0  0  0  0  0
   35.0810   30.0950   31.7370 N   0  0  0  0  0  0  0  0  0  0  0  0
   38.1340   30.2350   30.2790 H   0  0  0  0  0  0  0  0  0  0  0  0
   37.1130   32.3420   29.4000 H   0  0  0  0  0  0  0  0  0  0  0  0
   33.5230   31.5350   31.5230 H   0  0  0  0  0  0  0  0  0  0  0  0
   36.5400   26.8020   34.4450 O   0  0  0  0  0  0  0  0  0  0  0  0
   35.7980   26.2250   34.7020 H   0  0  0  0  0  0  0  0  0  0  0  0
   38.8020   24.7920   34.7460 O   0  0  0  0  0  0  0  0  0  0  0  0
   39.6080   23.3470   36.3130 C   0  0  0  0  0  0  0  0  0  0  0  0
   38.7390   24.4130   36.0520 C   0  0  0  0  0  0  0  0  0  0  0  0
   37.9950   24.8810   37.1120 C   0  0  0  0  0  0  0  0  0  0  0  0
   37.3530   25.6970   36.8370 H   0  0  0  0  0  0  0  0  0  0  0  0
   38.0970   24.3350   38.3630 C   0  0  0  0  0  3  0  0  0  0  0  0
   38.9520   23.2870   38.6200 C   0  0  0  0  0  3  0  0  0  0  0  0
   39.7150   22.7890   37.5830 C   0  0  0  0  0  0  0  0  0  0  0  0
   40.4400   22.7340   35.3840 O   0  0  0  0  0  0  0  0  0  0  0  0
   40.0360   22.0390   34.7630 H   0  0  0  0  0  0  0  0  0  0  0  0
   40.5510   21.7400   37.8990 O   0  0  0  0  0  0  0  0  0  0  0  0
   41.5030   21.6550   37.5270 H   0  0  0  0  0  0  0  0  0  0  0  0
  1  6  1  6  0  0  0
  1  5  1  0  0  0  0
  1 27  1  0  0  0  0
  2  7  1  1  0  0  0
  2  1  1  0  0  0  0
  3  2  1  0  0  0  0
  3  4  1  0  0  0  0
  4  5  1  0  0  0  0
  5 10  1  1  0  0  0
  5 29  1  0  0  0  0
  8  4  1  0  0  0  0
  9  4  1  0  0  0  0
 11 14  1  1  0  0  0
 12 15  1  6  0  0  0
 12 11  1  0  0  0  0
 12  2  1  0  0  0  0
 13 17  1  0  0  0  0
 13 12  1  0  0  0  0
 13 11  1  0  0  0  0
 16 13  1  0  0  0  0
 18 23  1  0  0  0  0
 18 11  1  0  0  0  0
 19 18  2  0  0  0  0
 20 21  2  0  0  0  0
 20 19  1  0  0  0  0
 21 22  1  0  0  0  0
 22 26  1  0  0  0  0
 22 23  2  0  0  0  0
 24 19  1  0  0  0  0
 25 20  1  0  0  0  0
 27 28  1  0  0  0  0
 29 31  1  0  0  0  0
 30 36  1  0  0  0  0
 31 30  2  0  0  0  0
 31 32  1  0  0  0  0
 32 34  2  0  0  0  0
 33 32  1  0  0  0  0
 34 35  1  0  0  0  0
 36 39  1  0  0  0  0
 36 35  2  0  0  0  0
 37 30  1  0  0  0  0
 38 37  1  0  0  0  0
 40 39  1  0  0  0  0
M  END
>  <minimizedAffinity>
-5.7096839

$$$$

 OpenBabel03272508293D

 40 43  0  0  1  0  0  0  0  0999 V2000
   37.5450   25.1790   31.3980 C   0  0  2  0  0  0  0  0  0  0  0  0
   36.3180   24.4670   30.8400 C   0  0  2  0  0  0  0  0  0  0  0  0
   35.2710   25.3170   31.0690 O   0  0  0  0  0  0  0  0  0  0  0  0
   35.7060   26.6020   31.1870 C   0  0  0  0  0  0  0  0  0  0  0  0
   37.2060   26.6120   30.9720 C   0  0  1  0  0  0  0  0  0  0  0  0
   37.5880   25.1430   32.4950 H   0  0  0  0  0  0  0  0  0  0  0  0
   36.4750   24.3330   29.7600 H   0  0  0  0  0  0  0  0  0  0  0  0
   35.2570   27.2310   30.3890 H   0  0  0  0  0  0  0  0  0  0  0  0
   35.5340   27.0480   32.1960 H   0  0  0  0  0  0  0  0  0  0  0  0
   37.4030   26.7320   29.8960 H   0  0  0  0  0  0  0  0  0  0  0  0
   37.0220   22.0340   31.3830 C   0  0  1  0  0  0  0  0  0  0  0  0
   36.1750   23.1840   31.5970 C   0  0  1  0  0  0  0  0  0  0  0  0
   37.1120   22.8180   32.7020 C   0  0  0  0  0  0  0  0  0  0  0  0
   38.0100   21.9890   30.8890 H   0  0  0  0  0  0  0  0  0  0  0  0
   35.0920   22.9510   31.8090 H   0  0  0  0  0  0  0  0  0  0  0  0
   36.6910   22.3480   33.6230 H   0  0  0  0  0  0  0  0  0  0  0  0
   38.0140   23.3900   32.9050 H   0  0  0  0  0  0  0  0  0  0  0  0
   36.4950   20.6250   31.6040 C   0  0  0  0  0  0  0  0  0  0  0  0
   35.1500   20.4900   31.9600 C   0  0  0  0  0  0  0  0  0  0  0  0
   34.7180   19.1970   32.1680 C   0  0  0  0  0  0  0  0  0  0  0  0
   35.5780   18.1350   32.0300 N   0  0  0  0  0  0  0  0  0  0  0  0
   36.8750   18.3120   31.6850 C   0  0  0  0  0  0  0  0  0  0  0  0
   37.3390   19.5690   31.4700 N   0  0  0  0  0  0  0  0  0  0  0  0
   34.5270   21.3640   32.0510 H   0  0  0  0  0  0  0  0  0  0  0  0
   33.6760   19.0460   32.4450 H   0  0  0  0  0  0  0  0  0  0  0  0
   37.5180   17.4470   31.5880 H   0  0  0  0  0  0  0  0  0  0  0  0
   38.7350   24.7590   30.8480 O   0  0  0  0  0  0  0  0  0  0  0  0
   38.7830   24.9160   29.8880 H   0  0  0  0  0  0  0  0  0  0  0  0
   37.8660   27.5400   31.7200 O   0  0  0  0  0  0  0  0  0  0  0  0
   39.4710   27.1590   33.2920 C   0  0  0  0  0  0  0  0  0  0  0  0
   38.1220   27.4490   33.0540 C   0  0  0  0  0  0  0  0  0  0  0  0
   37.3130   27.5870   34.1590 C   0  0  0  0  0  0  0  0  0  0  0  0
   36.2950   27.8090   33.8990 H   0  0  0  0  0  0  0  0  0  0  0  0
   37.7990   27.4500   35.4310 C   0  0  0  0  0  3  0  0  0  0  0  0
   39.1240   27.1650   35.6660 C   0  0  0  0  0  3  0  0  0  0  0  0
   39.9680   27.0180   34.5840 C   0  0  0  0  0  0  0  0  0  0  0  0
   40.4460   26.9810   32.3180 O   0  0  0  0  0  0  0  0  0  0  0  0
   40.5020   26.0800   31.8540 H   0  0  0  0  0  0  0  0  0  0  0  0
   41.2840   26.7330   34.8790 O   0  0  0  0  0  0  0  0  0  0  0  0
   42.0720   27.1480   34.3700 H   0  0  0  0  0  0  0  0  0  0  0  0
  1  6  1  1  0  0  0
  2  7  1  6  0  0  0
  2  3  1  0  0  0  0
  2  1  1  0  0  0  0
  2 12  1  0  0  0  0
  3  4  1  0  0  0  0
  4  9  1  0  0  0  0
  5 10  1  6  0  0  0
  5  4  1  0  0  0  0
  5  1  1  0  0  0  0
  5 29  1  0  0  0  0
  8  4  1  0  0  0  0
 11 14  1  6  0  0  0
 11 12  1  0  0  0  0
 11 18  1  0  0  0  0
 11 13  1  0  0  0  0
 12 15  1  1  0  0  0
 12 13  1  0  0  0  0
 13 17  1  0  0  0  0
 13 16  1  0  0  0  0
 18 19  1  0  0  0  0
 19 24  1  0  0  0  0
 19 20  2  0  0  0  0
 20 25  1  0  0  0  0
 21 20  1  0  0  0  0
 22 21  2  0  0  0  0
 23 18  2  0  0  0  0
 23 22  1  0  0  0  0
 26 22  1  0  0  0  0
 27  1  1  0  0  0  0
 28 27  1  0  0  0  0
 29 31  1  0  0  0  0
 30 36  1  0  0  0  0
 31 30  2  0  0  0  0
 31 32  1  0  0  0  0
 32 34  2  0  0  0  0
 33 32  1  0  0  0  0
 34 35  1  0  0  0  0
 36 39  1  0  0  0  0
 36 35  2  0  0  0  0
 37 30  1  0  0  0  0
 38 37  1  0  0  0  0
 40 39  1  0  0  0  0
M  END
>  <minimizedAffinity>
-5.69445467

$$$$

 OpenBabel03272508293D

 40 43  0  0  1  0  0  0  0  0999 V2000
   37.9890   24.0570   33.3810 C   0  0  2  0  0  0  0  0  0  0  0  0
   38.9970   24.8440   34.2110 C   0  0  2  0  0  0  0  0  0  0  0  0
   38.9340   24.3010   35.4650 O   0  0  0  0  0  0  0  0  0  0  0  0
   38.4670   23.0230   35.4190 C   0  0  0  0  0  0  0  0  0  0  0  0
   38.2320   22.6610   33.9670 C   0  0  1  0  0  0  0  0  0  0  0  0
   36.9510   24.3480   33.5950 H   0  0  0  0  0  0  0  0  0  0  0  0
   39.9900   24.6780   33.7700 H   0  0  0  0  0  0  0  0  0  0  0  0
   39.2350   22.3220   35.8100 H   0  0  0  0  0  0  0  0  0  0  0  0
   37.4890   22.8780   35.9370 H   0  0  0  0  0  0  0  0  0  0  0  0
   39.1640   22.2470   33.5540 H   0  0  0  0  0  0  0  0  0  0  0  0
   37.1830   26.6850   34.3850 C   0  0  1  0  0  0  0  0  0  0  0  0
   38.5550   26.2730   34.1950 C   0  0  1  0  0  0  0  0  0  0  0  0
   38.2370   27.0090   35.4560 C   0  0  0  0  0  0  0  0  0  0  0  0
   36.3470   26.1100   34.8240 H   0  0  0  0  0  0  0  0  0  0  0  0
   39.1380   26.8750   33.4390 H   0  0  0  0  0  0  0  0  0  0  0  0
   38.5780   28.0680   35.5550 H   0  0  0  0  0  0  0  0  0  0  0  0
   38.1730   26.5030   36.4170 H   0  0  0  0  0  0  0  0  0  0  0  0
   36.6500   27.9460   33.7260 C   0  0  0  0  0  0  0  0  0  0  0  0
   36.9690   28.1550   32.3820 C   0  0  0  0  0  0  0  0  0  0  0  0
   36.4790   29.3190   31.8280 C   0  0  0  0  0  0  0  0  0  0  0  0
   35.7330   30.1970   32.5760 N   0  0  0  0  0  0  0  0  0  0  0  0
   35.4470   29.9550   33.8780 C   0  0  0  0  0  0  0  0  0  0  0  0
   35.9100   28.8190   34.4590 N   0  0  0  0  0  0  0  0  0  0  0  0
   37.5590   27.4270   31.8490 H   0  0  0  0  0  0  0  0  0  0  0  0
   36.7040   29.5200   30.7820 H   0  0  0  0  0  0  0  0  0  0  0  0
   34.8560   30.6730   34.4300 H   0  0  0  0  0  0  0  0  0  0  0  0
   38.2350   24.0840   32.0270 O   0  0  0  0  0  0  0  0  0  0  0  0
   39.0950   23.6930   31.7920 H   0  0  0  0  0  0  0  0  0  0  0  0
   37.1720   21.8290   33.7680 O   0  0  0  0  0  0  0  0  0  0  0  0
   35.9850   20.0650   32.9480 C   0  0  0  0  0  0  0  0  0  0  0  0
   37.0030   20.9960   32.7050 C   0  0  0  0  0  0  0  0  0  0  0  0
   37.6380   20.9160   31.4860 C   0  0  0  0  0  0  0  0  0  0  0  0
   38.4040   21.6600   31.3720 H   0  0  0  0  0  0  0  0  0  0  0  0
   37.2940   19.9770   30.5530 C   0  0  0  0  0  3  0  0  0  0  0  0
   36.2940   19.0620   30.7900 C   0  0  0  0  0  3  0  0  0  0  0  0
   35.6330   19.1080   32.0010 C   0  0  0  0  0  0  0  0  0  0  0  0
   35.2270   19.9770   34.1090 O   0  0  0  0  0  0  0  0  0  0  0  0
   35.6300   19.5010   34.9100 H   0  0  0  0  0  0  0  0  0  0  0  0
   34.6420   18.1680   32.1840 O   0  0  0  0  0  0  0  0  0  0  0  0
   33.7490   18.3800   32.6420 H   0  0  0  0  0  0  0  0  0  0  0  0
  1  6  1  1  0  0  0
  1  5  1  0  0  0  0
  1  2  1  0  0  0  0
  2  7  1  6  0  0  0
  2  3  1  0  0  0  0
  4  3  1  0  0  0  0
  4  8  1  0  0  0  0
  4  9  1  0  0  0  0
  5 10  1  6  0  0  0
  5  4  1  0  0  0  0
 11 14  1  1  0  0  0
 11 13  1  0  0  0  0
 12 15  1  6  0  0  0
 12  2  1  0  0  0  0
 12 11  1  0  0  0  0
 12 13  1  0  0  0  0
 13 16  1  0  0  0  0
 13 17  1  0  0  0  0
 18 11  1  0  0  0  0
 18 23  1  0  0  0  0
 19 18  2  0  0  0  0
 20 19  1  0  0  0  0
 20 21  2  0  0  0  0
 21 22  1  0  0  0  0
 22 26  1  0  0  0  0
 22 23  2  0  0  0  0
 24 19  1  0  0  0  0
 25 20  1  0  0  0  0
 27  1  1  0  0  0  0
 28 27  1  0  0  0  0
 29  5  1  0  0  0  0
 30 37  1  0  0  0  0
 31 30  1  0  0  0  0
 31 29  1  0  0  0  0
 32 31  2  0  0  0  0
 33 32  1  0  0  0  0
 34 35  2  0  0  0  0
 34 32  1  0  0  0  0
 35 36  1  0  0  0  0
 36 39  1  0  0  0  0
 36 30  2  0  0  0  0
 37 38  1  0  0  0  0
 39 40  1  0  0  0  0
M  END
>  <minimizedAffinity>
-5.64351082

$$$$

 OpenBabel03272508293D

 40 43  0  0  1  0  0  0  0  0999 V2000
   39.1470   24.5630   32.7350 C   0  0  2  0  0  0  0  0  0  0  0  0
   38.3290   25.1230   31.5770 C   0  0  2  0  0  0  0  0  0  0  0  0
   37.6670   26.2030   32.0920 O   0  0  0  0  0  0  0  0  0  0  0  0
   38.3180   26.7000   33.1800 C   0  0  0  0  0  0  0  0  0  0  0  0
   39.5770   25.8820   33.3870 C   0  0  1  0  0  0  0  0  0  0  0  0
   38.5300   24.0060   33.4540 H   0  0  0  0  0  0  0  0  0  0  0  0
   39.0350   25.4410   30.7970 H   0  0  0  0  0  0  0  0  0  0  0  0
   38.6370   27.7460   32.9890 H   0  0  0  0  0  0  0  0  0  0  0  0
   37.7380   26.6220   34.1300 H   0  0  0  0  0  0  0  0  0  0  0  0
   40.3880   26.3350   32.7970 H   0  0  0  0  0  0  0  0  0  0  0  0
   36.5900   23.2660   32.0640 C   0  0  1  0  0  0  0  0  0  0  0  0
   37.3880   24.0430   31.1440 C   0  0  1  0  0  0  0  0  0  0  0  0
   35.9110   24.2590   31.1060 C   0  0  0  0  0  0  0  0  0  0  0  0
   36.3290   23.4970   33.1120 H   0  0  0  0  0  0  0  0  0  0  0  0
   37.7980   23.4710   30.2620 H   0  0  0  0  0  0  0  0  0  0  0  0
   35.3340   23.8470   30.2430 H   0  0  0  0  0  0  0  0  0  0  0  0
   35.4490   25.1500   31.5250 H   0  0  0  0  0  0  0  0  0  0  0  0
   36.2070   21.8300   31.7440 C   0  0  0  0  0  0  0  0  0  0  0  0
   35.1000   21.2960   32.4090 C   0  0  0  0  0  0  0  0  0  0  0  0
   34.7980   19.9860   32.1030 C   0  0  0  0  0  0  0  0  0  0  0  0
   35.5550   19.2800   31.2000 N   0  0  0  0  0  0  0  0  0  0  0  0
   36.6210   19.8370   30.5780 C   0  0  0  0  0  0  0  0  0  0  0  0
   36.9500   21.1250   30.8520 N   0  0  0  0  0  0  0  0  0  0  0  0
   34.5470   21.9030   33.1070 H   0  0  0  0  0  0  0  0  0  0  0  0
   33.9420   19.5310   32.5980 H   0  0  0  0  0  0  0  0  0  0  0  0
   37.1900   19.2440   29.8740 H   0  0  0  0  0  0  0  0  0  0  0  0
   40.2350   23.8170   32.3430 O   0  0  0  0  0  0  0  0  0  0  0  0
   40.8780   24.3320   31.8230 H   0  0  0  0  0  0  0  0  0  0  0  0
   39.9230   25.7200   34.6940 O   0  0  0  0  0  0  0  0  0  0  0  0
   39.9540   23.7820   35.8930 C   0  0  0  0  0  0  0  0  0  0  0  0
   39.2550   24.9610   35.6060 C   0  0  0  0  0  0  0  0  0  0  0  0
   38.0590   25.1490   36.2620 C   0  0  0  0  0  0  0  0  0  0  0  0
   37.5820   26.0720   35.9920 H   0  0  0  0  0  0  0  0  0  0  0  0
   37.5730   24.2320   37.1540 C   0  0  0  0  0  3  0  0  0  0  0  0
   38.2600   23.0730   37.4370 C   0  0  0  0  0  3  0  0  0  0  0  0
   39.4630   22.8470   36.7990 C   0  0  0  0  0  0  0  0  0  0  0  0
   41.1720   23.4070   35.3390 O   0  0  0  0  0  0  0  0  0  0  0  0
   41.1700   22.9870   34.4150 H   0  0  0  0  0  0  0  0  0  0  0  0
   40.1050   21.6720   37.1210 O   0  0  0  0  0  0  0  0  0  0  0  0
   41.1210   21.6080   37.2490 H   0  0  0  0  0  0  0  0  0  0  0  0
  1  5  1  0  0  0  0
  1  6  1  1  0  0  0
  2  7  1  6  0  0  0
  2  3  1  0  0  0  0
  2  1  1  0  0  0  0
  3  4  1  0  0  0  0
  4  5  1  0  0  0  0
  4  9  1  0  0  0  0
  5 10  1  6  0  0  0
  5 29  1  0  0  0  0
  8  4  1  0  0  0  0
 11 14  1  1  0  0  0
 12 15  1  6  0  0  0
 12  2  1  0  0  0  0
 12 11  1  0  0  0  0
 13 12  1  0  0  0  0
 13 17  1  0  0  0  0
 13 11  1  0  0  0  0
 16 13  1  0  0  0  0
 18 11  1  0  0  0  0
 18 19  1  0  0  0  0
 19 24  1  0  0  0  0
 20 19  2  0  0  0  0
 20 25  1  0  0  0  0
 21 20  1  0  0  0  0
 22 23  1  0  0  0  0
 22 21  2  0  0  0  0
 23 18  2  0  0  0  0
 26 22  1  0  0  0  0
 27  1  1  0  0  0  0
 28 27  1  0  0  0  0
 29 31  1  0  0  0  0
 30 36  1  0  0  0  0
 31 30  2  0  0  0  0
 31 32  1  0  0  0  0
 32 34  2  0  0  0  0
 33 32  1  0  0  0  0
 34 35  1  0  0  0  0
 36 39  1  0  0  0  0
 36 35  2  0  0  0  0
 37 30  1  0  0  0  0
 38 37  1  0  0  0  0
 39 40  1  0  0  0  0
M  END
>  <minimizedAffinity>
-5.60555887

$$$$
