
 OpenBabel03272505593D

 46 49  0  0  1  0  0  0  0  0999 V2000
   35.2160   30.3700   49.8220 C   0  0  2  0  0  0  0  0  0  0  0  0
   36.1330   31.1730   48.9780 C   0  0  0  0  0  0  0  0  0  0  0  0
   37.5820   30.6810   49.0390 C   0  0  2  0  0  0  0  0  0  0  0  0
   38.1340   30.6130   50.3920 C   0  0  0  0  0  0  0  0  0  0  0  0
   37.1400   30.1030   51.4290 C   0  0  0  0  0  0  0  0  0  0  0  0
   35.9450   29.4620   50.7890 C   0  0  0  0  0  0  0  0  0  0  0  0
   34.5600   31.0080   50.4810 H   0  0  0  0  0  0  0  0  0  0  0  0
   35.9650   31.3220   47.9400 H   0  0  0  0  0  0  0  0  0  0  0  0
   36.1850   32.2130   49.4440 H   0  0  0  0  0  0  0  0  0  0  0  0
   37.5800   29.7360   48.4920 H   0  0  0  0  0  0  0  0  0  0  0  0
   39.0690   30.0170   50.3980 H   0  0  0  0  0  0  0  0  0  0  0  0
   38.4270   31.6170   50.7470 H   0  0  0  0  0  0  0  0  0  0  0  0
   37.6580   29.2960   51.9880 H   0  0  0  0  0  0  0  0  0  0  0  0
   36.8670   30.8560   52.1810 H   0  0  0  0  0  0  0  0  0  0  0  0
   36.2610   28.5710   50.2190 H   0  0  0  0  0  0  0  0  0  0  0  0
   35.2540   29.1530   51.5750 H   0  0  0  0  0  0  0  0  0  0  0  0
   37.6660   30.1180   46.1450 Cl  0  0  0  0  0  0  0  0  0  0  0  0
   38.4690   31.5070   46.8590 C   0  0  0  0  0  0  0  0  0  0  0  0
   38.3350   31.6830   48.2310 C   0  0  0  0  0  0  0  0  0  0  0  0
   38.9810   32.8040   48.6860 C   0  0  0  0  0  0  0  0  0  0  0  0
   39.6860   33.6570   47.8620 C   0  0  0  0  0  0  0  0  0  0  0  0
   39.7730   33.4110   46.4980 C   0  0  0  0  0  0  0  0  0  0  0  0
   39.1350   32.2890   45.9840 C   0  0  0  0  0  0  0  0  0  0  0  0
   38.9280   33.0250   49.7440 H   0  0  0  0  0  0  0  0  0  0  0  0
   40.1700   34.5270   48.3170 H   0  0  0  0  0  0  0  0  0  0  0  0
   40.3350   34.1070   45.9000 H   0  0  0  0  0  0  0  0  0  0  0  0
   38.2990   32.3110   43.5570 C   0  0  0  0  0  0  0  0  0  0  0  0
   39.2190   32.0210   44.5510 C   0  0  0  0  0  0  0  0  0  0  0  0
   40.4100   31.3870   44.1920 C   0  0  0  0  0  0  0  0  0  0  0  0
   41.2020   31.1150   44.9080 H   0  0  0  0  0  0  0  0  0  0  0  0
   40.7150   31.0350   42.9080 C   0  0  0  0  0  3  0  0  0  0  0  0
   39.7640   31.3440   41.9340 C   0  0  0  0  0  3  0  0  0  0  0  0
   38.5720   31.9730   42.2570 C   0  0  0  0  0  0  0  0  0  0  0  0
   37.1610   32.9410   44.0460 O   0  0  0  0  0  0  0  0  0  0  0  0
   36.4620   33.1640   43.3250 H   0  0  0  0  0  0  0  0  0  0  0  0
   37.5980   32.3000   41.3280 O   0  0  0  0  0  0  0  0  0  0  0  0
   37.3640   31.6730   40.5670 H   0  0  0  0  0  0  0  0  0  0  0  0
   34.2980   29.5290   49.0380 C   0  0  0  0  0  0  0  0  0  0  0  0
   34.2830   29.7830   47.6670 C   0  0  0  0  0  0  0  0  0  0  0  0
   33.4370   29.0000   46.8690 C   0  0  0  0  0  0  0  0  0  0  0  0
   32.6630   28.0180   47.4760 N   0  0  0  0  0  0  0  0  0  0  0  0
   32.7120   27.8090   48.8050 C   0  0  0  0  0  0  0  0  0  0  0  0
   33.5240   28.5670   49.5480 N   0  0  0  0  0  0  0  0  0  0  0  0
   34.7360   30.4410   46.9470 H   0  0  0  0  0  0  0  0  0  0  0  0
   33.2380   28.9820   45.8230 H   0  0  0  0  0  0  0  0  0  0  0  0
   32.1150   27.0520   49.2860 H   0  0  0  0  0  0  0  0  0  0  0  0
  1  7  1  1  0  0  0
  1  6  1  0  0  0  0
  2  3  1  0  0  0  0
  2  9  1  0  0  0  0
  2  1  1  0  0  0  0
  3 10  1  6  0  0  0
  3  4  1  0  0  0  0
  4 11  1  0  0  0  0
  4 12  1  0  0  0  0
  4  5  1  0  0  0  0
  5 13  1  0  0  0  0
  5 14  1  0  0  0  0
  6  5  1  0  0  0  0
  6 16  1  0  0  0  0
  8  2  1  0  0  0  0
 15  6  1  0  0  0  0
 17 18  1  0  0  0  0
 18 19  1  0  0  0  0
 19 20  2  0  0  0  0
 19  3  1  0  0  0  0
 20 24  1  0  0  0  0
 21 25  1  0  0  0  0
 21 20  1  0  0  0  0
 22 21  2  0  0  0  0
 23 22  1  0  0  0  0
 23 18  2  0  0  0  0
 26 22  1  0  0  0  0
 27 34  1  0  0  0  0
 27 28  1  0  0  0  0
 28 23  1  0  0  0  0
 29 28  2  0  0  0  0
 29 30  1  0  0  0  0
 31 29  1  0  0  0  0
 32 33  1  0  0  0  0
 32 31  2  0  0  0  0
 33 27  2  0  0  0  0
 35 34  1  0  0  0  0
 36 33  1  0  0  0  0
 37 36  1  0  0  0  0
 38 43  1  0  0  0  0
 38  1  1  0  0  0  0
 39 38  2  0  0  0  0
 40 41  2  0  0  0  0
 40 39  1  0  0  0  0
 41 42  1  0  0  0  0
 42 46  1  0  0  0  0
 42 43  2  0  0  0  0
 44 39  1  0  0  0  0
 45 40  1  0  0  0  0
M  END
>  <minimizedAffinity>
-7.86204338

>  <minimizedRMSD>
1.32503545

$$$$
