
 OpenBabel03272509233D

 48 52  0  0  0  0  0  0  0  0999 V2000
   36.9490   27.0290   32.4950 O   0  0  0  0  0  0  0  0  0  0  0  0
   38.0740   25.7720   34.3430 C   0  0  0  0  0  0  0  0  0  0  0  0
   38.0170   26.6060   33.2420 C   0  0  0  0  0  0  0  0  0  0  0  0
   39.2050   27.1420   32.7570 C   0  0  0  0  0  0  0  0  0  0  0  0
   40.4360   26.8570   33.3530 C   0  0  0  0  0  0  0  0  0  0  0  0
   41.7090   27.2010   33.1350 N   0  0  0  0  0  0  0  0  0  0  0  0
   42.5140   26.6230   34.0380 C   0  0  0  0  0  0  0  0  0  0  0  0
   41.7160   25.8800   34.8650 N   0  0  0  0  0  0  0  0  0  0  0  0
   40.4430   26.0160   34.4560 C   0  0  0  0  0  0  0  0  0  0  0  0
   39.2730   25.4800   34.9450 C   0  0  0  0  0  0  0  0  0  0  0  0
   37.0940   25.4120   34.6370 H   0  0  0  0  0  0  0  0  0  0  0  0
   39.3210   27.8170   31.8940 H   0  0  0  0  0  0  0  0  0  0  0  0
   42.0200   27.8310   32.3660 H   0  0  0  0  0  0  0  0  0  0  0  0
   43.5840   26.7380   34.0810 H   0  0  0  0  0  0  0  0  0  0  0  0
   39.9370   23.4480   36.3670 C   0  0  0  0  0  0  0  0  0  0  0  0
   39.2090   24.5890   36.0990 C   0  0  0  0  0  0  0  0  0  0  0  0
   38.2500   25.0200   37.0200 C   0  0  0  0  0  0  0  0  0  0  0  0
   37.6160   25.9090   36.9150 H   0  0  0  0  0  0  0  0  0  0  0  0
   38.0090   24.3370   38.1920 C   0  0  0  0  0  3  0  0  0  0  0  0
   38.7510   23.1970   38.4350 C   0  0  0  0  0  3  0  0  0  0  0  0
   39.7010   22.7570   37.5380 C   0  0  0  0  0  0  0  0  0  0  0  0
   40.8490   23.1400   35.3660 O   0  0  0  0  0  0  0  0  0  0  0  0
   41.3900   22.2880   35.5100 H   0  0  0  0  0  0  0  0  0  0  0  0
   40.4840   21.6240   37.7130 O   0  0  0  0  0  0  0  0  0  0  0  0
   40.0970   20.8030   38.1770 H   0  0  0  0  0  0  0  0  0  0  0  0
   35.9170   28.9530   33.5420 C   0  0  0  0  0  0  0  0  0  0  0  0
   35.3460   30.2130   33.5690 C   0  0  0  0  0  0  0  0  0  0  0  0
   35.2740   30.8130   32.3100 C   0  0  0  0  0  0  0  0  0  0  0  0
   35.7390   30.1890   31.1500 C   0  0  0  0  0  0  0  0  0  0  0  0
   36.3050   28.8980   31.2440 C   0  0  0  0  0  0  0  0  0  0  0  0
   36.3880   28.2800   32.4830 C   0  0  0  0  0  0  0  0  0  0  0  0
   34.8390   31.8120   32.2150 H   0  0  0  0  0  0  0  0  0  0  0  0
   35.6690   30.6780   30.1930 H   0  0  0  0  0  0  0  0  0  0  0  0
   36.6540   28.4420   30.3320 H   0  0  0  0  0  0  0  0  0  0  0  0
   35.7220   31.6840   35.4860 C   0  0  0  0  0  0  0  0  0  0  0  0
   34.8700   30.8570   34.7490 C   0  0  0  0  0  0  0  0  0  0  0  0
   33.5600   30.6910   35.2080 C   0  0  0  0  0  0  0  0  0  0  0  0
   33.1960   31.3460   36.3450 N   0  0  0  0  0  0  0  0  0  0  0  0
   34.0520   32.1400   37.0310 C   0  0  0  0  0  0  0  0  0  0  0  0
   35.3050   32.3070   36.6050 N   0  0  0  0  0  0  0  0  0  0  0  0
   36.7450   31.8510   35.1810 H   0  0  0  0  0  0  0  0  0  0  0  0
   33.6370   32.5970   37.9120 H   0  0  0  0  0  0  0  0  0  0  0  0
   32.6170   29.8240   34.4640 C   0  0  0  0  0  0  0  0  0  0  0  0
   31.7070   29.6820   35.0950 H   0  0  0  0  0  0  0  0  0  0  0  0
   32.3410   30.2600   33.4720 H   0  0  0  0  0  0  0  0  0  0  0  0
   33.0970   28.8490   34.2250 H   0  0  0  0  0  0  0  0  0  0  0  0
   36.0380   28.2560   34.7660 O   0  0  0  0  0  0  0  0  0  0  0  0
   35.2660   27.6390   35.0150 H   0  0  0  0  0  0  0  0  0  0  0  0
  1  3  1  0  0  0  0
  2 11  1  0  0  0  0
  2 10  1  0  0  0  0
  3  2  2  0  0  0  0
  4  3  1  0  0  0  0
  4  5  2  0  0  0  0
  5  9  1  0  0  0  0
  6  5  1  0  0  0  0
  6  7  1  0  0  0  0
  7 14  1  0  0  0  0
  7  8  2  0  0  0  0
  9  8  1  0  0  0  0
  9 10  2  0  0  0  0
 10 16  1  0  0  0  0
 12  4  1  0  0  0  0
 13  6  1  0  0  0  0
 15 21  1  0  0  0  0
 16 15  2  0  0  0  0
 16 17  1  0  0  0  0
 17 19  2  0  0  0  0
 18 17  1  0  0  0  0
 19 20  1  0  0  0  0
 21 24  1  0  0  0  0
 21 20  2  0  0  0  0
 22 23  1  0  0  0  0
 22 15  1  0  0  0  0
 24 25  1  0  0  0  0
 26 27  1  0  0  0  0
 26 47  1  0  0  0  0
 27 36  1  0  0  0  0
 28 27  2  0  0  0  0
 29 30  2  0  0  0  0
 29 28  1  0  0  0  0
 30 31  1  0  0  0  0
 31  1  1  0  0  0  0
 31 26  2  0  0  0  0
 32 28  1  0  0  0  0
 33 29  1  0  0  0  0
 34 30  1  0  0  0  0
 35 40  1  0  0  0  0
 36 37  1  0  0  0  0
 36 35  2  0  0  0  0
 37 38  2  0  0  0  0
 38 39  1  0  0  0  0
 39 42  1  0  0  0  0
 40 39  2  0  0  0  0
 41 35  1  0  0  0  0
 43 44  1  0  0  0  0
 43 37  1  0  0  0  0
 45 43  1  0  0  0  0
 46 43  1  0  0  0  0
 47 48  1  0  0  0  0
M  END
>  <minimizedAffinity>
-7.77658033

$$$$

 OpenBabel03272509233D

 48 52  0  0  0  0  0  0  0  0999 V2000
   38.0580   27.4390   32.6750 O   0  0  0  0  0  0  0  0  0  0  0  0
   38.3330   25.6160   34.3660 C   0  0  0  0  0  0  0  0  0  0  0  0
   38.0030   26.1490   33.1340 C   0  0  0  0  0  0  0  0  0  0  0  0
   37.5310   25.2910   32.1480 C   0  0  0  0  0  0  0  0  0  0  0  0
   37.3860   23.9200   32.3760 C   0  0  0  0  0  0  0  0  0  0  0  0
   36.9740   22.8680   31.6620 N   0  0  0  0  0  0  0  0  0  0  0  0
   37.0390   21.7470   32.3950 C   0  0  0  0  0  0  0  0  0  0  0  0
   37.5140   22.1050   33.6280 N   0  0  0  0  0  0  0  0  0  0  0  0
   37.7290   23.4310   33.6280 C   0  0  0  0  0  0  0  0  0  0  0  0
   38.1980   24.2720   34.6120 C   0  0  0  0  0  0  0  0  0  0  0  0
   38.6890   26.3710   35.0590 H   0  0  0  0  0  0  0  0  0  0  0  0
   37.2300   25.5640   31.1240 H   0  0  0  0  0  0  0  0  0  0  0  0
   36.6500   22.9240   30.6730 H   0  0  0  0  0  0  0  0  0  0  0  0
   36.7640   20.7630   32.0520 H   0  0  0  0  0  0  0  0  0  0  0  0
   39.5260   22.8990   36.3280 C   0  0  0  0  0  0  0  0  0  0  0  0
   38.5760   23.8240   35.9480 C   0  0  0  0  0  0  0  0  0  0  0  0
   37.8220   24.4720   36.9320 C   0  0  0  0  0  0  0  0  0  0  0  0
   37.0430   25.2220   36.7500 H   0  0  0  0  0  0  0  0  0  0  0  0
   38.0000   24.2130   38.2730 C   0  0  0  0  0  3  0  0  0  0  0  0
   38.9590   23.2810   38.6250 C   0  0  0  0  0  3  0  0  0  0  0  0
   39.7110   22.6320   37.6680 C   0  0  0  0  0  0  0  0  0  0  0  0
   40.1950   22.3370   35.2480 O   0  0  0  0  0  0  0  0  0  0  0  0
   40.8890   21.6260   35.4810 H   0  0  0  0  0  0  0  0  0  0  0  0
   40.6900   21.6870   37.9440 O   0  0  0  0  0  0  0  0  0  0  0  0
   40.5740   21.0470   38.7290 H   0  0  0  0  0  0  0  0  0  0  0  0
   36.1980   28.7480   33.5040 C   0  0  0  0  0  0  0  0  0  0  0  0
   35.1350   29.6280   33.3990 C   0  0  0  0  0  0  0  0  0  0  0  0
   34.9270   30.0900   32.0970 C   0  0  0  0  0  0  0  0  0  0  0  0
   35.7240   29.6920   31.0210 C   0  0  0  0  0  0  0  0  0  0  0  0
   36.7850   28.7870   31.2480 C   0  0  0  0  0  0  0  0  0  0  0  0
   37.0120   28.3140   32.5320 C   0  0  0  0  0  0  0  0  0  0  0  0
   34.1110   30.7910   31.8990 H   0  0  0  0  0  0  0  0  0  0  0  0
   35.5380   30.0660   30.0280 H   0  0  0  0  0  0  0  0  0  0  0  0
   37.3810   28.4990   30.3980 H   0  0  0  0  0  0  0  0  0  0  0  0
   33.1100   29.3810   34.7480 C   0  0  0  0  0  0  0  0  0  0  0  0
   34.3170   30.0390   34.4920 C   0  0  0  0  0  0  0  0  0  0  0  0
   34.6790   31.0940   35.3350 C   0  0  0  0  0  0  0  0  0  0  0  0
   33.8330   31.4140   36.3520 N   0  0  0  0  0  0  0  0  0  0  0  0
   32.6710   30.7520   36.5670 C   0  0  0  0  0  0  0  0  0  0  0  0
   32.3130   29.7440   35.7710 N   0  0  0  0  0  0  0  0  0  0  0  0
   32.7770   28.5580   34.1320 H   0  0  0  0  0  0  0  0  0  0  0  0
   32.0970   31.1080   37.4040 H   0  0  0  0  0  0  0  0  0  0  0  0
   35.9470   31.8240   35.1070 C   0  0  0  0  0  0  0  0  0  0  0  0
   35.9460   32.7300   35.7590 H   0  0  0  0  0  0  0  0  0  0  0  0
   36.8410   31.1880   35.3210 H   0  0  0  0  0  0  0  0  0  0  0  0
   36.0440   32.1010   34.0330 H   0  0  0  0  0  0  0  0  0  0  0  0
   36.4940   28.2210   34.7820 O   0  0  0  0  0  0  0  0  0  0  0  0
   36.0480   27.3360   35.0220 H   0  0  0  0  0  0  0  0  0  0  0  0
  1  3  1  0  0  0  0
  2 10  1  0  0  0  0
  2 11  1  0  0  0  0
  3  2  2  0  0  0  0
  4  5  2  0  0  0  0
  4  3  1  0  0  0  0
  5  9  1  0  0  0  0
  6  5  1  0  0  0  0
  6  7  1  0  0  0  0
  7  8  2  0  0  0  0
  9  8  1  0  0  0  0
  9 10  2  0  0  0  0
 10 16  1  0  0  0  0
 12  4  1  0  0  0  0
 13  6  1  0  0  0  0
 14  7  1  0  0  0  0
 15 21  1  0  0  0  0
 16 15  2  0  0  0  0
 16 17  1  0  0  0  0
 17 19  2  0  0  0  0
 18 17  1  0  0  0  0
 19 20  1  0  0  0  0
 21 24  1  0  0  0  0
 21 20  2  0  0  0  0
 22 23  1  0  0  0  0
 22 15  1  0  0  0  0
 24 25  1  0  0  0  0
 26 47  1  0  0  0  0
 27 26  1  0  0  0  0
 27 36  1  0  0  0  0
 28 27  2  0  0  0  0
 29 30  2  0  0  0  0
 29 28  1  0  0  0  0
 30 31  1  0  0  0  0
 31  1  1  0  0  0  0
 31 26  2  0  0  0  0
 32 28  1  0  0  0  0
 33 29  1  0  0  0  0
 34 30  1  0  0  0  0
 35 40  1  0  0  0  0
 36 35  2  0  0  0  0
 36 37  1  0  0  0  0
 37 38  2  0  0  0  0
 38 39  1  0  0  0  0
 39 42  1  0  0  0  0
 40 39  2  0  0  0  0
 41 35  1  0  0  0  0
 43 45  1  0  0  0  0
 43 37  1  0  0  0  0
 43 44  1  0  0  0  0
 46 43  1  0  0  0  0
 47 48  1  0  0  0  0
M  END
>  <minimizedAffinity>
-7.71100092

$$$$

 OpenBabel03272509233D

 48 52  0  0  0  0  0  0  0  0999 V2000
   37.5150   27.0060   32.4610 O   0  0  0  0  0  0  0  0  0  0  0  0
   38.0120   25.3080   34.2290 C   0  0  0  0  0  0  0  0  0  0  0  0
   37.6090   25.7420   32.9800 C   0  0  0  0  0  0  0  0  0  0  0  0
   37.2200   24.7910   32.0440 C   0  0  0  0  0  0  0  0  0  0  0  0
   37.2290   23.4250   32.3380 C   0  0  0  0  0  0  0  0  0  0  0  0
   36.9250   22.3010   31.6820 N   0  0  0  0  0  0  0  0  0  0  0  0
   37.1240   21.2310   32.4640 C   0  0  0  0  0  0  0  0  0  0  0  0
   37.5730   21.6970   33.6700 N   0  0  0  0  0  0  0  0  0  0  0  0
   37.6420   23.0370   33.6040 C   0  0  0  0  0  0  0  0  0  0  0  0
   38.0290   23.9700   34.5400 C   0  0  0  0  0  0  0  0  0  0  0  0
   38.2940   26.1300   34.8790 H   0  0  0  0  0  0  0  0  0  0  0  0
   36.8760   24.9800   31.0150 H   0  0  0  0  0  0  0  0  0  0  0  0
   36.5830   22.2740   30.6980 H   0  0  0  0  0  0  0  0  0  0  0  0
   36.9530   20.2070   32.1730 H   0  0  0  0  0  0  0  0  0  0  0  0
   39.4710   22.7690   36.2920 C   0  0  0  0  0  0  0  0  0  0  0  0
   38.4730   23.6320   35.8870 C   0  0  0  0  0  0  0  0  0  0  0  0
   37.7320   24.3200   36.8530 C   0  0  0  0  0  0  0  0  0  0  0  0
   36.9190   25.0280   36.6500 H   0  0  0  0  0  0  0  0  0  0  0  0
   37.9690   24.1620   38.2010 C   0  0  0  0  0  3  0  0  0  0  0  0
   38.9750   23.2920   38.5780 C   0  0  0  0  0  3  0  0  0  0  0  0
   39.7150   22.6040   37.6390 C   0  0  0  0  0  0  0  0  0  0  0  0
   40.1200   22.1560   35.2280 O   0  0  0  0  0  0  0  0  0  0  0  0
   40.8480   21.4890   35.4820 H   0  0  0  0  0  0  0  0  0  0  0  0
   40.7380   21.7150   37.9410 O   0  0  0  0  0  0  0  0  0  0  0  0
   40.6760   21.1280   38.7720 H   0  0  0  0  0  0  0  0  0  0  0  0
   36.1120   28.9690   32.2510 C   0  0  0  0  0  0  0  0  0  0  0  0
   35.3720   30.0400   32.7190 C   0  0  0  0  0  0  0  0  0  0  0  0
   35.3660   30.1400   34.1120 C   0  0  0  0  0  0  0  0  0  0  0  0
   36.0440   29.2370   34.9350 C   0  0  0  0  0  0  0  0  0  0  0  0
   36.7690   28.1780   34.3440 C   0  0  0  0  0  0  0  0  0  0  0  0
   36.7910   28.0580   32.9620 C   0  0  0  0  0  0  0  0  0  0  0  0
   34.8110   30.9520   34.5910 H   0  0  0  0  0  0  0  0  0  0  0  0
   36.0200   29.3410   36.0070 H   0  0  0  0  0  0  0  0  0  0  0  0
   37.2820   27.4990   35.0050 H   0  0  0  0  0  0  0  0  0  0  0  0
   33.3170   30.7810   31.6200 C   0  0  0  0  0  0  0  0  0  0  0  0
   34.6770   30.9650   31.8860 C   0  0  0  0  0  0  0  0  0  0  0  0
   35.3130   32.0700   31.3120 C   0  0  0  0  0  0  0  0  0  0  0  0
   34.5660   32.8980   30.5300 N   0  0  0  0  0  0  0  0  0  0  0  0
   33.2490   32.6850   30.2960 C   0  0  0  0  0  0  0  0  0  0  0  0
   32.6300   31.6350   30.8370 N   0  0  0  0  0  0  0  0  0  0  0  0
   32.7720   29.9460   32.0350 H   0  0  0  0  0  0  0  0  0  0  0  0
   32.7800   33.4150   29.6610 H   0  0  0  0  0  0  0  0  0  0  0  0
   36.7530   32.3110   31.5620 C   0  0  0  0  0  0  0  0  0  0  0  0
   37.0930   33.1170   30.8690 H   0  0  0  0  0  0  0  0  0  0  0  0
   36.9510   32.5970   32.6240 H   0  0  0  0  0  0  0  0  0  0  0  0
   37.3320   31.3740   31.4040 H   0  0  0  0  0  0  0  0  0  0  0  0
   36.1830   28.7770   30.8520 O   0  0  0  0  0  0  0  0  0  0  0  0
   36.9670   29.2190   30.3730 H   0  0  0  0  0  0  0  0  0  0  0  0
  1 31  1  0  0  0  0
  1  3  1  0  0  0  0
  2 10  1  0  0  0  0
  2 11  1  0  0  0  0
  3  2  2  0  0  0  0
  4  5  2  0  0  0  0
  4  3  1  0  0  0  0
  5  9  1  0  0  0  0
  6  5  1  0  0  0  0
  6  7  1  0  0  0  0
  7  8  2  0  0  0  0
  9  8  1  0  0  0  0
  9 10  2  0  0  0  0
 10 16  1  0  0  0  0
 12  4  1  0  0  0  0
 13  6  1  0  0  0  0
 14  7  1  0  0  0  0
 15 21  1  0  0  0  0
 16 15  2  0  0  0  0
 16 17  1  0  0  0  0
 17 19  2  0  0  0  0
 18 17  1  0  0  0  0
 19 20  1  0  0  0  0
 21 24  1  0  0  0  0
 21 20  2  0  0  0  0
 22 23  1  0  0  0  0
 22 15  1  0  0  0  0
 24 25  1  0  0  0  0
 26 27  2  0  0  0  0
 26 31  1  0  0  0  0
 27 28  1  0  0  0  0
 28 32  1  0  0  0  0
 28 29  2  0  0  0  0
 29 33  1  0  0  0  0
 30 29  1  0  0  0  0
 30 34  1  0  0  0  0
 31 30  2  0  0  0  0
 35 36  1  0  0  0  0
 35 41  1  0  0  0  0
 36 27  1  0  0  0  0
 37 43  1  0  0  0  0
 37 36  2  0  0  0  0
 38 37  1  0  0  0  0
 39 38  2  0  0  0  0
 39 40  1  0  0  0  0
 40 35  2  0  0  0  0
 42 39  1  0  0  0  0
 43 45  1  0  0  0  0
 44 43  1  0  0  0  0
 46 43  1  0  0  0  0
 47 26  1  0  0  0  0
 48 47  1  0  0  0  0
M  END
>  <minimizedAffinity>
-7.18432331

$$$$

 OpenBabel03272509233D

 48 52  0  0  0  0  0  0  0  0999 V2000
   37.0510   27.2300   32.7490 O   0  0  0  0  0  0  0  0  0  0  0  0
   35.7300   28.9810   33.9520 C   0  0  0  0  0  0  0  0  0  0  0  0
   36.3420   28.3970   32.8580 C   0  0  0  0  0  0  0  0  0  0  0  0
   36.2650   29.0480   31.6320 C   0  0  0  0  0  0  0  0  0  0  0  0
   35.5900   30.2620   31.4880 C   0  0  0  0  0  0  0  0  0  0  0  0
   35.3450   31.1090   30.4830 N   0  0  0  0  0  0  0  0  0  0  0  0
   34.6260   32.1560   30.9140 C   0  0  0  0  0  0  0  0  0  0  0  0
   34.4070   31.9640   32.2510 N   0  0  0  0  0  0  0  0  0  0  0  0
   34.9920   30.8100   32.6130 C   0  0  0  0  0  0  0  0  0  0  0  0
   35.0620   30.1740   33.8320 C   0  0  0  0  0  0  0  0  0  0  0  0
   35.8510   28.3910   34.8540 H   0  0  0  0  0  0  0  0  0  0  0  0
   36.6980   28.7110   30.6770 H   0  0  0  0  0  0  0  0  0  0  0  0
   35.6710   30.9640   29.5040 H   0  0  0  0  0  0  0  0  0  0  0  0
   34.2970   32.9790   30.3010 H   0  0  0  0  0  0  0  0  0  0  0  0
   34.9500   31.6150   35.9540 C   0  0  0  0  0  0  0  0  0  0  0  0
   34.4560   30.6940   35.0540 C   0  0  0  0  0  0  0  0  0  0  0  0
   33.1960   30.1300   35.2750 C   0  0  0  0  0  0  0  0  0  0  0  0
   32.7040   29.3920   34.6300 H   0  0  0  0  0  0  0  0  0  0  0  0
   32.4300   30.4670   36.3690 C   0  0  0  0  0  3  0  0  0  0  0  0
   32.9490   31.3920   37.2550 C   0  0  0  0  0  3  0  0  0  0  0  0
   34.1910   31.9590   37.0540 C   0  0  0  0  0  0  0  0  0  0  0  0
   36.2090   32.0890   35.6080 O   0  0  0  0  0  0  0  0  0  0  0  0
   36.6250   32.7520   36.2620 H   0  0  0  0  0  0  0  0  0  0  0  0
   34.7770   32.8920   37.8980 O   0  0  0  0  0  0  0  0  0  0  0  0
   34.6260   32.8350   38.9040 H   0  0  0  0  0  0  0  0  0  0  0  0
   37.3170   24.9050   32.1240 C   0  0  0  0  0  0  0  0  0  0  0  0
   36.9380   23.7110   31.5390 C   0  0  0  0  0  0  0  0  0  0  0  0
   35.6890   23.7720   30.9170 C   0  0  0  0  0  0  0  0  0  0  0  0
   34.9130   24.9340   30.8990 C   0  0  0  0  0  0  0  0  0  0  0  0
   35.4030   26.0980   31.5320 C   0  0  0  0  0  0  0  0  0  0  0  0
   36.6410   26.0630   32.1570 C   0  0  0  0  0  0  0  0  0  0  0  0
   35.2910   22.8830   30.4200 H   0  0  0  0  0  0  0  0  0  0  0  0
   33.9530   24.9500   30.4100 H   0  0  0  0  0  0  0  0  0  0  0  0
   34.7820   26.9780   31.5000 H   0  0  0  0  0  0  0  0  0  0  0  0
   37.4840   21.5360   32.5150 C   0  0  0  0  0  0  0  0  0  0  0  0
   37.7240   22.5210   31.5530 C   0  0  0  0  0  0  0  0  0  0  0  0
   38.7460   22.2950   30.6260 C   0  0  0  0  0  0  0  0  0  0  0  0
   39.4420   21.1290   30.7190 N   0  0  0  0  0  0  0  0  0  0  0  0
   39.1790   20.1980   31.6670 C   0  0  0  0  0  0  0  0  0  0  0  0
   38.2080   20.4010   32.5580 N   0  0  0  0  0  0  0  0  0  0  0  0
   36.7080   21.6540   33.2580 H   0  0  0  0  0  0  0  0  0  0  0  0
   39.8040   19.3240   31.6280 H   0  0  0  0  0  0  0  0  0  0  0  0
   39.0410   23.3070   29.5850 C   0  0  0  0  0  0  0  0  0  0  0  0
   39.9970   23.0190   29.0850 H   0  0  0  0  0  0  0  0  0  0  0  0
   38.2160   23.3900   28.8360 H   0  0  0  0  0  0  0  0  0  0  0  0
   39.1160   24.3180   30.0430 H   0  0  0  0  0  0  0  0  0  0  0  0
   38.5670   24.9510   32.7820 O   0  0  0  0  0  0  0  0  0  0  0  0
   39.3650   25.2490   32.2210 H   0  0  0  0  0  0  0  0  0  0  0  0
  1  3  1  0  0  0  0
  2 11  1  0  0  0  0
  3  2  2  0  0  0  0
  4  3  1  0  0  0  0
  5  4  2  0  0  0  0
  5  9  1  0  0  0  0
  6  7  1  0  0  0  0
  6  5  1  0  0  0  0
  7  8  2  0  0  0  0
  8  9  1  0  0  0  0
  9 10  2  0  0  0  0
 10  2  1  0  0  0  0
 10 16  1  0  0  0  0
 12  4  1  0  0  0  0
 13  6  1  0  0  0  0
 14  7  1  0  0  0  0
 15 21  1  0  0  0  0
 16 17  1  0  0  0  0
 16 15  2  0  0  0  0
 17 19  2  0  0  0  0
 18 17  1  0  0  0  0
 19 20  1  0  0  0  0
 21 20  2  0  0  0  0
 21 24  1  0  0  0  0
 22 15  1  0  0  0  0
 22 23  1  0  0  0  0
 24 25  1  0  0  0  0
 26 31  1  0  0  0  0
 26 47  1  0  0  0  0
 27 36  1  0  0  0  0
 27 26  2  0  0  0  0
 28 27  1  0  0  0  0
 29 28  2  0  0  0  0
 29 30  1  0  0  0  0
 30 31  2  0  0  0  0
 31  1  1  0  0  0  0
 32 28  1  0  0  0  0
 33 29  1  0  0  0  0
 34 30  1  0  0  0  0
 35 40  1  0  0  0  0
 35 41  1  0  0  0  0
 36 35  2  0  0  0  0
 37 38  2  0  0  0  0
 37 36  1  0  0  0  0
 38 39  1  0  0  0  0
 39 40  2  0  0  0  0
 42 39  1  0  0  0  0
 43 46  1  0  0  0  0
 43 37  1  0  0  0  0
 44 43  1  0  0  0  0
 45 43  1  0  0  0  0
 48 47  1  0  0  0  0
M  END
>  <minimizedAffinity>
-6.96390724

$$$$

 OpenBabel03272509233D

 48 52  0  0  0  0  0  0  0  0999 V2000
   35.6110   27.1420   31.7020 O   0  0  0  0  0  0  0  0  0  0  0  0
   35.0240   29.0020   33.2690 C   0  0  0  0  0  0  0  0  0  0  0  0
   35.5930   28.4400   32.1420 C   0  0  0  0  0  0  0  0  0  0  0  0
   36.2790   29.2710   31.2640 C   0  0  0  0  0  0  0  0  0  0  0  0
   36.4000   30.6430   31.4960 C   0  0  0  0  0  0  0  0  0  0  0  0
   36.9740   31.6750   30.8680 N   0  0  0  0  0  0  0  0  0  0  0  0
   36.7780   32.8110   31.5530 C   0  0  0  0  0  0  0  0  0  0  0  0
   36.0490   32.4840   32.6640 N   0  0  0  0  0  0  0  0  0  0  0  0
   35.8120   31.1620   32.6400 C   0  0  0  0  0  0  0  0  0  0  0  0
   35.1300   30.3480   33.5170 C   0  0  0  0  0  0  0  0  0  0  0  0
   34.5150   28.2660   33.8830 H   0  0  0  0  0  0  0  0  0  0  0  0
   36.7830   28.9730   30.3300 H   0  0  0  0  0  0  0  0  0  0  0  0
   37.4970   31.5940   29.9710 H   0  0  0  0  0  0  0  0  0  0  0  0
   37.1390   33.7830   31.2610 H   0  0  0  0  0  0  0  0  0  0  0  0
   35.0270   31.5410   35.7880 C   0  0  0  0  0  0  0  0  0  0  0  0
   34.4890   30.8270   34.7360 C   0  0  0  0  0  0  0  0  0  0  0  0
   33.1370   30.4740   34.7710 C   0  0  0  0  0  0  0  0  0  0  0  0
   32.6030   29.9110   33.9960 H   0  0  0  0  0  0  0  0  0  0  0  0
   32.3220   30.8170   35.8280 C   0  0  0  0  0  3  0  0  0  0  0  0
   32.8870   31.5310   36.8680 C   0  0  0  0  0  3  0  0  0  0  0  0
   34.2190   31.8890   36.8510 C   0  0  0  0  0  0  0  0  0  0  0  0
   36.3760   31.8200   35.6180 O   0  0  0  0  0  0  0  0  0  0  0  0
   36.8220   32.3230   36.3850 H   0  0  0  0  0  0  0  0  0  0  0  0
   34.8550   32.6040   37.8560 O   0  0  0  0  0  0  0  0  0  0  0  0
   34.5880   32.4630   38.8300 H   0  0  0  0  0  0  0  0  0  0  0  0
   36.5790   24.9260   31.5820 C   0  0  0  0  0  0  0  0  0  0  0  0
   37.3610   23.8720   32.0190 C   0  0  0  0  0  0  0  0  0  0  0  0
   38.0200   24.1350   33.2220 C   0  0  0  0  0  0  0  0  0  0  0  0
   37.8910   25.3480   33.9030 C   0  0  0  0  0  0  0  0  0  0  0  0
   37.0630   26.3560   33.3600 C   0  0  0  0  0  0  0  0  0  0  0  0
   36.3970   26.1190   32.1660 C   0  0  0  0  0  0  0  0  0  0  0  0
   38.6660   23.3680   33.6600 H   0  0  0  0  0  0  0  0  0  0  0  0
   38.4130   25.5210   34.8290 H   0  0  0  0  0  0  0  0  0  0  0  0
   36.9820   27.2800   33.9080 H   0  0  0  0  0  0  0  0  0  0  0  0
   38.5980   22.4120   30.4970 C   0  0  0  0  0  0  0  0  0  0  0  0
   37.4980   22.6300   31.3310 C   0  0  0  0  0  0  0  0  0  0  0  0
   36.5580   21.6030   31.4580 C   0  0  0  0  0  0  0  0  0  0  0  0
   36.7750   20.4540   30.7610 N   0  0  0  0  0  0  0  0  0  0  0  0
   37.8550   20.2800   29.9620 C   0  0  0  0  0  0  0  0  0  0  0  0
   38.7580   21.2520   29.8310 N   0  0  0  0  0  0  0  0  0  0  0  0
   39.3580   23.1680   30.3590 H   0  0  0  0  0  0  0  0  0  0  0  0
   37.9030   19.3260   29.4690 H   0  0  0  0  0  0  0  0  0  0  0  0
   35.3740   21.7840   32.3290 C   0  0  0  0  0  0  0  0  0  0  0  0
   34.6720   20.9370   32.1380 H   0  0  0  0  0  0  0  0  0  0  0  0
   35.6530   21.8260   33.4110 H   0  0  0  0  0  0  0  0  0  0  0  0
   34.8890   22.7640   32.1200 H   0  0  0  0  0  0  0  0  0  0  0  0
   35.8680   24.7630   30.3720 O   0  0  0  0  0  0  0  0  0  0  0  0
   34.9170   24.4030   30.4490 H   0  0  0  0  0  0  0  0  0  0  0  0
  1  3  1  0  0  0  0
  1 31  1  0  0  0  0
  2 10  1  0  0  0  0
  2 11  1  0  0  0  0
  3  2  2  0  0  0  0
  4  5  2  0  0  0  0
  4  3  1  0  0  0  0
  5  9  1  0  0  0  0
  6  5  1  0  0  0  0
  6  7  1  0  0  0  0
  7  8  2  0  0  0  0
  9  8  1  0  0  0  0
  9 10  2  0  0  0  0
 10 16  1  0  0  0  0
 12  4  1  0  0  0  0
 13  6  1  0  0  0  0
 14  7  1  0  0  0  0
 15 21  1  0  0  0  0
 16 17  1  0  0  0  0
 16 15  2  0  0  0  0
 17 19  2  0  0  0  0
 18 17  1  0  0  0  0
 19 20  1  0  0  0  0
 21 20  2  0  0  0  0
 21 24  1  0  0  0  0
 22 15  1  0  0  0  0
 22 23  1  0  0  0  0
 24 25  1  0  0  0  0
 26 27  2  0  0  0  0
 26 31  1  0  0  0  0
 27 28  1  0  0  0  0
 28 32  1  0  0  0  0
 28 29  2  0  0  0  0
 29 33  1  0  0  0  0
 30 29  1  0  0  0  0
 30 34  1  0  0  0  0
 31 30  2  0  0  0  0
 35 36  1  0  0  0  0
 36 37  2  0  0  0  0
 36 27  1  0  0  0  0
 37 43  1  0  0  0  0
 38 37  1  0  0  0  0
 39 38  2  0  0  0  0
 40 39  1  0  0  0  0
 40 35  2  0  0  0  0
 41 35  1  0  0  0  0
 42 39  1  0  0  0  0
 43 45  1  0  0  0  0
 44 43  1  0  0  0  0
 46 43  1  0  0  0  0
 47 48  1  0  0  0  0
 47 26  1  0  0  0  0
M  END
>  <minimizedAffinity>
-6.92526817

$$$$

 OpenBabel03272509233D

 48 52  0  0  0  0  0  0  0  0999 V2000
   37.3750   28.1540   32.6110 O   0  0  0  0  0  0  0  0  0  0  0  0
   35.5840   29.3330   33.9000 C   0  0  0  0  0  0  0  0  0  0  0  0
   36.3160   29.0070   32.7730 C   0  0  0  0  0  0  0  0  0  0  0  0
   35.9740   29.6070   31.5670 C   0  0  0  0  0  0  0  0  0  0  0  0
   34.9200   30.5200   31.4740 C   0  0  0  0  0  0  0  0  0  0  0  0
   34.3620   31.2440   30.4990 N   0  0  0  0  0  0  0  0  0  0  0  0
   33.3470   31.9770   30.9790 C   0  0  0  0  0  0  0  0  0  0  0  0
   33.2590   31.7060   32.3170 N   0  0  0  0  0  0  0  0  0  0  0  0
   34.2150   30.8160   32.6320 C   0  0  0  0  0  0  0  0  0  0  0  0
   34.5450   30.2280   33.8320 C   0  0  0  0  0  0  0  0  0  0  0  0
   35.9340   28.8090   34.7830 H   0  0  0  0  0  0  0  0  0  0  0  0
   36.4590   29.4510   30.5900 H   0  0  0  0  0  0  0  0  0  0  0  0
   34.6800   31.2320   29.5070 H   0  0  0  0  0  0  0  0  0  0  0  0
   32.7330   32.6450   30.3980 H   0  0  0  0  0  0  0  0  0  0  0  0
   32.6860   29.9350   35.5780 C   0  0  0  0  0  0  0  0  0  0  0  0
   33.8470   30.4940   35.0840 C   0  0  0  0  0  0  0  0  0  0  0  0
   34.5110   31.4670   35.8380 C   0  0  0  0  0  0  0  0  0  0  0  0
   35.4370   31.9780   35.5490 H   0  0  0  0  0  0  0  0  0  0  0  0
   34.0390   31.8860   37.0630 C   0  0  0  0  0  3  0  0  0  0  0  0
   32.8740   31.3100   37.5330 C   0  0  0  0  0  3  0  0  0  0  0  0
   32.2050   30.3490   36.8030 C   0  0  0  0  0  0  0  0  0  0  0  0
   32.1370   28.9870   34.7250 O   0  0  0  0  0  0  0  0  0  0  0  0
   31.2610   28.5680   35.0370 H   0  0  0  0  0  0  0  0  0  0  0  0
   31.0330   29.7270   37.2090 O   0  0  0  0  0  0  0  0  0  0  0  0
   30.3360   30.2480   37.7400 H   0  0  0  0  0  0  0  0  0  0  0  0
   37.9280   26.1520   33.8580 C   0  0  0  0  0  0  0  0  0  0  0  0
   37.9600   24.7900   34.0970 C   0  0  0  0  0  0  0  0  0  0  0  0
   37.3390   24.0390   33.0960 C   0  0  0  0  0  0  0  0  0  0  0  0
   36.7480   24.6240   31.9720 C   0  0  0  0  0  0  0  0  0  0  0  0
   36.7760   26.0290   31.8340 C   0  0  0  0  0  0  0  0  0  0  0  0
   37.3870   26.7970   32.8140 C   0  0  0  0  0  0  0  0  0  0  0  0
   37.3060   22.9490   33.1830 H   0  0  0  0  0  0  0  0  0  0  0  0
   36.2770   24.0170   31.2170 H   0  0  0  0  0  0  0  0  0  0  0  0
   36.3130   26.4500   30.9560 H   0  0  0  0  0  0  0  0  0  0  0  0
   37.8100   23.9960   36.4050 C   0  0  0  0  0  0  0  0  0  0  0  0
   38.5600   24.1860   35.2400 C   0  0  0  0  0  0  0  0  0  0  0  0
   39.8940   23.7690   35.2460 C   0  0  0  0  0  0  0  0  0  0  0  0
   40.3790   23.2020   36.3850 N   0  0  0  0  0  0  0  0  0  0  0  0
   39.6190   23.0360   37.4940 C   0  0  0  0  0  0  0  0  0  0  0  0
   38.3450   23.4300   37.5030 N   0  0  0  0  0  0  0  0  0  0  0  0
   36.7740   24.2980   36.4610 H   0  0  0  0  0  0  0  0  0  0  0  0
   40.1270   22.5760   38.3230 H   0  0  0  0  0  0  0  0  0  0  0  0
   40.7320   23.9470   34.0370 C   0  0  0  0  0  0  0  0  0  0  0  0
   41.7910   23.7280   34.3160 H   0  0  0  0  0  0  0  0  0  0  0  0
   40.4030   23.2860   33.1980 H   0  0  0  0  0  0  0  0  0  0  0  0
   40.6260   24.9830   33.6450 H   0  0  0  0  0  0  0  0  0  0  0  0
   38.5300   27.0040   34.8120 O   0  0  0  0  0  0  0  0  0  0  0  0
   39.5090   27.2410   34.6540 H   0  0  0  0  0  0  0  0  0  0  0  0
  1  3  1  0  0  0  0
  1 31  1  0  0  0  0
  2 11  1  0  0  0  0
  3  2  2  0  0  0  0
  4  3  1  0  0  0  0
  5  4  2  0  0  0  0
  5  9  1  0  0  0  0
  6  7  1  0  0  0  0
  6  5  1  0  0  0  0
  7  8  2  0  0  0  0
  8  9  1  0  0  0  0
  9 10  2  0  0  0  0
 10  2  1  0  0  0  0
 10 16  1  0  0  0  0
 12  4  1  0  0  0  0
 13  6  1  0  0  0  0
 14  7  1  0  0  0  0
 15 21  1  0  0  0  0
 16 15  2  0  0  0  0
 16 17  1  0  0  0  0
 17 19  2  0  0  0  0
 18 17  1  0  0  0  0
 19 20  1  0  0  0  0
 21 24  1  0  0  0  0
 21 20  2  0  0  0  0
 22 23  1  0  0  0  0
 22 15  1  0  0  0  0
 24 25  1  0  0  0  0
 26 27  1  0  0  0  0
 26 47  1  0  0  0  0
 27 36  1  0  0  0  0
 28 32  1  0  0  0  0
 28 27  2  0  0  0  0
 29 28  1  0  0  0  0
 30 29  2  0  0  0  0
 30 31  1  0  0  0  0
 31 26  2  0  0  0  0
 33 29  1  0  0  0  0
 34 30  1  0  0  0  0
 35 41  1  0  0  0  0
 35 40  1  0  0  0  0
 36 37  1  0  0  0  0
 36 35  2  0  0  0  0
 37 38  2  0  0  0  0
 38 39  1  0  0  0  0
 39 40  2  0  0  0  0
 39 42  1  0  0  0  0
 43 44  1  0  0  0  0
 43 37  1  0  0  0  0
 45 43  1  0  0  0  0
 46 43  1  0  0  0  0
 48 47  1  0  0  0  0
M  END
>  <minimizedAffinity>
-6.92201138

$$$$

 OpenBabel03272509233D

 48 52  0  0  0  0  0  0  0  0999 V2000
   37.3370   26.4000   32.0360 O   0  0  0  0  0  0  0  0  0  0  0  0
   38.5320   24.7130   33.4430 C   0  0  0  0  0  0  0  0  0  0  0  0
   37.5840   25.1500   32.5380 C   0  0  0  0  0  0  0  0  0  0  0  0
   36.6990   24.2180   32.0060 C   0  0  0  0  0  0  0  0  0  0  0  0
   36.7510   22.8690   32.3650 C   0  0  0  0  0  0  0  0  0  0  0  0
   36.0690   21.7650   32.0460 N   0  0  0  0  0  0  0  0  0  0  0  0
   36.5550   20.7040   32.7060 C   0  0  0  0  0  0  0  0  0  0  0  0
   37.5910   21.1560   33.4770 N   0  0  0  0  0  0  0  0  0  0  0  0
   37.7210   22.4780   33.2780 C   0  0  0  0  0  0  0  0  0  0  0  0
   38.6020   23.3920   33.8100 C   0  0  0  0  0  0  0  0  0  0  0  0
   39.1690   25.5190   33.7930 H   0  0  0  0  0  0  0  0  0  0  0  0
   35.8940   24.4120   31.2800 H   0  0  0  0  0  0  0  0  0  0  0  0
   35.2720   21.7450   31.3750 H   0  0  0  0  0  0  0  0  0  0  0  0
   36.1810   19.6970   32.6240 H   0  0  0  0  0  0  0  0  0  0  0  0
   39.5270   22.4860   36.0270 C   0  0  0  0  0  0  0  0  0  0  0  0
   39.6430   23.0480   34.7720 C   0  0  0  0  0  0  0  0  0  0  0  0
   40.9130   23.3650   34.2800 C   0  0  0  0  0  0  0  0  0  0  0  0
   41.1260   23.8120   33.3020 H   0  0  0  0  0  0  0  0  0  0  0  0
   42.0560   23.1310   35.0130 C   0  0  0  0  0  3  0  0  0  0  0  0
   41.9110   22.5670   36.2660 C   0  0  0  0  0  3  0  0  0  0  0  0
   40.6660   22.2490   36.7680 C   0  0  0  0  0  0  0  0  0  0  0  0
   38.2100   22.2260   36.3840 O   0  0  0  0  0  0  0  0  0  0  0  0
   38.0750   21.8350   37.3160 H   0  0  0  0  0  0  0  0  0  0  0  0
   40.4420   21.6820   38.0150 O   0  0  0  0  0  0  0  0  0  0  0  0
   41.0350   21.9340   38.8050 H   0  0  0  0  0  0  0  0  0  0  0  0
   35.9610   28.3900   32.1460 C   0  0  0  0  0  0  0  0  0  0  0  0
   35.3580   29.4670   32.7710 C   0  0  0  0  0  0  0  0  0  0  0  0
   35.6460   29.5470   34.1350 C   0  0  0  0  0  0  0  0  0  0  0  0
   36.4650   28.6210   34.7880 C   0  0  0  0  0  0  0  0  0  0  0  0
   37.0270   27.5580   34.0460 C   0  0  0  0  0  0  0  0  0  0  0  0
   36.7550   27.4570   32.6890 C   0  0  0  0  0  0  0  0  0  0  0  0
   35.2210   30.3620   34.7280 H   0  0  0  0  0  0  0  0  0  0  0  0
   36.6680   28.7090   35.8420 H   0  0  0  0  0  0  0  0  0  0  0  0
   37.6540   26.8600   34.5760 H   0  0  0  0  0  0  0  0  0  0  0  0
   35.0930   31.4830   31.4110 C   0  0  0  0  0  0  0  0  0  0  0  0
   34.5220   30.4170   32.1130 C   0  0  0  0  0  0  0  0  0  0  0  0
   33.1270   30.3250   32.1430 C   0  0  0  0  0  0  0  0  0  0  0  0
   32.4130   31.2790   31.4850 N   0  0  0  0  0  0  0  0  0  0  0  0
   33.0040   32.2970   30.8150 C   0  0  0  0  0  0  0  0  0  0  0  0
   34.3330   32.3980   30.7790 N   0  0  0  0  0  0  0  0  0  0  0  0
   36.1640   31.6070   31.3520 H   0  0  0  0  0  0  0  0  0  0  0  0
   32.3220   32.9810   30.3410 H   0  0  0  0  0  0  0  0  0  0  0  0
   32.4720   29.2150   32.8730 C   0  0  0  0  0  0  0  0  0  0  0  0
   31.3800   29.4360   32.9300 H   0  0  0  0  0  0  0  0  0  0  0  0
   32.6470   28.2280   32.3790 H   0  0  0  0  0  0  0  0  0  0  0  0
   32.9150   29.1090   33.8890 H   0  0  0  0  0  0  0  0  0  0  0  0
   35.7320   28.2170   30.7620 O   0  0  0  0  0  0  0  0  0  0  0  0
   36.4070   28.6530   30.1340 H   0  0  0  0  0  0  0  0  0  0  0  0
  1  3  1  0  0  0  0
  1 31  1  0  0  0  0
  2 11  1  0  0  0  0
  2 10  1  0  0  0  0
  3  2  2  0  0  0  0
  4  5  2  0  0  0  0
  4  3  1  0  0  0  0
  5  9  1  0  0  0  0
  6  5  1  0  0  0  0
  6  7  1  0  0  0  0
  7  8  2  0  0  0  0
  9  8  1  0  0  0  0
  9 10  2  0  0  0  0
 10 16  1  0  0  0  0
 12  4  1  0  0  0  0
 13  6  1  0  0  0  0
 14  7  1  0  0  0  0
 15 22  1  0  0  0  0
 15 21  1  0  0  0  0
 16 15  2  0  0  0  0
 17 16  1  0  0  0  0
 17 19  2  0  0  0  0
 18 17  1  0  0  0  0
 19 20  1  0  0  0  0
 20 21  2  0  0  0  0
 21 24  1  0  0  0  0
 22 23  1  0  0  0  0
 24 25  1  0  0  0  0
 26 31  2  0  0  0  0
 26 27  1  0  0  0  0
 27 28  2  0  0  0  0
 28 32  1  0  0  0  0
 28 29  1  0  0  0  0
 29 33  1  0  0  0  0
 30 34  1  0  0  0  0
 30 29  2  0  0  0  0
 31 30  1  0  0  0  0
 35 36  1  0  0  0  0
 36 37  2  0  0  0  0
 36 27  1  0  0  0  0
 37 43  1  0  0  0  0
 38 37  1  0  0  0  0
 39 38  2  0  0  0  0
 40 39  1  0  0  0  0
 40 35  2  0  0  0  0
 41 35  1  0  0  0  0
 42 39  1  0  0  0  0
 43 44  1  0  0  0  0
 43 46  1  0  0  0  0
 45 43  1  0  0  0  0
 47 26  1  0  0  0  0
 48 47  1  0  0  0  0
M  END
>  <minimizedAffinity>
-6.82169628

$$$$

 OpenBabel03272509233D

 48 52  0  0  0  0  0  0  0  0999 V2000
   37.1530   28.2800   33.5870 O   0  0  0  0  0  0  0  0  0  0  0  0
   37.8200   26.2330   34.8610 C   0  0  0  0  0  0  0  0  0  0  0  0
   37.3710   26.9380   33.7600 C   0  0  0  0  0  0  0  0  0  0  0  0
   37.0700   26.2330   32.6010 C   0  0  0  0  0  0  0  0  0  0  0  0
   37.2120   24.8450   32.5290 C   0  0  0  0  0  0  0  0  0  0  0  0
   37.0140   23.9080   31.5960 N   0  0  0  0  0  0  0  0  0  0  0  0
   37.3190   22.6940   32.0770 C   0  0  0  0  0  0  0  0  0  0  0  0
   37.7280   22.8690   33.3710 N   0  0  0  0  0  0  0  0  0  0  0  0
   37.6670   24.1800   33.6590 C   0  0  0  0  0  0  0  0  0  0  0  0
   37.9680   24.8690   34.8120 C   0  0  0  0  0  0  0  0  0  0  0  0
   38.0250   26.8790   35.7080 H   0  0  0  0  0  0  0  0  0  0  0  0
   36.7040   26.6510   31.6500 H   0  0  0  0  0  0  0  0  0  0  0  0
   36.6710   24.1070   30.6330 H   0  0  0  0  0  0  0  0  0  0  0  0
   37.2460   21.7710   31.5260 H   0  0  0  0  0  0  0  0  0  0  0  0
   39.5640   23.4450   36.2320 C   0  0  0  0  0  0  0  0  0  0  0  0
   38.4490   24.2330   36.0340 C   0  0  0  0  0  0  0  0  0  0  0  0
   37.6050   24.5080   37.1140 C   0  0  0  0  0  0  0  0  0  0  0  0
   36.6960   25.1190   37.0760 H   0  0  0  0  0  0  0  0  0  0  0  0
   37.8550   24.0140   38.3760 C   0  0  0  0  0  3  0  0  0  0  0  0
   38.9790   23.2270   38.5470 C   0  0  0  0  0  3  0  0  0  0  0  0
   39.8220   22.9450   37.4920 C   0  0  0  0  0  0  0  0  0  0  0  0
   40.3060   23.2560   35.0740 O   0  0  0  0  0  0  0  0  0  0  0  0
   41.1250   22.6560   35.1680 H   0  0  0  0  0  0  0  0  0  0  0  0
   40.9660   22.1650   37.5860 O   0  0  0  0  0  0  0  0  0  0  0  0
   40.9880   21.3660   38.2180 H   0  0  0  0  0  0  0  0  0  0  0  0
   35.5050   29.8200   34.4670 C   0  0  0  0  0  0  0  0  0  0  0  0
   34.2970   30.4940   34.4820 C   0  0  0  0  0  0  0  0  0  0  0  0
   33.4700   30.1680   33.4040 C   0  0  0  0  0  0  0  0  0  0  0  0
   33.8430   29.2500   32.4190 C   0  0  0  0  0  0  0  0  0  0  0  0
   35.1050   28.6220   32.5070 C   0  0  0  0  0  0  0  0  0  0  0  0
   35.9450   28.9290   33.5680 C   0  0  0  0  0  0  0  0  0  0  0  0
   32.4880   30.6420   33.3170 H   0  0  0  0  0  0  0  0  0  0  0  0
   33.1820   29.0200   31.6000 H   0  0  0  0  0  0  0  0  0  0  0  0
   35.3640   27.9190   31.7330 H   0  0  0  0  0  0  0  0  0  0  0  0
   34.4630   32.7140   35.4930 C   0  0  0  0  0  0  0  0  0  0  0  0
   33.9080   31.4310   35.4830 C   0  0  0  0  0  0  0  0  0  0  0  0
   32.9780   31.1130   36.4770 C   0  0  0  0  0  0  0  0  0  0  0  0
   32.6700   32.0740   37.3910 N   0  0  0  0  0  0  0  0  0  0  0  0
   33.2300   33.3070   37.3660 C   0  0  0  0  0  0  0  0  0  0  0  0
   34.1200   33.6240   36.4250 N   0  0  0  0  0  0  0  0  0  0  0  0
   35.1870   33.0180   34.7510 H   0  0  0  0  0  0  0  0  0  0  0  0
   32.8990   33.9690   38.1470 H   0  0  0  0  0  0  0  0  0  0  0  0
   32.3600   29.7670   36.5120 C   0  0  0  0  0  0  0  0  0  0  0  0
   31.8060   29.6670   37.4760 H   0  0  0  0  0  0  0  0  0  0  0  0
   31.6730   29.5990   35.6460 H   0  0  0  0  0  0  0  0  0  0  0  0
   33.1430   28.9830   36.4140 H   0  0  0  0  0  0  0  0  0  0  0  0
   36.4180   30.0790   35.5150 O   0  0  0  0  0  0  0  0  0  0  0  0
   36.3590   29.4670   36.3280 H   0  0  0  0  0  0  0  0  0  0  0  0
  1  3  1  0  0  0  0
  2 11  1  0  0  0  0
  3  2  2  0  0  0  0
  4  3  1  0  0  0  0
  5  4  2  0  0  0  0
  5  9  1  0  0  0  0
  6  7  1  0  0  0  0
  6  5  1  0  0  0  0
  7  8  2  0  0  0  0
  8  9  1  0  0  0  0
  9 10  2  0  0  0  0
 10  2  1  0  0  0  0
 10 16  1  0  0  0  0
 12  4  1  0  0  0  0
 13  6  1  0  0  0  0
 14  7  1  0  0  0  0
 15 21  1  0  0  0  0
 16 15  2  0  0  0  0
 16 17  1  0  0  0  0
 17 19  2  0  0  0  0
 18 17  1  0  0  0  0
 19 20  1  0  0  0  0
 21 24  1  0  0  0  0
 21 20  2  0  0  0  0
 22 23  1  0  0  0  0
 22 15  1  0  0  0  0
 24 25  1  0  0  0  0
 26 27  1  0  0  0  0
 26 47  1  0  0  0  0
 27 36  1  0  0  0  0
 28 27  2  0  0  0  0
 29 30  2  0  0  0  0
 29 28  1  0  0  0  0
 30 31  1  0  0  0  0
 31  1  1  0  0  0  0
 31 26  2  0  0  0  0
 32 28  1  0  0  0  0
 33 29  1  0  0  0  0
 34 30  1  0  0  0  0
 35 40  1  0  0  0  0
 36 35  2  0  0  0  0
 36 37  1  0  0  0  0
 37 43  1  0  0  0  0
 37 38  2  0  0  0  0
 39 38  1  0  0  0  0
 39 42  1  0  0  0  0
 40 39  2  0  0  0  0
 41 35  1  0  0  0  0
 43 44  1  0  0  0  0
 45 43  1  0  0  0  0
 46 43  1  0  0  0  0
 47 48  1  0  0  0  0
M  END
>  <minimizedAffinity>
-6.7443018

$$$$

 OpenBabel03272509233D

 48 52  0  0  0  0  0  0  0  0999 V2000
   36.9610   27.3660   32.8570 O   0  0  0  0  0  0  0  0  0  0  0  0
   35.5690   29.0710   34.0470 C   0  0  0  0  0  0  0  0  0  0  0  0
   36.1890   28.4940   32.9550 C   0  0  0  0  0  0  0  0  0  0  0  0
   36.0480   29.1070   31.7150 C   0  0  0  0  0  0  0  0  0  0  0  0
   35.3030   30.2780   31.5570 C   0  0  0  0  0  0  0  0  0  0  0  0
   34.9880   31.0830   30.5370 N   0  0  0  0  0  0  0  0  0  0  0  0
   34.2200   32.0990   30.9590 C   0  0  0  0  0  0  0  0  0  0  0  0
   34.0420   31.9300   32.3050 N   0  0  0  0  0  0  0  0  0  0  0  0
   34.6990   30.8200   32.6820 C   0  0  0  0  0  0  0  0  0  0  0  0
   34.8310   30.2210   33.9140 C   0  0  0  0  0  0  0  0  0  0  0  0
   35.7440   28.5120   34.9610 H   0  0  0  0  0  0  0  0  0  0  0  0
   36.4790   28.7710   30.7590 H   0  0  0  0  0  0  0  0  0  0  0  0
   35.3000   30.9310   29.5550 H   0  0  0  0  0  0  0  0  0  0  0  0
   33.8310   32.8850   30.3340 H   0  0  0  0  0  0  0  0  0  0  0  0
   34.6790   31.7160   35.9960 C   0  0  0  0  0  0  0  0  0  0  0  0
   34.2240   30.7370   35.1360 C   0  0  0  0  0  0  0  0  0  0  0  0
   33.0100   30.0990   35.4080 C   0  0  0  0  0  0  0  0  0  0  0  0
   32.5510   29.3120   34.7980 H   0  0  0  0  0  0  0  0  0  0  0  0
   32.2520   30.4190   36.5130 C   0  0  0  0  0  3  0  0  0  0  0  0
   32.7310   31.4030   37.3570 C   0  0  0  0  0  3  0  0  0  0  0  0
   33.9270   32.0420   37.1050 C   0  0  0  0  0  0  0  0  0  0  0  0
   35.8950   32.2600   35.6020 O   0  0  0  0  0  0  0  0  0  0  0  0
   36.2820   32.9680   36.2250 H   0  0  0  0  0  0  0  0  0  0  0  0
   34.4710   33.0370   37.9060 O   0  0  0  0  0  0  0  0  0  0  0  0
   34.3500   33.0010   38.9170 H   0  0  0  0  0  0  0  0  0  0  0  0
   39.3620   27.1600   32.6220 C   0  0  0  0  0  0  0  0  0  0  0  0
   40.6580   26.9800   33.0730 C   0  0  0  0  0  0  0  0  0  0  0  0
   40.7420   26.8080   34.4570 C   0  0  0  0  0  0  0  0  0  0  0  0
   39.6170   26.8190   35.2870 C   0  0  0  0  0  0  0  0  0  0  0  0
   38.3410   27.0120   34.7140 C   0  0  0  0  0  0  0  0  0  0  0  0
   38.2310   27.1850   33.3420 C   0  0  0  0  0  0  0  0  0  0  0  0
   41.7200   26.6570   34.9220 H   0  0  0  0  0  0  0  0  0  0  0  0
   39.7150   26.6830   36.3520 H   0  0  0  0  0  0  0  0  0  0  0  0
   37.4940   27.0150   35.3790 H   0  0  0  0  0  0  0  0  0  0  0  0
   42.4950   28.1560   31.9690 C   0  0  0  0  0  0  0  0  0  0  0  0
   41.8100   26.9670   32.2330 C   0  0  0  0  0  0  0  0  0  0  0  0
   42.2900   25.7910   31.6500 C   0  0  0  0  0  0  0  0  0  0  0  0
   43.3970   25.8780   30.8620 N   0  0  0  0  0  0  0  0  0  0  0  0
   44.0340   27.0510   30.6300 C   0  0  0  0  0  0  0  0  0  0  0  0
   43.5860   28.1800   31.1790 N   0  0  0  0  0  0  0  0  0  0  0  0
   42.1720   29.0970   32.3910 H   0  0  0  0  0  0  0  0  0  0  0  0
   44.8940   26.9780   29.9890 H   0  0  0  0  0  0  0  0  0  0  0  0
   41.6000   24.5040   31.8980 C   0  0  0  0  0  0  0  0  0  0  0  0
   42.0250   23.7440   31.1990 H   0  0  0  0  0  0  0  0  0  0  0  0
   41.7110   24.1670   32.9580 H   0  0  0  0  0  0  0  0  0  0  0  0
   40.5040   24.6210   31.7480 H   0  0  0  0  0  0  0  0  0  0  0  0
   39.1660   27.3440   31.2350 O   0  0  0  0  0  0  0  0  0  0  0  0
   38.9860   26.5030   30.6870 H   0  0  0  0  0  0  0  0  0  0  0  0
  1  3  1  0  0  0  0
  1 31  1  0  0  0  0
  2 11  1  0  0  0  0
  3  2  2  0  0  0  0
  4  3  1  0  0  0  0
  5  4  2  0  0  0  0
  5  9  1  0  0  0  0
  6  7  1  0  0  0  0
  6  5  1  0  0  0  0
  7  8  2  0  0  0  0
  8  9  1  0  0  0  0
  9 10  2  0  0  0  0
 10  2  1  0  0  0  0
 10 16  1  0  0  0  0
 12  4  1  0  0  0  0
 13  6  1  0  0  0  0
 14  7  1  0  0  0  0
 15 21  1  0  0  0  0
 16 17  1  0  0  0  0
 16 15  2  0  0  0  0
 17 19  2  0  0  0  0
 18 17  1  0  0  0  0
 19 20  1  0  0  0  0
 21 20  2  0  0  0  0
 21 24  1  0  0  0  0
 22 15  1  0  0  0  0
 22 23  1  0  0  0  0
 24 25  1  0  0  0  0
 26 27  2  0  0  0  0
 26 31  1  0  0  0  0
 27 28  1  0  0  0  0
 28 32  1  0  0  0  0
 28 29  2  0  0  0  0
 29 33  1  0  0  0  0
 30 29  1  0  0  0  0
 30 34  1  0  0  0  0
 31 30  2  0  0  0  0
 35 36  1  0  0  0  0
 35 41  1  0  0  0  0
 36 27  1  0  0  0  0
 37 43  1  0  0  0  0
 37 36  2  0  0  0  0
 38 37  1  0  0  0  0
 39 38  2  0  0  0  0
 39 40  1  0  0  0  0
 40 35  2  0  0  0  0
 42 39  1  0  0  0  0
 43 45  1  0  0  0  0
 44 43  1  0  0  0  0
 46 43  1  0  0  0  0
 47 26  1  0  0  0  0
 48 47  1  0  0  0  0
M  END
>  <minimizedAffinity>
-6.71905565

$$$$
