
 OpenBabel03272502203D

 30 32  0  0  0  0  0  0  0  0999 V2000
   36.2580   30.4970   46.8220 C   0  0  0  0  0  0  0  0  0  0  0  0
   36.6620   30.4170   45.4750 C   0  0  0  0  0  0  0  0  0  0  0  0
   35.7780   29.8200   44.5620 C   0  0  0  0  0  0  0  0  0  0  0  0
   34.5710   29.3430   45.0070 N   0  0  0  0  0  0  0  0  0  0  0  0
   34.2400   29.4530   46.3330 C   0  0  0  0  0  0  0  0  0  0  0  0
   35.0730   30.0200   47.2150 N   0  0  0  0  0  0  0  0  0  0  0  0
   37.6000   30.7850   45.1170 H   0  0  0  0  0  0  0  0  0  0  0  0
   36.0150   29.7200   43.5070 H   0  0  0  0  0  0  0  0  0  0  0  0
   34.4600   27.8560   49.0250 Br  0  0  0  0  0  0  0  0  0  0  0  0
   32.8970   28.2160   48.0030 C   0  0  0  0  0  0  0  0  0  0  0  0
   32.9570   28.9450   46.8150 C   0  0  0  0  0  0  0  0  0  0  0  0
   31.7810   29.1490   46.1470 C   0  0  0  0  0  0  0  0  0  0  0  0
   30.5490   28.6880   46.5630 C   0  0  0  0  0  0  0  0  0  0  0  0
   30.5200   27.9730   47.7340 C   0  0  0  0  0  0  0  0  0  0  0  0
   31.6950   27.7390   48.4530 C   0  0  0  0  0  0  0  0  0  0  0  0
   31.8890   29.7250   45.2280 H   0  0  0  0  0  0  0  0  0  0  0  0
   29.6550   28.8820   45.9900 H   0  0  0  0  0  0  0  0  0  0  0  0
   29.5710   27.5940   48.0940 H   0  0  0  0  0  0  0  0  0  0  0  0
   31.6110   27.1640   49.3780 H   0  0  0  0  0  0  0  0  0  0  0  0
   37.9440   32.1680   47.4650 C   0  0  0  0  0  0  0  0  0  0  0  0
   37.1350   31.1060   47.8100 C   0  0  0  0  0  0  0  0  0  0  0  0
   37.2540   30.7190   49.1250 C   0  0  0  0  0  0  0  0  0  0  0  0
   36.6520   29.8940   49.4690 H   0  0  0  0  0  0  0  0  0  0  0  0
   38.1060   31.3380   50.0170 C   0  0  0  0  0  0  0  0  0  0  0  0
   38.8870   32.3960   49.6010 C   0  0  0  0  0  0  0  0  0  0  0  0
   38.8070   32.8250   48.2930 C   0  0  0  0  0  0  0  0  0  0  0  0
   37.8990   32.6380   46.1520 O   0  0  0  0  0  0  0  0  0  0  0  0
   37.4090   33.4700   45.9240 H   0  0  0  0  0  0  0  0  0  0  0  0
   39.5880   33.8910   47.8550 O   0  0  0  0  0  0  0  0  0  0  0  0
   39.5460   34.7190   48.4450 H   0  0  0  0  0  0  0  0  0  0  0  0
  1  6  1  0  0  0  0
  1 21  1  0  0  0  0
  2  1  2  0  0  0  0
  3  4  2  0  0  0  0
  3  2  1  0  0  0  0
  4  5  1  0  0  0  0
  5 11  1  0  0  0  0
  5  6  2  0  0  0  0
  7  2  1  0  0  0  0
  8  3  1  0  0  0  0
 10 15  1  0  0  0  0
 10  9  1  0  0  0  0
 11 10  2  0  0  0  0
 12 13  2  0  0  0  0
 12 11  1  0  0  0  0
 13 14  1  0  0  0  0
 14 18  1  0  0  0  0
 14 15  2  0  0  0  0
 15 19  1  0  0  0  0
 16 12  1  0  0  0  0
 17 13  1  0  0  0  0
 20 21  2  0  0  0  0
 20 26  1  0  0  0  0
 21 22  1  0  0  0  0
 22 23  1  0  0  0  0
 22 24  2  0  0  0  0
 25 24  1  0  0  0  0
 26 25  2  0  0  0  0
 27 20  1  0  0  0  0
 28 27  1  0  0  0  0
 29 26  1  0  0  0  0
 29 30  1  0  0  0  0
M  END
>  <minimizedAffinity>
-6.25473547

>  <minimizedRMSD>
4.30367804

$$$$
