
 OpenBabel03262523493D

 40 43  0  0  0  0  0  0  0  0999 V2000
   38.7230   26.5910   35.0450 Cl  0  0  0  0  0  0  0  0  0  0  0  0
   37.9820   25.3910   33.9700 C   0  0  0  0  0  0  0  0  0  0  0  0
   37.1800   25.9080   32.9820 C   0  0  0  0  0  0  0  0  0  0  0  0
   36.5480   25.0470   32.0800 C   0  0  0  0  0  0  0  0  0  0  0  0
   36.7310   23.6750   32.1830 C   0  0  0  0  0  0  0  0  0  0  0  0
   37.5370   23.1900   33.1800 C   0  0  0  0  0  0  0  0  0  0  0  0
   38.1660   24.0280   34.0750 C   0  0  0  0  0  0  0  0  0  0  0  0
   35.9110   25.3830   31.2890 H   0  0  0  0  0  0  0  0  0  0  0  0
   36.2590   22.9740   31.5040 H   0  0  0  0  0  0  0  0  0  0  0  0
   37.7450   22.1410   33.3450 H   0  0  0  0  0  0  0  0  0  0  0  0
   35.8680   31.6820   32.2440 Cl  0  0  0  0  0  0  0  0  0  0  0  0
   36.2520   29.9910   32.4610 C   0  0  0  0  0  0  0  0  0  0  0  0
   35.8920   29.3250   33.6250 C   0  0  0  0  0  0  0  0  0  0  0  0
   36.2230   27.9980   33.7350 C   0  0  0  0  0  0  0  0  0  0  0  0
   36.8890   27.3160   32.7430 C   0  0  0  0  0  0  0  0  0  0  0  0
   37.2350   28.0230   31.5800 C   0  0  0  0  0  0  0  0  0  0  0  0
   38.0760   27.1290   30.3450 Cl  0  0  0  0  0  0  0  0  0  0  0  0
   36.9200   29.3580   31.4340 C   0  0  0  0  0  0  0  0  0  0  0  0
   35.9340   27.4990   34.6480 H   0  0  0  0  0  0  0  0  0  0  0  0
   37.2040   29.8620   30.5250 H   0  0  0  0  0  0  0  0  0  0  0  0
   35.1570   31.6970   36.4880 C   0  0  0  0  0  0  0  0  0  0  0  0
   35.8610   30.9650   35.5220 C   0  0  0  0  0  0  0  0  0  0  0  0
   35.1820   30.1080   34.6510 C   0  0  0  0  0  0  0  0  0  0  0  0
   33.8270   30.0280   34.7950 N   0  0  0  0  0  0  0  0  0  0  0  0
   33.1910   30.7480   35.7370 C   0  0  0  0  0  0  0  0  0  0  0  0
   33.8360   31.5660   36.5670 N   0  0  0  0  0  0  0  0  0  0  0  0
   35.8150   32.3160   37.0870 H   0  0  0  0  0  0  0  0  0  0  0  0
   36.9420   31.0040   35.3790 H   0  0  0  0  0  0  0  0  0  0  0  0
   32.1100   30.6730   35.8380 H   0  0  0  0  0  0  0  0  0  0  0  0
   38.7020   23.3210   36.4720 C   0  0  0  0  0  0  0  0  0  0  0  0
   39.0470   23.6440   35.1760 C   0  0  0  0  0  0  0  0  0  0  0  0
   40.3810   23.6300   34.7740 C   0  0  0  0  0  0  0  0  0  0  0  0
   40.7720   23.8570   33.8150 H   0  0  0  0  0  0  0  0  0  0  0  0
   41.3770   23.2870   35.6870 C   0  0  0  0  0  3  0  0  0  0  0  0
   41.0160   22.9610   36.9990 C   0  0  0  0  0  3  0  0  0  0  0  0
   39.6880   22.9810   37.3770 C   0  0  0  0  0  0  0  0  0  0  0  0
   37.3340   23.3860   36.7010 O   0  0  0  0  0  0  0  0  0  0  0  0
   36.9220   23.6550   37.5720 H   0  0  0  0  0  0  0  0  0  0  0  0
   39.2310   22.6750   38.6510 O   0  0  0  0  0  0  0  0  0  0  0  0
   39.3110   21.7180   39.0160 H   0  0  0  0  0  0  0  0  0  0  0  0
  2  7  1  0  0  0  0
  2  1  1  0  0  0  0
  3  2  2  0  0  0  0
  4  5  2  0  0  0  0
  4  3  1  0  0  0  0
  5  6  1  0  0  0  0
  6 10  1  0  0  0  0
  6  7  2  0  0  0  0
  7 31  1  0  0  0  0
  8  4  1  0  0  0  0
  9  5  1  0  0  0  0
 11 12  1  0  0  0  0
 12 13  1  0  0  0  0
 13 14  2  0  0  0  0
 13 23  1  0  0  0  0
 14 19  1  0  0  0  0
 15  3  1  0  0  0  0
 15 14  1  0  0  0  0
 16 15  2  0  0  0  0
 17 16  1  0  0  0  0
 18 16  1  0  0  0  0
 18 12  2  0  0  0  0
 20 18  1  0  0  0  0
 21 26  1  0  0  0  0
 21 27  1  0  0  0  0
 22 21  2  0  0  0  0
 23 24  2  0  0  0  0
 23 22  1  0  0  0  0
 24 25  1  0  0  0  0
 25 29  1  0  0  0  0
 25 26  2  0  0  0  0
 28 22  1  0  0  0  0
 30 37  1  0  0  0  0
 30 36  1  0  0  0  0
 31 30  2  0  0  0  0
 32 31  1  0  0  0  0
 32 34  2  0  0  0  0
 33 32  1  0  0  0  0
 34 35  1  0  0  0  0
 35 36  2  0  0  0  0
 36 39  1  0  0  0  0
 37 38  1  0  0  0  0
 39 40  1  0  0  0  0
M  END
>  <minimizedAffinity>
-7.30480862

$$$$

 OpenBabel03262523493D

 40 43  0  0  0  0  0  0  0  0999 V2000
   38.9580   26.0150   34.8380 Cl  0  0  0  0  0  0  0  0  0  0  0  0
   38.1630   24.7220   33.9210 C   0  0  0  0  0  0  0  0  0  0  0  0
   37.4540   25.1370   32.8190 C   0  0  0  0  0  0  0  0  0  0  0  0
   36.7890   24.1960   32.0260 C   0  0  0  0  0  0  0  0  0  0  0  0
   36.8460   22.8480   32.3520 C   0  0  0  0  0  0  0  0  0  0  0  0
   37.5620   22.4650   33.4580 C   0  0  0  0  0  0  0  0  0  0  0  0
   38.2210   23.3830   34.2460 C   0  0  0  0  0  0  0  0  0  0  0  0
   36.2210   24.4510   31.1570 H   0  0  0  0  0  0  0  0  0  0  0  0
   36.3460   22.0870   31.7650 H   0  0  0  0  0  0  0  0  0  0  0  0
   37.6680   21.4440   33.7960 H   0  0  0  0  0  0  0  0  0  0  0  0
   36.6290   30.7830   31.0740 Cl  0  0  0  0  0  0  0  0  0  0  0  0
   36.8700   29.1300   31.5860 C   0  0  0  0  0  0  0  0  0  0  0  0
   36.1330   28.5970   32.6360 C   0  0  0  0  0  0  0  0  0  0  0  0
   36.3700   27.2920   32.9900 C   0  0  0  0  0  0  0  0  0  0  0  0
   37.2990   26.5080   32.3480 C   0  0  0  0  0  0  0  0  0  0  0  0
   38.0240   27.0810   31.2900 C   0  0  0  0  0  0  0  0  0  0  0  0
   39.1910   26.0590   30.4990 Cl  0  0  0  0  0  0  0  0  0  0  0  0
   37.8150   28.3890   30.9060 C   0  0  0  0  0  0  0  0  0  0  0  0
   35.7870   26.8980   33.8080 H   0  0  0  0  0  0  0  0  0  0  0  0
   38.3920   28.7900   30.0900 H   0  0  0  0  0  0  0  0  0  0  0  0
   34.5270   31.0730   35.0120 C   0  0  0  0  0  0  0  0  0  0  0  0
   35.4820   30.2370   34.4170 C   0  0  0  0  0  0  0  0  0  0  0  0
   35.1540   29.4860   33.2840 C   0  0  0  0  0  0  0  0  0  0  0  0
   33.8830   29.6130   32.8060 N   0  0  0  0  0  0  0  0  0  0  0  0
   32.9980   30.4280   33.4080 C   0  0  0  0  0  0  0  0  0  0  0  0
   33.3080   31.1450   34.4870 N   0  0  0  0  0  0  0  0  0  0  0  0
   34.9250   31.5910   35.8780 H   0  0  0  0  0  0  0  0  0  0  0  0
   36.5060   30.1100   34.7730 H   0  0  0  0  0  0  0  0  0  0  0  0
   31.9880   30.5180   33.0130 H   0  0  0  0  0  0  0  0  0  0  0  0
   38.6000   23.1070   36.7600 C   0  0  0  0  0  0  0  0  0  0  0  0
   39.0140   23.1110   35.4430 C   0  0  0  0  0  0  0  0  0  0  0  0
   40.3390   22.8310   35.1180 C   0  0  0  0  0  0  0  0  0  0  0  0
   40.7790   22.8020   34.1530 H   0  0  0  0  0  0  0  0  0  0  0  0
   41.2570   22.5450   36.1270 C   0  0  0  0  0  3  0  0  0  0  0  0
   40.8260   22.5440   37.4590 C   0  0  0  0  0  3  0  0  0  0  0  0
   39.5080   22.8240   37.7600 C   0  0  0  0  0  0  0  0  0  0  0  0
   37.2520   23.4070   36.9050 O   0  0  0  0  0  0  0  0  0  0  0  0
   36.8660   23.9010   37.6840 H   0  0  0  0  0  0  0  0  0  0  0  0
   38.9860   22.8480   39.0460 O   0  0  0  0  0  0  0  0  0  0  0  0
   38.9180   21.9830   39.5960 H   0  0  0  0  0  0  0  0  0  0  0  0
  2  7  1  0  0  0  0
  2  1  1  0  0  0  0
  3  2  2  0  0  0  0
  4  5  2  0  0  0  0
  4  3  1  0  0  0  0
  5  6  1  0  0  0  0
  6 10  1  0  0  0  0
  6  7  2  0  0  0  0
  7 31  1  0  0  0  0
  8  4  1  0  0  0  0
  9  5  1  0  0  0  0
 11 12  1  0  0  0  0
 12 13  1  0  0  0  0
 13 14  2  0  0  0  0
 13 23  1  0  0  0  0
 14 19  1  0  0  0  0
 15  3  1  0  0  0  0
 15 14  1  0  0  0  0
 16 15  2  0  0  0  0
 17 16  1  0  0  0  0
 18 16  1  0  0  0  0
 18 12  2  0  0  0  0
 20 18  1  0  0  0  0
 21 27  1  0  0  0  0
 22 28  1  0  0  0  0
 22 21  2  0  0  0  0
 23 22  1  0  0  0  0
 24 23  2  0  0  0  0
 24 25  1  0  0  0  0
 25 26  2  0  0  0  0
 26 21  1  0  0  0  0
 29 25  1  0  0  0  0
 30 37  1  0  0  0  0
 30 36  1  0  0  0  0
 31 30  2  0  0  0  0
 32 31  1  0  0  0  0
 32 34  2  0  0  0  0
 33 32  1  0  0  0  0
 34 35  1  0  0  0  0
 35 36  2  0  0  0  0
 36 39  1  0  0  0  0
 37 38  1  0  0  0  0
 39 40  1  0  0  0  0
M  END
>  <minimizedAffinity>
-6.90077448

$$$$

 OpenBabel03262523493D

 40 43  0  0  0  0  0  0  0  0999 V2000
   36.4450   28.3180   34.9210 Cl  0  0  0  0  0  0  0  0  0  0  0  0
   35.9710   29.0870   33.3950 C   0  0  0  0  0  0  0  0  0  0  0  0
   36.5920   28.5930   32.2730 C   0  0  0  0  0  0  0  0  0  0  0  0
   36.2890   29.1290   31.0180 C   0  0  0  0  0  0  0  0  0  0  0  0
   35.3630   30.1580   30.9070 C   0  0  0  0  0  0  0  0  0  0  0  0
   34.7600   30.6300   32.0450 C   0  0  0  0  0  0  0  0  0  0  0  0
   35.0500   30.1080   33.2870 C   0  0  0  0  0  0  0  0  0  0  0  0
   36.7360   28.7920   30.1070 H   0  0  0  0  0  0  0  0  0  0  0  0
   35.1000   30.6020   29.9540 H   0  0  0  0  0  0  0  0  0  0  0  0
   34.0270   31.4240   32.0660 H   0  0  0  0  0  0  0  0  0  0  0  0
   40.4980   24.0820   32.2600 Cl  0  0  0  0  0  0  0  0  0  0  0  0
   39.3540   25.4030   32.2640 C   0  0  0  0  0  0  0  0  0  0  0  0
   38.2350   25.3690   33.0860 C   0  0  0  0  0  0  0  0  0  0  0  0
   37.3740   26.4370   33.0430 C   0  0  0  0  0  0  0  0  0  0  0  0
   37.5810   27.5230   32.2250 C   0  0  0  0  0  0  0  0  0  0  0  0
   38.7240   27.5200   31.4090 C   0  0  0  0  0  0  0  0  0  0  0  0
   38.9550   28.9110   30.3860 Cl  0  0  0  0  0  0  0  0  0  0  0  0
   39.6120   26.4660   31.4240 C   0  0  0  0  0  0  0  0  0  0  0  0
   36.5100   26.3910   33.6900 H   0  0  0  0  0  0  0  0  0  0  0  0
   40.4760   26.5050   30.7820 H   0  0  0  0  0  0  0  0  0  0  0  0
   38.2010   23.0580   36.0890 C   0  0  0  0  0  0  0  0  0  0  0  0
   38.3720   24.2060   35.3030 C   0  0  0  0  0  0  0  0  0  0  0  0
   38.0670   24.1800   33.9390 C   0  0  0  0  0  0  0  0  0  0  0  0
   37.6050   23.0010   33.4320 N   0  0  0  0  0  0  0  0  0  0  0  0
   37.4570   21.9220   34.2220 C   0  0  0  0  0  0  0  0  0  0  0  0
   37.7460   21.9450   35.5220 N   0  0  0  0  0  0  0  0  0  0  0  0
   38.4770   23.2300   37.1230 H   0  0  0  0  0  0  0  0  0  0  0  0
   38.7380   25.1650   35.6750 H   0  0  0  0  0  0  0  0  0  0  0  0
   37.0880   20.9890   33.8020 H   0  0  0  0  0  0  0  0  0  0  0  0
   35.0130   31.3840   35.5020 C   0  0  0  0  0  0  0  0  0  0  0  0
   34.4830   30.5160   34.5700 C   0  0  0  0  0  0  0  0  0  0  0  0
   33.2530   29.9010   34.7960 C   0  0  0  0  0  0  0  0  0  0  0  0
   32.7410   29.2200   34.1650 H   0  0  0  0  0  0  0  0  0  0  0  0
   32.5510   30.1640   35.9720 C   0  0  0  0  0  3  0  0  0  0  0  0
   33.0990   31.0460   36.9090 C   0  0  0  0  0  3  0  0  0  0  0  0
   34.3190   31.6450   36.6660 C   0  0  0  0  0  0  0  0  0  0  0  0
   36.2420   31.9050   35.1190 O   0  0  0  0  0  0  0  0  0  0  0  0
   36.9780   32.1360   35.7550 H   0  0  0  0  0  0  0  0  0  0  0  0
   34.9440   32.5320   37.5320 O   0  0  0  0  0  0  0  0  0  0  0  0
   34.5360   33.4570   37.7130 H   0  0  0  0  0  0  0  0  0  0  0  0
  2  1  1  0  0  0  0
  3  2  2  0  0  0  0
  4  3  1  0  0  0  0
  5  4  2  0  0  0  0
  5  6  1  0  0  0  0
  6 10  1  0  0  0  0
  6  7  2  0  0  0  0
  7  2  1  0  0  0  0
  7 31  1  0  0  0  0
  8  4  1  0  0  0  0
  9  5  1  0  0  0  0
 11 12  1  0  0  0  0
 12 13  1  0  0  0  0
 13 23  1  0  0  0  0
 14 13  2  0  0  0  0
 14 19  1  0  0  0  0
 15  3  1  0  0  0  0
 15 14  1  0  0  0  0
 16 18  1  0  0  0  0
 16 15  2  0  0  0  0
 17 16  1  0  0  0  0
 18 12  2  0  0  0  0
 20 18  1  0  0  0  0
 21 27  1  0  0  0  0
 22 28  1  0  0  0  0
 22 21  2  0  0  0  0
 23 22  1  0  0  0  0
 24 23  2  0  0  0  0
 24 25  1  0  0  0  0
 25 26  2  0  0  0  0
 26 21  1  0  0  0  0
 29 25  1  0  0  0  0
 30 36  1  0  0  0  0
 31 32  1  0  0  0  0
 31 30  2  0  0  0  0
 32 34  2  0  0  0  0
 33 32  1  0  0  0  0
 34 35  1  0  0  0  0
 36 35  2  0  0  0  0
 36 39  1  0  0  0  0
 37 30  1  0  0  0  0
 37 38  1  0  0  0  0
 39 40  1  0  0  0  0
M  END
>  <minimizedAffinity>
-6.50473166

$$$$

 OpenBabel03262523493D

 40 43  0  0  0  0  0  0  0  0999 V2000
   35.8040   24.4830   31.4740 Cl  0  0  0  0  0  0  0  0  0  0  0  0
   37.2480   24.3410   32.4930 C   0  0  0  0  0  0  0  0  0  0  0  0
   37.8300   25.5330   32.8520 C   0  0  0  0  0  0  0  0  0  0  0  0
   38.9750   25.5320   33.6550 C   0  0  0  0  0  0  0  0  0  0  0  0
   39.5190   24.3310   34.0890 C   0  0  0  0  0  0  0  0  0  0  0  0
   38.9150   23.1580   33.7140 C   0  0  0  0  0  0  0  0  0  0  0  0
   37.7870   23.1460   32.9230 C   0  0  0  0  0  0  0  0  0  0  0  0
   39.4770   26.4220   33.9700 H   0  0  0  0  0  0  0  0  0  0  0  0
   40.4050   24.2860   34.7120 H   0  0  0  0  0  0  0  0  0  0  0  0
   39.2590   22.1730   33.9980 H   0  0  0  0  0  0  0  0  0  0  0  0
   35.8640   31.0170   31.5620 Cl  0  0  0  0  0  0  0  0  0  0  0  0
   36.4400   29.4110   31.9410 C   0  0  0  0  0  0  0  0  0  0  0  0
   36.1130   28.8060   33.1480 C   0  0  0  0  0  0  0  0  0  0  0  0
   36.5970   27.5430   33.3850 C   0  0  0  0  0  0  0  0  0  0  0  0
   37.3820   26.8690   32.4800 C   0  0  0  0  0  0  0  0  0  0  0  0
   37.6900   27.5130   31.2710 C   0  0  0  0  0  0  0  0  0  0  0  0
   38.6860   26.6290   30.1470 Cl  0  0  0  0  0  0  0  0  0  0  0  0
   37.2240   28.7810   30.9960 C   0  0  0  0  0  0  0  0  0  0  0  0
   36.3310   27.0920   34.3290 H   0  0  0  0  0  0  0  0  0  0  0  0
   37.4830   29.2380   30.0560 H   0  0  0  0  0  0  0  0  0  0  0  0
   34.9900   31.2220   35.8420 C   0  0  0  0  0  0  0  0  0  0  0  0
   35.8190   30.5020   34.9700 C   0  0  0  0  0  0  0  0  0  0  0  0
   35.2710   29.5780   34.0760 C   0  0  0  0  0  0  0  0  0  0  0  0
   33.9150   29.4220   34.1030 N   0  0  0  0  0  0  0  0  0  0  0  0
   33.1570   30.1340   34.9570 C   0  0  0  0  0  0  0  0  0  0  0  0
   33.6780   31.0150   35.8090 N   0  0  0  0  0  0  0  0  0  0  0  0
   35.5550   31.8990   36.4730 H   0  0  0  0  0  0  0  0  0  0  0  0
   36.9050   30.6010   34.9220 H   0  0  0  0  0  0  0  0  0  0  0  0
   32.0770   29.9970   34.9660 H   0  0  0  0  0  0  0  0  0  0  0  0
   37.1540   21.3290   31.2400 C   0  0  0  0  0  0  0  0  0  0  0  0
   37.0490   21.9750   32.4550 C   0  0  0  0  0  0  0  0  0  0  0  0
   36.1520   21.5240   33.4210 C   0  0  0  0  0  0  0  0  0  0  0  0
   35.9790   21.9290   34.3850 H   0  0  0  0  0  0  0  0  0  0  0  0
   35.3530   20.4120   33.1610 C   0  0  0  0  0  3  0  0  0  0  0  0
   35.4670   19.7650   31.9260 C   0  0  0  0  0  3  0  0  0  0  0  0
   36.3620   20.2270   30.9820 C   0  0  0  0  0  0  0  0  0  0  0  0
   38.0920   21.9090   30.3970 O   0  0  0  0  0  0  0  0  0  0  0  0
   38.0120   21.9370   29.4000 H   0  0  0  0  0  0  0  0  0  0  0  0
   36.5480   19.6560   29.7300 O   0  0  0  0  0  0  0  0  0  0  0  0
   36.9550   18.7170   29.6430 H   0  0  0  0  0  0  0  0  0  0  0  0
  1  2  1  0  0  0  0
  2  3  2  0  0  0  0
  2  7  1  0  0  0  0
  3  4  1  0  0  0  0
  4  8  1  0  0  0  0
  4  5  2  0  0  0  0
  5  9  1  0  0  0  0
  6 10  1  0  0  0  0
  6  5  1  0  0  0  0
  7  6  2  0  0  0  0
 11 12  1  0  0  0  0
 12 13  1  0  0  0  0
 13 14  2  0  0  0  0
 13 23  1  0  0  0  0
 14 19  1  0  0  0  0
 15  3  1  0  0  0  0
 15 14  1  0  0  0  0
 16 15  2  0  0  0  0
 17 16  1  0  0  0  0
 18 16  1  0  0  0  0
 18 12  2  0  0  0  0
 20 18  1  0  0  0  0
 21 27  1  0  0  0  0
 22 21  2  0  0  0  0
 23 24  2  0  0  0  0
 23 22  1  0  0  0  0
 24 25  1  0  0  0  0
 25 29  1  0  0  0  0
 25 26  2  0  0  0  0
 26 21  1  0  0  0  0
 28 22  1  0  0  0  0
 30 31  1  0  0  0  0
 31  7  1  0  0  0  0
 31 32  2  0  0  0  0
 32 33  1  0  0  0  0
 34 32  1  0  0  0  0
 35 34  2  0  0  0  0
 36 30  2  0  0  0  0
 36 35  1  0  0  0  0
 37 30  1  0  0  0  0
 38 37  1  0  0  0  0
 39 36  1  0  0  0  0
 40 39  1  0  0  0  0
M  END
>  <minimizedAffinity>
-6.40818977

$$$$

 OpenBabel03262523493D

 40 43  0  0  0  0  0  0  0  0999 V2000
   36.7460   28.7430   35.0810 Cl  0  0  0  0  0  0  0  0  0  0  0  0
   36.0070   29.2990   33.5680 C   0  0  0  0  0  0  0  0  0  0  0  0
   36.4470   28.6610   32.4330 C   0  0  0  0  0  0  0  0  0  0  0  0
   35.9270   29.0240   31.1870 C   0  0  0  0  0  0  0  0  0  0  0  0
   34.9690   30.0250   31.0970 C   0  0  0  0  0  0  0  0  0  0  0  0
   34.5500   30.6430   32.2480 C   0  0  0  0  0  0  0  0  0  0  0  0
   35.0550   30.2930   33.4820 C   0  0  0  0  0  0  0  0  0  0  0  0
   36.2270   28.5700   30.2660 H   0  0  0  0  0  0  0  0  0  0  0  0
   34.5410   30.3370   30.1520 H   0  0  0  0  0  0  0  0  0  0  0  0
   33.8110   31.4310   32.2870 H   0  0  0  0  0  0  0  0  0  0  0  0
   40.3880   24.1820   32.3340 Cl  0  0  0  0  0  0  0  0  0  0  0  0
   39.2330   25.4930   32.3630 C   0  0  0  0  0  0  0  0  0  0  0  0
   38.1590   25.4730   33.2430 C   0  0  0  0  0  0  0  0  0  0  0  0
   37.2870   26.5330   33.2170 C   0  0  0  0  0  0  0  0  0  0  0  0
   37.4420   27.5980   32.3600 C   0  0  0  0  0  0  0  0  0  0  0  0
   38.5410   27.5830   31.4870 C   0  0  0  0  0  0  0  0  0  0  0  0
   38.7060   28.9480   30.4180 Cl  0  0  0  0  0  0  0  0  0  0  0  0
   39.4380   26.5360   31.4830 C   0  0  0  0  0  0  0  0  0  0  0  0
   36.4580   26.4970   33.9080 H   0  0  0  0  0  0  0  0  0  0  0  0
   40.2670   26.5640   30.7970 H   0  0  0  0  0  0  0  0  0  0  0  0
   38.1970   23.2690   36.3250 C   0  0  0  0  0  0  0  0  0  0  0  0
   38.3130   24.3980   35.5030 C   0  0  0  0  0  0  0  0  0  0  0  0
   38.0450   24.3060   34.1340 C   0  0  0  0  0  0  0  0  0  0  0  0
   37.6740   23.0810   33.6580 N   0  0  0  0  0  0  0  0  0  0  0  0
   37.5760   22.0230   34.4830 C   0  0  0  0  0  0  0  0  0  0  0  0
   37.8290   22.1100   35.7880 N   0  0  0  0  0  0  0  0  0  0  0  0
   38.4340   23.4940   37.3580 H   0  0  0  0  0  0  0  0  0  0  0  0
   38.6070   25.3910   35.8480 H   0  0  0  0  0  0  0  0  0  0  0  0
   37.2780   21.0540   34.0880 H   0  0  0  0  0  0  0  0  0  0  0  0
   33.6170   30.5580   35.5790 C   0  0  0  0  0  0  0  0  0  0  0  0
   34.6970   30.8670   34.7770 C   0  0  0  0  0  0  0  0  0  0  0  0
   35.6170   31.8360   35.1720 C   0  0  0  0  0  0  0  0  0  0  0  0
   36.4810   32.1610   34.6510 H   0  0  0  0  0  0  0  0  0  0  0  0
   35.4470   32.5010   36.3850 C   0  0  0  0  0  3  0  0  0  0  0  0
   34.3480   32.1800   37.1900 C   0  0  0  0  0  3  0  0  0  0  0  0
   33.4490   31.2160   36.7810 C   0  0  0  0  0  0  0  0  0  0  0  0
   32.8030   29.5730   35.0350 O   0  0  0  0  0  0  0  0  0  0  0  0
   31.8110   29.5310   35.1610 H   0  0  0  0  0  0  0  0  0  0  0  0
   32.3300   30.8290   37.5060 O   0  0  0  0  0  0  0  0  0  0  0  0
   32.4360   30.3360   38.4020 H   0  0  0  0  0  0  0  0  0  0  0  0
  2  1  1  0  0  0  0
  3  2  2  0  0  0  0
  4  3  1  0  0  0  0
  5  4  2  0  0  0  0
  5  6  1  0  0  0  0
  6 10  1  0  0  0  0
  6  7  2  0  0  0  0
  7  2  1  0  0  0  0
  7 31  1  0  0  0  0
  8  4  1  0  0  0  0
  9  5  1  0  0  0  0
 11 12  1  0  0  0  0
 12 13  1  0  0  0  0
 13 23  1  0  0  0  0
 14 13  2  0  0  0  0
 14 19  1  0  0  0  0
 15  3  1  0  0  0  0
 15 14  1  0  0  0  0
 16 15  2  0  0  0  0
 17 16  1  0  0  0  0
 18 16  1  0  0  0  0
 18 12  2  0  0  0  0
 20 18  1  0  0  0  0
 21 27  1  0  0  0  0
 22 28  1  0  0  0  0
 22 21  2  0  0  0  0
 23 22  1  0  0  0  0
 24 23  2  0  0  0  0
 24 25  1  0  0  0  0
 25 26  2  0  0  0  0
 26 21  1  0  0  0  0
 29 25  1  0  0  0  0
 30 36  1  0  0  0  0
 31 32  1  0  0  0  0
 31 30  2  0  0  0  0
 32 34  2  0  0  0  0
 33 32  1  0  0  0  0
 34 35  1  0  0  0  0
 36 35  2  0  0  0  0
 36 39  1  0  0  0  0
 37 38  1  0  0  0  0
 37 30  1  0  0  0  0
 39 40  1  0  0  0  0
M  END
>  <minimizedAffinity>
-6.35193348

$$$$

 OpenBabel03262523493D

 40 43  0  0  0  0  0  0  0  0999 V2000
   36.4640   27.3710   34.9130 Cl  0  0  0  0  0  0  0  0  0  0  0  0
   36.5020   28.0250   33.2650 C   0  0  0  0  0  0  0  0  0  0  0  0
   37.1620   27.2480   32.3430 C   0  0  0  0  0  0  0  0  0  0  0  0
   37.2500   27.6730   31.0130 C   0  0  0  0  0  0  0  0  0  0  0  0
   36.6700   28.8740   30.6270 C   0  0  0  0  0  0  0  0  0  0  0  0
   36.0180   29.6260   31.5700 C   0  0  0  0  0  0  0  0  0  0  0  0
   35.9250   29.2180   32.8830 C   0  0  0  0  0  0  0  0  0  0  0  0
   37.7490   27.1180   30.2470 H   0  0  0  0  0  0  0  0  0  0  0  0
   36.7160   29.2390   29.6080 H   0  0  0  0  0  0  0  0  0  0  0  0
   35.5350   30.5730   31.3720 H   0  0  0  0  0  0  0  0  0  0  0  0
   39.6220   21.8950   33.2860 Cl  0  0  0  0  0  0  0  0  0  0  0  0
   38.9010   23.4620   33.0100 C   0  0  0  0  0  0  0  0  0  0  0  0
   37.5850   23.5720   32.5790 C   0  0  0  0  0  0  0  0  0  0  0  0
   37.0770   24.8320   32.3800 C   0  0  0  0  0  0  0  0  0  0  0  0
   37.8190   25.9710   32.5900 C   0  0  0  0  0  0  0  0  0  0  0  0
   39.1450   25.8190   33.0250 C   0  0  0  0  0  0  0  0  0  0  0  0
   40.0550   27.2820   33.2810 Cl  0  0  0  0  0  0  0  0  0  0  0  0
   39.6910   24.5710   33.2360 C   0  0  0  0  0  0  0  0  0  0  0  0
   36.0530   24.8950   32.0460 H   0  0  0  0  0  0  0  0  0  0  0  0
   40.7120   24.4990   33.5700 H   0  0  0  0  0  0  0  0  0  0  0  0
   35.9820   20.5580   30.9360 C   0  0  0  0  0  0  0  0  0  0  0  0
   36.6950   21.7530   31.1010 C   0  0  0  0  0  0  0  0  0  0  0  0
   36.8420   22.3180   32.3720 C   0  0  0  0  0  0  0  0  0  0  0  0
   36.2640   21.6530   33.4140 N   0  0  0  0  0  0  0  0  0  0  0  0
   35.5880   20.5070   33.2100 C   0  0  0  0  0  0  0  0  0  0  0  0
   35.4470   19.9670   32.0010 N   0  0  0  0  0  0  0  0  0  0  0  0
   35.9530   20.2430   29.9000 H   0  0  0  0  0  0  0  0  0  0  0  0
   37.1690   22.3110   30.2920 H   0  0  0  0  0  0  0  0  0  0  0  0
   35.1330   19.9900   34.0530 H   0  0  0  0  0  0  0  0  0  0  0  0
   33.9250   29.9070   34.3190 C   0  0  0  0  0  0  0  0  0  0  0  0
   35.2630   29.9190   33.9810 C   0  0  0  0  0  0  0  0  0  0  0  0
   36.1730   30.6670   34.7250 C   0  0  0  0  0  0  0  0  0  0  0  0
   37.2180   30.7580   34.5700 H   0  0  0  0  0  0  0  0  0  0  0  0
   35.7320   31.4090   35.8190 C   0  0  0  0  0  3  0  0  0  0  0  0
   34.3730   31.3890   36.1520 C   0  0  0  0  0  3  0  0  0  0  0  0
   33.4870   30.6420   35.4020 C   0  0  0  0  0  0  0  0  0  0  0  0
   33.1600   29.1130   33.4740 O   0  0  0  0  0  0  0  0  0  0  0  0
   32.2110   29.3080   33.2260 H   0  0  0  0  0  0  0  0  0  0  0  0
   32.1240   30.5580   35.6520 O   0  0  0  0  0  0  0  0  0  0  0  0
   31.7780   30.0970   36.5020 H   0  0  0  0  0  0  0  0  0  0  0  0
  2  1  1  0  0  0  0
  3 15  1  0  0  0  0
  3  2  2  0  0  0  0
  4  3  1  0  0  0  0
  5  4  2  0  0  0  0
  5  6  1  0  0  0  0
  6  7  2  0  0  0  0
  7  2  1  0  0  0  0
  7 31  1  0  0  0  0
  8  4  1  0  0  0  0
  9  5  1  0  0  0  0
 10  6  1  0  0  0  0
 12 18  1  0  0  0  0
 12 11  1  0  0  0  0
 13 12  2  0  0  0  0
 14 13  1  0  0  0  0
 14 15  2  0  0  0  0
 15 16  1  0  0  0  0
 16 18  2  0  0  0  0
 16 17  1  0  0  0  0
 18 20  1  0  0  0  0
 19 14  1  0  0  0  0
 21 22  2  0  0  0  0
 21 26  1  0  0  0  0
 22 23  1  0  0  0  0
 23 13  1  0  0  0  0
 23 24  2  0  0  0  0
 25 24  1  0  0  0  0
 25 29  1  0  0  0  0
 26 25  2  0  0  0  0
 27 21  1  0  0  0  0
 28 22  1  0  0  0  0
 30 36  1  0  0  0  0
 31 30  2  0  0  0  0
 31 32  1  0  0  0  0
 32 34  2  0  0  0  0
 33 32  1  0  0  0  0
 34 35  1  0  0  0  0
 36 39  1  0  0  0  0
 36 35  2  0  0  0  0
 37 30  1  0  0  0  0
 38 37  1  0  0  0  0
 39 40  1  0  0  0  0
M  END
>  <minimizedAffinity>
-6.18910217

$$$$

 OpenBabel03262523493D

 40 43  0  0  0  0  0  0  0  0999 V2000
   38.6220   27.1430   33.5150 Cl  0  0  0  0  0  0  0  0  0  0  0  0
   37.4130   26.2060   32.6200 C   0  0  0  0  0  0  0  0  0  0  0  0
   36.4020   26.9460   32.0530 C   0  0  0  0  0  0  0  0  0  0  0  0
   35.3960   26.3030   31.3250 C   0  0  0  0  0  0  0  0  0  0  0  0
   35.4200   24.9230   31.1740 C   0  0  0  0  0  0  0  0  0  0  0  0
   36.4410   24.2130   31.7510 C   0  0  0  0  0  0  0  0  0  0  0  0
   37.4380   24.8350   32.4710 C   0  0  0  0  0  0  0  0  0  0  0  0
   34.5820   26.8180   30.8600 H   0  0  0  0  0  0  0  0  0  0  0  0
   34.6600   24.3870   30.6180 H   0  0  0  0  0  0  0  0  0  0  0  0
   36.5510   23.1390   31.6920 H   0  0  0  0  0  0  0  0  0  0  0  0
   35.6190   32.8380   32.5720 Cl  0  0  0  0  0  0  0  0  0  0  0  0
   35.8480   31.1120   32.4210 C   0  0  0  0  0  0  0  0  0  0  0  0
   35.4740   30.2540   33.4470 C   0  0  0  0  0  0  0  0  0  0  0  0
   35.6800   28.9090   33.2670 C   0  0  0  0  0  0  0  0  0  0  0  0
   36.2370   28.3920   32.1210 C   0  0  0  0  0  0  0  0  0  0  0  0
   36.6020   29.2910   31.1060 C   0  0  0  0  0  0  0  0  0  0  0  0
   37.3030   28.6020   29.6680 Cl  0  0  0  0  0  0  0  0  0  0  0  0
   36.4110   30.6490   31.2500 C   0  0  0  0  0  0  0  0  0  0  0  0
   35.3830   28.2600   34.0770 H   0  0  0  0  0  0  0  0  0  0  0  0
   36.7050   31.3040   30.4470 H   0  0  0  0  0  0  0  0  0  0  0  0
   35.0880   31.9640   36.8070 C   0  0  0  0  0  0  0  0  0  0  0  0
   35.6790   31.3880   35.6740 C   0  0  0  0  0  0  0  0  0  0  0  0
   34.8840   30.8660   34.6500 C   0  0  0  0  0  0  0  0  0  0  0  0
   33.5320   30.9490   34.8150 N   0  0  0  0  0  0  0  0  0  0  0  0
   33.0060   31.5100   35.9190 C   0  0  0  0  0  0  0  0  0  0  0  0
   33.7620   32.0090   36.8950 N   0  0  0  0  0  0  0  0  0  0  0  0
   35.8280   32.3240   37.5120 H   0  0  0  0  0  0  0  0  0  0  0  0
   36.7550   31.3040   35.5090 H   0  0  0  0  0  0  0  0  0  0  0  0
   31.9250   31.5690   36.0340 H   0  0  0  0  0  0  0  0  0  0  0  0
   39.8340   23.9550   32.6190 C   0  0  0  0  0  0  0  0  0  0  0  0
   38.5770   24.2010   33.1320 C   0  0  0  0  0  0  0  0  0  0  0  0
   38.2620   23.8350   34.4390 C   0  0  0  0  0  0  0  0  0  0  0  0
   37.3410   23.9690   34.9470 H   0  0  0  0  0  0  0  0  0  0  0  0
   39.2220   23.2140   35.2370 C   0  0  0  0  0  3  0  0  0  0  0  0
   40.4930   22.9690   34.7060 C   0  0  0  0  0  3  0  0  0  0  0  0
   40.7850   23.3390   33.4090 C   0  0  0  0  0  0  0  0  0  0  0  0
   39.9760   24.3820   31.3060 O   0  0  0  0  0  0  0  0  0  0  0  0
   40.5510   23.9270   30.6250 H   0  0  0  0  0  0  0  0  0  0  0  0
   42.0130   23.1390   32.7930 O   0  0  0  0  0  0  0  0  0  0  0  0
   42.8460   23.6470   33.1160 H   0  0  0  0  0  0  0  0  0  0  0  0
  2  1  1  0  0  0  0
  3 15  1  0  0  0  0
  3  2  2  0  0  0  0
  4  3  1  0  0  0  0
  5  4  2  0  0  0  0
  5  6  1  0  0  0  0
  6  7  2  0  0  0  0
  7  2  1  0  0  0  0
  7 31  1  0  0  0  0
  8  4  1  0  0  0  0
  9  5  1  0  0  0  0
 10  6  1  0  0  0  0
 12 11  1  0  0  0  0
 12 13  1  0  0  0  0
 13 23  1  0  0  0  0
 14 13  2  0  0  0  0
 14 19  1  0  0  0  0
 15 14  1  0  0  0  0
 16 18  1  0  0  0  0
 16 15  2  0  0  0  0
 17 16  1  0  0  0  0
 18 12  2  0  0  0  0
 20 18  1  0  0  0  0
 21 26  1  0  0  0  0
 21 27  1  0  0  0  0
 22 21  2  0  0  0  0
 23 24  2  0  0  0  0
 23 22  1  0  0  0  0
 24 25  1  0  0  0  0
 25 29  1  0  0  0  0
 25 26  2  0  0  0  0
 28 22  1  0  0  0  0
 30 31  2  0  0  0  0
 30 36  1  0  0  0  0
 31 32  1  0  0  0  0
 32 33  1  0  0  0  0
 32 34  2  0  0  0  0
 35 34  1  0  0  0  0
 36 35  2  0  0  0  0
 37 30  1  0  0  0  0
 38 37  1  0  0  0  0
 39 40  1  0  0  0  0
 39 36  1  0  0  0  0
M  END
>  <minimizedAffinity>
-6.14937687

$$$$

 OpenBabel03262523493D

 40 43  0  0  0  0  0  0  0  0999 V2000
   35.8170   32.1020   34.5490 Cl  0  0  0  0  0  0  0  0  0  0  0  0
   34.2300   31.3150   34.4770 C   0  0  0  0  0  0  0  0  0  0  0  0
   34.1830   30.1570   33.7400 C   0  0  0  0  0  0  0  0  0  0  0  0
   32.9780   29.4570   33.6200 C   0  0  0  0  0  0  0  0  0  0  0  0
   31.8330   29.9330   34.2450 C   0  0  0  0  0  0  0  0  0  0  0  0
   31.9110   31.0920   34.9740 C   0  0  0  0  0  0  0  0  0  0  0  0
   33.0930   31.7890   35.0990 C   0  0  0  0  0  0  0  0  0  0  0  0
   32.8730   28.5520   33.0620 H   0  0  0  0  0  0  0  0  0  0  0  0
   30.8800   29.4220   34.1770 H   0  0  0  0  0  0  0  0  0  0  0  0
   31.0800   31.5440   35.4980 H   0  0  0  0  0  0  0  0  0  0  0  0
   38.7610   27.4430   31.0410 Cl  0  0  0  0  0  0  0  0  0  0  0  0
   37.4200   28.2370   31.8320 C   0  0  0  0  0  0  0  0  0  0  0  0
   37.0330   27.8680   33.1130 C   0  0  0  0  0  0  0  0  0  0  0  0
   35.9720   28.5300   33.6800 C   0  0  0  0  0  0  0  0  0  0  0  0
   35.2910   29.5320   33.0280 C   0  0  0  0  0  0  0  0  0  0  0  0
   35.7130   29.8770   31.7340 C   0  0  0  0  0  0  0  0  0  0  0  0
   34.8290   31.1500   30.9390 Cl  0  0  0  0  0  0  0  0  0  0  0  0
   36.7740   29.2350   31.1320 C   0  0  0  0  0  0  0  0  0  0  0  0
   35.6870   28.2280   34.6760 H   0  0  0  0  0  0  0  0  0  0  0  0
   37.0640   29.5310   30.1380 H   0  0  0  0  0  0  0  0  0  0  0  0
   39.6020   26.0100   35.1890 C   0  0  0  0  0  0  0  0  0  0  0  0
   38.8920   27.0590   34.5890 C   0  0  0  0  0  0  0  0  0  0  0  0
   37.7990   26.7890   33.7590 C   0  0  0  0  0  0  0  0  0  0  0  0
   37.4740   25.4770   33.5740 N   0  0  0  0  0  0  0  0  0  0  0  0
   38.1840   24.5000   34.1690 C   0  0  0  0  0  0  0  0  0  0  0  0
   39.2240   24.7560   34.9610 N   0  0  0  0  0  0  0  0  0  0  0  0
   40.4180   26.3720   35.8020 H   0  0  0  0  0  0  0  0  0  0  0  0
   39.1230   28.1180   34.7140 H   0  0  0  0  0  0  0  0  0  0  0  0
   37.9110   23.4590   34.0100 H   0  0  0  0  0  0  0  0  0  0  0  0
   33.6940   33.1790   37.1590 C   0  0  0  0  0  0  0  0  0  0  0  0
   33.3130   33.0290   35.8420 C   0  0  0  0  0  0  0  0  0  0  0  0
   33.0860   34.1450   35.0390 C   0  0  0  0  0  0  0  0  0  0  0  0
   32.7930   34.1630   34.0210 H   0  0  0  0  0  0  0  0  0  0  0  0
   33.2450   35.4250   35.5690 C   0  0  0  0  0  3  0  0  0  0  0  0
   33.6320   35.5640   36.9070 C   0  0  0  0  0  3  0  0  0  0  0  0
   33.8510   34.4460   37.6850 C   0  0  0  0  0  0  0  0  0  0  0  0
   33.8760   31.9670   37.8120 O   0  0  0  0  0  0  0  0  0  0  0  0
   33.6870   31.8170   38.7830 H   0  0  0  0  0  0  0  0  0  0  0  0
   34.2360   34.4810   39.0180 O   0  0  0  0  0  0  0  0  0  0  0  0
   35.1630   34.8360   39.2830 H   0  0  0  0  0  0  0  0  0  0  0  0
  2  1  1  0  0  0  0
  2  7  1  0  0  0  0
  3  2  2  0  0  0  0
  4  3  1  0  0  0  0
  4  5  2  0  0  0  0
  5  6  1  0  0  0  0
  6  7  2  0  0  0  0
  6 10  1  0  0  0  0
  7 31  1  0  0  0  0
  8  4  1  0  0  0  0
  9  5  1  0  0  0  0
 11 12  1  0  0  0  0
 12 13  1  0  0  0  0
 13 14  2  0  0  0  0
 13 23  1  0  0  0  0
 14 19  1  0  0  0  0
 15 14  1  0  0  0  0
 15  3  1  0  0  0  0
 16 15  2  0  0  0  0
 17 16  1  0  0  0  0
 18 16  1  0  0  0  0
 18 12  2  0  0  0  0
 20 18  1  0  0  0  0
 21 27  1  0  0  0  0
 22 28  1  0  0  0  0
 22 21  2  0  0  0  0
 23 22  1  0  0  0  0
 24 23  2  0  0  0  0
 24 25  1  0  0  0  0
 25 26  2  0  0  0  0
 26 21  1  0  0  0  0
 29 25  1  0  0  0  0
 30 36  1  0  0  0  0
 30 37  1  0  0  0  0
 31 30  2  0  0  0  0
 32 34  2  0  0  0  0
 32 31  1  0  0  0  0
 33 32  1  0  0  0  0
 34 35  1  0  0  0  0
 35 36  2  0  0  0  0
 36 39  1  0  0  0  0
 37 38  1  0  0  0  0
 39 40  1  0  0  0  0
M  END
>  <minimizedAffinity>
-6.12099028

$$$$

 OpenBabel03262523493D

 40 43  0  0  0  0  0  0  0  0999 V2000
   36.2480   28.0190   34.7490 Cl  0  0  0  0  0  0  0  0  0  0  0  0
   36.2090   28.9820   33.2610 C   0  0  0  0  0  0  0  0  0  0  0  0
   36.8570   28.4230   32.1860 C   0  0  0  0  0  0  0  0  0  0  0  0
   36.8860   29.1010   30.9630 C   0  0  0  0  0  0  0  0  0  0  0  0
   36.2600   30.3340   30.8370 C   0  0  0  0  0  0  0  0  0  0  0  0
   35.6220   30.8660   31.9280 C   0  0  0  0  0  0  0  0  0  0  0  0
   35.5870   30.2070   33.1380 C   0  0  0  0  0  0  0  0  0  0  0  0
   37.3720   28.7230   30.0890 H   0  0  0  0  0  0  0  0  0  0  0  0
   36.2590   30.8920   29.9080 H   0  0  0  0  0  0  0  0  0  0  0  0
   35.1060   31.8160   31.9340 H   0  0  0  0  0  0  0  0  0  0  0  0
   39.9380   23.3130   32.1680 Cl  0  0  0  0  0  0  0  0  0  0  0  0
   39.0360   24.8100   32.1740 C   0  0  0  0  0  0  0  0  0  0  0  0
   39.6200   25.9890   32.6190 C   0  0  0  0  0  0  0  0  0  0  0  0
   38.8590   27.1310   32.5990 C   0  0  0  0  0  0  0  0  0  0  0  0
   37.5560   27.1450   32.1580 C   0  0  0  0  0  0  0  0  0  0  0  0
   37.0010   25.9330   31.7140 C   0  0  0  0  0  0  0  0  0  0  0  0
   35.3500   25.9880   31.1620 Cl  0  0  0  0  0  0  0  0  0  0  0  0
   37.7340   24.7660   31.7200 C   0  0  0  0  0  0  0  0  0  0  0  0
   39.3320   28.0350   32.9500 H   0  0  0  0  0  0  0  0  0  0  0  0
   37.2690   23.8580   31.3710 H   0  0  0  0  0  0  0  0  0  0  0  0
   42.6750   25.6070   34.8280 C   0  0  0  0  0  0  0  0  0  0  0  0
   41.3360   25.6760   34.4210 C   0  0  0  0  0  0  0  0  0  0  0  0
   41.0170   25.9100   33.0800 C   0  0  0  0  0  0  0  0  0  0  0  0
   42.0610   26.0650   32.2150 N   0  0  0  0  0  0  0  0  0  0  0  0
   43.3320   25.9920   32.6490 C   0  0  0  0  0  0  0  0  0  0  0  0
   43.6380   25.7670   33.9260 N   0  0  0  0  0  0  0  0  0  0  0  0
   42.7660   25.4190   35.8920 H   0  0  0  0  0  0  0  0  0  0  0  0
   40.4770   25.5570   35.0840 H   0  0  0  0  0  0  0  0  0  0  0  0
   44.1530   26.1180   31.9460 H   0  0  0  0  0  0  0  0  0  0  0  0
   33.6590   30.4100   34.8050 C   0  0  0  0  0  0  0  0  0  0  0  0
   34.9450   30.6580   34.3710 C   0  0  0  0  0  0  0  0  0  0  0  0
   35.8160   31.4270   35.1410 C   0  0  0  0  0  0  0  0  0  0  0  0
   36.8200   31.6870   34.9210 H   0  0  0  0  0  0  0  0  0  0  0  0
   35.3860   31.9500   36.3590 C   0  0  0  0  0  3  0  0  0  0  0  0
   34.0800   31.6920   36.7890 C   0  0  0  0  0  3  0  0  0  0  0  0
   33.2330   30.9280   36.0110 C   0  0  0  0  0  0  0  0  0  0  0  0
   32.9290   29.6300   33.9170 O   0  0  0  0  0  0  0  0  0  0  0  0
   31.9430   29.7160   33.7730 H   0  0  0  0  0  0  0  0  0  0  0  0
   31.9230   30.6180   36.3500 O   0  0  0  0  0  0  0  0  0  0  0  0
   31.7240   30.0060   37.1510 H   0  0  0  0  0  0  0  0  0  0  0  0
  2  1  1  0  0  0  0
  3  2  2  0  0  0  0
  4  3  1  0  0  0  0
  5  4  2  0  0  0  0
  5  6  1  0  0  0  0
  6 10  1  0  0  0  0
  6  7  2  0  0  0  0
  7  2  1  0  0  0  0
  7 31  1  0  0  0  0
  8  4  1  0  0  0  0
  9  5  1  0  0  0  0
 11 12  1  0  0  0  0
 12 13  1  0  0  0  0
 13 23  1  0  0  0  0
 14 13  2  0  0  0  0
 14 19  1  0  0  0  0
 15  3  1  0  0  0  0
 15 14  1  0  0  0  0
 16 18  1  0  0  0  0
 16 15  2  0  0  0  0
 17 16  1  0  0  0  0
 18 12  2  0  0  0  0
 20 18  1  0  0  0  0
 21 27  1  0  0  0  0
 22 21  1  0  0  0  0
 22 28  1  0  0  0  0
 23 22  2  0  0  0  0
 24 25  2  0  0  0  0
 24 23  1  0  0  0  0
 25 26  1  0  0  0  0
 26 21  2  0  0  0  0
 29 25  1  0  0  0  0
 30 36  1  0  0  0  0
 31 30  2  0  0  0  0
 31 32  1  0  0  0  0
 32 34  2  0  0  0  0
 33 32  1  0  0  0  0
 34 35  1  0  0  0  0
 36 39  1  0  0  0  0
 36 35  2  0  0  0  0
 37 30  1  0  0  0  0
 38 37  1  0  0  0  0
 39 40  1  0  0  0  0
M  END
>  <minimizedAffinity>
-6.11103153

$$$$
