REMARK  Name = 
REMARK  4 active torsions:
REMARK  status: ('A' for Active; 'I' for Inactive)
REMARK    1  A    between atoms: C_12  and  N_13
REMARK    2  A    between atoms: C_17  and  C_38
REMARK    3  A    between atoms: O_36  and  C_37
REMARK    4  A    between atoms: C_43  and  O_44
REMARK                            x       y       z     vdW  Elec       q    Type
REMARK                         _______ _______ _______ _____ _____    ______ ____
ROOT
ATOM      1  C   UNL     1      37.232  29.232  50.577  0.00  0.00    +0.000 A 
ATOM      2  C   UNL     1      37.399  30.601  50.898  0.00  0.00    +0.000 A 
ATOM      3  C   UNL     1      36.685  31.518  50.138  0.00  0.00    +0.000 A 
ATOM      4  N   UNL     1      35.879  31.053  49.144  0.00  0.00    +0.000 NA
ATOM      5  C   UNL     1      35.751  29.757  48.876  0.00  0.00    +0.000 A 
ATOM      6  N   UNL     1      36.426  28.846  49.590  0.00  0.00    +0.000 NA
ATOM      7  N   UNL     1      34.895  29.334  47.829  0.00  0.00    +0.000 N 
ATOM      8  C   UNL     1      34.244  28.037  47.855  0.00  0.00    +0.000 C 
ATOM      9  C   UNL     1      32.771  28.191  47.658  0.00  0.00    +0.000 C 
ATOM     10  N   UNL     1      32.336  29.419  47.204  0.00  0.00    +0.000 NA
ATOM     11  C   UNL     1      33.200  30.292  46.452  0.00  0.00    +0.000 C 
ATOM     12  C   UNL     1      34.627  30.178  46.681  0.00  0.00    +0.000 C 
ATOM     13  H   UNL     1      37.737  28.408  51.098  0.00  0.00    +0.000 HD
ATOM     14  H   UNL     1      38.061  30.833  51.700  0.00  0.00    +0.000 HD
ATOM     15  H   UNL     1      36.798  32.560  50.367  0.00  0.00    +0.000 HD
ATOM     16  H   UNL     1      34.741  27.260  47.285  0.00  0.00    +0.000 HD
ATOM     17  H   UNL     1      34.360  27.680  48.935  0.00  0.00    +0.000 HD
ATOM     18  H   UNL     1      32.173  27.891  48.543  0.00  0.00    +0.000 HD
ATOM     19  H   UNL     1      32.492  27.413  46.886  0.00  0.00    +0.000 HD
ATOM     20  H   UNL     1      31.467  29.834  47.549  0.00  0.00    +0.000 HD
ATOM     21  H   UNL     1      32.901  31.317  46.869  0.00  0.00    +0.000 HD
ATOM     22  H   UNL     1      32.765  30.335  45.468  0.00  0.00    +0.000 HD
ATOM     23  H   UNL     1      35.120  31.175  46.894  0.00  0.00    +0.000 HD
ENDROOT
BRANCH  12  24
ATOM     24  N   UNL     1      35.380  29.622  45.564  0.00  0.00    +0.000 NA
ATOM     25  C   UNL     1      36.563  30.437  45.273  0.00  0.00    +0.000 C 
ATOM     26  C   UNL     1      36.743  30.434  43.766  0.00  0.00    +0.000 C 
ATOM     27  C   UNL     1      35.747  29.435  43.315  0.00  0.00    +0.000 C 
ATOM     28  C   UNL     1      34.629  29.544  44.370  0.00  0.00    +0.000 C 
ATOM     29  H   UNL     1      36.328  31.468  45.609  0.00  0.00    +0.000 HD
ATOM     30  H   UNL     1      37.450  30.059  45.797  0.00  0.00    +0.000 HD
ATOM     31  H   UNL     1      37.793  30.204  43.497  0.00  0.00    +0.000 HD
ATOM     32  H   UNL     1      36.521  31.436  43.334  0.00  0.00    +0.000 HD
ATOM     33  H   UNL     1      35.337  29.615  42.302  0.00  0.00    +0.000 HD
ATOM     34  H   UNL     1      36.179  28.412  43.416  0.00  0.00    +0.000 HD
ATOM     35  H   UNL     1      34.166  30.482  44.023  0.00  0.00    +0.000 HD
BRANCH  28  37
ATOM     36  C   UNL     1      34.038  27.562  42.961  0.00  0.00    +0.000 A 
ATOM     37  C   UNL     1      33.858  28.335  44.103  0.00  0.00    +0.000 A 
ATOM     38  C   UNL     1      32.901  27.813  44.941  0.00  0.00    +0.000 A 
ATOM     39  H   UNL     1      32.675  28.312  45.871  0.00  0.00    +0.000 HD
ATOM     40  C   UNL     1      32.177  26.663  44.719  0.00  0.00    +0.000 A 
ATOM     41  C   UNL     1      32.405  25.943  43.565  0.00  0.00    +0.000 A 
ATOM     42  C   UNL     1      33.352  26.403  42.674  0.00  0.00    +0.000 A 
BRANCH  36  43
ATOM     43  O   UNL     1      34.962  27.924  41.995  0.00  0.00    +0.000 OA
ATOM     44  H   UNL     1      34.643  28.372  41.164  0.00  0.00    +0.000 HD
ENDBRANCH  36  43
BRANCH  42  45
ATOM     45  O   UNL     1      33.549  25.660  41.540  0.00  0.00    +0.000 OA
ATOM     46  H   UNL     1      32.750  25.528  40.930  0.00  0.00    +0.000 HD
ENDBRANCH  42  45
ENDBRANCH  28  37
ENDBRANCH  12  24
TORSDOF 4
