REMARK  Name = 
REMARK  4 active torsions:
REMARK  status: ('A' for Active; 'I' for Inactive)
REMARK    1  A    between atoms: C_1  and  C_7
REMARK    2  A    between atoms: C_12  and  C_28
REMARK    3  A    between atoms: O_26  and  C_27
REMARK    4  A    between atoms: C_33  and  O_34
REMARK                            x       y       z     vdW  Elec       q    Type
REMARK                         _______ _______ _______ _____ _____    ______ ____
ROOT
ATOM      1  C   UNL     1      35.520  30.284  49.725  0.00  0.00    +0.000 C 
ATOM      2  C   UNL     1      36.495  31.163  48.958  0.00  0.00    +0.000 C 
ATOM      3  C   UNL     1      37.931  30.777  49.167  0.00  0.00    +0.000 C 
ATOM      4  C   UNL     1      38.303  30.808  50.619  0.00  0.00    +0.000 C 
ATOM      5  C   UNL     1      37.299  30.139  51.498  0.00  0.00    +0.000 C 
ATOM      6  C   UNL     1      36.197  29.430  50.735  0.00  0.00    +0.000 C 
ATOM      7  H   UNL     1      34.774  31.005  50.139  0.00  0.00    +0.000 HD
ATOM      8  H   UNL     1      36.406  32.226  49.240  0.00  0.00    +0.000 HD
ATOM      9  H   UNL     1      36.293  31.086  47.870  0.00  0.00    +0.000 HD
ATOM     10  H   UNL     1      38.097  29.716  48.833  0.00  0.00    +0.000 HD
ATOM     11  H   UNL     1      38.550  31.491  48.629  0.00  0.00    +0.000 HD
ATOM     12  H   UNL     1      39.330  30.418  50.740  0.00  0.00    +0.000 HD
ATOM     13  H   UNL     1      38.342  31.891  50.923  0.00  0.00    +0.000 HD
ATOM     14  H   UNL     1      37.837  29.333  52.068  0.00  0.00    +0.000 HD
ATOM     15  H   UNL     1      36.866  30.807  52.268  0.00  0.00    +0.000 HD
ATOM     16  H   UNL     1      36.673  28.559  50.221  0.00  0.00    +0.000 HD
ENDROOT
BRANCH   1  17
ATOM     17  C   UNL     1      34.761  29.425  48.797  0.00  0.00    +0.000 A 
ATOM     18  C   UNL     1      34.216  30.063  47.668  0.00  0.00    +0.000 A 
ATOM     19  C   UNL     1      33.475  29.255  46.781  0.00  0.00    +0.000 A 
ATOM     20  N   UNL     1      33.329  27.913  47.063  0.00  0.00    +0.000 NA
ATOM     21  C   UNL     1      33.882  27.351  48.176  0.00  0.00    +0.000 A 
ATOM     22  N   UNL     1      34.576  28.123  49.003  0.00  0.00    +0.000 NA
ATOM     23  H   UNL     1      34.301  31.101  47.405  0.00  0.00    +0.000 HD
ATOM     24  H   UNL     1      33.001  29.610  45.874  0.00  0.00    +0.000 HD
ATOM     25  H   UNL     1      33.684  26.297  48.264  0.00  0.00    +0.000 HD
ENDBRANCH   1  17
BRANCH   6  27
ATOM     26  C   UNL     1      35.450  27.913  52.701  0.00  0.00    +0.000 A 
ATOM     27  C   UNL     1      35.275  28.924  51.784  0.00  0.00    +0.000 A 
ATOM     28  C   UNL     1      34.064  29.623  51.730  0.00  0.00    +0.000 A 
ATOM     29  H   UNL     1      33.794  30.433  51.066  0.00  0.00    +0.000 HD
ATOM     30  C   UNL     1      33.022  29.301  52.607  0.00  0.00    +0.000 A 
ATOM     31  C   UNL     1      33.198  28.287  53.525  0.00  0.00    +0.000 A 
ATOM     32  C   UNL     1      34.414  27.607  53.557  0.00  0.00    +0.000 A 
BRANCH  26  33
ATOM     33  O   UNL     1      36.676  27.272  52.696  0.00  0.00    +0.000 OA
ATOM     34  H   UNL     1      37.094  26.941  53.576  0.00  0.00    +0.000 HD
ENDBRANCH  26  33
BRANCH  32  35
ATOM     35  O   UNL     1      34.617  26.583  54.472  0.00  0.00    +0.000 OA
ATOM     36  H   UNL     1      35.264  26.708  55.262  0.00  0.00    +0.000 HD
ENDBRANCH  32  35
ENDBRANCH   6  27
TORSDOF 4
