
 OpenBabel03262523393D

 47 50  0  0  1  0  0  0  0  0999 V2000
   35.2450   30.0500   49.5170 C   0  0  2  0  0  0  0  0  0  0  0  0
   36.1730   31.1770   49.2480 C   0  0  0  0  0  0  0  0  0  0  0  0
   37.6310   30.8430   49.5590 C   0  0  2  0  0  0  0  0  0  0  0  0
   37.7580   30.5320   51.0300 C   0  0  0  0  0  0  0  0  0  0  0  0
   36.6920   29.5690   51.5110 C   0  0  0  0  0  0  0  0  0  0  0  0
   35.9090   28.9840   50.3620 C   0  0  0  0  0  0  0  0  0  0  0  0
   34.3280   30.3460   50.1050 H   0  0  0  0  0  0  0  0  0  0  0  0
   35.9300   31.9420   50.0720 H   0  0  0  0  0  0  0  0  0  0  0  0
   36.1450   31.7330   48.3550 H   0  0  0  0  0  0  0  0  0  0  0  0
   37.8270   29.8820   49.0450 H   0  0  0  0  0  0  0  0  0  0  0  0
   38.7340   29.9730   51.1250 H   0  0  0  0  0  0  0  0  0  0  0  0
   37.8170   31.4550   51.6130 H   0  0  0  0  0  0  0  0  0  0  0  0
   37.0730   28.7660   52.1410 H   0  0  0  0  0  0  0  0  0  0  0  0
   35.9780   30.1900   52.1070 H   0  0  0  0  0  0  0  0  0  0  0  0
   36.5800   28.3440   49.7730 H   0  0  0  0  0  0  0  0  0  0  0  0
   35.1150   28.3450   50.8030 H   0  0  0  0  0  0  0  0  0  0  0  0
   38.5670   31.8440   49.0390 C   0  0  2  0  0  0  0  0  0  0  0  0
   38.8610   33.0090   49.9570 C   0  0  0  0  0  0  0  0  0  0  0  0
   39.6170   33.8940   48.9520 C   0  0  0  0  0  0  0  0  0  0  0  0
   38.9190   33.7680   47.7790 O   0  0  0  0  0  0  0  0  0  0  0  0
   38.2130   32.5460   47.7950 C   0  0  1  0  0  0  0  0  0  0  0  0
   39.5510   31.3420   48.8920 H   0  0  0  0  0  0  0  0  0  0  0  0
   37.9490   33.4950   50.3210 H   0  0  0  0  0  0  0  0  0  0  0  0
   39.5610   32.7210   50.7560 H   0  0  0  0  0  0  0  0  0  0  0  0
   40.6200   33.4510   48.8320 H   0  0  0  0  0  0  0  0  0  0  0  0
   39.6580   34.9330   49.3400 H   0  0  0  0  0  0  0  0  0  0  0  0
   37.1740   32.8000   47.6260 H   0  0  0  0  0  0  0  0  0  0  0  0
   39.3270   32.5040   45.4880 C   0  0  0  0  0  0  0  0  0  0  0  0
   38.6990   31.8650   46.5360 C   0  0  0  0  0  0  0  0  0  0  0  0
   38.5280   30.4910   46.3530 C   0  0  0  0  0  0  0  0  0  0  0  0
   38.0540   29.8870   47.1010 H   0  0  0  0  0  0  0  0  0  0  0  0
   38.9410   29.8010   45.2330 C   0  0  0  0  0  0  0  0  0  0  0  0
   39.5610   30.5070   44.2250 C   0  0  0  0  0  0  0  0  0  0  0  0
   39.7570   31.8660   44.3490 C   0  0  0  0  0  0  0  0  0  0  0  0
   39.5390   33.8510   45.5770 O   0  0  0  0  0  0  0  0  0  0  0  0
   40.4670   34.2720   45.6720 H   0  0  0  0  0  0  0  0  0  0  0  0
   40.3820   32.5820   43.3380 O   0  0  0  0  0  0  0  0  0  0  0  0
   41.3760   32.5570   43.2510 H   0  0  0  0  0  0  0  0  0  0  0  0
   34.7610   29.3890   48.2850 C   0  0  0  0  0  0  0  0  0  0  0  0
   34.9640   30.0990   47.1010 C   0  0  0  0  0  0  0  0  0  0  0  0
   34.5560   29.5270   45.9150 C   0  0  0  0  0  0  0  0  0  0  0  0
   33.9630   28.2780   45.9440 N   0  0  0  0  0  0  0  0  0  0  0  0
   33.7780   27.6110   47.1200 C   0  0  0  0  0  0  0  0  0  0  0  0
   34.1790   28.1810   48.2480 N   0  0  0  0  0  0  0  0  0  0  0  0
   35.3780   31.0460   46.8000 H   0  0  0  0  0  0  0  0  0  0  0  0
   34.5890   29.8390   44.8970 H   0  0  0  0  0  0  0  0  0  0  0  0
   33.3200   26.6440   47.1640 H   0  0  0  0  0  0  0  0  0  0  0  0
  1  7  1  1  0  0  0
  1  6  1  0  0  0  0
  2  1  1  0  0  0  0
  2  3  1  0  0  0  0
  2  8  1  0  0  0  0
  3 10  1  6  0  0  0
  3  4  1  0  0  0  0
  4 11  1  0  0  0  0
  4  5  1  0  0  0  0
  4 12  1  0  0  0  0
  5 14  1  0  0  0  0
  5 13  1  0  0  0  0
  6 16  1  0  0  0  0
  6  5  1  0  0  0  0
  9  2  1  0  0  0  0
 15  6  1  0  0  0  0
 17 22  1  6  0  0  0
 17  3  1  0  0  0  0
 17 18  1  0  0  0  0
 18 23  1  0  0  0  0
 18 24  1  0  0  0  0
 19 26  1  0  0  0  0
 19 18  1  0  0  0  0
 20 21  1  0  0  0  0
 20 19  1  0  0  0  0
 21 27  1  6  0  0  0
 21 17  1  0  0  0  0
 25 19  1  0  0  0  0
 28 35  1  0  0  0  0
 28 29  1  0  0  0  0
 29 21  1  0  0  0  0
 30 29  2  0  0  0  0
 30 31  1  0  0  0  0
 32 30  1  0  0  0  0
 33 34  1  0  0  0  0
 33 32  2  0  0  0  0
 34 28  2  0  0  0  0
 35 36  1  0  0  0  0
 37 34  1  0  0  0  0
 38 37  1  0  0  0  0
 39  1  1  0  0  0  0
 40 39  2  0  0  0  0
 41 42  2  0  0  0  0
 41 40  1  0  0  0  0
 42 43  1  0  0  0  0
 43 47  1  0  0  0  0
 43 44  2  0  0  0  0
 44 39  1  0  0  0  0
 45 40  1  0  0  0  0
 46 41  1  0  0  0  0
M  END
>  <minimizedAffinity>
-7.01828766

>  <minimizedRMSD>
2.26467466

$$$$
