
 OpenBabel03272505593D

 46 49  0  0  1  0  0  0  0  0999 V2000
   35.3830   30.5300   49.9370 C   0  0  2  0  0  0  0  0  0  0  0  0
   36.2910   31.3550   49.1070 C   0  0  0  0  0  0  0  0  0  0  0  0
   37.7420   30.8660   49.1450 C   0  0  2  0  0  0  0  0  0  0  0  0
   38.3040   30.7660   50.4930 C   0  0  0  0  0  0  0  0  0  0  0  0
   37.3190   30.2290   51.5240 C   0  0  0  0  0  0  0  0  0  0  0  0
   36.1210   29.6000   50.8760 C   0  0  0  0  0  0  0  0  0  0  0  0
   34.7300   31.1500   50.6160 H   0  0  0  0  0  0  0  0  0  0  0  0
   36.1160   31.5290   48.0740 H   0  0  0  0  0  0  0  0  0  0  0  0
   36.3440   32.3840   49.5980 H   0  0  0  0  0  0  0  0  0  0  0  0
   37.7380   29.9350   48.5750 H   0  0  0  0  0  0  0  0  0  0  0  0
   39.2410   30.1720   50.4770 H   0  0  0  0  0  0  0  0  0  0  0  0
   38.5970   31.7620   50.8700 H   0  0  0  0  0  0  0  0  0  0  0  0
   37.8420   29.4100   52.0590 H   0  0  0  0  0  0  0  0  0  0  0  0
   37.0490   30.9620   52.2960 H   0  0  0  0  0  0  0  0  0  0  0  0
   36.4340   28.7240   50.2830 H   0  0  0  0  0  0  0  0  0  0  0  0
   35.4370   29.2700   51.6600 H   0  0  0  0  0  0  0  0  0  0  0  0
   38.0140   30.2500   46.2740 Cl  0  0  0  0  0  0  0  0  0  0  0  0
   38.7050   31.6930   46.9980 C   0  0  0  0  0  0  0  0  0  0  0  0
   38.4870   31.8890   48.3570 C   0  0  0  0  0  0  0  0  0  0  0  0
   39.0500   33.0510   48.8210 C   0  0  0  0  0  0  0  0  0  0  0  0
   39.7550   33.9230   48.0170 C   0  0  0  0  0  0  0  0  0  0  0  0
   39.9290   33.6540   46.6650 C   0  0  0  0  0  0  0  0  0  0  0  0
   39.3780   32.4910   46.1430 C   0  0  0  0  0  0  0  0  0  0  0  0
   38.9270   33.2900   49.8680 H   0  0  0  0  0  0  0  0  0  0  0  0
   40.1670   34.8250   48.4770 H   0  0  0  0  0  0  0  0  0  0  0  0
   40.4870   34.3670   46.0830 H   0  0  0  0  0  0  0  0  0  0  0  0
   40.4270   31.3060   44.1210 C   0  0  0  0  0  0  0  0  0  0  0  0
   39.5550   32.1990   44.7230 C   0  0  0  0  0  0  0  0  0  0  0  0
   38.7060   32.9500   43.9100 C   0  0  0  0  0  0  0  0  0  0  0  0
   37.9790   33.6850   44.2930 H   0  0  0  0  0  0  0  0  0  0  0  0
   38.6880   32.8520   42.5490 C   0  0  0  0  0  3  0  0  0  0  0  0
   39.5790   31.9420   41.9780 C   0  0  0  0  0  3  0  0  0  0  0  0
   40.4380   31.1800   42.7550 C   0  0  0  0  0  0  0  0  0  0  0  0
   41.2160   30.6230   45.0390 O   0  0  0  0  0  0  0  0  0  0  0  0
   41.8730   29.9550   44.6140 H   0  0  0  0  0  0  0  0  0  0  0  0
   41.3400   30.2660   42.2380 O   0  0  0  0  0  0  0  0  0  0  0  0
   41.8600   30.4610   41.3900 H   0  0  0  0  0  0  0  0  0  0  0  0
   34.4610   29.7050   49.1400 C   0  0  0  0  0  0  0  0  0  0  0  0
   34.3870   30.0360   47.7870 C   0  0  0  0  0  0  0  0  0  0  0  0
   33.5350   29.2720   46.9760 C   0  0  0  0  0  0  0  0  0  0  0  0
   32.8140   28.2340   47.5530 N   0  0  0  0  0  0  0  0  0  0  0  0
   32.9190   27.9520   48.8650 C   0  0  0  0  0  0  0  0  0  0  0  0
   33.7360   28.6920   49.6200 N   0  0  0  0  0  0  0  0  0  0  0  0
   34.7930   30.7470   47.0900 H   0  0  0  0  0  0  0  0  0  0  0  0
   33.2970   29.3070   45.9380 H   0  0  0  0  0  0  0  0  0  0  0  0
   32.3630   27.1500   49.3220 H   0  0  0  0  0  0  0  0  0  0  0  0
  1  7  1  1  0  0  0
  1  6  1  0  0  0  0
  2  3  1  0  0  0  0
  2  9  1  0  0  0  0
  2  1  1  0  0  0  0
  3 10  1  6  0  0  0
  3  4  1  0  0  0  0
  4 12  1  0  0  0  0
  4  5  1  0  0  0  0
  5 13  1  0  0  0  0
  5 14  1  0  0  0  0
  6  5  1  0  0  0  0
  6 16  1  0  0  0  0
  8  2  1  0  0  0  0
 11  4  1  0  0  0  0
 15  6  1  0  0  0  0
 17 18  1  0  0  0  0
 18 19  1  0  0  0  0
 19 20  2  0  0  0  0
 19  3  1  0  0  0  0
 20 24  1  0  0  0  0
 21 25  1  0  0  0  0
 21 20  1  0  0  0  0
 22 21  2  0  0  0  0
 23 22  1  0  0  0  0
 23 18  2  0  0  0  0
 26 22  1  0  0  0  0
 27 28  1  0  0  0  0
 27 34  1  0  0  0  0
 28 23  1  0  0  0  0
 29 30  1  0  0  0  0
 29 28  2  0  0  0  0
 31 29  1  0  0  0  0
 32 31  2  0  0  0  0
 32 33  1  0  0  0  0
 33 27  2  0  0  0  0
 35 34  1  0  0  0  0
 36 33  1  0  0  0  0
 37 36  1  0  0  0  0
 38 43  1  0  0  0  0
 38  1  1  0  0  0  0
 39 38  2  0  0  0  0
 40 41  2  0  0  0  0
 40 39  1  0  0  0  0
 41 42  1  0  0  0  0
 42 46  1  0  0  0  0
 42 43  2  0  0  0  0
 44 39  1  0  0  0  0
 45 40  1  0  0  0  0
M  END
>  <minimizedAffinity>
-8.24415588

>  <minimizedRMSD>
0.88284117

$$$$
