
 OpenBabel03272506093D

 46 49  0  0  0  0  0  0  0  0999 V2000
   34.8380   28.4550   49.1770 C   0  0  0  0  0  0  0  0  0  0  0  0
   35.7420   28.2930   48.5610 H   0  0  0  0  0  0  0  0  0  0  0  0
   34.8660   27.6060   49.9250 H   0  0  0  0  0  0  0  0  0  0  0  0
   33.5780   28.3060   48.3560 C   0  0  0  0  0  0  0  0  0  0  0  0
   33.6310   28.5620   46.9290 C   0  0  0  0  0  0  0  0  0  0  0  0
   31.9570   28.2600   46.4690 S   0  0  0  0  0  0  0  0  0  0  0  0
   31.3910   27.8340   48.2040 C   0  0  0  0  0  0  0  0  0  0  0  0
   32.4100   27.9640   48.8020 N   0  0  0  0  0  0  0  0  0  0  0  0
   30.0870   27.4490   48.7170 N   0  0  0  0  0  0  0  0  0  0  0  0
   29.2270   26.7630   47.8230 C   0  0  0  0  0  0  0  0  0  0  0  0
   27.8070   26.6970   48.2600 C   0  0  0  0  0  0  0  0  0  0  0  0
   27.5050   27.6000   49.3730 N   0  0  0  0  0  0  0  0  0  0  0  0
   28.4210   27.1920   50.4250 C   0  0  0  0  0  0  0  0  0  0  0  0
   29.7590   27.7900   50.0930 C   0  0  0  0  0  0  0  0  0  0  0  0
   34.4870   28.8500   46.3810 H   0  0  0  0  0  0  0  0  0  0  0  0
   29.2530   27.2940   46.8420 H   0  0  0  0  0  0  0  0  0  0  0  0
   29.6250   25.7310   47.6060 H   0  0  0  0  0  0  0  0  0  0  0  0
   27.6170   25.6770   48.6810 H   0  0  0  0  0  0  0  0  0  0  0  0
   27.0690   26.8700   47.4720 H   0  0  0  0  0  0  0  0  0  0  0  0
   26.5120   27.4580   49.6290 H   0  0  0  0  0  0  0  0  0  0  0  0
   28.1050   27.5870   51.4160 H   0  0  0  0  0  0  0  0  0  0  0  0
   28.4980   26.0980   50.5080 H   0  0  0  0  0  0  0  0  0  0  0  0
   29.6430   28.9070   50.2110 H   0  0  0  0  0  0  0  0  0  0  0  0
   30.4980   27.4460   50.8210 H   0  0  0  0  0  0  0  0  0  0  0  0
   34.8570   29.7330   49.9050 C   0  0  0  0  0  0  0  0  0  0  0  0
   35.1260   29.5750   50.9830 H   0  0  0  0  0  0  0  0  0  0  0  0
   33.9150   30.3050   49.7960 H   0  0  0  0  0  0  0  0  0  0  0  0
   37.4690   32.3550   49.6450 C   0  0  0  0  0  0  0  0  0  0  0  0
   37.9640   32.1580   48.3660 C   0  0  0  0  0  0  0  0  0  0  0  0
   37.4160   31.1420   47.5930 C   0  0  0  0  0  0  0  0  0  0  0  0
   36.4220   30.4030   48.1460 N   0  0  0  0  0  0  0  0  0  0  0  0
   35.9690   30.6260   49.3960 C   0  0  0  0  0  0  0  0  0  0  0  0
   36.4860   31.5880   50.1320 N   0  0  0  0  0  0  0  0  0  0  0  0
   37.9230   33.1630   50.2280 H   0  0  0  0  0  0  0  0  0  0  0  0
   38.7340   32.7610   47.9870 H   0  0  0  0  0  0  0  0  0  0  0  0
   39.0590   30.7020   45.7130 C   0  0  0  0  0  0  0  0  0  0  0  0
   37.7970   30.7920   46.2410 C   0  0  0  0  0  0  0  0  0  0  0  0
   36.8120   30.4990   45.3240 C   0  0  0  0  0  0  0  0  0  0  0  0
   35.7630   30.5220   45.5690 H   0  0  0  0  0  0  0  0  0  0  0  0
   37.0660   30.1520   44.0140 C   0  0  0  0  0  3  0  0  0  0  0  0
   38.3370   30.0760   43.5390 C   0  0  0  0  0  3  0  0  0  0  0  0
   39.3580   30.3590   44.4140 C   0  0  0  0  0  0  0  0  0  0  0  0
   40.1310   30.9690   46.5210 O   0  0  0  0  0  0  0  0  0  0  0  0
   40.6390   31.8340   46.4700 H   0  0  0  0  0  0  0  0  0  0  0  0
   40.6620   30.2920   43.9620 O   0  0  0  0  0  0  0  0  0  0  0  0
   41.1440   29.4440   43.7000 H   0  0  0  0  0  0  0  0  0  0  0  0
  1 25  1  0  0  0  0
  1  3  1  0  0  0  0
  2  1  1  0  0  0  0
  4  8  1  0  0  0  0
  4  1  1  0  0  0  0
  5  4  2  0  0  0  0
  6  5  1  0  0  0  0
  6  7  1  0  0  0  0
  7  9  1  0  0  0  0
  7  8  2  0  0  0  0
  9 14  1  0  0  0  0
 10 11  1  0  0  0  0
 10  9  1  0  0  0  0
 11 18  1  0  0  0  0
 11 12  1  0  0  0  0
 12 20  1  0  0  0  0
 12 13  1  0  0  0  0
 13 22  1  0  0  0  0
 13 21  1  0  0  0  0
 14 23  1  0  0  0  0
 14 13  1  0  0  0  0
 14 24  1  0  0  0  0
 15  5  1  0  0  0  0
 16 10  1  0  0  0  0
 17 10  1  0  0  0  0
 19 11  1  0  0  0  0
 25 26  1  0  0  0  0
 27 25  1  0  0  0  0
 28 33  1  0  0  0  0
 28 34  1  0  0  0  0
 29 28  2  0  0  0  0
 30 31  2  0  0  0  0
 30 29  1  0  0  0  0
 31 32  1  0  0  0  0
 32 25  1  0  0  0  0
 32 33  2  0  0  0  0
 35 29  1  0  0  0  0
 36 37  1  0  0  0  0
 36 43  1  0  0  0  0
 37 30  1  0  0  0  0
 38 39  1  0  0  0  0
 38 37  2  0  0  0  0
 40 38  1  0  0  0  0
 41 40  2  0  0  0  0
 41 42  1  0  0  0  0
 42 36  2  0  0  0  0
 44 43  1  0  0  0  0
 45 42  1  0  0  0  0
 46 45  1  0  0  0  0
M  END
>  <minimizedAffinity>
-7.35049915

>  <minimizedRMSD>
1.11045444

$$$$
