REMARK  Name = 
REMARK  8 active torsions:
REMARK  status: ('A' for Active; 'I' for Inactive)
REMARK    1  A    between atoms: C_1  and  C_4
REMARK    2  A    between atoms: C_3  and  O_11
REMARK    3  A    between atoms: O_11  and  P_13
REMARK    4  A    between atoms: P_13  and  O_14
REMARK    5  A    between atoms: P_13  and  O_15
REMARK    6  A    between atoms: O_15  and  C_27
REMARK    7  A    between atoms: O_25  and  C_26
REMARK    8  A    between atoms: C_32  and  O_33
REMARK                            x       y       z     vdW  Elec       q    Type
REMARK                         _______ _______ _______ _____ _____    ______ ____
ROOT
ATOM      1  C   UNL     1      36.991  31.564  48.676  0.00  0.00    +0.000 C 
ATOM      2  C   UNL     1      36.210  30.925  47.644  0.00  0.00    +0.000 C 
ATOM      3  C   UNL     1      37.182  30.125  48.457  0.00  0.00    +0.000 C 
ATOM      4  H   UNL     1      36.562  31.823  49.704  0.00  0.00    +0.000 HD
ATOM      5  H   UNL     1      36.502  31.150  46.597  0.00  0.00    +0.000 HD
ATOM      6  H   UNL     1      35.178  31.163  47.827  0.00  0.00    +0.000 HD
ATOM      7  H   UNL     1      37.848  29.596  47.789  0.00  0.00    +0.000 HD
ENDROOT
BRANCH   1   8
ATOM      8  C   UNL     1      38.150  32.456  48.328  0.00  0.00    +0.000 A 
ATOM      9  C   UNL     1      38.534  33.378  49.318  0.00  0.00    +0.000 A 
ATOM     10  C   UNL     1      39.595  34.184  48.976  0.00  0.00    +0.000 A 
ATOM     11  N   UNL     1      40.191  34.060  47.769  0.00  0.00    +0.000 NA
ATOM     12  C   UNL     1      39.791  33.157  46.842  0.00  0.00    +0.000 A 
ATOM     13  N   UNL     1      38.735  32.336  47.144  0.00  0.00    +0.000 NA
ATOM     14  N   UNL     1      40.411  32.995  45.600  0.00  0.00    +0.000 N 
ATOM     15  H   UNL     1      38.069  33.488  50.285  0.00  0.00    +0.000 HD
ATOM     16  H   UNL     1      39.927  34.915  49.715  0.00  0.00    +0.000 HD
ATOM     17  H   UNL     1      41.459  33.164  45.646  0.00  0.00    +0.000 HD
ATOM     18  H   UNL     1      39.915  32.743  44.743  0.00  0.00    +0.000 HD
ENDBRANCH   1   8
BRANCH   3  19
ATOM     19  O   UNL     1      36.596  29.301  49.428  0.00  0.00    +0.000 OA
BRANCH  19  21
ATOM     20  O   UNL     1      34.621  27.667  49.687  0.00  0.00    +0.000 OA
ATOM     21  P   UNL     1      35.012  28.959  49.044  0.00  0.00    +0.000 P 
BRANCH  21  22
ATOM     22  O   UNL     1      33.976  30.150  49.736  0.00  0.00    +0.000 OA
ATOM     23  H   UNL     1      33.287  30.446  49.122  0.00  0.00    +0.000 HD
ENDBRANCH  21  22
BRANCH  21  24
ATOM     24  O   UNL     1      34.857  28.951  47.364  0.00  0.00    +0.000 OA
BRANCH  24  26
ATOM     25  C   UNL     1      33.477  27.385  46.079  0.00  0.00    +0.000 A 
ATOM     26  C   UNL     1      33.656  28.605  46.716  0.00  0.00    +0.000 A 
ATOM     27  C   UNL     1      32.593  29.495  46.694  0.00  0.00    +0.000 A 
ATOM     28  H   UNL     1      32.653  30.475  47.171  0.00  0.00    +0.000 HD
ATOM     29  C   UNL     1      31.379  29.248  46.086  0.00  0.00    +0.000 A 
ATOM     30  C   UNL     1      31.226  28.019  45.455  0.00  0.00    +0.000 A 
ATOM     31  C   UNL     1      32.270  27.102  45.457  0.00  0.00    +0.000 A 
BRANCH  25  32
ATOM     32  O   UNL     1      34.513  26.460  46.073  0.00  0.00    +0.000 OA
ATOM     33  H   UNL     1      35.486  26.654  46.098  0.00  0.00    +0.000 HD
ENDBRANCH  25  32
BRANCH  31  34
ATOM     34  O   UNL     1      32.073  25.896  44.819  0.00  0.00    +0.000 OA
ATOM     35  H   UNL     1      31.149  25.567  44.584  0.00  0.00    +0.000 HD
ENDBRANCH  31  34
ENDBRANCH  24  26
ENDBRANCH  21  24
ENDBRANCH  19  21
ENDBRANCH   3  19
TORSDOF 8
