
 OpenBabel03272508053D

 37 40  0  0  0  0  0  0  0  0999 V2000
   38.8290   30.9820   45.8030 C   0  0  0  0  0  0  0  0  0  0  0  0
   39.9430   31.7780   46.0270 C   0  0  0  0  0  0  0  0  0  0  0  0
   40.7940   31.7340   44.9300 C   0  0  0  0  0  0  0  0  0  0  0  0
   40.1490   30.9020   44.0790 N   0  0  0  0  0  0  0  0  0  0  0  0
   39.0040   30.4590   44.5800 N   0  0  0  0  0  0  0  0  0  0  0  0
   40.1570   32.3660   46.9130 H   0  0  0  0  0  0  0  0  0  0  0  0
   41.7260   32.2030   44.7320 H   0  0  0  0  0  0  0  0  0  0  0  0
   37.7270   30.7820   46.7210 C   0  0  0  0  0  0  0  0  0  0  0  0
   37.9500   30.9790   48.1110 C   0  0  0  0  0  0  0  0  0  0  0  0
   36.8650   30.7780   48.9650 C   0  0  0  0  0  0  0  0  0  0  0  0
   35.6710   30.4110   48.4270 N   0  0  0  0  0  0  0  0  0  0  0  0
   35.4880   30.2300   47.1000 C   0  0  0  0  0  0  0  0  0  0  0  0
   36.5260   30.4200   46.2580 N   0  0  0  0  0  0  0  0  0  0  0  0
   38.8950   31.2680   48.5130 H   0  0  0  0  0  0  0  0  0  0  0  0
   34.5150   29.9380   46.7330 H   0  0  0  0  0  0  0  0  0  0  0  0
   37.0770   30.9790   50.4280 C   0  0  0  0  0  0  0  0  0  0  0  0
   36.5750   32.2320   50.7010 F   0  0  0  0  0  0  0  0  0  0  0  0
   36.3820   30.0530   51.1900 F   0  0  0  0  0  0  0  0  0  0  0  0
   38.4190   30.9650   50.7640 F   0  0  0  0  0  0  0  0  0  0  0  0
   40.5660   30.4710   42.7390 C   0  0  0  0  0  0  0  0  0  0  0  0
   40.1880   31.1800   41.5910 C   0  0  0  0  0  0  0  0  0  0  0  0
   40.5940   30.7530   40.3720 C   0  0  0  0  0  0  0  0  0  0  0  0
   41.3970   29.5890   40.2930 C   0  0  0  0  0  0  0  0  0  0  0  0
   41.5660   29.1000   42.0730 S   0  0  0  0  0  0  0  0  0  0  0  0
   39.5680   32.0820   41.6260 H   0  0  0  0  0  0  0  0  0  0  0  0
   40.4110   31.1560   39.3960 H   0  0  0  0  0  0  0  0  0  0  0  0
   41.5130   27.5850   38.9800 C   0  0  0  0  0  0  0  0  0  0  0  0
   42.0080   28.8370   39.2630 C   0  0  0  0  0  0  0  0  0  0  0  0
   43.0660   29.4370   38.6230 C   0  0  0  0  0  0  0  0  0  0  0  0
   43.4190   30.4140   38.8770 H   0  0  0  0  0  0  0  0  0  0  0  0
   43.7030   28.7290   37.5960 C   0  0  0  0  0  3  0  0  0  0  0  0
   43.2360   27.4500   37.2710 C   0  0  0  0  0  3  0  0  0  0  0  0
   42.1530   26.8830   37.9530 C   0  0  0  0  0  0  0  0  0  0  0  0
   40.4440   26.9820   39.6280 O   0  0  0  0  0  0  0  0  0  0  0  0
   39.4790   27.1530   39.4130 H   0  0  0  0  0  0  0  0  0  0  0  0
   41.6810   25.6140   37.6370 O   0  0  0  0  0  0  0  0  0  0  0  0
   41.2130   25.4970   36.7420 H   0  0  0  0  0  0  0  0  0  0  0  0
  1  2  1  0  0  0  0
  1  8  1  0  0  0  0
  2  6  1  0  0  0  0
  3  2  2  0  0  0  0
  4  5  1  0  0  0  0
  4  3  1  0  0  0  0
  5  1  2  0  0  0  0
  7  3  1  0  0  0  0
  8  9  1  0  0  0  0
  9 14  1  0  0  0  0
  9 10  2  0  0  0  0
 10 16  1  0  0  0  0
 11 10  1  0  0  0  0
 12 11  2  0  0  0  0
 13  8  2  0  0  0  0
 13 12  1  0  0  0  0
 15 12  1  0  0  0  0
 16 17  1  0  0  0  0
 16 19  1  0  0  0  0
 16 18  1  0  0  0  0
 20  4  1  0  0  0  0
 21 25  1  0  0  0  0
 21 20  2  0  0  0  0
 22 21  1  0  0  0  0
 23 22  2  0  0  0  0
 23 24  1  0  0  0  0
 24 20  1  0  0  0  0
 26 22  1  0  0  0  0
 27 28  1  0  0  0  0
 27 34  1  0  0  0  0
 28 23  1  0  0  0  0
 29 30  1  0  0  0  0
 29 28  2  0  0  0  0
 31 29  1  0  0  0  0
 32 31  2  0  0  0  0
 32 33  1  0  0  0  0
 33 27  2  0  0  0  0
 35 34  1  0  0  0  0
 36 33  1  0  0  0  0
 37 36  1  0  0  0  0
M  END
>  <minimizedAffinity>
-6.5057025

>  <minimizedRMSD>
0.820125401

$$$$
