
     RDKit          3D

 37 39  0  0  0  0  0  0  0  0999 V2000
   36.9910   31.5637   48.6761 C   0  0  1  0  0  0  0  0  0  0  0  0
   36.2100   30.9252   47.6438 C   0  0  0  0  0  0  0  0  0  0  0  0
   37.1823   30.1250   48.4573 C   0  0  2  0  0  0  0  0  0  0  0  0
   38.1496   32.4556   48.3276 C   0  0  0  0  0  0  0  0  0  0  0  0
   38.5338   33.3781   49.3180 C   0  0  0  0  0  0  0  0  0  0  0  0
   39.5954   34.1835   48.9758 C   0  0  0  0  0  0  0  0  0  0  0  0
   40.1913   34.0598   47.7686 N   0  0  0  0  0  0  0  0  0  0  0  0
   39.7912   33.1570   46.8424 C   0  0  0  0  0  0  0  0  0  0  0  0
   38.7350   32.3356   47.1444 N   0  0  0  0  0  0  0  0  0  0  0  0
   40.4110   32.9949   45.5997 N   0  0  0  0  0  0  0  0  0  0  0  0
   36.5962   29.3011   49.4280 O   0  0  0  0  0  0  0  0  0  0  0  0
   34.6210   27.6674   49.6874 O   0  0  0  0  0  0  0  0  0  0  0  0
   35.0116   28.9590   49.0444 P   0  0  1  0  0  0  0  0  0  0  0  0
   33.9763   30.1501   49.7362 O   0  0  0  0  0  0  0  0  0  0  0  0
   34.8573   28.9509   47.3644 O   0  0  0  0  0  0  0  0  0  0  0  0
   36.5615   31.8227   49.7044 H   0  0  0  0  0  0  0  0  0  0  0  0
   36.5018   31.1499   46.5970 H   0  0  0  0  0  0  0  0  0  0  0  0
   35.1775   31.1630   47.8272 H   0  0  0  0  0  0  0  0  0  0  0  0
   37.8476   29.5962   47.7887 H   0  0  0  0  0  0  0  0  0  0  0  0
   38.0692   33.4884   50.2852 H   0  0  0  0  0  0  0  0  0  0  0  0
   39.9274   34.9154   49.7146 H   0  0  0  0  0  0  0  0  0  0  0  0
   41.4588   33.1637   45.6461 H   0  0  0  0  0  0  0  0  0  0  0  0
   39.9148   32.7429   44.7433 H   0  0  0  0  0  0  0  0  0  0  0  0
   33.2874   30.4457   49.1218 H   0  0  0  0  0  0  0  0  0  0  0  0
   34.8028   27.2156   45.1331 O   0  0  0  0  0  0  0  0  0  0  0  0
   33.6192   27.7542   45.6193 C   0  0  0  0  0  0  0  0  0  0  0  0
   33.6558   28.6055   46.7157 C   0  0  0  0  0  0  0  0  0  0  0  0
   32.4478   29.1176   47.1637 C   0  0  0  0  0  0  0  0  0  0  0  0
   32.3911   29.7932   48.0192 H   0  0  0  0  0  0  0  0  0  0  0  0
   31.2221   28.8383   46.5957 C   0  0  0  0  0  0  0  0  0  0  0  0
   31.2127   27.9834   45.4992 C   0  0  0  0  0  0  0  0  0  0  0  0
   32.4046   27.4513   45.0227 C   0  0  0  0  0  0  0  0  0  0  0  0
   32.3461   26.6081   43.9331 O   0  0  0  0  0  0  0  0  0  0  0  0
   35.7057   27.6261   45.1733 H   0  0  0  0  0  0  0  0  0  0  0  0
   30.2987   29.2563   46.9720 H   0  0  0  0  0  0  0  0  0  0  0  0
   30.2462   27.7567   45.0429 H   0  0  0  0  0  0  0  0  0  0  0  0
   31.4816   26.1787   43.6423 H   0  0  0  0  0  0  0  0  0  0  0  0
  2  3  1  0
  2  1  1  0
  3  1  1  0
  3 11  1  0
  4  1  1  0
  4  5  2  0
  6  5  1  0
  7  6  2  0
  8  9  2  0
  8  7  1  0
  9  4  1  0
 10  8  1  0
 13 11  1  6
 13 12  2  0
 13 14  1  0
 15 13  1  0
  1 16  1  1
  2 17  1  0
  2 18  1  0
  3 19  1  6
  5 20  1  0
  6 21  1  0
 10 22  1  0
 10 23  1  0
 14 24  1  0
 25 26  1  0
 26 27  2  0
 27 28  1  0
 28 29  1  0
 28 30  2  0
 30 31  1  0
 31 32  2  0
 32 33  1  0
 32 26  1  0
 25 34  1  0
 30 35  1  0
 31 36  1  0
 33 37  1  0
 15 27  1  0
M  ISO  8  16  13  17  13  18  13  19  13  20  14  21  14  24   3  29  16
M  END
>  <DihAtoms>  (1) 
12,14,26,25

>  <DihDeg>  (1) 
-179.99983109316824

$$$$
