
 OpenBabel03272508283D

 40 43  0  0  1  0  0  0  0  0999 V2000
   32.5320   28.8660   46.9270 C   0  0  2  0  0  0  0  0  0  0  0  0
   33.3140   27.7780   47.6540 C   0  0  2  0  0  0  0  0  0  0  0  0
   32.5090   27.3830   48.6870 O   0  0  0  0  0  0  0  0  0  0  0  0
   31.2020   27.6560   48.4170 C   0  0  0  0  0  0  0  0  0  0  0  0
   31.1260   28.2630   47.0310 C   0  0  1  0  0  0  0  0  0  0  0  0
   32.5410   29.8220   47.4700 H   0  0  0  0  0  0  0  0  0  0  0  0
   33.4650   26.9500   46.9460 H   0  0  0  0  0  0  0  0  0  0  0  0
   30.6140   26.7140   48.3940 H   0  0  0  0  0  0  0  0  0  0  0  0
   30.7430   28.4020   49.1080 H   0  0  0  0  0  0  0  0  0  0  0  0
   31.0220   27.4480   46.2980 H   0  0  0  0  0  0  0  0  0  0  0  0
   34.6410   29.6960   48.7800 C   0  0  1  0  0  0  0  0  0  0  0  0
   34.5840   28.4030   48.1390 C   0  0  1  0  0  0  0  0  0  0  0  0
   34.9430   28.4240   49.5890 C   0  0  0  0  0  0  0  0  0  0  0  0
   33.8200   30.2680   49.2490 H   0  0  0  0  0  0  0  0  0  0  0  0
   35.4460   28.1690   47.4500 H   0  0  0  0  0  0  0  0  0  0  0  0
   36.0030   28.2230   49.8790 H   0  0  0  0  0  0  0  0  0  0  0  0
   34.2390   28.1200   50.3610 H   0  0  0  0  0  0  0  0  0  0  0  0
   35.8720   30.5780   48.6480 C   0  0  0  0  0  0  0  0  0  0  0  0
   36.2460   31.3320   49.7630 C   0  0  0  0  0  0  0  0  0  0  0  0
   37.3570   32.1320   49.5950 C   0  0  0  0  0  0  0  0  0  0  0  0
   38.0280   32.1640   48.3960 N   0  0  0  0  0  0  0  0  0  0  0  0
   37.6300   31.4170   47.3390 C   0  0  0  0  0  0  0  0  0  0  0  0
   36.5410   30.6160   47.4660 N   0  0  0  0  0  0  0  0  0  0  0  0
   35.6770   31.2620   50.6760 H   0  0  0  0  0  0  0  0  0  0  0  0
   37.6840   32.7350   50.4400 H   0  0  0  0  0  0  0  0  0  0  0  0
   38.1870   31.4730   46.4140 H   0  0  0  0  0  0  0  0  0  0  0  0
   32.9070   29.0450   45.6160 O   0  0  0  0  0  0  0  0  0  0  0  0
   32.7700   28.2480   45.0720 H   0  0  0  0  0  0  0  0  0  0  0  0
   30.1520   29.2040   46.8920 O   0  0  0  0  0  0  0  0  0  0  0  0
   28.0330   28.6260   46.2800 C   0  0  0  0  0  0  0  0  0  0  0  0
   28.8630   29.0830   47.3140 C   0  0  0  0  0  0  0  0  0  0  0  0
   28.2650   29.3220   48.5300 C   0  0  0  0  0  0  0  0  0  0  0  0
   28.9590   29.6690   49.2710 H   0  0  0  0  0  0  0  0  0  0  0  0
   26.9240   29.1250   48.7260 C   0  0  0  0  0  3  0  0  0  0  0  0
   26.1090   28.6770   47.7120 C   0  0  0  0  0  3  0  0  0  0  0  0
   26.6710   28.4250   46.4770 C   0  0  0  0  0  0  0  0  0  0  0  0
   28.4420   28.3280   44.9860 O   0  0  0  0  0  0  0  0  0  0  0  0
   28.5600   29.0940   44.3320 H   0  0  0  0  0  0  0  0  0  0  0  0
   25.8080   27.9780   45.4990 O   0  0  0  0  0  0  0  0  0  0  0  0
   26.0560   27.2440   44.8280 H   0  0  0  0  0  0  0  0  0  0  0  0
  1  5  1  0  0  0  0
  1  6  1  1  0  0  0
  1  2  1  0  0  0  0
  2  7  1  6  0  0  0
  2 12  1  0  0  0  0
  2  3  1  0  0  0  0
  4  3  1  0  0  0  0
  4  9  1  0  0  0  0
  5 10  1  6  0  0  0
  5  4  1  0  0  0  0
  8  4  1  0  0  0  0
 11 14  1  1  0  0  0
 11 13  1  0  0  0  0
 12 15  1  6  0  0  0
 12 11  1  0  0  0  0
 12 13  1  0  0  0  0
 13 16  1  0  0  0  0
 13 17  1  0  0  0  0
 18 11  1  0  0  0  0
 18 19  1  0  0  0  0
 19 24  1  0  0  0  0
 20 19  2  0  0  0  0
 20 25  1  0  0  0  0
 21 20  1  0  0  0  0
 22 23  1  0  0  0  0
 22 21  2  0  0  0  0
 23 18  2  0  0  0  0
 26 22  1  0  0  0  0
 27  1  1  0  0  0  0
 28 27  1  0  0  0  0
 29  5  1  0  0  0  0
 29 31  1  0  0  0  0
 30 36  2  0  0  0  0
 30 31  1  0  0  0  0
 31 32  2  0  0  0  0
 32 34  1  0  0  0  0
 32 33  1  0  0  0  0
 35 34  2  0  0  0  0
 36 35  1  0  0  0  0
 37 30  1  0  0  0  0
 38 37  1  0  0  0  0
 39 36  1  0  0  0  0
 40 39  1  0  0  0  0
M  END
>  <minimizedAffinity>
-6.13555765

>  <minimizedRMSD>
2.71160507

$$$$
