REMARK  Name = 
REMARK  6 active torsions:
REMARK  status: ('A' for Active; 'I' for Inactive)
REMARK    1  A    between atoms: C_1  and  C_6
REMARK    2  A    between atoms: N_4  and  C_16
REMARK    3  A    between atoms: C_8  and  C_12
REMARK    4  A    between atoms: C_19  and  C_29
REMARK    5  A    between atoms: O_27  and  C_28
REMARK    6  A    between atoms: C_34  and  O_35
REMARK                            x       y       z     vdW  Elec       q    Type
REMARK                         _______ _______ _______ _____ _____    ______ ____
ROOT
ATOM      1  C   UNL     1      38.910  30.885  45.759  0.00  0.00    +0.000 A 
ATOM      2  C   UNL     1      40.111  31.526  46.028  0.00  0.00    +0.000 A 
ATOM      3  C   UNL     1      40.945  31.469  44.919  0.00  0.00    +0.000 A 
ATOM      4  N   UNL     1      40.203  30.787  44.016  0.00  0.00    +0.000 N 
ATOM      5  N   UNL     1      39.016  30.443  44.497  0.00  0.00    +0.000 NA
ATOM      6  H   UNL     1      40.397  32.013  46.954  0.00  0.00    +0.000 HD
ATOM      7  H   UNL     1      41.925  31.840  44.745  0.00  0.00    +0.000 HD
ENDROOT
BRANCH   1   8
ATOM      8  C   UNL     1      37.797  30.744  46.675  0.00  0.00    +0.000 A 
ATOM      9  C   UNL     1      38.017  30.971  48.061  0.00  0.00    +0.000 A 
ATOM     10  C   UNL     1      36.922  30.827  48.912  0.00  0.00    +0.000 A 
ATOM     11  N   UNL     1      35.720  30.482  48.376  0.00  0.00    +0.000 NA
ATOM     12  C   UNL     1      35.540  30.271  47.053  0.00  0.00    +0.000 A 
ATOM     13  N   UNL     1      36.588  30.406  46.214  0.00  0.00    +0.000 NA
ATOM     14  H   UNL     1      38.968  31.242  48.461  0.00  0.00    +0.000 HD
ATOM     15  H   UNL     1      34.560  29.999  46.688  0.00  0.00    +0.000 HD
BRANCH  10  16
ATOM     16  C   UNL     1      37.131  31.061  50.371  0.00  0.00    +0.000 C 
ATOM     17  F   UNL     1      36.595  32.304  50.622  0.00  0.00    +0.000 F 
ATOM     18  F   UNL     1      36.463  30.130  51.151  0.00  0.00    +0.000 F 
ATOM     19  F   UNL     1      38.473  31.090  50.704  0.00  0.00    +0.000 F 
ENDBRANCH  10  16
ENDBRANCH   1   8
BRANCH   4  20
ATOM     20  C   UNL     1      40.559  30.417  42.641  0.00  0.00    +0.000 A 
ATOM     21  C   UNL     1      40.197  31.218  41.549  0.00  0.00    +0.000 A 
ATOM     22  C   UNL     1      40.546  30.845  40.296  0.00  0.00    +0.000 A 
ATOM     23  C   UNL     1      41.274  29.642  40.123  0.00  0.00    +0.000 A 
ATOM     24  S   UNL     1      41.456  29.033  41.864  0.00  0.00    +0.000 S 
ATOM     25  H   UNL     1      39.635  32.151  41.657  0.00  0.00    +0.000 HD
ATOM     26  H   UNL     1      40.364  31.318  39.352  0.00  0.00    +0.000 HD
BRANCH  23  28
ATOM     27  C   UNL     1      41.169  27.776  38.619  0.00  0.00    +0.000 A 
ATOM     28  C   UNL     1      41.812  28.921  39.032  0.00  0.00    +0.000 A 
ATOM     29  C   UNL     1      42.954  29.438  38.470  0.00  0.00    +0.000 A 
ATOM     30  H   UNL     1      43.421  30.333  38.823  0.00  0.00    +0.000 HD
ATOM     31  C   UNL     1      43.523  28.757  37.386  0.00  0.00    +0.000 A 
ATOM     32  C   UNL     1      42.906  27.587  36.929  0.00  0.00    +0.000 A 
ATOM     33  C   UNL     1      41.742  27.100  37.536  0.00  0.00    +0.000 A 
BRANCH  27  34
ATOM     34  O   UNL     1      40.017  27.257  39.189  0.00  0.00    +0.000 OA
ATOM     35  H   UNL     1      39.086  27.570  38.979  0.00  0.00    +0.000 HD
ENDBRANCH  27  34
BRANCH  33  36
ATOM     36  O   UNL     1      41.122  25.940  37.089  0.00  0.00    +0.000 OA
ATOM     37  H   UNL     1      40.666  25.971  36.181  0.00  0.00    +0.000 HD
ENDBRANCH  33  36
ENDBRANCH  23  28
ENDBRANCH   4  20
TORSDOF 6
