
 OpenBabel03272504573D

 35 37  0  0  1  0  0  0  0  0999 V2000
   37.0170   31.5320   48.7010 C   0  0  1  0  0  0  0  0  0  0  0  0
   36.2170   30.9040   47.6770 C   0  0  0  0  0  0  0  0  0  0  0  0
   37.2140   30.0980   48.4550 C   0  0  2  0  0  0  0  0  0  0  0  0
   36.6100   31.7720   49.7430 H   0  0  0  0  0  0  0  0  0  0  0  0
   36.4840   31.1470   46.6270 H   0  0  0  0  0  0  0  0  0  0  0  0
   35.1880   31.1310   47.8880 H   0  0  0  0  0  0  0  0  0  0  0  0
   37.8680   29.5850   47.7630 H   0  0  0  0  0  0  0  0  0  0  0  0
   38.1620   32.4380   48.3410 C   0  0  0  0  0  0  0  0  0  0  0  0
   38.5270   33.3830   49.3160 C   0  0  0  0  0  0  0  0  0  0  0  0
   39.5750   34.2020   48.9630 C   0  0  0  0  0  0  0  0  0  0  0  0
   40.1760   34.0680   47.7600 N   0  0  0  0  0  0  0  0  0  0  0  0
   39.7950   33.1420   46.8470 C   0  0  0  0  0  0  0  0  0  0  0  0
   38.7520   32.3080   47.1600 N   0  0  0  0  0  0  0  0  0  0  0  0
   40.4210   32.9700   45.6100 N   0  0  0  0  0  0  0  0  0  0  0  0
   38.0570   33.5020   50.2800 H   0  0  0  0  0  0  0  0  0  0  0  0
   39.8920   34.9510   49.6900 H   0  0  0  0  0  0  0  0  0  0  0  0
   41.4660   33.1580   45.6550 H   0  0  0  0  0  0  0  0  0  0  0  0
   39.9320   32.6950   44.7560 H   0  0  0  0  0  0  0  0  0  0  0  0
   36.6560   29.2550   49.4260 O   0  0  0  0  0  0  0  0  0  0  0  0
   34.6440   27.6790   49.7570 O   0  0  0  0  0  0  0  0  0  0  0  0
   35.0450   28.9690   49.1140 P   0  0  1  0  0  0  0  0  0  0  0  0
   34.0820   30.1800   49.8730 O   0  0  0  0  0  0  0  0  0  0  0  0
   33.3740   30.5070   49.2970 H   0  0  0  0  0  0  0  0  0  0  0  0
   34.8090   28.9920   47.4440 O   0  0  0  0  0  0  0  0  0  0  0  0
   33.5670   28.2150   45.4780 C   0  0  0  0  0  0  0  0  0  0  0  0
   33.6400   28.4950   46.8370 C   0  0  0  0  0  0  0  0  0  0  0  0
   32.5020   28.2670   47.5960 C   0  0  0  0  0  0  0  0  0  0  0  0
   32.4780   28.4610   48.6690 H   0  0  0  0  0  0  0  0  0  0  0  0
   31.3120   27.7820   47.0930 C   0  0  0  0  0  3  0  0  0  0  0  0
   31.2650   27.5100   45.7300 C   0  0  0  0  0  3  0  0  0  0  0  0
   32.3870   27.7270   44.9390 C   0  0  0  0  0  0  0  0  0  0  0  0
   34.6800   28.4280   44.6770 O   0  0  0  0  0  0  0  0  0  0  0  0
   35.3930   29.1050   44.8120 H   0  0  0  0  0  0  0  0  0  0  0  0
   32.2930   27.4430   43.5930 O   0  0  0  0  0  0  0  0  0  0  0  0
   31.5530   26.8660   43.2240 H   0  0  0  0  0  0  0  0  0  0  0  0
  1  4  1  1  0  0  0
  2  6  1  0  0  0  0
  2  3  1  0  0  0  0
  2  1  1  0  0  0  0
  3  7  1  6  0  0  0
  3  1  1  0  0  0  0
  3 19  1  0  0  0  0
  5  2  1  0  0  0  0
  8  1  1  0  0  0  0
  8  9  1  0  0  0  0
  9 15  1  0  0  0  0
 10  9  2  0  0  0  0
 10 16  1  0  0  0  0
 11 10  1  0  0  0  0
 12 13  1  0  0  0  0
 12 11  2  0  0  0  0
 13  8  2  0  0  0  0
 14 17  1  0  0  0  0
 14 12  1  0  0  0  0
 18 14  1  0  0  0  0
 21 19  1  0  0  0  0
 21 20  2  1  0  0  0
 21 22  1  0  0  0  0
 23 22  1  0  0  0  0
 24 21  1  0  0  0  0
 25 26  1  0  0  0  0
 26 24  1  0  0  0  0
 26 27  2  0  0  0  0
 27 28  1  0  0  0  0
 29 27  1  0  0  0  0
 30 29  2  0  0  0  0
 31 25  2  0  0  0  0
 31 30  1  0  0  0  0
 32 33  1  0  0  0  0
 32 25  1  0  0  0  0
 34 31  1  0  0  0  0
 35 34  1  0  0  0  0
M  END
>  <minimizedAffinity>
-4.7824564

>  <minimizedRMSD>
0.488366485

$$$$
