
 OpenBabel03272506483D

 44 47  0  0  1  0  0  0  0  0999 V2000
   32.0960   28.4210   47.3510 C   0  0  2  0  0  0  0  0  0  0  0  0
   33.2980   28.3200   48.2440 C   0  0  1  0  0  0  0  0  0  0  0  0
   33.7420   27.0340   48.2090 O   0  0  0  0  0  0  0  0  0  0  0  0
   33.1080   26.3510   47.1760 C   0  0  0  0  0  0  0  0  0  0  0  0
   32.5220   27.3950   46.2580 C   0  0  1  0  0  0  0  0  0  0  0  0
   31.1590   28.0770   47.7760 H   0  0  0  0  0  0  0  0  0  0  0  0
   33.0900   28.7000   49.2740 H   0  0  0  0  0  0  0  0  0  0  0  0
   32.3800   25.6970   47.6650 H   0  0  0  0  0  0  0  0  0  0  0  0
   33.8220   25.6830   46.6340 H   0  0  0  0  0  0  0  0  0  0  0  0
   33.2900   27.8620   45.6470 H   0  0  0  0  0  0  0  0  0  0  0  0
   32.0170   29.7040   46.7710 O   0  0  0  0  0  0  0  0  0  0  0  0
   32.1000   30.3360   47.5260 H   0  0  0  0  0  0  0  0  0  0  0  0
   34.6120   29.3850   47.5270 S   0  0  0  0  0  0  0  0  0  0  0  0
   37.0440   29.1990   50.6510 C   0  0  0  0  0  0  0  0  0  0  0  0
   37.4710   30.5090   50.8580 C   0  0  0  0  0  0  0  0  0  0  0  0
   36.9910   31.4930   50.0000 C   0  0  0  0  0  0  0  0  0  0  0  0
   36.1290   31.1310   49.0020 N   0  0  0  0  0  0  0  0  0  0  0  0
   35.7420   29.8450   48.8410 C   0  0  0  0  0  0  0  0  0  0  0  0
   36.1920   28.8650   49.6580 N   0  0  0  0  0  0  0  0  0  0  0  0
   37.4070   28.4210   51.3080 H   0  0  0  0  0  0  0  0  0  0  0  0
   38.1540   30.7470   51.6620 H   0  0  0  0  0  0  0  0  0  0  0  0
   37.2990   32.5160   50.1300 H   0  0  0  0  0  0  0  0  0  0  0  0
   31.4310   26.8670   45.6150 O   0  0  0  0  0  0  0  0  0  0  0  0
   30.0790   28.8860   43.9520 Cl  0  0  0  0  0  0  0  0  0  0  0  0
   29.4270   27.9510   45.2780 C   0  0  0  0  0  0  0  0  0  0  0  0
   30.1590   27.0220   45.9790 C   0  0  0  0  0  0  0  0  0  0  0  0
   29.5180   26.3210   47.0010 C   0  0  0  0  0  0  0  0  0  0  0  0
   28.1960   26.5560   47.2980 C   0  0  0  0  0  0  0  0  0  0  0  0
   27.4510   27.4890   46.5990 C   0  0  0  0  0  0  0  0  0  0  0  0
   28.0730   28.1900   45.5830 C   0  0  0  0  0  0  0  0  0  0  0  0
   29.9890   25.5690   47.6080 H   0  0  0  0  0  0  0  0  0  0  0  0
   27.6310   26.0570   48.0710 H   0  0  0  0  0  0  0  0  0  0  0  0
   26.4020   27.6950   46.8140 H   0  0  0  0  0  0  0  0  0  0  0  0
   27.2900   30.4070   45.4960 C   0  0  0  0  0  0  0  0  0  0  0  0
   27.3070   29.1830   44.8300 C   0  0  0  0  0  0  0  0  0  0  0  0
   26.6520   29.0460   43.6280 C   0  0  0  0  0  0  0  0  0  0  0  0
   26.7340   28.0550   43.2090 H   0  0  0  0  0  0  0  0  0  0  0  0
   25.9840   30.1340   43.0990 C   0  0  0  0  0  3  0  0  0  0  0  0
   25.9520   31.3520   43.7360 C   0  0  0  0  0  3  0  0  0  0  0  0
   26.6170   31.4960   44.9560 C   0  0  0  0  0  0  0  0  0  0  0  0
   27.9000   30.6990   46.7060 O   0  0  0  0  0  0  0  0  0  0  0  0
   27.6160   30.3750   47.6030 H   0  0  0  0  0  0  0  0  0  0  0  0
   26.5480   32.7480   45.5480 O   0  0  0  0  0  0  0  0  0  0  0  0
   26.6440   32.7700   46.5740 H   0  0  0  0  0  0  0  0  0  0  0  0
  1  6  1  1  0  0  0
  1  2  1  0  0  0  0
  2  7  1  1  0  0  0
  3  2  1  0  0  0  0
  4  8  1  0  0  0  0
  4  3  1  0  0  0  0
  5 10  1  6  0  0  0
  5  4  1  0  0  0  0
  5  1  1  0  0  0  0
  9  4  1  0  0  0  0
 11  1  1  0  0  0  0
 11 12  1  0  0  0  0
 13  2  1  0  0  0  0
 13 18  1  0  0  0  0
 14 15  1  0  0  0  0
 14 20  1  0  0  0  0
 15 21  1  0  0  0  0
 16 22  1  0  0  0  0
 16 15  2  0  0  0  0
 17 16  1  0  0  0  0
 18 17  2  0  0  0  0
 18 19  1  0  0  0  0
 19 14  2  0  0  0  0
 23 26  1  0  0  0  0
 23  5  1  0  0  0  0
 24 25  1  0  0  0  0
 25 30  2  0  0  0  0
 25 26  1  0  0  0  0
 26 27  2  0  0  0  0
 27 28  1  0  0  0  0
 27 31  1  0  0  0  0
 28 32  1  0  0  0  0
 29 33  1  0  0  0  0
 29 28  2  0  0  0  0
 30 29  1  0  0  0  0
 34 41  1  0  0  0  0
 35 34  2  0  0  0  0
 35 30  1  0  0  0  0
 36 35  1  0  0  0  0
 37 36  1  0  0  0  0
 38 36  2  0  0  0  0
 38 39  1  0  0  0  0
 39 40  2  0  0  0  0
 40 34  1  0  0  0  0
 40 43  1  0  0  0  0
 41 42  1  0  0  0  0
 43 44  1  0  0  0  0
M  END
>  <minimizedAffinity>
-5.60931301

>  <minimizedRMSD>
0.369536608

$$$$
