
     RDKit          3D

 48 51  0  0  0  0  0  0  0  0999 V2000
   34.8247   28.3716   49.4312 C   0  0  0  0  0  0  0  0  0  0  0  0
   33.5851   28.3110   48.5693 C   0  0  0  0  0  0  0  0  0  0  0  0
   33.6755   28.7002   47.1736 C   0  0  0  0  0  0  0  0  0  0  0  0
   32.0119   28.4546   46.6465 S   0  0  0  0  0  0  0  0  0  0  0  0
   31.4001   27.8715   48.3203 C   0  0  0  0  0  0  0  0  0  0  0  0
   32.4047   27.9372   48.9518 N   0  0  0  0  0  0  0  0  0  0  0  0
   30.0819   27.4504   48.7620 N   0  0  0  0  0  0  0  0  0  0  0  0
   29.2411   26.8575   47.7861 C   0  0  0  0  0  0  0  0  0  0  0  0
   27.8097   26.7623   48.1798 C   0  0  0  0  0  0  0  0  0  0  0  0
   27.4855   27.5592   49.3657 N   0  0  0  0  0  0  0  0  0  0  0  0
   28.3716   27.0464   50.3967 C   0  0  0  0  0  0  0  0  0  0  0  0
   29.7209   27.6632   50.1557 C   0  0  0  0  0  0  0  0  0  0  0  0
   34.9464   29.6730   50.1068 C   0  0  0  0  0  0  0  0  0  0  0  0
   37.5279   32.2796   49.5574 C   0  0  0  0  0  0  0  0  0  0  0  0
   38.2852   31.7383   48.5313 C   0  0  0  0  0  0  0  0  0  0  0  0
   37.9237   30.4964   48.0261 C   0  0  0  0  0  0  0  0  0  0  0  0
   36.8428   29.8882   48.5752 N   0  0  0  0  0  0  0  0  0  0  0  0
   36.1317   30.4490   49.5737 C   0  0  0  0  0  0  0  0  0  0  0  0
   36.4707   31.6265   50.0558 N   0  0  0  0  0  0  0  0  0  0  0  0
   35.7290   28.0961   48.8568 H   0  0  0  0  0  0  0  0  0  0  0  0
   34.7435   27.5575   50.2133 H   0  0  0  0  0  0  0  0  0  0  0  0
   34.5457   29.0324   46.6771 H   0  0  0  0  0  0  0  0  0  0  0  0
   29.2941   27.4786   46.8605 H   0  0  0  0  0  0  0  0  0  0  0  0
   29.6393   25.8479   47.4830 H   0  0  0  0  0  0  0  0  0  0  0  0
   27.6041   25.7094   48.4989 H   0  0  0  0  0  0  0  0  0  0  0  0
   27.0934   27.0136   47.3935 H   0  0  0  0  0  0  0  0  0  0  0  0
   26.4848   27.4013   49.5832 H   0  0  0  0  0  0  0  0  0  0  0  0
   28.0340   27.3492   51.4135 H   0  0  0  0  0  0  0  0  0  0  0  0
   28.4411   25.9488   50.3779 H   0  0  0  0  0  0  0  0  0  0  0  0
   29.6081   28.7645   50.3760 H   0  0  0  0  0  0  0  0  0  0  0  0
   30.4399   27.2463   50.8664 H   0  0  0  0  0  0  0  0  0  0  0  0
   35.1928   29.5383   51.1926 H   0  0  0  0  0  0  0  0  0  0  0  0
   34.0554   30.3157   49.9653 H   0  0  0  0  0  0  0  0  0  0  0  0
   37.8392   33.2602   49.9334 H   0  0  0  0  0  0  0  0  0  0  0  0
   39.1128   32.2531   48.1425 H   0  0  0  0  0  0  0  0  0  0  0  0
   40.6014   31.0036   46.9643 O   0  0  0  0  0  0  0  0  0  0  0  0
   39.8404   29.9938   46.4434 C   0  0  0  0  0  0  0  0  0  0  0  0
   38.5883   29.7776   46.9583 C   0  0  0  0  0  0  0  0  0  0  0  0
   37.9300   28.7339   46.3463 C   0  0  0  0  0  0  0  0  0  0  0  0
   36.9362   28.4277   46.6256 H   0  0  0  0  0  0  0  0  0  0  0  0
   38.4720   27.9845   45.3231 C   0  0  0  0  0  0  0  0  0  0  0  0
   39.7194   28.2387   44.8469 C   0  0  0  0  0  0  0  0  0  0  0  0
   40.4190   29.2712   45.4245 C   0  0  0  0  0  0  0  0  0  0  0  0
   41.6902   29.5556   44.9633 O   0  0  0  0  0  0  0  0  0  0  0  0
   40.7264   31.8813   46.4898 H   0  0  0  0  0  0  0  0  0  0  0  0
   37.9357   27.1744   44.8625 H   0  0  0  0  0  0  0  0  0  0  0  0
   40.1465   27.6660   44.0576 H   0  0  0  0  0  0  0  0  0  0  0  0
   42.4983   28.9633   45.0826 H   0  0  0  0  0  0  0  0  0  0  0  0
  1 13  1  0
  2  6  1  0
  2  1  1  0
  3  2  2  0
  4  3  1  0
  4  5  1  0
  5  7  1  0
  5  6  2  0
  7 12  1  0
  8  9  1  0
  8  7  1  0
  9 10  1  0
 10 11  1  0
 12 11  1  0
 14 19  2  0
 15 14  1  0
 16 15  2  0
 16 17  1  0
 17 18  2  0
 18 19  1  0
 18 13  1  0
  1 20  1  0
  1 21  1  0
  3 22  1  0
  8 23  1  0
  8 24  1  0
  9 25  1  0
  9 26  1  0
 10 27  1  0
 11 28  1  0
 11 29  1  0
 12 30  1  0
 12 31  1  0
 13 32  1  0
 13 33  1  0
 14 34  1  0
 15 35  1  0
 36 37  1  0
 37 38  2  0
 38 39  1  0
 39 40  1  0
 39 41  2  0
 41 42  1  0
 42 43  2  0
 43 44  1  0
 43 37  1  0
 36 45  1  0
 41 46  1  0
 42 47  1  0
 44 48  1  0
 16 38  1  0
M  ISO  8  20   8  21   8  22  14  23  13  24  13  25  13  26  13  27   5
M  ISO  8  28  13  29  13  30  13  31  13  32   8  33   8  34  14  35  14
M  ISO  1  40  16
M  END
>  <DihAtoms>  (1) 
14,15,37,36

>  <DihDeg>  (1) 
1.3138406231703248

$$$$
