
 OpenBabel03272509293D

 36 38  0  0  1  0  0  0  0  0999 V2000
   36.8640   30.9210   45.6660 C   0  0  2  0  0  0  0  0  0  0  0  0
   36.9550   30.6710   44.1690 C   0  0  0  0  0  0  0  0  0  0  0  0
   38.0670   29.7360   43.7910 C   0  0  0  0  0  0  0  0  0  0  0  0
   39.3950   30.2390   44.2700 C   0  0  0  0  0  0  0  0  0  0  0  0
   39.3710   30.7060   45.6880 C   0  0  0  0  0  0  0  0  0  0  0  0
   38.0600   30.4300   46.3990 C   0  0  1  0  0  0  0  0  0  0  0  0
   36.6800   32.0200   45.7460 H   0  0  0  0  0  0  0  0  0  0  0  0
   37.1140   31.6030   43.6010 H   0  0  0  0  0  0  0  0  0  0  0  0
   36.0100   30.2150   43.8080 H   0  0  0  0  0  0  0  0  0  0  0  0
   37.9200   28.7400   44.2930 H   0  0  0  0  0  0  0  0  0  0  0  0
   38.0880   29.6640   42.7060 H   0  0  0  0  0  0  0  0  0  0  0  0
   40.1690   29.4770   44.0670 H   0  0  0  0  0  0  0  0  0  0  0  0
   39.6570   31.1290   43.6320 H   0  0  0  0  0  0  0  0  0  0  0  0
   40.1470   30.1170   46.2480 H   0  0  0  0  0  0  0  0  0  0  0  0
   39.6600   31.7680   45.8120 H   0  0  0  0  0  0  0  0  0  0  0  0
   37.9890   29.3200   46.5180 H   0  0  0  0  0  0  0  0  0  0  0  0
   35.6590   30.2800   46.2240 C   0  0  0  0  0  0  0  0  0  0  0  0
   34.9200   29.4750   45.3390 C   0  0  0  0  0  0  0  0  0  0  0  0
   33.7570   28.8680   45.8560 C   0  0  0  0  0  0  0  0  0  0  0  0
   33.4160   29.0930   47.1740 N   0  0  0  0  0  0  0  0  0  0  0  0
   34.1740   29.8850   47.9840 C   0  0  0  0  0  0  0  0  0  0  0  0
   35.2660   30.4510   47.4840 N   0  0  0  0  0  0  0  0  0  0  0  0
   35.1430   29.2700   44.3080 H   0  0  0  0  0  0  0  0  0  0  0  0
   33.0940   28.2240   45.2910 H   0  0  0  0  0  0  0  0  0  0  0  0
   33.7840   29.9680   48.9840 H   0  0  0  0  0  0  0  0  0  0  0  0
   37.9720   30.5250   48.9880 C   0  0  0  0  0  0  0  0  0  0  0  0
   38.2180   31.0480   47.7400 C   0  0  0  0  0  0  0  0  0  0  0  0
   38.6590   32.3690   47.6050 C   0  0  0  0  0  0  0  0  0  0  0  0
   38.8890   32.9030   46.6930 H   0  0  0  0  0  0  0  0  0  0  0  0
   38.8530   33.1690   48.7370 C   0  0  0  0  0  3  0  0  0  0  0  0
   38.6040   32.6440   49.9880 C   0  0  0  0  0  3  0  0  0  0  0  0
   38.1660   31.3250   50.0930 C   0  0  0  0  0  0  0  0  0  0  0  0
   37.5440   29.2100   49.0400 O   0  0  0  0  0  0  0  0  0  0  0  0
   37.8350   28.5980   49.8140 H   0  0  0  0  0  0  0  0  0  0  0  0
   37.9100   30.7720   51.3410 O   0  0  0  0  0  0  0  0  0  0  0  0
   38.5280   30.0470   51.7280 H   0  0  0  0  0  0  0  0  0  0  0  0
  1  7  1  1  0  0  0
  1 17  1  0  0  0  0
  1  6  1  0  0  0  0
  2  1  1  0  0  0  0
  3  2  1  0  0  0  0
  3  4  1  0  0  0  0
  3 10  1  0  0  0  0
  4  5  1  0  0  0  0
  5 15  1  0  0  0  0
  5 14  1  0  0  0  0
  5  6  1  0  0  0  0
  6 16  1  1  0  0  0
  6 27  1  0  0  0  0
  8  2  1  0  0  0  0
  9  2  1  0  0  0  0
 11  3  1  0  0  0  0
 12  4  1  0  0  0  0
 13  4  1  0  0  0  0
 17 22  1  0  0  0  0
 18 19  1  0  0  0  0
 18 17  2  0  0  0  0
 19 20  2  0  0  0  0
 20 21  1  0  0  0  0
 21 25  1  0  0  0  0
 22 21  2  0  0  0  0
 23 18  1  0  0  0  0
 24 19  1  0  0  0  0
 26 33  1  0  0  0  0
 26 32  1  0  0  0  0
 27 26  2  0  0  0  0
 28 27  1  0  0  0  0
 28 30  2  0  0  0  0
 29 28  1  0  0  0  0
 30 31  1  0  0  0  0
 31 32  2  0  0  0  0
 32 35  1  0  0  0  0
 33 34  1  0  0  0  0
 35 36  1  0  0  0  0
M  END
>  <minimizedAffinity>
-5.39898968

>  <minimizedRMSD>
5.14781713

$$$$
