
     RDKit          3D

 39 42  0  0  0  0  0  0  0  0999 V2000
   38.9095   30.8848   45.7592 C   0  0  0  0  0  0  0  0  0  0  0  0
   40.1109   31.5262   46.0282 C   0  0  0  0  0  0  0  0  0  0  0  0
   40.9452   31.4692   44.9193 C   0  0  0  0  0  0  0  0  0  0  0  0
   40.2028   30.7870   44.0157 N   0  0  0  0  0  0  0  0  0  0  0  0
   39.0163   30.4433   44.4972 N   0  0  0  0  0  0  0  0  0  0  0  0
   37.7968   30.7440   46.6754 C   0  0  0  0  0  0  0  0  0  0  0  0
   38.0167   30.9713   48.0614 C   0  0  0  0  0  0  0  0  0  0  0  0
   36.9225   30.8273   48.9119 C   0  0  0  0  0  0  0  0  0  0  0  0
   35.7199   30.4815   48.3757 N   0  0  0  0  0  0  0  0  0  0  0  0
   35.5396   30.2713   47.0527 C   0  0  0  0  0  0  0  0  0  0  0  0
   36.5879   30.4063   46.2144 N   0  0  0  0  0  0  0  0  0  0  0  0
   37.1307   31.0614   50.3715 C   0  0  0  0  0  0  0  0  0  0  0  0
   36.5954   32.3044   50.6221 F   0  0  0  0  0  0  0  0  0  0  0  0
   36.4626   30.1296   51.1511 F   0  0  0  0  0  0  0  0  0  0  0  0
   38.4733   31.0897   50.7038 F   0  0  0  0  0  0  0  0  0  0  0  0
   40.5589   30.4167   42.6410 C   0  0  0  0  0  0  0  0  0  0  0  0
   40.1969   31.2184   41.5493 C   0  0  0  0  0  0  0  0  0  0  0  0
   40.5459   30.8452   40.2961 C   0  0  0  0  0  0  0  0  0  0  0  0
   41.2738   29.6424   40.1233 C   0  0  0  0  0  0  0  0  0  0  0  0
   41.4555   29.0331   41.8645 S   0  0  0  0  0  0  0  0  0  0  0  0
   40.3969   32.0129   46.9540 H   0  0  0  0  0  0  0  0  0  0  0  0
   41.9254   31.8397   44.7448 H   0  0  0  0  0  0  0  0  0  0  0  0
   38.9681   31.2418   48.4609 H   0  0  0  0  0  0  0  0  0  0  0  0
   34.5602   29.9988   46.6878 H   0  0  0  0  0  0  0  0  0  0  0  0
   39.6349   32.1507   41.6567 H   0  0  0  0  0  0  0  0  0  0  0  0
   40.3637   31.3178   39.3521 H   0  0  0  0  0  0  0  0  0  0  0  0
   43.2265   30.8249   38.4107 O   0  0  0  0  0  0  0  0  0  0  0  0
   42.7504   29.5342   38.2355 C   0  0  0  0  0  0  0  0  0  0  0  0
   41.8116   28.9206   39.0323 C   0  0  0  0  0  0  0  0  0  0  0  0
   41.3376   27.6419   38.8616 C   0  0  0  0  0  0  0  0  0  0  0  0
   40.6058   27.2030   39.5060 H   0  0  0  0  0  0  0  0  0  0  0  0
   41.8415   26.8881   37.7937 C   0  0  0  0  0  0  0  0  0  0  0  0
   42.7990   27.4691   36.9544 C   0  0  0  0  0  0  0  0  0  0  0  0
   43.2505   28.7764   37.1697 C   0  0  0  0  0  0  0  0  0  0  0  0
   44.2006   29.3622   36.3427 O   0  0  0  0  0  0  0  0  0  0  0  0
   43.9534   31.0818   39.0547 H   0  0  0  0  0  0  0  0  0  0  0  0
   41.4970   25.8829   37.6248 H   0  0  0  0  0  0  0  0  0  0  0  0
   43.2200   26.9168   36.1079 H   0  0  0  0  0  0  0  0  0  0  0  0
   45.1496   28.9992   36.3872 H   0  0  0  0  0  0  0  0  0  0  0  0
  1  2  1  0
  1  6  1  0
  3  2  2  0
  4  5  1  0
  4  3  1  0
  5  1  2  0
  6  7  2  0
  7  8  1  0
  8 12  1  0
  9  8  2  0
 10  9  1  0
 11  6  1  0
 11 10  2  0
 12 13  1  0
 12 15  1  0
 12 14  1  0
 16  4  1  0
 17 16  2  0
 18 17  1  0
 19 18  2  0
 19 20  1  0
 20 16  1  0
  2 21  1  0
  3 22  1  0
  7 23  1  0
 10 24  1  0
 17 25  1  0
 18 26  1  0
 27 28  1  0
 28 29  2  0
 29 30  1  0
 30 31  1  0
 30 32  2  0
 32 33  1  0
 33 34  2  0
 34 35  1  0
 34 28  1  0
 27 36  1  0
 32 37  1  0
 33 38  1  0
 35 39  1  0
 19 29  1  0
M  ISO  7  21  14  22  14  23  14  24  14  25  14  26  14  31  16
M  END
>  <DihAtoms>  (1) 
17,18,28,27

>  <DihDeg>  (1) 
-179.99863475698632

$$$$
