
 OpenBabel03272508573D

 43 47  0  0  1  0  0  0  0  0999 V2000
   38.6760   31.4710   43.7840 C   0  0  0  0  0  0  0  0  0  0  0  0
   39.7640   30.6550   43.6420 C   0  0  0  0  0  0  0  0  0  0  0  0
   40.4480   30.6950   42.4350 C   0  0  0  0  0  0  0  0  0  0  0  0
   39.9780   31.5610   41.4590 C   0  0  0  0  0  0  0  0  0  0  0  0
   38.8780   32.3870   41.6000 C   0  0  0  0  0  0  0  0  0  0  0  0
   38.2590   32.3030   42.7890 N   0  0  0  0  0  0  0  0  0  0  0  0
   40.1010   29.9910   44.4250 H   0  0  0  0  0  0  0  0  0  0  0  0
   41.3190   30.0900   42.2240 H   0  0  0  0  0  0  0  0  0  0  0  0
   40.5070   31.5980   40.5160 H   0  0  0  0  0  0  0  0  0  0  0  0
   37.9300   31.4860   45.0620 C   0  0  0  0  0  0  0  0  0  0  0  0
   36.9640   30.7500   45.2780 O   0  0  0  0  0  0  0  0  0  0  0  0
   38.4060   32.4310   46.0650 N   0  0  0  0  0  0  0  0  0  0  0  0
   39.0760   33.1960   45.9000 H   0  0  0  0  0  0  0  0  0  0  0  0
   38.5400   31.4030   48.3270 C   0  0  2  0  0  0  0  0  0  0  0  0
   38.8420   32.8490   48.4980 C   0  0  0  0  0  0  0  0  0  0  0  0
   37.8900   32.2790   47.4090 C   0  0  1  0  0  0  0  0  0  0  0  0
   39.4380   30.8150   48.0180 H   0  0  0  0  0  0  0  0  0  0  0  0
   39.8090   33.2510   48.1670 H   0  0  0  0  0  0  0  0  0  0  0  0
   38.3550   33.4780   49.2570 H   0  0  0  0  0  0  0  0  0  0  0  0
   36.8070   32.5440   47.5720 H   0  0  0  0  0  0  0  0  0  0  0  0
   35.9850   29.1820   49.8360 C   0  0  0  0  0  0  0  0  0  0  0  0
   36.2830   29.3060   51.2300 C   0  0  0  0  0  0  0  0  0  0  0  0
   37.3590   30.1640   51.6260 C   0  0  0  0  0  0  0  0  0  0  0  0
   38.0710   30.8380   50.6630 N   0  0  0  0  0  0  0  0  0  0  0  0
   37.7270   30.6680   49.3580 C   0  0  0  0  0  0  0  0  0  0  0  0
   36.7020   29.8570   48.9080 N   0  0  0  0  0  0  0  0  0  0  0  0
   35.1660   28.5250   49.5780 H   0  0  0  0  0  0  0  0  0  0  0  0
   35.7270   28.7780   51.9770 H   0  0  0  0  0  0  0  0  0  0  0  0
   37.6140   30.2850   52.6490 H   0  0  0  0  0  0  0  0  0  0  0  0
   38.4730   33.2490   40.5140 C   0  0  0  0  0  0  0  0  0  0  0  0
   37.9660   34.3590   40.8030 O   0  0  0  0  0  0  0  0  0  0  0  0
   38.6040   32.9410   39.1130 C   0  0  0  0  0  0  0  0  0  0  0  0
   37.7750   31.9600   38.5810 C   0  0  0  0  0  0  0  0  0  0  0  0
   37.0570   31.4570   39.2380 H   0  0  0  0  0  0  0  0  0  0  0  0
   37.7550   31.5340   37.2650 C   0  0  0  0  0  0  0  0  0  0  0  0
   38.6390   32.1320   36.3920 C   0  0  0  0  0  0  0  0  0  0  0  0
   38.6300   31.7290   35.1100 N   0  0  0  0  0  0  0  0  0  0  0  0
   39.4970   32.3140   34.2390 C   0  0  0  0  0  0  0  0  0  0  0  0
   39.4510   31.9520   33.2120 H   0  0  0  0  0  0  0  0  0  0  0  0
   40.3840   33.3130   34.6500 C   0  0  0  0  0  0  0  0  0  0  0  0
   40.3690   33.7120   35.9920 C   0  0  0  0  0  0  0  0  0  0  0  0
   39.4760   33.1090   36.8860 C   0  0  0  0  0  0  0  0  0  0  0  0
   39.4890   33.5280   38.2000 C   0  0  0  0  0  0  0  0  0  0  0  0
  1 10  1  0  0  0  0
  2  1  1  0  0  0  0
  2  7  1  0  0  0  0
  3  2  2  0  0  0  0
  4  5  2  0  0  0  0
  4  3  1  0  0  0  0
  5  6  1  0  0  0  0
  6  1  2  0  0  0  0
  8  3  1  0  0  0  0
  9  4  1  0  0  0  0
 10 11  2  0  0  0  0
 10 12  1  0  0  0  0
 12 16  1  0  0  0  0
 13 12  1  0  0  0  0
 14 17  1  6  0  0  0
 14 15  1  0  0  0  0
 14 25  1  0  0  0  0
 15 19  1  0  0  0  0
 16 20  1  1  0  0  0
 16 14  1  0  0  0  0
 16 15  1  0  0  0  0
 18 15  1  0  0  0  0
 21 22  1  0  0  0  0
 22 23  2  0  0  0  0
 22 28  1  0  0  0  0
 23 29  1  0  0  0  0
 24 23  1  0  0  0  0
 25 24  2  0  0  0  0
 26 25  1  0  0  0  0
 26 21  2  0  0  0  0
 27 21  1  0  0  0  0
 30 31  2  0  0  0  0
 30  5  1  0  0  0  0
 32 30  1  0  0  0  0
 33 32  1  0  0  0  0
 33 34  1  0  0  0  0
 35 33  2  0  0  0  0
 36 42  1  0  0  0  0
 36 35  1  0  0  0  0
 37 36  2  0  0  0  0
 38 40  2  0  0  0  0
 38 37  1  0  0  0  0
 39 38  1  0  0  0  0
 40 41  1  0  0  0  0
 41 42  2  0  0  0  0
 42 43  1  0  0  0  0
 43 32  2  0  0  0  0
M  END
>  <minimizedAffinity>
-5.44057608

>  <minimizedRMSD>
1.65365374

$$$$
