
 OpenBabel03272508583D

 43 47  0  0  1  0  0  0  0  0999 V2000
   39.1230   31.4630   43.3050 C   0  0  0  0  0  0  0  0  0  0  0  0
   40.1230   30.5400   43.4440 C   0  0  0  0  0  0  0  0  0  0  0  0
   40.8550   30.2070   42.3140 C   0  0  0  0  0  0  0  0  0  0  0  0
   40.5190   30.8330   41.1230 C   0  0  0  0  0  0  0  0  0  0  0  0
   39.5090   31.7660   40.9790 C   0  0  0  0  0  0  0  0  0  0  0  0
   38.8370   32.0470   42.1090 N   0  0  0  0  0  0  0  0  0  0  0  0
   40.3560   30.0710   44.3900 H   0  0  0  0  0  0  0  0  0  0  0  0
   41.6640   29.4900   42.3190 H   0  0  0  0  0  0  0  0  0  0  0  0
   41.0860   30.5780   40.2380 H   0  0  0  0  0  0  0  0  0  0  0  0
   38.3330   31.8740   44.4870 C   0  0  0  0  0  0  0  0  0  0  0  0
   37.2490   32.4550   44.3940 O   0  0  0  0  0  0  0  0  0  0  0  0
   38.9130   31.5500   45.7850 N   0  0  0  0  0  0  0  0  0  0  0  0
   39.8810   31.2380   45.9490 H   0  0  0  0  0  0  0  0  0  0  0  0
   38.4160   31.0620   48.1740 C   0  0  2  0  0  0  0  0  0  0  0  0
   38.6850   32.5210   48.0840 C   0  0  0  0  0  0  0  0  0  0  0  0
   38.0520   31.6800   46.9410 C   0  0  1  0  0  0  0  0  0  0  0  0
   39.3540   30.4610   48.2570 H   0  0  0  0  0  0  0  0  0  0  0  0
   39.7130   32.8830   47.9390 H   0  0  0  0  0  0  0  0  0  0  0  0
   38.0240   33.2820   48.5220 H   0  0  0  0  0  0  0  0  0  0  0  0
   36.9690   31.9250   46.7460 H   0  0  0  0  0  0  0  0  0  0  0  0
   35.0650   30.2320   49.5230 C   0  0  0  0  0  0  0  0  0  0  0  0
   35.4030   29.5560   50.7380 C   0  0  0  0  0  0  0  0  0  0  0  0
   36.7870   29.4060   51.0750 C   0  0  0  0  0  0  0  0  0  0  0  0
   37.7440   29.9110   50.2280 N   0  0  0  0  0  0  0  0  0  0  0  0
   37.3430   30.5410   49.0910 C   0  0  0  0  0  0  0  0  0  0  0  0
   36.0270   30.7200   48.7060 N   0  0  0  0  0  0  0  0  0  0  0  0
   34.0100   30.3250   49.3040 H   0  0  0  0  0  0  0  0  0  0  0  0
   34.6550   29.1640   51.3950 H   0  0  0  0  0  0  0  0  0  0  0  0
   37.0830   28.9120   51.9670 H   0  0  0  0  0  0  0  0  0  0  0  0
   39.2410   32.3550   39.6880 C   0  0  0  0  0  0  0  0  0  0  0  0
   38.6880   33.4800   39.6590 O   0  0  0  0  0  0  0  0  0  0  0  0
   39.5620   31.7560   38.4180 C   0  0  0  0  0  0  0  0  0  0  0  0
   40.6250   32.2870   37.6970 C   0  0  0  0  0  0  0  0  0  0  0  0
   41.1790   33.1360   38.1150 H   0  0  0  0  0  0  0  0  0  0  0  0
   41.0790   31.8460   36.4670 C   0  0  0  0  0  3  0  0  0  0  0  0
   40.4190   30.7810   35.8920 C   0  0  0  0  0  0  0  0  0  0  0  0
   40.8490   30.3420   34.6980 N   0  0  0  0  0  0  0  0  0  0  0  0
   40.2050   29.2880   34.1230 C   0  0  0  0  0  0  0  0  0  0  0  0
   40.5920   28.9710   33.1550 H   0  0  0  0  0  0  0  0  0  0  0  0
   39.1200   28.6670   34.7460 C   0  0  0  0  0  3  0  0  0  0  0  0
   38.6950   29.1460   35.9900 C   0  0  0  0  0  3  0  0  0  0  0  0
   39.3580   30.2300   36.5800 C   0  0  0  0  0  0  0  0  0  0  0  0
   38.9130   30.6750   37.8070 C   0  0  0  0  0  3  0  0  0  0  0  0
  1  2  1  0  0  0  0
  1 10  1  0  0  0  0
  2  7  1  0  0  0  0
  3  8  1  0  0  0  0
  3  2  2  0  0  0  0
  4  3  1  0  0  0  0
  5  4  2  0  0  0  0
  5  6  1  0  0  0  0
  6  1  2  0  0  0  0
  9  4  1  0  0  0  0
 10 12  1  0  0  0  0
 11 10  2  0  0  0  0
 12 13  1  0  0  0  0
 12 16  1  0  0  0  0
 14 17  1  6  0  0  0
 14 25  1  0  0  0  0
 15 14  1  0  0  0  0
 15 19  1  0  0  0  0
 16 20  1  6  0  0  0
 16 15  1  0  0  0  0
 16 14  1  0  0  0  0
 18 15  1  0  0  0  0
 21 22  1  0  0  0  0
 22 23  2  0  0  0  0
 22 28  1  0  0  0  0
 23 29  1  0  0  0  0
 24 23  1  0  0  0  0
 25 24  2  0  0  0  0
 26 25  1  0  0  0  0
 26 21  2  0  0  0  0
 27 21  1  0  0  0  0
 30  5  1  0  0  0  0
 31 30  2  0  0  0  0
 32 30  1  0  0  0  0
 33 34  1  0  0  0  0
 33 32  2  0  0  0  0
 35 33  1  0  0  0  0
 36 35  2  0  0  0  0
 36 42  1  0  0  0  0
 37 36  1  0  0  0  0
 38 37  2  0  0  0  0
 38 40  1  0  0  0  0
 39 38  1  0  0  0  0
 40 41  2  0  0  0  0
 41 42  1  0  0  0  0
 42 43  2  0  0  0  0
 43 32  1  0  0  0  0
M  END
>  <minimizedAffinity>
-4.92553186

>  <minimizedRMSD>
0.280956149

$$$$
