
 OpenBabel03272507303D

 32 35  0  0  0  0  0  0  0  0999 V2000
   35.8500   29.1370   49.7960 C   0  0  0  0  0  0  0  0  0  0  0  0
   34.8000   29.6330   50.5280 C   0  0  0  0  0  0  0  0  0  0  0  0
   33.6310   29.0430   50.0210 C   0  0  0  0  0  0  0  0  0  0  0  0
   34.0690   28.2110   48.9950 C   0  0  0  0  0  0  0  0  0  0  0  0
   35.3550   28.3150   48.9200 O   0  0  0  0  0  0  0  0  0  0  0  0
   34.6970   30.3380   51.3570 H   0  0  0  0  0  0  0  0  0  0  0  0
   32.6190   29.1770   50.3270 H   0  0  0  0  0  0  0  0  0  0  0  0
   37.2130   29.5410   50.0600 C   0  0  0  0  0  0  0  0  0  0  0  0
   37.8330   28.9880   50.9950 O   0  0  0  0  0  0  0  0  0  0  0  0
   37.7750   30.5730   49.2120 C   0  0  0  0  0  0  0  0  0  0  0  0
   38.1160   31.7770   49.8440 C   0  0  0  0  0  0  0  0  0  0  0  0
   38.6620   32.7920   49.0460 C   0  0  0  0  0  0  0  0  0  0  0  0
   38.8260   32.5450   47.7050 N   0  0  0  0  0  0  0  0  0  0  0  0
   38.4840   31.3780   47.1480 C   0  0  0  0  0  0  0  0  0  0  0  0
   37.9630   30.3990   47.8900 N   0  0  0  0  0  0  0  0  0  0  0  0
   37.9620   31.9050   50.8990 H   0  0  0  0  0  0  0  0  0  0  0  0
   38.9210   33.7080   49.5270 H   0  0  0  0  0  0  0  0  0  0  0  0
   38.6700   31.3330   46.0840 H   0  0  0  0  0  0  0  0  0  0  0  0
   33.1750   27.3870   48.1750 C   0  0  0  0  0  0  0  0  0  0  0  0
   31.9350   27.3290   48.4520 O   0  0  0  0  0  0  0  0  0  0  0  0
   33.6240   26.6100   47.0370 C   0  0  0  0  0  0  0  0  0  0  0  0
   33.8550   25.2470   47.2560 C   0  0  0  0  0  0  0  0  0  0  0  0
   33.7200   24.7390   48.2130 H   0  0  0  0  0  0  0  0  0  0  0  0
   34.2900   24.4450   46.1940 C   0  0  0  0  0  3  0  0  0  0  0  0
   34.4910   24.9900   44.9430 C   0  0  0  0  0  0  0  0  0  0  0  0
   34.9110   24.1750   43.9590 N   0  0  0  0  0  0  0  0  0  0  0  0
   35.1390   24.6160   42.6890 C   0  0  0  0  0  0  0  0  0  0  0  0
   35.4760   23.9830   41.8850 H   0  0  0  0  0  0  0  0  0  0  0  0
   34.9210   25.9460   42.4470 C   0  0  0  0  0  3  0  0  0  0  0  0
   34.4890   26.7990   43.4490 C   0  0  0  0  0  3  0  0  0  0  0  0
   34.2610   26.3450   44.7320 C   0  0  0  0  0  0  0  0  0  0  0  0
   33.8340   27.1260   45.7750 C   0  0  0  0  0  3  0  0  0  0  0  0
  1  8  1  0  0  0  0
  1  2  2  0  0  0  0
  2  6  1  0  0  0  0
  3  7  1  0  0  0  0
  3  2  1  0  0  0  0
  4  3  2  0  0  0  0
  5  4  1  0  0  0  0
  5  1  1  0  0  0  0
  8  9  2  0  0  0  0
 10 11  1  0  0  0  0
 10  8  1  0  0  0  0
 11 16  1  0  0  0  0
 12 17  1  0  0  0  0
 12 11  2  0  0  0  0
 13 12  1  0  0  0  0
 14 13  2  0  0  0  0
 14 15  1  0  0  0  0
 15 10  2  0  0  0  0
 18 14  1  0  0  0  0
 19 20  2  0  0  0  0
 19  4  1  0  0  0  0
 21 22  1  0  0  0  0
 21 19  1  0  0  0  0
 22 23  1  0  0  0  0
 24 22  2  0  0  0  0
 25 24  1  0  0  0  0
 26 25  2  0  0  0  0
 27 26  1  0  0  0  0
 28 27  1  0  0  0  0
 29 27  2  0  0  0  0
 29 30  1  0  0  0  0
 30 31  2  0  0  0  0
 31 25  1  0  0  0  0
 31 32  1  0  0  0  0
 32 21  2  0  0  0  0
M  END
>  <minimizedAffinity>
-5.55137968

>  <minimizedRMSD>
1.28249586

$$$$
