
 OpenBabel03272508573D

 43 47  0  0  1  0  0  0  0  0999 V2000
   39.1270   31.4130   43.3340 C   0  0  0  0  0  0  0  0  0  0  0  0
   40.1280   30.4950   43.4890 C   0  0  0  0  0  0  0  0  0  0  0  0
   40.8730   30.1570   42.3690 C   0  0  0  0  0  0  0  0  0  0  0  0
   40.5480   30.7750   41.1700 C   0  0  0  0  0  0  0  0  0  0  0  0
   39.5360   31.7040   41.0100 C   0  0  0  0  0  0  0  0  0  0  0  0
   38.8520   31.9890   42.1310 N   0  0  0  0  0  0  0  0  0  0  0  0
   40.3520   30.0310   44.4400 H   0  0  0  0  0  0  0  0  0  0  0  0
   41.6850   29.4430   42.3860 H   0  0  0  0  0  0  0  0  0  0  0  0
   41.1260   30.5170   40.2930 H   0  0  0  0  0  0  0  0  0  0  0  0
   38.3230   31.8280   44.5040 C   0  0  0  0  0  0  0  0  0  0  0  0
   37.2240   32.3790   44.3960 O   0  0  0  0  0  0  0  0  0  0  0  0
   38.9070   31.5470   45.8110 N   0  0  0  0  0  0  0  0  0  0  0  0
   39.8830   31.2650   45.9840 H   0  0  0  0  0  0  0  0  0  0  0  0
   38.4040   31.0770   48.2020 C   0  0  2  0  0  0  0  0  0  0  0  0
   38.6590   32.5380   48.1000 C   0  0  0  0  0  0  0  0  0  0  0  0
   38.0390   31.6790   46.9610 C   0  0  1  0  0  0  0  0  0  0  0  0
   39.3480   30.4860   48.2940 H   0  0  0  0  0  0  0  0  0  0  0  0
   39.6840   32.9080   47.9560 H   0  0  0  0  0  0  0  0  0  0  0  0
   37.9880   33.2950   48.5280 H   0  0  0  0  0  0  0  0  0  0  0  0
   36.9550   31.9110   46.7590 H   0  0  0  0  0  0  0  0  0  0  0  0
   35.0560   30.2210   49.5410 C   0  0  0  0  0  0  0  0  0  0  0  0
   35.3950   29.5640   50.7660 C   0  0  0  0  0  0  0  0  0  0  0  0
   36.7790   29.4340   51.1130 C   0  0  0  0  0  0  0  0  0  0  0  0
   37.7340   29.9410   50.2650 N   0  0  0  0  0  0  0  0  0  0  0  0
   37.3320   30.5530   49.1190 C   0  0  0  0  0  0  0  0  0  0  0  0
   36.0160   30.7110   48.7240 N   0  0  0  0  0  0  0  0  0  0  0  0
   34.0010   30.2980   49.3160 H   0  0  0  0  0  0  0  0  0  0  0  0
   34.6480   29.1700   51.4230 H   0  0  0  0  0  0  0  0  0  0  0  0
   37.0750   28.9540   52.0120 H   0  0  0  0  0  0  0  0  0  0  0  0
   39.2810   32.2840   39.7130 C   0  0  0  0  0  0  0  0  0  0  0  0
   38.6360   33.3590   39.6670 O   0  0  0  0  0  0  0  0  0  0  0  0
   39.7100   31.7310   38.4540 C   0  0  0  0  0  0  0  0  0  0  0  0
   38.9070   30.7620   37.8620 C   0  0  0  0  0  0  0  0  0  0  0  0
   37.9860   30.4540   38.3680 H   0  0  0  0  0  0  0  0  0  0  0  0
   39.1530   30.1210   36.6600 C   0  0  0  0  0  3  0  0  0  0  0  0
   40.3000   30.4700   35.9780 C   0  0  0  0  0  0  0  0  0  0  0  0
   40.5500   29.8570   34.8110 N   0  0  0  0  0  0  0  0  0  0  0  0
   41.6790   30.1950   34.1280 C   0  0  0  0  0  0  0  0  0  0  0  0
   41.8360   29.6690   33.1880 H   0  0  0  0  0  0  0  0  0  0  0  0
   42.5690   31.1550   34.6170 C   0  0  0  0  0  3  0  0  0  0  0  0
   42.2810   31.7760   35.8380 C   0  0  0  0  0  3  0  0  0  0  0  0
   41.1190   31.4290   36.5380 C   0  0  0  0  0  0  0  0  0  0  0  0
   40.8650   32.0620   37.7370 C   0  0  0  0  0  3  0  0  0  0  0  0
  1  2  1  0  0  0  0
  1 10  1  0  0  0  0
  2  7  1  0  0  0  0
  3  8  1  0  0  0  0
  3  2  2  0  0  0  0
  4  3  1  0  0  0  0
  5  4  2  0  0  0  0
  5  6  1  0  0  0  0
  6  1  2  0  0  0  0
  9  4  1  0  0  0  0
 10 12  1  0  0  0  0
 11 10  2  0  0  0  0
 12 13  1  0  0  0  0
 12 16  1  0  0  0  0
 14 17  1  6  0  0  0
 14 25  1  0  0  0  0
 15 14  1  0  0  0  0
 15 19  1  0  0  0  0
 16 20  1  6  0  0  0
 16 15  1  0  0  0  0
 16 14  1  0  0  0  0
 18 15  1  0  0  0  0
 21 22  1  0  0  0  0
 22 23  2  0  0  0  0
 22 28  1  0  0  0  0
 23 29  1  0  0  0  0
 24 23  1  0  0  0  0
 25 24  2  0  0  0  0
 26 25  1  0  0  0  0
 26 21  2  0  0  0  0
 27 21  1  0  0  0  0
 30  5  1  0  0  0  0
 31 30  2  0  0  0  0
 32 30  1  0  0  0  0
 33 34  1  0  0  0  0
 33 32  1  0  0  0  0
 35 33  2  0  0  0  0
 36 42  1  0  0  0  0
 36 35  1  0  0  0  0
 37 36  2  0  0  0  0
 38 40  2  0  0  0  0
 38 37  1  0  0  0  0
 39 38  1  0  0  0  0
 40 41  1  0  0  0  0
 41 42  2  0  0  0  0
 42 43  1  0  0  0  0
 43 32  2  0  0  0  0
M  END
>  <minimizedAffinity>
-4.96750689

>  <minimizedRMSD>
0.516690791

$$$$
