
 OpenBabel03272507303D

 32 35  0  0  0  0  0  0  0  0999 V2000
   35.8130   29.1440   49.8080 C   0  0  0  0  0  0  0  0  0  0  0  0
   34.7390   29.6320   50.5110 C   0  0  0  0  0  0  0  0  0  0  0  0
   33.5910   29.0200   49.9830 C   0  0  0  0  0  0  0  0  0  0  0  0
   34.0640   28.1860   48.9740 C   0  0  0  0  0  0  0  0  0  0  0  0
   35.3490   28.3080   48.9280 O   0  0  0  0  0  0  0  0  0  0  0  0
   34.6080   30.3420   51.3310 H   0  0  0  0  0  0  0  0  0  0  0  0
   32.5710   29.1430   50.2650 H   0  0  0  0  0  0  0  0  0  0  0  0
   37.1640   29.5700   50.0980 C   0  0  0  0  0  0  0  0  0  0  0  0
   37.7610   29.0510   51.0670 O   0  0  0  0  0  0  0  0  0  0  0  0
   37.7400   30.5830   49.2370 C   0  0  0  0  0  0  0  0  0  0  0  0
   38.0690   31.8010   49.8480 C   0  0  0  0  0  0  0  0  0  0  0  0
   38.6280   32.7990   49.0360 C   0  0  0  0  0  0  0  0  0  0  0  0
   38.8160   32.5200   47.7050 N   0  0  0  0  0  0  0  0  0  0  0  0
   38.4860   31.3410   47.1690 C   0  0  0  0  0  0  0  0  0  0  0  0
   37.9530   30.3790   47.9230 N   0  0  0  0  0  0  0  0  0  0  0  0
   37.8950   31.9540   50.8960 H   0  0  0  0  0  0  0  0  0  0  0  0
   38.8780   33.7260   49.5010 H   0  0  0  0  0  0  0  0  0  0  0  0
   38.6920   31.2720   46.1100 H   0  0  0  0  0  0  0  0  0  0  0  0
   33.2000   27.3430   48.1420 C   0  0  0  0  0  0  0  0  0  0  0  0
   31.9580   27.2550   48.4020 O   0  0  0  0  0  0  0  0  0  0  0  0
   33.6830   26.5780   47.0090 C   0  0  0  0  0  0  0  0  0  0  0  0
   33.6830   27.2230   45.7670 C   0  0  0  0  0  0  0  0  0  0  0  0
   33.3470   28.2470   45.5990 H   0  0  0  0  0  0  0  0  0  0  0  0
   34.1370   26.5340   44.6350 C   0  0  0  0  0  3  0  0  0  0  0  0
   34.5830   25.2320   44.7410 C   0  0  0  0  0  0  0  0  0  0  0  0
   35.0070   24.6180   43.6230 N   0  0  0  0  0  0  0  0  0  0  0  0
   35.4660   23.3340   43.6220 C   0  0  0  0  0  0  0  0  0  0  0  0
   35.8110   22.8200   42.7390 H   0  0  0  0  0  0  0  0  0  0  0  0
   35.4780   22.6790   44.8250 C   0  0  0  0  0  3  0  0  0  0  0  0
   35.0430   23.2970   45.9850 C   0  0  0  0  0  3  0  0  0  0  0  0
   34.5810   24.5970   45.9780 C   0  0  0  0  0  0  0  0  0  0  0  0
   34.1350   25.2760   47.0830 C   0  0  0  0  0  3  0  0  0  0  0  0
  1  8  1  0  0  0  0
  1  2  2  0  0  0  0
  2  6  1  0  0  0  0
  3  7  1  0  0  0  0
  3  2  1  0  0  0  0
  4  3  2  0  0  0  0
  5  4  1  0  0  0  0
  5  1  1  0  0  0  0
  8  9  2  0  0  0  0
 10 11  1  0  0  0  0
 10  8  1  0  0  0  0
 11 16  1  0  0  0  0
 12 17  1  0  0  0  0
 12 11  2  0  0  0  0
 13 12  1  0  0  0  0
 14 13  2  0  0  0  0
 14 15  1  0  0  0  0
 15 10  2  0  0  0  0
 18 14  1  0  0  0  0
 19 20  2  0  0  0  0
 19  4  1  0  0  0  0
 21 32  1  0  0  0  0
 21 19  1  0  0  0  0
 22 21  2  0  0  0  0
 23 22  1  0  0  0  0
 24 25  2  0  0  0  0
 24 22  1  0  0  0  0
 25 31  1  0  0  0  0
 26 25  1  0  0  0  0
 27 26  2  0  0  0  0
 27 29  1  0  0  0  0
 28 27  1  0  0  0  0
 29 30  2  0  0  0  0
 31 30  1  0  0  0  0
 31 32  2  0  0  0  0
M  END
>  <minimizedAffinity>
-5.61523438

>  <minimizedRMSD>
1.28237963

$$$$
