
 OpenBabel03272508583D

 43 47  0  0  1  0  0  0  0  0999 V2000
   39.1480   31.4230   43.3360 C   0  0  0  0  0  0  0  0  0  0  0  0
   40.1450   30.5000   43.4880 C   0  0  0  0  0  0  0  0  0  0  0  0
   40.8810   30.1550   42.3640 C   0  0  0  0  0  0  0  0  0  0  0  0
   40.5520   30.7710   41.1660 C   0  0  0  0  0  0  0  0  0  0  0  0
   39.5440   31.7040   41.0090 C   0  0  0  0  0  0  0  0  0  0  0  0
   38.8680   31.9970   42.1330 N   0  0  0  0  0  0  0  0  0  0  0  0
   40.3730   30.0390   44.4390 H   0  0  0  0  0  0  0  0  0  0  0  0
   41.6900   29.4370   42.3790 H   0  0  0  0  0  0  0  0  0  0  0  0
   41.1230   30.5070   40.2850 H   0  0  0  0  0  0  0  0  0  0  0  0
   38.3530   31.8460   44.5100 C   0  0  0  0  0  0  0  0  0  0  0  0
   37.2790   32.4460   44.4070 O   0  0  0  0  0  0  0  0  0  0  0  0
   38.9150   31.5120   45.8140 N   0  0  0  0  0  0  0  0  0  0  0  0
   39.8760   31.1840   45.9870 H   0  0  0  0  0  0  0  0  0  0  0  0
   38.4060   31.0630   48.2080 C   0  0  2  0  0  0  0  0  0  0  0  0
   38.6630   32.5220   48.0930 C   0  0  0  0  0  0  0  0  0  0  0  0
   38.0440   31.6550   46.9610 C   0  0  1  0  0  0  0  0  0  0  0  0
   39.3480   30.4710   48.3080 H   0  0  0  0  0  0  0  0  0  0  0  0
   39.6880   32.8900   47.9490 H   0  0  0  0  0  0  0  0  0  0  0  0
   37.9920   33.2850   48.5130 H   0  0  0  0  0  0  0  0  0  0  0  0
   36.9610   31.8870   46.7540 H   0  0  0  0  0  0  0  0  0  0  0  0
   35.0530   30.2200   49.5450 C   0  0  0  0  0  0  0  0  0  0  0  0
   35.3880   29.5770   50.7790 C   0  0  0  0  0  0  0  0  0  0  0  0
   36.7710   29.4540   51.1320 C   0  0  0  0  0  0  0  0  0  0  0  0
   37.7290   29.9520   50.2820 N   0  0  0  0  0  0  0  0  0  0  0  0
   37.3310   30.5490   49.1270 C   0  0  0  0  0  0  0  0  0  0  0  0
   36.0160   30.7010   48.7250 N   0  0  0  0  0  0  0  0  0  0  0  0
   33.9990   30.2930   49.3140 H   0  0  0  0  0  0  0  0  0  0  0  0
   34.6390   29.1900   51.4370 H   0  0  0  0  0  0  0  0  0  0  0  0
   37.0640   28.9840   52.0370 H   0  0  0  0  0  0  0  0  0  0  0  0
   39.2840   32.2820   39.7110 C   0  0  0  0  0  0  0  0  0  0  0  0
   38.6330   33.3530   39.6650 O   0  0  0  0  0  0  0  0  0  0  0  0
   39.7130   31.7280   38.4530 C   0  0  0  0  0  0  0  0  0  0  0  0
   38.9090   30.7610   37.8600 C   0  0  0  0  0  0  0  0  0  0  0  0
   37.9870   30.4530   38.3660 H   0  0  0  0  0  0  0  0  0  0  0  0
   39.1550   30.1200   36.6590 C   0  0  0  0  0  3  0  0  0  0  0  0
   40.3030   30.4680   35.9780 C   0  0  0  0  0  0  0  0  0  0  0  0
   40.5530   29.8550   34.8090 N   0  0  0  0  0  0  0  0  0  0  0  0
   41.6840   30.1910   34.1280 C   0  0  0  0  0  0  0  0  0  0  0  0
   41.8410   29.6650   33.1860 H   0  0  0  0  0  0  0  0  0  0  0  0
   42.5730   31.1500   34.6180 C   0  0  0  0  0  3  0  0  0  0  0  0
   42.2850   31.7710   35.8380 C   0  0  0  0  0  3  0  0  0  0  0  0
   41.1220   31.4240   36.5380 C   0  0  0  0  0  0  0  0  0  0  0  0
   40.8690   32.0580   37.7370 C   0  0  0  0  0  3  0  0  0  0  0  0
  1  2  1  0  0  0  0
  1 10  1  0  0  0  0
  2  7  1  0  0  0  0
  3  8  1  0  0  0  0
  3  2  2  0  0  0  0
  4  3  1  0  0  0  0
  5  4  2  0  0  0  0
  5  6  1  0  0  0  0
  6  1  2  0  0  0  0
  9  4  1  0  0  0  0
 10 12  1  0  0  0  0
 11 10  2  0  0  0  0
 12 13  1  0  0  0  0
 12 16  1  0  0  0  0
 14 17  1  6  0  0  0
 14 25  1  0  0  0  0
 15 14  1  0  0  0  0
 15 19  1  0  0  0  0
 16 20  1  6  0  0  0
 16 15  1  0  0  0  0
 16 14  1  0  0  0  0
 18 15  1  0  0  0  0
 21 22  1  0  0  0  0
 22 23  2  0  0  0  0
 22 28  1  0  0  0  0
 23 29  1  0  0  0  0
 24 23  1  0  0  0  0
 25 24  2  0  0  0  0
 26 25  1  0  0  0  0
 26 21  2  0  0  0  0
 27 21  1  0  0  0  0
 30  5  1  0  0  0  0
 31 30  2  0  0  0  0
 32 30  1  0  0  0  0
 33 34  1  0  0  0  0
 33 32  1  0  0  0  0
 35 33  2  0  0  0  0
 36 42  1  0  0  0  0
 36 35  1  0  0  0  0
 37 36  2  0  0  0  0
 38 40  2  0  0  0  0
 38 37  1  0  0  0  0
 39 38  1  0  0  0  0
 40 41  1  0  0  0  0
 41 42  2  0  0  0  0
 42 43  1  0  0  0  0
 43 32  2  0  0  0  0
M  END
>  <minimizedAffinity>
-4.97020721

>  <minimizedRMSD>
0.674055398

$$$$
