
 OpenBabel03272503253D

 35 38  0  0  1  0  0  0  0  0999 V2000
   36.2670   29.8270   49.2950 N   0  0  0  0  0  0  0  0  0  0  0  0
   36.7770   31.1480   49.4090 C   0  0  1  0  0  0  0  0  0  0  0  0
   37.3100   31.2340   50.8310 C   0  0  0  0  0  0  0  0  0  0  0  0
   37.0850   29.8180   51.4030 C   0  0  0  0  0  0  0  0  0  0  0  0
   37.0790   29.0090   50.1420 C   0  0  0  0  0  0  0  0  0  0  0  0
   35.8280   31.8630   49.4990 H   0  0  0  0  0  0  0  0  0  0  0  0
   38.3960   31.4570   50.8350 H   0  0  0  0  0  0  0  0  0  0  0  0
   36.8330   32.0030   51.4500 H   0  0  0  0  0  0  0  0  0  0  0  0
   36.1410   29.7280   51.9270 H   0  0  0  0  0  0  0  0  0  0  0  0
   37.9940   29.5580   51.9840 H   0  0  0  0  0  0  0  0  0  0  0  0
   38.0780   28.7810   49.7460 H   0  0  0  0  0  0  0  0  0  0  0  0
   36.5490   28.0500   50.3810 H   0  0  0  0  0  0  0  0  0  0  0  0
   35.1780   29.4010   48.5180 C   0  0  0  0  0  0  0  0  0  0  0  0
   34.5580   30.3280   47.6670 C   0  0  0  0  0  0  0  0  0  0  0  0
   33.5010   29.9730   46.8340 C   0  0  0  0  0  0  0  0  0  0  0  0
   33.1230   28.6610   46.9110 N   0  0  0  0  0  0  0  0  0  0  0  0
   33.7250   27.7700   47.7350 C   0  0  0  0  0  0  0  0  0  0  0  0
   34.7700   28.1280   48.5580 N   0  0  0  0  0  0  0  0  0  0  0  0
   34.8760   31.3410   47.6320 H   0  0  0  0  0  0  0  0  0  0  0  0
   33.0560   30.6980   46.2040 H   0  0  0  0  0  0  0  0  0  0  0  0
   33.3950   26.7490   47.7650 H   0  0  0  0  0  0  0  0  0  0  0  0
   37.6000   31.6760   48.3690 C   0  0  0  0  0  0  0  0  0  0  0  0
   37.9380   32.8530   48.4610 O   0  0  0  0  0  0  0  0  0  0  0  0
   38.2440   31.3410   47.1140 C   0  0  0  0  0  0  0  0  0  0  0  0
   39.5680   31.5570   46.8410 C   0  0  0  0  0  0  0  0  0  0  0  0
   40.2530   32.0380   47.5550 H   0  0  0  0  0  0  0  0  0  0  0  0
   40.2110   31.2100   45.6530 C   0  0  0  0  0  0  0  0  0  0  0  0
   39.4650   30.6060   44.6780 C   0  0  0  0  0  0  0  0  0  0  0  0
   40.1180   30.2870   43.5490 N   0  0  0  0  0  0  0  0  0  0  0  0
   39.4960   29.6890   42.5190 C   0  0  0  0  0  0  0  0  0  0  0  0
   39.9150   29.3880   41.5730 H   0  0  0  0  0  0  0  0  0  0  0  0
   38.1520   29.4070   42.6520 C   0  0  0  0  0  0  0  0  0  0  0  0
   37.4720   29.7350   43.8180 C   0  0  0  0  0  0  0  0  0  0  0  0
   38.1260   30.3460   44.8590 C   0  0  0  0  0  0  0  0  0  0  0  0
   37.6030   30.7330   46.0700 C   0  0  0  0  0  0  0  0  0  0  0  0
  1  2  1  0  0  0  0
  1  5  1  0  0  0  0
  2  6  1  6  0  0  0
  2  3  1  0  0  0  0
  3  7  1  0  0  0  0
  3  4  1  0  0  0  0
  3  8  1  0  0  0  0
  4  9  1  0  0  0  0
  4 10  1  0  0  0  0
  5 12  1  0  0  0  0
  5  4  1  0  0  0  0
 11  5  1  0  0  0  0
 13 18  1  0  0  0  0
 13  1  1  0  0  0  0
 14 13  2  0  0  0  0
 15 16  2  0  0  0  0
 15 14  1  0  0  0  0
 16 17  1  0  0  0  0
 17 21  1  0  0  0  0
 17 18  2  0  0  0  0
 19 14  1  0  0  0  0
 20 15  1  0  0  0  0
 22 23  2  0  0  0  0
 22  2  1  0  0  0  0
 24 22  1  0  0  0  0
 25 24  1  0  0  0  0
 25 26  1  0  0  0  0
 27 25  2  0  0  0  0
 28 34  1  0  0  0  0
 28 27  1  0  0  0  0
 29 28  2  0  0  0  0
 30 32  2  0  0  0  0
 30 29  1  0  0  0  0
 31 30  1  0  0  0  0
 32 33  1  0  0  0  0
 33 34  2  0  0  0  0
 34 35  1  0  0  0  0
 35 24  2  0  0  0  0
M  END
>  <minimizedAffinity>
-6.27864265

>  <minimizedRMSD>
1.77390349

$$$$
