
 OpenBabel03272503133D

 49 54  0  0  0  0  0  0  0  0999 V2000
   39.0670   32.0750   42.5420 C   0  0  0  0  0  0  0  0  0  0  0  0
   39.6770   31.4280   43.6040 C   0  0  0  0  0  0  0  0  0  0  0  0
   40.6190   30.4610   43.4440 C   0  0  0  0  0  0  0  0  0  0  0  0
   41.0110   30.0820   42.1650 C   0  0  0  0  0  0  0  0  0  0  0  0
   41.8900   29.1870   41.7190 N   0  0  0  0  0  0  0  0  0  0  0  0
   41.8620   29.2420   40.3810 C   0  0  0  0  0  0  0  0  0  0  0  0
   40.9680   30.1680   39.9930 N   0  0  0  0  0  0  0  0  0  0  0  0
   40.4060   30.7250   41.1000 C   0  0  0  0  0  0  0  0  0  0  0  0
   39.4450   31.7120   41.2400 C   0  0  0  0  0  0  0  0  0  0  0  0
   38.3300   32.8320   42.6680 H   0  0  0  0  0  0  0  0  0  0  0  0
   41.0750   29.9750   44.2890 H   0  0  0  0  0  0  0  0  0  0  0  0
   42.5100   28.5400   42.2580 H   0  0  0  0  0  0  0  0  0  0  0  0
   42.3850   28.7170   39.6130 H   0  0  0  0  0  0  0  0  0  0  0  0
   39.2340   31.8580   44.9170 C   0  0  0  0  0  0  0  0  0  0  0  0
   38.1490   32.5110   45.0450 O   0  0  0  0  0  0  0  0  0  0  0  0
   39.9460   31.5980   46.1320 N   0  0  0  0  0  0  0  0  0  0  0  0
   40.8220   31.0730   46.0780 H   0  0  0  0  0  0  0  0  0  0  0  0
   38.1150   30.1300   47.4940 F   0  0  0  0  0  0  0  0  0  0  0  0
   38.3840   31.3870   47.9710 C   0  0  0  0  0  0  0  0  0  0  0  0
   37.7280   31.8290   49.0860 C   0  0  0  0  0  0  0  0  0  0  0  0
   38.0390   33.0890   49.5130 C   0  0  0  0  0  0  0  0  0  0  0  0
   38.9530   33.8870   48.8760 C   0  0  0  0  0  0  0  0  0  0  0  0
   39.6060   33.4140   47.7430 C   0  0  0  0  0  0  0  0  0  0  0  0
   39.3010   32.1350   47.2960 C   0  0  0  0  0  0  0  0  0  0  0  0
   37.5270   33.4640   50.4040 H   0  0  0  0  0  0  0  0  0  0  0  0
   39.2050   34.8730   49.1980 H   0  0  0  0  0  0  0  0  0  0  0  0
   40.3460   33.9440   47.1510 H   0  0  0  0  0  0  0  0  0  0  0  0
   36.0930   29.3770   51.4590 C   0  0  0  0  0  0  0  0  0  0  0  0
   37.0640   30.2250   50.8660 C   0  0  0  0  0  0  0  0  0  0  0  0
   36.7640   30.9450   49.7310 C   0  0  0  0  0  0  0  0  0  0  0  0
   35.4960   30.7980   49.2100 N   0  0  0  0  0  0  0  0  0  0  0  0
   34.5870   29.9900   49.7840 C   0  0  0  0  0  0  0  0  0  0  0  0
   34.8800   29.2980   50.8820 N   0  0  0  0  0  0  0  0  0  0  0  0
   36.3190   28.8100   52.3510 H   0  0  0  0  0  0  0  0  0  0  0  0
   38.0500   30.3140   51.3050 H   0  0  0  0  0  0  0  0  0  0  0  0
   33.6560   30.0160   49.2240 H   0  0  0  0  0  0  0  0  0  0  0  0
   38.8490   32.3460   40.1740 O   0  0  0  0  0  0  0  0  0  0  0  0
   37.5510   32.7540   40.0740 C   0  0  0  0  0  0  0  0  0  0  0  0
   37.2710   34.1100   39.8960 C   0  0  0  0  0  0  0  0  0  0  0  0
   38.0880   34.8410   39.8380 H   0  0  0  0  0  0  0  0  0  0  0  0
   35.9830   34.5780   39.7890 C   0  0  0  0  0  3  0  0  0  0  0  0
   34.9010   33.7230   39.8530 C   0  0  0  0  0  0  0  0  0  0  0  0
   33.6290   34.1280   39.7540 N   0  0  0  0  0  0  0  0  0  0  0  0
   32.5830   33.2930   39.8170 C   0  0  0  0  0  0  0  0  0  0  0  0
   31.5460   33.6330   39.7350 H   0  0  0  0  0  0  0  0  0  0  0  0
   32.7670   31.9240   39.9920 C   0  0  0  0  0  3  0  0  0  0  0  0
   34.0770   31.4800   40.0970 C   0  0  0  0  0  3  0  0  0  0  0  0
   35.1350   32.3570   40.0300 C   0  0  0  0  0  0  0  0  0  0  0  0
   36.4560   31.9460   40.1300 C   0  0  0  0  0  3  0  0  0  0  0  0
  1 10  1  0  0  0  0
  1  2  1  0  0  0  0
  2 14  1  0  0  0  0
  3  2  2  0  0  0  0
  3 11  1  0  0  0  0
  4  3  1  0  0  0  0
  5  4  1  0  0  0  0
  5 12  1  0  0  0  0
  6  5  1  0  0  0  0
  7  6  2  0  0  0  0
  7  8  1  0  0  0  0
  8  9  1  0  0  0  0
  8  4  2  0  0  0  0
  9  1  2  0  0  0  0
 13  6  1  0  0  0  0
 14 15  2  0  0  0  0
 14 16  1  0  0  0  0
 16 24  1  0  0  0  0
 17 16  1  0  0  0  0
 18 19  1  0  0  0  0
 19 20  1  0  0  0  0
 20 21  2  0  0  0  0
 20 30  1  0  0  0  0
 21 25  1  0  0  0  0
 22 26  1  0  0  0  0
 22 21  1  0  0  0  0
 23 22  2  0  0  0  0
 24 23  1  0  0  0  0
 24 19  2  0  0  0  0
 27 23  1  0  0  0  0
 28 34  1  0  0  0  0
 29 35  1  0  0  0  0
 29 28  2  0  0  0  0
 30 29  1  0  0  0  0
 31 30  2  0  0  0  0
 31 32  1  0  0  0  0
 32 33  2  0  0  0  0
 33 28  1  0  0  0  0
 36 32  1  0  0  0  0
 37  9  1  0  0  0  0
 38 49  1  0  0  0  0
 38 37  1  0  0  0  0
 39 38  2  0  0  0  0
 40 39  1  0  0  0  0
 41 42  2  0  0  0  0
 41 39  1  0  0  0  0
 42 48  1  0  0  0  0
 43 44  2  0  0  0  0
 43 42  1  0  0  0  0
 44 46  1  0  0  0  0
 45 44  1  0  0  0  0
 46 47  2  0  0  0  0
 48 47  1  0  0  0  0
 48 49  2  0  0  0  0
M  END
>  <minimizedAffinity>
-7.49331951

>  <minimizedRMSD>
2.58690262

$$$$
