
 OpenBabel03272507063D

 34 38  0  0  0  0  0  0  0  0999 V2000
   36.8620   28.3900   31.7360 C   0  0  0  0  0  0  0  0  0  0  0  0
   37.6010   27.3450   32.3290 C   0  0  0  0  0  0  0  0  0  0  0  0
   37.4650   27.1740   33.7140 C   0  0  0  0  0  0  0  0  0  0  0  0
   36.6410   28.0110   34.3900 N   0  0  0  0  0  0  0  0  0  0  0  0
   35.9550   28.9910   33.7960 C   0  0  0  0  0  0  0  0  0  0  0  0
   36.0650   29.1770   32.4840 N   0  0  0  0  0  0  0  0  0  0  0  0
   36.9630   28.5280   30.6660 H   0  0  0  0  0  0  0  0  0  0  0  0
   38.2360   26.7140   31.7480 H   0  0  0  0  0  0  0  0  0  0  0  0
   33.7080   29.6890   34.5170 C   0  0  0  0  0  0  0  0  0  0  0  0
   35.0960   29.8380   34.6180 C   0  0  0  0  0  0  0  0  0  0  0  0
   35.6240   30.7660   35.4780 C   0  0  0  0  0  0  0  0  0  0  0  0
   34.8090   31.5590   36.2490 C   0  0  0  0  0  0  0  0  0  0  0  0
   35.0700   32.5310   37.1590 N   0  0  0  0  0  0  0  0  0  0  0  0
   33.8370   32.9360   37.5750 C   0  0  0  0  0  0  0  0  0  0  0  0
   32.8740   32.2510   36.9570 N   0  0  0  0  0  0  0  0  0  0  0  0
   33.4550   31.3760   36.1150 C   0  0  0  0  0  0  0  0  0  0  0  0
   32.8740   30.4730   35.2800 C   0  0  0  0  0  0  0  0  0  0  0  0
   33.2750   28.9560   33.8380 H   0  0  0  0  0  0  0  0  0  0  0  0
   36.6930   30.9070   35.5810 H   0  0  0  0  0  0  0  0  0  0  0  0
   35.9950   32.8970   37.4780 H   0  0  0  0  0  0  0  0  0  0  0  0
   33.6480   33.7200   38.3200 H   0  0  0  0  0  0  0  0  0  0  0  0
   31.7950   30.3490   35.1940 H   0  0  0  0  0  0  0  0  0  0  0  0
   38.1820   26.1260   34.4260 C   0  0  0  0  0  0  0  0  0  0  0  0
   39.2720   25.4430   33.9360 C   0  0  0  0  0  0  0  0  0  0  0  0
   39.6370   25.6810   32.9590 H   0  0  0  0  0  0  0  0  0  0  0  0
   39.9300   24.4560   34.6360 C   0  0  0  0  0  3  0  0  0  0  0  0
   39.4860   24.1120   35.9160 C   0  0  0  0  0  0  0  0  0  0  0  0
   40.1420   23.1430   36.5880 N   0  0  0  0  0  0  0  0  0  0  0  0
   39.7580   22.7710   37.8230 C   0  0  0  0  0  0  0  0  0  0  0  0
   40.2210   22.0070   38.4360 H   0  0  0  0  0  0  0  0  0  0  0  0
   38.6610   23.4250   38.3760 C   0  0  0  0  0  3  0  0  0  0  0  0
   37.9740   24.4290   37.6920 C   0  0  0  0  0  3  0  0  0  0  0  0
   38.3960   24.7840   36.4280 C   0  0  0  0  0  0  0  0  0  0  0  0
   37.7700   25.7640   35.6900 C   0  0  0  0  0  3  0  0  0  0  0  0
  1  2  2  0  0  0  0
  1  6  1  0  0  0  0
  2  3  1  0  0  0  0
  3  4  2  0  0  0  0
  3 23  1  0  0  0  0
  5  4  1  0  0  0  0
  5 10  1  0  0  0  0
  6  5  2  0  0  0  0
  7  1  1  0  0  0  0
  8  2  1  0  0  0  0
  9 10  2  0  0  0  0
  9 17  1  0  0  0  0
 10 11  1  0  0  0  0
 11 19  1  0  0  0  0
 11 12  2  0  0  0  0
 12 13  1  0  0  0  0
 13 20  1  0  0  0  0
 13 14  1  0  0  0  0
 14 21  1  0  0  0  0
 15 14  2  0  0  0  0
 16 12  1  0  0  0  0
 16 15  1  0  0  0  0
 17 16  2  0  0  0  0
 18  9  1  0  0  0  0
 22 17  1  0  0  0  0
 23 34  1  0  0  0  0
 24 23  2  0  0  0  0
 24 26  1  0  0  0  0
 25 24  1  0  0  0  0
 26 27  2  0  0  0  0
 27 33  1  0  0  0  0
 27 28  1  0  0  0  0
 28 29  2  0  0  0  0
 29 31  1  0  0  0  0
 29 30  1  0  0  0  0
 32 31  2  0  0  0  0
 33 32  1  0  0  0  0
 34 33  2  0  0  0  0
M  END
>  <minimizedAffinity>
-7.15614462

$$$$

 OpenBabel03272507063D

 34 38  0  0  0  0  0  0  0  0999 V2000
   37.5440   27.7490   31.7130 C   0  0  0  0  0  0  0  0  0  0  0  0
   36.6010   28.6870   32.1830 C   0  0  0  0  0  0  0  0  0  0  0  0
   36.2060   28.5770   33.5240 C   0  0  0  0  0  0  0  0  0  0  0  0
   36.7470   27.5900   34.2780 N   0  0  0  0  0  0  0  0  0  0  0  0
   37.6390   26.7170   33.7990 C   0  0  0  0  0  0  0  0  0  0  0  0
   38.0310   26.7970   32.5320 N   0  0  0  0  0  0  0  0  0  0  0  0
   37.8530   27.8280   30.6780 H   0  0  0  0  0  0  0  0  0  0  0  0
   36.2070   29.4460   31.5450 H   0  0  0  0  0  0  0  0  0  0  0  0
   39.0990   24.7780   34.2040 C   0  0  0  0  0  0  0  0  0  0  0  0
   38.1580   25.6890   34.6980 C   0  0  0  0  0  0  0  0  0  0  0  0
   37.7430   25.6070   36.0010 C   0  0  0  0  0  0  0  0  0  0  0  0
   38.2360   24.6370   36.8400 C   0  0  0  0  0  0  0  0  0  0  0  0
   37.9970   24.3440   38.1420 N   0  0  0  0  0  0  0  0  0  0  0  0
   38.7960   23.2680   38.3930 C   0  0  0  0  0  0  0  0  0  0  0  0
   39.4880   22.9230   37.3060 N   0  0  0  0  0  0  0  0  0  0  0  0
   39.1560   23.7670   36.3110 C   0  0  0  0  0  0  0  0  0  0  0  0
   39.6060   23.8000   35.0270 C   0  0  0  0  0  0  0  0  0  0  0  0
   39.4380   24.8320   33.1710 H   0  0  0  0  0  0  0  0  0  0  0  0
   37.0170   26.2970   36.4150 H   0  0  0  0  0  0  0  0  0  0  0  0
   37.3520   24.8200   38.8130 H   0  0  0  0  0  0  0  0  0  0  0  0
   38.8710   22.7480   39.3570 H   0  0  0  0  0  0  0  0  0  0  0  0
   40.3380   23.0940   34.6340 H   0  0  0  0  0  0  0  0  0  0  0  0
   35.2390   29.4940   34.1110 C   0  0  0  0  0  0  0  0  0  0  0  0
   33.9010   29.5380   33.7930 C   0  0  0  0  0  0  0  0  0  0  0  0
   33.5180   28.8590   33.0610 H   0  0  0  0  0  0  0  0  0  0  0  0
   33.0100   30.4190   34.3670 C   0  0  0  0  0  3  0  0  0  0  0  0
   33.4670   31.3260   35.3270 C   0  0  0  0  0  0  0  0  0  0  0  0
   32.5820   32.1810   35.8800 N   0  0  0  0  0  0  0  0  0  0  0  0
   32.9670   33.0760   36.8100 C   0  0  0  0  0  0  0  0  0  0  0  0
   32.3290   33.7980   37.3060 H   0  0  0  0  0  0  0  0  0  0  0  0
   34.3090   33.0810   37.1750 C   0  0  0  0  0  3  0  0  0  0  0  0
   35.2340   32.2020   36.6120 C   0  0  0  0  0  3  0  0  0  0  0  0
   34.8050   31.2990   35.6630 C   0  0  0  0  0  0  0  0  0  0  0  0
   35.6570   30.4000   35.0610 C   0  0  0  0  0  3  0  0  0  0  0  0
  1  2  2  0  0  0  0
  1  6  1  0  0  0  0
  2  3  1  0  0  0  0
  3 23  1  0  0  0  0
  3  4  2  0  0  0  0
  5  4  1  0  0  0  0
  5 10  1  0  0  0  0
  6  5  2  0  0  0  0
  7  1  1  0  0  0  0
  8  2  1  0  0  0  0
  9 10  2  0  0  0  0
  9 17  1  0  0  0  0
 10 11  1  0  0  0  0
 11 19  1  0  0  0  0
 11 12  2  0  0  0  0
 12 13  1  0  0  0  0
 13 14  1  0  0  0  0
 13 20  1  0  0  0  0
 14 21  1  0  0  0  0
 15 14  2  0  0  0  0
 16 12  1  0  0  0  0
 16 15  1  0  0  0  0
 17 16  2  0  0  0  0
 18  9  1  0  0  0  0
 22 17  1  0  0  0  0
 23 34  1  0  0  0  0
 24 23  2  0  0  0  0
 24 26  1  0  0  0  0
 25 24  1  0  0  0  0
 26 27  2  0  0  0  0
 27 33  1  0  0  0  0
 27 28  1  0  0  0  0
 28 29  2  0  0  0  0
 29 31  1  0  0  0  0
 29 30  1  0  0  0  0
 32 31  2  0  0  0  0
 33 32  1  0  0  0  0
 34 33  2  0  0  0  0
M  END
>  <minimizedAffinity>
-6.83920145

$$$$

 OpenBabel03272507063D

 34 38  0  0  0  0  0  0  0  0999 V2000
   36.9250   27.9490   31.9880 C   0  0  0  0  0  0  0  0  0  0  0  0
   36.2220   28.9920   32.6280 C   0  0  0  0  0  0  0  0  0  0  0  0
   36.1170   28.9290   34.0250 C   0  0  0  0  0  0  0  0  0  0  0  0
   36.6920   27.8840   34.6680 N   0  0  0  0  0  0  0  0  0  0  0  0
   37.3510   26.9120   34.0310 C   0  0  0  0  0  0  0  0  0  0  0  0
   37.4650   26.9460   32.7070 N   0  0  0  0  0  0  0  0  0  0  0  0
   37.0090   27.9920   30.9090 H   0  0  0  0  0  0  0  0  0  0  0  0
   35.7890   29.7930   32.0700 H   0  0  0  0  0  0  0  0  0  0  0  0
   38.7680   24.9060   34.1850 C   0  0  0  0  0  0  0  0  0  0  0  0
   37.9310   25.8300   34.8210 C   0  0  0  0  0  0  0  0  0  0  0  0
   37.6710   25.7090   36.1610 C   0  0  0  0  0  0  0  0  0  0  0  0
   38.2200   24.6880   36.8980 C   0  0  0  0  0  0  0  0  0  0  0  0
   38.1250   24.3490   38.2080 N   0  0  0  0  0  0  0  0  0  0  0  0
   38.9040   23.2360   38.3210 C   0  0  0  0  0  0  0  0  0  0  0  0
   39.4460   22.9110   37.1470 N   0  0  0  0  0  0  0  0  0  0  0  0
   39.0340   23.8070   36.2310 C   0  0  0  0  0  0  0  0  0  0  0  0
   39.3290   23.8770   34.9050 C   0  0  0  0  0  0  0  0  0  0  0  0
   38.9840   24.9900   33.1210 H   0  0  0  0  0  0  0  0  0  0  0  0
   37.0270   26.4060   36.6850 H   0  0  0  0  0  0  0  0  0  0  0  0
   37.5850   24.8200   38.9690 H   0  0  0  0  0  0  0  0  0  0  0  0
   39.0710   22.6730   39.2490 H   0  0  0  0  0  0  0  0  0  0  0  0
   39.9790   23.1620   34.4000 H   0  0  0  0  0  0  0  0  0  0  0  0
   35.4140   29.9530   34.7820 C   0  0  0  0  0  0  0  0  0  0  0  0
   36.0200   30.9540   35.5070 C   0  0  0  0  0  0  0  0  0  0  0  0
   37.0880   31.0030   35.5320 H   0  0  0  0  0  0  0  0  0  0  0  0
   35.3250   31.9110   36.2150 C   0  0  0  0  0  3  0  0  0  0  0  0
   33.9280   31.8840   36.2110 C   0  0  0  0  0  0  0  0  0  0  0  0
   33.2620   32.8280   36.9080 N   0  0  0  0  0  0  0  0  0  0  0  0
   31.9170   32.8500   36.9400 C   0  0  0  0  0  0  0  0  0  0  0  0
   31.3000   33.5660   37.4710 H   0  0  0  0  0  0  0  0  0  0  0  0
   31.2440   31.8640   36.2260 C   0  0  0  0  0  3  0  0  0  0  0  0
   31.9190   30.8820   35.5000 C   0  0  0  0  0  3  0  0  0  0  0  0
   33.2980   30.8900   35.4910 C   0  0  0  0  0  0  0  0  0  0  0  0
   34.0360   29.9550   34.7980 C   0  0  0  0  0  3  0  0  0  0  0  0
  1  2  2  0  0  0  0
  1  6  1  0  0  0  0
  2  3  1  0  0  0  0
  3  4  2  0  0  0  0
  3 23  1  0  0  0  0
  5  4  1  0  0  0  0
  5 10  1  0  0  0  0
  6  5  2  0  0  0  0
  7  1  1  0  0  0  0
  8  2  1  0  0  0  0
  9 10  2  0  0  0  0
  9 17  1  0  0  0  0
 10 11  1  0  0  0  0
 11 19  1  0  0  0  0
 11 12  2  0  0  0  0
 12 13  1  0  0  0  0
 13 14  1  0  0  0  0
 13 20  1  0  0  0  0
 14 21  1  0  0  0  0
 15 14  2  0  0  0  0
 16 12  1  0  0  0  0
 16 15  1  0  0  0  0
 17 16  2  0  0  0  0
 18  9  1  0  0  0  0
 22 17  1  0  0  0  0
 23 34  2  0  0  0  0
 23 24  1  0  0  0  0
 24 25  1  0  0  0  0
 24 26  2  0  0  0  0
 27 26  1  0  0  0  0
 27 28  1  0  0  0  0
 28 29  2  0  0  0  0
 29 30  1  0  0  0  0
 31 29  1  0  0  0  0
 32 31  2  0  0  0  0
 33 32  1  0  0  0  0
 33 27  2  0  0  0  0
 34 33  1  0  0  0  0
M  END
>  <minimizedAffinity>
-6.64336109

$$$$

 OpenBabel03272507063D

 34 38  0  0  0  0  0  0  0  0999 V2000
   37.4380   27.7820   32.1120 C   0  0  0  0  0  0  0  0  0  0  0  0
   37.9980   26.7500   32.8940 C   0  0  0  0  0  0  0  0  0  0  0  0
   37.6540   26.7200   34.2530 C   0  0  0  0  0  0  0  0  0  0  0  0
   36.8140   27.6720   34.7270 N   0  0  0  0  0  0  0  0  0  0  0  0
   36.3010   28.6360   33.9580 C   0  0  0  0  0  0  0  0  0  0  0  0
   36.6100   28.6900   32.6670 N   0  0  0  0  0  0  0  0  0  0  0  0
   37.7000   27.8110   31.0620 H   0  0  0  0  0  0  0  0  0  0  0  0
   38.6550   26.0250   32.4680 H   0  0  0  0  0  0  0  0  0  0  0  0
   34.0820   29.6860   34.1260 C   0  0  0  0  0  0  0  0  0  0  0  0
   35.4070   29.6140   34.5710 C   0  0  0  0  0  0  0  0  0  0  0  0
   35.8420   30.4520   35.5650 C   0  0  0  0  0  0  0  0  0  0  0  0
   34.9940   31.3700   36.1360 C   0  0  0  0  0  0  0  0  0  0  0  0
   35.1680   32.2940   37.1140 N   0  0  0  0  0  0  0  0  0  0  0  0
   33.9490   32.8930   37.2270 C   0  0  0  0  0  0  0  0  0  0  0  0
   33.0760   32.3640   36.3680 N   0  0  0  0  0  0  0  0  0  0  0  0
   33.7050   31.4030   35.6670 C   0  0  0  0  0  0  0  0  0  0  0  0
   33.2170   30.5970   34.6850 C   0  0  0  0  0  0  0  0  0  0  0  0
   33.7230   29.0260   33.3370 H   0  0  0  0  0  0  0  0  0  0  0  0
   36.8600   30.4230   35.9330 H   0  0  0  0  0  0  0  0  0  0  0  0
   36.0310   32.5120   37.6630 H   0  0  0  0  0  0  0  0  0  0  0  0
   33.7050   33.7020   37.9270 H   0  0  0  0  0  0  0  0  0  0  0  0
   32.1870   30.6450   34.3320 H   0  0  0  0  0  0  0  0  0  0  0  0
   38.1760   25.6980   35.1480 C   0  0  0  0  0  0  0  0  0  0  0  0
   37.5980   25.3230   36.3390 C   0  0  0  0  0  0  0  0  0  0  0  0
   36.6970   25.8060   36.6540 H   0  0  0  0  0  0  0  0  0  0  0  0
   38.1160   24.3490   37.1660 C   0  0  0  0  0  3  0  0  0  0  0  0
   39.2930   23.6930   36.7940 C   0  0  0  0  0  0  0  0  0  0  0  0
   39.7870   22.7420   37.6140 N   0  0  0  0  0  0  0  0  0  0  0  0
   40.9170   22.0770   37.3070 C   0  0  0  0  0  0  0  0  0  0  0  0
   41.3860   21.3030   37.9010 H   0  0  0  0  0  0  0  0  0  0  0  0
   41.5500   22.4100   36.1130 C   0  0  0  0  0  3  0  0  0  0  0  0
   41.0490   23.3900   35.2560 C   0  0  0  0  0  3  0  0  0  0  0  0
   39.8900   24.0510   35.6040 C   0  0  0  0  0  0  0  0  0  0  0  0
   39.3330   25.0310   34.8110 C   0  0  0  0  0  3  0  0  0  0  0  0
  1  6  2  0  0  0  0
  1  2  1  0  0  0  0
  2  3  2  0  0  0  0
  3  4  1  0  0  0  0
  3 23  1  0  0  0  0
  5 10  1  0  0  0  0
  5  4  2  0  0  0  0
  6  5  1  0  0  0  0
  7  1  1  0  0  0  0
  8  2  1  0  0  0  0
  9 10  2  0  0  0  0
  9 17  1  0  0  0  0
 10 11  1  0  0  0  0
 11 19  1  0  0  0  0
 11 12  2  0  0  0  0
 12 13  1  0  0  0  0
 13 14  1  0  0  0  0
 13 20  1  0  0  0  0
 14 21  1  0  0  0  0
 15 14  2  0  0  0  0
 16 12  1  0  0  0  0
 16 15  1  0  0  0  0
 17 16  2  0  0  0  0
 18  9  1  0  0  0  0
 22 17  1  0  0  0  0
 23 24  1  0  0  0  0
 24 25  1  0  0  0  0
 24 26  2  0  0  0  0
 27 26  1  0  0  0  0
 27 28  1  0  0  0  0
 29 28  2  0  0  0  0
 29 30  1  0  0  0  0
 31 29  1  0  0  0  0
 32 33  1  0  0  0  0
 32 31  2  0  0  0  0
 33 27  2  0  0  0  0
 34 23  2  0  0  0  0
 34 33  1  0  0  0  0
M  END
>  <minimizedAffinity>
-6.58302069

$$$$

 OpenBabel03272507063D

 34 38  0  0  0  0  0  0  0  0999 V2000
   37.7930   28.2130   31.1880 C   0  0  0  0  0  0  0  0  0  0  0  0
   38.4580   27.2410   31.9640 C   0  0  0  0  0  0  0  0  0  0  0  0
   37.8970   26.9260   33.2100 C   0  0  0  0  0  0  0  0  0  0  0  0
   36.7640   27.5660   33.5880 N   0  0  0  0  0  0  0  0  0  0  0  0
   36.1600   28.4830   32.8270 C   0  0  0  0  0  0  0  0  0  0  0  0
   36.6690   28.8020   31.6420 N   0  0  0  0  0  0  0  0  0  0  0  0
   38.2210   28.4610   30.2240 H   0  0  0  0  0  0  0  0  0  0  0  0
   39.3490   26.7670   31.6170 H   0  0  0  0  0  0  0  0  0  0  0  0
   35.0050   29.8360   34.5290 C   0  0  0  0  0  0  0  0  0  0  0  0
   34.9430   29.1150   33.3310 C   0  0  0  0  0  0  0  0  0  0  0  0
   33.7550   29.0120   32.6540 C   0  0  0  0  0  0  0  0  0  0  0  0
   32.6150   29.6080   33.1350 C   0  0  0  0  0  0  0  0  0  0  0  0
   31.3410   29.6590   32.6700 N   0  0  0  0  0  0  0  0  0  0  0  0
   30.6780   30.4040   33.5980 C   0  0  0  0  0  0  0  0  0  0  0  0
   31.4990   30.7910   34.5770 N   0  0  0  0  0  0  0  0  0  0  0  0
   32.7260   30.3040   34.3130 C   0  0  0  0  0  0  0  0  0  0  0  0
   33.8750   30.4410   35.0270 C   0  0  0  0  0  0  0  0  0  0  0  0
   35.9420   29.9250   35.0760 H   0  0  0  0  0  0  0  0  0  0  0  0
   33.6720   28.4610   31.7250 H   0  0  0  0  0  0  0  0  0  0  0  0
   30.9430   29.2300   31.8040 H   0  0  0  0  0  0  0  0  0  0  0  0
   29.6110   30.6610   33.5580 H   0  0  0  0  0  0  0  0  0  0  0  0
   33.9340   31.0000   35.9610 H   0  0  0  0  0  0  0  0  0  0  0  0
   38.5020   25.9370   34.0900 C   0  0  0  0  0  0  0  0  0  0  0  0
   39.6350   25.2120   33.8000 C   0  0  0  0  0  0  0  0  0  0  0  0
   40.1250   25.3670   32.8620 H   0  0  0  0  0  0  0  0  0  0  0  0
   40.1850   24.2820   34.6550 C   0  0  0  0  0  3  0  0  0  0  0  0
   39.5760   24.0450   35.8910 C   0  0  0  0  0  0  0  0  0  0  0  0
   40.1270   23.1320   36.7170 N   0  0  0  0  0  0  0  0  0  0  0  0
   39.5840   22.8640   37.9200 C   0  0  0  0  0  0  0  0  0  0  0  0
   39.9540   22.1500   38.6460 H   0  0  0  0  0  0  0  0  0  0  0  0
   38.4360   23.5660   38.2730 C   0  0  0  0  0  3  0  0  0  0  0  0
   37.8560   24.5140   37.4290 C   0  0  0  0  0  3  0  0  0  0  0  0
   38.4400   24.7620   36.2050 C   0  0  0  0  0  0  0  0  0  0  0  0
   37.9280   25.6820   35.3160 C   0  0  0  0  0  3  0  0  0  0  0  0
  1  6  2  0  0  0  0
  1  2  1  0  0  0  0
  2  3  2  0  0  0  0
  3  4  1  0  0  0  0
  3 23  1  0  0  0  0
  5 10  1  0  0  0  0
  5  4  2  0  0  0  0
  6  5  1  0  0  0  0
  7  1  1  0  0  0  0
  8  2  1  0  0  0  0
  9 17  1  0  0  0  0
  9 18  1  0  0  0  0
 10  9  2  0  0  0  0
 11 12  2  0  0  0  0
 11 10  1  0  0  0  0
 12 16  1  0  0  0  0
 13 12  1  0  0  0  0
 13 14  1  0  0  0  0
 14 15  2  0  0  0  0
 16 15  1  0  0  0  0
 16 17  2  0  0  0  0
 17 22  1  0  0  0  0
 19 11  1  0  0  0  0
 20 13  1  0  0  0  0
 21 14  1  0  0  0  0
 23 34  1  0  0  0  0
 24 23  2  0  0  0  0
 24 26  1  0  0  0  0
 25 24  1  0  0  0  0
 26 27  2  0  0  0  0
 27 33  1  0  0  0  0
 27 28  1  0  0  0  0
 28 29  2  0  0  0  0
 29 31  1  0  0  0  0
 29 30  1  0  0  0  0
 32 31  2  0  0  0  0
 33 32  1  0  0  0  0
 34 33  2  0  0  0  0
M  END
>  <minimizedAffinity>
-6.4034133

$$$$

 OpenBabel03272507063D

 34 38  0  0  0  0  0  0  0  0999 V2000
   36.1450   25.1290   31.4430 C   0  0  0  0  0  0  0  0  0  0  0  0
   35.7730   26.4820   31.5900 C   0  0  0  0  0  0  0  0  0  0  0  0
   36.3990   27.2090   32.6120 C   0  0  0  0  0  0  0  0  0  0  0  0
   37.3140   26.5770   33.3860 N   0  0  0  0  0  0  0  0  0  0  0  0
   37.6440   25.2930   33.2200 C   0  0  0  0  0  0  0  0  0  0  0  0
   37.0660   24.5790   32.2600 N   0  0  0  0  0  0  0  0  0  0  0  0
   35.6640   24.5610   30.6560 H   0  0  0  0  0  0  0  0  0  0  0  0
   35.0450   26.9300   30.9510 H   0  0  0  0  0  0  0  0  0  0  0  0
   39.9340   25.2460   34.1190 C   0  0  0  0  0  0  0  0  0  0  0  0
   38.6420   24.7090   34.1120 C   0  0  0  0  0  0  0  0  0  0  0  0
   38.3330   23.6550   34.9320 C   0  0  0  0  0  0  0  0  0  0  0  0
   39.2780   23.1100   35.7670 C   0  0  0  0  0  0  0  0  0  0  0  0
   39.2330   22.0880   36.6580 N   0  0  0  0  0  0  0  0  0  0  0  0
   40.4950   22.0400   37.1720 C   0  0  0  0  0  0  0  0  0  0  0  0
   41.2690   22.9800   36.6280 N   0  0  0  0  0  0  0  0  0  0  0  0
   40.5310   23.6700   35.7390 C   0  0  0  0  0  0  0  0  0  0  0  0
   40.8940   24.7160   34.9490 C   0  0  0  0  0  0  0  0  0  0  0  0
   40.1930   26.0830   33.4730 H   0  0  0  0  0  0  0  0  0  0  0  0
   37.3430   23.2150   34.9510 H   0  0  0  0  0  0  0  0  0  0  0  0
   38.4280   21.4690   36.9060 H   0  0  0  0  0  0  0  0  0  0  0  0
   40.8400   21.3280   37.9330 H   0  0  0  0  0  0  0  0  0  0  0  0
   41.8980   25.1410   34.9470 H   0  0  0  0  0  0  0  0  0  0  0  0
   36.0880   28.6110   32.8500 C   0  0  0  0  0  0  0  0  0  0  0  0
   35.7570   29.5220   31.8730 C   0  0  0  0  0  0  0  0  0  0  0  0
   35.7210   29.2000   30.8540 H   0  0  0  0  0  0  0  0  0  0  0  0
   35.4670   30.8440   32.1300 C   0  0  0  0  0  3  0  0  0  0  0  0
   35.5050   31.3090   33.4480 C   0  0  0  0  0  0  0  0  0  0  0  0
   35.2180   32.6060   33.6830 N   0  0  0  0  0  0  0  0  0  0  0  0
   35.2390   33.1080   34.9320 C   0  0  0  0  0  0  0  0  0  0  0  0
   35.0240   34.1310   35.2150 H   0  0  0  0  0  0  0  0  0  0  0  0
   35.5660   32.2360   35.9660 C   0  0  0  0  0  3  0  0  0  0  0  0
   35.8640   30.8920   35.7370 C   0  0  0  0  0  3  0  0  0  0  0  0
   35.8330   30.4130   34.4440 C   0  0  0  0  0  0  0  0  0  0  0  0
   36.1150   29.1000   34.1370 C   0  0  0  0  0  3  0  0  0  0  0  0
  1  2  2  0  0  0  0
  1  6  1  0  0  0  0
  2  3  1  0  0  0  0
  3 23  1  0  0  0  0
  3  4  2  0  0  0  0
  5  4  1  0  0  0  0
  5 10  1  0  0  0  0
  6  5  2  0  0  0  0
  7  1  1  0  0  0  0
  8  2  1  0  0  0  0
  9 17  1  0  0  0  0
 10  9  2  0  0  0  0
 10 11  1  0  0  0  0
 11 19  1  0  0  0  0
 11 12  2  0  0  0  0
 12 13  1  0  0  0  0
 13 20  1  0  0  0  0
 13 14  1  0  0  0  0
 14 21  1  0  0  0  0
 15 14  2  0  0  0  0
 16 12  1  0  0  0  0
 16 15  1  0  0  0  0
 17 16  2  0  0  0  0
 18  9  1  0  0  0  0
 22 17  1  0  0  0  0
 23 34  1  0  0  0  0
 24 26  1  0  0  0  0
 24 23  2  0  0  0  0
 25 24  1  0  0  0  0
 26 27  2  0  0  0  0
 27 28  1  0  0  0  0
 27 33  1  0  0  0  0
 28 29  2  0  0  0  0
 29 30  1  0  0  0  0
 29 31  1  0  0  0  0
 32 31  2  0  0  0  0
 33 32  1  0  0  0  0
 34 33  2  0  0  0  0
M  END
>  <minimizedAffinity>
-6.35909462

$$$$

 OpenBabel03272507063D

 34 38  0  0  0  0  0  0  0  0999 V2000
   36.1840   28.6710   31.4060 C   0  0  0  0  0  0  0  0  0  0  0  0
   36.7810   27.5960   32.0980 C   0  0  0  0  0  0  0  0  0  0  0  0
   36.8090   27.6750   33.4980 C   0  0  0  0  0  0  0  0  0  0  0  0
   36.2660   28.7640   34.0940 N   0  0  0  0  0  0  0  0  0  0  0  0
   35.7080   29.7650   33.4070 C   0  0  0  0  0  0  0  0  0  0  0  0
   35.6680   29.7180   32.0800 N   0  0  0  0  0  0  0  0  0  0  0  0
   36.1600   28.6160   30.3250 H   0  0  0  0  0  0  0  0  0  0  0  0
   37.1930   26.7610   31.5770 H   0  0  0  0  0  0  0  0  0  0  0  0
   34.4290   31.8670   33.4510 C   0  0  0  0  0  0  0  0  0  0  0  0
   35.1530   30.8940   34.1490 C   0  0  0  0  0  0  0  0  0  0  0  0
   35.3310   31.0130   35.5030 C   0  0  0  0  0  0  0  0  0  0  0  0
   34.8070   32.0780   36.1940 C   0  0  0  0  0  0  0  0  0  0  0  0
   34.8360   32.4250   37.5050 N   0  0  0  0  0  0  0  0  0  0  0  0
   34.1320   33.5910   37.5570 C   0  0  0  0  0  0  0  0  0  0  0  0
   33.6940   33.9390   36.3460 N   0  0  0  0  0  0  0  0  0  0  0  0
   34.1040   33.0060   35.4660 C   0  0  0  0  0  0  0  0  0  0  0  0
   33.8950   32.9410   34.1230 C   0  0  0  0  0  0  0  0  0  0  0  0
   34.2800   31.7860   32.3750 H   0  0  0  0  0  0  0  0  0  0  0  0
   35.8860   30.2780   36.0740 H   0  0  0  0  0  0  0  0  0  0  0  0
   35.2890   31.9260   38.3040 H   0  0  0  0  0  0  0  0  0  0  0  0
   33.9430   34.1740   38.4670 H   0  0  0  0  0  0  0  0  0  0  0  0
   33.3320   33.6940   33.5710 H   0  0  0  0  0  0  0  0  0  0  0  0
   37.4010   26.6210   34.3090 C   0  0  0  0  0  0  0  0  0  0  0  0
   37.7610   26.7500   35.6300 C   0  0  0  0  0  0  0  0  0  0  0  0
   37.6060   27.6880   36.1210 H   0  0  0  0  0  0  0  0  0  0  0  0
   38.3200   25.7310   36.3720 C   0  0  0  0  0  3  0  0  0  0  0  0
   38.5420   24.4900   35.7700 C   0  0  0  0  0  0  0  0  0  0  0  0
   39.0890   23.5030   36.5090 N   0  0  0  0  0  0  0  0  0  0  0  0
   39.3250   22.2870   35.9810 C   0  0  0  0  0  0  0  0  0  0  0  0
   39.7590   21.4380   36.4960 H   0  0  0  0  0  0  0  0  0  0  0  0
   38.9820   22.0920   34.6470 C   0  0  0  0  0  3  0  0  0  0  0  0
   38.4150   23.1030   33.8710 C   0  0  0  0  0  3  0  0  0  0  0  0
   38.1870   24.3360   34.4460 C   0  0  0  0  0  0  0  0  0  0  0  0
   37.6320   25.3850   33.7460 C   0  0  0  0  0  3  0  0  0  0  0  0
  1  6  2  0  0  0  0
  1  2  1  0  0  0  0
  2  3  2  0  0  0  0
  3  4  1  0  0  0  0
  3 23  1  0  0  0  0
  5  4  2  0  0  0  0
  5 10  1  0  0  0  0
  6  5  1  0  0  0  0
  7  1  1  0  0  0  0
  8  2  1  0  0  0  0
  9 17  2  0  0  0  0
  9 10  1  0  0  0  0
 10 11  2  0  0  0  0
 11 19  1  0  0  0  0
 11 12  1  0  0  0  0
 12 13  1  0  0  0  0
 13 14  1  0  0  0  0
 13 20  1  0  0  0  0
 14 21  1  0  0  0  0
 15 14  2  0  0  0  0
 16 12  2  0  0  0  0
 16 15  1  0  0  0  0
 17 16  1  0  0  0  0
 18  9  1  0  0  0  0
 22 17  1  0  0  0  0
 23 24  1  0  0  0  0
 24 25  1  0  0  0  0
 24 26  2  0  0  0  0
 27 26  1  0  0  0  0
 27 28  1  0  0  0  0
 29 30  1  0  0  0  0
 29 28  2  0  0  0  0
 31 29  1  0  0  0  0
 32 33  1  0  0  0  0
 32 31  2  0  0  0  0
 33 27  2  0  0  0  0
 34 23  2  0  0  0  0
 34 33  1  0  0  0  0
M  END
>  <minimizedAffinity>
-6.31867886

$$$$

 OpenBabel03272507063D

 34 38  0  0  0  0  0  0  0  0999 V2000
   36.6230   28.7430   30.5300 C   0  0  0  0  0  0  0  0  0  0  0  0
   36.9270   27.3780   30.7200 C   0  0  0  0  0  0  0  0  0  0  0  0
   36.5700   26.8100   31.9520 C   0  0  0  0  0  0  0  0  0  0  0  0
   35.9610   27.5960   32.8720 N   0  0  0  0  0  0  0  0  0  0  0  0
   35.6880   28.8870   32.6590 C   0  0  0  0  0  0  0  0  0  0  0  0
   36.0160   29.4510   31.5020 N   0  0  0  0  0  0  0  0  0  0  0  0
   36.8970   29.1880   29.5810 H   0  0  0  0  0  0  0  0  0  0  0  0
   37.4080   26.8050   29.9590 H   0  0  0  0  0  0  0  0  0  0  0  0
   33.6380   29.5630   33.8410 C   0  0  0  0  0  0  0  0  0  0  0  0
   35.0300   29.6440   33.7210 C   0  0  0  0  0  0  0  0  0  0  0  0
   35.7490   30.4220   34.5900 C   0  0  0  0  0  0  0  0  0  0  0  0
   35.1230   31.1320   35.5860 C   0  0  0  0  0  0  0  0  0  0  0  0
   35.5900   31.9580   36.5550 N   0  0  0  0  0  0  0  0  0  0  0  0
   34.4700   32.3490   37.2270 C   0  0  0  0  0  0  0  0  0  0  0  0
   33.3780   31.7930   36.7000 N   0  0  0  0  0  0  0  0  0  0  0  0
   33.7570   31.0220   35.6640 C   0  0  0  0  0  0  0  0  0  0  0  0
   32.9920   30.2650   34.8310 C   0  0  0  0  0  0  0  0  0  0  0  0
   33.0540   28.9480   33.1580 H   0  0  0  0  0  0  0  0  0  0  0  0
   36.8270   30.5070   34.5250 H   0  0  0  0  0  0  0  0  0  0  0  0
   36.5760   32.2420   36.7550 H   0  0  0  0  0  0  0  0  0  0  0  0
   34.4550   33.0290   38.0880 H   0  0  0  0  0  0  0  0  0  0  0  0
   31.9070   30.1960   34.9170 H   0  0  0  0  0  0  0  0  0  0  0  0
   36.8370   25.4110   32.2510 C   0  0  0  0  0  0  0  0  0  0  0  0
   37.7840   24.9620   33.1430 C   0  0  0  0  0  0  0  0  0  0  0  0
   38.3830   25.6770   33.6680 H   0  0  0  0  0  0  0  0  0  0  0  0
   38.0130   23.6290   33.4060 C   0  0  0  0  0  3  0  0  0  0  0  0
   37.2550   22.6610   32.7410 C   0  0  0  0  0  0  0  0  0  0  0  0
   37.4900   21.3600   33.0090 N   0  0  0  0  0  0  0  0  0  0  0  0
   36.7910   20.3860   32.3990 C   0  0  0  0  0  0  0  0  0  0  0  0
   36.9110   19.3190   32.5510 H   0  0  0  0  0  0  0  0  0  0  0  0
   35.8170   20.7750   31.4850 C   0  0  0  0  0  3  0  0  0  0  0  0
   35.5620   22.1160   31.1990 C   0  0  0  0  0  3  0  0  0  0  0  0
   36.2990   23.0870   31.8430 C   0  0  0  0  0  0  0  0  0  0  0  0
   36.1060   24.4320   31.6140 C   0  0  0  0  0  3  0  0  0  0  0  0
  1  2  2  0  0  0  0
  1  6  1  0  0  0  0
  2  3  1  0  0  0  0
  3 23  1  0  0  0  0
  3  4  2  0  0  0  0
  5  4  1  0  0  0  0
  5 10  1  0  0  0  0
  6  5  2  0  0  0  0
  7  1  1  0  0  0  0
  8  2  1  0  0  0  0
  9 17  1  0  0  0  0
 10  9  2  0  0  0  0
 10 11  1  0  0  0  0
 11 12  2  0  0  0  0
 12 16  1  0  0  0  0
 12 13  1  0  0  0  0
 13 20  1  0  0  0  0
 13 14  1  0  0  0  0
 14 21  1  0  0  0  0
 15 14  2  0  0  0  0
 16 15  1  0  0  0  0
 17 22  1  0  0  0  0
 17 16  2  0  0  0  0
 18  9  1  0  0  0  0
 19 11  1  0  0  0  0
 23 24  1  0  0  0  0
 24 26  2  0  0  0  0
 24 25  1  0  0  0  0
 27 28  1  0  0  0  0
 27 26  1  0  0  0  0
 29 30  1  0  0  0  0
 29 28  2  0  0  0  0
 31 29  1  0  0  0  0
 32 31  2  0  0  0  0
 32 33  1  0  0  0  0
 33 27  2  0  0  0  0
 34 33  1  0  0  0  0
 34 23  2  0  0  0  0
M  END
>  <minimizedAffinity>
-6.31435061

$$$$

 OpenBabel03272507063D

 34 38  0  0  0  0  0  0  0  0999 V2000
   36.7700   28.7700   30.2120 C   0  0  0  0  0  0  0  0  0  0  0  0
   36.0680   29.5840   31.1260 C   0  0  0  0  0  0  0  0  0  0  0  0
   35.4880   28.9470   32.2330 C   0  0  0  0  0  0  0  0  0  0  0  0
   35.6360   27.6060   32.3560 N   0  0  0  0  0  0  0  0  0  0  0  0
   36.3080   26.8650   31.4710 C   0  0  0  0  0  0  0  0  0  0  0  0
   36.8680   27.4410   30.4130 N   0  0  0  0  0  0  0  0  0  0  0  0
   37.2200   29.2560   29.3550 H   0  0  0  0  0  0  0  0  0  0  0  0
   35.9820   30.6370   30.9800 H   0  0  0  0  0  0  0  0  0  0  0  0
   35.4560   24.5840   31.1090 C   0  0  0  0  0  0  0  0  0  0  0  0
   36.4060   25.4250   31.6990 C   0  0  0  0  0  0  0  0  0  0  0  0
   37.4050   24.8940   32.4730 C   0  0  0  0  0  0  0  0  0  0  0  0
   37.4900   23.5390   32.6840 C   0  0  0  0  0  0  0  0  0  0  0  0
   38.3590   22.7740   33.3910 N   0  0  0  0  0  0  0  0  0  0  0  0
   37.9080   21.5010   33.2070 C   0  0  0  0  0  0  0  0  0  0  0  0
   36.8230   21.4860   32.4290 N   0  0  0  0  0  0  0  0  0  0  0  0
   36.5360   22.7550   32.0840 C   0  0  0  0  0  0  0  0  0  0  0  0
   35.5240   23.2250   31.3060 C   0  0  0  0  0  0  0  0  0  0  0  0
   34.6580   24.9930   30.4910 H   0  0  0  0  0  0  0  0  0  0  0  0
   38.1560   25.5160   32.9450 H   0  0  0  0  0  0  0  0  0  0  0  0
   39.1880   23.0740   33.9530 H   0  0  0  0  0  0  0  0  0  0  0  0
   38.3660   20.6000   33.6340 H   0  0  0  0  0  0  0  0  0  0  0  0
   34.7790   22.5780   30.8420 H   0  0  0  0  0  0  0  0  0  0  0  0
   34.7420   29.6930   33.2360 C   0  0  0  0  0  0  0  0  0  0  0  0
   33.3710   29.7990   33.2820 C   0  0  0  0  0  0  0  0  0  0  0  0
   32.7860   29.3060   32.5340 H   0  0  0  0  0  0  0  0  0  0  0  0
   32.6930   30.5130   34.2470 C   0  0  0  0  0  3  0  0  0  0  0  0
   33.4170   31.1740   35.2430 C   0  0  0  0  0  0  0  0  0  0  0  0
   32.7390   31.8680   36.1800 N   0  0  0  0  0  0  0  0  0  0  0  0
   33.3840   32.5240   37.1630 C   0  0  0  0  0  0  0  0  0  0  0  0
   32.9250   33.1050   37.9540 H   0  0  0  0  0  0  0  0  0  0  0  0
   34.7730   32.4550   37.1720 C   0  0  0  0  0  3  0  0  0  0  0  0
   35.4870   31.7400   36.2100 C   0  0  0  0  0  3  0  0  0  0  0  0
   34.7930   31.0810   35.2180 C   0  0  0  0  0  0  0  0  0  0  0  0
   35.4250   30.3550   34.2320 C   0  0  0  0  0  3  0  0  0  0  0  0
  1  6  2  0  0  0  0
  1  2  1  0  0  0  0
  2  3  2  0  0  0  0
  3  4  1  0  0  0  0
  3 23  1  0  0  0  0
  5 10  1  0  0  0  0
  5  4  2  0  0  0  0
  6  5  1  0  0  0  0
  7  1  1  0  0  0  0
  8  2  1  0  0  0  0
  9 17  2  0  0  0  0
  9 10  1  0  0  0  0
 10 11  2  0  0  0  0
 11 12  1  0  0  0  0
 11 19  1  0  0  0  0
 12 13  1  0  0  0  0
 13 20  1  0  0  0  0
 14 13  1  0  0  0  0
 14 21  1  0  0  0  0
 15 14  2  0  0  0  0
 16 15  1  0  0  0  0
 16 12  2  0  0  0  0
 17 16  1  0  0  0  0
 18  9  1  0  0  0  0
 22 17  1  0  0  0  0
 23 24  2  0  0  0  0
 23 34  1  0  0  0  0
 24 26  1  0  0  0  0
 25 24  1  0  0  0  0
 26 27  2  0  0  0  0
 27 28  1  0  0  0  0
 28 29  2  0  0  0  0
 29 31  1  0  0  0  0
 29 30  1  0  0  0  0
 32 31  2  0  0  0  0
 33 27  1  0  0  0  0
 33 32  1  0  0  0  0
 34 33  2  0  0  0  0
M  END
>  <minimizedAffinity>
-6.30742121

$$$$
