REMARK  Name = 
REMARK  4 active torsions:
REMARK  status: ('A' for Active; 'I' for Inactive)
REMARK    1  A    between atoms: C_1  and  C_6
REMARK    2  A    between atoms: C_1  and  C_8
REMARK    3  A    between atoms: C_8  and  C_9
REMARK    4  A    between atoms: N_12  and  C_23
REMARK                            x       y       z     vdW  Elec       q    Type
REMARK                         _______ _______ _______ _____ _____    ______ ____
ROOT
ATOM      1  C   UNL     1      32.959  28.257  47.884  0.00  0.00    +0.000 A 
ATOM      2  C   UNL     1      32.019  27.590  48.625  0.00  0.00    +0.000 A 
ATOM      3  C   UNL     1      30.748  27.862  48.145  0.00  0.00    +0.000 A 
ATOM      4  N   UNL     1      30.960  28.698  47.111  0.00  0.00    +0.000 N 
ATOM      5  N   UNL     1      32.248  28.935  46.950  0.00  0.00    +0.000 NA
ATOM      6  H   UNL     1      32.157  26.925  49.481  0.00  0.00    +0.000 HD
ATOM      7  H   UNL     1      29.748  27.556  48.425  0.00  0.00    +0.000 HD
ENDROOT
BRANCH   4   8
ATOM      8  C   UNL     1      30.096  29.354  46.189  0.00  0.00    +0.000 A 
ATOM      9  C   UNL     1      29.071  30.191  46.576  0.00  0.00    +0.000 A 
ATOM     10  H   UNL     1      28.920  30.352  47.625  0.00  0.00    +0.000 HD
ATOM     11  C   UNL     1      28.304  30.767  45.572  0.00  0.00    +0.000 A 
ATOM     12  C   UNL     1      28.557  30.513  44.245  0.00  0.00    +0.000 A 
ATOM     13  N   UNL     1      27.793  31.089  43.306  0.00  0.00    +0.000 NA
ATOM     14  C   UNL     1      28.023  30.853  41.995  0.00  0.00    +0.000 A 
ATOM     15  H   UNL     1      27.377  31.342  41.250  0.00  0.00    +0.000 HD
ATOM     16  C   UNL     1      29.044  30.019  41.574  0.00  0.00    +0.000 A 
ATOM     17  C   UNL     1      29.844  29.414  42.517  0.00  0.00    +0.000 A 
ATOM     18  C   UNL     1      29.579  29.678  43.842  0.00  0.00    +0.000 A 
ATOM     19  C   UNL     1      30.346  29.102  44.849  0.00  0.00    +0.000 A 
ENDBRANCH   4   8
BRANCH   1  20
ATOM     20  C   UNL     1      34.448  28.207  48.107  0.00  0.00    +0.000 C 
ATOM     21  H   UNL     1      34.869  27.254  47.708  0.00  0.00    +0.000 HD
ATOM     22  H   UNL     1      34.858  29.063  47.536  0.00  0.00    +0.000 HD
BRANCH  20  23
ATOM     23  C   UNL     1      34.668  28.286  49.581  0.00  0.00    +0.000 C 
ATOM     24  H   UNL     1      34.833  27.288  50.036  0.00  0.00    +0.000 HD
ATOM     25  H   UNL     1      33.805  28.754  50.093  0.00  0.00    +0.000 HD
BRANCH  23  30
ATOM     26  C   UNL     1      37.287  30.189  51.397  0.00  0.00    +0.000 A 
ATOM     27  C   UNL     1      38.062  30.699  50.336  0.00  0.00    +0.000 A 
ATOM     28  C   UNL     1      37.681  30.387  49.012  0.00  0.00    +0.000 A 
ATOM     29  N   UNL     1      36.585  29.610  48.825  0.00  0.00    +0.000 NA
ATOM     30  C   UNL     1      35.865  29.138  49.876  0.00  0.00    +0.000 A 
ATOM     31  N   UNL     1      36.218  29.427  51.120  0.00  0.00    +0.000 NA
ATOM     32  H   UNL     1      37.573  30.423  52.412  0.00  0.00    +0.000 HD
ATOM     33  H   UNL     1      38.922  31.308  50.475  0.00  0.00    +0.000 HD
ATOM     34  H   UNL     1      38.220  30.737  48.142  0.00  0.00    +0.000 HD
ENDBRANCH  23  30
ENDBRANCH  20  23
ENDBRANCH   1  20
TORSDOF 4
