
 OpenBabel03262522283D

 49 53  0  0  0  0  0  0  0  0999 V2000
   34.8490   30.6480   49.8440 C   0  0  0  0  0  0  0  0  0  0  0  0
   34.7640   31.7190   49.6310 H   0  0  0  0  0  0  0  0  0  0  0  0
   34.1980   30.3000   50.6680 H   0  0  0  0  0  0  0  0  0  0  0  0
   34.5370   27.9220   50.0290 F   0  0  0  0  0  0  0  0  0  0  0  0
   34.4280   28.5120   48.8050 C   0  0  0  0  0  0  0  0  0  0  0  0
   34.5660   29.8830   48.5880 C   0  0  0  0  0  0  0  0  0  0  0  0
   34.4480   30.4260   47.3410 C   0  0  0  0  0  0  0  0  0  0  0  0
   34.1820   29.6150   46.2350 C   0  0  0  0  0  0  0  0  0  0  0  0
   34.0400   28.2440   46.4280 C   0  0  0  0  0  0  0  0  0  0  0  0
   34.1640   27.7160   47.6990 C   0  0  0  0  0  0  0  0  0  0  0  0
   34.5690   31.4900   47.2580 H   0  0  0  0  0  0  0  0  0  0  0  0
   34.0920   30.0610   45.2550 H   0  0  0  0  0  0  0  0  0  0  0  0
   33.8360   27.6550   45.5560 H   0  0  0  0  0  0  0  0  0  0  0  0
   34.0120   26.3500   47.8290 O   0  0  0  0  0  0  0  0  0  0  0  0
   32.8860   25.7570   47.2810 C   0  0  0  0  0  0  0  0  0  0  0  0
   33.1690   24.4980   46.7720 C   0  0  0  0  0  0  0  0  0  0  0  0
   34.1370   24.0030   46.7810 H   0  0  0  0  0  0  0  0  0  0  0  0
   32.1930   23.7190   46.1760 C   0  0  0  0  0  0  0  0  0  0  0  0
   30.9030   24.2030   46.0840 C   0  0  0  0  0  0  0  0  0  0  0  0
   29.9090   23.4880   45.5120 N   0  0  0  0  0  0  0  0  0  0  0  0
   28.6680   24.0380   45.4630 C   0  0  0  0  0  0  0  0  0  0  0  0
   27.9500   23.3860   44.9880 H   0  0  0  0  0  0  0  0  0  0  0  0
   28.3080   25.2970   45.9530 C   0  0  0  0  0  0  0  0  0  0  0  0
   29.3560   25.9880   46.5270 C   0  0  0  0  0  0  0  0  0  0  0  0
   30.6240   25.4550   46.5900 C   0  0  0  0  0  0  0  0  0  0  0  0
   31.5940   26.2350   47.1850 C   0  0  0  0  0  0  0  0  0  0  0  0
   36.5550   30.2580   50.3220 S   0  0  0  0  0  0  0  0  0  0  0  0
   38.7730   32.9730   48.3430 C   0  0  0  0  0  0  0  0  0  0  0  0
   39.1000   32.2700   47.1870 C   0  0  0  0  0  0  0  0  0  0  0  0
   38.6190   30.9860   47.0710 C   0  0  0  0  0  0  0  0  0  0  0  0
   37.8610   30.4900   48.0850 N   0  0  0  0  0  0  0  0  0  0  0  0
   37.5750   31.1790   49.1540 C   0  0  0  0  0  0  0  0  0  0  0  0
   38.0230   32.4690   49.3370 N   0  0  0  0  0  0  0  0  0  0  0  0
   39.1030   33.9990   48.5380 H   0  0  0  0  0  0  0  0  0  0  0  0
   38.8620   30.4200   46.1770 H   0  0  0  0  0  0  0  0  0  0  0  0
   39.8660   32.8900   46.2550 O   0  0  0  0  0  0  0  0  0  0  0  0
   39.9980   32.3180   44.9880 C   0  0  0  0  0  0  0  0  0  0  0  0
   40.6750   31.1660   44.6390 C   0  0  0  0  0  0  0  0  0  0  0  0
   40.6830   30.7790   43.3440 C   0  0  0  0  0  0  0  0  0  0  0  0
   40.0290   31.5290   42.4220 C   0  0  0  0  0  0  0  0  0  0  0  0
   39.3470   32.6960   42.7860 C   0  0  0  0  0  0  0  0  0  0  0  0
   39.3570   33.0550   44.0880 N   0  0  0  0  0  0  0  0  0  0  0  0
   41.1510   30.6710   45.4880 H   0  0  0  0  0  0  0  0  0  0  0  0
   41.2280   29.8620   43.1040 H   0  0  0  0  0  0  0  0  0  0  0  0
   40.0320   31.2220   41.3780 H   0  0  0  0  0  0  0  0  0  0  0  0
   38.6230   33.5190   41.7400 C   0  0  0  0  0  0  0  0  0  0  0  0
   39.2580   34.4250   41.5400 H   0  0  0  0  0  0  0  0  0  0  0  0
   38.5800   32.9130   40.8280 H   0  0  0  0  0  0  0  0  0  0  0  0
   37.6220   33.8400   42.1000 H   0  0  0  0  0  0  0  0  0  0  0  0
  1 27  1  0  0  0  0
  1  3  1  0  0  0  0
  2  1  1  0  0  0  0
  5  4  1  0  0  0  0
  6  5  1  0  0  0  0
  6  1  1  0  0  0  0
  7  6  2  0  0  0  0
  8  9  2  0  0  0  0
  8  7  1  0  0  0  0
  9 10  1  0  0  0  0
 10 14  1  0  0  0  0
 10  5  2  0  0  0  0
 11  7  1  0  0  0  0
 12  8  1  0  0  0  0
 13  9  1  0  0  0  0
 15 14  1  0  0  0  0
 16 17  1  0  0  0  0
 16 15  2  0  0  0  0
 18 16  1  0  0  0  0
 19 18  2  0  0  0  0
 19 25  1  0  0  0  0
 20 19  1  0  0  0  0
 21 20  2  0  0  0  0
 21 23  1  0  0  0  0
 22 21  1  0  0  0  0
 23 24  2  0  0  0  0
 24 25  1  0  0  0  0
 25 26  2  0  0  0  0
 26 15  1  0  0  0  0
 28 34  1  0  0  0  0
 28 33  1  0  0  0  0
 29 28  2  0  0  0  0
 30 29  1  0  0  0  0
 30 31  2  0  0  0  0
 31 32  1  0  0  0  0
 32 33  2  0  0  0  0
 32 27  1  0  0  0  0
 35 30  1  0  0  0  0
 36 29  1  0  0  0  0
 37 36  1  0  0  0  0
 38 37  1  0  0  0  0
 38 43  1  0  0  0  0
 39 38  2  0  0  0  0
 40 41  2  0  0  0  0
 40 39  1  0  0  0  0
 41 42  1  0  0  0  0
 42 37  2  0  0  0  0
 44 39  1  0  0  0  0
 45 40  1  0  0  0  0
 46 49  1  0  0  0  0
 46 41  1  0  0  0  0
 47 46  1  0  0  0  0
 48 46  1  0  0  0  0
M  END
>  <minimizedAffinity>
-6.59185457

>  <minimizedRMSD>
1.7434113

$$$$
