
 OpenBabel03262522383D

 30 33  0  0  0  0  0  0  0  0999 V2000
   35.9350   29.2170   34.0870 C   0  0  0  0  0  0  0  0  0  0  0  0
   35.9600   29.2650   32.7260 C   0  0  0  0  0  0  0  0  0  0  0  0
   36.6040   28.3790   31.9060 C   0  0  0  0  0  0  0  0  0  0  0  0
   37.2900   27.3480   32.4850 C   0  0  0  0  0  0  0  0  0  0  0  0
   37.2680   27.2950   33.8640 C   0  0  0  0  0  0  0  0  0  0  0  0
   36.6210   28.1880   34.6270 N   0  0  0  0  0  0  0  0  0  0  0  0
   35.4230   30.0740   32.2290 H   0  0  0  0  0  0  0  0  0  0  0  0
   36.5740   28.4870   30.8390 H   0  0  0  0  0  0  0  0  0  0  0  0
   37.8100   26.6310   31.8670 H   0  0  0  0  0  0  0  0  0  0  0  0
   37.9720   26.2300   34.5740 C   0  0  0  0  0  0  0  0  0  0  0  0
   39.0360   25.5830   33.9580 C   0  0  0  0  0  0  0  0  0  0  0  0
   39.3510   25.8580   32.9560 H   0  0  0  0  0  0  0  0  0  0  0  0
   39.7750   24.5640   34.5290 C   0  0  0  0  0  3  0  0  0  0  0  0
   39.4540   24.1490   35.7890 C   0  0  0  0  0  0  0  0  0  0  0  0
   40.1200   23.1660   36.4210 N   0  0  0  0  0  0  0  0  0  0  0  0
   39.7820   22.7670   37.6760 C   0  0  0  0  0  0  0  0  0  0  0  0
   40.3130   21.9780   38.1870 H   0  0  0  0  0  0  0  0  0  0  0  0
   38.7410   23.3490   38.3680 C   0  0  0  0  0  3  0  0  0  0  0  0
   38.0560   24.3590   37.7240 C   0  0  0  0  0  3  0  0  0  0  0  0
   38.4020   24.7640   36.4400 C   0  0  0  0  0  0  0  0  0  0  0  0
   37.6870   25.7770   35.8400 C   0  0  0  0  0  3  0  0  0  0  0  0
   35.0970   32.0190   36.4660 C   0  0  0  0  0  0  0  0  0  0  0  0
   35.8960   31.1430   35.7060 C   0  0  0  0  0  0  0  0  0  0  0  0
   35.2350   30.1860   34.9200 C   0  0  0  0  0  0  0  0  0  0  0  0
   33.8900   30.1670   34.9400 N   0  0  0  0  0  0  0  0  0  0  0  0
   33.1370   31.0130   35.6740 C   0  0  0  0  0  0  0  0  0  0  0  0
   33.7460   31.9330   36.4290 N   0  0  0  0  0  0  0  0  0  0  0  0
   35.6040   32.7480   37.0630 H   0  0  0  0  0  0  0  0  0  0  0  0
   36.9670   31.1540   35.6850 H   0  0  0  0  0  0  0  0  0  0  0  0
   32.0720   30.8580   35.5720 H   0  0  0  0  0  0  0  0  0  0  0  0
  1  6  1  0  0  0  0
  1 24  1  0  0  0  0
  2  1  2  0  0  0  0
  3  4  2  0  0  0  0
  3  2  1  0  0  0  0
  4  5  1  0  0  0  0
  5 10  1  0  0  0  0
  5  6  2  0  0  0  0
  7  2  1  0  0  0  0
  8  3  1  0  0  0  0
  9  4  1  0  0  0  0
 10 21  1  0  0  0  0
 11 13  1  0  0  0  0
 11 10  2  0  0  0  0
 12 11  1  0  0  0  0
 13 14  2  0  0  0  0
 14 15  1  0  0  0  0
 14 20  1  0  0  0  0
 15 16  2  0  0  0  0
 16 17  1  0  0  0  0
 16 18  1  0  0  0  0
 19 18  2  0  0  0  0
 20 19  1  0  0  0  0
 21 20  2  0  0  0  0
 22 28  1  0  0  0  0
 23 22  2  0  0  0  0
 24 25  2  0  0  0  0
 24 23  1  0  0  0  0
 25 26  1  0  0  0  0
 26 27  2  0  0  0  0
 27 22  1  0  0  0  0
 29 23  1  0  0  0  0
 30 26  1  0  0  0  0
M  END
>  <minimizedAffinity>
-6.36990547

$$$$

 OpenBabel03262522383D

 30 33  0  0  0  0  0  0  0  0999 V2000
   39.9370   22.9810   36.7940 C   0  0  0  0  0  0  0  0  0  0  0  0
   39.2960   23.0380   37.9950 C   0  0  0  0  0  0  0  0  0  0  0  0
   38.2780   23.8930   38.3180 C   0  0  0  0  0  0  0  0  0  0  0  0
   37.8510   24.7750   37.3650 C   0  0  0  0  0  0  0  0  0  0  0  0
   38.4970   24.7220   36.1470 C   0  0  0  0  0  0  0  0  0  0  0  0
   39.4920   23.8650   35.8760 N   0  0  0  0  0  0  0  0  0  0  0  0
   39.6100   22.3490   38.7800 H   0  0  0  0  0  0  0  0  0  0  0  0
   37.8240   23.8740   39.2900 H   0  0  0  0  0  0  0  0  0  0  0  0
   37.0490   25.4640   37.5870 H   0  0  0  0  0  0  0  0  0  0  0  0
   38.1120   25.6240   35.0650 C   0  0  0  0  0  0  0  0  0  0  0  0
   38.5990   25.4020   33.7830 C   0  0  0  0  0  0  0  0  0  0  0  0
   39.2620   24.5670   33.5750 H   0  0  0  0  0  0  0  0  0  0  0  0
   38.3060   26.1860   32.6820 C   0  0  0  0  0  3  0  0  0  0  0  0
   37.4800   27.2600   32.8450 C   0  0  0  0  0  0  0  0  0  0  0  0
   37.1410   28.0750   31.8310 N   0  0  0  0  0  0  0  0  0  0  0  0
   36.3170   29.1410   32.0160 C   0  0  0  0  0  0  0  0  0  0  0  0
   36.0420   29.7990   31.2040 H   0  0  0  0  0  0  0  0  0  0  0  0
   35.7840   29.4420   33.2510 C   0  0  0  0  0  3  0  0  0  0  0  0
   36.1290   28.6070   34.2940 C   0  0  0  0  0  3  0  0  0  0  0  0
   36.9720   27.5190   34.1030 C   0  0  0  0  0  0  0  0  0  0  0  0
   37.2860   26.7160   35.1780 C   0  0  0  0  0  3  0  0  0  0  0  0
   42.7170   20.4480   37.0560 C   0  0  0  0  0  0  0  0  0  0  0  0
   41.6860   21.3080   37.4830 C   0  0  0  0  0  0  0  0  0  0  0  0
   41.0200   22.0540   36.4970 C   0  0  0  0  0  0  0  0  0  0  0  0
   41.4050   21.9000   35.2170 N   0  0  0  0  0  0  0  0  0  0  0  0
   42.3950   21.0730   34.8230 C   0  0  0  0  0  0  0  0  0  0  0  0
   43.0430   20.3530   35.7460 N   0  0  0  0  0  0  0  0  0  0  0  0
   43.2220   19.8810   37.8110 H   0  0  0  0  0  0  0  0  0  0  0  0
   41.3750   21.4340   38.5000 H   0  0  0  0  0  0  0  0  0  0  0  0
   42.5740   21.0730   33.7570 H   0  0  0  0  0  0  0  0  0  0  0  0
  1  2  1  0  0  0  0
  2  3  2  0  0  0  0
  2  7  1  0  0  0  0
  3  8  1  0  0  0  0
  4  9  1  0  0  0  0
  4  3  1  0  0  0  0
  5  4  2  0  0  0  0
  6  5  1  0  0  0  0
  6  1  2  0  0  0  0
 10 21  1  0  0  0  0
 10  5  1  0  0  0  0
 11 10  2  0  0  0  0
 12 11  1  0  0  0  0
 13 14  2  0  0  0  0
 13 11  1  0  0  0  0
 14 20  1  0  0  0  0
 15 16  2  0  0  0  0
 15 14  1  0  0  0  0
 16 18  1  0  0  0  0
 17 16  1  0  0  0  0
 18 19  2  0  0  0  0
 20 19  1  0  0  0  0
 20 21  2  0  0  0  0
 22 23  1  0  0  0  0
 22 28  1  0  0  0  0
 23 29  1  0  0  0  0
 24  1  1  0  0  0  0
 24 23  2  0  0  0  0
 25 24  1  0  0  0  0
 26 25  2  0  0  0  0
 26 27  1  0  0  0  0
 27 22  2  0  0  0  0
 30 26  1  0  0  0  0
M  END
>  <minimizedAffinity>
-6.09221601

$$$$

 OpenBabel03262522383D

 30 33  0  0  0  0  0  0  0  0999 V2000
   37.4020   28.3010   31.6930 C   0  0  0  0  0  0  0  0  0  0  0  0
   36.4030   29.0420   32.2470 C   0  0  0  0  0  0  0  0  0  0  0  0
   35.9200   28.9100   33.5200 C   0  0  0  0  0  0  0  0  0  0  0  0
   36.4780   27.9540   34.3230 C   0  0  0  0  0  0  0  0  0  0  0  0
   37.4910   27.2010   33.7670 C   0  0  0  0  0  0  0  0  0  0  0  0
   37.9300   27.3670   32.5110 N   0  0  0  0  0  0  0  0  0  0  0  0
   35.9340   29.8150   31.6360 H   0  0  0  0  0  0  0  0  0  0  0  0
   35.1280   29.5360   33.8830 H   0  0  0  0  0  0  0  0  0  0  0  0
   36.1210   27.8230   35.3340 H   0  0  0  0  0  0  0  0  0  0  0  0
   38.1490   26.1550   34.5460 C   0  0  0  0  0  0  0  0  0  0  0  0
   39.2470   25.4920   34.0120 C   0  0  0  0  0  0  0  0  0  0  0  0
   39.6220   25.7410   33.0230 H   0  0  0  0  0  0  0  0  0  0  0  0
   39.9490   24.4880   34.6530 C   0  0  0  0  0  3  0  0  0  0  0  0
   39.5530   24.1070   35.9010 C   0  0  0  0  0  0  0  0  0  0  0  0
   40.1780   23.1400   36.5980 N   0  0  0  0  0  0  0  0  0  0  0  0
   39.7640   22.7750   37.8410 C   0  0  0  0  0  0  0  0  0  0  0  0
   40.2630   21.9990   38.4030 H   0  0  0  0  0  0  0  0  0  0  0  0
   38.6850   23.3750   38.4540 C   0  0  0  0  0  3  0  0  0  0  0  0
   38.0420   24.3670   37.7430 C   0  0  0  0  0  3  0  0  0  0  0  0
   38.4650   24.7390   36.4720 C   0  0  0  0  0  0  0  0  0  0  0  0
   37.7890   25.7350   35.8040 C   0  0  0  0  0  3  0  0  0  0  0  0
   37.9560   29.5400   28.1750 C   0  0  0  0  0  0  0  0  0  0  0  0
   37.4070   29.4830   29.4710 C   0  0  0  0  0  0  0  0  0  0  0  0
   37.8810   28.4770   30.3280 C   0  0  0  0  0  0  0  0  0  0  0  0
   38.8240   27.6390   29.8620 N   0  0  0  0  0  0  0  0  0  0  0  0
   39.3400   27.7050   28.6170 C   0  0  0  0  0  0  0  0  0  0  0  0
   38.9030   28.6550   27.7840 N   0  0  0  0  0  0  0  0  0  0  0  0
   37.5920   30.3080   27.5250 H   0  0  0  0  0  0  0  0  0  0  0  0
   36.6570   30.1490   29.8480 H   0  0  0  0  0  0  0  0  0  0  0  0
   40.0880   26.9520   28.4080 H   0  0  0  0  0  0  0  0  0  0  0  0
  1  2  2  0  0  0  0
  1  6  1  0  0  0  0
  2  3  1  0  0  0  0
  3  8  1  0  0  0  0
  3  4  2  0  0  0  0
  4  9  1  0  0  0  0
  5  4  1  0  0  0  0
  5 10  1  0  0  0  0
  6  5  2  0  0  0  0
  7  2  1  0  0  0  0
 10 21  1  0  0  0  0
 11 10  2  0  0  0  0
 11 13  1  0  0  0  0
 12 11  1  0  0  0  0
 13 14  2  0  0  0  0
 14 20  1  0  0  0  0
 14 15  1  0  0  0  0
 15 16  2  0  0  0  0
 16 17  1  0  0  0  0
 16 18  1  0  0  0  0
 19 18  2  0  0  0  0
 20 19  1  0  0  0  0
 21 20  2  0  0  0  0
 22 23  1  0  0  0  0
 23 29  1  0  0  0  0
 23 24  2  0  0  0  0
 24  1  1  0  0  0  0
 25 24  1  0  0  0  0
 26 25  2  0  0  0  0
 27 22  2  0  0  0  0
 27 26  1  0  0  0  0
 28 22  1  0  0  0  0
 30 26  1  0  0  0  0
M  END
>  <minimizedAffinity>
-5.97997713

$$$$

 OpenBabel03262522383D

 30 33  0  0  0  0  0  0  0  0999 V2000
   36.4180   27.1130   31.0940 C   0  0  0  0  0  0  0  0  0  0  0  0
   36.9470   27.9230   30.1350 C   0  0  0  0  0  0  0  0  0  0  0  0
   36.8730   29.2890   30.1130 C   0  0  0  0  0  0  0  0  0  0  0  0
   36.2150   29.9140   31.1350 C   0  0  0  0  0  0  0  0  0  0  0  0
   35.6770   29.0980   32.1090 C   0  0  0  0  0  0  0  0  0  0  0  0
   35.7740   27.7610   32.0870 N   0  0  0  0  0  0  0  0  0  0  0  0
   37.4790   27.4590   29.3040 H   0  0  0  0  0  0  0  0  0  0  0  0
   37.3190   29.8570   29.3190 H   0  0  0  0  0  0  0  0  0  0  0  0
   36.1390   30.9920   31.1490 H   0  0  0  0  0  0  0  0  0  0  0  0
   34.9550   29.6730   33.2410 C   0  0  0  0  0  0  0  0  0  0  0  0
   33.6050   29.3900   33.4060 C   0  0  0  0  0  0  0  0  0  0  0  0
   33.0800   28.7490   32.7050 H   0  0  0  0  0  0  0  0  0  0  0  0
   32.8190   29.8750   34.4350 C   0  0  0  0  0  3  0  0  0  0  0  0
   33.3910   30.6910   35.3670 C   0  0  0  0  0  0  0  0  0  0  0  0
   32.7020   31.2070   36.4010 N   0  0  0  0  0  0  0  0  0  0  0  0
   33.2930   32.0200   37.3180 C   0  0  0  0  0  0  0  0  0  0  0  0
   32.7440   32.4360   38.1490 H   0  0  0  0  0  0  0  0  0  0  0  0
   34.6270   32.3570   37.2380 C   0  0  0  0  0  3  0  0  0  0  0  0
   35.3370   31.8290   36.1790 C   0  0  0  0  0  3  0  0  0  0  0  0
   34.7320   30.9990   35.2420 C   0  0  0  0  0  0  0  0  0  0  0  0
   35.4840   30.4980   34.2030 C   0  0  0  0  0  3  0  0  0  0  0  0
   35.6690   23.4220   31.2750 C   0  0  0  0  0  0  0  0  0  0  0  0
   35.4310   24.8090   31.3250 C   0  0  0  0  0  0  0  0  0  0  0  0
   36.5190   25.6600   31.0730 C   0  0  0  0  0  0  0  0  0  0  0  0
   37.7110   25.1000   30.7990 N   0  0  0  0  0  0  0  0  0  0  0  0
   37.9250   23.7680   30.7540 C   0  0  0  0  0  0  0  0  0  0  0  0
   36.9010   22.9400   30.9910 N   0  0  0  0  0  0  0  0  0  0  0  0
   34.8360   22.7770   31.4670 H   0  0  0  0  0  0  0  0  0  0  0  0
   34.4830   25.2600   31.5420 H   0  0  0  0  0  0  0  0  0  0  0  0
   38.9430   23.4910   30.5210 H   0  0  0  0  0  0  0  0  0  0  0  0
  1  6  1  0  0  0  0
  2  1  2  0  0  0  0
  3  2  1  0  0  0  0
  3  4  2  0  0  0  0
  4  9  1  0  0  0  0
  4  5  1  0  0  0  0
  5 10  1  0  0  0  0
  6  5  2  0  0  0  0
  7  2  1  0  0  0  0
  8  3  1  0  0  0  0
 10 11  2  0  0  0  0
 10 21  1  0  0  0  0
 11 13  1  0  0  0  0
 12 11  1  0  0  0  0
 13 14  2  0  0  0  0
 14 15  1  0  0  0  0
 15 16  2  0  0  0  0
 16 17  1  0  0  0  0
 18 16  1  0  0  0  0
 19 18  2  0  0  0  0
 20 14  1  0  0  0  0
 20 19  1  0  0  0  0
 21 20  2  0  0  0  0
 22 23  1  0  0  0  0
 22 28  1  0  0  0  0
 23 29  1  0  0  0  0
 24  1  1  0  0  0  0
 24 23  2  0  0  0  0
 25 24  1  0  0  0  0
 26 25  2  0  0  0  0
 26 27  1  0  0  0  0
 27 22  2  0  0  0  0
 30 26  1  0  0  0  0
M  END
>  <minimizedAffinity>
-5.94753838

$$$$

 OpenBabel03262522383D

 30 33  0  0  0  0  0  0  0  0999 V2000
   37.5100   26.8340   33.8580 C   0  0  0  0  0  0  0  0  0  0  0  0
   37.7410   27.0310   32.5300 C   0  0  0  0  0  0  0  0  0  0  0  0
   37.2080   28.0330   31.7660 C   0  0  0  0  0  0  0  0  0  0  0  0
   36.3680   28.9260   32.3710 C   0  0  0  0  0  0  0  0  0  0  0  0
   36.1310   28.7320   33.7160 C   0  0  0  0  0  0  0  0  0  0  0  0
   36.6770   27.7320   34.4240 N   0  0  0  0  0  0  0  0  0  0  0  0
   38.4060   26.3380   32.0130 H   0  0  0  0  0  0  0  0  0  0  0  0
   37.4410   28.1200   30.7220 H   0  0  0  0  0  0  0  0  0  0  0  0
   35.9300   29.7300   31.7960 H   0  0  0  0  0  0  0  0  0  0  0  0
   35.2480   29.6340   34.4500 C   0  0  0  0  0  0  0  0  0  0  0  0
   33.8730   29.4360   34.3990 C   0  0  0  0  0  0  0  0  0  0  0  0
   33.4480   28.6210   33.8210 H   0  0  0  0  0  0  0  0  0  0  0  0
   32.9400   30.2220   35.0500 C   0  0  0  0  0  3  0  0  0  0  0  0
   33.3800   31.2720   35.8030 C   0  0  0  0  0  0  0  0  0  0  0  0
   32.5440   32.0870   36.4700 N   0  0  0  0  0  0  0  0  0  0  0  0
   33.0040   33.1290   37.2130 C   0  0  0  0  0  0  0  0  0  0  0  0
   32.3360   33.7860   37.7510 H   0  0  0  0  0  0  0  0  0  0  0  0
   34.3500   33.4040   37.3240 C   0  0  0  0  0  3  0  0  0  0  0  0
   35.2110   32.5700   36.6420 C   0  0  0  0  0  3  0  0  0  0  0  0
   34.7390   31.5060   35.8810 C   0  0  0  0  0  0  0  0  0  0  0  0
   35.6400   30.7020   35.2190 C   0  0  0  0  0  3  0  0  0  0  0  0
   39.5950   23.9030   34.9880 C   0  0  0  0  0  0  0  0  0  0  0  0
   39.1160   24.9160   34.1350 C   0  0  0  0  0  0  0  0  0  0  0  0
   38.0990   25.7490   34.6300 C   0  0  0  0  0  0  0  0  0  0  0  0
   37.6510   25.5290   35.8800 N   0  0  0  0  0  0  0  0  0  0  0  0
   38.1200   24.5540   36.6860 C   0  0  0  0  0  0  0  0  0  0  0  0
   39.0880   23.7500   36.2340 N   0  0  0  0  0  0  0  0  0  0  0  0
   40.3700   23.2710   34.6080 H   0  0  0  0  0  0  0  0  0  0  0  0
   39.4690   25.0960   33.1400 H   0  0  0  0  0  0  0  0  0  0  0  0
   37.6470   24.5180   37.6570 H   0  0  0  0  0  0  0  0  0  0  0  0
  1  6  1  0  0  0  0
  1 24  1  0  0  0  0
  2  1  2  0  0  0  0
  3  4  2  0  0  0  0
  3  2  1  0  0  0  0
  4  5  1  0  0  0  0
  5  6  2  0  0  0  0
  5 10  1  0  0  0  0
  7  2  1  0  0  0  0
  8  3  1  0  0  0  0
  9  4  1  0  0  0  0
 10 21  1  0  0  0  0
 11 10  2  0  0  0  0
 11 13  1  0  0  0  0
 12 11  1  0  0  0  0
 13 14  2  0  0  0  0
 14 20  1  0  0  0  0
 14 15  1  0  0  0  0
 15 16  2  0  0  0  0
 16 18  1  0  0  0  0
 16 17  1  0  0  0  0
 19 18  2  0  0  0  0
 20 19  1  0  0  0  0
 21 20  2  0  0  0  0
 22 27  1  0  0  0  0
 23 24  1  0  0  0  0
 23 22  2  0  0  0  0
 24 25  2  0  0  0  0
 25 26  1  0  0  0  0
 26 30  1  0  0  0  0
 27 26  2  0  0  0  0
 28 22  1  0  0  0  0
 29 23  1  0  0  0  0
M  END
>  <minimizedAffinity>
-5.87772417

$$$$

 OpenBabel03262522383D

 30 33  0  0  0  0  0  0  0  0999 V2000
   36.0760   28.5960   32.9980 C   0  0  0  0  0  0  0  0  0  0  0  0
   36.6550   28.8380   31.7900 C   0  0  0  0  0  0  0  0  0  0  0  0
   37.7720   28.2180   31.3000 C   0  0  0  0  0  0  0  0  0  0  0  0
   38.3730   27.2680   32.0770 C   0  0  0  0  0  0  0  0  0  0  0  0
   37.7910   27.0190   33.3020 C   0  0  0  0  0  0  0  0  0  0  0  0
   36.6940   27.6540   33.7410 N   0  0  0  0  0  0  0  0  0  0  0  0
   36.2020   29.5900   31.1420 H   0  0  0  0  0  0  0  0  0  0  0  0
   38.1660   28.4670   30.3330 H   0  0  0  0  0  0  0  0  0  0  0  0
   39.2570   26.7590   31.7200 H   0  0  0  0  0  0  0  0  0  0  0  0
   38.3610   26.0210   34.2040 C   0  0  0  0  0  0  0  0  0  0  0  0
   39.4860   25.3080   33.8110 C   0  0  0  0  0  0  0  0  0  0  0  0
   39.9470   25.4820   32.8430 H   0  0  0  0  0  0  0  0  0  0  0  0
   40.1130   24.3410   34.5760 C   0  0  0  0  0  3  0  0  0  0  0  0
   39.6060   24.0530   35.8090 C   0  0  0  0  0  0  0  0  0  0  0  0
   40.1520   23.1290   36.6200 N   0  0  0  0  0  0  0  0  0  0  0  0
   39.6290   22.8570   37.8460 C   0  0  0  0  0  0  0  0  0  0  0  0
   40.0650   22.1160   38.5000 H   0  0  0  0  0  0  0  0  0  0  0  0
   38.5150   23.5120   38.3230 C   0  0  0  0  0  3  0  0  0  0  0  0
   37.9520   24.4620   37.4940 C   0  0  0  0  0  3  0  0  0  0  0  0
   38.4870   24.7380   36.2410 C   0  0  0  0  0  0  0  0  0  0  0  0
   37.8880   25.6950   35.4520 C   0  0  0  0  0  3  0  0  0  0  0  0
   33.6530   30.6900   34.9890 C   0  0  0  0  0  0  0  0  0  0  0  0
   34.8740   30.0820   34.6360 C   0  0  0  0  0  0  0  0  0  0  0  0
   34.8860   29.2850   33.4800 C   0  0  0  0  0  0  0  0  0  0  0  0
   33.7400   29.1560   32.7860 N   0  0  0  0  0  0  0  0  0  0  0  0
   32.5780   29.7450   33.1370 C   0  0  0  0  0  0  0  0  0  0  0  0
   32.5440   30.5080   34.2340 N   0  0  0  0  0  0  0  0  0  0  0  0
   33.6480   31.2980   35.8700 H   0  0  0  0  0  0  0  0  0  0  0  0
   35.7890   30.1820   35.1840 H   0  0  0  0  0  0  0  0  0  0  0  0
   31.7560   29.5330   32.4670 H   0  0  0  0  0  0  0  0  0  0  0  0
  1 24  1  0  0  0  0
  1  6  1  0  0  0  0
  2  1  2  0  0  0  0
  3  2  1  0  0  0  0
  3  4  2  0  0  0  0
  4  5  1  0  0  0  0
  5  6  2  0  0  0  0
  5 10  1  0  0  0  0
  7  2  1  0  0  0  0
  8  3  1  0  0  0  0
  9  4  1  0  0  0  0
 10 21  1  0  0  0  0
 11 10  2  0  0  0  0
 11 13  1  0  0  0  0
 12 11  1  0  0  0  0
 13 14  2  0  0  0  0
 14 20  1  0  0  0  0
 14 15  1  0  0  0  0
 15 16  2  0  0  0  0
 16 18  1  0  0  0  0
 16 17  1  0  0  0  0
 19 18  2  0  0  0  0
 20 19  1  0  0  0  0
 21 20  2  0  0  0  0
 22 28  1  0  0  0  0
 23 22  1  0  0  0  0
 23 29  1  0  0  0  0
 24 23  2  0  0  0  0
 25 26  2  0  0  0  0
 25 24  1  0  0  0  0
 26 27  1  0  0  0  0
 27 22  2  0  0  0  0
 30 26  1  0  0  0  0
M  END
>  <minimizedAffinity>
-5.84530783

$$$$

 OpenBabel03262522383D

 30 33  0  0  0  0  0  0  0  0999 V2000
   36.2710   28.5420   33.9330 C   0  0  0  0  0  0  0  0  0  0  0  0
   36.5730   28.5020   32.6050 C   0  0  0  0  0  0  0  0  0  0  0  0
   37.3790   27.5790   31.9960 C   0  0  0  0  0  0  0  0  0  0  0  0
   37.9400   26.6040   32.7720 C   0  0  0  0  0  0  0  0  0  0  0  0
   37.6380   26.6390   34.1170 C   0  0  0  0  0  0  0  0  0  0  0  0
   36.8410   27.5660   34.6700 N   0  0  0  0  0  0  0  0  0  0  0  0
   36.1430   29.2650   31.9550 H   0  0  0  0  0  0  0  0  0  0  0  0
   37.5680   27.6170   30.9400 H   0  0  0  0  0  0  0  0  0  0  0  0
   38.5820   25.8590   32.3230 H   0  0  0  0  0  0  0  0  0  0  0  0
   38.1890   25.6390   35.0270 C   0  0  0  0  0  0  0  0  0  0  0  0
   37.4790   25.2850   36.1670 C   0  0  0  0  0  0  0  0  0  0  0  0
   36.5190   25.7430   36.3910 H   0  0  0  0  0  0  0  0  0  0  0  0
   37.8980   24.3540   37.1000 C   0  0  0  0  0  3  0  0  0  0  0  0
   39.0930   23.7250   36.9040 C   0  0  0  0  0  0  0  0  0  0  0  0
   39.5780   22.8060   37.7590 N   0  0  0  0  0  0  0  0  0  0  0  0
   40.7730   22.1920   37.5450 C   0  0  0  0  0  0  0  0  0  0  0  0
   41.1660   21.4540   38.2280 H   0  0  0  0  0  0  0  0  0  0  0  0
   41.5490   22.4770   36.4420 C   0  0  0  0  0  3  0  0  0  0  0  0
   41.0550   23.4190   35.5630 C   0  0  0  0  0  3  0  0  0  0  0  0
   39.8340   24.0460   35.7830 C   0  0  0  0  0  0  0  0  0  0  0  0
   39.3850   24.9790   34.8760 C   0  0  0  0  0  3  0  0  0  0  0  0
   34.9520   31.5560   35.7750 C   0  0  0  0  0  0  0  0  0  0  0  0
   35.8990   30.6600   35.2390 C   0  0  0  0  0  0  0  0  0  0  0  0
   35.4080   29.5480   34.5370 C   0  0  0  0  0  0  0  0  0  0  0  0
   34.0750   29.4090   34.4210 N   0  0  0  0  0  0  0  0  0  0  0  0
   33.1800   30.2740   34.9400 C   0  0  0  0  0  0  0  0  0  0  0  0
   33.6260   31.3420   35.6120 N   0  0  0  0  0  0  0  0  0  0  0  0
   35.3300   32.4030   36.3090 H   0  0  0  0  0  0  0  0  0  0  0  0
   36.9610   30.7670   35.3290 H   0  0  0  0  0  0  0  0  0  0  0  0
   32.1490   30.0100   34.7530 H   0  0  0  0  0  0  0  0  0  0  0  0
  1 24  1  0  0  0  0
  1  6  1  0  0  0  0
  2  1  2  0  0  0  0
  3  2  1  0  0  0  0
  3  4  2  0  0  0  0
  4  5  1  0  0  0  0
  5  6  2  0  0  0  0
  5 10  1  0  0  0  0
  7  2  1  0  0  0  0
  8  3  1  0  0  0  0
  9  4  1  0  0  0  0
 10 11  1  0  0  0  0
 11 12  1  0  0  0  0
 11 13  2  0  0  0  0
 14 13  1  0  0  0  0
 14 15  1  0  0  0  0
 16 15  2  0  0  0  0
 16 17  1  0  0  0  0
 18 16  1  0  0  0  0
 19 20  1  0  0  0  0
 19 18  2  0  0  0  0
 20 14  2  0  0  0  0
 21 10  2  0  0  0  0
 21 20  1  0  0  0  0
 22 28  1  0  0  0  0
 23 29  1  0  0  0  0
 23 22  2  0  0  0  0
 24 23  1  0  0  0  0
 25 24  2  0  0  0  0
 25 26  1  0  0  0  0
 26 27  2  0  0  0  0
 27 22  1  0  0  0  0
 30 26  1  0  0  0  0
M  END
>  <minimizedAffinity>
-5.81767702

$$$$

 OpenBabel03262522383D

 30 33  0  0  0  0  0  0  0  0999 V2000
   39.9690   22.9820   36.7720 C   0  0  0  0  0  0  0  0  0  0  0  0
   39.3070   23.0350   37.9610 C   0  0  0  0  0  0  0  0  0  0  0  0
   38.2920   23.8970   38.2730 C   0  0  0  0  0  0  0  0  0  0  0  0
   37.8930   24.7930   37.3210 C   0  0  0  0  0  0  0  0  0  0  0  0
   38.5600   24.7440   36.1140 C   0  0  0  0  0  0  0  0  0  0  0  0
   39.5510   23.8790   35.8540 N   0  0  0  0  0  0  0  0  0  0  0  0
   39.5980   22.3340   38.7450 H   0  0  0  0  0  0  0  0  0  0  0  0
   37.8200   23.8740   39.2370 H   0  0  0  0  0  0  0  0  0  0  0  0
   37.0940   25.4890   37.5350 H   0  0  0  0  0  0  0  0  0  0  0  0
   38.2060   25.6610   35.0340 C   0  0  0  0  0  0  0  0  0  0  0  0
   37.3810   26.7460   35.3020 C   0  0  0  0  0  0  0  0  0  0  0  0
   36.9960   26.9210   36.3020 H   0  0  0  0  0  0  0  0  0  0  0  0
   36.9770   27.6790   34.3640 C   0  0  0  0  0  3  0  0  0  0  0  0
   37.4110   27.5420   33.0770 C   0  0  0  0  0  0  0  0  0  0  0  0
   37.0690   28.4030   32.1010 N   0  0  0  0  0  0  0  0  0  0  0  0
   37.5120   28.2470   30.8240 C   0  0  0  0  0  0  0  0  0  0  0  0
   37.2400   28.9350   30.0380 H   0  0  0  0  0  0  0  0  0  0  0  0
   38.3340   27.2010   30.4630 C   0  0  0  0  0  3  0  0  0  0  0  0
   38.6870   26.3170   31.4610 C   0  0  0  0  0  3  0  0  0  0  0  0
   38.2330   26.4770   32.7660 C   0  0  0  0  0  0  0  0  0  0  0  0
   38.6140   25.5660   33.7260 C   0  0  0  0  0  3  0  0  0  0  0  0
   42.7320   20.4330   37.0640 C   0  0  0  0  0  0  0  0  0  0  0  0
   41.7040   21.3020   37.4790 C   0  0  0  0  0  0  0  0  0  0  0  0
   41.0470   22.0450   36.4850 C   0  0  0  0  0  0  0  0  0  0  0  0
   41.4370   21.8800   35.2090 N   0  0  0  0  0  0  0  0  0  0  0  0
   42.4240   21.0440   34.8250 C   0  0  0  0  0  0  0  0  0  0  0  0
   43.0620   20.3260   35.7550 N   0  0  0  0  0  0  0  0  0  0  0  0
   43.2290   19.8670   37.8240 H   0  0  0  0  0  0  0  0  0  0  0  0
   41.3900   21.4370   38.4950 H   0  0  0  0  0  0  0  0  0  0  0  0
   42.6070   21.0350   33.7600 H   0  0  0  0  0  0  0  0  0  0  0  0
  1  2  1  0  0  0  0
  2  3  2  0  0  0  0
  2  7  1  0  0  0  0
  3  8  1  0  0  0  0
  4  9  1  0  0  0  0
  4  3  1  0  0  0  0
  5  4  2  0  0  0  0
  6  5  1  0  0  0  0
  6  1  2  0  0  0  0
 10 11  1  0  0  0  0
 10  5  1  0  0  0  0
 11 12  1  0  0  0  0
 13 11  2  0  0  0  0
 14 13  1  0  0  0  0
 15 14  2  0  0  0  0
 16 15  1  0  0  0  0
 17 16  1  0  0  0  0
 18 16  2  0  0  0  0
 18 19  1  0  0  0  0
 19 20  2  0  0  0  0
 20 14  1  0  0  0  0
 20 21  1  0  0  0  0
 21 10  2  0  0  0  0
 22 23  1  0  0  0  0
 22 28  1  0  0  0  0
 23 29  1  0  0  0  0
 24  1  1  0  0  0  0
 24 23  2  0  0  0  0
 25 24  1  0  0  0  0
 26 25  2  0  0  0  0
 26 27  1  0  0  0  0
 27 22  2  0  0  0  0
 30 26  1  0  0  0  0
M  END
>  <minimizedAffinity>
-5.80044174

$$$$

 OpenBabel03262522383D

 30 33  0  0  0  0  0  0  0  0999 V2000
   35.5330   29.9170   34.2370 C   0  0  0  0  0  0  0  0  0  0  0  0
   35.5840   30.2240   32.9110 C   0  0  0  0  0  0  0  0  0  0  0  0
   36.1670   29.4620   31.9360 C   0  0  0  0  0  0  0  0  0  0  0  0
   36.7540   28.2840   32.3050 C   0  0  0  0  0  0  0  0  0  0  0  0
   36.7050   27.9680   33.6470 C   0  0  0  0  0  0  0  0  0  0  0  0
   36.1220   28.7490   34.5680 N   0  0  0  0  0  0  0  0  0  0  0  0
   35.1250   31.1570   32.5800 H   0  0  0  0  0  0  0  0  0  0  0  0
   36.1630   29.7750   30.9090 H   0  0  0  0  0  0  0  0  0  0  0  0
   37.2230   27.6580   31.5590 H   0  0  0  0  0  0  0  0  0  0  0  0
   37.3060   26.7310   34.1380 C   0  0  0  0  0  0  0  0  0  0  0  0
   37.7580   26.6640   35.4500 C   0  0  0  0  0  0  0  0  0  0  0  0
   37.6710   27.5180   36.1140 H   0  0  0  0  0  0  0  0  0  0  0  0
   38.3420   25.5500   36.0260 C   0  0  0  0  0  3  0  0  0  0  0  0
   38.4940   24.4260   35.2680 C   0  0  0  0  0  0  0  0  0  0  0  0
   39.0500   23.2980   35.7470 N   0  0  0  0  0  0  0  0  0  0  0  0
   39.1930   22.1890   34.9730 C   0  0  0  0  0  0  0  0  0  0  0  0
   39.6400   21.2810   35.3540 H   0  0  0  0  0  0  0  0  0  0  0  0
   38.7750   22.1590   33.6600 C   0  0  0  0  0  3  0  0  0  0  0  0
   38.2030   23.3130   33.1660 C   0  0  0  0  0  3  0  0  0  0  0  0
   38.0590   24.4470   33.9580 C   0  0  0  0  0  0  0  0  0  0  0  0
   37.4820   25.5750   33.4170 C   0  0  0  0  0  3  0  0  0  0  0  0
   34.8840   32.4150   36.9850 C   0  0  0  0  0  0  0  0  0  0  0  0
   35.6190   31.6580   36.0530 C   0  0  0  0  0  0  0  0  0  0  0  0
   34.9020   30.7630   35.2410 C   0  0  0  0  0  0  0  0  0  0  0  0
   33.5690   30.6880   35.4040 N   0  0  0  0  0  0  0  0  0  0  0  0
   32.8780   31.4200   36.3020 C   0  0  0  0  0  0  0  0  0  0  0  0
   33.5410   32.2790   37.0840 N   0  0  0  0  0  0  0  0  0  0  0  0
   35.4340   33.0970   37.6010 H   0  0  0  0  0  0  0  0  0  0  0  0
   36.6800   31.7140   35.9190 H   0  0  0  0  0  0  0  0  0  0  0  0
   31.8130   31.2340   36.2990 H   0  0  0  0  0  0  0  0  0  0  0  0
  1  6  1  0  0  0  0
  1 24  1  0  0  0  0
  2  1  2  0  0  0  0
  3  4  2  0  0  0  0
  3  2  1  0  0  0  0
  4  5  1  0  0  0  0
  5 10  1  0  0  0  0
  5  6  2  0  0  0  0
  7  2  1  0  0  0  0
  8  3  1  0  0  0  0
  9  4  1  0  0  0  0
 10 11  1  0  0  0  0
 11 13  2  0  0  0  0
 11 12  1  0  0  0  0
 14 15  1  0  0  0  0
 14 13  1  0  0  0  0
 16 17  1  0  0  0  0
 16 15  2  0  0  0  0
 18 16  1  0  0  0  0
 19 18  2  0  0  0  0
 19 20  1  0  0  0  0
 20 14  2  0  0  0  0
 21 20  1  0  0  0  0
 21 10  2  0  0  0  0
 22 27  1  0  0  0  0
 22 28  1  0  0  0  0
 23 22  2  0  0  0  0
 24 25  2  0  0  0  0
 24 23  1  0  0  0  0
 25 26  1  0  0  0  0
 26 27  2  0  0  0  0
 29 23  1  0  0  0  0
 30 26  1  0  0  0  0
M  END
>  <minimizedAffinity>
-5.75694418

$$$$
