
 OpenBabel03272509223D

 49 54  0  0  0  0  0  0  0  0999 V2000
   40.3800   30.7810   43.6910 C   0  0  0  0  0  0  0  0  0  0  0  0
   40.1680   31.8370   44.5540 C   0  0  0  0  0  0  0  0  0  0  0  0
   39.6170   33.0240   44.0560 C   0  0  0  0  0  0  0  0  0  0  0  0
   39.2870   33.1370   42.7050 C   0  0  0  0  0  0  0  0  0  0  0  0
   38.7610   34.0980   41.9290 N   0  0  0  0  0  0  0  0  0  0  0  0
   38.6480   33.6800   40.6620 C   0  0  0  0  0  0  0  0  0  0  0  0
   39.1200   32.4010   40.6290 N   0  0  0  0  0  0  0  0  0  0  0  0
   39.5120   32.0630   41.8730 C   0  0  0  0  0  0  0  0  0  0  0  0
   40.0550   30.8860   42.3510 C   0  0  0  0  0  0  0  0  0  0  0  0
   40.8070   29.9280   44.1900 H   0  0  0  0  0  0  0  0  0  0  0  0
   39.3970   33.9250   44.6100 H   0  0  0  0  0  0  0  0  0  0  0  0
   38.4780   35.0540   42.2850 H   0  0  0  0  0  0  0  0  0  0  0  0
   38.2550   34.2850   39.8800 H   0  0  0  0  0  0  0  0  0  0  0  0
   40.3200   29.7110   41.5230 C   0  0  0  0  0  0  0  0  0  0  0  0
   39.5250   28.5820   41.6820 C   0  0  0  0  0  0  0  0  0  0  0  0
   38.7110   28.5430   42.4030 H   0  0  0  0  0  0  0  0  0  0  0  0
   39.7560   27.4450   40.9050 C   0  0  0  0  0  3  0  0  0  0  0  0
   40.7660   27.4090   39.9680 C   0  0  0  0  0  0  0  0  0  0  0  0
   41.0160   26.3280   39.2000 N   0  0  0  0  0  0  0  0  0  0  0  0
   41.9990   26.2750   38.2820 C   0  0  0  0  0  0  0  0  0  0  0  0
   42.1110   25.3610   37.7220 H   0  0  0  0  0  0  0  0  0  0  0  0
   42.8070   27.3900   38.1040 C   0  0  0  0  0  3  0  0  0  0  0  0
   42.5740   28.5270   38.8840 C   0  0  0  0  0  3  0  0  0  0  0  0
   41.5400   28.5370   39.8280 C   0  0  0  0  0  0  0  0  0  0  0  0
   41.3420   29.6660   40.5720 C   0  0  0  0  0  3  0  0  0  0  0  0
   40.4120   31.9530   45.9010 O   0  0  0  0  0  0  0  0  0  0  0  0
   38.4860   31.2460   47.1800 C   0  0  0  0  0  0  0  0  0  0  0  0
   37.5400   31.3500   48.1810 C   0  0  0  0  0  0  0  0  0  0  0  0
   37.6920   32.5050   48.9820 C   0  0  0  0  0  0  0  0  0  0  0  0
   38.7140   33.4320   48.7560 C   0  0  0  0  0  0  0  0  0  0  0  0
   39.6250   33.2120   47.6950 C   0  0  0  0  0  0  0  0  0  0  0  0
   39.4910   32.0870   46.9010 C   0  0  0  0  0  0  0  0  0  0  0  0
   36.9790   32.6510   49.7900 H   0  0  0  0  0  0  0  0  0  0  0  0
   38.8330   34.3000   49.3550 H   0  0  0  0  0  0  0  0  0  0  0  0
   40.4020   33.9440   47.5460 H   0  0  0  0  0  0  0  0  0  0  0  0
   35.3740   30.3920   47.5790 C   0  0  0  0  0  0  0  0  0  0  0  0
   36.5000   30.4150   48.4170 C   0  0  0  0  0  0  0  0  0  0  0  0
   36.5360   29.4930   49.4630 C   0  0  0  0  0  0  0  0  0  0  0  0
   35.5050   28.6400   49.6150 N   0  0  0  0  0  0  0  0  0  0  0  0
   34.4310   28.6430   48.7870 C   0  0  0  0  0  0  0  0  0  0  0  0
   34.3800   29.5210   47.7790 N   0  0  0  0  0  0  0  0  0  0  0  0
   35.3520   31.1040   46.7740 H   0  0  0  0  0  0  0  0  0  0  0  0
   33.6460   27.9180   48.9870 H   0  0  0  0  0  0  0  0  0  0  0  0
   37.7060   29.4650   50.3920 C   0  0  0  0  0  0  0  0  0  0  0  0
   37.7900   30.4200   50.9600 H   0  0  0  0  0  0  0  0  0  0  0  0
   38.6320   29.3820   49.7770 H   0  0  0  0  0  0  0  0  0  0  0  0
   37.5840   28.6000   51.0690 H   0  0  0  0  0  0  0  0  0  0  0  0
   38.4130   30.1300   46.3350 O   0  0  0  0  0  0  0  0  0  0  0  0
   37.5000   29.7360   46.1060 H   0  0  0  0  0  0  0  0  0  0  0  0
  1 10  1  0  0  0  0
  1  2  1  0  0  0  0
  2 26  1  0  0  0  0
  3  2  2  0  0  0  0
  3 11  1  0  0  0  0
  4  3  1  0  0  0  0
  5 12  1  0  0  0  0
  5  4  1  0  0  0  0
  6  5  1  0  0  0  0
  7  6  2  0  0  0  0
  7  8  1  0  0  0  0
  8  9  1  0  0  0  0
  8  4  2  0  0  0  0
  9  1  2  0  0  0  0
 13  6  1  0  0  0  0
 14 15  1  0  0  0  0
 14  9  1  0  0  0  0
 15 16  1  0  0  0  0
 17 15  2  0  0  0  0
 18 17  1  0  0  0  0
 19 18  2  0  0  0  0
 20 19  1  0  0  0  0
 21 20  1  0  0  0  0
 22 20  2  0  0  0  0
 22 23  1  0  0  0  0
 23 24  2  0  0  0  0
 24 18  1  0  0  0  0
 24 25  1  0  0  0  0
 25 14  2  0  0  0  0
 26 32  1  0  0  0  0
 27 28  1  0  0  0  0
 28 37  1  0  0  0  0
 28 29  2  0  0  0  0
 29 33  1  0  0  0  0
 30 29  1  0  0  0  0
 30 34  1  0  0  0  0
 31 30  2  0  0  0  0
 32 27  2  0  0  0  0
 32 31  1  0  0  0  0
 35 31  1  0  0  0  0
 36 41  2  0  0  0  0
 36 37  1  0  0  0  0
 37 38  2  0  0  0  0
 38 39  1  0  0  0  0
 38 44  1  0  0  0  0
 40 43  1  0  0  0  0
 40 39  2  0  0  0  0
 41 40  1  0  0  0  0
 42 36  1  0  0  0  0
 44 45  1  0  0  0  0
 44 47  1  0  0  0  0
 46 44  1  0  0  0  0
 48 27  1  0  0  0  0
 49 48  1  0  0  0  0
M  END
>  <minimizedAffinity>
-7.59036398

>  <minimizedRMSD>
1.61091423

$$$$
