
 OpenBabel03262521083D

 48 51  0  0  1  0  0  0  0  0999 V2000
   37.2850   31.4490   45.7070 C   0  0  2  0  0  0  0  0  0  0  0  0
   38.2150   30.9700   44.6930 C   0  0  0  0  0  0  0  0  0  0  0  0
   39.5410   30.4880   45.2830 C   0  0  0  0  0  0  0  0  0  0  0  0
   40.2220   31.5420   46.0880 C   0  0  0  0  0  0  0  0  0  0  0  0
   39.2800   32.4170   46.8840 C   0  0  0  0  0  0  0  0  0  0  0  0
   37.9210   31.7460   47.0390 C   0  0  2  0  0  0  0  0  0  0  0  0
   36.8410   32.4260   45.3440 H   0  0  0  0  0  0  0  0  0  0  0  0
   38.5430   31.8130   44.0030 H   0  0  0  0  0  0  0  0  0  0  0  0
   37.9210   30.1710   44.0050 H   0  0  0  0  0  0  0  0  0  0  0  0
   39.4120   29.5200   45.7650 H   0  0  0  0  0  0  0  0  0  0  0  0
   40.1810   30.2970   44.3730 H   0  0  0  0  0  0  0  0  0  0  0  0
   40.8260   32.1960   45.4070 H   0  0  0  0  0  0  0  0  0  0  0  0
   40.9720   31.0360   46.7310 H   0  0  0  0  0  0  0  0  0  0  0  0
   39.2040   33.4030   46.4200 H   0  0  0  0  0  0  0  0  0  0  0  0
   39.7000   32.4800   47.9230 H   0  0  0  0  0  0  0  0  0  0  0  0
   37.2740   32.5130   47.5340 H   0  0  0  0  0  0  0  0  0  0  0  0
   36.1220   30.5960   45.9650 C   0  0  0  0  0  0  0  0  0  0  0  0
   35.7780   29.7540   44.9010 C   0  0  0  0  0  0  0  0  0  0  0  0
   34.6910   28.9140   45.0940 C   0  0  0  0  0  0  0  0  0  0  0  0
   34.0220   28.9440   46.2830 N   0  0  0  0  0  0  0  0  0  0  0  0
   34.3870   29.7710   47.2800 C   0  0  0  0  0  0  0  0  0  0  0  0
   35.4070   30.5510   47.0830 N   0  0  0  0  0  0  0  0  0  0  0  0
   36.1470   29.5790   43.9130 H   0  0  0  0  0  0  0  0  0  0  0  0
   34.2580   28.2010   44.4360 H   0  0  0  0  0  0  0  0  0  0  0  0
   33.8960   29.8370   48.2370 H   0  0  0  0  0  0  0  0  0  0  0  0
   38.0950   30.7080   47.9540 N   0  0  0  0  0  0  0  0  0  0  0  0
   38.9950   30.2070   47.9360 H   0  0  0  0  0  0  0  0  0  0  0  0
   37.6730   31.0040   49.5720 S   0  0  1  0  0  0  0  0  0  0  0  0
   38.8740   30.5390   50.3930 O   0  0  0  0  0  0  0  0  0  0  0  0
   39.4460   29.7750   50.0860 H   0  0  0  0  0  0  0  0  0  0  0  0
   37.4300   32.4250   49.8700 O   0  0  0  0  0  0  0  0  0  0  0  0
   36.5880   33.4500   50.1120 C   0  0  0  0  0  0  0  0  0  0  0  0
   35.7430   33.9220   49.1310 C   0  0  0  0  0  0  0  0  0  0  0  0
   35.7740   33.4480   48.1690 H   0  0  0  0  0  0  0  0  0  0  0  0
   34.8740   34.9630   49.3460 C   0  0  0  0  0  3  0  0  0  0  0  0
   34.8920   35.5240   50.6120 C   0  0  0  0  0  0  0  0  0  0  0  0
   34.0450   36.5460   50.8340 N   0  0  0  0  0  0  0  0  0  0  0  0
   34.0160   37.1360   52.0600 C   0  0  0  0  0  0  0  0  0  0  0  0
   33.3260   37.9600   52.2200 H   0  0  0  0  0  0  0  0  0  0  0  0
   34.8130   36.7560   53.1230 C   0  0  0  0  0  3  0  0  0  0  0  0
   35.6760   35.6970   52.8600 C   0  0  0  0  0  3  0  0  0  0  0  0
   35.7240   35.0800   51.6260 C   0  0  0  0  0  0  0  0  0  0  0  0
   36.5860   34.0260   51.3670 C   0  0  0  0  0  3  0  0  0  0  0  0
   36.3850   30.0620   50.0850 O   0  0  0  0  0  0  0  0  0  0  0  0
   36.5950   29.4990   51.3310 C   0  0  0  0  0  0  0  0  0  0  0  0
   37.5360   28.5090   51.2430 F   0  0  0  0  0  0  0  0  0  0  0  0
   37.1220   30.4810   52.1420 F   0  0  0  0  0  0  0  0  0  0  0  0
   35.4260   29.0760   51.9520 F   0  0  0  0  0  0  0  0  0  0  0  0
  1  7  1  6  0  0  0
  1 17  1  0  0  0  0
  1  6  1  0  0  0  0
  2  3  1  0  0  0  0
  2  1  1  0  0  0  0
  3 10  1  0  0  0  0
  3  4  1  0  0  0  0
  4 13  1  0  0  0  0
  4  5  1  0  0  0  0
  5  6  1  0  0  0  0
  5 15  1  0  0  0  0
  6 16  1  1  0  0  0
  6 26  1  0  0  0  0
  8  2  1  0  0  0  0
  9  2  1  0  0  0  0
 11  3  1  0  0  0  0
 12  4  1  0  0  0  0
 14  5  1  0  0  0  0
 17 22  1  0  0  0  0
 18 19  1  0  0  0  0
 18 17  2  0  0  0  0
 19 20  2  0  0  0  0
 20 21  1  0  0  0  0
 21 25  1  0  0  0  0
 22 21  2  0  0  0  0
 23 18  1  0  0  0  0
 24 19  1  0  0  0  0
 26 28  1  0  0  0  0
 27 26  1  0  0  0  0
 28 31  1  1  0  0  0
 28 44  1  0  0  0  0
 28 29  1  0  0  0  0
 30 29  1  0  0  0  0
 31 32  1  0  0  0  0
 32 43  1  0  0  0  0
 33 35  1  0  0  0  0
 33 32  2  0  0  0  0
 34 33  1  0  0  0  0
 35 36  2  0  0  0  0
 36 37  1  0  0  0  0
 36 42  1  0  0  0  0
 37 38  2  0  0  0  0
 38 39  1  0  0  0  0
 38 40  1  0  0  0  0
 41 40  2  0  0  0  0
 42 41  1  0  0  0  0
 43 42  2  0  0  0  0
 44 45  1  0  0  0  0
 45 48  1  0  0  0  0
 45 47  1  0  0  0  0
 46 45  1  0  0  0  0
M  END
>  <minimizedAffinity>
7.05566454

>  <minimizedRMSD>
1.01712871

$$$$
