
 OpenBabel03262523213D

 44 48  0  0  1  0  0  0  0  0999 V2000
   36.9130   29.1200   50.2070 C   0  0  0  0  0  0  0  0  0  0  0  0
   36.2760   30.3000   49.7960 C   0  0  0  0  0  0  0  0  0  0  0  0
   36.8600   31.4150   50.3810 C   0  0  0  0  0  0  0  0  0  0  0  0
   37.9320   31.4050   51.2480 C   0  0  0  0  0  0  0  0  0  0  0  0
   38.4960   30.1620   51.5920 C   0  0  0  0  0  0  0  0  0  0  0  0
   37.9910   28.9790   51.0730 C   0  0  0  0  0  0  0  0  0  0  0  0
   36.5530   32.4290   50.3350 H   0  0  0  0  0  0  0  0  0  0  0  0
   38.4400   32.1960   51.7330 H   0  0  0  0  0  0  0  0  0  0  0  0
   39.3460   30.0420   52.2700 H   0  0  0  0  0  0  0  0  0  0  0  0
   38.5710   32.3940   46.5940 C   0  0  0  0  0  0  0  0  0  0  0  0
   39.2770   31.5130   45.7820 C   0  0  0  0  0  0  0  0  0  0  0  0
   38.7320   30.2650   45.5330 C   0  0  0  0  0  0  0  0  0  0  0  0
   37.5370   29.9470   46.0880 N   0  0  0  0  0  0  0  0  0  0  0  0
   36.8670   30.7670   46.8510 C   0  0  0  0  0  0  0  0  0  0  0  0
   37.4290   31.9290   47.0500 N   0  0  0  0  0  0  0  0  0  0  0  0
   35.6240   30.4000   47.4030 N   0  0  0  0  0  0  0  0  0  0  0  0
   34.4810   30.0020   46.5740 C   0  0  0  0  0  0  0  0  0  0  0  0
   33.4390   29.5980   47.5260 C   0  0  0  0  0  0  0  0  0  0  0  0
   34.1820   29.3880   48.8460 C   0  0  0  0  0  0  0  0  0  0  0  0
   35.2300   30.3930   48.8210 C   0  0  1  0  0  0  0  0  0  0  0  0
   38.9320   33.3700   46.8260 H   0  0  0  0  0  0  0  0  0  0  0  0
   40.2320   31.7950   45.3520 H   0  0  0  0  0  0  0  0  0  0  0  0
   39.3080   29.5960   44.8920 H   0  0  0  0  0  0  0  0  0  0  0  0
   34.1870   30.9110   46.0080 H   0  0  0  0  0  0  0  0  0  0  0  0
   34.7710   29.2430   45.8230 H   0  0  0  0  0  0  0  0  0  0  0  0
   32.6690   30.4150   47.6000 H   0  0  0  0  0  0  0  0  0  0  0  0
   32.8780   28.7210   47.1850 H   0  0  0  0  0  0  0  0  0  0  0  0
   34.6140   28.4170   48.5570 H   0  0  0  0  0  0  0  0  0  0  0  0
   33.3660   29.4920   49.5220 H   0  0  0  0  0  0  0  0  0  0  0  0
   34.8500   31.4620   48.8600 H   0  0  0  0  0  0  0  0  0  0  0  0
   38.5810   27.7030   51.4330 C   0  0  0  0  0  0  0  0  0  0  0  0
   39.0400   27.0090   50.3080 C   0  0  0  0  0  0  0  0  0  0  0  0
   38.9800   27.3540   49.2760 H   0  0  0  0  0  0  0  0  0  0  0  0
   39.6370   25.7680   50.4180 C   0  0  0  0  0  3  0  0  0  0  0  0
   39.7780   25.2120   51.6730 C   0  0  0  0  0  0  0  0  0  0  0  0
   40.3580   24.0000   51.8210 N   0  0  0  0  0  0  0  0  0  0  0  0
   40.5130   23.4220   53.0270 C   0  0  0  0  0  0  0  0  0  0  0  0
   40.9850   22.4680   52.9930 H   0  0  0  0  0  0  0  0  0  0  0  0
   40.0540   24.1150   54.1530 C   0  0  0  0  0  3  0  0  0  0  0  0
   39.4560   25.3630   54.0120 C   0  0  0  0  0  3  0  0  0  0  0  0
   39.3130   25.9230   52.7600 C   0  0  0  0  0  0  0  0  0  0  0  0
   38.7130   27.1630   52.6780 C   0  0  0  0  0  3  0  0  0  0  0  0
   35.8940   26.8950   49.4020 N   0  0  0  0  0  0  0  0  0  0  0  0
   36.3510   27.8660   49.7540 C   0  0  0  0  0  0  0  0  0  0  0  0
  1  6  1  0  0  0  0
  2  1  2  0  0  0  0
  2  3  1  0  0  0  0
  3  4  2  0  0  0  0
  4  5  1  0  0  0  0
  4  8  1  0  0  0  0
  5  9  1  0  0  0  0
  6 31  1  0  0  0  0
  6  5  2  0  0  0  0
  7  3  1  0  0  0  0
 10 21  1  0  0  0  0
 10 15  1  0  0  0  0
 11 10  2  0  0  0  0
 12 11  1  0  0  0  0
 12 13  2  0  0  0  0
 13 14  1  0  0  0  0
 14 15  2  0  0  0  0
 14 16  1  0  0  0  0
 16 20  1  0  0  0  0
 17 16  1  0  0  0  0
 17 18  1  0  0  0  0
 18 26  1  0  0  0  0
 18 19  1  0  0  0  0
 19 29  1  0  0  0  0
 20 19  1  0  0  0  0
 20 30  1  1  0  0  0
 20  2  1  0  0  0  0
 22 11  1  0  0  0  0
 23 12  1  0  0  0  0
 24 17  1  0  0  0  0
 25 17  1  0  0  0  0
 27 18  1  0  0  0  0
 28 19  1  0  0  0  0
 31 42  1  0  0  0  0
 32 34  1  0  0  0  0
 32 31  2  0  0  0  0
 33 32  1  0  0  0  0
 34 35  2  0  0  0  0
 35 36  1  0  0  0  0
 35 41  1  0  0  0  0
 36 37  2  0  0  0  0
 37 39  1  0  0  0  0
 38 37  1  0  0  0  0
 40 39  2  0  0  0  0
 41 40  1  0  0  0  0
 42 41  2  0  0  0  0
 43 44  3  0  0  0  0
 44  1  1  0  0  0  0
M  END
>  <minimizedAffinity>
6.54832125

>  <minimizedRMSD>
2.58409357

$$$$
