
 OpenBabel03272509583D

 49 53  0  0  0  0  0  0  0  0999 V2000
   33.5070   27.6660   47.5530 C   0  0  0  0  0  0  0  0  0  0  0  0
   33.7850   26.7160   48.0080 H   0  0  0  0  0  0  0  0  0  0  0  0
   33.6230   27.5320   46.4550 H   0  0  0  0  0  0  0  0  0  0  0  0
   32.0600   27.9380   47.7840 C   0  0  0  0  0  0  0  0  0  0  0  0
   31.5140   27.4960   48.9730 C   0  0  0  0  0  0  0  0  0  0  0  0
   30.1840   27.6980   49.2830 C   0  0  0  0  0  0  0  0  0  0  0  0
   29.4060   28.3390   48.4100 N   0  0  0  0  0  0  0  0  0  0  0  0
   29.9540   28.7700   47.2450 C   0  0  0  0  0  0  0  0  0  0  0  0
   31.2450   28.5820   46.9270 N   0  0  0  0  0  0  0  0  0  0  0  0
   32.1050   26.9720   49.7100 H   0  0  0  0  0  0  0  0  0  0  0  0
   29.7390   27.3510   50.2210 H   0  0  0  0  0  0  0  0  0  0  0  0
   29.0650   29.4820   46.2870 C   0  0  0  0  0  0  0  0  0  0  0  0
   28.2210   29.9870   46.8000 H   0  0  0  0  0  0  0  0  0  0  0  0
   29.6710   30.2960   45.8360 H   0  0  0  0  0  0  0  0  0  0  0  0
   28.5630   28.5530   45.2230 C   0  0  0  0  0  0  0  0  0  0  0  0
   27.6340   27.5630   45.4630 C   0  0  0  0  0  0  0  0  0  0  0  0
   27.2430   27.4460   46.4650 H   0  0  0  0  0  0  0  0  0  0  0  0
   27.2580   26.7760   44.3890 C   0  0  0  0  0  3  0  0  0  0  0  0
   27.7860   26.9620   43.1150 C   0  0  0  0  0  0  0  0  0  0  0  0
   27.4190   26.1970   42.0810 N   0  0  0  0  0  0  0  0  0  0  0  0
   27.9600   26.4170   40.8660 C   0  0  0  0  0  0  0  0  0  0  0  0
   27.7020   25.8290   39.9850 H   0  0  0  0  0  0  0  0  0  0  0  0
   28.9010   27.4160   40.6110 C   0  0  0  0  0  3  0  0  0  0  0  0
   29.2910   28.2080   41.6500 C   0  0  0  0  0  3  0  0  0  0  0  0
   28.7250   27.9660   42.8880 C   0  0  0  0  0  0  0  0  0  0  0  0
   29.0950   28.7420   43.9450 C   0  0  0  0  0  3  0  0  0  0  0  0
   34.3940   28.7490   48.0730 C   0  0  0  0  0  0  0  0  0  0  0  0
   33.8930   29.7360   48.1210 H   0  0  0  0  0  0  0  0  0  0  0  0
   35.2460   28.8640   47.3700 H   0  0  0  0  0  0  0  0  0  0  0  0
   34.9660   28.4040   49.3200 O   0  0  0  0  0  0  0  0  0  0  0  0
   37.2860   30.1360   51.4670 C   0  0  0  0  0  0  0  0  0  0  0  0
   38.0460   30.8470   50.5040 C   0  0  0  0  0  0  0  0  0  0  0  0
   37.6950   30.6720   49.1670 C   0  0  0  0  0  0  0  0  0  0  0  0
   36.6480   29.8270   48.9190 N   0  0  0  0  0  0  0  0  0  0  0  0
   35.9500   29.1730   49.8410 C   0  0  0  0  0  0  0  0  0  0  0  0
   36.2800   29.3330   51.1370 N   0  0  0  0  0  0  0  0  0  0  0  0
   37.6140   30.3210   52.4780 H   0  0  0  0  0  0  0  0  0  0  0  0
   38.8620   31.5020   50.7260 H   0  0  0  0  0  0  0  0  0  0  0  0
   38.8820   33.3080   49.0490 F   0  0  0  0  0  0  0  0  0  0  0  0
   38.9090   32.5300   47.9750 C   0  0  0  0  0  0  0  0  0  0  0  0
   38.3510   31.3100   48.0560 C   0  0  0  0  0  0  0  0  0  0  0  0
   38.4340   30.5700   46.8700 C   0  0  0  0  0  0  0  0  0  0  0  0
   39.0310   31.0570   45.7410 C   0  0  0  0  0  0  0  0  0  0  0  0
   39.5880   32.3160   45.7130 C   0  0  0  0  0  0  0  0  0  0  0  0
   39.5160   33.0450   46.8550 C   0  0  0  0  0  0  0  0  0  0  0  0
   38.0260   29.5680   46.7910 H   0  0  0  0  0  0  0  0  0  0  0  0
   39.0920   30.4710   44.8160 H   0  0  0  0  0  0  0  0  0  0  0  0
   40.0540   32.6820   44.8140 H   0  0  0  0  0  0  0  0  0  0  0  0
   39.9490   34.0380   46.8510 H   0  0  0  0  0  0  0  0  0  0  0  0
  1  4  1  0  0  0  0
  1  2  1  0  0  0  0
  1 27  1  0  0  0  0
  3  1  1  0  0  0  0
  4  5  1  0  0  0  0
  5  6  2  0  0  0  0
  5 10  1  0  0  0  0
  6 11  1  0  0  0  0
  7  6  1  0  0  0  0
  8  7  2  0  0  0  0
  9  8  1  0  0  0  0
  9  4  2  0  0  0  0
 12 13  1  0  0  0  0
 12  8  1  0  0  0  0
 14 12  1  0  0  0  0
 15 16  1  0  0  0  0
 15 12  1  0  0  0  0
 16 17  1  0  0  0  0
 18 16  2  0  0  0  0
 19 18  1  0  0  0  0
 20 19  2  0  0  0  0
 21 20  1  0  0  0  0
 22 21  1  0  0  0  0
 23 21  2  0  0  0  0
 23 24  1  0  0  0  0
 24 25  2  0  0  0  0
 25 19  1  0  0  0  0
 25 26  1  0  0  0  0
 26 15  2  0  0  0  0
 27 28  1  0  0  0  0
 27 30  1  0  0  0  0
 29 27  1  0  0  0  0
 30 35  1  0  0  0  0
 31 37  1  0  0  0  0
 32 38  1  0  0  0  0
 32 31  2  0  0  0  0
 33 32  1  0  0  0  0
 34 33  2  0  0  0  0
 34 35  1  0  0  0  0
 35 36  2  0  0  0  0
 36 31  1  0  0  0  0
 40 41  1  0  0  0  0
 40 39  1  0  0  0  0
 41 33  1  0  0  0  0
 42 41  2  0  0  0  0
 43 42  1  0  0  0  0
 44 43  2  0  0  0  0
 44 45  1  0  0  0  0
 45 40  2  0  0  0  0
 46 42  1  0  0  0  0
 47 43  1  0  0  0  0
 48 44  1  0  0  0  0
 49 45  1  0  0  0  0
M  END
>  <minimizedAffinity>
-6.4788928

>  <minimizedRMSD>
0.33505699

$$$$
