
 OpenBabel03272510023D

 24 26  0  0  0  0  0  0  0  0999 V2000
   38.2420   31.3340   50.3490 C   0  0  0  0  0  0  0  0  0  0  0  0
   38.5330   31.3820   48.9770 C   0  0  0  0  0  0  0  0  0  0  0  0
   37.6690   30.7380   48.1050 C   0  0  0  0  0  0  0  0  0  0  0  0
   36.5940   30.0990   48.6260 N   0  0  0  0  0  0  0  0  0  0  0  0
   36.3370   30.0690   49.9560 C   0  0  0  0  0  0  0  0  0  0  0  0
   37.1570   30.6830   50.8170 N   0  0  0  0  0  0  0  0  0  0  0  0
   38.9290   31.8410   50.9890 H   0  0  0  0  0  0  0  0  0  0  0  0
   39.3960   31.8980   48.5810 H   0  0  0  0  0  0  0  0  0  0  0  0
   37.8410   30.7040   46.6790 C   0  0  0  0  0  0  0  0  0  0  0  0
   39.1130   30.7220   46.1640 C   0  0  0  0  0  0  0  0  0  0  0  0
   39.9870   30.7590   46.7960 H   0  0  0  0  0  0  0  0  0  0  0  0
   39.3920   30.6920   44.8030 C   0  0  0  0  0  3  0  0  0  0  0  0
   38.3020   30.6440   43.9280 C   0  0  0  0  0  0  0  0  0  0  0  0
   38.6030   30.6160   42.6060 N   0  0  0  0  0  0  0  0  0  0  0  0
   37.5520   30.5690   41.7410 C   0  0  0  0  0  0  0  0  0  0  0  0
   37.6170   30.5410   40.6500 H   0  0  0  0  0  0  0  0  0  0  0  0
   36.2410   30.5490   42.1890 C   0  0  0  0  0  3  0  0  0  0  0  0
   35.9490   30.5780   43.5400 C   0  0  0  0  0  3  0  0  0  0  0  0
   37.0220   30.6250   44.4060 C   0  0  0  0  0  0  0  0  0  0  0  0
   36.8100   30.6560   45.7670 C   0  0  0  0  0  3  0  0  0  0  0  0
   35.1320   29.3360   50.3980 C   0  0  0  0  0  0  0  0  0  0  0  0
   35.1560   29.0510   51.7550 F   0  0  0  0  0  0  0  0  0  0  0  0
   33.9720   30.0610   50.1790 F   0  0  0  0  0  0  0  0  0  0  0  0
   34.9630   28.1230   49.7560 F   0  0  0  0  0  0  0  0  0  0  0  0
  1  6  1  0  0  0  0
  1  7  1  0  0  0  0
  2  1  2  0  0  0  0
  3  4  2  0  0  0  0
  3  2  1  0  0  0  0
  4  5  1  0  0  0  0
  5 21  1  0  0  0  0
  5  6  2  0  0  0  0
  8  2  1  0  0  0  0
  9  3  1  0  0  0  0
 10  9  1  0  0  0  0
 10 11  1  0  0  0  0
 12 10  2  0  0  0  0
 13 19  1  0  0  0  0
 13 12  1  0  0  0  0
 14 13  2  0  0  0  0
 15 17  2  0  0  0  0
 15 14  1  0  0  0  0
 16 15  1  0  0  0  0
 17 18  1  0  0  0  0
 18 19  2  0  0  0  0
 19 20  1  0  0  0  0
 20  9  2  0  0  0  0
 21 22  1  0  0  0  0
 23 21  1  0  0  0  0
 24 21  1  0  0  0  0
M  END
>  <minimizedAffinity>
-5.94115591

>  <minimizedRMSD>
1.38882923

$$$$
