
 OpenBabel03272508483D

 43 48  0  0  0  0  0  0  0  0999 V2000
   34.0580   29.2150   49.8740 C   0  0  0  0  0  0  0  0  0  0  0  0
   33.4890   29.7940   50.8290 O   0  0  0  0  0  0  0  0  0  0  0  0
   31.3540   27.2030   48.4770 C   0  0  0  0  0  0  0  0  0  0  0  0
   31.9890   26.4980   47.4630 C   0  0  0  0  0  0  0  0  0  0  0  0
   33.3260   26.6930   47.2430 C   0  0  0  0  0  0  0  0  0  0  0  0
   33.9700   27.5760   48.0360 N   0  0  0  0  0  0  0  0  0  0  0  0
   33.3480   28.2600   49.0200 C   0  0  0  0  0  0  0  0  0  0  0  0
   32.0400   28.0680   49.2330 N   0  0  0  0  0  0  0  0  0  0  0  0
   30.2950   27.0700   48.6740 H   0  0  0  0  0  0  0  0  0  0  0  0
   31.4170   25.8150   46.8730 H   0  0  0  0  0  0  0  0  0  0  0  0
   34.0640   25.9920   46.2010 C   0  0  0  0  0  0  0  0  0  0  0  0
   34.2100   26.4540   44.9100 C   0  0  0  0  0  0  0  0  0  0  0  0
   33.7610   27.3860   44.6330 H   0  0  0  0  0  0  0  0  0  0  0  0
   34.9080   25.7850   43.9320 C   0  0  0  0  0  0  0  0  0  0  0  0
   35.5050   24.5840   44.2300 C   0  0  0  0  0  0  0  0  0  0  0  0
   36.1900   23.9270   43.2740 N   0  0  0  0  0  0  0  0  0  0  0  0
   36.7700   22.7400   43.6010 C   0  0  0  0  0  0  0  0  0  0  0  0
   37.3220   22.2180   42.8180 H   0  0  0  0  0  0  0  0  0  0  0  0
   36.6980   22.1620   44.8680 C   0  0  0  0  0  0  0  0  0  0  0  0
   35.9890   22.8700   45.8090 C   0  0  0  0  0  0  0  0  0  0  0  0
   35.3860   24.0780   45.5160 C   0  0  0  0  0  0  0  0  0  0  0  0
   34.6710   24.7850   46.4750 C   0  0  0  0  0  0  0  0  0  0  0  0
   35.4640   29.5140   49.6250 C   0  0  0  0  0  0  0  0  0  0  0  0
   36.5030   29.0180   50.3970 C   0  0  0  0  0  0  0  0  0  0  0  0
   37.6320   29.5640   49.7900 C   0  0  0  0  0  0  0  0  0  0  0  0
   37.2400   30.3300   48.7270 C   0  0  0  0  0  0  0  0  0  0  0  0
   35.9280   30.2740   48.6610 O   0  0  0  0  0  0  0  0  0  0  0  0
   36.4400   28.3590   51.2680 H   0  0  0  0  0  0  0  0  0  0  0  0
   38.6460   29.3740   50.1500 H   0  0  0  0  0  0  0  0  0  0  0  0
   38.5520   32.3400   48.1940 C   0  0  0  0  0  0  0  0  0  0  0  0
   38.0950   31.0840   47.8130 C   0  0  0  0  0  0  0  0  0  0  0  0
   38.4340   30.5270   46.5870 C   0  0  0  0  0  0  0  0  0  0  0  0
   39.2430   31.2260   45.7110 C   0  0  0  0  0  0  0  0  0  0  0  0
   39.7420   30.9760   44.4770 N   0  0  0  0  0  0  0  0  0  0  0  0
   40.4660   32.0220   44.1180 N   0  0  0  0  0  0  0  0  0  0  0  0
   40.4420   32.9460   45.1040 C   0  0  0  0  0  0  0  0  0  0  0  0
   39.6620   32.4570   46.1370 C   0  0  0  0  0  0  0  0  0  0  0  0
   39.3720   33.0710   47.3270 C   0  0  0  0  0  0  0  0  0  0  0  0
   38.2900   32.7810   49.1540 H   0  0  0  0  0  0  0  0  0  0  0  0
   38.0580   29.5420   46.3220 H   0  0  0  0  0  0  0  0  0  0  0  0
   39.5190   30.0670   43.9930 H   0  0  0  0  0  0  0  0  0  0  0  0
   40.9700   33.8920   45.0260 H   0  0  0  0  0  0  0  0  0  0  0  0
   39.7470   34.0520   47.5860 H   0  0  0  0  0  0  0  0  0  0  0  0
  1  2  2  0  0  0  0
  3  9  1  0  0  0  0
  3  8  1  0  0  0  0
  4  3  2  0  0  0  0
  5  4  1  0  0  0  0
  5  6  2  0  0  0  0
  6  7  1  0  0  0  0
  7  8  2  0  0  0  0
  7  1  1  0  0  0  0
 10  4  1  0  0  0  0
 11 22  1  0  0  0  0
 11  5  1  0  0  0  0
 12 11  2  0  0  0  0
 13 12  1  0  0  0  0
 14 15  2  0  0  0  0
 14 12  1  0  0  0  0
 15 21  1  0  0  0  0
 16 17  2  0  0  0  0
 16 15  1  0  0  0  0
 17 19  1  0  0  0  0
 18 17  1  0  0  0  0
 19 20  2  0  0  0  0
 21 20  1  0  0  0  0
 21 22  2  0  0  0  0
 23  1  1  0  0  0  0
 23 24  2  0  0  0  0
 24 28  1  0  0  0  0
 25 29  1  0  0  0  0
 25 24  1  0  0  0  0
 26 25  2  0  0  0  0
 27 26  1  0  0  0  0
 27 23  1  0  0  0  0
 30 39  1  0  0  0  0
 31 30  1  0  0  0  0
 31 26  1  0  0  0  0
 32 31  2  0  0  0  0
 33 37  2  0  0  0  0
 33 32  1  0  0  0  0
 34 33  1  0  0  0  0
 35 34  1  0  0  0  0
 35 36  2  0  0  0  0
 36 37  1  0  0  0  0
 37 38  1  0  0  0  0
 38 43  1  0  0  0  0
 38 30  2  0  0  0  0
 40 32  1  0  0  0  0
 41 34  1  0  0  0  0
 42 36  1  0  0  0  0
M  END
>  <minimizedAffinity>
-7.01266909

>  <minimizedRMSD>
0.849631548

$$$$
