
     RDKit          3D

 30 32  0  0  0  0  0  0  0  0999 V2000
   35.6090   29.0233   50.1859 C   0  0  0  0  0  0  0  0  0  0  0  0
   36.2803   30.1553   49.6554 C   0  0  0  0  0  0  0  0  0  0  0  0
   36.0528   30.5119   48.3361 C   0  0  0  0  0  0  0  0  0  0  0  0
   35.1742   29.7350   47.6027 N   0  0  0  0  0  0  0  0  0  0  0  0
   34.5529   28.6692   48.1332 C   0  0  0  0  0  0  0  0  0  0  0  0
   34.7628   28.3169   49.3976 N   0  0  0  0  0  0  0  0  0  0  0  0
   33.6845   28.0017   47.2399 N   0  0  0  0  0  0  0  0  0  0  0  0
   37.2187   30.9093   50.5269 C   0  0  0  0  0  0  0  0  0  0  0  0
   38.5335   30.7980   50.0964 F   0  0  0  0  0  0  0  0  0  0  0  0
   36.8541   32.2199   50.5315 F   0  0  0  0  0  0  0  0  0  0  0  0
   37.1901   30.4525   51.8382 F   0  0  0  0  0  0  0  0  0  0  0  0
   35.8159   28.7832   51.2136 H   0  0  0  0  0  0  0  0  0  0  0  0
   33.5972   26.9440   47.2317 H   0  0  0  0  0  0  0  0  0  0  0  0
   33.0829   28.4726   46.5443 H   0  0  0  0  0  0  0  0  0  0  0  0
   36.6673   31.5871   47.5895 C   0  0  0  0  0  0  0  0  0  0  0  0
   37.5890   32.5729   47.8075 C   0  0  0  0  0  0  0  0  0  0  0  0
   37.9274   32.6410   48.8135 H   0  0  0  0  0  0  0  0  0  0  0  0
   38.0248   33.4407   46.8394 C   0  0  0  0  0  0  0  0  0  0  0  0
   37.5618   33.3926   45.5442 C   0  0  0  0  0  0  0  0  0  0  0  0
   38.0543   34.2823   44.6936 N   0  0  0  0  0  0  0  0  0  0  0  0
   37.6314   34.2817   43.3976 C   0  0  0  0  0  0  0  0  0  0  0  0
   37.9716   34.9659   42.6248 H   0  0  0  0  0  0  0  0  0  0  0  0
   36.6931   33.3235   43.0624 C   0  0  0  0  0  0  0  0  0  0  0  0
   36.1848   32.3971   43.9621 C   0  0  0  0  0  0  0  0  0  0  0  0
   36.6283   32.4180   45.2675 C   0  0  0  0  0  0  0  0  0  0  0  0
   36.2053   31.5535   46.2632 C   0  0  0  0  0  0  0  0  0  0  0  0
   38.7566   34.1626   47.1686 H   0  0  0  0  0  0  0  0  0  0  0  0
   36.3302   33.2931   42.0295 H   0  0  0  0  0  0  0  0  0  0  0  0
   35.4512   31.6504   43.6930 H   0  0  0  0  0  0  0  0  0  0  0  0
   35.4709   30.8590   45.8541 H   0  0  0  0  0  0  0  0  0  0  0  0
  2  1  2  0
  2  8  1  0
  3  2  1  0
  4  5  1  0
  4  3  2  0
  5  6  2  0
  6  1  1  0
  7  5  1  0
  8 11  1  0
  9  8  1  0
 10  8  1  0
  1 12  1  0
  7 13  1  0
  7 14  1  0
 15 16  2  0
 16 17  1  0
 16 18  1  0
 18 19  2  0
 19 20  1  0
 20 21  2  0
 21 22  1  0
 21 23  1  0
 23 24  2  0
 24 25  1  0
 25 26  2  0
 26 15  1  0
 25 19  1  0
 18 27  1  0
 23 28  1  0
 24 29  1  0
 26 30  1  0
  3 15  1  0
M  ISO  3  12  14  17  16  22  16
M  END
>  <DihAtoms>  (1) 
1,2,14,15

>  <DihDeg>  (1) 
-60.22557734225758

$$$$
