
 OpenBabel03272508503D

 43 48  0  0  0  0  0  0  0  0999 V2000
   35.3540   25.3910   30.9830 C   0  0  0  0  0  0  0  0  0  0  0  0
   34.4080   25.1580   30.1950 O   0  0  0  0  0  0  0  0  0  0  0  0
   37.2420   28.5120   30.9050 C   0  0  0  0  0  0  0  0  0  0  0  0
   36.5880   29.2890   31.8510 C   0  0  0  0  0  0  0  0  0  0  0  0
   35.5120   28.7710   32.5210 C   0  0  0  0  0  0  0  0  0  0  0  0
   35.1350   27.5100   32.2210 N   0  0  0  0  0  0  0  0  0  0  0  0
   35.7740   26.7580   31.2990 C   0  0  0  0  0  0  0  0  0  0  0  0
   36.8250   27.2670   30.6460 N   0  0  0  0  0  0  0  0  0  0  0  0
   38.0970   28.8960   30.3590 H   0  0  0  0  0  0  0  0  0  0  0  0
   36.9410   30.2800   32.0390 H   0  0  0  0  0  0  0  0  0  0  0  0
   34.7740   29.5230   33.5280 C   0  0  0  0  0  0  0  0  0  0  0  0
   33.4080   29.4520   33.7010 C   0  0  0  0  0  0  0  0  0  0  0  0
   32.8320   28.8100   33.0670 H   0  0  0  0  0  0  0  0  0  0  0  0
   32.7200   30.1650   34.6540 C   0  0  0  0  0  3  0  0  0  0  0  0
   33.4070   31.0050   35.4970 C   0  0  0  0  0  0  0  0  0  0  0  0
   32.7350   31.7040   36.4310 N   0  0  0  0  0  0  0  0  0  0  0  0
   33.4450   32.5270   37.2510 C   0  0  0  0  0  0  0  0  0  0  0  0
   32.8890   33.0880   38.0040 H   0  0  0  0  0  0  0  0  0  0  0  0
   34.8280   32.6900   37.1810 C   0  0  0  0  0  3  0  0  0  0  0  0
   35.4690   31.9560   36.2130 C   0  0  0  0  0  3  0  0  0  0  0  0
   34.7840   31.1090   35.3610 C   0  0  0  0  0  0  0  0  0  0  0  0
   35.4410   30.3720   34.3850 C   0  0  0  0  0  3  0  0  0  0  0  0
   36.0440   24.2560   31.5880 C   0  0  0  0  0  0  0  0  0  0  0  0
   35.7580   22.9330   31.2860 C   0  0  0  0  0  0  0  0  0  0  0  0
   36.6500   22.2290   32.0920 C   0  0  0  0  0  0  0  0  0  0  0  0
   37.4000   23.1190   32.8100 C   0  0  0  0  0  0  0  0  0  0  0  0
   37.0050   24.3280   32.4790 O   0  0  0  0  0  0  0  0  0  0  0  0
   35.0120   22.5490   30.5840 H   0  0  0  0  0  0  0  0  0  0  0  0
   36.6980   21.1380   32.1050 H   0  0  0  0  0  0  0  0  0  0  0  0
   39.7080   22.4390   33.3150 C   0  0  0  0  0  0  0  0  0  0  0  0
   38.4530   22.8150   33.7760 C   0  0  0  0  0  0  0  0  0  0  0  0
   38.1750   22.9100   35.1340 C   0  0  0  0  0  0  0  0  0  0  0  0
   39.1590   22.6260   36.0620 C   0  0  0  0  0  0  0  0  0  0  0  0
   39.2130   22.6220   37.4150 N   0  0  0  0  0  0  0  0  0  0  0  0
   40.4360   22.2630   37.7660 N   0  0  0  0  0  0  0  0  0  0  0  0
   41.1740   22.0340   36.6580 C   0  0  0  0  0  0  0  0  0  0  0  0
   40.3750   22.2620   35.5510 C   0  0  0  0  0  0  0  0  0  0  0  0
   40.7250   22.1460   34.2310 C   0  0  0  0  0  0  0  0  0  0  0  0
   39.9320   22.3630   32.2520 H   0  0  0  0  0  0  0  0  0  0  0  0
   37.1810   23.2060   35.4590 H   0  0  0  0  0  0  0  0  0  0  0  0
   38.3600   22.8800   37.9770 H   0  0  0  0  0  0  0  0  0  0  0  0
   42.2140   21.7260   36.7060 H   0  0  0  0  0  0  0  0  0  0  0  0
   41.7150   21.8500   33.9120 H   0  0  0  0  0  0  0  0  0  0  0  0
  1  7  1  0  0  0  0
  1 23  1  0  0  0  0
  2  1  2  0  0  0  0
  3  4  1  0  0  0  0
  4 10  1  0  0  0  0
  4  5  2  0  0  0  0
  5 11  1  0  0  0  0
  6  5  1  0  0  0  0
  7  6  2  0  0  0  0
  8  3  2  0  0  0  0
  8  7  1  0  0  0  0
  9  3  1  0  0  0  0
 11 12  2  0  0  0  0
 11 22  1  0  0  0  0
 12 14  1  0  0  0  0
 13 12  1  0  0  0  0
 14 15  2  0  0  0  0
 15 16  1  0  0  0  0
 16 17  2  0  0  0  0
 17 18  1  0  0  0  0
 19 17  1  0  0  0  0
 20 19  2  0  0  0  0
 21 15  1  0  0  0  0
 21 20  1  0  0  0  0
 22 21  2  0  0  0  0
 23 27  1  0  0  0  0
 24 23  2  0  0  0  0
 24 25  1  0  0  0  0
 25 29  1  0  0  0  0
 25 26  2  0  0  0  0
 26 31  1  0  0  0  0
 27 26  1  0  0  0  0
 28 24  1  0  0  0  0
 30 31  2  0  0  0  0
 30 38  1  0  0  0  0
 31 32  1  0  0  0  0
 32 40  1  0  0  0  0
 32 33  2  0  0  0  0
 33 34  1  0  0  0  0
 34 35  1  0  0  0  0
 34 41  1  0  0  0  0
 36 42  1  0  0  0  0
 36 35  2  0  0  0  0
 37 33  1  0  0  0  0
 37 36  1  0  0  0  0
 38 37  2  0  0  0  0
 39 30  1  0  0  0  0
 43 38  1  0  0  0  0
M  END
>  <minimizedAffinity>
-7.48488712

$$$$

 OpenBabel03272508503D

 43 48  0  0  0  0  0  0  0  0999 V2000
   35.4800   25.6700   31.0630 C   0  0  0  0  0  0  0  0  0  0  0  0
   34.5060   25.3190   30.3570 O   0  0  0  0  0  0  0  0  0  0  0  0
   37.0250   28.8980   30.3540 C   0  0  0  0  0  0  0  0  0  0  0  0
   36.5960   29.6830   31.4170 C   0  0  0  0  0  0  0  0  0  0  0  0
   35.7890   29.1340   32.3770 C   0  0  0  0  0  0  0  0  0  0  0  0
   35.4430   27.8360   32.2380 N   0  0  0  0  0  0  0  0  0  0  0  0
   35.8620   27.0770   31.2020 C   0  0  0  0  0  0  0  0  0  0  0  0
   36.6510   27.6160   30.2660 N   0  0  0  0  0  0  0  0  0  0  0  0
   37.6650   29.3060   29.5790 H   0  0  0  0  0  0  0  0  0  0  0  0
   36.9080   30.7030   31.4640 H   0  0  0  0  0  0  0  0  0  0  0  0
   35.2980   29.8900   33.5210 C   0  0  0  0  0  0  0  0  0  0  0  0
   35.9410   30.9830   34.0610 C   0  0  0  0  0  0  0  0  0  0  0  0
   36.8620   31.3160   33.6280 H   0  0  0  0  0  0  0  0  0  0  0  0
   35.4710   31.6910   35.1420 C   0  0  0  0  0  3  0  0  0  0  0  0
   34.2940   31.3100   35.7390 C   0  0  0  0  0  0  0  0  0  0  0  0
   33.8310   32.0020   36.7980 N   0  0  0  0  0  0  0  0  0  0  0  0
   32.6620   31.5980   37.3670 C   0  0  0  0  0  0  0  0  0  0  0  0
   32.2980   32.1670   38.2240 H   0  0  0  0  0  0  0  0  0  0  0  0
   31.9140   30.5100   36.9180 C   0  0  0  0  0  3  0  0  0  0  0  0
   32.4260   29.8370   35.8360 C   0  0  0  0  0  3  0  0  0  0  0  0
   33.6100   30.2140   35.2310 C   0  0  0  0  0  0  0  0  0  0  0  0
   34.1200   29.5270   34.1370 C   0  0  0  0  0  3  0  0  0  0  0  0
   36.2410   24.6340   31.7540 C   0  0  0  0  0  0  0  0  0  0  0  0
   36.0100   23.2760   31.5960 C   0  0  0  0  0  0  0  0  0  0  0  0
   36.9580   22.6980   32.4370 C   0  0  0  0  0  0  0  0  0  0  0  0
   37.6860   23.6880   33.0370 C   0  0  0  0  0  0  0  0  0  0  0  0
   37.2230   24.8390   32.6000 O   0  0  0  0  0  0  0  0  0  0  0  0
   35.2620   22.7900   30.9620 H   0  0  0  0  0  0  0  0  0  0  0  0
   37.0590   21.6160   32.5570 H   0  0  0  0  0  0  0  0  0  0  0  0
   39.9250   24.3030   33.8430 C   0  0  0  0  0  0  0  0  0  0  0  0
   38.7810   23.5310   33.9910 C   0  0  0  0  0  0  0  0  0  0  0  0
   38.6500   22.6130   35.0260 C   0  0  0  0  0  0  0  0  0  0  0  0
   39.6760   22.4510   35.9380 C   0  0  0  0  0  0  0  0  0  0  0  0
   39.8610   21.6670   37.0270 N   0  0  0  0  0  0  0  0  0  0  0  0
   41.0550   21.9430   37.5210 N   0  0  0  0  0  0  0  0  0  0  0  0
   41.6460   22.8950   36.7660 C   0  0  0  0  0  0  0  0  0  0  0  0
   40.7780   23.2380   35.7440 C   0  0  0  0  0  0  0  0  0  0  0  0
   40.9800   24.1610   34.7520 C   0  0  0  0  0  0  0  0  0  0  0  0
   40.0330   25.0240   33.0350 H   0  0  0  0  0  0  0  0  0  0  0  0
   37.7410   22.0250   35.1110 H   0  0  0  0  0  0  0  0  0  0  0  0
   39.1060   20.9940   37.3260 H   0  0  0  0  0  0  0  0  0  0  0  0
   42.6380   23.2790   36.9870 H   0  0  0  0  0  0  0  0  0  0  0  0
   41.8880   24.7440   34.6710 H   0  0  0  0  0  0  0  0  0  0  0  0
  1  7  1  0  0  0  0
  1 23  1  0  0  0  0
  2  1  2  0  0  0  0
  3  4  1  0  0  0  0
  4 10  1  0  0  0  0
  4  5  2  0  0  0  0
  5 11  1  0  0  0  0
  6  5  1  0  0  0  0
  7  6  2  0  0  0  0
  8  3  2  0  0  0  0
  8  7  1  0  0  0  0
  9  3  1  0  0  0  0
 11 12  2  0  0  0  0
 11 22  1  0  0  0  0
 12 14  1  0  0  0  0
 13 12  1  0  0  0  0
 14 15  2  0  0  0  0
 15 16  1  0  0  0  0
 16 17  2  0  0  0  0
 17 18  1  0  0  0  0
 19 17  1  0  0  0  0
 20 19  2  0  0  0  0
 21 15  1  0  0  0  0
 21 20  1  0  0  0  0
 22 21  2  0  0  0  0
 23 27  1  0  0  0  0
 24 23  2  0  0  0  0
 24 25  1  0  0  0  0
 25 29  1  0  0  0  0
 25 26  2  0  0  0  0
 26 31  1  0  0  0  0
 27 26  1  0  0  0  0
 28 24  1  0  0  0  0
 30 31  2  0  0  0  0
 30 38  1  0  0  0  0
 31 32  1  0  0  0  0
 32 40  1  0  0  0  0
 32 33  2  0  0  0  0
 33 34  1  0  0  0  0
 34 41  1  0  0  0  0
 34 35  1  0  0  0  0
 36 42  1  0  0  0  0
 36 35  2  0  0  0  0
 37 33  1  0  0  0  0
 37 36  1  0  0  0  0
 38 37  2  0  0  0  0
 39 30  1  0  0  0  0
 43 38  1  0  0  0  0
M  END
>  <minimizedAffinity>
-7.43827105

$$$$

 OpenBabel03272508503D

 43 48  0  0  0  0  0  0  0  0999 V2000
   36.5280   26.3170   32.3260 C   0  0  0  0  0  0  0  0  0  0  0  0
   35.8730   25.3820   31.8110 O   0  0  0  0  0  0  0  0  0  0  0  0
   36.8190   29.0240   29.8970 C   0  0  0  0  0  0  0  0  0  0  0  0
   36.5210   30.1490   30.6540 C   0  0  0  0  0  0  0  0  0  0  0  0
   36.2220   30.0070   31.9830 C   0  0  0  0  0  0  0  0  0  0  0  0
   36.2310   28.7580   32.4970 N   0  0  0  0  0  0  0  0  0  0  0  0
   36.5210   27.6670   31.7560 C   0  0  0  0  0  0  0  0  0  0  0  0
   36.8130   27.8090   30.4580 N   0  0  0  0  0  0  0  0  0  0  0  0
   37.0590   29.1070   28.8420 H   0  0  0  0  0  0  0  0  0  0  0  0
   36.5320   31.1070   30.1820 H   0  0  0  0  0  0  0  0  0  0  0  0
   35.8990   31.1360   32.8440 C   0  0  0  0  0  0  0  0  0  0  0  0
   35.8980   32.4510   32.4300 C   0  0  0  0  0  0  0  0  0  0  0  0
   36.1470   32.6810   31.4140 H   0  0  0  0  0  0  0  0  0  0  0  0
   35.5920   33.5120   33.2500 C   0  0  0  0  0  3  0  0  0  0  0  0
   35.2650   33.2780   34.5640 C   0  0  0  0  0  0  0  0  0  0  0  0
   34.9650   34.3150   35.3690 N   0  0  0  0  0  0  0  0  0  0  0  0
   34.6450   34.0490   36.6650 C   0  0  0  0  0  0  0  0  0  0  0  0
   34.4030   34.8970   37.3070 H   0  0  0  0  0  0  0  0  0  0  0  0
   34.6080   32.7660   37.2100 C   0  0  0  0  0  3  0  0  0  0  0  0
   34.9210   31.7410   36.3500 C   0  0  0  0  0  3  0  0  0  0  0  0
   35.2520   31.9700   35.0270 C   0  0  0  0  0  0  0  0  0  0  0  0
   35.5670   30.9270   34.1660 C   0  0  0  0  0  3  0  0  0  0  0  0
   37.3130   26.0330   33.5230 C   0  0  0  0  0  0  0  0  0  0  0  0
   37.1360   26.6880   34.7320 C   0  0  0  0  0  0  0  0  0  0  0  0
   38.0910   26.0920   35.5530 C   0  0  0  0  0  0  0  0  0  0  0  0
   38.7690   25.1460   34.8340 C   0  0  0  0  0  0  0  0  0  0  0  0
   38.2720   25.1420   33.6170 O   0  0  0  0  0  0  0  0  0  0  0  0
   36.4190   27.4780   34.9700 H   0  0  0  0  0  0  0  0  0  0  0  0
   38.2290   26.3750   36.5990 H   0  0  0  0  0  0  0  0  0  0  0  0
   41.1080   24.3960   34.7190 C   0  0  0  0  0  0  0  0  0  0  0  0
   39.8520   24.2840   35.3030 C   0  0  0  0  0  0  0  0  0  0  0  0
   39.6010   23.3740   36.3220 C   0  0  0  0  0  0  0  0  0  0  0  0
   40.6140   22.5510   36.7770 C   0  0  0  0  0  0  0  0  0  0  0  0
   40.6980   21.5870   37.7250 N   0  0  0  0  0  0  0  0  0  0  0  0
   41.9380   21.1300   37.7230 N   0  0  0  0  0  0  0  0  0  0  0  0
   42.6580   21.7860   36.7860 C   0  0  0  0  0  0  0  0  0  0  0  0
   41.8280   22.7040   36.1670 C   0  0  0  0  0  0  0  0  0  0  0  0
   42.1530   23.5750   35.1600 C   0  0  0  0  0  0  0  0  0  0  0  0
   41.3100   25.1070   33.9200 H   0  0  0  0  0  0  0  0  0  0  0  0
   38.6060   23.3130   36.7550 H   0  0  0  0  0  0  0  0  0  0  0  0
   39.8490   21.3360   38.2970 H   0  0  0  0  0  0  0  0  0  0  0  0
   43.7080   21.5740   36.6080 H   0  0  0  0  0  0  0  0  0  0  0  0
   43.1440   23.6310   34.7310 H   0  0  0  0  0  0  0  0  0  0  0  0
  1 23  1  0  0  0  0
  2  1  2  0  0  0  0
  3  8  2  0  0  0  0
  3  4  1  0  0  0  0
  4  5  2  0  0  0  0
  5  6  1  0  0  0  0
  5 11  1  0  0  0  0
  7  1  1  0  0  0  0
  7  6  2  0  0  0  0
  8  7  1  0  0  0  0
  9  3  1  0  0  0  0
 10  4  1  0  0  0  0
 11 22  1  0  0  0  0
 12 11  2  0  0  0  0
 12 14  1  0  0  0  0
 13 12  1  0  0  0  0
 14 15  2  0  0  0  0
 15 21  1  0  0  0  0
 15 16  1  0  0  0  0
 16 17  2  0  0  0  0
 17 19  1  0  0  0  0
 17 18  1  0  0  0  0
 20 19  2  0  0  0  0
 21 20  1  0  0  0  0
 22 21  2  0  0  0  0
 23 27  1  0  0  0  0
 23 24  2  0  0  0  0
 24 28  1  0  0  0  0
 24 25  1  0  0  0  0
 25 29  1  0  0  0  0
 26 31  1  0  0  0  0
 26 25  2  0  0  0  0
 27 26  1  0  0  0  0
 30 38  2  0  0  0  0
 30 31  1  0  0  0  0
 31 32  2  0  0  0  0
 32 40  1  0  0  0  0
 32 33  1  0  0  0  0
 33 34  1  0  0  0  0
 34 41  1  0  0  0  0
 35 34  1  0  0  0  0
 36 35  2  0  0  0  0
 37 33  2  0  0  0  0
 37 36  1  0  0  0  0
 38 37  1  0  0  0  0
 39 30  1  0  0  0  0
 42 36  1  0  0  0  0
 43 38  1  0  0  0  0
M  END
>  <minimizedAffinity>
-7.34483337

$$$$

 OpenBabel03272508503D

 43 48  0  0  0  0  0  0  0  0999 V2000
   36.9300   27.8240   31.0950 C   0  0  0  0  0  0  0  0  0  0  0  0
   36.6060   28.6400   30.2010 O   0  0  0  0  0  0  0  0  0  0  0  0
   39.3390   25.4030   29.8110 C   0  0  0  0  0  0  0  0  0  0  0  0
   38.7640   24.1870   30.1540 C   0  0  0  0  0  0  0  0  0  0  0  0
   37.5650   24.1710   30.8160 C   0  0  0  0  0  0  0  0  0  0  0  0
   36.9950   25.3600   31.1080 N   0  0  0  0  0  0  0  0  0  0  0  0
   37.5590   26.5400   30.7730 C   0  0  0  0  0  0  0  0  0  0  0  0
   38.7310   26.5530   30.1260 N   0  0  0  0  0  0  0  0  0  0  0  0
   40.2880   25.4460   29.2870 H   0  0  0  0  0  0  0  0  0  0  0  0
   39.2700   23.2840   29.8920 H   0  0  0  0  0  0  0  0  0  0  0  0
   36.8970   22.9380   31.2090 C   0  0  0  0  0  0  0  0  0  0  0  0
   35.6040   22.8730   31.6820 C   0  0  0  0  0  0  0  0  0  0  0  0
   35.0340   23.7750   31.7750 H   0  0  0  0  0  0  0  0  0  0  0  0
   34.9810   21.7040   32.0510 C   0  0  0  0  0  3  0  0  0  0  0  0
   35.6640   20.5160   31.9540 C   0  0  0  0  0  0  0  0  0  0  0  0
   35.0560   19.3690   32.3140 N   0  0  0  0  0  0  0  0  0  0  0  0
   35.7590   18.2080   32.2060 C   0  0  0  0  0  0  0  0  0  0  0  0
   35.2560   17.2870   32.5010 H   0  0  0  0  0  0  0  0  0  0  0  0
   37.0720   18.1350   31.7420 C   0  0  0  0  0  3  0  0  0  0  0  0
   37.6490   19.3310   31.3870 C   0  0  0  0  0  3  0  0  0  0  0  0
   36.9690   20.5300   31.4820 C   0  0  0  0  0  0  0  0  0  0  0  0
   37.5610   21.7330   31.1200 C   0  0  0  0  0  3  0  0  0  0  0  0
   36.6630   28.1790   32.4840 C   0  0  0  0  0  0  0  0  0  0  0  0
   37.1460   27.4610   33.5680 C   0  0  0  0  0  0  0  0  0  0  0  0
   36.6400   28.1630   34.6590 C   0  0  0  0  0  0  0  0  0  0  0  0
   35.9070   29.2250   34.2050 C   0  0  0  0  0  0  0  0  0  0  0  0
   35.9450   29.1990   32.8920 O   0  0  0  0  0  0  0  0  0  0  0  0
   37.7720   26.5640   33.5550 H   0  0  0  0  0  0  0  0  0  0  0  0
   36.8320   27.8660   35.6930 H   0  0  0  0  0  0  0  0  0  0  0  0
   35.9320   31.1810   35.6950 C   0  0  0  0  0  0  0  0  0  0  0  0
   35.2000   30.2220   35.0060 C   0  0  0  0  0  0  0  0  0  0  0  0
   33.8120   30.1880   35.0580 C   0  0  0  0  0  0  0  0  0  0  0  0
   33.1270   31.1240   35.8100 C   0  0  0  0  0  0  0  0  0  0  0  0
   31.8180   31.3610   36.0650 N   0  0  0  0  0  0  0  0  0  0  0  0
   31.7490   32.4080   36.8680 N   0  0  0  0  0  0  0  0  0  0  0  0
   32.9970   32.8530   37.1360 C   0  0  0  0  0  0  0  0  0  0  0  0
   33.8980   32.0440   36.4670 C   0  0  0  0  0  0  0  0  0  0  0  0
   35.2640   32.1410   36.4650 C   0  0  0  0  0  0  0  0  0  0  0  0
   37.0190   31.2120   35.6580 H   0  0  0  0  0  0  0  0  0  0  0  0
   33.2720   29.4240   34.5060 H   0  0  0  0  0  0  0  0  0  0  0  0
   31.0780   30.7440   35.6360 H   0  0  0  0  0  0  0  0  0  0  0  0
   33.1820   33.7090   37.7780 H   0  0  0  0  0  0  0  0  0  0  0  0
   35.7980   32.9040   37.0160 H   0  0  0  0  0  0  0  0  0  0  0  0
  1 23  1  0  0  0  0
  2  1  2  0  0  0  0
  3  8  2  0  0  0  0
  3  4  1  0  0  0  0
  4  5  2  0  0  0  0
  5  6  1  0  0  0  0
  5 11  1  0  0  0  0
  7  1  1  0  0  0  0
  7  6  2  0  0  0  0
  8  7  1  0  0  0  0
  9  3  1  0  0  0  0
 10  4  1  0  0  0  0
 11 12  1  0  0  0  0
 12 13  1  0  0  0  0
 12 14  2  0  0  0  0
 15 14  1  0  0  0  0
 15 16  1  0  0  0  0
 17 16  2  0  0  0  0
 17 18  1  0  0  0  0
 19 17  1  0  0  0  0
 20 21  1  0  0  0  0
 20 19  2  0  0  0  0
 21 15  2  0  0  0  0
 22 11  2  0  0  0  0
 22 21  1  0  0  0  0
 23 27  1  0  0  0  0
 23 24  2  0  0  0  0
 24 25  1  0  0  0  0
 25 29  1  0  0  0  0
 26 25  2  0  0  0  0
 26 31  1  0  0  0  0
 27 26  1  0  0  0  0
 28 24  1  0  0  0  0
 30 38  1  0  0  0  0
 31 32  1  0  0  0  0
 31 30  2  0  0  0  0
 32 33  2  0  0  0  0
 33 34  1  0  0  0  0
 33 37  1  0  0  0  0
 34 35  1  0  0  0  0
 35 36  2  0  0  0  0
 36 42  1  0  0  0  0
 37 36  1  0  0  0  0
 38 37  2  0  0  0  0
 38 43  1  0  0  0  0
 39 30  1  0  0  0  0
 40 32  1  0  0  0  0
 41 34  1  0  0  0  0
M  END
>  <minimizedAffinity>
-7.34179878

$$$$

 OpenBabel03272508503D

 43 48  0  0  0  0  0  0  0  0999 V2000
   36.7200   26.6240   32.7140 C   0  0  0  0  0  0  0  0  0  0  0  0
   36.3330   25.7710   31.8820 O   0  0  0  0  0  0  0  0  0  0  0  0
   36.5940   29.9270   31.1690 C   0  0  0  0  0  0  0  0  0  0  0  0
   35.9800   30.6990   32.1460 C   0  0  0  0  0  0  0  0  0  0  0  0
   35.6060   30.1170   33.3280 C   0  0  0  0  0  0  0  0  0  0  0  0
   35.8560   28.7990   33.4850 N   0  0  0  0  0  0  0  0  0  0  0  0
   36.4530   28.0530   32.5310 C   0  0  0  0  0  0  0  0  0  0  0  0
   36.8180   28.6240   31.3770 N   0  0  0  0  0  0  0  0  0  0  0  0
   36.9010   30.3610   30.2230 H   0  0  0  0  0  0  0  0  0  0  0  0
   35.8120   31.7360   31.9550 H   0  0  0  0  0  0  0  0  0  0  0  0
   34.9580   30.8580   34.4020 C   0  0  0  0  0  0  0  0  0  0  0  0
   33.8770   30.3950   35.1210 C   0  0  0  0  0  0  0  0  0  0  0  0
   33.4710   29.4310   34.8940 H   0  0  0  0  0  0  0  0  0  0  0  0
   33.2720   31.1020   36.1330 C   0  0  0  0  0  3  0  0  0  0  0  0
   33.7500   32.3450   36.4690 C   0  0  0  0  0  0  0  0  0  0  0  0
   33.1580   33.0400   37.4600 N   0  0  0  0  0  0  0  0  0  0  0  0
   33.6570   34.2690   37.7680 C   0  0  0  0  0  0  0  0  0  0  0  0
   33.1690   34.8210   38.5730 H   0  0  0  0  0  0  0  0  0  0  0  0
   34.7440   34.8520   37.1190 C   0  0  0  0  0  3  0  0  0  0  0  0
   35.3130   34.1060   36.1160 C   0  0  0  0  0  3  0  0  0  0  0  0
   34.8370   32.8550   35.7730 C   0  0  0  0  0  0  0  0  0  0  0  0
   35.4200   32.1080   34.7570 C   0  0  0  0  0  3  0  0  0  0  0  0
   37.4550   26.1610   33.8860 C   0  0  0  0  0  0  0  0  0  0  0  0
   37.1970   26.5970   35.1760 C   0  0  0  0  0  0  0  0  0  0  0  0
   38.1300   25.8950   35.9360 C   0  0  0  0  0  0  0  0  0  0  0  0
   38.8750   25.1020   35.1070 C   0  0  0  0  0  0  0  0  0  0  0  0
   38.4380   25.2910   33.8820 O   0  0  0  0  0  0  0  0  0  0  0  0
   36.4420   27.3170   35.5050 H   0  0  0  0  0  0  0  0  0  0  0  0
   38.2080   26.0010   37.0210 H   0  0  0  0  0  0  0  0  0  0  0  0
   41.1760   24.2900   34.8140 C   0  0  0  0  0  0  0  0  0  0  0  0
   39.9620   24.2010   35.4820 C   0  0  0  0  0  0  0  0  0  0  0  0
   39.7560   23.2770   36.4990 C   0  0  0  0  0  0  0  0  0  0  0  0
   40.7740   22.4180   36.8670 C   0  0  0  0  0  0  0  0  0  0  0  0
   40.8960   21.4320   37.7880 N   0  0  0  0  0  0  0  0  0  0  0  0
   42.1190   20.9410   37.6900 N   0  0  0  0  0  0  0  0  0  0  0  0
   42.7910   21.5960   36.7180 C   0  0  0  0  0  0  0  0  0  0  0  0
   41.9470   22.5500   36.1750 C   0  0  0  0  0  0  0  0  0  0  0  0
   42.2250   23.4320   35.1650 C   0  0  0  0  0  0  0  0  0  0  0  0
   41.3430   25.0120   34.0160 H   0  0  0  0  0  0  0  0  0  0  0  0
   38.7930   23.2360   37.0000 H   0  0  0  0  0  0  0  0  0  0  0  0
   40.0820   21.1930   38.4140 H   0  0  0  0  0  0  0  0  0  0  0  0
   43.8190   21.3590   36.4620 H   0  0  0  0  0  0  0  0  0  0  0  0
   43.1860   23.4690   34.6680 H   0  0  0  0  0  0  0  0  0  0  0  0
  1 23  1  0  0  0  0
  2  1  2  0  0  0  0
  3  8  2  0  0  0  0
  3  4  1  0  0  0  0
  4  5  2  0  0  0  0
  5  6  1  0  0  0  0
  5 11  1  0  0  0  0
  7  1  1  0  0  0  0
  7  6  2  0  0  0  0
  8  7  1  0  0  0  0
  9  3  1  0  0  0  0
 10  4  1  0  0  0  0
 11 22  2  0  0  0  0
 11 12  1  0  0  0  0
 12 14  2  0  0  0  0
 13 12  1  0  0  0  0
 14 15  1  0  0  0  0
 15 16  1  0  0  0  0
 16 17  2  0  0  0  0
 17 18  1  0  0  0  0
 19 17  1  0  0  0  0
 20 19  2  0  0  0  0
 21 20  1  0  0  0  0
 21 15  2  0  0  0  0
 22 21  1  0  0  0  0
 23 24  2  0  0  0  0
 24 28  1  0  0  0  0
 24 25  1  0  0  0  0
 25 29  1  0  0  0  0
 26 31  1  0  0  0  0
 26 25  2  0  0  0  0
 27 23  1  0  0  0  0
 27 26  1  0  0  0  0
 30 38  2  0  0  0  0
 30 31  1  0  0  0  0
 31 32  2  0  0  0  0
 32 33  1  0  0  0  0
 32 40  1  0  0  0  0
 33 34  1  0  0  0  0
 34 41  1  0  0  0  0
 35 34  1  0  0  0  0
 36 35  2  0  0  0  0
 37 36  1  0  0  0  0
 37 33  2  0  0  0  0
 38 37  1  0  0  0  0
 39 30  1  0  0  0  0
 42 36  1  0  0  0  0
 43 38  1  0  0  0  0
M  END
>  <minimizedAffinity>
-7.31637573

$$$$

 OpenBabel03272508503D

 43 48  0  0  0  0  0  0  0  0999 V2000
   38.7170   26.2690   34.7410 C   0  0  0  0  0  0  0  0  0  0  0  0
   39.7320   26.7420   35.3020 O   0  0  0  0  0  0  0  0  0  0  0  0
   37.0770   27.7930   31.8600 C   0  0  0  0  0  0  0  0  0  0  0  0
   36.1540   28.6460   32.4490 C   0  0  0  0  0  0  0  0  0  0  0  0
   36.0760   28.7150   33.8140 C   0  0  0  0  0  0  0  0  0  0  0  0
   36.9150   27.9370   34.5300 N   0  0  0  0  0  0  0  0  0  0  0  0
   37.8110   27.1080   33.9520 C   0  0  0  0  0  0  0  0  0  0  0  0
   37.8860   27.0420   32.6180 N   0  0  0  0  0  0  0  0  0  0  0  0
   37.1620   27.7170   30.7810 H   0  0  0  0  0  0  0  0  0  0  0  0
   35.5200   29.2340   31.8210 H   0  0  0  0  0  0  0  0  0  0  0  0
   35.1350   29.5850   34.5070 C   0  0  0  0  0  0  0  0  0  0  0  0
   33.7670   29.4130   34.4950 C   0  0  0  0  0  0  0  0  0  0  0  0
   33.3470   28.5940   33.9480 H   0  0  0  0  0  0  0  0  0  0  0  0
   32.8860   30.2390   35.1520 C   0  0  0  0  0  3  0  0  0  0  0  0
   33.3680   31.3070   35.8700 C   0  0  0  0  0  0  0  0  0  0  0  0
   32.5070   32.1170   36.5150 N   0  0  0  0  0  0  0  0  0  0  0  0
   33.0170   33.1660   37.2170 C   0  0  0  0  0  0  0  0  0  0  0  0
   32.3090   33.8150   37.7350 H   0  0  0  0  0  0  0  0  0  0  0  0
   34.3780   33.4510   37.3110 C   0  0  0  0  0  3  0  0  0  0  0  0
   35.2170   32.5960   36.6370 C   0  0  0  0  0  3  0  0  0  0  0  0
   34.7390   31.5210   35.9120 C   0  0  0  0  0  0  0  0  0  0  0  0
   35.5940   30.6630   35.2340 C   0  0  0  0  0  3  0  0  0  0  0  0
   38.4460   24.8430   34.8920 C   0  0  0  0  0  0  0  0  0  0  0  0
   38.7350   24.1240   36.0410 C   0  0  0  0  0  0  0  0  0  0  0  0
   38.3110   22.8370   35.7190 C   0  0  0  0  0  0  0  0  0  0  0  0
   37.8070   22.8380   34.4470 C   0  0  0  0  0  0  0  0  0  0  0  0
   37.9070   24.0640   33.9840 O   0  0  0  0  0  0  0  0  0  0  0  0
   39.1860   24.4890   36.9690 H   0  0  0  0  0  0  0  0  0  0  0  0
   38.3910   21.9970   36.4140 H   0  0  0  0  0  0  0  0  0  0  0  0
   36.1320   21.0550   34.2090 C   0  0  0  0  0  0  0  0  0  0  0  0
   37.2550   21.7030   33.7110 C   0  0  0  0  0  0  0  0  0  0  0  0
   37.8640   21.3020   32.5280 C   0  0  0  0  0  0  0  0  0  0  0  0
   37.3540   20.2310   31.8190 C   0  0  0  0  0  0  0  0  0  0  0  0
   37.7000   19.6050   30.6680 N   0  0  0  0  0  0  0  0  0  0  0  0
   36.8360   18.6240   30.4700 N   0  0  0  0  0  0  0  0  0  0  0  0
   35.9360   18.6070   31.4780 C   0  0  0  0  0  0  0  0  0  0  0  0
   36.2480   19.6300   32.3560 C   0  0  0  0  0  0  0  0  0  0  0  0
   35.5930   19.9670   33.5110 C   0  0  0  0  0  0  0  0  0  0  0  0
   35.6510   21.3650   35.1340 H   0  0  0  0  0  0  0  0  0  0  0  0
   38.7410   21.8320   32.1690 H   0  0  0  0  0  0  0  0  0  0  0  0
   38.5340   19.9390   30.1180 H   0  0  0  0  0  0  0  0  0  0  0  0
   35.1300   17.8810   31.5230 H   0  0  0  0  0  0  0  0  0  0  0  0
   34.7210   19.4350   33.8660 H   0  0  0  0  0  0  0  0  0  0  0  0
  1 23  1  0  0  0  0
  1  2  2  0  0  0  0
  3  4  2  0  0  0  0
  3  8  1  0  0  0  0
  4  5  1  0  0  0  0
  5 11  1  0  0  0  0
  5  6  2  0  0  0  0
  7  6  1  0  0  0  0
  7  1  1  0  0  0  0
  8  7  2  0  0  0  0
  9  3  1  0  0  0  0
 10  4  1  0  0  0  0
 11 22  1  0  0  0  0
 12 11  2  0  0  0  0
 12 14  1  0  0  0  0
 13 12  1  0  0  0  0
 14 15  2  0  0  0  0
 15 21  1  0  0  0  0
 15 16  1  0  0  0  0
 16 17  2  0  0  0  0
 17 19  1  0  0  0  0
 17 18  1  0  0  0  0
 20 19  2  0  0  0  0
 21 20  1  0  0  0  0
 22 21  2  0  0  0  0
 23 24  2  0  0  0  0
 24 28  1  0  0  0  0
 25 24  1  0  0  0  0
 25 29  1  0  0  0  0
 26 25  2  0  0  0  0
 27 26  1  0  0  0  0
 27 23  1  0  0  0  0
 30 39  1  0  0  0  0
 31 30  1  0  0  0  0
 31 26  1  0  0  0  0
 32 31  2  0  0  0  0
 33 37  2  0  0  0  0
 33 32  1  0  0  0  0
 34 33  1  0  0  0  0
 35 34  1  0  0  0  0
 35 36  2  0  0  0  0
 36 42  1  0  0  0  0
 36 37  1  0  0  0  0
 37 38  1  0  0  0  0
 38 43  1  0  0  0  0
 38 30  2  0  0  0  0
 40 32  1  0  0  0  0
 41 34  1  0  0  0  0
M  END
>  <minimizedAffinity>
-7.18657875

$$$$

 OpenBabel03272508503D

 43 48  0  0  0  0  0  0  0  0999 V2000
   38.2120   27.0520   30.4870 C   0  0  0  0  0  0  0  0  0  0  0  0
   39.0710   26.8630   29.5950 O   0  0  0  0  0  0  0  0  0  0  0  0
   36.9810   30.3910   29.6830 C   0  0  0  0  0  0  0  0  0  0  0  0
   36.1620   30.6850   30.7650 C   0  0  0  0  0  0  0  0  0  0  0  0
   36.0200   29.7670   31.7700 C   0  0  0  0  0  0  0  0  0  0  0  0
   36.6920   28.6020   31.6550 N   0  0  0  0  0  0  0  0  0  0  0  0
   37.4870   28.3200   30.6000 C   0  0  0  0  0  0  0  0  0  0  0  0
   37.6250   29.2200   29.6190 N   0  0  0  0  0  0  0  0  0  0  0  0
   37.1130   31.1000   28.8710 H   0  0  0  0  0  0  0  0  0  0  0  0
   35.6600   31.6270   30.7910 H   0  0  0  0  0  0  0  0  0  0  0  0
   35.1810   30.0000   32.9380 C   0  0  0  0  0  0  0  0  0  0  0  0
   33.9420   29.4260   33.1300 C   0  0  0  0  0  0  0  0  0  0  0  0
   33.5510   28.7630   32.3860 H   0  0  0  0  0  0  0  0  0  0  0  0
   33.1570   29.6520   34.2360 C   0  0  0  0  0  3  0  0  0  0  0  0
   33.6070   30.4950   35.2230 C   0  0  0  0  0  0  0  0  0  0  0  0
   32.8390   30.7180   36.3070 N   0  0  0  0  0  0  0  0  0  0  0  0
   33.3150   31.5580   37.2680 C   0  0  0  0  0  0  0  0  0  0  0  0
   32.6840   31.7300   38.1410 H   0  0  0  0  0  0  0  0  0  0  0  0
   34.5500   32.2020   37.1970 C   0  0  0  0  0  3  0  0  0  0  0  0
   35.2960   31.9420   36.0720 C   0  0  0  0  0  3  0  0  0  0  0  0
   34.8490   31.0970   35.0750 C   0  0  0  0  0  0  0  0  0  0  0  0
   35.6110   30.8410   33.9420 C   0  0  0  0  0  3  0  0  0  0  0  0
   37.9430   25.9700   31.4280 C   0  0  0  0  0  0  0  0  0  0  0  0
   36.9880   24.9870   31.2160 C   0  0  0  0  0  0  0  0  0  0  0  0
   37.0930   24.1980   32.3590 C   0  0  0  0  0  0  0  0  0  0  0  0
   38.0650   24.7150   33.1710 C   0  0  0  0  0  0  0  0  0  0  0  0
   38.5510   25.7810   32.5750 O   0  0  0  0  0  0  0  0  0  0  0  0
   36.3200   24.8720   30.3570 H   0  0  0  0  0  0  0  0  0  0  0  0
   36.4730   23.3140   32.5250 H   0  0  0  0  0  0  0  0  0  0  0  0
   39.4920   23.2280   34.5110 C   0  0  0  0  0  0  0  0  0  0  0  0
   38.5030   24.2030   34.4670 C   0  0  0  0  0  0  0  0  0  0  0  0
   37.9230   24.7060   35.6250 C   0  0  0  0  0  0  0  0  0  0  0  0
   38.3270   24.2330   36.8600 C   0  0  0  0  0  0  0  0  0  0  0  0
   37.9740   24.5020   38.1390 N   0  0  0  0  0  0  0  0  0  0  0  0
   38.7050   23.7330   38.9270 N   0  0  0  0  0  0  0  0  0  0  0  0
   39.5270   22.9700   38.1740 C   0  0  0  0  0  0  0  0  0  0  0  0
   39.3020   23.2730   36.8430 C   0  0  0  0  0  0  0  0  0  0  0  0
   39.9200   22.7310   35.7470 C   0  0  0  0  0  0  0  0  0  0  0  0
   39.9500   22.8310   33.6070 H   0  0  0  0  0  0  0  0  0  0  0  0
   37.1530   25.4680   35.5530 H   0  0  0  0  0  0  0  0  0  0  0  0
   37.2310   25.2220   38.3400 H   0  0  0  0  0  0  0  0  0  0  0  0
   40.2220   22.2590   38.6120 H   0  0  0  0  0  0  0  0  0  0  0  0
   40.6860   21.9710   35.8240 H   0  0  0  0  0  0  0  0  0  0  0  0
  1  7  1  0  0  0  0
  1 23  1  0  0  0  0
  2  1  2  0  0  0  0
  3  4  1  0  0  0  0
  4 10  1  0  0  0  0
  4  5  2  0  0  0  0
  5 11  1  0  0  0  0
  6  5  1  0  0  0  0
  7  6  2  0  0  0  0
  8  3  2  0  0  0  0
  8  7  1  0  0  0  0
  9  3  1  0  0  0  0
 11 12  2  0  0  0  0
 11 22  1  0  0  0  0
 12 14  1  0  0  0  0
 13 12  1  0  0  0  0
 14 15  2  0  0  0  0
 15 16  1  0  0  0  0
 16 17  2  0  0  0  0
 17 18  1  0  0  0  0
 19 17  1  0  0  0  0
 20 19  2  0  0  0  0
 21 15  1  0  0  0  0
 21 20  1  0  0  0  0
 22 21  2  0  0  0  0
 23 27  1  0  0  0  0
 24 23  2  0  0  0  0
 24 25  1  0  0  0  0
 25 29  1  0  0  0  0
 25 26  2  0  0  0  0
 26 31  1  0  0  0  0
 27 26  1  0  0  0  0
 28 24  1  0  0  0  0
 30 38  1  0  0  0  0
 31 30  2  0  0  0  0
 31 32  1  0  0  0  0
 32 33  2  0  0  0  0
 33 34  1  0  0  0  0
 34 41  1  0  0  0  0
 34 35  1  0  0  0  0
 36 42  1  0  0  0  0
 36 35  2  0  0  0  0
 37 33  1  0  0  0  0
 37 36  1  0  0  0  0
 38 43  1  0  0  0  0
 38 37  2  0  0  0  0
 39 30  1  0  0  0  0
 40 32  1  0  0  0  0
M  END
>  <minimizedAffinity>
-7.1652751

$$$$

 OpenBabel03272508503D

 43 48  0  0  0  0  0  0  0  0999 V2000
   37.1530   27.8490   30.9050 C   0  0  0  0  0  0  0  0  0  0  0  0
   36.6600   28.5530   29.9930 O   0  0  0  0  0  0  0  0  0  0  0  0
   40.1850   26.0640   29.9390 C   0  0  0  0  0  0  0  0  0  0  0  0
   39.8090   24.7330   30.0600 C   0  0  0  0  0  0  0  0  0  0  0  0
   38.5370   24.4270   30.4650 C   0  0  0  0  0  0  0  0  0  0  0  0
   37.7000   25.4520   30.7310 N   0  0  0  0  0  0  0  0  0  0  0  0
   38.0710   26.7450   30.6130 C   0  0  0  0  0  0  0  0  0  0  0  0
   39.3150   27.0420   30.2170 N   0  0  0  0  0  0  0  0  0  0  0  0
   41.1860   26.3370   29.6210 H   0  0  0  0  0  0  0  0  0  0  0  0
   40.5230   23.9720   29.8330 H   0  0  0  0  0  0  0  0  0  0  0  0
   38.0660   23.0560   30.6150 C   0  0  0  0  0  0  0  0  0  0  0  0
   38.7590   21.9460   30.1810 C   0  0  0  0  0  0  0  0  0  0  0  0
   39.7060   22.0760   29.6990 H   0  0  0  0  0  0  0  0  0  0  0  0
   38.3070   20.6560   30.3270 C   0  0  0  0  0  3  0  0  0  0  0  0
   37.0970   20.4300   30.9370 C   0  0  0  0  0  0  0  0  0  0  0  0
   36.6520   19.1660   31.0820 N   0  0  0  0  0  0  0  0  0  0  0  0
   35.4500   18.9760   31.6920 C   0  0  0  0  0  0  0  0  0  0  0  0
   35.1000   17.9480   31.8030 H   0  0  0  0  0  0  0  0  0  0  0  0
   34.6510   20.0100   32.1770 C   0  0  0  0  0  3  0  0  0  0  0  0
   35.1470   21.2800   32.0060 C   0  0  0  0  0  3  0  0  0  0  0  0
   36.3630   21.5160   31.3920 C   0  0  0  0  0  0  0  0  0  0  0  0
   36.8560   22.8030   31.2250 C   0  0  0  0  0  3  0  0  0  0  0  0
   36.7880   28.1510   32.2850 C   0  0  0  0  0  0  0  0  0  0  0  0
   37.3210   27.4930   33.3820 C   0  0  0  0  0  0  0  0  0  0  0  0
   36.6850   28.1100   34.4560 C   0  0  0  0  0  0  0  0  0  0  0  0
   35.8350   29.0710   33.9800 C   0  0  0  0  0  0  0  0  0  0  0  0
   35.9260   29.0630   32.6680 O   0  0  0  0  0  0  0  0  0  0  0  0
   38.0600   26.6870   33.3890 H   0  0  0  0  0  0  0  0  0  0  0  0
   36.8750   27.8300   35.4950 H   0  0  0  0  0  0  0  0  0  0  0  0
   33.5950   29.8710   34.5990 C   0  0  0  0  0  0  0  0  0  0  0  0
   34.9720   29.9570   34.7570 C   0  0  0  0  0  0  0  0  0  0  0  0
   35.5500   30.8630   35.6380 C   0  0  0  0  0  0  0  0  0  0  0  0
   34.7480   31.7080   36.3820 C   0  0  0  0  0  0  0  0  0  0  0  0
   34.9850   32.6760   37.2990 N   0  0  0  0  0  0  0  0  0  0  0  0
   33.8170   33.1600   37.6830 N   0  0  0  0  0  0  0  0  0  0  0  0
   32.8260   32.5170   37.0270 C   0  0  0  0  0  0  0  0  0  0  0  0
   33.4000   31.5800   36.1850 C   0  0  0  0  0  0  0  0  0  0  0  0
   32.7580   30.7150   35.3390 C   0  0  0  0  0  0  0  0  0  0  0  0
   33.1370   29.1630   33.9110 H   0  0  0  0  0  0  0  0  0  0  0  0
   36.6310   30.9030   35.7360 H   0  0  0  0  0  0  0  0  0  0  0  0
   35.9760   32.9090   37.5740 H   0  0  0  0  0  0  0  0  0  0  0  0
   31.7770   32.7520   37.1850 H   0  0  0  0  0  0  0  0  0  0  0  0
   31.6810   30.6790   35.2440 H   0  0  0  0  0  0  0  0  0  0  0  0
  1 23  1  0  0  0  0
  2  1  2  0  0  0  0
  3  4  2  0  0  0  0
  3  8  1  0  0  0  0
  4  5  1  0  0  0  0
  5 11  1  0  0  0  0
  5  6  2  0  0  0  0
  7  6  1  0  0  0  0
  7  1  1  0  0  0  0
  8  7  2  0  0  0  0
  9  3  1  0  0  0  0
 10  4  1  0  0  0  0
 11 22  1  0  0  0  0
 12 14  1  0  0  0  0
 12 11  2  0  0  0  0
 13 12  1  0  0  0  0
 14 15  2  0  0  0  0
 15 16  1  0  0  0  0
 15 21  1  0  0  0  0
 16 17  2  0  0  0  0
 17 18  1  0  0  0  0
 17 19  1  0  0  0  0
 20 19  2  0  0  0  0
 21 20  1  0  0  0  0
 22 21  2  0  0  0  0
 23 27  1  0  0  0  0
 23 24  2  0  0  0  0
 24 28  1  0  0  0  0
 24 25  1  0  0  0  0
 25 29  1  0  0  0  0
 26 25  2  0  0  0  0
 26 31  1  0  0  0  0
 27 26  1  0  0  0  0
 30 31  2  0  0  0  0
 30 38  1  0  0  0  0
 31 32  1  0  0  0  0
 32 40  1  0  0  0  0
 32 33  2  0  0  0  0
 33 34  1  0  0  0  0
 34 41  1  0  0  0  0
 34 35  1  0  0  0  0
 36 42  1  0  0  0  0
 36 35  2  0  0  0  0
 37 33  1  0  0  0  0
 37 36  1  0  0  0  0
 38 37  2  0  0  0  0
 39 30  1  0  0  0  0
 43 38  1  0  0  0  0
M  END
>  <minimizedAffinity>
-7.15915537

$$$$

 OpenBabel03272508503D

 43 48  0  0  0  0  0  0  0  0999 V2000
   35.7910   25.8310   30.9450 C   0  0  0  0  0  0  0  0  0  0  0  0
   34.7920   25.4380   30.2990 O   0  0  0  0  0  0  0  0  0  0  0  0
   38.6530   23.6610   30.3010 C   0  0  0  0  0  0  0  0  0  0  0  0
   39.0870   23.3390   31.5800 C   0  0  0  0  0  0  0  0  0  0  0  0
   38.4230   23.8470   32.6650 C   0  0  0  0  0  0  0  0  0  0  0  0
   37.3620   24.6490   32.4310 N   0  0  0  0  0  0  0  0  0  0  0  0
   36.9440   24.9590   31.1850 C   0  0  0  0  0  0  0  0  0  0  0  0
   37.5950   24.4620   30.1270 N   0  0  0  0  0  0  0  0  0  0  0  0
   39.1590   23.2740   29.4240 H   0  0  0  0  0  0  0  0  0  0  0  0
   39.9340   22.6980   31.6920 H   0  0  0  0  0  0  0  0  0  0  0  0
   38.8160   23.5560   34.0370 C   0  0  0  0  0  0  0  0  0  0  0  0
   39.8580   22.7230   34.3850 C   0  0  0  0  0  0  0  0  0  0  0  0
   40.4290   22.2480   33.6140 H   0  0  0  0  0  0  0  0  0  0  0  0
   40.2220   22.4540   35.6830 C   0  0  0  0  0  3  0  0  0  0  0  0
   39.5250   23.0350   36.7150 C   0  0  0  0  0  0  0  0  0  0  0  0
   39.8800   22.7740   37.9870 N   0  0  0  0  0  0  0  0  0  0  0  0
   39.1690   23.3660   38.9860 C   0  0  0  0  0  0  0  0  0  0  0  0
   39.4670   23.1460   40.0130 H   0  0  0  0  0  0  0  0  0  0  0  0
   38.0950   24.2280   38.7710 C   0  0  0  0  0  3  0  0  0  0  0  0
   37.7710   24.4640   37.4570 C   0  0  0  0  0  3  0  0  0  0  0  0
   38.4670   23.8820   36.4140 C   0  0  0  0  0  0  0  0  0  0  0  0
   38.1320   24.1270   35.0890 C   0  0  0  0  0  3  0  0  0  0  0  0
   35.7840   27.1940   31.4650 C   0  0  0  0  0  0  0  0  0  0  0  0
   36.4600   28.2480   30.8680 C   0  0  0  0  0  0  0  0  0  0  0  0
   36.1650   29.3220   31.7050 C   0  0  0  0  0  0  0  0  0  0  0  0
   35.3610   28.8880   32.7220 C   0  0  0  0  0  0  0  0  0  0  0  0
   35.1550   27.6020   32.5420 O   0  0  0  0  0  0  0  0  0  0  0  0
   37.0720   28.2270   29.9620 H   0  0  0  0  0  0  0  0  0  0  0  0
   36.5440   30.3310   31.5250 H   0  0  0  0  0  0  0  0  0  0  0  0
   33.4560   29.6050   34.1010 C   0  0  0  0  0  0  0  0  0  0  0  0
   34.8150   29.6800   33.8210 C   0  0  0  0  0  0  0  0  0  0  0  0
   35.6680   30.4890   34.5620 C   0  0  0  0  0  0  0  0  0  0  0  0
   35.1690   31.2450   35.6060 C   0  0  0  0  0  0  0  0  0  0  0  0
   35.7130   32.1090   36.4960 N   0  0  0  0  0  0  0  0  0  0  0  0
   34.7410   32.5420   37.2800 N   0  0  0  0  0  0  0  0  0  0  0  0
   33.5740   31.9700   36.9090 C   0  0  0  0  0  0  0  0  0  0  0  0
   33.8240   31.1320   35.8360 C   0  0  0  0  0  0  0  0  0  0  0  0
   32.9230   30.3600   35.1530 C   0  0  0  0  0  0  0  0  0  0  0  0
   32.7840   28.9730   33.5240 H   0  0  0  0  0  0  0  0  0  0  0  0
   36.7250   30.5230   34.3150 H   0  0  0  0  0  0  0  0  0  0  0  0
   36.7460   32.3160   36.4640 H   0  0  0  0  0  0  0  0  0  0  0  0
   32.6380   32.1800   37.4160 H   0  0  0  0  0  0  0  0  0  0  0  0
   31.8700   30.3290   35.4020 H   0  0  0  0  0  0  0  0  0  0  0  0
  1  7  1  0  0  0  0
  1 23  1  0  0  0  0
  2  1  2  0  0  0  0
  3  4  1  0  0  0  0
  4 10  1  0  0  0  0
  4  5  2  0  0  0  0
  5 11  1  0  0  0  0
  6  5  1  0  0  0  0
  7  6  2  0  0  0  0
  8  3  2  0  0  0  0
  8  7  1  0  0  0  0
  9  3  1  0  0  0  0
 11 12  2  0  0  0  0
 11 22  1  0  0  0  0
 12 14  1  0  0  0  0
 13 12  1  0  0  0  0
 14 15  2  0  0  0  0
 15 16  1  0  0  0  0
 16 17  2  0  0  0  0
 17 18  1  0  0  0  0
 19 17  1  0  0  0  0
 20 19  2  0  0  0  0
 21 15  1  0  0  0  0
 21 20  1  0  0  0  0
 22 21  2  0  0  0  0
 23 27  1  0  0  0  0
 24 23  2  0  0  0  0
 24 25  1  0  0  0  0
 25 26  2  0  0  0  0
 26 31  1  0  0  0  0
 27 26  1  0  0  0  0
 28 24  1  0  0  0  0
 29 25  1  0  0  0  0
 30 38  1  0  0  0  0
 31 30  2  0  0  0  0
 31 32  1  0  0  0  0
 32 33  2  0  0  0  0
 33 37  1  0  0  0  0
 33 34  1  0  0  0  0
 34 35  1  0  0  0  0
 36 35  2  0  0  0  0
 36 42  1  0  0  0  0
 37 36  1  0  0  0  0
 38 43  1  0  0  0  0
 38 37  2  0  0  0  0
 39 30  1  0  0  0  0
 40 32  1  0  0  0  0
 41 34  1  0  0  0  0
M  END
>  <minimizedAffinity>
-7.07671642

$$$$
