REMARK  Name = 
REMARK  3 active torsions:
REMARK  status: ('A' for Active; 'I' for Inactive)
REMARK    1  A    between atoms: C_3  and  C_13
REMARK    2  A    between atoms: C_8  and  C_15
REMARK    3  A    between atoms: C_15  and  C_23
REMARK                            x       y       z     vdW  Elec       q    Type
REMARK                         _______ _______ _______ _____ _____    ______ ____
ROOT
ATOM      1 CL   UNL     1      38.470  30.796  49.843  0.00  0.00    +0.000 Cl
ATOM      2  C   UNL     1      37.095  30.346  48.891  0.00  0.00    +0.000 A 
ATOM      3  C   UNL     1      37.102  30.621  47.538  0.00  0.00    +0.000 A 
ATOM      4  C   UNL     1      36.037  30.291  46.734  0.00  0.00    +0.000 A 
ATOM      5  C   UNL     1      34.928  29.675  47.260  0.00  0.00    +0.000 A 
ATOM      6  C   UNL     1      34.892  29.387  48.615  0.00  0.00    +0.000 A 
ATOM      7 CL   UNL     1      33.521  28.617  49.390  0.00  0.00    +0.000 Cl
ATOM      8  C   UNL     1      35.996  29.739  49.398  0.00  0.00    +0.000 A 
ATOM      9  H   UNL     1      35.983  30.480  45.669  0.00  0.00    +0.000 HD
ATOM     10  H   UNL     1      34.058  29.389  46.688  0.00  0.00    +0.000 HD
ENDROOT
BRANCH   3  15
ATOM     11  C   UNL     1      39.593  33.168  46.651  0.00  0.00    +0.000 A 
ATOM     12  C   UNL     1      40.458  32.477  45.788  0.00  0.00    +0.000 A 
ATOM     13  C   UNL     1      40.157  31.119  45.527  0.00  0.00    +0.000 A 
ATOM     14  N   UNL     1      39.063  30.584  46.124  0.00  0.00    +0.000 NA
ATOM     15  C   UNL     1      38.253  31.271  46.946  0.00  0.00    +0.000 A 
ATOM     16  N   UNL     1      38.542  32.563  47.193  0.00  0.00    +0.000 NA
ATOM     17  H   UNL     1      39.879  34.202  46.809  0.00  0.00    +0.000 HD
ATOM     18  H   UNL     1      41.340  32.850  45.286  0.00  0.00    +0.000 HD
ATOM     19  H   UNL     1      40.715  30.446  44.891  0.00  0.00    +0.000 HD
ENDBRANCH   3  15
BRANCH   8  20
ATOM     20  C   UNL     1      35.944  29.454  50.854  0.00  0.00    +0.000 C 
ATOM     21  H   UNL     1      36.232  30.427  51.345  0.00  0.00    +0.000 HD
ATOM     22  H   UNL     1      34.855  29.353  51.148  0.00  0.00    +0.000 HD
BRANCH  20  23
ATOM     23  C   UNL     1      36.751  28.334  51.325  0.00  0.00    +0.000 A 
ATOM     24  C   UNL     1      37.489  28.408  52.488  0.00  0.00    +0.000 A 
ATOM     25  H   UNL     1      37.506  29.278  53.127  0.00  0.00    +0.000 HD
ATOM     26  C   UNL     1      38.292  27.402  52.989  0.00  0.00    +0.000 A 
ATOM     27  C   UNL     1      38.390  26.213  52.299  0.00  0.00    +0.000 A 
ATOM     28  N   UNL     1      39.159  25.206  52.747  0.00  0.00    +0.000 NA
ATOM     29  C   UNL     1      39.267  24.039  52.088  0.00  0.00    +0.000 A 
ATOM     30  H   UNL     1      39.890  23.236  52.461  0.00  0.00    +0.000 HD
ATOM     31  C   UNL     1      38.572  23.846  50.905  0.00  0.00    +0.000 A 
ATOM     32  C   UNL     1      37.783  24.879  50.443  0.00  0.00    +0.000 A 
ATOM     33  C   UNL     1      37.680  26.067  51.127  0.00  0.00    +0.000 A 
ATOM     34  C   UNL     1      36.907  27.113  50.699  0.00  0.00    +0.000 A 
ENDBRANCH  20  23
ENDBRANCH   8  20
TORSDOF 3
