
 OpenBabel03272509583D

 49 53  0  0  0  0  0  0  0  0999 V2000
   33.4930   27.4770   47.7440 C   0  0  0  0  0  0  0  0  0  0  0  0
   33.6520   26.6010   48.3720 H   0  0  0  0  0  0  0  0  0  0  0  0
   33.7120   27.1570   46.7010 H   0  0  0  0  0  0  0  0  0  0  0  0
   32.0550   27.8650   47.7610 C   0  0  0  0  0  0  0  0  0  0  0  0
   31.2980   27.4420   48.8370 C   0  0  0  0  0  0  0  0  0  0  0  0
   29.9570   27.7480   48.9490 C   0  0  0  0  0  0  0  0  0  0  0  0
   29.3760   28.4730   47.9920 N   0  0  0  0  0  0  0  0  0  0  0  0
   30.1290   28.8830   46.9400 C   0  0  0  0  0  0  0  0  0  0  0  0
   31.4350   28.5940   46.8150 N   0  0  0  0  0  0  0  0  0  0  0  0
   31.7250   26.8530   49.6370 H   0  0  0  0  0  0  0  0  0  0  0  0
   29.3470   27.4180   49.7970 H   0  0  0  0  0  0  0  0  0  0  0  0
   29.4580   29.6890   45.8850 C   0  0  0  0  0  0  0  0  0  0  0  0
   29.0910   30.6610   46.2740 H   0  0  0  0  0  0  0  0  0  0  0  0
   30.2370   29.9430   45.1350 H   0  0  0  0  0  0  0  0  0  0  0  0
   28.3450   28.9180   45.2410 C   0  0  0  0  0  0  0  0  0  0  0  0
   27.0440   29.3720   45.1920 C   0  0  0  0  0  0  0  0  0  0  0  0
   26.8080   30.3290   45.6380 H   0  0  0  0  0  0  0  0  0  0  0  0
   26.1160   28.5580   44.5670 C   0  0  0  0  0  3  0  0  0  0  0  0
   26.4620   27.3340   44.0070 C   0  0  0  0  0  0  0  0  0  0  0  0
   25.5610   26.5520   43.4050 N   0  0  0  0  0  0  0  0  0  0  0  0
   25.9470   25.3730   42.8770 C   0  0  0  0  0  0  0  0  0  0  0  0
   25.2600   24.6920   42.3740 H   0  0  0  0  0  0  0  0  0  0  0  0
   27.2610   24.9030   42.9220 C   0  0  0  0  0  3  0  0  0  0  0  0
   28.1990   25.6820   43.5310 C   0  0  0  0  0  3  0  0  0  0  0  0
   27.7830   26.8880   44.0650 C   0  0  0  0  0  0  0  0  0  0  0  0
   28.6970   27.6890   44.6810 C   0  0  0  0  0  3  0  0  0  0  0  0
   34.4000   28.5790   48.1830 C   0  0  0  0  0  0  0  0  0  0  0  0
   33.9090   29.5720   48.1810 H   0  0  0  0  0  0  0  0  0  0  0  0
   35.2400   28.6430   47.4590 H   0  0  0  0  0  0  0  0  0  0  0  0
   34.9900   28.3030   49.4380 O   0  0  0  0  0  0  0  0  0  0  0  0
   37.2990   30.1730   51.4790 C   0  0  0  0  0  0  0  0  0  0  0  0
   38.0330   30.8560   50.4770 C   0  0  0  0  0  0  0  0  0  0  0  0
   37.6710   30.6150   49.1540 C   0  0  0  0  0  0  0  0  0  0  0  0
   36.6380   29.7400   48.9550 N   0  0  0  0  0  0  0  0  0  0  0  0
   35.9640   29.1130   49.9140 C   0  0  0  0  0  0  0  0  0  0  0  0
   36.3060   29.3360   51.1970 N   0  0  0  0  0  0  0  0  0  0  0  0
   37.6340   30.4080   52.4770 H   0  0  0  0  0  0  0  0  0  0  0  0
   38.8390   31.5350   50.6610 H   0  0  0  0  0  0  0  0  0  0  0  0
   38.9740   33.1920   48.9610 F   0  0  0  0  0  0  0  0  0  0  0  0
   38.9110   32.4080   47.8920 C   0  0  0  0  0  0  0  0  0  0  0  0
   38.3010   31.2160   48.0080 C   0  0  0  0  0  0  0  0  0  0  0  0
   38.2910   30.4690   46.8240 C   0  0  0  0  0  0  0  0  0  0  0  0
   38.8540   30.9230   45.6640 C   0  0  0  0  0  0  0  0  0  0  0  0
   39.4680   32.1540   45.6010 C   0  0  0  0  0  0  0  0  0  0  0  0
   39.4860   32.8900   46.7400 C   0  0  0  0  0  0  0  0  0  0  0  0
   37.8330   29.4870   46.7710 H   0  0  0  0  0  0  0  0  0  0  0  0
   38.8420   30.3310   44.7410 H   0  0  0  0  0  0  0  0  0  0  0  0
   39.9060   32.4930   44.6780 H   0  0  0  0  0  0  0  0  0  0  0  0
   39.9650   33.8610   46.7090 H   0  0  0  0  0  0  0  0  0  0  0  0
  1  4  1  0  0  0  0
  1 27  1  0  0  0  0
  1  2  1  0  0  0  0
  3  1  1  0  0  0  0
  4  5  1  0  0  0  0
  5  6  2  0  0  0  0
  5 10  1  0  0  0  0
  6 11  1  0  0  0  0
  7  6  1  0  0  0  0
  8  7  2  0  0  0  0
  9  8  1  0  0  0  0
  9  4  2  0  0  0  0
 12 13  1  0  0  0  0
 12  8  1  0  0  0  0
 14 12  1  0  0  0  0
 15 12  1  0  0  0  0
 16 15  1  0  0  0  0
 16 17  1  0  0  0  0
 18 16  2  0  0  0  0
 19 25  1  0  0  0  0
 19 18  1  0  0  0  0
 20 19  2  0  0  0  0
 21 23  2  0  0  0  0
 21 20  1  0  0  0  0
 22 21  1  0  0  0  0
 23 24  1  0  0  0  0
 24 25  2  0  0  0  0
 25 26  1  0  0  0  0
 26 15  2  0  0  0  0
 27 30  1  0  0  0  0
 28 27  1  0  0  0  0
 29 27  1  0  0  0  0
 30 35  1  0  0  0  0
 31 37  1  0  0  0  0
 32 38  1  0  0  0  0
 32 31  2  0  0  0  0
 33 32  1  0  0  0  0
 34 33  2  0  0  0  0
 34 35  1  0  0  0  0
 35 36  2  0  0  0  0
 36 31  1  0  0  0  0
 40 41  1  0  0  0  0
 40 39  1  0  0  0  0
 41 33  1  0  0  0  0
 42 41  2  0  0  0  0
 43 42  1  0  0  0  0
 44 43  2  0  0  0  0
 44 45  1  0  0  0  0
 45 40  2  0  0  0  0
 46 42  1  0  0  0  0
 47 43  1  0  0  0  0
 48 44  1  0  0  0  0
 49 45  1  0  0  0  0
M  END
>  <minimizedAffinity>
-6.9883976

>  <minimizedRMSD>
1.42675722

$$$$
