
 OpenBabel03272503173D

 28 31  0  0  0  0  0  0  0  0999 V2000
   38.1640   31.0670   47.9540 C   0  0  0  0  0  0  0  0  0  0  0  0
   38.9100   32.1580   47.7440 C   0  0  0  0  0  0  0  0  0  0  0  0
   39.3900   32.4460   46.5210 C   0  0  0  0  0  0  0  0  0  0  0  0
   39.0640   31.5520   45.5070 C   0  0  0  0  0  0  0  0  0  0  0  0
   38.0500   30.2920   46.3810 S   0  0  0  0  0  0  0  0  0  0  0  0
   39.1180   32.8120   48.6100 H   0  0  0  0  0  0  0  0  0  0  0  0
   39.9980   33.2920   46.2370 H   0  0  0  0  0  0  0  0  0  0  0  0
   39.3970   31.5420   44.0990 C   0  0  0  0  0  0  0  0  0  0  0  0
   38.9160   32.5280   43.3060 C   0  0  0  0  0  0  0  0  0  0  0  0
   38.2890   33.3060   43.7350 H   0  0  0  0  0  0  0  0  0  0  0  0
   39.2540   32.4890   41.9670 C   0  0  0  0  0  0  0  0  0  0  0  0
   40.0600   31.4710   41.4570 C   0  0  0  0  0  0  0  0  0  0  0  0
   40.3980   31.4200   40.1540 N   0  0  0  0  0  0  0  0  0  0  0  0
   41.1820   30.4170   39.6980 C   0  0  0  0  0  0  0  0  0  0  0  0
   41.4400   30.3960   38.6560 H   0  0  0  0  0  0  0  0  0  0  0  0
   41.6580   29.4290   40.5260 C   0  0  0  0  0  0  0  0  0  0  0  0
   41.3240   29.4660   41.8560 C   0  0  0  0  0  0  0  0  0  0  0  0
   40.5280   30.4840   42.3150 C   0  0  0  0  0  0  0  0  0  0  0  0
   40.1970   30.5130   43.6560 C   0  0  0  0  0  0  0  0  0  0  0  0
   37.3760   30.2680   51.5430 C   0  0  0  0  0  0  0  0  0  0  0  0
   38.0500   30.8180   50.4410 C   0  0  0  0  0  0  0  0  0  0  0  0
   37.5380   30.5440   49.1630 C   0  0  0  0  0  0  0  0  0  0  0  0
   36.4400   29.7790   49.0540 N   0  0  0  0  0  0  0  0  0  0  0  0
   35.8150   29.2650   50.1250 C   0  0  0  0  0  0  0  0  0  0  0  0
   36.2880   29.5140   51.3630 N   0  0  0  0  0  0  0  0  0  0  0  0
   37.8110   30.5100   52.5040 H   0  0  0  0  0  0  0  0  0  0  0  0
   38.9360   31.4380   50.4930 H   0  0  0  0  0  0  0  0  0  0  0  0
   34.9380   28.6610   49.9230 H   0  0  0  0  0  0  0  0  0  0  0  0
  1 22  1  0  0  0  0
  2  1  2  0  0  0  0
  2  6  1  0  0  0  0
  3  2  1  0  0  0  0
  4  5  1  0  0  0  0
  4  3  2  0  0  0  0
  5  1  1  0  0  0  0
  7  3  1  0  0  0  0
  8  4  1  0  0  0  0
  9 10  1  0  0  0  0
  9  8  2  0  0  0  0
 11  9  1  0  0  0  0
 12 11  2  0  0  0  0
 12 18  1  0  0  0  0
 13 12  1  0  0  0  0
 14 13  2  0  0  0  0
 14 16  1  0  0  0  0
 15 14  1  0  0  0  0
 16 17  2  0  0  0  0
 17 18  1  0  0  0  0
 18 19  2  0  0  0  0
 19  8  1  0  0  0  0
 20 26  1  0  0  0  0
 21 27  1  0  0  0  0
 21 20  2  0  0  0  0
 22 21  1  0  0  0  0
 23 22  2  0  0  0  0
 23 24  1  0  0  0  0
 24 25  2  0  0  0  0
 25 20  1  0  0  0  0
 28 24  1  0  0  0  0
M  END
>  <minimizedAffinity>
-5.89536476

>  <minimizedRMSD>
1.29340708

$$$$
