
     RDKit          3D

 43 47  0  0  0  0  0  0  0  0999 V2000
   37.3107   29.3357   51.0316 Br  0  0  0  0  0  0  0  0  0  0  0  0
   35.9622   29.3259   49.6863 C   0  0  0  0  0  0  0  0  0  0  0  0
   35.9890   30.2581   48.6419 C   0  0  0  0  0  0  0  0  0  0  0  0
   34.9923   30.2005   47.7055 C   0  0  0  0  0  0  0  0  0  0  0  0
   33.9660   29.2622   47.7512 C   0  0  0  0  0  0  0  0  0  0  0  0
   33.9619   28.3662   48.7767 C   0  0  0  0  0  0  0  0  0  0  0  0
   34.9564   28.4101   49.7267 C   0  0  0  0  0  0  0  0  0  0  0  0
   37.9924   33.1950   49.4506 C   0  0  0  0  0  0  0  0  0  0  0  0
   39.0263   33.1748   48.4682 C   0  0  0  0  0  0  0  0  0  0  0  0
   39.0058   32.1454   47.5491 C   0  0  0  0  0  0  0  0  0  0  0  0
   38.0137   31.2009   47.6132 N   0  0  0  0  0  0  0  0  0  0  0  0
   37.0446   31.2512   48.5628 C   0  0  0  0  0  0  0  0  0  0  0  0
   37.0474   32.2536   49.4737 N   0  0  0  0  0  0  0  0  0  0  0  0
   32.9052   29.1957   46.7605 C   0  0  0  0  0  0  0  0  0  0  0  0
   32.2710   28.0437   46.3564 C   0  0  0  0  0  0  0  0  0  0  0  0
   31.2604   28.0289   45.4043 C   0  0  0  0  0  0  0  0  0  0  0  0
   30.8719   29.1870   44.8413 N   0  0  0  0  0  0  0  0  0  0  0  0
   31.4850   30.3100   45.2302 C   0  0  0  0  0  0  0  0  0  0  0  0
   32.4529   30.3031   46.1457 N   0  0  0  0  0  0  0  0  0  0  0  0
   34.9504   30.8936   46.8669 H   0  0  0  0  0  0  0  0  0  0  0  0
   33.2163   27.5940   48.9139 H   0  0  0  0  0  0  0  0  0  0  0  0
   34.9656   27.6969   50.5556 H   0  0  0  0  0  0  0  0  0  0  0  0
   38.0442   34.0266   50.1603 H   0  0  0  0  0  0  0  0  0  0  0  0
   39.8152   33.8781   48.3737 H   0  0  0  0  0  0  0  0  0  0  0  0
   39.7180   32.0111   46.7625 H   0  0  0  0  0  0  0  0  0  0  0  0
   32.5925   27.0974   46.8204 H   0  0  0  0  0  0  0  0  0  0  0  0
   30.8370   27.0538   45.1696 H   0  0  0  0  0  0  0  0  0  0  0  0
   31.0774   31.5761   44.6308 C   0  0  0  0  0  0  0  0  0  0  0  0
   31.8734   32.7104   44.7608 C   0  0  0  0  0  0  0  0  0  0  0  0
   32.7986   32.6215   45.3178 H   0  0  0  0  0  0  0  0  0  0  0  0
   31.5817   33.9383   44.2389 C   0  0  0  0  0  0  0  0  0  0  0  0
   30.4045   34.0540   43.5294 C   0  0  0  0  0  0  0  0  0  0  0  0
   30.0931   35.2536   43.0043 N   0  0  0  0  0  0  0  0  0  0  0  0
   28.9673   35.4687   42.2956 C   0  0  0  0  0  0  0  0  0  0  0  0
   28.7521   36.4357   41.8930 H   0  0  0  0  0  0  0  0  0  0  0  0
   28.1129   34.3880   42.1167 C   0  0  0  0  0  0  0  0  0  0  0  0
   28.3943   33.1278   42.6419 C   0  0  0  0  0  0  0  0  0  0  0  0
   29.5619   32.9653   43.3595 C   0  0  0  0  0  0  0  0  0  0  0  0
   29.9258   31.7484   43.9196 C   0  0  0  0  0  0  0  0  0  0  0  0
   32.2497   34.7747   44.3813 H   0  0  0  0  0  0  0  0  0  0  0  0
   27.2223   34.5793   41.5499 H   0  0  0  0  0  0  0  0  0  0  0  0
   27.7201   32.2959   42.4947 H   0  0  0  0  0  0  0  0  0  0  0  0
   29.2597   30.9116   43.7785 H   0  0  0  0  0  0  0  0  0  0  0  0
  2  7  2  0
  2  1  1  0
  3  2  1  0
  4  5  1  0
  4  3  2  0
  5  6  2  0
  6  7  1  0
  8 13  2  0
  9  8  1  0
 10 11  1  0
 10  9  2  0
 11 12  2  0
 12  3  1  0
 12 13  1  0
 14  5  1  0
 15 14  2  0
 16 15  1  0
 17 18  1  0
 17 16  2  0
 18 19  2  0
 19 14  1  0
  4 20  1  0
  6 21  1  0
  7 22  1  0
  8 23  1  0
  9 24  1  0
 10 25  1  0
 15 26  1  0
 16 27  1  0
 28 29  2  0
 29 30  1  0
 29 31  1  0
 31 32  2  0
 32 33  1  0
 33 34  2  0
 34 35  1  0
 34 36  1  0
 36 37  2  0
 37 38  1  0
 38 39  2  0
 39 28  1  0
 38 32  1  0
 31 40  1  0
 36 41  1  0
 37 42  1  0
 39 43  1  0
 18 28  1  0
M  ISO  8  20  14  21  14  22  14  23  14  24  14  25  14  26  14  27  14
M  ISO  2  30  16  35  16
M  END
>  <DihAtoms>  (1) 
16,17,27,28

>  <DihDeg>  (1) 
-179.9973475908399

$$$$
