
     RDKit          3D

 53 58  0  0  0  0  0  0  0  0999 V2000
   38.1259   30.1435   47.4907 F   0  0  0  0  0  0  0  0  0  0  0  0
   38.3847   31.3992   47.9749 C   0  0  0  0  0  0  0  0  0  0  0  0
   37.7195   31.8332   49.0866 C   0  0  0  0  0  0  0  0  0  0  0  0
   38.0196   33.0935   49.5222 C   0  0  0  0  0  0  0  0  0  0  0  0
   38.9346   33.8982   48.8950 C   0  0  0  0  0  0  0  0  0  0  0  0
   39.5986   33.4332   47.7649 C   0  0  0  0  0  0  0  0  0  0  0  0
   39.3043   32.1541   47.3099 C   0  0  0  0  0  0  0  0  0  0  0  0
   36.0763   29.3677   51.4413 C   0  0  0  0  0  0  0  0  0  0  0  0
   37.0466   30.2230   50.8594 C   0  0  0  0  0  0  0  0  0  0  0  0
   36.7544   30.9415   49.7205 C   0  0  0  0  0  0  0  0  0  0  0  0
   35.4927   30.7874   49.1874 N   0  0  0  0  0  0  0  0  0  0  0  0
   34.5825   29.9718   49.7513 C   0  0  0  0  0  0  0  0  0  0  0  0
   34.8705   29.2808   50.8506 N   0  0  0  0  0  0  0  0  0  0  0  0
   39.2639   31.9003   44.9285 C   0  0  0  0  0  0  0  0  0  0  0  0
   38.1813   32.5574   45.0489 O   0  0  0  0  0  0  0  0  0  0  0  0
   39.9599   31.6253   46.1491 N   0  0  0  0  0  0  0  0  0  0  0  0
   39.1893   32.1959   42.5575 C   0  0  0  0  0  0  0  0  0  0  0  0
   39.7207   31.4799   43.6165 C   0  0  0  0  0  0  0  0  0  0  0  0
   40.6034   30.4591   43.4564 C   0  0  0  0  0  0  0  0  0  0  0  0
   41.0120   30.0923   42.1784 C   0  0  0  0  0  0  0  0  0  0  0  0
   41.8451   29.1548   41.7308 N   0  0  0  0  0  0  0  0  0  0  0  0
   41.8635   29.2505   40.3962 C   0  0  0  0  0  0  0  0  0  0  0  0
   41.0449   30.2441   40.0090 N   0  0  0  0  0  0  0  0  0  0  0  0
   40.4845   30.8041   41.1148 C   0  0  0  0  0  0  0  0  0  0  0  0
   39.5842   31.8470   41.2572 C   0  0  0  0  0  0  0  0  0  0  0  0
   39.0650   32.5492   40.1931 O   0  0  0  0  0  0  0  0  0  0  0  0
   37.5003   33.4623   50.4095 H   0  0  0  0  0  0  0  0  0  0  0  0
   39.1802   34.8838   49.2220 H   0  0  0  0  0  0  0  0  0  0  0  0
   40.3409   33.9690   47.1807 H   0  0  0  0  0  0  0  0  0  0  0  0
   36.2970   28.8013   52.3335 H   0  0  0  0  0  0  0  0  0  0  0  0
   38.0279   30.3176   51.3081 H   0  0  0  0  0  0  0  0  0  0  0  0
   33.6581   29.9926   49.1806 H   0  0  0  0  0  0  0  0  0  0  0  0
   40.8335   31.0956   46.1013 H   0  0  0  0  0  0  0  0  0  0  0  0
   38.4975   32.9958   42.6843 H   0  0  0  0  0  0  0  0  0  0  0  0
   41.0000   29.9202   44.2990 H   0  0  0  0  0  0  0  0  0  0  0  0
   42.4038   28.4526   42.2690 H   0  0  0  0  0  0  0  0  0  0  0  0
   42.3775   28.7152   39.6283 H   0  0  0  0  0  0  0  0  0  0  0  0
   38.3268   32.0562   39.1573 C   0  0  0  0  0  0  0  0  0  0  0  0
   37.8809   32.9234   38.1591 C   0  0  0  0  0  0  0  0  0  0  0  0
   38.1223   33.9930   38.2072 H   0  0  0  0  0  0  0  0  0  0  0  0
   37.1346   32.4817   37.0939 C   0  0  0  0  0  0  0  0  0  0  0  0
   36.7887   31.1521   36.9599 C   0  0  0  0  0  0  0  0  0  0  0  0
   36.0646   30.6720   35.9429 N   0  0  0  0  0  0  0  0  0  0  0  0
   35.7323   29.3794   35.8193 C   0  0  0  0  0  0  0  0  0  0  0  0
   35.1394   28.9952   34.9836 H   0  0  0  0  0  0  0  0  0  0  0  0
   36.1334   28.4413   36.7677 C   0  0  0  0  0  0  0  0  0  0  0  0
   36.8854   28.9156   37.8318 C   0  0  0  0  0  0  0  0  0  0  0  0
   37.2137   30.2470   37.9366 C   0  0  0  0  0  0  0  0  0  0  0  0
   37.9640   30.7538   38.9875 C   0  0  0  0  0  0  0  0  0  0  0  0
   36.7718   33.1229   36.3022 H   0  0  0  0  0  0  0  0  0  0  0  0
   35.9157   27.3821   36.7547 H   0  0  0  0  0  0  0  0  0  0  0  0
   37.2215   28.2237   38.5964 H   0  0  0  0  0  0  0  0  0  0  0  0
   38.2690   30.0276   39.7128 H   0  0  0  0  0  0  0  0  0  0  0  0
  1  2  1  0
  2  3  2  0
  3  4  1  0
  3 10  1  0
  5  4  2  0
  6  5  1  0
  7  6  2  0
  7  2  1  0
  9  8  2  0
 10  9  1  0
 11 10  2  0
 11 12  1  0
 12 13  2  0
 13  8  1  0
 14 15  2  0
 14 16  1  0
 16  7  1  0
 17 18  2  0
 18 14  1  0
 19 18  1  0
 20 19  2  0
 21 20  1  0
 22 21  1  0
 23 22  2  0
 23 24  1  0
 24 25  2  0
 24 20  1  0
 25 17  1  0
 26 25  1  0
  4 27  1  0
  5 28  1  0
  6 29  1  0
  8 30  1  0
  9 31  1  0
 12 32  1  0
 16 33  1  0
 17 34  1  0
 19 35  1  0
 21 36  1  0
 22 37  1  0
 38 39  2  0
 39 40  1  0
 39 41  1  0
 41 42  2  0
 42 43  1  0
 43 44  2  0
 44 45  1  0
 44 46  1  0
 46 47  2  0
 47 48  1  0
 48 49  2  0
 49 38  1  0
 48 42  1  0
 41 50  1  0
 46 51  1  0
 47 52  1  0
 49 53  1  0
 26 38  1  0
M  ISO  8  27  14  28  14  29  14  30  14  31  14  32  14  34  14  35  14
M  ISO  4  36   9  37  14  40  16  45  16
M  END
>  <DihAtoms>  (1) 
24,25,37,38

>  <DihDeg>  (1) 
179.99666334750202

$$$$
