
 OpenBabel03272501413D

 48 53  0  0  1  0  0  0  0  0999 V2000
   35.3190   24.3920   30.9890 C   0  0  0  0  0  0  0  0  0  0  0  0
   36.4750   23.7310   31.3330 C   0  0  0  0  0  0  0  0  0  0  0  0
   37.5930   24.3970   31.8580 C   0  0  0  0  0  0  0  0  0  0  0  0
   37.4950   25.6900   32.0160 N   0  0  0  0  0  0  0  0  0  0  0  0
   36.3370   26.3390   31.6720 C   0  0  0  0  0  0  0  0  0  0  0  0
   35.2790   25.7090   31.1710 N   0  0  0  0  0  0  0  0  0  0  0  0
   34.4640   23.8670   30.5830 H   0  0  0  0  0  0  0  0  0  0  0  0
   36.4660   22.6530   31.1690 H   0  0  0  0  0  0  0  0  0  0  0  0
   36.2070   27.7840   31.8520 C   0  0  0  0  0  0  0  0  0  0  0  0
   36.2720   28.8140   30.9390 C   0  0  0  0  0  0  0  0  0  0  0  0
   36.1120   30.0820   31.3540 C   0  0  0  0  0  0  0  0  0  0  0  0
   35.8880   30.2640   32.7230 C   0  0  0  0  0  0  0  0  0  0  0  0
   35.9090   28.5620   33.4090 S   0  0  0  0  0  0  0  0  0  0  0  0
   36.4510   28.5380   29.9070 H   0  0  0  0  0  0  0  0  0  0  0  0
   36.1410   30.9560   30.7440 H   0  0  0  0  0  0  0  0  0  0  0  0
   35.6770   31.4520   33.5140 C   0  0  0  0  0  0  0  0  0  0  0  0
   35.9650   32.6260   32.8980 C   0  0  0  0  0  0  0  0  0  0  0  0
   36.3270   32.7020   31.8860 H   0  0  0  0  0  0  0  0  0  0  0  0
   35.7840   33.8140   33.6030 C   0  0  0  0  0  3  0  0  0  0  0  0
   35.3200   33.7340   34.9000 C   0  0  0  0  0  0  0  0  0  0  0  0
   35.1220   34.8280   35.6400 N   0  0  0  0  0  0  0  0  0  0  0  0
   34.6730   34.7700   36.8990 C   0  0  0  0  0  0  0  0  0  0  0  0
   34.5580   35.7280   37.3800 H   0  0  0  0  0  0  0  0  0  0  0  0
   34.3690   33.5840   37.5590 C   0  0  0  0  0  3  0  0  0  0  0  0
   34.5750   32.4640   36.7910 C   0  0  0  0  0  3  0  0  0  0  0  0
   35.0380   32.5000   35.4930 C   0  0  0  0  0  0  0  0  0  0  0  0
   35.2160   31.3220   34.7930 C   0  0  0  0  0  3  0  0  0  0  0  0
   38.7530   23.5770   32.0720 C   0  0  1  0  0  0  0  0  0  0  0  0
   39.5470   24.3170   31.6490 H   0  0  0  0  0  0  0  0  0  0  0  0
   39.1580   23.3360   33.5090 C   0  0  2  0  0  0  0  0  0  0  0  0
   38.5840   21.9790   33.9040 C   0  0  0  0  0  0  0  0  0  0  0  0
   38.1590   23.2540   34.5460 C   0  0  1  0  0  0  0  0  0  0  0  0
   40.2160   23.5330   33.6950 H   0  0  0  0  0  0  0  0  0  0  0  0
   39.3180   21.3360   34.4270 H   0  0  0  0  0  0  0  0  0  0  0  0
   37.8000   21.4590   33.3650 H   0  0  0  0  0  0  0  0  0  0  0  0
   37.1980   23.7500   34.2970 H   0  0  0  0  0  0  0  0  0  0  0  0
   38.4240   23.3100   35.9900 C   0  0  0  0  0  0  0  0  0  0  0  0
   39.5660   22.7100   36.4550 C   0  0  0  0  0  0  0  0  0  0  0  0
   39.7980   22.8050   37.8080 C   0  0  0  0  0  0  0  0  0  0  0  0
   38.9630   23.4540   38.6820 C   0  0  0  0  0  0  0  0  0  0  0  0
   37.8240   24.0460   38.1740 C   0  0  0  0  0  0  0  0  0  0  0  0
   37.5750   23.9650   36.8530 N   0  0  0  0  0  0  0  0  0  0  0  0
   40.2900   22.1770   35.8720 H   0  0  0  0  0  0  0  0  0  0  0  0
   40.6770   22.3620   38.2730 H   0  0  0  0  0  0  0  0  0  0  0  0
   39.1300   23.5370   39.7370 H   0  0  0  0  0  0  0  0  0  0  0  0
   37.0980   24.5820   38.7740 H   0  0  0  0  0  0  0  0  0  0  0  0
   39.0430   22.5820   31.2770 O   0  0  0  0  0  0  0  0  0  0  0  0
   39.9340   22.3660   30.9780 H   0  0  0  0  0  0  0  0  0  0  0  0
  1  6  2  0  0  0  0
  1  2  1  0  0  0  0
  2  3  2  0  0  0  0
  3  4  1  0  0  0  0
  3 28  1  0  0  0  0
  5  9  1  0  0  0  0
  5  4  2  0  0  0  0
  6  5  1  0  0  0  0
  7  1  1  0  0  0  0
  8  2  1  0  0  0  0
  9 13  1  0  0  0  0
 10 11  1  0  0  0  0
 10  9  2  0  0  0  0
 11 12  2  0  0  0  0
 12 13  1  0  0  0  0
 12 16  1  0  0  0  0
 14 10  1  0  0  0  0
 15 11  1  0  0  0  0
 16 27  1  0  0  0  0
 17 16  2  0  0  0  0
 17 19  1  0  0  0  0
 18 17  1  0  0  0  0
 19 20  2  0  0  0  0
 20 26  1  0  0  0  0
 20 21  1  0  0  0  0
 21 22  2  0  0  0  0
 22 23  1  0  0  0  0
 22 24  1  0  0  0  0
 25 24  2  0  0  0  0
 26 25  1  0  0  0  0
 27 26  2  0  0  0  0
 28 29  1  6  0  0  0
 28 30  1  0  0  0  0
 30 33  1  1  0  0  0
 30 31  1  0  0  0  0
 30 32  1  0  0  0  0
 31 34  1  0  0  0  0
 31 32  1  0  0  0  0
 32 36  1  6  0  0  0
 32 37  1  0  0  0  0
 35 31  1  0  0  0  0
 37 38  2  0  0  0  0
 37 42  1  0  0  0  0
 38 39  1  0  0  0  0
 39 44  1  0  0  0  0
 39 40  2  0  0  0  0
 40 45  1  0  0  0  0
 41 40  1  0  0  0  0
 41 46  1  0  0  0  0
 42 41  2  0  0  0  0
 43 38  1  0  0  0  0
 47 28  1  0  0  0  0
 48 47  1  0  0  0  0
M  END
>  <minimizedAffinity>
-6.85423613

$$$$

 OpenBabel03272501413D

 48 53  0  0  1  0  0  0  0  0999 V2000
   40.1660   25.7970   30.4290 C   0  0  0  0  0  0  0  0  0  0  0  0
   39.9690   24.5040   30.8530 C   0  0  0  0  0  0  0  0  0  0  0  0
   38.9010   24.1420   31.6900 C   0  0  0  0  0  0  0  0  0  0  0  0
   38.0830   25.0940   32.0550 N   0  0  0  0  0  0  0  0  0  0  0  0
   38.2890   26.3790   31.6240 C   0  0  0  0  0  0  0  0  0  0  0  0
   39.3010   26.7230   30.8350 N   0  0  0  0  0  0  0  0  0  0  0  0
   40.9940   26.0630   29.7850 H   0  0  0  0  0  0  0  0  0  0  0  0
   40.6980   23.7760   30.4970 H   0  0  0  0  0  0  0  0  0  0  0  0
   37.3770   27.4540   32.0160 C   0  0  0  0  0  0  0  0  0  0  0  0
   36.7740   28.4400   31.2660 C   0  0  0  0  0  0  0  0  0  0  0  0
   35.9570   29.3230   31.8640 C   0  0  0  0  0  0  0  0  0  0  0  0
   35.7760   29.1690   33.2430 C   0  0  0  0  0  0  0  0  0  0  0  0
   36.8130   27.7150   33.6690 S   0  0  0  0  0  0  0  0  0  0  0  0
   36.9980   28.4500   30.2070 H   0  0  0  0  0  0  0  0  0  0  0  0
   35.4370   30.1260   31.3910 H   0  0  0  0  0  0  0  0  0  0  0  0
   34.9910   29.9110   34.2000 C   0  0  0  0  0  0  0  0  0  0  0  0
   33.7210   29.4720   34.3830 C   0  0  0  0  0  0  0  0  0  0  0  0
   33.2950   28.6290   33.8650 H   0  0  0  0  0  0  0  0  0  0  0  0
   32.9060   30.1420   35.2930 C   0  0  0  0  0  3  0  0  0  0  0  0
   33.4370   31.2230   35.9650 C   0  0  0  0  0  0  0  0  0  0  0  0
   32.7190   31.9170   36.8530 N   0  0  0  0  0  0  0  0  0  0  0  0
   33.2170   32.9670   37.5140 C   0  0  0  0  0  0  0  0  0  0  0  0
   32.5290   33.4340   38.2000 H   0  0  0  0  0  0  0  0  0  0  0  0
   34.5140   33.4420   37.3490 C   0  0  0  0  0  3  0  0  0  0  0  0
   35.2460   32.7240   36.4350 C   0  0  0  0  0  3  0  0  0  0  0  0
   34.7540   31.6390   35.7430 C   0  0  0  0  0  0  0  0  0  0  0  0
   35.5610   30.9740   34.8400 C   0  0  0  0  0  3  0  0  0  0  0  0
   38.8930   22.7720   32.1200 C   0  0  1  0  0  0  0  0  0  0  0  0
   39.9020   22.4510   31.6360 H   0  0  0  0  0  0  0  0  0  0  0  0
   39.0650   22.5250   33.6020 C   0  0  2  0  0  0  0  0  0  0  0  0
   37.7820   21.8580   34.0870 C   0  0  0  0  0  0  0  0  0  0  0  0
   38.2230   23.2000   34.5580 C   0  0  1  0  0  0  0  0  0  0  0  0
   40.0230   22.0640   33.8520 H   0  0  0  0  0  0  0  0  0  0  0  0
   37.9700   20.9780   34.7310 H   0  0  0  0  0  0  0  0  0  0  0  0
   36.8430   21.8540   33.5430 H   0  0  0  0  0  0  0  0  0  0  0  0
   37.7650   24.1390   34.1830 H   0  0  0  0  0  0  0  0  0  0  0  0
   38.4650   23.2720   36.0050 C   0  0  0  0  0  0  0  0  0  0  0  0
   39.6060   22.6890   36.4930 C   0  0  0  0  0  0  0  0  0  0  0  0
   39.8170   22.7990   37.8480 C   0  0  0  0  0  0  0  0  0  0  0  0
   38.9620   23.4480   38.7040 C   0  0  0  0  0  0  0  0  0  0  0  0
   37.8240   24.0230   38.1730 C   0  0  0  0  0  0  0  0  0  0  0  0
   37.5970   23.9270   36.8490 N   0  0  0  0  0  0  0  0  0  0  0  0
   40.3440   22.1580   35.9260 H   0  0  0  0  0  0  0  0  0  0  0  0
   40.6930   22.3700   38.3310 H   0  0  0  0  0  0  0  0  0  0  0  0
   39.1120   23.5420   39.7600 H   0  0  0  0  0  0  0  0  0  0  0  0
   37.0840   24.5570   38.7570 H   0  0  0  0  0  0  0  0  0  0  0  0
   38.1550   21.8730   31.5260 O   0  0  0  0  0  0  0  0  0  0  0  0
   38.4420   20.9740   31.3320 H   0  0  0  0  0  0  0  0  0  0  0  0
  1  6  2  0  0  0  0
  1  2  1  0  0  0  0
  2  3  2  0  0  0  0
  3  4  1  0  0  0  0
  3 28  1  0  0  0  0
  5  9  1  0  0  0  0
  5  4  2  0  0  0  0
  6  5  1  0  0  0  0
  7  1  1  0  0  0  0
  8  2  1  0  0  0  0
  9 13  1  0  0  0  0
 10 11  1  0  0  0  0
 10  9  2  0  0  0  0
 11 12  2  0  0  0  0
 12 13  1  0  0  0  0
 12 16  1  0  0  0  0
 14 10  1  0  0  0  0
 15 11  1  0  0  0  0
 16 17  2  0  0  0  0
 16 27  1  0  0  0  0
 17 19  1  0  0  0  0
 18 17  1  0  0  0  0
 19 20  2  0  0  0  0
 20 21  1  0  0  0  0
 21 22  2  0  0  0  0
 22 23  1  0  0  0  0
 24 22  1  0  0  0  0
 25 24  2  0  0  0  0
 26 20  1  0  0  0  0
 26 25  1  0  0  0  0
 27 26  2  0  0  0  0
 28 29  1  6  0  0  0
 28 30  1  0  0  0  0
 30 33  1  1  0  0  0
 30 31  1  0  0  0  0
 30 32  1  0  0  0  0
 31 32  1  0  0  0  0
 31 34  1  0  0  0  0
 32 36  1  6  0  0  0
 32 37  1  0  0  0  0
 35 31  1  0  0  0  0
 37 38  2  0  0  0  0
 37 42  1  0  0  0  0
 38 39  1  0  0  0  0
 39 44  1  0  0  0  0
 39 40  2  0  0  0  0
 40 45  1  0  0  0  0
 41 40  1  0  0  0  0
 41 46  1  0  0  0  0
 42 41  2  0  0  0  0
 43 38  1  0  0  0  0
 47 28  1  0  0  0  0
 48 47  1  0  0  0  0
M  END
>  <minimizedAffinity>
-6.81424904

$$$$

 OpenBabel03272501413D

 48 53  0  0  1  0  0  0  0  0999 V2000
   36.8800   28.7470   30.2670 C   0  0  0  0  0  0  0  0  0  0  0  0
   37.5830   27.7140   30.8410 C   0  0  0  0  0  0  0  0  0  0  0  0
   37.3790   27.3150   32.1710 C   0  0  0  0  0  0  0  0  0  0  0  0
   36.4780   27.9690   32.8560 N   0  0  0  0  0  0  0  0  0  0  0  0
   35.7820   28.9960   32.2730 C   0  0  0  0  0  0  0  0  0  0  0  0
   35.9770   29.3760   31.0150 N   0  0  0  0  0  0  0  0  0  0  0  0
   37.0480   29.0470   29.2400 H   0  0  0  0  0  0  0  0  0  0  0  0
   38.3120   27.2250   30.1950 H   0  0  0  0  0  0  0  0  0  0  0  0
   34.7640   29.7300   33.0240 C   0  0  0  0  0  0  0  0  0  0  0  0
   33.3940   29.5870   33.0570 C   0  0  0  0  0  0  0  0  0  0  0  0
   32.6610   30.3920   33.8450 C   0  0  0  0  0  0  0  0  0  0  0  0
   33.3660   31.3400   34.5930 C   0  0  0  0  0  0  0  0  0  0  0  0
   35.1210   31.0520   34.1380 S   0  0  0  0  0  0  0  0  0  0  0  0
   32.9700   28.8130   32.4290 H   0  0  0  0  0  0  0  0  0  0  0  0
   31.6000   30.3760   33.9540 H   0  0  0  0  0  0  0  0  0  0  0  0
   32.9290   32.3500   35.5260 C   0  0  0  0  0  0  0  0  0  0  0  0
   31.6110   32.6690   35.4700 C   0  0  0  0  0  0  0  0  0  0  0  0
   30.9110   32.2180   34.7870 H   0  0  0  0  0  0  0  0  0  0  0  0
   31.1190   33.6370   36.3430 C   0  0  0  0  0  3  0  0  0  0  0  0
   32.0030   34.2250   37.2250 C   0  0  0  0  0  0  0  0  0  0  0  0
   31.6080   35.1600   38.0920 N   0  0  0  0  0  0  0  0  0  0  0  0
   32.4500   35.7400   38.9540 C   0  0  0  0  0  0  0  0  0  0  0  0
   31.9980   36.4790   39.5970 H   0  0  0  0  0  0  0  0  0  0  0  0
   33.8050   35.4360   39.0360 C   0  0  0  0  0  3  0  0  0  0  0  0
   34.2040   34.4730   38.1420 C   0  0  0  0  0  3  0  0  0  0  0  0
   33.3540   33.8630   37.2450 C   0  0  0  0  0  0  0  0  0  0  0  0
   33.8410   32.9020   36.3790 C   0  0  0  0  0  3  0  0  0  0  0  0
   38.2610   26.2870   32.6470 C   0  0  1  0  0  0  0  0  0  0  0  0
   39.2620   26.8660   32.5110 H   0  0  0  0  0  0  0  0  0  0  0  0
   38.1870   25.9570   34.1210 C   0  0  2  0  0  0  0  0  0  0  0  0
   39.4370   26.5470   34.7660 C   0  0  0  0  0  0  0  0  0  0  0  0
   39.1620   25.0840   34.7250 C   0  0  1  0  0  0  0  0  0  0  0  0
   37.2140   26.1820   34.5620 H   0  0  0  0  0  0  0  0  0  0  0  0
   39.2200   27.1050   35.6960 H   0  0  0  0  0  0  0  0  0  0  0  0
   40.3250   26.8570   34.2240 H   0  0  0  0  0  0  0  0  0  0  0  0
   39.6740   24.4060   34.0110 H   0  0  0  0  0  0  0  0  0  0  0  0
   39.0450   24.4630   36.0520 C   0  0  0  0  0  0  0  0  0  0  0  0
   38.0620   24.9240   36.8890 C   0  0  0  0  0  0  0  0  0  0  0  0
   37.9610   24.3030   38.1120 C   0  0  0  0  0  0  0  0  0  0  0  0
   38.7750   23.2750   38.5160 C   0  0  0  0  0  0  0  0  0  0  0  0
   39.7530   22.8390   37.6430 C   0  0  0  0  0  0  0  0  0  0  0  0
   39.8710   23.4330   36.4400 N   0  0  0  0  0  0  0  0  0  0  0  0
   37.3700   25.7170   36.6850 H   0  0  0  0  0  0  0  0  0  0  0  0
   37.2130   24.5960   38.8460 H   0  0  0  0  0  0  0  0  0  0  0  0
   38.7090   22.7800   39.4640 H   0  0  0  0  0  0  0  0  0  0  0  0
   40.4480   22.0360   37.8600 H   0  0  0  0  0  0  0  0  0  0  0  0
   38.5830   25.2630   31.9020 O   0  0  0  0  0  0  0  0  0  0  0  0
   39.4670   24.8840   31.8500 H   0  0  0  0  0  0  0  0  0  0  0  0
  1  2  2  0  0  0  0
  1  6  1  0  0  0  0
  2  3  1  0  0  0  0
  3 28  1  0  0  0  0
  3  4  2  0  0  0  0
  5  4  1  0  0  0  0
  5  9  1  0  0  0  0
  6  5  2  0  0  0  0
  7  1  1  0  0  0  0
  8  2  1  0  0  0  0
  9 10  2  0  0  0  0
  9 13  1  0  0  0  0
 10 11  1  0  0  0  0
 11 15  1  0  0  0  0
 11 12  2  0  0  0  0
 12 16  1  0  0  0  0
 13 12  1  0  0  0  0
 14 10  1  0  0  0  0
 16 27  1  0  0  0  0
 17 16  2  0  0  0  0
 17 19  1  0  0  0  0
 18 17  1  0  0  0  0
 19 20  2  0  0  0  0
 20 26  1  0  0  0  0
 20 21  1  0  0  0  0
 21 22  2  0  0  0  0
 22 24  1  0  0  0  0
 22 23  1  0  0  0  0
 25 24  2  0  0  0  0
 26 25  1  0  0  0  0
 27 26  2  0  0  0  0
 28 29  1  6  0  0  0
 28 30  1  0  0  0  0
 30 33  1  1  0  0  0
 30 32  1  0  0  0  0
 30 31  1  0  0  0  0
 31 34  1  0  0  0  0
 32 36  1  6  0  0  0
 32 31  1  0  0  0  0
 32 37  1  0  0  0  0
 35 31  1  0  0  0  0
 37 42  2  0  0  0  0
 37 38  1  0  0  0  0
 38 39  2  0  0  0  0
 39 40  1  0  0  0  0
 39 44  1  0  0  0  0
 40 45  1  0  0  0  0
 41 46  1  0  0  0  0
 41 40  2  0  0  0  0
 42 41  1  0  0  0  0
 43 38  1  0  0  0  0
 47 28  1  0  0  0  0
 48 47  1  0  0  0  0
M  END
>  <minimizedAffinity>
-6.67931843

$$$$

 OpenBabel03272501413D

 48 53  0  0  1  0  0  0  0  0999 V2000
   35.5920   30.4940   31.4200 C   0  0  0  0  0  0  0  0  0  0  0  0
   34.6240   30.9970   32.2580 C   0  0  0  0  0  0  0  0  0  0  0  0
   34.2600   30.3580   33.4530 C   0  0  0  0  0  0  0  0  0  0  0  0
   34.8850   29.2500   33.7490 N   0  0  0  0  0  0  0  0  0  0  0  0
   35.8480   28.7580   32.9060 C   0  0  0  0  0  0  0  0  0  0  0  0
   36.1920   29.3610   31.7730 N   0  0  0  0  0  0  0  0  0  0  0  0
   35.8630   30.9960   30.5000 H   0  0  0  0  0  0  0  0  0  0  0  0
   34.1590   31.9280   31.9320 H   0  0  0  0  0  0  0  0  0  0  0  0
   36.5630   27.5230   33.2290 C   0  0  0  0  0  0  0  0  0  0  0  0
   36.8970   26.4450   32.4390 C   0  0  0  0  0  0  0  0  0  0  0  0
   37.5750   25.4150   32.9730 C   0  0  0  0  0  0  0  0  0  0  0  0
   37.8970   25.5190   34.3300 C   0  0  0  0  0  0  0  0  0  0  0  0
   37.2020   27.1430   34.8310 S   0  0  0  0  0  0  0  0  0  0  0  0
   36.5880   26.4880   31.4010 H   0  0  0  0  0  0  0  0  0  0  0  0
   37.8880   24.5310   32.4640 H   0  0  0  0  0  0  0  0  0  0  0  0
   38.6000   24.6300   35.2230 C   0  0  0  0  0  0  0  0  0  0  0  0
   37.9900   24.3890   36.4100 C   0  0  0  0  0  0  0  0  0  0  0  0
   37.0440   24.8150   36.6990 H   0  0  0  0  0  0  0  0  0  0  0  0
   38.6130   23.5390   37.3230 C   0  0  0  0  0  3  0  0  0  0  0  0
   39.8260   22.9840   36.9680 C   0  0  0  0  0  0  0  0  0  0  0  0
   40.4840   22.1610   37.7880 N   0  0  0  0  0  0  0  0  0  0  0  0
   41.6600   21.6140   37.4610 C   0  0  0  0  0  0  0  0  0  0  0  0
   42.0810   20.9680   38.2160 H   0  0  0  0  0  0  0  0  0  0  0  0
   42.3120   21.8410   36.2530 C   0  0  0  0  0  3  0  0  0  0  0  0
   41.6280   22.6880   35.4160 C   0  0  0  0  0  3  0  0  0  0  0  0
   40.4160   23.2640   35.7310 C   0  0  0  0  0  0  0  0  0  0  0  0
   39.7970   24.1060   34.8280 C   0  0  0  0  0  3  0  0  0  0  0  0
   33.1670   30.9610   34.1640 C   0  0  1  0  0  0  0  0  0  0  0  0
   32.7680   29.9970   34.6820 H   0  0  0  0  0  0  0  0  0  0  0  0
   33.5270   31.9010   35.2920 C   0  0  2  0  0  0  0  0  0  0  0  0
   33.1730   31.1840   36.5910 C   0  0  0  0  0  0  0  0  0  0  0  0
   32.5010   32.4370   36.1520 C   0  0  1  0  0  0  0  0  0  0  0  0
   34.5230   32.3350   35.1870 H   0  0  0  0  0  0  0  0  0  0  0  0
   33.9750   31.2450   37.3500 H   0  0  0  0  0  0  0  0  0  0  0  0
   32.5200   30.3200   36.6620 H   0  0  0  0  0  0  0  0  0  0  0  0
   31.4850   32.4400   35.7070 H   0  0  0  0  0  0  0  0  0  0  0  0
   32.6720   33.5610   37.0830 C   0  0  0  0  0  0  0  0  0  0  0  0
   33.9130   33.7540   37.6330 C   0  0  0  0  0  0  0  0  0  0  0  0
   34.0460   34.8310   38.4780 C   0  0  0  0  0  0  0  0  0  0  0  0
   33.0230   35.6930   38.7830 C   0  0  0  0  0  0  0  0  0  0  0  0
   31.7880   35.4650   38.2080 C   0  0  0  0  0  0  0  0  0  0  0  0
   31.6340   34.4160   37.3780 N   0  0  0  0  0  0  0  0  0  0  0  0
   34.7840   33.1500   37.4700 H   0  0  0  0  0  0  0  0  0  0  0  0
   34.9910   35.0680   38.9630 H   0  0  0  0  0  0  0  0  0  0  0  0
   33.1100   36.5360   39.4390 H   0  0  0  0  0  0  0  0  0  0  0  0
   30.9140   36.0820   38.3810 H   0  0  0  0  0  0  0  0  0  0  0  0
   32.0500   31.2750   33.5620 O   0  0  0  0  0  0  0  0  0  0  0  0
   31.1730   31.1420   33.9380 H   0  0  0  0  0  0  0  0  0  0  0  0
  1  6  2  0  0  0  0
  1  2  1  0  0  0  0
  2  3  2  0  0  0  0
  3  4  1  0  0  0  0
  3 28  1  0  0  0  0
  5  9  1  0  0  0  0
  5  4  2  0  0  0  0
  6  5  1  0  0  0  0
  7  1  1  0  0  0  0
  8  2  1  0  0  0  0
  9 13  1  0  0  0  0
 10 11  1  0  0  0  0
 10  9  2  0  0  0  0
 11 12  2  0  0  0  0
 12 13  1  0  0  0  0
 12 16  1  0  0  0  0
 14 10  1  0  0  0  0
 15 11  1  0  0  0  0
 16 17  1  0  0  0  0
 17 18  1  0  0  0  0
 17 19  2  0  0  0  0
 20 19  1  0  0  0  0
 20 21  1  0  0  0  0
 22 21  2  0  0  0  0
 22 23  1  0  0  0  0
 24 22  1  0  0  0  0
 25 26  1  0  0  0  0
 25 24  2  0  0  0  0
 26 20  2  0  0  0  0
 27 16  2  0  0  0  0
 27 26  1  0  0  0  0
 28 29  1  1  0  0  0
 28 30  1  0  0  0  0
 30 33  1  6  0  0  0
 30 32  1  0  0  0  0
 30 31  1  0  0  0  0
 31 35  1  0  0  0  0
 31 34  1  0  0  0  0
 32 36  1  6  0  0  0
 32 31  1  0  0  0  0
 32 37  1  0  0  0  0
 37 42  2  0  0  0  0
 37 38  1  0  0  0  0
 38 39  2  0  0  0  0
 39 40  1  0  0  0  0
 39 44  1  0  0  0  0
 40 45  1  0  0  0  0
 41 46  1  0  0  0  0
 41 40  2  0  0  0  0
 42 41  1  0  0  0  0
 43 38  1  0  0  0  0
 47 48  1  0  0  0  0
 47 28  1  0  0  0  0
M  END
>  <minimizedAffinity>
-6.48784637

$$$$

 OpenBabel03272501413D

 48 53  0  0  1  0  0  0  0  0999 V2000
   37.8560   29.8510   29.3790 C   0  0  0  0  0  0  0  0  0  0  0  0
   37.3590   30.8410   30.1930 C   0  0  0  0  0  0  0  0  0  0  0  0
   36.4790   30.5710   31.2530 C   0  0  0  0  0  0  0  0  0  0  0  0
   36.1440   29.3230   31.4440 N   0  0  0  0  0  0  0  0  0  0  0  0
   36.6470   28.3430   30.6270 C   0  0  0  0  0  0  0  0  0  0  0  0
   37.4780   28.5980   29.6220 N   0  0  0  0  0  0  0  0  0  0  0  0
   38.5330   30.0720   28.5640 H   0  0  0  0  0  0  0  0  0  0  0  0
   37.6940   31.8520   29.9610 H   0  0  0  0  0  0  0  0  0  0  0  0
   36.2900   26.9410   30.8350 C   0  0  0  0  0  0  0  0  0  0  0  0
   35.0620   26.3420   31.0150 C   0  0  0  0  0  0  0  0  0  0  0  0
   34.9890   25.0110   31.1830 C   0  0  0  0  0  0  0  0  0  0  0  0
   36.2020   24.3140   31.1610 C   0  0  0  0  0  0  0  0  0  0  0  0
   37.4630   25.6220   30.8920 S   0  0  0  0  0  0  0  0  0  0  0  0
   34.1980   26.9950   31.0110 H   0  0  0  0  0  0  0  0  0  0  0  0
   34.1010   24.4380   31.3290 H   0  0  0  0  0  0  0  0  0  0  0  0
   36.5100   22.9120   31.3040 C   0  0  0  0  0  0  0  0  0  0  0  0
   37.7730   22.5510   30.9680 C   0  0  0  0  0  0  0  0  0  0  0  0
   38.5220   23.2400   30.6150 H   0  0  0  0  0  0  0  0  0  0  0  0
   38.1400   21.2120   31.0830 C   0  0  0  0  0  3  0  0  0  0  0  0
   37.1930   20.3160   31.5340 C   0  0  0  0  0  0  0  0  0  0  0  0
   37.4670   19.0160   31.6710 N   0  0  0  0  0  0  0  0  0  0  0  0
   36.5610   18.1340   32.1080 C   0  0  0  0  0  0  0  0  0  0  0  0
   36.9170   17.1180   32.1700 H   0  0  0  0  0  0  0  0  0  0  0  0
   35.2590   18.4720   32.4590 C   0  0  0  0  0  3  0  0  0  0  0  0
   34.9840   19.8100   32.3170 C   0  0  0  0  0  3  0  0  0  0  0  0
   35.9010   20.7360   31.8690 C   0  0  0  0  0  0  0  0  0  0  0  0
   35.5390   22.0650   31.7550 C   0  0  0  0  0  3  0  0  0  0  0  0
   35.9770   31.7250   31.9440 C   0  0  1  0  0  0  0  0  0  0  0  0
   35.6330   32.3300   31.0100 H   0  0  0  0  0  0  0  0  0  0  0  0
   34.7290   31.5290   32.7760 C   0  0  2  0  0  0  0  0  0  0  0  0
   35.1880   31.3230   34.2150 C   0  0  0  0  0  0  0  0  0  0  0  0
   34.4800   30.2720   33.4350 C   0  0  1  0  0  0  0  0  0  0  0  0
   33.9570   32.2750   32.5730 H   0  0  0  0  0  0  0  0  0  0  0  0
   34.6130   31.9280   34.9420 H   0  0  0  0  0  0  0  0  0  0  0  0
   36.2000   31.0650   34.5110 H   0  0  0  0  0  0  0  0  0  0  0  0
   35.0120   29.4070   32.9890 H   0  0  0  0  0  0  0  0  0  0  0  0
   33.1990   29.8570   34.0230 C   0  0  0  0  0  0  0  0  0  0  0  0
   32.3600   29.0910   33.2550 C   0  0  0  0  0  0  0  0  0  0  0  0
   31.1820   28.6960   33.8450 C   0  0  0  0  0  0  0  0  0  0  0  0
   30.8230   29.0250   35.1280 C   0  0  0  0  0  0  0  0  0  0  0  0
   31.6940   29.7990   35.8690 C   0  0  0  0  0  0  0  0  0  0  0  0
   32.8540   30.1970   35.3110 N   0  0  0  0  0  0  0  0  0  0  0  0
   32.5320   28.7710   32.2460 H   0  0  0  0  0  0  0  0  0  0  0  0
   30.4510   28.0850   33.3180 H   0  0  0  0  0  0  0  0  0  0  0  0
   29.9090   28.7260   35.6010 H   0  0  0  0  0  0  0  0  0  0  0  0
   31.5090   30.1150   36.8890 H   0  0  0  0  0  0  0  0  0  0  0  0
   36.7790   32.6400   32.4210 O   0  0  0  0  0  0  0  0  0  0  0  0
   36.6130   33.5880   32.3750 H   0  0  0  0  0  0  0  0  0  0  0  0
  1  6  2  0  0  0  0
  1  2  1  0  0  0  0
  2  3  2  0  0  0  0
  3  4  1  0  0  0  0
  3 28  1  0  0  0  0
  5  9  1  0  0  0  0
  5  4  2  0  0  0  0
  6  5  1  0  0  0  0
  7  1  1  0  0  0  0
  8  2  1  0  0  0  0
  9 13  1  0  0  0  0
  9 10  2  0  0  0  0
 10 11  1  0  0  0  0
 11 15  1  0  0  0  0
 12 11  2  0  0  0  0
 12 16  1  0  0  0  0
 13 12  1  0  0  0  0
 14 10  1  0  0  0  0
 16 27  1  0  0  0  0
 17 19  1  0  0  0  0
 17 16  2  0  0  0  0
 18 17  1  0  0  0  0
 19 20  2  0  0  0  0
 20 21  1  0  0  0  0
 20 26  1  0  0  0  0
 21 22  2  0  0  0  0
 22 23  1  0  0  0  0
 22 24  1  0  0  0  0
 25 24  2  0  0  0  0
 26 25  1  0  0  0  0
 27 26  2  0  0  0  0
 28 29  1  6  0  0  0
 28 47  1  0  0  0  0
 28 30  1  0  0  0  0
 30 33  1  6  0  0  0
 30 32  1  0  0  0  0
 30 31  1  0  0  0  0
 31 35  1  0  0  0  0
 31 34  1  0  0  0  0
 32 36  1  6  0  0  0
 32 37  1  0  0  0  0
 32 31  1  0  0  0  0
 37 42  1  0  0  0  0
 38 39  1  0  0  0  0
 38 37  2  0  0  0  0
 39 40  2  0  0  0  0
 40 45  1  0  0  0  0
 40 41  1  0  0  0  0
 41 46  1  0  0  0  0
 42 41  2  0  0  0  0
 43 38  1  0  0  0  0
 44 39  1  0  0  0  0
 48 47  1  0  0  0  0
M  END
>  <minimizedAffinity>
-6.44778395

$$$$

 OpenBabel03272501413D

 48 53  0  0  1  0  0  0  0  0999 V2000
   37.9470   29.7510   28.2560 C   0  0  0  0  0  0  0  0  0  0  0  0
   37.2940   30.9040   28.6240 C   0  0  0  0  0  0  0  0  0  0  0  0
   36.5830   31.0120   29.8290 C   0  0  0  0  0  0  0  0  0  0  0  0
   36.5660   29.9610   30.6060 N   0  0  0  0  0  0  0  0  0  0  0  0
   37.2220   28.8180   30.2300 C   0  0  0  0  0  0  0  0  0  0  0  0
   37.8930   28.7130   29.0880 N   0  0  0  0  0  0  0  0  0  0  0  0
   38.4910   29.6790   27.3230 H   0  0  0  0  0  0  0  0  0  0  0  0
   37.3640   31.7300   27.9160 H   0  0  0  0  0  0  0  0  0  0  0  0
   37.2200   27.6370   31.0930 C   0  0  0  0  0  0  0  0  0  0  0  0
   36.3720   26.5530   31.1310 C   0  0  0  0  0  0  0  0  0  0  0  0
   36.5850   25.5730   32.0270 C   0  0  0  0  0  0  0  0  0  0  0  0
   37.6840   25.7360   32.8760 C   0  0  0  0  0  0  0  0  0  0  0  0
   38.4140   27.3390   32.3590 S   0  0  0  0  0  0  0  0  0  0  0  0
   35.5570   26.5470   30.4180 H   0  0  0  0  0  0  0  0  0  0  0  0
   35.9990   24.6900   32.1500 H   0  0  0  0  0  0  0  0  0  0  0  0
   38.2110   24.9120   33.9370 C   0  0  0  0  0  0  0  0  0  0  0  0
   39.0590   23.9270   33.5490 C   0  0  0  0  0  0  0  0  0  0  0  0
   39.3410   23.7450   32.5250 H   0  0  0  0  0  0  0  0  0  0  0  0
   39.6060   23.0930   34.5210 C   0  0  0  0  0  3  0  0  0  0  0  0
   39.2550   23.3130   35.8370 C   0  0  0  0  0  0  0  0  0  0  0  0
   39.7380   22.5570   36.8260 N   0  0  0  0  0  0  0  0  0  0  0  0
   39.4080   22.7560   38.1070 C   0  0  0  0  0  0  0  0  0  0  0  0
   39.8700   22.0730   38.8020 H   0  0  0  0  0  0  0  0  0  0  0  0
   38.5420   23.7560   38.5380 C   0  0  0  0  0  3  0  0  0  0  0  0
   38.0510   24.5300   37.5150 C   0  0  0  0  0  3  0  0  0  0  0  0
   38.3760   24.3430   36.1890 C   0  0  0  0  0  0  0  0  0  0  0  0
   37.8340   25.1700   35.2240 C   0  0  0  0  0  3  0  0  0  0  0  0
   35.8760   32.2480   30.0170 C   0  0  1  0  0  0  0  0  0  0  0  0
   34.8840   31.9430   29.4910 H   0  0  0  0  0  0  0  0  0  0  0  0
   35.4860   32.5980   31.4360 C   0  0  2  0  0  0  0  0  0  0  0  0
   36.6940   33.2810   32.0680 C   0  0  0  0  0  0  0  0  0  0  0  0
   36.1560   31.9800   32.5520 C   0  0  1  0  0  0  0  0  0  0  0  0
   34.5110   33.0860   31.5040 H   0  0  0  0  0  0  0  0  0  0  0  0
   36.4290   34.2050   32.6160 H   0  0  0  0  0  0  0  0  0  0  0  0
   37.7040   33.2370   31.6760 H   0  0  0  0  0  0  0  0  0  0  0  0
   36.6450   31.0120   32.3150 H   0  0  0  0  0  0  0  0  0  0  0  0
   35.6930   32.0090   33.9470 C   0  0  0  0  0  0  0  0  0  0  0  0
   36.2710   32.9190   34.7940 C   0  0  0  0  0  0  0  0  0  0  0  0
   35.7950   32.9400   36.0840 C   0  0  0  0  0  0  0  0  0  0  0  0
   34.7990   32.1150   36.5440 C   0  0  0  0  0  0  0  0  0  0  0  0
   34.2420   31.2130   35.6590 C   0  0  0  0  0  0  0  0  0  0  0  0
   34.6930   31.1740   34.3910 N   0  0  0  0  0  0  0  0  0  0  0  0
   37.0530   33.6110   34.5500 H   0  0  0  0  0  0  0  0  0  0  0  0
   36.1890   33.6260   36.8320 H   0  0  0  0  0  0  0  0  0  0  0  0
   34.4180   32.1190   37.5450 H   0  0  0  0  0  0  0  0  0  0  0  0
   33.4520   30.5170   35.9170 H   0  0  0  0  0  0  0  0  0  0  0  0
   36.1190   33.2950   29.2730 O   0  0  0  0  0  0  0  0  0  0  0  0
   35.4410   33.8870   28.9290 H   0  0  0  0  0  0  0  0  0  0  0  0
  1  2  2  0  0  0  0
  1  6  1  0  0  0  0
  2  3  1  0  0  0  0
  3 28  1  0  0  0  0
  3  4  2  0  0  0  0
  5  4  1  0  0  0  0
  5  9  1  0  0  0  0
  6  5  2  0  0  0  0
  7  1  1  0  0  0  0
  8  2  1  0  0  0  0
  9 10  2  0  0  0  0
  9 13  1  0  0  0  0
 10 11  1  0  0  0  0
 11 15  1  0  0  0  0
 11 12  2  0  0  0  0
 12 16  1  0  0  0  0
 13 12  1  0  0  0  0
 14 10  1  0  0  0  0
 16 27  1  0  0  0  0
 17 16  2  0  0  0  0
 17 19  1  0  0  0  0
 18 17  1  0  0  0  0
 19 20  2  0  0  0  0
 20 26  1  0  0  0  0
 20 21  1  0  0  0  0
 21 22  2  0  0  0  0
 22 24  1  0  0  0  0
 22 23  1  0  0  0  0
 25 24  2  0  0  0  0
 26 25  1  0  0  0  0
 27 26  2  0  0  0  0
 28 29  1  6  0  0  0
 28 30  1  0  0  0  0
 30 33  1  1  0  0  0
 30 31  1  0  0  0  0
 30 32  1  0  0  0  0
 31 32  1  0  0  0  0
 31 34  1  0  0  0  0
 32 36  1  6  0  0  0
 32 37  1  0  0  0  0
 35 31  1  0  0  0  0
 37 42  2  0  0  0  0
 37 38  1  0  0  0  0
 38 39  2  0  0  0  0
 39 40  1  0  0  0  0
 39 44  1  0  0  0  0
 40 45  1  0  0  0  0
 41 46  1  0  0  0  0
 41 40  2  0  0  0  0
 42 41  1  0  0  0  0
 43 38  1  0  0  0  0
 47 28  1  0  0  0  0
 48 47  1  0  0  0  0
M  END
>  <minimizedAffinity>
-6.35459328

$$$$

 OpenBabel03272501413D

 48 53  0  0  1  0  0  0  0  0999 V2000
   38.1610   29.7280   29.1590 C   0  0  0  0  0  0  0  0  0  0  0  0
   37.7050   30.7650   29.9390 C   0  0  0  0  0  0  0  0  0  0  0  0
   36.8220   30.5660   31.0110 C   0  0  0  0  0  0  0  0  0  0  0  0
   36.4430   29.3380   31.2490 N   0  0  0  0  0  0  0  0  0  0  0  0
   36.9050   28.3120   30.4660 C   0  0  0  0  0  0  0  0  0  0  0  0
   37.7390   28.5000   29.4490 N   0  0  0  0  0  0  0  0  0  0  0  0
   38.8410   29.8940   28.3330 H   0  0  0  0  0  0  0  0  0  0  0  0
   38.0760   31.7540   29.6690 H   0  0  0  0  0  0  0  0  0  0  0  0
   36.4980   26.9320   30.7260 C   0  0  0  0  0  0  0  0  0  0  0  0
   35.2580   26.3970   31.0020 C   0  0  0  0  0  0  0  0  0  0  0  0
   35.1360   25.0730   31.2010 C   0  0  0  0  0  0  0  0  0  0  0  0
   36.3100   24.3190   31.1110 C   0  0  0  0  0  0  0  0  0  0  0  0
   37.6090   25.5590   30.7310 S   0  0  0  0  0  0  0  0  0  0  0  0
   34.4270   27.0900   31.0430 H   0  0  0  0  0  0  0  0  0  0  0  0
   34.2340   24.5470   31.4190 H   0  0  0  0  0  0  0  0  0  0  0  0
   36.5610   22.9060   31.2620 C   0  0  0  0  0  0  0  0  0  0  0  0
   37.8100   22.4940   30.9310 C   0  0  0  0  0  0  0  0  0  0  0  0
   38.5870   23.1500   30.5770 H   0  0  0  0  0  0  0  0  0  0  0  0
   38.1230   21.1410   31.0530 C   0  0  0  0  0  3  0  0  0  0  0  0
   37.1390   20.2870   31.5060 C   0  0  0  0  0  0  0  0  0  0  0  0
   37.3610   18.9770   31.6500 N   0  0  0  0  0  0  0  0  0  0  0  0
   36.4190   18.1340   32.0880 C   0  0  0  0  0  0  0  0  0  0  0  0
   36.7340   17.1050   32.1560 H   0  0  0  0  0  0  0  0  0  0  0  0
   35.1300   18.5250   32.4340 C   0  0  0  0  0  3  0  0  0  0  0  0
   34.9100   19.8730   32.2850 C   0  0  0  0  0  3  0  0  0  0  0  0
   35.8640   20.7590   31.8350 C   0  0  0  0  0  0  0  0  0  0  0  0
   35.5560   22.1010   31.7140 C   0  0  0  0  0  3  0  0  0  0  0  0
   36.3660   31.7620   31.6620 C   0  0  1  0  0  0  0  0  0  0  0  0
   35.6160   32.1100   30.8430 H   0  0  0  0  0  0  0  0  0  0  0  0
   35.5350   31.5800   32.9130 C   0  0  2  0  0  0  0  0  0  0  0  0
   34.1150   32.0130   32.5630 C   0  0  0  0  0  0  0  0  0  0  0  0
   34.9490   32.7200   33.5730 C   0  0  1  0  0  0  0  0  0  0  0  0
   35.6850   30.6090   33.3900 H   0  0  0  0  0  0  0  0  0  0  0  0
   33.3480   31.2960   32.9100 H   0  0  0  0  0  0  0  0  0  0  0  0
   33.8470   32.6110   31.6980 H   0  0  0  0  0  0  0  0  0  0  0  0
   35.4520   33.6850   33.3560 H   0  0  0  0  0  0  0  0  0  0  0  0
   34.3740   32.7180   34.9250 C   0  0  0  0  0  0  0  0  0  0  0  0
   35.1910   32.3640   35.9680 C   0  0  0  0  0  0  0  0  0  0  0  0
   34.6290   32.4000   37.2230 C   0  0  0  0  0  0  0  0  0  0  0  0
   33.3280   32.7630   37.4670 C   0  0  0  0  0  0  0  0  0  0  0  0
   32.5370   33.1130   36.3900 C   0  0  0  0  0  0  0  0  0  0  0  0
   33.0660   33.0840   35.1520 N   0  0  0  0  0  0  0  0  0  0  0  0
   36.2180   32.0650   35.9010 H   0  0  0  0  0  0  0  0  0  0  0  0
   35.1950   32.1380   38.1150 H   0  0  0  0  0  0  0  0  0  0  0  0
   32.8760   32.7960   38.4390 H   0  0  0  0  0  0  0  0  0  0  0  0
   31.5000   33.4140   36.4700 H   0  0  0  0  0  0  0  0  0  0  0  0
   37.0870   32.8520   31.6720 O   0  0  0  0  0  0  0  0  0  0  0  0
   36.7320   33.7400   31.5530 H   0  0  0  0  0  0  0  0  0  0  0  0
  1  6  2  0  0  0  0
  1  2  1  0  0  0  0
  2  3  2  0  0  0  0
  3  4  1  0  0  0  0
  3 28  1  0  0  0  0
  5  9  1  0  0  0  0
  5  4  2  0  0  0  0
  6  5  1  0  0  0  0
  7  1  1  0  0  0  0
  8  2  1  0  0  0  0
  9 13  1  0  0  0  0
  9 10  2  0  0  0  0
 10 14  1  0  0  0  0
 10 11  1  0  0  0  0
 11 15  1  0  0  0  0
 12 11  2  0  0  0  0
 12 16  1  0  0  0  0
 13 12  1  0  0  0  0
 16 27  1  0  0  0  0
 17 19  1  0  0  0  0
 17 16  2  0  0  0  0
 18 17  1  0  0  0  0
 19 20  2  0  0  0  0
 20 21  1  0  0  0  0
 20 26  1  0  0  0  0
 21 22  2  0  0  0  0
 22 23  1  0  0  0  0
 22 24  1  0  0  0  0
 25 24  2  0  0  0  0
 26 25  1  0  0  0  0
 27 26  2  0  0  0  0
 28 29  1  6  0  0  0
 28 47  1  0  0  0  0
 28 30  1  0  0  0  0
 30 33  1  1  0  0  0
 30 32  1  0  0  0  0
 31 34  1  0  0  0  0
 31 30  1  0  0  0  0
 31 32  1  0  0  0  0
 32 36  1  6  0  0  0
 32 37  1  0  0  0  0
 35 31  1  0  0  0  0
 37 42  2  0  0  0  0
 37 38  1  0  0  0  0
 38 39  2  0  0  0  0
 39 40  1  0  0  0  0
 39 44  1  0  0  0  0
 40 45  1  0  0  0  0
 41 46  1  0  0  0  0
 41 40  2  0  0  0  0
 42 41  1  0  0  0  0
 43 38  1  0  0  0  0
 48 47  1  0  0  0  0
M  END
>  <minimizedAffinity>
-6.34740496

$$$$

 OpenBabel03272501413D

 48 53  0  0  1  0  0  0  0  0999 V2000
   37.1070   30.6560   30.1050 C   0  0  0  0  0  0  0  0  0  0  0  0
   36.0750   31.0250   30.9370 C   0  0  0  0  0  0  0  0  0  0  0  0
   35.3950   30.1000   31.7440 C   0  0  0  0  0  0  0  0  0  0  0  0
   35.7850   28.8540   31.6790 N   0  0  0  0  0  0  0  0  0  0  0  0
   36.8160   28.4990   30.8470 C   0  0  0  0  0  0  0  0  0  0  0  0
   37.4580   29.3730   30.0800 N   0  0  0  0  0  0  0  0  0  0  0  0
   37.6230   31.3790   29.4850 H   0  0  0  0  0  0  0  0  0  0  0  0
   35.8200   32.0840   30.9270 H   0  0  0  0  0  0  0  0  0  0  0  0
   37.2700   27.1110   30.7710 C   0  0  0  0  0  0  0  0  0  0  0  0
   38.4920   26.5830   30.4140 C   0  0  0  0  0  0  0  0  0  0  0  0
   38.6700   25.2510   30.4290 C   0  0  0  0  0  0  0  0  0  0  0  0
   37.5690   24.4800   30.8180 C   0  0  0  0  0  0  0  0  0  0  0  0
   36.2580   25.7180   31.1650 S   0  0  0  0  0  0  0  0  0  0  0  0
   39.2630   27.2890   30.1330 H   0  0  0  0  0  0  0  0  0  0  0  0
   39.5650   24.7290   30.1750 H   0  0  0  0  0  0  0  0  0  0  0  0
   37.3900   23.0550   30.9500 C   0  0  0  0  0  0  0  0  0  0  0  0
   38.4420   22.2930   30.5580 C   0  0  0  0  0  0  0  0  0  0  0  0
   39.3630   22.6930   30.1700 H   0  0  0  0  0  0  0  0  0  0  0  0
   38.3390   20.9070   30.6590 C   0  0  0  0  0  3  0  0  0  0  0  0
   37.1640   20.3790   31.1550 C   0  0  0  0  0  0  0  0  0  0  0  0
   36.9890   19.0600   31.2820 N   0  0  0  0  0  0  0  0  0  0  0  0
   35.8580   18.5310   31.7600 C   0  0  0  0  0  0  0  0  0  0  0  0
   35.8520   17.4540   31.8090 H   0  0  0  0  0  0  0  0  0  0  0  0
   34.7630   19.2840   32.1700 C   0  0  0  0  0  3  0  0  0  0  0  0
   34.9510   20.6380   32.0380 C   0  0  0  0  0  3  0  0  0  0  0  0
   36.1060   21.2060   31.5470 C   0  0  0  0  0  0  0  0  0  0  0  0
   36.2100   22.5800   31.4470 C   0  0  0  0  0  3  0  0  0  0  0  0
   34.2810   30.6280   32.4800 C   0  0  1  0  0  0  0  0  0  0  0  0
   33.6170   30.9210   31.5690 H   0  0  0  0  0  0  0  0  0  0  0  0
   33.4580   29.6370   33.2710 C   0  0  2  0  0  0  0  0  0  0  0  0
   31.9990   29.8780   32.8950 C   0  0  0  0  0  0  0  0  0  0  0  0
   32.5260   30.0940   34.2710 C   0  0  1  0  0  0  0  0  0  0  0  0
   33.8510   28.6190   33.2230 H   0  0  0  0  0  0  0  0  0  0  0  0
   31.4510   28.9430   32.6730 H   0  0  0  0  0  0  0  0  0  0  0  0
   31.6270   30.7720   32.4060 H   0  0  0  0  0  0  0  0  0  0  0  0
   32.7410   31.1060   34.6700 H   0  0  0  0  0  0  0  0  0  0  0  0
   31.8880   29.2490   35.2900 C   0  0  0  0  0  0  0  0  0  0  0  0
   32.0690   29.5870   36.6070 C   0  0  0  0  0  0  0  0  0  0  0  0
   31.4360   28.7930   37.5340 C   0  0  0  0  0  0  0  0  0  0  0  0
   30.6550   27.7120   37.2080 C   0  0  0  0  0  0  0  0  0  0  0  0
   30.4970   27.4050   35.8710 C   0  0  0  0  0  0  0  0  0  0  0  0
   31.1080   28.1680   34.9450 N   0  0  0  0  0  0  0  0  0  0  0  0
   32.6530   30.4040   36.9810 H   0  0  0  0  0  0  0  0  0  0  0  0
   31.5180   28.9790   38.6030 H   0  0  0  0  0  0  0  0  0  0  0  0
   30.1550   27.0840   37.9180 H   0  0  0  0  0  0  0  0  0  0  0  0
   29.9030   26.5750   35.5040 H   0  0  0  0  0  0  0  0  0  0  0  0
   34.3200   31.8180   33.0190 O   0  0  0  0  0  0  0  0  0  0  0  0
   33.5860   32.4420   33.0160 H   0  0  0  0  0  0  0  0  0  0  0  0
  1  2  1  0  0  0  0
  2  3  2  0  0  0  0
  3 28  1  0  0  0  0
  4  3  1  0  0  0  0
  5  4  2  0  0  0  0
  6  1  2  0  0  0  0
  6  5  1  0  0  0  0
  7  1  1  0  0  0  0
  8  2  1  0  0  0  0
  9  5  1  0  0  0  0
  9 13  1  0  0  0  0
 10 11  1  0  0  0  0
 10  9  2  0  0  0  0
 11 12  2  0  0  0  0
 12 16  1  0  0  0  0
 12 13  1  0  0  0  0
 14 10  1  0  0  0  0
 15 11  1  0  0  0  0
 16 27  1  0  0  0  0
 17 19  1  0  0  0  0
 17 16  2  0  0  0  0
 18 17  1  0  0  0  0
 19 20  2  0  0  0  0
 20 21  1  0  0  0  0
 20 26  1  0  0  0  0
 21 22  2  0  0  0  0
 22 23  1  0  0  0  0
 22 24  1  0  0  0  0
 25 24  2  0  0  0  0
 26 25  1  0  0  0  0
 27 26  2  0  0  0  0
 28 29  1  6  0  0  0
 28 47  1  0  0  0  0
 28 30  1  0  0  0  0
 30 33  1  1  0  0  0
 30 32  1  0  0  0  0
 31 30  1  0  0  0  0
 31 32  1  0  0  0  0
 32 36  1  1  0  0  0
 32 37  1  0  0  0  0
 34 31  1  0  0  0  0
 35 31  1  0  0  0  0
 37 38  1  0  0  0  0
 38 43  1  0  0  0  0
 38 39  2  0  0  0  0
 39 44  1  0  0  0  0
 40 39  1  0  0  0  0
 40 45  1  0  0  0  0
 41 40  2  0  0  0  0
 42 37  2  0  0  0  0
 42 41  1  0  0  0  0
 46 41  1  0  0  0  0
 48 47  1  0  0  0  0
M  END
>  <minimizedAffinity>
-6.28893423

$$$$

 OpenBabel03272501413D

 48 53  0  0  1  0  0  0  0  0999 V2000
   40.0980   26.8630   28.6470 C   0  0  0  0  0  0  0  0  0  0  0  0
   40.0150   25.5180   28.9200 C   0  0  0  0  0  0  0  0  0  0  0  0
   39.1100   24.9960   29.8560 C   0  0  0  0  0  0  0  0  0  0  0  0
   38.3300   25.8480   30.4690 N   0  0  0  0  0  0  0  0  0  0  0  0
   38.4210   27.1870   30.1880 C   0  0  0  0  0  0  0  0  0  0  0  0
   39.2800   27.6820   29.3040 N   0  0  0  0  0  0  0  0  0  0  0  0
   40.8020   27.2540   27.9240 H   0  0  0  0  0  0  0  0  0  0  0  0
   40.7020   24.8820   28.3600 H   0  0  0  0  0  0  0  0  0  0  0  0
   37.5490   28.1510   30.8570 C   0  0  0  0  0  0  0  0  0  0  0  0
   37.1050   29.3920   30.4560 C   0  0  0  0  0  0  0  0  0  0  0  0
   36.2910   30.0990   31.2580 C   0  0  0  0  0  0  0  0  0  0  0  0
   35.9460   29.5020   32.4760 C   0  0  0  0  0  0  0  0  0  0  0  0
   36.8240   27.8890   32.4460 S   0  0  0  0  0  0  0  0  0  0  0  0
   37.4460   29.7410   29.4890 H   0  0  0  0  0  0  0  0  0  0  0  0
   35.8850   31.0640   31.0570 H   0  0  0  0  0  0  0  0  0  0  0  0
   35.1140   29.9490   33.5650 C   0  0  0  0  0  0  0  0  0  0  0  0
   33.8990   29.3530   33.6590 C   0  0  0  0  0  0  0  0  0  0  0  0
   33.5480   28.5930   32.9820 H   0  0  0  0  0  0  0  0  0  0  0  0
   33.0420   29.7360   34.6890 C   0  0  0  0  0  3  0  0  0  0  0  0
   33.4770   30.7090   35.5660 C   0  0  0  0  0  0  0  0  0  0  0  0
   32.7150   31.1300   36.5780 N   0  0  0  0  0  0  0  0  0  0  0  0
   33.1200   32.0720   37.4370 C   0  0  0  0  0  0  0  0  0  0  0  0
   32.4050   32.3160   38.2060 H   0  0  0  0  0  0  0  0  0  0  0  0
   34.3580   32.7020   37.3690 C   0  0  0  0  0  3  0  0  0  0  0  0
   35.1370   32.2630   36.3260 C   0  0  0  0  0  3  0  0  0  0  0  0
   34.7400   31.2960   35.4290 C   0  0  0  0  0  0  0  0  0  0  0  0
   35.5880   30.9140   34.4070 C   0  0  0  0  0  3  0  0  0  0  0  0
   39.2170   23.5840   30.0950 C   0  0  1  0  0  0  0  0  0  0  0  0
   40.0780   23.6230   30.8790 H   0  0  0  0  0  0  0  0  0  0  0  0
   38.0580   22.9260   30.8090 C   0  0  2  0  0  0  0  0  0  0  0  0
   38.5710   22.5000   32.1800 C   0  0  0  0  0  0  0  0  0  0  0  0
   38.1100   21.5260   31.1520 C   0  0  1  0  0  0  0  0  0  0  0  0
   37.1340   23.5050   30.7510 H   0  0  0  0  0  0  0  0  0  0  0  0
   37.8830   22.7740   33.0020 H   0  0  0  0  0  0  0  0  0  0  0  0
   39.6180   22.4140   32.4490 H   0  0  0  0  0  0  0  0  0  0  0  0
   38.8190   20.9300   30.5410 H   0  0  0  0  0  0  0  0  0  0  0  0
   36.9640   20.7100   31.5780 C   0  0  0  0  0  0  0  0  0  0  0  0
   35.7230   21.2920   31.5630 C   0  0  0  0  0  0  0  0  0  0  0  0
   34.6690   20.4920   31.9390 C   0  0  0  0  0  0  0  0  0  0  0  0
   34.8040   19.1800   32.3170 C   0  0  0  0  0  0  0  0  0  0  0  0
   36.0710   18.6300   32.3180 C   0  0  0  0  0  0  0  0  0  0  0  0
   37.1170   19.3950   31.9530 N   0  0  0  0  0  0  0  0  0  0  0  0
   35.4950   22.3030   31.2890 H   0  0  0  0  0  0  0  0  0  0  0  0
   33.6450   20.8610   31.9600 H   0  0  0  0  0  0  0  0  0  0  0  0
   33.9930   18.5440   32.6120 H   0  0  0  0  0  0  0  0  0  0  0  0
   36.2890   17.6060   32.5970 H   0  0  0  0  0  0  0  0  0  0  0  0
   39.8250   22.7920   29.2520 O   0  0  0  0  0  0  0  0  0  0  0  0
   40.4070   22.0680   29.5080 H   0  0  0  0  0  0  0  0  0  0  0  0
  1  2  2  0  0  0  0
  1  6  1  0  0  0  0
  2  3  1  0  0  0  0
  3 28  1  0  0  0  0
  3  4  2  0  0  0  0
  5  4  1  0  0  0  0
  5  9  1  0  0  0  0
  6  5  2  0  0  0  0
  7  1  1  0  0  0  0
  8  2  1  0  0  0  0
  9 13  1  0  0  0  0
 10  9  2  0  0  0  0
 10 11  1  0  0  0  0
 11 12  2  0  0  0  0
 12 16  1  0  0  0  0
 13 12  1  0  0  0  0
 14 10  1  0  0  0  0
 15 11  1  0  0  0  0
 16 17  2  0  0  0  0
 16 27  1  0  0  0  0
 17 19  1  0  0  0  0
 18 17  1  0  0  0  0
 19 20  2  0  0  0  0
 20 21  1  0  0  0  0
 21 22  2  0  0  0  0
 22 23  1  0  0  0  0
 24 22  1  0  0  0  0
 25 24  2  0  0  0  0
 26 20  1  0  0  0  0
 26 25  1  0  0  0  0
 27 26  2  0  0  0  0
 28 30  1  0  0  0  0
 28 29  1  1  0  0  0
 30 33  1  6  0  0  0
 30 32  1  0  0  0  0
 30 31  1  0  0  0  0
 31 35  1  0  0  0  0
 31 34  1  0  0  0  0
 32 36  1  6  0  0  0
 32 37  1  0  0  0  0
 32 31  1  0  0  0  0
 37 42  1  0  0  0  0
 38 37  2  0  0  0  0
 38 39  1  0  0  0  0
 39 44  1  0  0  0  0
 39 40  2  0  0  0  0
 40 41  1  0  0  0  0
 40 45  1  0  0  0  0
 41 46  1  0  0  0  0
 42 41  2  0  0  0  0
 43 38  1  0  0  0  0
 47 48  1  0  0  0  0
 47 28  1  0  0  0  0
M  END
>  <minimizedAffinity>
-6.28764868

$$$$
