
 OpenBabel03272509013D

 34 37  0  0  0  0  0  0  0  0999 V2000
   39.5840   31.1210   51.1700 Cl  0  0  0  0  0  0  0  0  0  0  0  0
   38.0110   30.7860   50.5280 C   0  0  0  0  0  0  0  0  0  0  0  0
   37.5850   31.4780   49.4120 C   0  0  0  0  0  0  0  0  0  0  0  0
   36.3450   31.2570   48.8620 C   0  0  0  0  0  0  0  0  0  0  0  0
   35.4890   30.3360   49.4140 C   0  0  0  0  0  0  0  0  0  0  0  0
   35.8880   29.6270   50.5350 C   0  0  0  0  0  0  0  0  0  0  0  0
   34.8690   28.4410   51.3270 Cl  0  0  0  0  0  0  0  0  0  0  0  0
   37.1580   29.8810   51.0640 C   0  0  0  0  0  0  0  0  0  0  0  0
   35.9550   31.7660   47.9890 H   0  0  0  0  0  0  0  0  0  0  0  0
   34.5020   30.1130   49.0350 H   0  0  0  0  0  0  0  0  0  0  0  0
   39.6000   34.5010   48.8840 C   0  0  0  0  0  0  0  0  0  0  0  0
   40.1250   34.3100   47.5960 C   0  0  0  0  0  0  0  0  0  0  0  0
   39.7650   33.1170   46.9250 C   0  0  0  0  0  0  0  0  0  0  0  0
   38.9460   32.2480   47.5680 N   0  0  0  0  0  0  0  0  0  0  0  0
   38.4590   32.4590   48.8010 C   0  0  0  0  0  0  0  0  0  0  0  0
   38.8030   33.5950   49.4380 N   0  0  0  0  0  0  0  0  0  0  0  0
   39.9130   35.4330   49.3410 H   0  0  0  0  0  0  0  0  0  0  0  0
   40.7790   34.9650   47.0370 H   0  0  0  0  0  0  0  0  0  0  0  0
   40.0790   32.8140   45.9360 H   0  0  0  0  0  0  0  0  0  0  0  0
   37.5730   29.1400   52.2810 C   0  0  0  0  0  0  0  0  0  0  0  0
   38.1030   29.9080   52.9150 H   0  0  0  0  0  0  0  0  0  0  0  0
   36.6430   28.9300   52.8930 H   0  0  0  0  0  0  0  0  0  0  0  0
   38.3780   27.9430   52.0690 C   0  0  0  0  0  0  0  0  0  0  0  0
   38.6490   27.4650   50.8040 C   0  0  0  0  0  0  0  0  0  0  0  0
   38.3050   27.9450   49.9000 H   0  0  0  0  0  0  0  0  0  0  0  0
   39.3830   26.3290   50.5190 C   0  0  0  0  0  3  0  0  0  0  0  0
   39.9020   25.5860   51.5590 C   0  0  0  0  0  0  0  0  0  0  0  0
   40.6220   24.4750   51.3310 N   0  0  0  0  0  0  0  0  0  0  0  0
   41.1370   23.7390   52.3320 C   0  0  0  0  0  0  0  0  0  0  0  0
   41.7150   22.8450   52.1340 H   0  0  0  0  0  0  0  0  0  0  0  0
   40.9310   24.1190   53.6480 C   0  0  0  0  0  3  0  0  0  0  0  0
   40.1920   25.2590   53.8830 C   0  0  0  0  0  3  0  0  0  0  0  0
   39.6710   26.0040   52.8520 C   0  0  0  0  0  0  0  0  0  0  0  0
   38.9340   27.1410   53.0470 C   0  0  0  0  0  3  0  0  0  0  0  0
  2  8  1  0  0  0  0
  2  1  1  0  0  0  0
  3  2  2  0  0  0  0
  4  3  1  0  0  0  0
  4  5  2  0  0  0  0
  5  6  1  0  0  0  0
  6  8  2  0  0  0  0
  6  7  1  0  0  0  0
  8 20  1  0  0  0  0
  9  4  1  0  0  0  0
 10  5  1  0  0  0  0
 11 17  1  0  0  0  0
 11 16  1  0  0  0  0
 12 11  2  0  0  0  0
 13 14  2  0  0  0  0
 13 12  1  0  0  0  0
 14 15  1  0  0  0  0
 15  3  1  0  0  0  0
 15 16  2  0  0  0  0
 18 12  1  0  0  0  0
 19 13  1  0  0  0  0
 20 22  1  0  0  0  0
 20 21  1  0  0  0  0
 23 20  1  0  0  0  0
 23 34  1  0  0  0  0
 24 23  2  0  0  0  0
 25 24  1  0  0  0  0
 26 24  1  0  0  0  0
 26 27  2  0  0  0  0
 27 33  1  0  0  0  0
 28 27  1  0  0  0  0
 28 29  2  0  0  0  0
 29 31  1  0  0  0  0
 30 29  1  0  0  0  0
 31 32  2  0  0  0  0
 33 34  2  0  0  0  0
 33 32  1  0  0  0  0
M  END
>  <minimizedAffinity>
1.78567374

>  <minimizedRMSD>
2.19831705

$$$$
