
 OpenBabel03272508543D

 41 45  0  0  1  0  0  0  0  0999 V2000
   39.1680   31.4480   43.3510 C   0  0  0  0  0  0  0  0  0  0  0  0
   40.1470   30.5030   43.5010 C   0  0  0  0  0  0  0  0  0  0  0  0
   40.8730   30.1150   42.3830 C   0  0  0  0  0  0  0  0  0  0  0  0
   40.5660   30.7070   41.1960 C   0  0  0  0  0  0  0  0  0  0  0  0
   39.5820   31.6650   41.0290 C   0  0  0  0  0  0  0  0  0  0  0  0
   38.9230   31.9840   42.1570 N   0  0  0  0  0  0  0  0  0  0  0  0
   40.4190   30.0090   44.4320 H   0  0  0  0  0  0  0  0  0  0  0  0
   41.6560   29.3660   42.4700 H   0  0  0  0  0  0  0  0  0  0  0  0
   41.1370   30.3970   40.3330 H   0  0  0  0  0  0  0  0  0  0  0  0
   39.2500   32.3000   39.7620 C   0  0  0  0  0  0  0  0  0  0  0  0
   39.8950   31.9990   38.5840 C   0  0  0  0  0  0  0  0  0  0  0  0
   40.6870   31.2650   38.5550 H   0  0  0  0  0  0  0  0  0  0  0  0
   39.6060   32.5810   37.3690 C   0  0  0  0  0  3  0  0  0  0  0  0
   38.5840   33.5370   37.3720 C   0  0  0  0  0  0  0  0  0  0  0  0
   38.2050   34.1810   36.2430 N   0  0  0  0  0  0  0  0  0  0  0  0
   37.2290   35.1010   36.2210 C   0  0  0  0  0  0  0  0  0  0  0  0
   37.0000   35.5630   35.2510 H   0  0  0  0  0  0  0  0  0  0  0  0
   36.5410   35.4480   37.3790 C   0  0  0  0  0  3  0  0  0  0  0  0
   36.8990   34.8100   38.5500 C   0  0  0  0  0  3  0  0  0  0  0  0
   37.9060   33.8710   38.5400 C   0  0  0  0  0  0  0  0  0  0  0  0
   38.2470   33.2450   39.7390 C   0  0  0  0  0  3  0  0  0  0  0  0
   38.3970   31.8400   44.5390 C   0  0  0  0  0  0  0  0  0  0  0  0
   37.2880   32.4450   44.4310 O   0  0  0  0  0  0  0  0  0  0  0  0
   38.9260   31.5230   45.8370 N   0  0  0  0  0  0  0  0  0  0  0  0
   39.8970   31.1750   46.0000 H   0  0  0  0  0  0  0  0  0  0  0  0
   38.4140   31.1090   48.2410 C   0  0  2  0  0  0  0  0  0  0  0  0
   38.6840   32.5490   48.1150 C   0  0  0  0  0  0  0  0  0  0  0  0
   38.0480   31.7020   46.9820 C   0  0  1  0  0  0  0  0  0  0  0  0
   39.3580   30.5030   48.3350 H   0  0  0  0  0  0  0  0  0  0  0  0
   39.6950   32.9170   47.9470 H   0  0  0  0  0  0  0  0  0  0  0  0
   37.9800   33.2170   48.6700 H   0  0  0  0  0  0  0  0  0  0  0  0
   36.9820   31.9510   46.7740 H   0  0  0  0  0  0  0  0  0  0  0  0
   35.0940   30.1850   49.5600 C   0  0  0  0  0  0  0  0  0  0  0  0
   35.4230   29.5380   50.7940 C   0  0  0  0  0  0  0  0  0  0  0  0
   36.8240   29.4460   51.1410 C   0  0  0  0  0  0  0  0  0  0  0  0
   37.7540   29.9680   50.2990 N   0  0  0  0  0  0  0  0  0  0  0  0
   37.3580   30.5710   49.1380 C   0  0  0  0  0  0  0  0  0  0  0  0
   36.0420   30.6960   48.7410 N   0  0  0  0  0  0  0  0  0  0  0  0
   34.0620   30.2610   49.2890 H   0  0  0  0  0  0  0  0  0  0  0  0
   34.6580   29.1410   51.4270 H   0  0  0  0  0  0  0  0  0  0  0  0
   37.0610   28.9630   52.0600 H   0  0  0  0  0  0  0  0  0  0  0  0
  1  2  1  0  0  0  0
  1 22  1  0  0  0  0
  2  7  1  0  0  0  0
  3  8  1  0  0  0  0
  3  2  2  0  0  0  0
  4  3  1  0  0  0  0
  5  4  2  0  0  0  0
  5  6  1  0  0  0  0
  6  1  2  0  0  0  0
  9  4  1  0  0  0  0
 10  5  1  0  0  0  0
 11 10  2  0  0  0  0
 12 11  1  0  0  0  0
 13 14  2  0  0  0  0
 13 11  1  0  0  0  0
 14 20  1  0  0  0  0
 15 14  1  0  0  0  0
 16 15  2  0  0  0  0
 16 18  1  0  0  0  0
 17 16  1  0  0  0  0
 18 19  2  0  0  0  0
 20 19  1  0  0  0  0
 20 21  2  0  0  0  0
 21 10  1  0  0  0  0
 22 24  1  0  0  0  0
 23 22  2  0  0  0  0
 24 25  1  0  0  0  0
 24 28  1  0  0  0  0
 26 29  1  6  0  0  0
 26 37  1  0  0  0  0
 27 26  1  0  0  0  0
 27 31  1  0  0  0  0
 28 32  1  6  0  0  0
 28 27  1  0  0  0  0
 28 26  1  0  0  0  0
 30 27  1  0  0  0  0
 33 34  1  0  0  0  0
 34 35  2  0  0  0  0
 34 40  1  0  0  0  0
 35 41  1  0  0  0  0
 36 35  1  0  0  0  0
 37 36  2  0  0  0  0
 38 37  1  0  0  0  0
 38 33  2  0  0  0  0
 39 33  1  0  0  0  0
M  END
>  <minimizedAffinity>
-5.45025826

>  <minimizedRMSD>
0.0705801696

$$$$
