
 OpenBabel03272509223D

 49 54  0  0  0  0  0  0  0  0999 V2000
   40.2230   31.2480   44.1380 C   0  0  0  0  0  0  0  0  0  0  0  0
   39.5700   31.8880   45.1730 C   0  0  0  0  0  0  0  0  0  0  0  0
   38.3570   32.5380   44.9140 C   0  0  0  0  0  0  0  0  0  0  0  0
   37.8160   32.5370   43.6280 C   0  0  0  0  0  0  0  0  0  0  0  0
   36.7110   33.0450   43.0580 N   0  0  0  0  0  0  0  0  0  0  0  0
   36.6670   32.7480   41.7520 C   0  0  0  0  0  0  0  0  0  0  0  0
   37.7890   32.0200   41.4800 N   0  0  0  0  0  0  0  0  0  0  0  0
   38.4940   31.8890   42.6200 C   0  0  0  0  0  0  0  0  0  0  0  0
   39.6920   31.2430   42.8610 C   0  0  0  0  0  0  0  0  0  0  0  0
   41.1420   30.7880   44.4610 H   0  0  0  0  0  0  0  0  0  0  0  0
   37.7400   33.0750   45.6190 H   0  0  0  0  0  0  0  0  0  0  0  0
   35.9810   33.6040   43.5820 H   0  0  0  0  0  0  0  0  0  0  0  0
   35.8770   33.0540   41.1100 H   0  0  0  0  0  0  0  0  0  0  0  0
   40.4630   30.5380   41.8390 C   0  0  0  0  0  0  0  0  0  0  0  0
   40.9470   29.2660   42.1210 C   0  0  0  0  0  0  0  0  0  0  0  0
   40.7730   28.7760   43.0770 H   0  0  0  0  0  0  0  0  0  0  0  0
   41.6860   28.5680   41.1620 C   0  0  0  0  0  3  0  0  0  0  0  0
   41.9530   29.1120   39.9240 C   0  0  0  0  0  0  0  0  0  0  0  0
   42.6620   28.4660   38.9770 N   0  0  0  0  0  0  0  0  0  0  0  0
   42.9330   28.9830   37.7640 C   0  0  0  0  0  0  0  0  0  0  0  0
   43.5090   28.3810   37.0800 H   0  0  0  0  0  0  0  0  0  0  0  0
   42.4600   30.2530   37.4580 C   0  0  0  0  0  3  0  0  0  0  0  0
   41.7200   30.9480   38.4200 C   0  0  0  0  0  3  0  0  0  0  0  0
   41.4630   30.3720   39.6690 C   0  0  0  0  0  0  0  0  0  0  0  0
   40.7380   31.0820   40.5830 C   0  0  0  0  0  3  0  0  0  0  0  0
   39.9080   32.0180   46.4980 O   0  0  0  0  0  0  0  0  0  0  0  0
   38.1030   31.4020   47.9820 C   0  0  0  0  0  0  0  0  0  0  0  0
   37.2340   31.5840   49.0410 C   0  0  0  0  0  0  0  0  0  0  0  0
   37.4210   32.8090   49.7200 C   0  0  0  0  0  0  0  0  0  0  0  0
   38.4010   33.7270   49.3320 C   0  0  0  0  0  0  0  0  0  0  0  0
   39.2330   33.4250   48.2270 C   0  0  0  0  0  0  0  0  0  0  0  0
   39.0640   32.2290   47.5510 C   0  0  0  0  0  0  0  0  0  0  0  0
   36.7700   33.0180   50.5650 H   0  0  0  0  0  0  0  0  0  0  0  0
   38.5470   34.6490   49.8390 H   0  0  0  0  0  0  0  0  0  0  0  0
   39.9800   34.1520   47.9510 H   0  0  0  0  0  0  0  0  0  0  0  0
   35.1080   30.4510   48.6330 C   0  0  0  0  0  0  0  0  0  0  0  0
   36.2360   30.6580   49.4420 C   0  0  0  0  0  0  0  0  0  0  0  0
   36.3180   29.9250   50.6250 C   0  0  0  0  0  0  0  0  0  0  0  0
   35.3250   29.0660   50.9290 N   0  0  0  0  0  0  0  0  0  0  0  0
   34.2470   28.8890   50.1260 C   0  0  0  0  0  0  0  0  0  0  0  0
   34.1530   29.5840   48.9870 N   0  0  0  0  0  0  0  0  0  0  0  0
   35.0500   31.0190   47.7230 H   0  0  0  0  0  0  0  0  0  0  0  0
   33.4960   28.1750   50.4520 H   0  0  0  0  0  0  0  0  0  0  0  0
   37.4940   30.0990   51.5310 C   0  0  0  0  0  0  0  0  0  0  0  0
   37.5400   31.1370   51.9320 H   0  0  0  0  0  0  0  0  0  0  0  0
   38.4180   29.9530   50.9260 H   0  0  0  0  0  0  0  0  0  0  0  0
   37.4120   29.3540   52.3420 H   0  0  0  0  0  0  0  0  0  0  0  0
   37.9890   30.2130   47.2500 O   0  0  0  0  0  0  0  0  0  0  0  0
   37.0710   29.7860   47.1300 H   0  0  0  0  0  0  0  0  0  0  0  0
  1 10  1  0  0  0  0
  1  2  1  0  0  0  0
  2 26  1  0  0  0  0
  3  2  2  0  0  0  0
  3 11  1  0  0  0  0
  4  3  1  0  0  0  0
  5 12  1  0  0  0  0
  5  4  1  0  0  0  0
  6  5  1  0  0  0  0
  7  6  2  0  0  0  0
  7  8  1  0  0  0  0
  8  9  1  0  0  0  0
  8  4  2  0  0  0  0
  9  1  2  0  0  0  0
 13  6  1  0  0  0  0
 14 15  1  0  0  0  0
 14  9  1  0  0  0  0
 15 16  1  0  0  0  0
 17 15  2  0  0  0  0
 18 17  1  0  0  0  0
 19 18  2  0  0  0  0
 20 19  1  0  0  0  0
 21 20  1  0  0  0  0
 22 20  2  0  0  0  0
 22 23  1  0  0  0  0
 23 24  2  0  0  0  0
 24 18  1  0  0  0  0
 24 25  1  0  0  0  0
 25 14  2  0  0  0  0
 26 32  1  0  0  0  0
 27 28  1  0  0  0  0
 28 37  1  0  0  0  0
 28 29  2  0  0  0  0
 29 33  1  0  0  0  0
 30 29  1  0  0  0  0
 30 34  1  0  0  0  0
 31 30  2  0  0  0  0
 32 27  2  0  0  0  0
 32 31  1  0  0  0  0
 35 31  1  0  0  0  0
 36 41  2  0  0  0  0
 36 37  1  0  0  0  0
 37 38  2  0  0  0  0
 38 39  1  0  0  0  0
 38 44  1  0  0  0  0
 40 43  1  0  0  0  0
 40 39  2  0  0  0  0
 41 40  1  0  0  0  0
 42 36  1  0  0  0  0
 44 45  1  0  0  0  0
 44 47  1  0  0  0  0
 46 44  1  0  0  0  0
 48 27  1  0  0  0  0
 49 48  1  0  0  0  0
M  END
>  <minimizedAffinity>
-8.28955078

>  <minimizedRMSD>
1.12407267

$$$$
