
     RDKit          3D

 33 36  0  0  0  0  0  0  0  0999 V2000
   38.0024   33.1479   49.4096 C   0  0  0  0  0  0  0  0  0  0  0  0
   38.9940   33.0606   48.4274 C   0  0  0  0  0  0  0  0  0  0  0  0
   38.9394   31.9807   47.5137 C   0  0  0  0  0  0  0  0  0  0  0  0
   37.9411   31.0688   47.6101 N   0  0  0  0  0  0  0  0  0  0  0  0
   36.9936   31.1858   48.5800 C   0  0  0  0  0  0  0  0  0  0  0  0
   37.0118   32.2081   49.4753 N   0  0  0  0  0  0  0  0  0  0  0  0
   35.9186   30.1507   48.6372 C   0  0  2  0  0  0  0  0  0  0  0  0
   34.9562   30.0751   49.7334 C   0  0  0  0  0  0  0  0  0  0  0  0
   36.0765   29.0763   49.6613 C   0  0  2  0  0  0  0  0  0  0  0  0
   37.4654   29.2551   50.8219 S   0  0  0  0  0  0  0  0  0  0  0  0
   38.0261   33.9652   50.1164 H   0  0  0  0  0  0  0  0  0  0  0  0
   39.7918   33.7682   48.3312 H   0  0  0  0  0  0  0  0  0  0  0  0
   39.6949   31.8852   46.7399 H   0  0  0  0  0  0  0  0  0  0  0  0
   35.5668   29.8415   47.6131 H   0  0  0  0  0  0  0  0  0  0  0  0
   33.9327   29.7203   49.5674 H   0  0  0  0  0  0  0  0  0  0  0  0
   35.0330   30.8664   50.5291 H   0  0  0  0  0  0  0  0  0  0  0  0
   35.8232   28.0456   49.3139 H   0  0  0  0  0  0  0  0  0  0  0  0
   37.5047   27.8994   51.9637 C   0  0  0  0  0  0  0  0  0  0  0  0
   36.3571   27.4331   52.5947 C   0  0  0  0  0  0  0  0  0  0  0  0
   35.4304   27.9513   52.3452 H   0  0  0  0  0  0  0  0  0  0  0  0
   36.4121   26.3780   53.4784 C   0  0  0  0  0  0  0  0  0  0  0  0
   37.6263   25.7714   53.7437 C   0  0  0  0  0  0  0  0  0  0  0  0
   37.6580   24.7455   54.6074 N   0  0  0  0  0  0  0  0  0  0  0  0
   38.8094   24.1151   54.9059 C   0  0  0  0  0  0  0  0  0  0  0  0
   38.7339   23.3040   55.6094 H   0  0  0  0  0  0  0  0  0  0  0  0
   39.9733   24.5458   54.3018 C   0  0  0  0  0  0  0  0  0  0  0  0
   39.9772   25.5980   53.4084 C   0  0  0  0  0  0  0  0  0  0  0  0
   38.7859   26.2337   53.1137 C   0  0  0  0  0  0  0  0  0  0  0  0
   38.7100   27.2863   52.2365 C   0  0  0  0  0  0  0  0  0  0  0  0
   35.4770   26.0674   53.9336 H   0  0  0  0  0  0  0  0  0  0  0  0
   40.8553   24.0009   54.5830 H   0  0  0  0  0  0  0  0  0  0  0  0
   40.8941   25.9159   52.9508 H   0  0  0  0  0  0  0  0  0  0  0  0
   39.6271   27.6272   51.7592 H   0  0  0  0  0  0  0  0  0  0  0  0
  1  6  2  0
  2  1  1  0
  3  4  1  0
  3  2  2  0
  4  5  2  0
  5  7  1  0
  5  6  1  0
  7  9  1  0
  7  8  1  0
  9  8  1  0
  9 10  1  0
  1 11  1  0
  2 12  1  0
  3 13  1  0
  7 14  1  6
  8 15  1  0
  8 16  1  0
  9 17  1  6
 18 19  2  0
 19 20  1  0
 19 21  1  0
 21 22  2  0
 22 23  1  0
 23 24  2  0
 24 25  1  0
 24 26  1  0
 26 27  2  0
 27 28  1  0
 28 29  2  0
 29 18  1  0
 28 22  1  0
 21 30  1  0
 26 31  1  0
 27 32  1  0
 29 33  1  0
 10 18  1  0
M  ISO  8  11  14  12  14  13  14  14  13  15  13  16  13  17  13  20  16
M  ISO  1  25  16
M  END
>  <DihAtoms>  (1) 
8,9,17,18

>  <DihDeg>  (1) 
-90.0009893536914

$$$$
