
 OpenBabel03272505313D

 43 47  0  0  0  0  0  0  0  0999 V2000
   37.3980   31.2460   47.0250 N   0  0  0  0  0  0  0  0  0  0  0  0
   36.6890   31.0710   45.8760 C   0  0  0  0  0  0  0  0  0  0  0  0
   37.0950   31.6140   44.6740 C   0  0  0  0  0  0  0  0  0  0  0  0
   38.2810   32.3650   44.6820 C   0  0  0  0  0  0  0  0  0  0  0  0
   38.6950   32.8840   43.6110 O   0  0  0  0  0  0  0  0  0  0  0  0
   38.9910   32.5390   45.8380 N   0  0  0  0  0  0  0  0  0  0  0  0
   38.4940   31.9640   46.9230 C   0  0  0  0  0  0  0  0  0  0  0  0
   39.1690   32.1450   47.9640 O   0  0  0  0  0  0  0  0  0  0  0  0
   35.7800   30.4920   45.8860 H   0  0  0  0  0  0  0  0  0  0  0  0
   37.4370   29.5260   50.3250 C   0  0  0  0  0  0  0  0  0  0  0  0
   37.8530   30.0920   49.1120 C   0  0  0  0  0  0  0  0  0  0  0  0
   36.9680   30.6840   48.2330 C   0  0  0  0  0  0  0  0  0  0  0  0
   35.6800   30.6940   48.5950 N   0  0  0  0  0  0  0  0  0  0  0  0
   35.2330   30.1560   49.7630 C   0  0  0  0  0  0  0  0  0  0  0  0
   36.1240   29.5760   50.6160 N   0  0  0  0  0  0  0  0  0  0  0  0
   38.1310   29.0630   51.0120 H   0  0  0  0  0  0  0  0  0  0  0  0
   38.8980   30.0350   48.9130 H   0  0  0  0  0  0  0  0  0  0  0  0
   34.1860   30.1740   50.0380 H   0  0  0  0  0  0  0  0  0  0  0  0
   36.3810   31.4620   43.4140 C   0  0  0  0  0  0  0  0  0  0  0  0
   36.5640   30.4020   42.5720 C   0  0  0  0  0  0  0  0  0  0  0  0
   35.9010   30.2350   41.3740 C   0  0  0  0  0  0  0  0  0  0  0  0
   34.9790   31.2160   40.9940 C   0  0  0  0  0  0  0  0  0  0  0  0
   34.8240   32.2720   41.8730 C   0  0  0  0  0  0  0  0  0  0  0  0
   35.4970   32.3690   43.0140 N   0  0  0  0  0  0  0  0  0  0  0  0
   37.2660   29.6170   42.8220 H   0  0  0  0  0  0  0  0  0  0  0  0
   36.0560   29.3870   40.7130 H   0  0  0  0  0  0  0  0  0  0  0  0
   34.4510   31.1150   40.0740 H   0  0  0  0  0  0  0  0  0  0  0  0
   33.8850   33.3460   41.5670 C   0  0  0  0  0  0  0  0  0  0  0  0
   34.3320   34.5010   40.9420 C   0  0  0  0  0  0  0  0  0  0  0  0
   35.3910   34.5950   40.6840 H   0  0  0  0  0  0  0  0  0  0  0  0
   33.5600   35.5910   40.5960 C   0  0  0  0  0  3  0  0  0  0  0  0
   32.2150   35.5290   40.8980 C   0  0  0  0  0  0  0  0  0  0  0  0
   31.3950   36.5510   40.5920 N   0  0  0  0  0  0  0  0  0  0  0  0
   30.0740   36.5210   40.8750 C   0  0  0  0  0  0  0  0  0  0  0  0
   29.4210   37.3490   40.6240 H   0  0  0  0  0  0  0  0  0  0  0  0
   29.5850   35.3750   41.5040 C   0  0  0  0  0  3  0  0  0  0  0  0
   30.3800   34.2930   41.8430 C   0  0  0  0  0  3  0  0  0  0  0  0
   31.7170   34.4030   41.5200 C   0  0  0  0  0  0  0  0  0  0  0  0
   32.5340   33.3380   41.8450 C   0  0  0  0  0  3  0  0  0  0  0  0
   40.2050   33.3100   45.8330 C   0  0  0  0  0  0  0  0  0  0  0  0
   40.1810   34.2390   44.8550 F   0  0  0  0  0  0  0  0  0  0  0  0
   41.3470   32.5440   45.5960 F   0  0  0  0  0  0  0  0  0  0  0  0
   40.3310   33.9640   47.0530 F   0  0  0  0  0  0  0  0  0  0  0  0
  1 12  1  0  0  0  0
  2  9  1  0  0  0  0
  2  1  1  0  0  0  0
  3  4  1  0  0  0  0
  3  2  2  0  0  0  0
  4  6  1  0  0  0  0
  5  4  2  0  0  0  0
  6  7  1  0  0  0  0
  7  1  1  0  0  0  0
  7  8  2  0  0  0  0
 10 15  1  0  0  0  0
 10 16  1  0  0  0  0
 11 10  2  0  0  0  0
 12 13  2  0  0  0  0
 12 11  1  0  0  0  0
 13 14  1  0  0  0  0
 14 18  1  0  0  0  0
 14 15  2  0  0  0  0
 17 11  1  0  0  0  0
 19  3  1  0  0  0  0
 20 25  1  0  0  0  0
 20 19  2  0  0  0  0
 21 20  1  0  0  0  0
 22 21  2  0  0  0  0
 22 23  1  0  0  0  0
 23 24  2  0  0  0  0
 24 19  1  0  0  0  0
 26 21  1  0  0  0  0
 27 22  1  0  0  0  0
 28 39  1  0  0  0  0
 28 23  1  0  0  0  0
 29 28  2  0  0  0  0
 30 29  1  0  0  0  0
 31 32  2  0  0  0  0
 31 29  1  0  0  0  0
 32 38  1  0  0  0  0
 33 34  2  0  0  0  0
 33 32  1  0  0  0  0
 34 36  1  0  0  0  0
 35 34  1  0  0  0  0
 36 37  2  0  0  0  0
 38 37  1  0  0  0  0
 38 39  2  0  0  0  0
 40  6  1  0  0  0  0
 40 43  1  0  0  0  0
 41 40  1  0  0  0  0
 42 40  1  0  0  0  0
M  END
>  <minimizedAffinity>
-7.14329004

>  <minimizedRMSD>
0.886966705

$$$$
