
 OpenBabel03272509233D

 49 54  0  0  0  0  0  0  0  0999 V2000
   36.9910   27.8580   32.6160 C   0  0  0  0  0  0  0  0  0  0  0  0
   37.9020   27.2880   31.7500 C   0  0  0  0  0  0  0  0  0  0  0  0
   38.1990   27.9410   30.5470 C   0  0  0  0  0  0  0  0  0  0  0  0
   37.5820   29.1520   30.2300 C   0  0  0  0  0  0  0  0  0  0  0  0
   37.6400   30.0100   29.1980 N   0  0  0  0  0  0  0  0  0  0  0  0
   36.8210   31.0510   29.3970 C   0  0  0  0  0  0  0  0  0  0  0  0
   36.2180   30.8490   30.6050 N   0  0  0  0  0  0  0  0  0  0  0  0
   36.6790   29.6920   31.1180 C   0  0  0  0  0  0  0  0  0  0  0  0
   36.3770   29.0580   32.3080 C   0  0  0  0  0  0  0  0  0  0  0  0
   36.8470   27.2640   33.5020 H   0  0  0  0  0  0  0  0  0  0  0  0
   38.8860   27.6160   29.7790 H   0  0  0  0  0  0  0  0  0  0  0  0
   38.2540   29.8680   28.3480 H   0  0  0  0  0  0  0  0  0  0  0  0
   36.7110   31.8480   28.7030 H   0  0  0  0  0  0  0  0  0  0  0  0
   35.4280   29.5750   33.2930 C   0  0  0  0  0  0  0  0  0  0  0  0
   34.0870   29.2230   33.1830 C   0  0  0  0  0  0  0  0  0  0  0  0
   33.7190   28.5770   32.3890 H   0  0  0  0  0  0  0  0  0  0  0  0
   33.1590   29.7010   34.1110 C   0  0  0  0  0  3  0  0  0  0  0  0
   33.5380   30.5250   35.1480 C   0  0  0  0  0  0  0  0  0  0  0  0
   32.6680   31.0040   36.0610 N   0  0  0  0  0  0  0  0  0  0  0  0
   33.0210   31.8100   37.0800 C   0  0  0  0  0  0  0  0  0  0  0  0
   32.2450   32.1350   37.7520 H   0  0  0  0  0  0  0  0  0  0  0  0
   34.3550   32.1750   37.2110 C   0  0  0  0  0  3  0  0  0  0  0  0
   35.2820   31.6940   36.2800 C   0  0  0  0  0  3  0  0  0  0  0  0
   34.8700   30.8590   35.2360 C   0  0  0  0  0  0  0  0  0  0  0  0
   35.8040   30.4090   34.3470 C   0  0  0  0  0  3  0  0  0  0  0  0
   38.6220   26.1220   31.8490 O   0  0  0  0  0  0  0  0  0  0  0  0
   38.5400   24.7930   33.8660 C   0  0  0  0  0  0  0  0  0  0  0  0
   38.2240   23.6800   34.6220 C   0  0  0  0  0  0  0  0  0  0  0  0
   37.5640   22.6690   33.8870 C   0  0  0  0  0  0  0  0  0  0  0  0
   37.2740   22.8140   32.5270 C   0  0  0  0  0  0  0  0  0  0  0  0
   37.6490   24.0060   31.8630 C   0  0  0  0  0  0  0  0  0  0  0  0
   38.2960   25.0070   32.5670 C   0  0  0  0  0  0  0  0  0  0  0  0
   37.2870   21.7630   34.4190 H   0  0  0  0  0  0  0  0  0  0  0  0
   36.7780   22.0580   31.9710 H   0  0  0  0  0  0  0  0  0  0  0  0
   37.4120   24.0890   30.8150 H   0  0  0  0  0  0  0  0  0  0  0  0
   37.6100   23.9930   36.9660 C   0  0  0  0  0  0  0  0  0  0  0  0
   38.5150   23.5240   36.0010 C   0  0  0  0  0  0  0  0  0  0  0  0
   39.6810   22.9150   36.4640 C   0  0  0  0  0  0  0  0  0  0  0  0
   39.8780   22.8090   37.7920 N   0  0  0  0  0  0  0  0  0  0  0  0
   38.9830   23.2730   38.6990 C   0  0  0  0  0  0  0  0  0  0  0  0
   37.8590   23.8600   38.2720 N   0  0  0  0  0  0  0  0  0  0  0  0
   36.7130   24.4620   36.6040 H   0  0  0  0  0  0  0  0  0  0  0  0
   39.2270   23.1430   39.7500 H   0  0  0  0  0  0  0  0  0  0  0  0
   40.6870   22.3940   35.4890 C   0  0  0  0  0  0  0  0  0  0  0  0
   41.1180   23.2200   34.8770 H   0  0  0  0  0  0  0  0  0  0  0  0
   40.1590   21.7180   34.7780 H   0  0  0  0  0  0  0  0  0  0  0  0
   41.4690   21.8600   36.0580 H   0  0  0  0  0  0  0  0  0  0  0  0
   39.1970   25.8480   34.5140 O   0  0  0  0  0  0  0  0  0  0  0  0
   39.8510   25.6410   35.2680 H   0  0  0  0  0  0  0  0  0  0  0  0
  1 10  1  0  0  0  0
  2 26  1  0  0  0  0
  2  1  2  0  0  0  0
  3  2  1  0  0  0  0
  4  3  2  0  0  0  0
  4  8  1  0  0  0  0
  5  6  1  0  0  0  0
  5  4  1  0  0  0  0
  6  7  2  0  0  0  0
  7  8  1  0  0  0  0
  8  9  2  0  0  0  0
  9  1  1  0  0  0  0
  9 14  1  0  0  0  0
 11  3  1  0  0  0  0
 12  5  1  0  0  0  0
 13  6  1  0  0  0  0
 14 25  1  0  0  0  0
 15 14  2  0  0  0  0
 15 17  1  0  0  0  0
 16 15  1  0  0  0  0
 17 18  2  0  0  0  0
 18 24  1  0  0  0  0
 18 19  1  0  0  0  0
 19 20  2  0  0  0  0
 20 22  1  0  0  0  0
 20 21  1  0  0  0  0
 23 22  2  0  0  0  0
 24 23  1  0  0  0  0
 25 24  2  0  0  0  0
 26 32  1  0  0  0  0
 27 48  1  0  0  0  0
 27 28  1  0  0  0  0
 28 37  1  0  0  0  0
 29 33  1  0  0  0  0
 29 28  2  0  0  0  0
 30 29  1  0  0  0  0
 31 30  2  0  0  0  0
 31 32  1  0  0  0  0
 32 27  2  0  0  0  0
 34 30  1  0  0  0  0
 35 31  1  0  0  0  0
 36 41  1  0  0  0  0
 37 38  1  0  0  0  0
 37 36  2  0  0  0  0
 38 39  2  0  0  0  0
 39 40  1  0  0  0  0
 40 43  1  0  0  0  0
 41 40  2  0  0  0  0
 42 36  1  0  0  0  0
 44 47  1  0  0  0  0
 44 38  1  0  0  0  0
 45 44  1  0  0  0  0
 46 44  1  0  0  0  0
 48 49  1  0  0  0  0
M  END
>  <minimizedAffinity>
-7.52342463

$$$$

 OpenBabel03272509233D

 49 54  0  0  0  0  0  0  0  0999 V2000
   38.0300   26.1290   33.4500 C   0  0  0  0  0  0  0  0  0  0  0  0
   37.3700   26.8800   32.4980 C   0  0  0  0  0  0  0  0  0  0  0  0
   36.5260   26.2350   31.5860 C   0  0  0  0  0  0  0  0  0  0  0  0
   36.3550   24.8510   31.6400 C   0  0  0  0  0  0  0  0  0  0  0  0
   35.6440   23.9500   30.9410 N   0  0  0  0  0  0  0  0  0  0  0  0
   35.8410   22.7140   31.4180 C   0  0  0  0  0  0  0  0  0  0  0  0
   36.7110   22.8320   32.4630 N   0  0  0  0  0  0  0  0  0  0  0  0
   37.0280   24.1340   32.6030 C   0  0  0  0  0  0  0  0  0  0  0  0
   37.8640   24.7580   33.5100 C   0  0  0  0  0  0  0  0  0  0  0  0
   38.6460   26.7370   34.0900 H   0  0  0  0  0  0  0  0  0  0  0  0
   35.9500   26.6900   30.7930 H   0  0  0  0  0  0  0  0  0  0  0  0
   35.0180   24.1990   30.1250 H   0  0  0  0  0  0  0  0  0  0  0  0
   35.3740   21.8500   31.0100 H   0  0  0  0  0  0  0  0  0  0  0  0
   38.6070   24.0570   34.5540 C   0  0  0  0  0  0  0  0  0  0  0  0
   38.1590   24.1380   35.8680 C   0  0  0  0  0  0  0  0  0  0  0  0
   37.2730   24.7060   36.1460 H   0  0  0  0  0  0  0  0  0  0  0  0
   38.8500   23.4770   36.8870 C   0  0  0  0  0  3  0  0  0  0  0  0
   39.9810   22.7360   36.6240 C   0  0  0  0  0  0  0  0  0  0  0  0
   40.6720   22.0860   37.5840 N   0  0  0  0  0  0  0  0  0  0  0  0
   41.7780   21.3580   37.3460 C   0  0  0  0  0  0  0  0  0  0  0  0
   42.2530   20.8790   38.1860 H   0  0  0  0  0  0  0  0  0  0  0  0
   42.2460   21.2610   36.0410 C   0  0  0  0  0  3  0  0  0  0  0  0
   41.5510   21.9240   35.0230 C   0  0  0  0  0  3  0  0  0  0  0  0
   40.4050   22.6700   35.3170 C   0  0  0  0  0  0  0  0  0  0  0  0
   39.7540   23.3030   34.2970 C   0  0  0  0  0  3  0  0  0  0  0  0
   37.3860   28.2330   32.2580 O   0  0  0  0  0  0  0  0  0  0  0  0
   35.7340   29.4400   33.5460 C   0  0  0  0  0  0  0  0  0  0  0  0
   34.6870   30.3230   33.7270 C   0  0  0  0  0  0  0  0  0  0  0  0
   34.2450   30.9270   32.5280 C   0  0  0  0  0  0  0  0  0  0  0  0
   34.8340   30.6380   31.2940 C   0  0  0  0  0  0  0  0  0  0  0  0
   35.9050   29.7130   31.2380 C   0  0  0  0  0  0  0  0  0  0  0  0
   36.3500   29.1120   32.4030 C   0  0  0  0  0  0  0  0  0  0  0  0
   33.4220   31.6330   32.5970 H   0  0  0  0  0  0  0  0  0  0  0  0
   34.5070   31.0890   30.3900 H   0  0  0  0  0  0  0  0  0  0  0  0
   36.3390   29.5100   30.2730 H   0  0  0  0  0  0  0  0  0  0  0  0
   32.8840   29.9920   35.3430 C   0  0  0  0  0  0  0  0  0  0  0  0
   34.0830   30.6220   34.9750 C   0  0  0  0  0  0  0  0  0  0  0  0
   34.6300   31.5310   35.8800 C   0  0  0  0  0  0  0  0  0  0  0  0
   33.9900   31.7560   37.0450 N   0  0  0  0  0  0  0  0  0  0  0  0
   32.8320   31.1310   37.3690 C   0  0  0  0  0  0  0  0  0  0  0  0
   32.2930   30.2560   36.5130 N   0  0  0  0  0  0  0  0  0  0  0  0
   32.4660   29.2930   34.6410 H   0  0  0  0  0  0  0  0  0  0  0  0
   32.3870   31.3760   38.3300 H   0  0  0  0  0  0  0  0  0  0  0  0
   35.9060   32.2360   35.5500 C   0  0  0  0  0  0  0  0  0  0  0  0
   35.7820   32.8890   34.6560 H   0  0  0  0  0  0  0  0  0  0  0  0
   36.6630   31.4670   35.2770 H   0  0  0  0  0  0  0  0  0  0  0  0
   36.2130   32.8180   36.4380 H   0  0  0  0  0  0  0  0  0  0  0  0
   36.2380   28.7930   34.6820 O   0  0  0  0  0  0  0  0  0  0  0  0
   35.6030   28.5550   35.4440 H   0  0  0  0  0  0  0  0  0  0  0  0
  1  9  1  0  0  0  0
  1 10  1  0  0  0  0
  2  1  2  0  0  0  0
  3  4  2  0  0  0  0
  3  2  1  0  0  0  0
  4  8  1  0  0  0  0
  5  6  1  0  0  0  0
  5  4  1  0  0  0  0
  6  7  2  0  0  0  0
  7  8  1  0  0  0  0
  8  9  2  0  0  0  0
  9 14  1  0  0  0  0
 11  3  1  0  0  0  0
 12  5  1  0  0  0  0
 13  6  1  0  0  0  0
 14 15  1  0  0  0  0
 15 16  1  0  0  0  0
 15 17  2  0  0  0  0
 18 17  1  0  0  0  0
 18 19  1  0  0  0  0
 20 19  2  0  0  0  0
 20 21  1  0  0  0  0
 22 20  1  0  0  0  0
 23 24  1  0  0  0  0
 23 22  2  0  0  0  0
 24 18  2  0  0  0  0
 25 14  2  0  0  0  0
 25 24  1  0  0  0  0
 26 32  1  0  0  0  0
 26  2  1  0  0  0  0
 27 28  1  0  0  0  0
 27 48  1  0  0  0  0
 28 37  1  0  0  0  0
 29 33  1  0  0  0  0
 29 28  2  0  0  0  0
 30 29  1  0  0  0  0
 31 30  2  0  0  0  0
 31 32  1  0  0  0  0
 32 27  2  0  0  0  0
 34 30  1  0  0  0  0
 35 31  1  0  0  0  0
 36 41  1  0  0  0  0
 37 36  2  0  0  0  0
 37 38  1  0  0  0  0
 38 39  2  0  0  0  0
 39 40  1  0  0  0  0
 40 43  1  0  0  0  0
 41 40  2  0  0  0  0
 42 36  1  0  0  0  0
 44 38  1  0  0  0  0
 44 47  1  0  0  0  0
 45 44  1  0  0  0  0
 46 44  1  0  0  0  0
 48 49  1  0  0  0  0
M  END
>  <minimizedAffinity>
-7.4730196

$$$$

 OpenBabel03272509233D

 49 54  0  0  0  0  0  0  0  0999 V2000
   37.0990   27.6340   33.9280 C   0  0  0  0  0  0  0  0  0  0  0  0
   38.0240   26.8700   33.2450 C   0  0  0  0  0  0  0  0  0  0  0  0
   38.2700   27.1450   31.8940 C   0  0  0  0  0  0  0  0  0  0  0  0
   37.5890   28.1780   31.2480 C   0  0  0  0  0  0  0  0  0  0  0  0
   37.5880   28.6890   30.0060 N   0  0  0  0  0  0  0  0  0  0  0  0
   36.7220   29.7060   29.9090 C   0  0  0  0  0  0  0  0  0  0  0  0
   36.1490   29.8490   31.1400 N   0  0  0  0  0  0  0  0  0  0  0  0
   36.6740   28.9200   31.9610 C   0  0  0  0  0  0  0  0  0  0  0  0
   36.4220   28.6590   33.2950 C   0  0  0  0  0  0  0  0  0  0  0  0
   36.9990   27.3260   34.9550 H   0  0  0  0  0  0  0  0  0  0  0  0
   38.9600   26.6340   31.2380 H   0  0  0  0  0  0  0  0  0  0  0  0
   38.1950   28.3260   29.2190 H   0  0  0  0  0  0  0  0  0  0  0  0
   36.5620   30.2540   29.0130 H   0  0  0  0  0  0  0  0  0  0  0  0
   35.4640   29.4060   34.1080 C   0  0  0  0  0  0  0  0  0  0  0  0
   34.1210   29.0480   34.0640 C   0  0  0  0  0  0  0  0  0  0  0  0
   33.7580   28.2300   33.4440 H   0  0  0  0  0  0  0  0  0  0  0  0
   33.1840   29.7440   34.8310 C   0  0  0  0  0  3  0  0  0  0  0  0
   33.5570   30.7920   35.6440 C   0  0  0  0  0  0  0  0  0  0  0  0
   32.6780   31.4840   36.3980 N   0  0  0  0  0  0  0  0  0  0  0  0
   33.0240   32.5100   37.1970 C   0  0  0  0  0  0  0  0  0  0  0  0
   32.2420   32.9950   37.7560 H   0  0  0  0  0  0  0  0  0  0  0  0
   34.3610   32.8870   37.2580 C   0  0  0  0  0  3  0  0  0  0  0  0
   35.2960   32.1880   36.4890 C   0  0  0  0  0  3  0  0  0  0  0  0
   34.8910   31.1280   35.6710 C   0  0  0  0  0  0  0  0  0  0  0  0
   35.8340   30.4690   34.9340 C   0  0  0  0  0  3  0  0  0  0  0  0
   38.8020   25.8180   33.6670 O   0  0  0  0  0  0  0  0  0  0  0  0
   37.8730   23.6060   33.3780 C   0  0  0  0  0  0  0  0  0  0  0  0
   37.4340   22.3660   33.8020 C   0  0  0  0  0  0  0  0  0  0  0  0
   37.5490   22.1750   35.1980 C   0  0  0  0  0  0  0  0  0  0  0  0
   38.0630   23.1650   36.0400 C   0  0  0  0  0  0  0  0  0  0  0  0
   38.4810   24.3970   35.4840 C   0  0  0  0  0  0  0  0  0  0  0  0
   38.3760   24.6020   34.1190 C   0  0  0  0  0  0  0  0  0  0  0  0
   37.2210   21.2200   35.6010 H   0  0  0  0  0  0  0  0  0  0  0  0
   38.1520   23.0260   37.0890 H   0  0  0  0  0  0  0  0  0  0  0  0
   38.8730   25.1420   36.1580 H   0  0  0  0  0  0  0  0  0  0  0  0
   35.5230   21.2230   32.7960 C   0  0  0  0  0  0  0  0  0  0  0  0
   36.9110   21.3560   32.9550 C   0  0  0  0  0  0  0  0  0  0  0  0
   37.7220   20.4640   32.2530 C   0  0  0  0  0  0  0  0  0  0  0  0
   37.1420   19.5340   31.4700 N   0  0  0  0  0  0  0  0  0  0  0  0
   35.7960   19.4320   31.3380 C   0  0  0  0  0  0  0  0  0  0  0  0
   35.0030   20.2800   32.0040 N   0  0  0  0  0  0  0  0  0  0  0  0
   34.9030   21.9130   33.3400 H   0  0  0  0  0  0  0  0  0  0  0  0
   35.4180   18.6510   30.6840 H   0  0  0  0  0  0  0  0  0  0  0  0
   39.2090   20.5510   32.3790 C   0  0  0  0  0  0  0  0  0  0  0  0
   39.5360   20.3440   33.4230 H   0  0  0  0  0  0  0  0  0  0  0  0
   39.5120   21.6000   32.1560 H   0  0  0  0  0  0  0  0  0  0  0  0
   39.6530   19.8350   31.6640 H   0  0  0  0  0  0  0  0  0  0  0  0
   37.7960   23.8840   32.0070 O   0  0  0  0  0  0  0  0  0  0  0  0
   37.0320   23.4890   31.4590 H   0  0  0  0  0  0  0  0  0  0  0  0
  1 10  1  0  0  0  0
  2 26  1  0  0  0  0
  2  1  2  0  0  0  0
  3  2  1  0  0  0  0
  4  3  2  0  0  0  0
  4  8  1  0  0  0  0
  5  4  1  0  0  0  0
  6  5  1  0  0  0  0
  6  7  2  0  0  0  0
  7  8  1  0  0  0  0
  8  9  2  0  0  0  0
  9  1  1  0  0  0  0
  9 14  1  0  0  0  0
 11  3  1  0  0  0  0
 12  5  1  0  0  0  0
 13  6  1  0  0  0  0
 14 25  1  0  0  0  0
 15 14  2  0  0  0  0
 15 17  1  0  0  0  0
 16 15  1  0  0  0  0
 17 18  2  0  0  0  0
 18 24  1  0  0  0  0
 18 19  1  0  0  0  0
 19 20  2  0  0  0  0
 20 22  1  0  0  0  0
 20 21  1  0  0  0  0
 23 22  2  0  0  0  0
 24 23  1  0  0  0  0
 25 24  2  0  0  0  0
 26 32  1  0  0  0  0
 27 28  2  0  0  0  0
 27 32  1  0  0  0  0
 28 29  1  0  0  0  0
 29 33  1  0  0  0  0
 29 30  2  0  0  0  0
 30 34  1  0  0  0  0
 31 30  1  0  0  0  0
 31 35  1  0  0  0  0
 32 31  2  0  0  0  0
 36 37  1  0  0  0  0
 36 42  1  0  0  0  0
 37 28  1  0  0  0  0
 38 44  1  0  0  0  0
 38 37  2  0  0  0  0
 39 38  1  0  0  0  0
 40 39  2  0  0  0  0
 40 41  1  0  0  0  0
 41 36  2  0  0  0  0
 43 40  1  0  0  0  0
 44 45  1  0  0  0  0
 46 44  1  0  0  0  0
 47 44  1  0  0  0  0
 48 27  1  0  0  0  0
 49 48  1  0  0  0  0
M  END
>  <minimizedAffinity>
-7.28008175

$$$$

 OpenBabel03272509233D

 49 54  0  0  0  0  0  0  0  0999 V2000
   36.5340   27.7480   34.0230 C   0  0  0  0  0  0  0  0  0  0  0  0
   37.3430   26.9080   33.2840 C   0  0  0  0  0  0  0  0  0  0  0  0
   37.6430   27.2450   31.9580 C   0  0  0  0  0  0  0  0  0  0  0  0
   37.1320   28.4140   31.3940 C   0  0  0  0  0  0  0  0  0  0  0  0
   37.2220   29.0130   30.1950 N   0  0  0  0  0  0  0  0  0  0  0  0
   36.5180   30.1520   30.1760 C   0  0  0  0  0  0  0  0  0  0  0  0
   35.9590   30.2860   31.4140 N   0  0  0  0  0  0  0  0  0  0  0  0
   36.3290   29.2290   32.1610 C   0  0  0  0  0  0  0  0  0  0  0  0
   36.0250   28.9080   33.4710 C   0  0  0  0  0  0  0  0  0  0  0  0
   36.3770   27.3820   35.0240 H   0  0  0  0  0  0  0  0  0  0  0  0
   38.2570   26.6880   31.2650 H   0  0  0  0  0  0  0  0  0  0  0  0
   37.7770   28.6230   29.3820 H   0  0  0  0  0  0  0  0  0  0  0  0
   36.4530   30.7840   29.3240 H   0  0  0  0  0  0  0  0  0  0  0  0
   35.1800   29.7260   34.3380 C   0  0  0  0  0  0  0  0  0  0  0  0
   33.8420   29.3820   34.4920 C   0  0  0  0  0  0  0  0  0  0  0  0
   33.4010   28.5240   33.9880 H   0  0  0  0  0  0  0  0  0  0  0  0
   33.0110   30.1450   35.3160 C   0  0  0  0  0  3  0  0  0  0  0  0
   33.4870   31.2480   35.9920 C   0  0  0  0  0  0  0  0  0  0  0  0
   32.7120   32.0060   36.7950 N   0  0  0  0  0  0  0  0  0  0  0  0
   33.1590   33.0860   37.4620 C   0  0  0  0  0  0  0  0  0  0  0  0
   32.4550   33.6210   38.0780 H   0  0  0  0  0  0  0  0  0  0  0  0
   34.4930   33.4510   37.3250 C   0  0  0  0  0  3  0  0  0  0  0  0
   35.3220   32.6840   36.4990 C   0  0  0  0  0  3  0  0  0  0  0  0
   34.8140   31.5690   35.8240 C   0  0  0  0  0  0  0  0  0  0  0  0
   35.6540   30.8450   35.0270 C   0  0  0  0  0  3  0  0  0  0  0  0
   37.9500   25.7230   33.6240 O   0  0  0  0  0  0  0  0  0  0  0  0
   39.7310   24.4220   34.6120 C   0  0  0  0  0  0  0  0  0  0  0  0
   41.0040   24.2120   35.1060 C   0  0  0  0  0  0  0  0  0  0  0  0
   41.8260   25.3610   35.0510 C   0  0  0  0  0  0  0  0  0  0  0  0
   41.3640   26.5770   34.5390 C   0  0  0  0  0  0  0  0  0  0  0  0
   40.0350   26.6650   34.0600 C   0  0  0  0  0  0  0  0  0  0  0  0
   39.2160   25.5500   34.1060 C   0  0  0  0  0  0  0  0  0  0  0  0
   42.8420   25.2680   35.4250 H   0  0  0  0  0  0  0  0  0  0  0  0
   41.9770   27.4430   34.4950 H   0  0  0  0  0  0  0  0  0  0  0  0
   39.7070   27.6150   33.6710 H   0  0  0  0  0  0  0  0  0  0  0  0
   41.2670   22.6640   36.9780 C   0  0  0  0  0  0  0  0  0  0  0  0
   41.4810   22.9830   35.6280 C   0  0  0  0  0  0  0  0  0  0  0  0
   42.1690   22.0490   34.8530 C   0  0  0  0  0  0  0  0  0  0  0  0
   42.5870   20.9050   35.4290 N   0  0  0  0  0  0  0  0  0  0  0  0
   42.3640   20.6270   36.7370 C   0  0  0  0  0  0  0  0  0  0  0  0
   41.7050   21.5120   37.4950 N   0  0  0  0  0  0  0  0  0  0  0  0
   40.7360   23.3870   37.5710 H   0  0  0  0  0  0  0  0  0  0  0  0
   42.7380   19.6800   37.1150 H   0  0  0  0  0  0  0  0  0  0  0  0
   42.4300   22.3280   33.4080 C   0  0  0  0  0  0  0  0  0  0  0  0
   43.0880   23.2180   33.2840 H   0  0  0  0  0  0  0  0  0  0  0  0
   41.4590   22.5830   32.9260 H   0  0  0  0  0  0  0  0  0  0  0  0
   42.8830   21.4240   32.9630 H   0  0  0  0  0  0  0  0  0  0  0  0
   38.8450   23.3360   34.6260 O   0  0  0  0  0  0  0  0  0  0  0  0
   38.9060   22.6520   35.3810 H   0  0  0  0  0  0  0  0  0  0  0  0
  1 10  1  0  0  0  0
  2 26  1  0  0  0  0
  2  1  2  0  0  0  0
  3  2  1  0  0  0  0
  4  3  2  0  0  0  0
  4  8  1  0  0  0  0
  5  4  1  0  0  0  0
  6  5  1  0  0  0  0
  6  7  2  0  0  0  0
  7  8  1  0  0  0  0
  8  9  2  0  0  0  0
  9  1  1  0  0  0  0
  9 14  1  0  0  0  0
 11  3  1  0  0  0  0
 12  5  1  0  0  0  0
 13  6  1  0  0  0  0
 14 15  2  0  0  0  0
 14 25  1  0  0  0  0
 15 17  1  0  0  0  0
 16 15  1  0  0  0  0
 17 18  2  0  0  0  0
 18 19  1  0  0  0  0
 19 20  2  0  0  0  0
 20 21  1  0  0  0  0
 22 20  1  0  0  0  0
 23 22  2  0  0  0  0
 24 18  1  0  0  0  0
 24 23  1  0  0  0  0
 25 24  2  0  0  0  0
 26 32  1  0  0  0  0
 27 48  1  0  0  0  0
 27 28  1  0  0  0  0
 28 37  1  0  0  0  0
 29 28  2  0  0  0  0
 29 33  1  0  0  0  0
 30 29  1  0  0  0  0
 31 32  1  0  0  0  0
 31 30  2  0  0  0  0
 32 27  2  0  0  0  0
 34 30  1  0  0  0  0
 35 31  1  0  0  0  0
 36 41  1  0  0  0  0
 36 42  1  0  0  0  0
 37 36  2  0  0  0  0
 38 39  2  0  0  0  0
 38 37  1  0  0  0  0
 39 40  1  0  0  0  0
 40 43  1  0  0  0  0
 40 41  2  0  0  0  0
 44 38  1  0  0  0  0
 45 44  1  0  0  0  0
 46 44  1  0  0  0  0
 47 44  1  0  0  0  0
 48 49  1  0  0  0  0
M  END
>  <minimizedAffinity>
-7.22414017

$$$$

 OpenBabel03272509233D

 49 54  0  0  0  0  0  0  0  0999 V2000
   36.9430   27.7800   32.4790 C   0  0  0  0  0  0  0  0  0  0  0  0
   37.9840   27.2850   31.7200 C   0  0  0  0  0  0  0  0  0  0  0  0
   38.3960   27.9930   30.5850 C   0  0  0  0  0  0  0  0  0  0  0  0
   37.7620   29.1830   30.2260 C   0  0  0  0  0  0  0  0  0  0  0  0
   37.9050   30.0770   29.2340 N   0  0  0  0  0  0  0  0  0  0  0  0
   37.0140   31.0710   29.3560 C   0  0  0  0  0  0  0  0  0  0  0  0
   36.2760   30.7980   30.4710 N   0  0  0  0  0  0  0  0  0  0  0  0
   36.7270   29.6480   31.0060 C   0  0  0  0  0  0  0  0  0  0  0  0
   36.3110   28.9590   32.1300 C   0  0  0  0  0  0  0  0  0  0  0  0
   36.7200   27.1490   33.3230 H   0  0  0  0  0  0  0  0  0  0  0  0
   39.1900   27.7280   29.9010 H   0  0  0  0  0  0  0  0  0  0  0  0
   38.6270   29.9950   28.4650 H   0  0  0  0  0  0  0  0  0  0  0  0
   36.9510   31.8850   28.6760 H   0  0  0  0  0  0  0  0  0  0  0  0
   35.2200   29.3950   32.9990 C   0  0  0  0  0  0  0  0  0  0  0  0
   35.5220   30.1410   34.1340 C   0  0  0  0  0  0  0  0  0  0  0  0
   36.5430   30.4110   34.3970 H   0  0  0  0  0  0  0  0  0  0  0  0
   34.5000   30.5720   34.9820 C   0  0  0  0  0  3  0  0  0  0  0  0
   33.1790   30.2760   34.7250 C   0  0  0  0  0  0  0  0  0  0  0  0
   32.1680   30.6760   35.5230 N   0  0  0  0  0  0  0  0  0  0  0  0
   30.8730   30.3950   35.2870 C   0  0  0  0  0  0  0  0  0  0  0  0
   30.1450   30.7650   35.9900 H   0  0  0  0  0  0  0  0  0  0  0  0
   30.5460   29.6520   34.1590 C   0  0  0  0  0  3  0  0  0  0  0  0
   31.5720   29.2220   33.3110 C   0  0  0  0  0  3  0  0  0  0  0  0
   32.9050   29.5370   33.5960 C   0  0  0  0  0  0  0  0  0  0  0  0
   33.8800   29.1000   32.7450 C   0  0  0  0  0  3  0  0  0  0  0  0
   38.7450   26.1520   31.8780 O   0  0  0  0  0  0  0  0  0  0  0  0
   38.6220   24.8180   33.8890 C   0  0  0  0  0  0  0  0  0  0  0  0
   38.3050   23.6950   34.6320 C   0  0  0  0  0  0  0  0  0  0  0  0
   37.6980   22.6700   33.8720 C   0  0  0  0  0  0  0  0  0  0  0  0
   37.4540   22.8100   32.5020 C   0  0  0  0  0  0  0  0  0  0  0  0
   37.8240   24.0130   31.8530 C   0  0  0  0  0  0  0  0  0  0  0  0
   38.4200   25.0270   32.5820 C   0  0  0  0  0  0  0  0  0  0  0  0
   37.4230   21.7570   34.3930 H   0  0  0  0  0  0  0  0  0  0  0  0
   36.9970   22.0440   31.9270 H   0  0  0  0  0  0  0  0  0  0  0  0
   37.6240   24.0920   30.7970 H   0  0  0  0  0  0  0  0  0  0  0  0
   37.5990   23.9920   36.9510 C   0  0  0  0  0  0  0  0  0  0  0  0
   38.5490   23.5450   36.0210 C   0  0  0  0  0  0  0  0  0  0  0  0
   39.7100   22.9610   36.5250 C   0  0  0  0  0  0  0  0  0  0  0  0
   39.8610   22.8560   37.8600 N   0  0  0  0  0  0  0  0  0  0  0  0
   38.9230   23.3000   38.7330 C   0  0  0  0  0  0  0  0  0  0  0  0
   37.8030   23.8620   38.2660 N   0  0  0  0  0  0  0  0  0  0  0  0
   36.7050   24.4410   36.5580 H   0  0  0  0  0  0  0  0  0  0  0  0
   39.1310   23.1740   39.7920 H   0  0  0  0  0  0  0  0  0  0  0  0
   40.7630   22.4630   35.5870 C   0  0  0  0  0  0  0  0  0  0  0  0
   41.1970   23.2990   34.9920 H   0  0  0  0  0  0  0  0  0  0  0  0
   40.2760   21.7770   34.8570 H   0  0  0  0  0  0  0  0  0  0  0  0
   41.5350   21.9460   36.1850 H   0  0  0  0  0  0  0  0  0  0  0  0
   39.2280   25.8870   34.5620 O   0  0  0  0  0  0  0  0  0  0  0  0
   39.8600   25.6940   35.3390 H   0  0  0  0  0  0  0  0  0  0  0  0
  1 10  1  0  0  0  0
  2 26  1  0  0  0  0
  2  1  2  0  0  0  0
  3  2  1  0  0  0  0
  4  3  2  0  0  0  0
  4  8  1  0  0  0  0
  5  6  1  0  0  0  0
  5  4  1  0  0  0  0
  6  7  2  0  0  0  0
  7  8  1  0  0  0  0
  8  9  2  0  0  0  0
  9  1  1  0  0  0  0
  9 14  1  0  0  0  0
 11  3  1  0  0  0  0
 12  5  1  0  0  0  0
 13  6  1  0  0  0  0
 14 15  1  0  0  0  0
 15 16  1  0  0  0  0
 15 17  2  0  0  0  0
 18 17  1  0  0  0  0
 18 19  1  0  0  0  0
 20 19  2  0  0  0  0
 20 21  1  0  0  0  0
 22 20  1  0  0  0  0
 23 24  1  0  0  0  0
 23 22  2  0  0  0  0
 24 18  2  0  0  0  0
 25 14  2  0  0  0  0
 25 24  1  0  0  0  0
 26 32  1  0  0  0  0
 27 48  1  0  0  0  0
 27 28  1  0  0  0  0
 28 37  1  0  0  0  0
 29 33  1  0  0  0  0
 29 28  2  0  0  0  0
 30 29  1  0  0  0  0
 31 30  2  0  0  0  0
 31 32  1  0  0  0  0
 32 27  2  0  0  0  0
 34 30  1  0  0  0  0
 35 31  1  0  0  0  0
 36 41  1  0  0  0  0
 37 38  1  0  0  0  0
 37 36  2  0  0  0  0
 38 39  2  0  0  0  0
 39 40  1  0  0  0  0
 40 43  1  0  0  0  0
 41 40  2  0  0  0  0
 42 36  1  0  0  0  0
 44 47  1  0  0  0  0
 44 38  1  0  0  0  0
 45 44  1  0  0  0  0
 46 44  1  0  0  0  0
 48 49  1  0  0  0  0
M  END
>  <minimizedAffinity>
-7.01691484

$$$$

 OpenBabel03272509233D

 49 54  0  0  0  0  0  0  0  0999 V2000
   36.6280   27.6880   34.3080 C   0  0  0  0  0  0  0  0  0  0  0  0
   37.3500   26.7400   33.6120 C   0  0  0  0  0  0  0  0  0  0  0  0
   37.5770   26.9270   32.2430 C   0  0  0  0  0  0  0  0  0  0  0  0
   37.0800   28.0560   31.5920 C   0  0  0  0  0  0  0  0  0  0  0  0
   37.1170   28.5250   30.3340 N   0  0  0  0  0  0  0  0  0  0  0  0
   36.4620   29.6900   30.2400 C   0  0  0  0  0  0  0  0  0  0  0  0
   35.9910   29.9750   31.4880 N   0  0  0  0  0  0  0  0  0  0  0  0
   36.3640   28.9820   32.3180 C   0  0  0  0  0  0  0  0  0  0  0  0
   36.1330   28.8100   33.6690 C   0  0  0  0  0  0  0  0  0  0  0  0
   36.5200   27.4330   35.3490 H   0  0  0  0  0  0  0  0  0  0  0  0
   38.1210   26.2730   31.5750 H   0  0  0  0  0  0  0  0  0  0  0  0
   37.6010   28.0300   29.5340 H   0  0  0  0  0  0  0  0  0  0  0  0
   36.3680   30.2350   29.3320 H   0  0  0  0  0  0  0  0  0  0  0  0
   35.3810   29.7520   34.4970 C   0  0  0  0  0  0  0  0  0  0  0  0
   36.0790   30.6870   35.2540 C   0  0  0  0  0  0  0  0  0  0  0  0
   37.1660   30.7420   35.2510 H   0  0  0  0  0  0  0  0  0  0  0  0
   35.3860   31.6000   36.0530 C   0  0  0  0  0  3  0  0  0  0  0  0
   34.0100   31.6010   36.1150 C   0  0  0  0  0  0  0  0  0  0  0  0
   33.3100   32.4670   36.8760 N   0  0  0  0  0  0  0  0  0  0  0  0
   31.9670   32.4830   36.9490 C   0  0  0  0  0  0  0  0  0  0  0  0
   31.5080   33.2180   37.5890 H   0  0  0  0  0  0  0  0  0  0  0  0
   31.2470   31.5580   36.2020 C   0  0  0  0  0  3  0  0  0  0  0  0
   31.9440   30.6460   35.4030 C   0  0  0  0  0  3  0  0  0  0  0  0
   33.3420   30.6660   35.3580 C   0  0  0  0  0  0  0  0  0  0  0  0
   33.9870   29.7600   34.5650 C   0  0  0  0  0  3  0  0  0  0  0  0
   37.9270   25.5670   34.0360 O   0  0  0  0  0  0  0  0  0  0  0  0
   39.8190   24.1880   34.6350 C   0  0  0  0  0  0  0  0  0  0  0  0
   41.1340   23.9490   34.9880 C   0  0  0  0  0  0  0  0  0  0  0  0
   41.9140   25.1230   35.0840 C   0  0  0  0  0  0  0  0  0  0  0  0
   41.3770   26.3900   34.8380 C   0  0  0  0  0  0  0  0  0  0  0  0
   40.0120   26.5050   34.4820 C   0  0  0  0  0  0  0  0  0  0  0  0
   39.2320   25.3660   34.3840 C   0  0  0  0  0  0  0  0  0  0  0  0
   42.9600   25.0080   35.3590 H   0  0  0  0  0  0  0  0  0  0  0  0
   41.9600   27.2750   34.9080 H   0  0  0  0  0  0  0  0  0  0  0  0
   39.6260   27.4950   34.2990 H   0  0  0  0  0  0  0  0  0  0  0  0
   42.4370   22.0200   34.2450 C   0  0  0  0  0  0  0  0  0  0  0  0
   41.6870   22.6670   35.2400 C   0  0  0  0  0  0  0  0  0  0  0  0
   41.5240   21.9980   36.4520 C   0  0  0  0  0  0  0  0  0  0  0  0
   42.0840   20.7830   36.6070 N   0  0  0  0  0  0  0  0  0  0  0  0
   42.8030   20.1840   35.6250 C   0  0  0  0  0  0  0  0  0  0  0  0
   42.9700   20.8120   34.4550 N   0  0  0  0  0  0  0  0  0  0  0  0
   42.5600   22.5400   33.3120 H   0  0  0  0  0  0  0  0  0  0  0  0
   43.2170   19.2030   35.8390 H   0  0  0  0  0  0  0  0  0  0  0  0
   40.7360   22.6320   37.5530 C   0  0  0  0  0  0  0  0  0  0  0  0
   39.6720   22.7740   37.2550 H   0  0  0  0  0  0  0  0  0  0  0  0
   41.1520   23.6500   37.7320 H   0  0  0  0  0  0  0  0  0  0  0  0
   40.8240   21.9900   38.4480 H   0  0  0  0  0  0  0  0  0  0  0  0
   38.9700   23.0800   34.5160 O   0  0  0  0  0  0  0  0  0  0  0  0
   39.1110   22.2750   35.1270 H   0  0  0  0  0  0  0  0  0  0  0  0
  1 10  1  0  0  0  0
  2 26  1  0  0  0  0
  2  1  2  0  0  0  0
  3  2  1  0  0  0  0
  4  3  2  0  0  0  0
  4  8  1  0  0  0  0
  5  4  1  0  0  0  0
  6  5  1  0  0  0  0
  6  7  2  0  0  0  0
  7  8  1  0  0  0  0
  8  9  2  0  0  0  0
  9  1  1  0  0  0  0
  9 14  1  0  0  0  0
 11  3  1  0  0  0  0
 12  5  1  0  0  0  0
 13  6  1  0  0  0  0
 14 25  2  0  0  0  0
 14 15  1  0  0  0  0
 15 17  2  0  0  0  0
 16 15  1  0  0  0  0
 17 18  1  0  0  0  0
 18 19  1  0  0  0  0
 19 20  2  0  0  0  0
 20 21  1  0  0  0  0
 22 20  1  0  0  0  0
 23 22  2  0  0  0  0
 24 23  1  0  0  0  0
 24 18  2  0  0  0  0
 25 24  1  0  0  0  0
 26 32  1  0  0  0  0
 27 28  1  0  0  0  0
 28 29  2  0  0  0  0
 28 37  1  0  0  0  0
 29 33  1  0  0  0  0
 30 34  1  0  0  0  0
 30 29  1  0  0  0  0
 31 30  2  0  0  0  0
 32 31  1  0  0  0  0
 32 27  2  0  0  0  0
 35 31  1  0  0  0  0
 36 41  2  0  0  0  0
 36 37  1  0  0  0  0
 37 38  2  0  0  0  0
 38 39  1  0  0  0  0
 38 44  1  0  0  0  0
 40 43  1  0  0  0  0
 40 39  2  0  0  0  0
 41 40  1  0  0  0  0
 42 36  1  0  0  0  0
 44 46  1  0  0  0  0
 44 47  1  0  0  0  0
 45 44  1  0  0  0  0
 48 27  1  0  0  0  0
 48 49  1  0  0  0  0
M  END
>  <minimizedAffinity>
-7.01506662

$$$$

 OpenBabel03272509233D

 49 54  0  0  0  0  0  0  0  0999 V2000
   36.8010   28.2460   32.1600 C   0  0  0  0  0  0  0  0  0  0  0  0
   37.6420   27.8030   31.1600 C   0  0  0  0  0  0  0  0  0  0  0  0
   37.8740   28.6250   30.0500 C   0  0  0  0  0  0  0  0  0  0  0  0
   37.2610   29.8760   29.9580 C   0  0  0  0  0  0  0  0  0  0  0  0
   37.2680   30.8770   29.0630 N   0  0  0  0  0  0  0  0  0  0  0  0
   36.4840   31.8850   29.4690 C   0  0  0  0  0  0  0  0  0  0  0  0
   35.9580   31.5100   30.6710 N   0  0  0  0  0  0  0  0  0  0  0  0
   36.4280   30.2860   30.9750 C   0  0  0  0  0  0  0  0  0  0  0  0
   36.1910   29.4840   32.0750 C   0  0  0  0  0  0  0  0  0  0  0  0
   36.7030   27.5270   32.9560 H   0  0  0  0  0  0  0  0  0  0  0  0
   38.5030   28.4120   29.1980 H   0  0  0  0  0  0  0  0  0  0  0  0
   37.8230   30.8590   28.1620 H   0  0  0  0  0  0  0  0  0  0  0  0
   36.3450   32.7780   28.9090 H   0  0  0  0  0  0  0  0  0  0  0  0
   35.3190   29.8570   33.1870 C   0  0  0  0  0  0  0  0  0  0  0  0
   34.0360   29.3250   33.2430 C   0  0  0  0  0  0  0  0  0  0  0  0
   33.6580   28.6390   32.4860 H   0  0  0  0  0  0  0  0  0  0  0  0
   33.1810   29.6630   34.2940 C   0  0  0  0  0  3  0  0  0  0  0  0
   33.5770   30.5230   35.2950 C   0  0  0  0  0  0  0  0  0  0  0  0
   32.7770   30.8710   36.3240 N   0  0  0  0  0  0  0  0  0  0  0  0
   33.1480   31.7090   37.3090 C   0  0  0  0  0  0  0  0  0  0  0  0
   32.4300   31.9200   38.0840 H   0  0  0  0  0  0  0  0  0  0  0  0
   34.4260   32.2550   37.2760 C   0  0  0  0  0  3  0  0  0  0  0  0
   35.2790   31.9140   36.2210 C   0  0  0  0  0  3  0  0  0  0  0  0
   34.8510   31.0380   35.2180 C   0  0  0  0  0  0  0  0  0  0  0  0
   35.7130   30.7280   34.2050 C   0  0  0  0  0  3  0  0  0  0  0  0
   38.3440   26.6280   31.0370 O   0  0  0  0  0  0  0  0  0  0  0  0
   37.6470   24.3810   31.5910 C   0  0  0  0  0  0  0  0  0  0  0  0
   37.5590   23.2570   32.3900 C   0  0  0  0  0  0  0  0  0  0  0  0
   38.2320   23.3910   33.6260 C   0  0  0  0  0  0  0  0  0  0  0  0
   38.9120   24.5620   33.9750 C   0  0  0  0  0  0  0  0  0  0  0  0
   38.9300   25.6480   33.0670 C   0  0  0  0  0  0  0  0  0  0  0  0
   38.2760   25.5340   31.8520 C   0  0  0  0  0  0  0  0  0  0  0  0
   38.2030   22.5440   34.3060 H   0  0  0  0  0  0  0  0  0  0  0  0
   39.4190   24.6670   34.9020 H   0  0  0  0  0  0  0  0  0  0  0  0
   39.4620   26.5370   33.3630 H   0  0  0  0  0  0  0  0  0  0  0  0
   35.5150   21.9200   32.3710 C   0  0  0  0  0  0  0  0  0  0  0  0
   36.8720   22.0660   32.0440 C   0  0  0  0  0  0  0  0  0  0  0  0
   37.4860   21.0040   31.3810 C   0  0  0  0  0  0  0  0  0  0  0  0
   36.7590   19.9080   31.0900 N   0  0  0  0  0  0  0  0  0  0  0  0
   35.4480   19.7980   31.4200 C   0  0  0  0  0  0  0  0  0  0  0  0
   34.8430   20.8070   32.0570 N   0  0  0  0  0  0  0  0  0  0  0  0
   35.0460   22.7410   32.8830 H   0  0  0  0  0  0  0  0  0  0  0  0
   34.9420   18.8770   31.1460 H   0  0  0  0  0  0  0  0  0  0  0  0
   38.9300   21.0960   31.0040 C   0  0  0  0  0  0  0  0  0  0  0  0
   39.5760   21.1710   31.9090 H   0  0  0  0  0  0  0  0  0  0  0  0
   39.0770   22.0410   30.4320 H   0  0  0  0  0  0  0  0  0  0  0  0
   39.1820   20.2070   30.3990 H   0  0  0  0  0  0  0  0  0  0  0  0
   37.0090   24.3380   30.3440 O   0  0  0  0  0  0  0  0  0  0  0  0
   36.1450   23.8060   30.2430 H   0  0  0  0  0  0  0  0  0  0  0  0
  1 10  1  0  0  0  0
  2  1  2  0  0  0  0
  3  2  1  0  0  0  0
  4  3  2  0  0  0  0
  4  8  1  0  0  0  0
  5  6  1  0  0  0  0
  5  4  1  0  0  0  0
  6  7  2  0  0  0  0
  7  8  1  0  0  0  0
  8  9  2  0  0  0  0
  9  1  1  0  0  0  0
  9 14  1  0  0  0  0
 11  3  1  0  0  0  0
 12  5  1  0  0  0  0
 13  6  1  0  0  0  0
 14 15  2  0  0  0  0
 14 25  1  0  0  0  0
 15 17  1  0  0  0  0
 16 15  1  0  0  0  0
 17 18  2  0  0  0  0
 18 19  1  0  0  0  0
 19 20  2  0  0  0  0
 20 21  1  0  0  0  0
 22 20  1  0  0  0  0
 23 22  2  0  0  0  0
 24 18  1  0  0  0  0
 24 23  1  0  0  0  0
 25 24  2  0  0  0  0
 26  2  1  0  0  0  0
 26 32  1  0  0  0  0
 27 32  2  0  0  0  0
 27 28  1  0  0  0  0
 28 29  2  0  0  0  0
 29 30  1  0  0  0  0
 29 33  1  0  0  0  0
 30 34  1  0  0  0  0
 31 35  1  0  0  0  0
 31 30  2  0  0  0  0
 32 31  1  0  0  0  0
 36 42  1  0  0  0  0
 37 36  2  0  0  0  0
 37 28  1  0  0  0  0
 38 37  1  0  0  0  0
 39 38  2  0  0  0  0
 39 40  1  0  0  0  0
 40 41  2  0  0  0  0
 41 36  1  0  0  0  0
 43 40  1  0  0  0  0
 44 38  1  0  0  0  0
 44 45  1  0  0  0  0
 46 44  1  0  0  0  0
 47 44  1  0  0  0  0
 48 27  1  0  0  0  0
 49 48  1  0  0  0  0
M  END
>  <minimizedAffinity>
-7.00156832

$$$$

 OpenBabel03272509233D

 49 54  0  0  0  0  0  0  0  0999 V2000
   36.4050   28.9970   31.8460 C   0  0  0  0  0  0  0  0  0  0  0  0
   37.1850   28.4500   30.8460 C   0  0  0  0  0  0  0  0  0  0  0  0
   37.4310   29.2000   29.6890 C   0  0  0  0  0  0  0  0  0  0  0  0
   36.8960   30.4810   29.5500 C   0  0  0  0  0  0  0  0  0  0  0  0
   36.9370   31.4340   28.6040 N   0  0  0  0  0  0  0  0  0  0  0  0
   36.2320   32.5090   28.9790 C   0  0  0  0  0  0  0  0  0  0  0  0
   35.7220   32.2300   30.2140 N   0  0  0  0  0  0  0  0  0  0  0  0
   36.1240   30.9940   30.5680 C   0  0  0  0  0  0  0  0  0  0  0  0
   35.8730   30.2660   31.7150 C   0  0  0  0  0  0  0  0  0  0  0  0
   36.2890   28.3260   32.6810 H   0  0  0  0  0  0  0  0  0  0  0  0
   38.0170   28.9040   28.8310 H   0  0  0  0  0  0  0  0  0  0  0  0
   37.4600   31.3340   27.6890 H   0  0  0  0  0  0  0  0  0  0  0  0
   36.1310   33.3800   28.3790 H   0  0  0  0  0  0  0  0  0  0  0  0
   35.0630   30.7500   32.8310 C   0  0  0  0  0  0  0  0  0  0  0  0
   33.6780   30.7550   32.7040 C   0  0  0  0  0  0  0  0  0  0  0  0
   33.1760   30.4120   31.8010 H   0  0  0  0  0  0  0  0  0  0  0  0
   32.8790   31.2110   33.7540 C   0  0  0  0  0  3  0  0  0  0  0  0
   33.4310   31.6640   34.9340 C   0  0  0  0  0  0  0  0  0  0  0  0
   32.6880   32.1100   35.9670 N   0  0  0  0  0  0  0  0  0  0  0  0
   33.2100   32.5560   37.1250 C   0  0  0  0  0  0  0  0  0  0  0  0
   32.5260   32.8900   37.8870 H   0  0  0  0  0  0  0  0  0  0  0  0
   34.5910   32.5600   37.2770 C   0  0  0  0  0  3  0  0  0  0  0  0
   35.3890   32.1020   36.2220 C   0  0  0  0  0  3  0  0  0  0  0  0
   34.8030   31.6480   35.0360 C   0  0  0  0  0  0  0  0  0  0  0  0
   35.6140   31.2090   34.0290 C   0  0  0  0  0  3  0  0  0  0  0  0
   37.8060   27.2280   30.7640 O   0  0  0  0  0  0  0  0  0  0  0  0
   38.2180   25.9230   32.7560 C   0  0  0  0  0  0  0  0  0  0  0  0
   39.0050   25.3200   33.7190 C   0  0  0  0  0  0  0  0  0  0  0  0
   40.3900   25.5190   33.5200 C   0  0  0  0  0  0  0  0  0  0  0  0
   40.8830   26.2610   32.4420 C   0  0  0  0  0  0  0  0  0  0  0  0
   39.9730   26.8300   31.5200 C   0  0  0  0  0  0  0  0  0  0  0  0
   38.6130   26.6450   31.6990 C   0  0  0  0  0  0  0  0  0  0  0  0
   41.0690   25.0720   34.2420 H   0  0  0  0  0  0  0  0  0  0  0  0
   41.9230   26.4130   32.2880 H   0  0  0  0  0  0  0  0  0  0  0  0
   40.3820   27.3960   30.7000 H   0  0  0  0  0  0  0  0  0  0  0  0
   38.3360   23.1790   34.6890 C   0  0  0  0  0  0  0  0  0  0  0  0
   38.5130   24.5660   34.8150 C   0  0  0  0  0  0  0  0  0  0  0  0
   38.1890   25.1410   36.0430 C   0  0  0  0  0  0  0  0  0  0  0  0
   37.7280   24.3510   37.0320 N   0  0  0  0  0  0  0  0  0  0  0  0
   37.5680   23.0130   36.8770 C   0  0  0  0  0  0  0  0  0  0  0  0
   37.8750   22.4440   35.7060 N   0  0  0  0  0  0  0  0  0  0  0  0
   38.5880   22.7410   33.7400 H   0  0  0  0  0  0  0  0  0  0  0  0
   37.1900   22.4560   37.7300 H   0  0  0  0  0  0  0  0  0  0  0  0
   38.3540   26.6140   36.2430 C   0  0  0  0  0  0  0  0  0  0  0  0
   37.6820   27.1880   35.5650 H   0  0  0  0  0  0  0  0  0  0  0  0
   39.3960   26.8840   35.9580 H   0  0  0  0  0  0  0  0  0  0  0  0
   38.1480   26.8380   37.3050 H   0  0  0  0  0  0  0  0  0  0  0  0
   36.8290   25.7770   32.8730 O   0  0  0  0  0  0  0  0  0  0  0  0
   36.4090   25.7250   33.8000 H   0  0  0  0  0  0  0  0  0  0  0  0
  1 10  1  0  0  0  0
  2  1  2  0  0  0  0
  3  2  1  0  0  0  0
  4  3  2  0  0  0  0
  4  8  1  0  0  0  0
  5  6  1  0  0  0  0
  5  4  1  0  0  0  0
  6  7  2  0  0  0  0
  7  8  1  0  0  0  0
  8  9  2  0  0  0  0
  9  1  1  0  0  0  0
  9 14  1  0  0  0  0
 11  3  1  0  0  0  0
 12  5  1  0  0  0  0
 13  6  1  0  0  0  0
 14 25  1  0  0  0  0
 15 14  2  0  0  0  0
 15 17  1  0  0  0  0
 16 15  1  0  0  0  0
 17 18  2  0  0  0  0
 18 24  1  0  0  0  0
 18 19  1  0  0  0  0
 19 20  2  0  0  0  0
 20 22  1  0  0  0  0
 20 21  1  0  0  0  0
 23 22  2  0  0  0  0
 24 23  1  0  0  0  0
 25 24  2  0  0  0  0
 26  2  1  0  0  0  0
 26 32  1  0  0  0  0
 27 48  1  0  0  0  0
 27 28  1  0  0  0  0
 28 37  1  0  0  0  0
 29 28  2  0  0  0  0
 29 33  1  0  0  0  0
 30 29  1  0  0  0  0
 31 32  1  0  0  0  0
 31 30  2  0  0  0  0
 32 27  2  0  0  0  0
 34 30  1  0  0  0  0
 35 31  1  0  0  0  0
 36 37  2  0  0  0  0
 36 41  1  0  0  0  0
 37 38  1  0  0  0  0
 38 44  1  0  0  0  0
 38 39  2  0  0  0  0
 40 39  1  0  0  0  0
 40 43  1  0  0  0  0
 41 40  2  0  0  0  0
 42 36  1  0  0  0  0
 44 47  1  0  0  0  0
 45 44  1  0  0  0  0
 46 44  1  0  0  0  0
 48 49  1  0  0  0  0
M  END
>  <minimizedAffinity>
-6.97989511

$$$$

 OpenBabel03272509233D

 49 54  0  0  0  0  0  0  0  0999 V2000
   37.2080   28.0180   34.9320 C   0  0  0  0  0  0  0  0  0  0  0  0
   38.1870   27.1340   34.5240 C   0  0  0  0  0  0  0  0  0  0  0  0
   38.3530   26.8860   33.1560 C   0  0  0  0  0  0  0  0  0  0  0  0
   37.5400   27.5240   32.2190 C   0  0  0  0  0  0  0  0  0  0  0  0
   37.4380   27.5120   30.8800 N   0  0  0  0  0  0  0  0  0  0  0  0
   36.4610   28.3310   30.4680 C   0  0  0  0  0  0  0  0  0  0  0  0
   35.9200   28.8880   31.5900 N   0  0  0  0  0  0  0  0  0  0  0  0
   36.5730   28.3990   32.6620 C   0  0  0  0  0  0  0  0  0  0  0  0
   36.3990   28.6540   34.0090 C   0  0  0  0  0  0  0  0  0  0  0  0
   37.1780   28.1250   36.0030 H   0  0  0  0  0  0  0  0  0  0  0  0
   39.0720   26.2250   32.6940 H   0  0  0  0  0  0  0  0  0  0  0  0
   38.0530   26.9280   30.2470 H   0  0  0  0  0  0  0  0  0  0  0  0
   36.2100   28.4720   29.4450 H   0  0  0  0  0  0  0  0  0  0  0  0
   35.3940   29.5690   34.5450 C   0  0  0  0  0  0  0  0  0  0  0  0
   34.0570   29.3620   34.2240 C   0  0  0  0  0  0  0  0  0  0  0  0
   33.7320   28.5420   33.5860 H   0  0  0  0  0  0  0  0  0  0  0  0
   33.0740   30.2210   34.7240 C   0  0  0  0  0  3  0  0  0  0  0  0
   33.3960   31.2840   35.5390 C   0  0  0  0  0  0  0  0  0  0  0  0
   32.4730   32.1320   36.0380 N   0  0  0  0  0  0  0  0  0  0  0  0
   32.7690   33.1750   36.8350 C   0  0  0  0  0  0  0  0  0  0  0  0
   31.9540   33.7900   37.1780 H   0  0  0  0  0  0  0  0  0  0  0  0
   34.0990   33.4030   37.1700 C   0  0  0  0  0  3  0  0  0  0  0  0
   35.0800   32.5410   36.6680 C   0  0  0  0  0  3  0  0  0  0  0  0
   34.7260   31.4690   35.8430 C   0  0  0  0  0  0  0  0  0  0  0  0
   35.7110   30.6490   35.3720 C   0  0  0  0  0  3  0  0  0  0  0  0
   39.0910   26.4020   35.2550 O   0  0  0  0  0  0  0  0  0  0  0  0
   39.9590   24.1590   35.0220 C   0  0  0  0  0  0  0  0  0  0  0  0
   39.9740   22.7930   35.2310 C   0  0  0  0  0  0  0  0  0  0  0  0
   38.9040   22.3340   36.0330 C   0  0  0  0  0  0  0  0  0  0  0  0
   37.9400   23.2050   36.5490 C   0  0  0  0  0  0  0  0  0  0  0  0
   38.0340   24.5880   36.2630 C   0  0  0  0  0  0  0  0  0  0  0  0
   39.0760   25.0550   35.4810 C   0  0  0  0  0  0  0  0  0  0  0  0
   38.8530   21.2670   36.2370 H   0  0  0  0  0  0  0  0  0  0  0  0
   37.1350   22.8650   37.1520 H   0  0  0  0  0  0  0  0  0  0  0  0
   37.2770   25.2350   36.6750 H   0  0  0  0  0  0  0  0  0  0  0  0
   40.7840   21.3550   33.4290 C   0  0  0  0  0  0  0  0  0  0  0  0
   40.9480   21.9020   34.7120 C   0  0  0  0  0  0  0  0  0  0  0  0
   42.0880   21.5300   35.4230 C   0  0  0  0  0  0  0  0  0  0  0  0
   42.9620   20.6780   34.8540 N   0  0  0  0  0  0  0  0  0  0  0  0
   42.7740   20.1670   33.6120 C   0  0  0  0  0  0  0  0  0  0  0  0
   41.6860   20.5130   32.9150 N   0  0  0  0  0  0  0  0  0  0  0  0
   39.9030   21.6450   32.8850 H   0  0  0  0  0  0  0  0  0  0  0  0
   43.5330   19.4860   33.2340 H   0  0  0  0  0  0  0  0  0  0  0  0
   42.3230   22.0760   36.7940 C   0  0  0  0  0  0  0  0  0  0  0  0
   41.5260   21.7450   37.4990 H   0  0  0  0  0  0  0  0  0  0  0  0
   42.2520   23.1870   36.7390 H   0  0  0  0  0  0  0  0  0  0  0  0
   43.3230   21.7450   37.1270 H   0  0  0  0  0  0  0  0  0  0  0  0
   40.9850   24.7030   34.2380 O   0  0  0  0  0  0  0  0  0  0  0  0
   41.3700   24.1560   33.4690 H   0  0  0  0  0  0  0  0  0  0  0  0
  1 10  1  0  0  0  0
  2  1  1  0  0  0  0
  2 26  1  0  0  0  0
  3  2  2  0  0  0  0
  4  8  2  0  0  0  0
  4  3  1  0  0  0  0
  5  4  1  0  0  0  0
  6  5  1  0  0  0  0
  6  7  2  0  0  0  0
  7  8  1  0  0  0  0
  8  9  1  0  0  0  0
  9 14  1  0  0  0  0
  9  1  2  0  0  0  0
 11  3  1  0  0  0  0
 12  5  1  0  0  0  0
 13  6  1  0  0  0  0
 14 25  1  0  0  0  0
 15 14  2  0  0  0  0
 15 17  1  0  0  0  0
 16 15  1  0  0  0  0
 17 18  2  0  0  0  0
 18 24  1  0  0  0  0
 18 19  1  0  0  0  0
 19 20  2  0  0  0  0
 20 22  1  0  0  0  0
 20 21  1  0  0  0  0
 23 22  2  0  0  0  0
 24 23  1  0  0  0  0
 25 24  2  0  0  0  0
 26 32  1  0  0  0  0
 27 28  2  0  0  0  0
 27 32  1  0  0  0  0
 28 29  1  0  0  0  0
 29 33  1  0  0  0  0
 29 30  2  0  0  0  0
 30 34  1  0  0  0  0
 31 30  1  0  0  0  0
 31 35  1  0  0  0  0
 32 31  2  0  0  0  0
 36 37  1  0  0  0  0
 37 28  1  0  0  0  0
 37 38  2  0  0  0  0
 38 44  1  0  0  0  0
 39 38  1  0  0  0  0
 40 39  2  0  0  0  0
 41 36  2  0  0  0  0
 41 40  1  0  0  0  0
 42 36  1  0  0  0  0
 43 40  1  0  0  0  0
 44 47  1  0  0  0  0
 44 45  1  0  0  0  0
 46 44  1  0  0  0  0
 48 27  1  0  0  0  0
 49 48  1  0  0  0  0
M  END
>  <minimizedAffinity>
-6.97350788

$$$$
