
     RDKit          3D

 41 45  0  0  0  0  0  0  0  0999 V2000
   37.4631   31.3327   48.3655 C   0  0  0  0  0  0  0  0  0  0  0  0
   36.7565   30.8700   47.2553 C   0  0  0  0  0  0  0  0  0  0  0  0
   37.2257   31.2176   45.9915 C   0  0  0  0  0  0  0  0  0  0  0  0
   38.3770   32.0097   45.8950 C   0  0  0  0  0  0  0  0  0  0  0  0
   39.0595   32.4994   44.8541 N   0  0  0  0  0  0  0  0  0  0  0  0
   40.1018   33.2063   45.2719 C   0  0  0  0  0  0  0  0  0  0  0  0
   40.1122   33.1860   46.6191 N   0  0  0  0  0  0  0  0  0  0  0  0
   39.0607   32.4564   47.0078 C   0  0  0  0  0  0  0  0  0  0  0  0
   38.5953   32.1117   48.2575 C   0  0  0  0  0  0  0  0  0  0  0  0
   35.6167   29.3386   48.7256 C   0  0  0  0  0  0  0  0  0  0  0  0
   35.5864   30.0629   47.4958 C   0  0  0  0  0  0  0  0  0  0  0  0
   34.4603   29.9171   46.7048 C   0  0  0  0  0  0  0  0  0  0  0  0
   33.4633   29.1026   47.1440 N   0  0  0  0  0  0  0  0  0  0  0  0
   33.5186   28.4340   48.3060 C   0  0  0  0  0  0  0  0  0  0  0  0
   34.6043   28.5578   49.0949 N   0  0  0  0  0  0  0  0  0  0  0  0
   32.3735   27.5653   48.7141 C   0  0  0  0  0  0  0  0  0  0  0  0
   37.2124   31.1446   49.4134 H   0  0  0  0  0  0  0  0  0  0  0  0
   36.6896   30.8673   45.1229 H   0  0  0  0  0  0  0  0  0  0  0  0
   38.7425   32.3021   43.8583 H   0  0  0  0  0  0  0  0  0  0  0  0
   40.7758   33.6832   44.5709 H   0  0  0  0  0  0  0  0  0  0  0  0
   39.1619   32.4833   49.1055 H   0  0  0  0  0  0  0  0  0  0  0  0
   36.4039   29.3129   49.4806 H   0  0  0  0  0  0  0  0  0  0  0  0
   34.4679   30.4753   45.7837 H   0  0  0  0  0  0  0  0  0  0  0  0
   32.3152   27.5350   49.8263 H   0  0  0  0  0  0  0  0  0  0  0  0
   31.4417   27.9982   48.3194 H   0  0  0  0  0  0  0  0  0  0  0  0
   32.5274   26.1757   48.2252 C   0  0  0  0  0  0  0  0  0  0  0  0
   33.4445   25.3357   48.8618 C   0  0  0  0  0  0  0  0  0  0  0  0
   34.0163   25.7399   49.7014 H   0  0  0  0  0  0  0  0  0  0  0  0
   33.6145   24.0393   48.4355 C   0  0  0  0  0  0  0  0  0  0  0  0
   32.8661   23.5802   47.3700 C   0  0  0  0  0  0  0  0  0  0  0  0
   33.1359   22.2814   47.0556 N   0  0  0  0  0  0  0  0  0  0  0  0
   32.4542   21.7207   46.0169 C   0  0  0  0  0  0  0  0  0  0  0  0
   32.6083   20.6958   45.7023 H   0  0  0  0  0  0  0  0  0  0  0  0
   31.5357   22.5096   45.3545 C   0  0  0  0  0  0  0  0  0  0  0  0
   31.2561   23.8302   45.6681 C   0  0  0  0  0  0  0  0  0  0  0  0
   31.9570   24.3909   46.7285 C   0  0  0  0  0  0  0  0  0  0  0  0
   31.7837   25.6957   47.1551 C   0  0  0  0  0  0  0  0  0  0  0  0
   34.3446   23.4682   48.9889 H   0  0  0  0  0  0  0  0  0  0  0  0
   30.9998   22.0373   44.5230 H   0  0  0  0  0  0  0  0  0  0  0  0
   30.5488   24.4349   45.1567 H   0  0  0  0  0  0  0  0  0  0  0  0
   31.0704   26.3200   46.6461 H   0  0  0  0  0  0  0  0  0  0  0  0
  2 11  1  0
  2  1  2  0
  3  2  1  0
  4  3  2  0
  4  8  1  0
  5  6  1  0
  5  4  1  0
  6  7  2  0
  7  8  1  0
  8  9  2  0
  9  1  1  0
 10 15  2  0
 11 10  1  0
 12 13  1  0
 12 11  2  0
 13 14  2  0
 14 16  1  0
 14 15  1  0
  1 17  1  0
  3 18  1  0
  5 19  1  0
  6 20  1  0
  9 21  1  0
 10 22  1  0
 12 23  1  0
 16 24  1  0
 16 25  1  0
 26 27  2  0
 27 28  1  0
 27 29  1  0
 29 30  2  0
 30 31  1  0
 31 32  2  0
 32 33  1  0
 32 34  1  0
 34 35  2  0
 35 36  1  0
 36 37  2  0
 37 26  1  0
 36 30  1  0
 29 38  1  0
 34 39  1  0
 35 40  1  0
 37 41  1  0
 16 26  1  0
M  ISO  8  17  14  18  14  19   9  20  14  21  14  22  14  23  14  24   8
M  ISO  3  25   8  28  16  33  16
M  END
>  <DihAtoms>  (1) 
13,15,25,26

>  <DihDeg>  (1) 
90.00440370349658

$$$$
