
     RDKit          3D

 30 32  0  0  0  0  0  0  0  0999 V2000
   35.6090   29.0233   50.1859 C   0  0  0  0  0  0  0  0  0  0  0  0
   36.2803   30.1553   49.6554 C   0  0  0  0  0  0  0  0  0  0  0  0
   36.0528   30.5119   48.3361 C   0  0  0  0  0  0  0  0  0  0  0  0
   35.1742   29.7350   47.6027 N   0  0  0  0  0  0  0  0  0  0  0  0
   34.5529   28.6692   48.1332 C   0  0  0  0  0  0  0  0  0  0  0  0
   34.7628   28.3169   49.3976 N   0  0  0  0  0  0  0  0  0  0  0  0
   33.6845   28.0017   47.2399 N   0  0  0  0  0  0  0  0  0  0  0  0
   37.2187   30.9093   50.5269 C   0  0  0  0  0  0  0  0  0  0  0  0
   38.5335   30.7980   50.0964 F   0  0  0  0  0  0  0  0  0  0  0  0
   36.8541   32.2199   50.5315 F   0  0  0  0  0  0  0  0  0  0  0  0
   37.1901   30.4525   51.8382 F   0  0  0  0  0  0  0  0  0  0  0  0
   35.8159   28.7832   51.2136 H   0  0  0  0  0  0  0  0  0  0  0  0
   33.5972   26.9440   47.2317 H   0  0  0  0  0  0  0  0  0  0  0  0
   33.0829   28.4726   46.5443 H   0  0  0  0  0  0  0  0  0  0  0  0
   36.6673   31.5871   47.5895 C   0  0  0  0  0  0  0  0  0  0  0  0
   36.4488   32.2614   46.4206 C   0  0  0  0  0  0  0  0  0  0  0  0
   35.6478   31.8766   45.8363 H   0  0  0  0  0  0  0  0  0  0  0  0
   37.2096   33.3195   45.9939 C   0  0  0  0  0  0  0  0  0  0  0  0
   38.2769   33.7992   46.7184 C   0  0  0  0  0  0  0  0  0  0  0  0
   38.9404   34.8269   46.2073 N   0  0  0  0  0  0  0  0  0  0  0  0
   40.0068   35.3433   46.8815 C   0  0  0  0  0  0  0  0  0  0  0  0
   40.6146   36.1810   46.5501 H   0  0  0  0  0  0  0  0  0  0  0  0
   40.3219   34.7353   48.0823 C   0  0  0  0  0  0  0  0  0  0  0  0
   39.6196   33.6595   48.6073 C   0  0  0  0  0  0  0  0  0  0  0  0
   38.5445   33.1552   47.9064 C   0  0  0  0  0  0  0  0  0  0  0  0
   37.7604   32.0894   48.3150 C   0  0  0  0  0  0  0  0  0  0  0  0
   36.9091   33.7470   45.0494 H   0  0  0  0  0  0  0  0  0  0  0  0
   41.1731   35.1236   48.6517 H   0  0  0  0  0  0  0  0  0  0  0  0
   39.8717   33.1890   49.5470 H   0  0  0  0  0  0  0  0  0  0  0  0
   38.1257   31.7149   49.2717 H   0  0  0  0  0  0  0  0  0  0  0  0
  2  1  2  0
  2  8  1  0
  3  2  1  0
  4  5  1  0
  4  3  2  0
  5  6  2  0
  6  1  1  0
  7  5  1  0
  8 11  1  0
  9  8  1  0
 10  8  1  0
  1 12  1  0
  7 13  1  0
  7 14  1  0
 15 16  2  0
 16 17  1  0
 16 18  1  0
 18 19  2  0
 19 20  1  0
 20 21  2  0
 21 22  1  0
 21 23  1  0
 23 24  2  0
 24 25  1  0
 25 26  2  0
 26 15  1  0
 25 19  1  0
 18 27  1  0
 23 28  1  0
 24 29  1  0
 26 30  1  0
  3 15  1  0
M  ISO  3  12  14  17  16  22  16
M  END
>  <DihAtoms>  (1) 
1,2,14,15

>  <DihDeg>  (1) 
-60.22557734225758

$$$$
