
 OpenBabel03272505323D

 43 47  0  0  0  0  0  0  0  0999 V2000
   37.3990   31.2460   47.0240 N   0  0  0  0  0  0  0  0  0  0  0  0
   36.6980   31.0600   45.8730 C   0  0  0  0  0  0  0  0  0  0  0  0
   37.1080   31.5990   44.6690 C   0  0  0  0  0  0  0  0  0  0  0  0
   38.2890   32.3560   44.6800 C   0  0  0  0  0  0  0  0  0  0  0  0
   38.7070   32.8710   43.6080 O   0  0  0  0  0  0  0  0  0  0  0  0
   38.9920   32.5410   45.8380 N   0  0  0  0  0  0  0  0  0  0  0  0
   38.4920   31.9700   46.9240 C   0  0  0  0  0  0  0  0  0  0  0  0
   39.1600   32.1600   47.9680 O   0  0  0  0  0  0  0  0  0  0  0  0
   35.7920   30.4770   45.8810 H   0  0  0  0  0  0  0  0  0  0  0  0
   37.4270   29.5320   50.3270 C   0  0  0  0  0  0  0  0  0  0  0  0
   37.8470   30.0940   49.1130 C   0  0  0  0  0  0  0  0  0  0  0  0
   36.9650   30.6890   48.2330 C   0  0  0  0  0  0  0  0  0  0  0  0
   35.6780   30.7070   48.5950 N   0  0  0  0  0  0  0  0  0  0  0  0
   35.2270   30.1740   49.7630 C   0  0  0  0  0  0  0  0  0  0  0  0
   36.1140   29.5900   50.6180 N   0  0  0  0  0  0  0  0  0  0  0  0
   38.1180   29.0660   51.0160 H   0  0  0  0  0  0  0  0  0  0  0  0
   38.8920   30.0310   48.9150 H   0  0  0  0  0  0  0  0  0  0  0  0
   34.1800   30.1980   50.0380 H   0  0  0  0  0  0  0  0  0  0  0  0
   36.4020   31.4350   43.4070 C   0  0  0  0  0  0  0  0  0  0  0  0
   36.5810   30.3620   42.5810 C   0  0  0  0  0  0  0  0  0  0  0  0
   35.9250   30.1840   41.3810 C   0  0  0  0  0  0  0  0  0  0  0  0
   35.0150   31.1690   40.9790 C   0  0  0  0  0  0  0  0  0  0  0  0
   34.8640   32.2380   41.8430 C   0  0  0  0  0  0  0  0  0  0  0  0
   35.5290   32.3450   42.9870 N   0  0  0  0  0  0  0  0  0  0  0  0
   37.2730   29.5750   42.8470 H   0  0  0  0  0  0  0  0  0  0  0  0
   36.0770   29.3260   40.7320 H   0  0  0  0  0  0  0  0  0  0  0  0
   34.4940   31.0590   40.0570 H   0  0  0  0  0  0  0  0  0  0  0  0
   33.9370   33.3170   41.5140 C   0  0  0  0  0  0  0  0  0  0  0  0
   32.5790   33.0580   41.4130 C   0  0  0  0  0  0  0  0  0  0  0  0
   32.2120   32.0410   41.5800 H   0  0  0  0  0  0  0  0  0  0  0  0
   31.5940   33.9770   41.1110 C   0  0  0  0  0  3  0  0  0  0  0  0
   31.9970   35.2770   40.8880 C   0  0  0  0  0  0  0  0  0  0  0  0
   31.0990   36.2320   40.5890 N   0  0  0  0  0  0  0  0  0  0  0  0
   31.4600   37.5150   40.3660 C   0  0  0  0  0  0  0  0  0  0  0  0
   30.7290   38.2780   40.1250 H   0  0  0  0  0  0  0  0  0  0  0  0
   32.8200   37.8160   40.4600 C   0  0  0  0  0  3  0  0  0  0  0  0
   33.7910   36.8770   40.7640 C   0  0  0  0  0  3  0  0  0  0  0  0
   33.3380   35.5910   40.9780 C   0  0  0  0  0  0  0  0  0  0  0  0
   34.2830   34.6320   41.2830 C   0  0  0  0  0  3  0  0  0  0  0  0
   40.2020   33.3190   45.8360 C   0  0  0  0  0  0  0  0  0  0  0  0
   40.1720   34.2520   44.8630 F   0  0  0  0  0  0  0  0  0  0  0  0
   41.3480   32.5600   45.5940 F   0  0  0  0  0  0  0  0  0  0  0  0
   40.3250   33.9670   47.0590 F   0  0  0  0  0  0  0  0  0  0  0  0
  1 12  1  0  0  0  0
  2  9  1  0  0  0  0
  2  1  1  0  0  0  0
  3  4  1  0  0  0  0
  3  2  2  0  0  0  0
  4  6  1  0  0  0  0
  5  4  2  0  0  0  0
  6  7  1  0  0  0  0
  7  1  1  0  0  0  0
  7  8  2  0  0  0  0
 10 15  1  0  0  0  0
 10 16  1  0  0  0  0
 11 10  2  0  0  0  0
 12 13  2  0  0  0  0
 12 11  1  0  0  0  0
 13 14  1  0  0  0  0
 14 18  1  0  0  0  0
 14 15  2  0  0  0  0
 17 11  1  0  0  0  0
 19  3  1  0  0  0  0
 20 25  1  0  0  0  0
 20 19  2  0  0  0  0
 21 20  1  0  0  0  0
 22 21  2  0  0  0  0
 22 23  1  0  0  0  0
 23 24  2  0  0  0  0
 24 19  1  0  0  0  0
 26 21  1  0  0  0  0
 27 22  1  0  0  0  0
 28 23  1  0  0  0  0
 29 28  1  0  0  0  0
 29 30  1  0  0  0  0
 31 29  2  0  0  0  0
 32 38  1  0  0  0  0
 32 31  1  0  0  0  0
 33 32  2  0  0  0  0
 34 36  2  0  0  0  0
 34 33  1  0  0  0  0
 35 34  1  0  0  0  0
 36 37  1  0  0  0  0
 37 38  2  0  0  0  0
 38 39  1  0  0  0  0
 39 28  2  0  0  0  0
 40  6  1  0  0  0  0
 40 43  1  0  0  0  0
 41 40  1  0  0  0  0
 42 40  1  0  0  0  0
M  END
>  <minimizedAffinity>
-7.34469271

>  <minimizedRMSD>
0.875546694

$$$$
