
 OpenBabel03262520353D

 45 48  0  0  0  0  0  0  0  0999 V2000
   27.7740   28.4530   48.5910 C   0  0  0  0  0  0  0  0  0  0  0  0
   29.0510   28.1190   49.0690 C   0  0  0  0  0  0  0  0  0  0  0  0
   29.2360   27.6040   50.3350 C   0  0  0  0  0  0  0  0  0  0  0  0
   28.1430   27.4160   51.1430 C   0  0  0  0  0  0  0  0  0  0  0  0
   26.9000   27.7380   50.6840 C   0  0  0  0  0  0  0  0  0  0  0  0
   26.6690   28.2540   49.4300 C   0  0  0  0  0  0  0  0  0  0  0  0
   30.2510   27.3730   50.6250 H   0  0  0  0  0  0  0  0  0  0  0  0
   28.2840   27.0130   52.1360 H   0  0  0  0  0  0  0  0  0  0  0  0
   26.0210   27.6020   51.2960 H   0  0  0  0  0  0  0  0  0  0  0  0
   25.6650   28.5050   49.0840 H   0  0  0  0  0  0  0  0  0  0  0  0
   27.4680   29.0970   46.9990 S   0  0  0  0  0  0  0  0  0  0  0  0
   28.7200   29.2250   46.2210 O   0  0  0  0  0  0  0  0  0  0  0  0
   26.4750   28.1590   46.2950 O   0  0  0  0  0  0  0  0  0  0  0  0
   26.7450   30.6830   47.1040 C   0  0  0  0  0  0  0  0  0  0  0  0
   26.4170   31.3280   48.2790 C   0  0  0  0  0  0  0  0  0  0  0  0
   26.6250   30.8080   49.1960 H   0  0  0  0  0  0  0  0  0  0  0  0
   25.8450   32.5940   48.2090 C   0  0  0  0  0  0  0  0  0  0  0  0
   25.5940   33.2300   47.0010 C   0  0  0  0  0  0  0  0  0  0  0  0
   25.0410   34.4520   46.9480 N   0  0  0  0  0  0  0  0  0  0  0  0
   24.8010   35.0590   45.7660 C   0  0  0  0  0  0  0  0  0  0  0  0
   24.3600   36.0390   45.6490 H   0  0  0  0  0  0  0  0  0  0  0  0
   25.1160   34.4450   44.5540 C   0  0  0  0  0  0  0  0  0  0  0  0
   25.6830   33.1930   44.5890 C   0  0  0  0  0  0  0  0  0  0  0  0
   25.9130   32.6040   45.8130 C   0  0  0  0  0  0  0  0  0  0  0  0
   26.4730   31.3610   45.9140 C   0  0  0  0  0  0  0  0  0  0  0  0
   30.0390   28.3680   48.1350 O   0  0  0  0  0  0  0  0  0  0  0  0
   31.2780   26.0460   48.2280 O   0  0  0  0  0  0  0  0  0  0  0  0
   31.4800   27.5310   47.9440 P   0  0  1  0  0  0  0  0  0  0  0  0
   32.1080   27.7800   46.3790 O   0  0  0  0  0  0  0  0  0  0  0  0
   31.3700   28.0100   45.7630 H   0  0  0  0  0  0  0  0  0  0  0  0
   32.6530   28.0410   49.0680 O   0  0  0  0  0  0  0  0  0  0  0  0
   33.9070   27.5740   48.6380 C   0  0  0  0  0  0  0  0  0  0  0  0
   34.2380   26.7680   49.3520 H   0  0  0  0  0  0  0  0  0  0  0  0
   33.7790   27.0790   47.6760 H   0  0  0  0  0  0  0  0  0  0  0  0
   35.8090   28.8440   49.5210 C   0  0  0  0  0  0  0  0  0  0  0  0
   34.9210   28.6510   48.5870 C   0  0  0  0  0  0  0  0  0  0  0  0
   38.4100   31.3580   50.1300 C   0  0  0  0  0  0  0  0  0  0  0  0
   38.4830   32.0130   48.8810 C   0  0  0  0  0  0  0  0  0  0  0  0
   37.6320   31.5710   47.8570 C   0  0  0  0  0  0  0  0  0  0  0  0
   36.8050   30.5320   48.1830 N   0  0  0  0  0  0  0  0  0  0  0  0
   36.7580   29.9390   49.3580 C   0  0  0  0  0  0  0  0  0  0  0  0
   37.5700   30.3670   50.3190 N   0  0  0  0  0  0  0  0  0  0  0  0
   39.0800   31.7250   50.8950 H   0  0  0  0  0  0  0  0  0  0  0  0
   39.1570   32.8330   48.6730 H   0  0  0  0  0  0  0  0  0  0  0  0
   37.6240   32.0250   46.8600 H   0  0  0  0  0  0  0  0  0  0  0  0
  1  2  2  0  0  0  0
  1  6  1  0  0  0  0
  2  3  1  0  0  0  0
  3  7  1  0  0  0  0
  3  4  2  0  0  0  0
  4  8  1  0  0  0  0
  5  4  1  0  0  0  0
  5  9  1  0  0  0  0
  6  5  2  0  0  0  0
 10  6  1  0  0  0  0
 11 14  1  0  0  0  0
 11  1  1  0  0  0  0
 12 11  2  0  0  0  0
 13 11  2  0  0  0  0
 14 15  1  0  0  0  0
 15 16  1  0  0  0  0
 17 15  2  0  0  0  0
 18 17  1  0  0  0  0
 19 18  1  0  0  0  0
 20 19  2  0  0  0  0
 21 20  1  0  0  0  0
 22 23  2  0  0  0  0
 22 20  1  0  0  0  0
 23 24  1  0  0  0  0
 24 25  1  0  0  0  0
 24 18  2  0  0  0  0
 25 14  2  0  0  0  0
 26  2  1  0  0  0  0
 28 26  1  0  0  0  0
 28 27  2  1  0  0  0
 28 31  1  0  0  0  0
 29 28  1  0  0  0  0
 30 29  1  0  0  0  0
 32 31  1  0  0  0  0
 32 33  1  0  0  0  0
 34 32  1  0  0  0  0
 36 32  1  0  0  0  0
 36 35  2  0  0  0  0
 37 42  1  0  0  0  0
 37 43  1  0  0  0  0
 38 37  2  0  0  0  0
 39 40  2  0  0  0  0
 39 38  1  0  0  0  0
 40 41  1  0  0  0  0
 41 35  1  0  0  0  0
 41 42  2  0  0  0  0
 44 38  1  0  0  0  0
 45 39  1  0  0  0  0
M  END
>  <minimizedAffinity>
-7.77814102

>  <minimizedRMSD>
2.70104337

$$$$
