
     RDKit          3D

 38 41  0  0  0  0  0  0  0  0999 V2000
   34.6679   28.2861   49.5812 C   0  0  0  0  0  0  0  0  0  0  0  0
   37.2874   30.1889   51.3966 C   0  0  0  0  0  0  0  0  0  0  0  0
   38.0620   30.6989   50.3361 C   0  0  0  0  0  0  0  0  0  0  0  0
   37.6811   30.3872   49.0120 C   0  0  0  0  0  0  0  0  0  0  0  0
   36.5853   29.6101   48.8251 N   0  0  0  0  0  0  0  0  0  0  0  0
   35.8649   29.1380   49.8757 C   0  0  0  0  0  0  0  0  0  0  0  0
   36.2180   29.4274   51.1203 N   0  0  0  0  0  0  0  0  0  0  0  0
   34.4480   28.2075   48.1068 C   0  0  0  0  0  0  0  0  0  0  0  0
   32.9587   28.2570   47.8836 C   0  0  0  0  0  0  0  0  0  0  0  0
   32.0189   27.5903   48.6252 C   0  0  0  0  0  0  0  0  0  0  0  0
   30.7477   27.8616   48.1452 C   0  0  0  0  0  0  0  0  0  0  0  0
   30.9597   28.6976   47.1113 N   0  0  0  0  0  0  0  0  0  0  0  0
   32.2485   28.9352   46.9499 N   0  0  0  0  0  0  0  0  0  0  0  0
   34.8334   27.2881   50.0365 H   0  0  0  0  0  0  0  0  0  0  0  0
   33.8051   28.7536   50.0930 H   0  0  0  0  0  0  0  0  0  0  0  0
   37.5731   30.4234   52.4119 H   0  0  0  0  0  0  0  0  0  0  0  0
   38.9215   31.3083   50.4754 H   0  0  0  0  0  0  0  0  0  0  0  0
   38.2196   30.7374   48.1425 H   0  0  0  0  0  0  0  0  0  0  0  0
   34.8692   27.2544   47.7082 H   0  0  0  0  0  0  0  0  0  0  0  0
   34.8576   29.0628   47.5365 H   0  0  0  0  0  0  0  0  0  0  0  0
   32.1574   26.9251   49.4810 H   0  0  0  0  0  0  0  0  0  0  0  0
   29.7485   27.5556   48.4245 H   0  0  0  0  0  0  0  0  0  0  0  0
   30.0965   29.3538   46.1888 C   0  0  0  0  0  0  0  0  0  0  0  0
   29.2966   28.6795   45.2896 C   0  0  0  0  0  0  0  0  0  0  0  0
   29.3302   27.6079   45.2893 H   0  0  0  0  0  0  0  0  0  0  0  0
   28.5017   29.4433   44.4455 C   0  0  0  0  0  0  0  0  0  0  0  0
   28.5115   30.8166   44.5037 C   0  0  0  0  0  0  0  0  0  0  0  0
   27.7286   31.5175   43.6707 N   0  0  0  0  0  0  0  0  0  0  0  0
   27.7221   32.8687   43.7102 C   0  0  0  0  0  0  0  0  0  0  0  0
   27.0678   33.4135   43.0125 H   0  0  0  0  0  0  0  0  0  0  0  0
   28.5126   33.5747   44.6002 C   0  0  0  0  0  0  0  0  0  0  0  0
   29.3265   32.8799   45.4674 C   0  0  0  0  0  0  0  0  0  0  0  0
   29.3059   31.5052   45.3973 C   0  0  0  0  0  0  0  0  0  0  0  0
   30.1011   30.7391   46.2417 C   0  0  0  0  0  0  0  0  0  0  0  0
   27.8771   28.9006   43.7428 H   0  0  0  0  0  0  0  0  0  0  0  0
   28.4998   34.6558   44.6235 H   0  0  0  0  0  0  0  0  0  0  0  0
   29.9811   33.3688   46.2011 H   0  0  0  0  0  0  0  0  0  0  0  0
   30.7362   31.2712   46.9555 H   0  0  0  0  0  0  0  0  0  0  0  0
  1  6  1  0
  3  2  2  0
  4  3  1  0
  5  4  2  0
  5  6  1  0
  6  7  2  0
  7  2  1  0
  8  1  1  0
  9  8  1  0
  9 10  1  0
 11 10  2  0
 12 11  1  0
 13 12  1  0
 13  9  2  0
  1 14  1  0
  1 15  1  0
  2 16  1  0
  3 17  1  0
  4 18  1  0
  8 19  1  0
  8 20  1  0
 10 21  1  0
 11 22  1  0
 23 24  2  0
 24 25  1  0
 24 26  1  0
 26 27  2  0
 27 28  1  0
 28 29  2  0
 29 30  1  0
 29 31  1  0
 31 32  2  0
 32 33  1  0
 33 34  2  0
 34 23  1  0
 33 27  1  0
 26 35  1  0
 31 36  1  0
 32 37  1  0
 34 38  1  0
 12 23  1  0
M  ISO  8  14   8  15   8  16  14  17  14  18  14  19   8  20   8  21  14
M  ISO  3  22  14  25  16  30  16
M  END
>  <DihAtoms>  (1) 
10,11,22,23

>  <DihDeg>  (1) 
-63.36275992869084

$$$$
