
 OpenBabel03272509583D

 49 53  0  0  0  0  0  0  0  0999 V2000
   33.5170   27.6630   47.5620 C   0  0  0  0  0  0  0  0  0  0  0  0
   33.7920   26.7180   48.0280 H   0  0  0  0  0  0  0  0  0  0  0  0
   33.6500   27.5220   46.4670 H   0  0  0  0  0  0  0  0  0  0  0  0
   32.0660   27.9330   47.7690 C   0  0  0  0  0  0  0  0  0  0  0  0
   31.5070   27.5090   48.9590 C   0  0  0  0  0  0  0  0  0  0  0  0
   30.1720   27.7100   49.2480 C   0  0  0  0  0  0  0  0  0  0  0  0
   29.4020   28.3320   48.3530 N   0  0  0  0  0  0  0  0  0  0  0  0
   29.9630   28.7440   47.1880 C   0  0  0  0  0  0  0  0  0  0  0  0
   31.2590   28.5560   46.8900 N   0  0  0  0  0  0  0  0  0  0  0  0
   32.0900   27.0020   49.7130 H   0  0  0  0  0  0  0  0  0  0  0  0
   29.7170   27.3790   50.1870 H   0  0  0  0  0  0  0  0  0  0  0  0
   29.0840   29.4330   46.2060 C   0  0  0  0  0  0  0  0  0  0  0  0
   28.0790   29.6460   46.6250 H   0  0  0  0  0  0  0  0  0  0  0  0
   29.5420   30.4250   46.0100 H   0  0  0  0  0  0  0  0  0  0  0  0
   28.9750   28.6480   44.9330 C   0  0  0  0  0  0  0  0  0  0  0  0
   29.4370   29.1150   43.7190 C   0  0  0  0  0  0  0  0  0  0  0  0
   29.8990   30.0910   43.6760 H   0  0  0  0  0  0  0  0  0  0  0  0
   29.2720   28.2870   42.6220 C   0  0  0  0  0  3  0  0  0  0  0  0
   28.6710   27.0370   42.7220 C   0  0  0  0  0  0  0  0  0  0  0  0
   28.5150   26.2420   41.6580 N   0  0  0  0  0  0  0  0  0  0  0  0
   27.9260   25.0380   41.8070 C   0  0  0  0  0  0  0  0  0  0  0  0
   27.7710   24.3460   40.9790 H   0  0  0  0  0  0  0  0  0  0  0  0
   27.4570   24.5570   43.0300 C   0  0  0  0  0  3  0  0  0  0  0  0
   27.6030   25.3500   44.1290 C   0  0  0  0  0  3  0  0  0  0  0  0
   28.2110   26.5800   43.9560 C   0  0  0  0  0  0  0  0  0  0  0  0
   28.3710   27.3950   45.0360 C   0  0  0  0  0  3  0  0  0  0  0  0
   34.3930   28.7530   48.0870 C   0  0  0  0  0  0  0  0  0  0  0  0
   33.8820   29.7360   48.1370 H   0  0  0  0  0  0  0  0  0  0  0  0
   35.2450   28.8790   47.3860 H   0  0  0  0  0  0  0  0  0  0  0  0
   34.9660   28.4110   49.3340 O   0  0  0  0  0  0  0  0  0  0  0  0
   37.2950   30.1400   51.4740 C   0  0  0  0  0  0  0  0  0  0  0  0
   38.0520   30.8490   50.5080 C   0  0  0  0  0  0  0  0  0  0  0  0
   37.6970   30.6740   49.1730 C   0  0  0  0  0  0  0  0  0  0  0  0
   36.6480   29.8310   48.9280 N   0  0  0  0  0  0  0  0  0  0  0  0
   35.9520   29.1780   49.8530 C   0  0  0  0  0  0  0  0  0  0  0  0
   36.2860   29.3380   51.1470 N   0  0  0  0  0  0  0  0  0  0  0  0
   37.6250   30.3250   52.4840 H   0  0  0  0  0  0  0  0  0  0  0  0
   38.8700   31.5030   50.7280 H   0  0  0  0  0  0  0  0  0  0  0  0
   38.8850   33.3100   49.0490 F   0  0  0  0  0  0  0  0  0  0  0  0
   38.9090   32.5300   47.9760 C   0  0  0  0  0  0  0  0  0  0  0  0
   38.3510   31.3100   48.0590 C   0  0  0  0  0  0  0  0  0  0  0  0
   38.4310   30.5690   46.8740 C   0  0  0  0  0  0  0  0  0  0  0  0
   39.0260   31.0550   45.7440 C   0  0  0  0  0  0  0  0  0  0  0  0
   39.5830   32.3140   45.7130 C   0  0  0  0  0  0  0  0  0  0  0  0
   39.5140   33.0450   46.8540 C   0  0  0  0  0  0  0  0  0  0  0  0
   38.0230   29.5680   46.7970 H   0  0  0  0  0  0  0  0  0  0  0  0
   39.0850   30.4680   44.8190 H   0  0  0  0  0  0  0  0  0  0  0  0
   40.0480   32.6790   44.8120 H   0  0  0  0  0  0  0  0  0  0  0  0
   39.9470   34.0370   46.8480 H   0  0  0  0  0  0  0  0  0  0  0  0
  1  4  1  0  0  0  0
  1  2  1  0  0  0  0
  1 27  1  0  0  0  0
  3  1  1  0  0  0  0
  4  5  1  0  0  0  0
  5  6  2  0  0  0  0
  5 10  1  0  0  0  0
  6 11  1  0  0  0  0
  7  6  1  0  0  0  0
  8  7  2  0  0  0  0
  9  8  1  0  0  0  0
  9  4  2  0  0  0  0
 12 13  1  0  0  0  0
 12  8  1  0  0  0  0
 14 12  1  0  0  0  0
 15 26  1  0  0  0  0
 15 12  1  0  0  0  0
 16 15  2  0  0  0  0
 17 16  1  0  0  0  0
 18 19  2  0  0  0  0
 18 16  1  0  0  0  0
 19 25  1  0  0  0  0
 20 21  2  0  0  0  0
 20 19  1  0  0  0  0
 21 23  1  0  0  0  0
 22 21  1  0  0  0  0
 23 24  2  0  0  0  0
 25 24  1  0  0  0  0
 25 26  2  0  0  0  0
 27 28  1  0  0  0  0
 27 30  1  0  0  0  0
 29 27  1  0  0  0  0
 30 35  1  0  0  0  0
 31 37  1  0  0  0  0
 32 38  1  0  0  0  0
 32 31  2  0  0  0  0
 33 32  1  0  0  0  0
 34 33  2  0  0  0  0
 34 35  1  0  0  0  0
 35 36  2  0  0  0  0
 36 31  1  0  0  0  0
 40 41  1  0  0  0  0
 40 39  1  0  0  0  0
 41 33  1  0  0  0  0
 42 41  2  0  0  0  0
 43 42  1  0  0  0  0
 44 43  2  0  0  0  0
 44 45  1  0  0  0  0
 45 40  2  0  0  0  0
 46 42  1  0  0  0  0
 47 43  1  0  0  0  0
 48 44  1  0  0  0  0
 49 45  1  0  0  0  0
M  END
>  <minimizedAffinity>
-6.57285643

>  <minimizedRMSD>
0.69986093

$$$$
