
 OpenBabel03272505393D

 34 37  0  0  0  0  0  0  0  0999 V2000
   37.5050   26.0930   33.2440 C   0  0  0  0  0  0  0  0  0  0  0  0
   37.3850   27.4520   33.4660 C   0  0  0  0  0  0  0  0  0  0  0  0
   36.6020   28.2360   32.6480 C   0  0  0  0  0  0  0  0  0  0  0  0
   35.8980   27.7140   31.5680 C   0  0  0  0  0  0  0  0  0  0  0  0
   36.0130   26.3600   31.3390 C   0  0  0  0  0  0  0  0  0  0  0  0
   36.8010   25.6020   32.1710 C   0  0  0  0  0  0  0  0  0  0  0  0
   37.9250   27.8800   34.3020 H   0  0  0  0  0  0  0  0  0  0  0  0
   36.5450   29.3100   32.8750 H   0  0  0  0  0  0  0  0  0  0  0  0
   35.3200   28.4430   31.0060 H   0  0  0  0  0  0  0  0  0  0  0  0
   35.4570   25.9790   30.4950 H   0  0  0  0  0  0  0  0  0  0  0  0
   36.8410   24.1970   31.8010 C   0  0  0  0  0  0  0  0  0  0  0  0
   37.8890   23.7200   31.0040 C   0  0  0  0  0  0  0  0  0  0  0  0
   38.6550   24.4150   30.6750 H   0  0  0  0  0  0  0  0  0  0  0  0
   37.9290   22.3880   30.6530 C   0  0  0  0  0  3  0  0  0  0  0  0
   36.9680   21.4870   31.0590 C   0  0  0  0  0  0  0  0  0  0  0  0
   37.1060   20.2120   30.6580 N   0  0  0  0  0  0  0  0  0  0  0  0
   36.2140   19.2810   31.0130 C   0  0  0  0  0  0  0  0  0  0  0  0
   36.1600   18.2220   30.7910 H   0  0  0  0  0  0  0  0  0  0  0  0
   35.1530   19.7130   31.8070 C   0  0  0  0  0  3  0  0  0  0  0  0
   34.9970   21.0120   32.2240 C   0  0  0  0  0  3  0  0  0  0  0  0
   35.9450   21.9590   31.8380 C   0  0  0  0  0  0  0  0  0  0  0  0
   35.8800   23.3030   32.2070 C   0  0  0  0  0  3  0  0  0  0  0  0
   38.6340   24.0820   36.0910 C   0  0  0  0  0  0  0  0  0  0  0  0
   39.9190   23.7110   35.7100 C   0  0  0  0  0  0  0  0  0  0  0  0
   40.3920   24.1570   34.4730 C   0  0  0  0  0  0  0  0  0  0  0  0
   39.5570   24.9230   33.7300 N   0  0  0  0  0  0  0  0  0  0  0  0
   38.3240   25.2700   34.1100 C   0  0  0  0  0  0  0  0  0  0  0  0
   37.8620   24.8480   35.2960 N   0  0  0  0  0  0  0  0  0  0  0  0
   40.5210   23.0880   36.3750 H   0  0  0  0  0  0  0  0  0  0  0  0
   41.3960   23.8810   34.1480 H   0  0  0  0  0  0  0  0  0  0  0  0
   38.1140   23.6090   37.4250 C   0  0  0  0  0  0  0  0  0  0  0  0
   37.8230   24.6930   38.2350 F   0  0  0  0  0  0  0  0  0  0  0  0
   37.0310   22.8200   37.1880 F   0  0  0  0  0  0  0  0  0  0  0  0
   39.1380   22.9120   38.0400 F   0  0  0  0  0  0  0  0  0  0  0  0
  1  2  1  0  0  0  0
  1 27  1  0  0  0  0
  2  7  1  0  0  0  0
  3  8  1  0  0  0  0
  3  2  2  0  0  0  0
  4  3  1  0  0  0  0
  5  4  2  0  0  0  0
  5  6  1  0  0  0  0
  6  1  2  0  0  0  0
  9  4  1  0  0  0  0
 10  5  1  0  0  0  0
 11  6  1  0  0  0  0
 11 22  1  0  0  0  0
 12 11  2  0  0  0  0
 13 12  1  0  0  0  0
 14 12  1  0  0  0  0
 14 15  2  0  0  0  0
 15 21  1  0  0  0  0
 16 17  2  0  0  0  0
 16 15  1  0  0  0  0
 17 19  1  0  0  0  0
 18 17  1  0  0  0  0
 19 20  2  0  0  0  0
 21 22  2  0  0  0  0
 21 20  1  0  0  0  0
 23 31  1  0  0  0  0
 24 23  1  0  0  0  0
 24 29  1  0  0  0  0
 25 24  2  0  0  0  0
 26 27  2  0  0  0  0
 26 25  1  0  0  0  0
 27 28  1  0  0  0  0
 28 23  2  0  0  0  0
 30 25  1  0  0  0  0
 31 34  1  0  0  0  0
 31 32  1  0  0  0  0
 33 31  1  0  0  0  0
M  END
>  <minimizedAffinity>
-6.59712124

$$$$

 OpenBabel03272505393D

 34 37  0  0  0  0  0  0  0  0999 V2000
   36.8220   21.4530   33.4960 C   0  0  0  0  0  0  0  0  0  0  0  0
   36.1250   20.3160   33.8590 C   0  0  0  0  0  0  0  0  0  0  0  0
   35.0950   19.8360   33.0810 C   0  0  0  0  0  0  0  0  0  0  0  0
   34.7020   20.4590   31.9010 C   0  0  0  0  0  0  0  0  0  0  0  0
   35.3900   21.5940   31.5310 C   0  0  0  0  0  0  0  0  0  0  0  0
   36.4130   22.0500   32.3270 C   0  0  0  0  0  0  0  0  0  0  0  0
   36.4140   19.8140   34.7760 H   0  0  0  0  0  0  0  0  0  0  0  0
   34.5790   18.9280   33.4220 H   0  0  0  0  0  0  0  0  0  0  0  0
   33.8770   19.9770   31.3850 H   0  0  0  0  0  0  0  0  0  0  0  0
   35.0660   22.0590   30.6110 H   0  0  0  0  0  0  0  0  0  0  0  0
   37.0360   23.2620   31.8220 C   0  0  0  0  0  0  0  0  0  0  0  0
   37.9680   23.1800   30.7800 C   0  0  0  0  0  0  0  0  0  0  0  0
   38.2080   22.2060   30.3680 H   0  0  0  0  0  0  0  0  0  0  0  0
   38.5590   24.3290   30.2990 C   0  0  0  0  0  3  0  0  0  0  0  0
   38.2690   25.5770   30.8070 C   0  0  0  0  0  0  0  0  0  0  0  0
   38.9050   26.6290   30.2640 N   0  0  0  0  0  0  0  0  0  0  0  0
   38.6750   27.8710   30.7030 C   0  0  0  0  0  0  0  0  0  0  0  0
   39.0830   28.8260   30.3930 H   0  0  0  0  0  0  0  0  0  0  0  0
   37.7540   27.9990   31.7410 C   0  0  0  0  0  3  0  0  0  0  0  0
   37.0970   26.9340   32.3080 C   0  0  0  0  0  3  0  0  0  0  0  0
   37.3580   25.6520   31.8270 C   0  0  0  0  0  0  0  0  0  0  0  0
   36.7450   24.5050   32.3320 C   0  0  0  0  0  3  0  0  0  0  0  0
   38.6880   22.9560   36.2660 C   0  0  0  0  0  0  0  0  0  0  0  0
   40.0040   22.8760   35.8240 C   0  0  0  0  0  0  0  0  0  0  0  0
   40.2430   22.3050   34.5720 C   0  0  0  0  0  0  0  0  0  0  0  0
   39.1660   21.8680   33.8740 N   0  0  0  0  0  0  0  0  0  0  0  0
   37.9070   21.9510   34.3140 C   0  0  0  0  0  0  0  0  0  0  0  0
   37.6680   22.4980   35.5150 N   0  0  0  0  0  0  0  0  0  0  0  0
   40.8100   23.2550   36.4560 H   0  0  0  0  0  0  0  0  0  0  0  0
   41.2660   22.2280   34.1990 H   0  0  0  0  0  0  0  0  0  0  0  0
   38.4180   23.5720   37.6160 C   0  0  0  0  0  0  0  0  0  0  0  0
   39.4610   23.2970   38.4830 F   0  0  0  0  0  0  0  0  0  0  0  0
   38.2230   24.9060   37.4290 F   0  0  0  0  0  0  0  0  0  0  0  0
   37.2940   22.9530   38.1310 F   0  0  0  0  0  0  0  0  0  0  0  0
  1  2  1  0  0  0  0
  1 27  1  0  0  0  0
  2  7  1  0  0  0  0
  3  8  1  0  0  0  0
  3  2  2  0  0  0  0
  4  3  1  0  0  0  0
  5  4  2  0  0  0  0
  5  6  1  0  0  0  0
  6  1  2  0  0  0  0
  9  4  1  0  0  0  0
 10  5  1  0  0  0  0
 11  6  1  0  0  0  0
 11 22  1  0  0  0  0
 12 11  2  0  0  0  0
 13 12  1  0  0  0  0
 14 12  1  0  0  0  0
 14 15  2  0  0  0  0
 15 21  1  0  0  0  0
 16 17  2  0  0  0  0
 16 15  1  0  0  0  0
 17 19  1  0  0  0  0
 18 17  1  0  0  0  0
 19 20  2  0  0  0  0
 21 20  1  0  0  0  0
 21 22  2  0  0  0  0
 23 31  1  0  0  0  0
 24 23  1  0  0  0  0
 24 29  1  0  0  0  0
 25 24  2  0  0  0  0
 26 27  2  0  0  0  0
 26 25  1  0  0  0  0
 27 28  1  0  0  0  0
 28 23  2  0  0  0  0
 30 25  1  0  0  0  0
 31 34  1  0  0  0  0
 31 32  1  0  0  0  0
 33 31  1  0  0  0  0
M  END
>  <minimizedAffinity>
-6.52101803

$$$$

 OpenBabel03272505393D

 34 37  0  0  0  0  0  0  0  0999 V2000
   36.7770   24.8750   31.9360 C   0  0  0  0  0  0  0  0  0  0  0  0
   35.9240   25.6430   31.1660 C   0  0  0  0  0  0  0  0  0  0  0  0
   35.8080   26.9990   31.3760 C   0  0  0  0  0  0  0  0  0  0  0  0
   36.5310   27.6650   32.3610 C   0  0  0  0  0  0  0  0  0  0  0  0
   37.3830   26.9070   33.1340 C   0  0  0  0  0  0  0  0  0  0  0  0
   37.4790   25.5560   32.9020 C   0  0  0  0  0  0  0  0  0  0  0  0
   35.3500   25.1460   30.3930 H   0  0  0  0  0  0  0  0  0  0  0  0
   35.1130   27.5570   30.7320 H   0  0  0  0  0  0  0  0  0  0  0  0
   36.3440   28.7340   32.4190 H   0  0  0  0  0  0  0  0  0  0  0  0
   37.9330   27.4460   33.8910 H   0  0  0  0  0  0  0  0  0  0  0  0
   38.4010   24.8830   33.8010 C   0  0  0  0  0  0  0  0  0  0  0  0
   39.7050   24.6030   33.3740 C   0  0  0  0  0  0  0  0  0  0  0  0
   40.0020   24.8940   32.3720 H   0  0  0  0  0  0  0  0  0  0  0  0
   40.5820   23.9670   34.2250 C   0  0  0  0  0  3  0  0  0  0  0  0
   40.2280   23.5870   35.5030 C   0  0  0  0  0  0  0  0  0  0  0  0
   41.1620   22.9730   36.2480 N   0  0  0  0  0  0  0  0  0  0  0  0
   40.8930   22.5760   37.4960 C   0  0  0  0  0  0  0  0  0  0  0  0
   41.5080   22.0760   38.2350 H   0  0  0  0  0  0  0  0  0  0  0  0
   39.6050   22.8360   37.9630 C   0  0  0  0  0  3  0  0  0  0  0  0
   38.6390   23.4620   37.2140 C   0  0  0  0  0  3  0  0  0  0  0  0
   38.9510   23.8640   35.9160 C   0  0  0  0  0  0  0  0  0  0  0  0
   38.0440   24.5070   35.0740 C   0  0  0  0  0  3  0  0  0  0  0  0
   36.2510   21.2560   32.1480 C   0  0  0  0  0  0  0  0  0  0  0  0
   37.1760   20.7610   31.2360 C   0  0  0  0  0  0  0  0  0  0  0  0
   37.9790   21.6770   30.5520 C   0  0  0  0  0  0  0  0  0  0  0  0
   37.7960   22.9910   30.8300 N   0  0  0  0  0  0  0  0  0  0  0  0
   36.9010   23.4510   31.7090 C   0  0  0  0  0  0  0  0  0  0  0  0
   36.1260   22.5780   32.3710 N   0  0  0  0  0  0  0  0  0  0  0  0
   37.2540   19.6830   31.0760 H   0  0  0  0  0  0  0  0  0  0  0  0
   38.7140   21.3180   29.8300 H   0  0  0  0  0  0  0  0  0  0  0  0
   35.3800   20.2760   32.8940 C   0  0  0  0  0  0  0  0  0  0  0  0
   35.2900   20.6370   34.2280 F   0  0  0  0  0  0  0  0  0  0  0  0
   34.1700   20.2440   32.2720 F   0  0  0  0  0  0  0  0  0  0  0  0
   36.0160   19.0490   32.8520 F   0  0  0  0  0  0  0  0  0  0  0  0
  1  6  1  0  0  0  0
  2  3  1  0  0  0  0
  2  1  2  0  0  0  0
  3  4  2  0  0  0  0
  4  9  1  0  0  0  0
  4  5  1  0  0  0  0
  5 10  1  0  0  0  0
  6  5  2  0  0  0  0
  6 11  1  0  0  0  0
  7  2  1  0  0  0  0
  8  3  1  0  0  0  0
 11 22  1  0  0  0  0
 12 11  2  0  0  0  0
 12 14  1  0  0  0  0
 13 12  1  0  0  0  0
 14 15  2  0  0  0  0
 15 21  1  0  0  0  0
 15 16  1  0  0  0  0
 16 17  2  0  0  0  0
 17 19  1  0  0  0  0
 17 18  1  0  0  0  0
 20 19  2  0  0  0  0
 21 20  1  0  0  0  0
 22 21  2  0  0  0  0
 23 28  1  0  0  0  0
 23 31  1  0  0  0  0
 24 23  2  0  0  0  0
 25 26  2  0  0  0  0
 25 24  1  0  0  0  0
 26 27  1  0  0  0  0
 27  1  1  0  0  0  0
 27 28  2  0  0  0  0
 29 24  1  0  0  0  0
 30 25  1  0  0  0  0
 31 32  1  0  0  0  0
 33 31  1  0  0  0  0
 34 31  1  0  0  0  0
M  END
>  <minimizedAffinity>
-6.41277742

$$$$

 OpenBabel03272505393D

 34 37  0  0  0  0  0  0  0  0999 V2000
   39.6270   26.9740   31.8370 C   0  0  0  0  0  0  0  0  0  0  0  0
   40.3200   27.5260   30.7760 C   0  0  0  0  0  0  0  0  0  0  0  0
   41.5990   28.0090   30.9390 C   0  0  0  0  0  0  0  0  0  0  0  0
   42.2590   27.9720   32.1630 C   0  0  0  0  0  0  0  0  0  0  0  0
   41.5760   27.4240   33.2270 C   0  0  0  0  0  0  0  0  0  0  0  0
   40.3010   26.9490   33.0350 C   0  0  0  0  0  0  0  0  0  0  0  0
   39.8250   27.5660   29.8120 H   0  0  0  0  0  0  0  0  0  0  0  0
   42.0980   28.4360   30.0580 H   0  0  0  0  0  0  0  0  0  0  0  0
   43.2630   28.3860   32.1510 H   0  0  0  0  0  0  0  0  0  0  0  0
   42.1090   27.4060   34.1660 H   0  0  0  0  0  0  0  0  0  0  0  0
   39.6980   26.4160   34.2460 C   0  0  0  0  0  0  0  0  0  0  0  0
   38.8500   27.2250   35.0120 C   0  0  0  0  0  0  0  0  0  0  0  0
   38.6590   28.2410   34.6840 H   0  0  0  0  0  0  0  0  0  0  0  0
   38.2770   26.7210   36.1590 C   0  0  0  0  0  3  0  0  0  0  0  0
   38.5040   25.4320   36.5950 C   0  0  0  0  0  0  0  0  0  0  0  0
   37.8940   25.0450   37.7270 N   0  0  0  0  0  0  0  0  0  0  0  0
   38.0660   23.8110   38.2120 C   0  0  0  0  0  0  0  0  0  0  0  0
   37.6630   23.3260   39.0930 H   0  0  0  0  0  0  0  0  0  0  0  0
   38.9050   22.9710   37.4800 C   0  0  0  0  0  3  0  0  0  0  0  0
   39.5360   23.3520   36.3220 C   0  0  0  0  0  3  0  0  0  0  0  0
   39.3360   24.6460   35.8420 C   0  0  0  0  0  0  0  0  0  0  0  0
   39.9290   25.1320   34.6770 C   0  0  0  0  0  3  0  0  0  0  0  0
   36.7720   24.6890   31.6300 C   0  0  0  0  0  0  0  0  0  0  0  0
   35.7210   25.5430   31.3170 C   0  0  0  0  0  0  0  0  0  0  0  0
   36.0010   26.9050   31.1770 C   0  0  0  0  0  0  0  0  0  0  0  0
   37.2860   27.2960   31.3590 N   0  0  0  0  0  0  0  0  0  0  0  0
   38.2850   26.4610   31.6600 C   0  0  0  0  0  0  0  0  0  0  0  0
   38.0250   25.1520   31.7960 N   0  0  0  0  0  0  0  0  0  0  0  0
   34.7140   25.1390   31.1890 H   0  0  0  0  0  0  0  0  0  0  0  0
   35.1960   27.6000   30.9320 H   0  0  0  0  0  0  0  0  0  0  0  0
   36.4820   23.2160   31.7810 C   0  0  0  0  0  0  0  0  0  0  0  0
   36.9680   22.5200   30.6880 F   0  0  0  0  0  0  0  0  0  0  0  0
   37.0310   22.8070   32.9570 F   0  0  0  0  0  0  0  0  0  0  0  0
   35.1070   23.0670   31.7720 F   0  0  0  0  0  0  0  0  0  0  0  0
  1  6  1  0  0  0  0
  2  3  1  0  0  0  0
  2  1  2  0  0  0  0
  3  4  2  0  0  0  0
  4  5  1  0  0  0  0
  5 10  1  0  0  0  0
  6  5  2  0  0  0  0
  6 11  1  0  0  0  0
  7  2  1  0  0  0  0
  8  3  1  0  0  0  0
  9  4  1  0  0  0  0
 11 22  2  0  0  0  0
 11 12  1  0  0  0  0
 12 14  2  0  0  0  0
 13 12  1  0  0  0  0
 14 15  1  0  0  0  0
 15 16  1  0  0  0  0
 16 17  2  0  0  0  0
 17 18  1  0  0  0  0
 19 17  1  0  0  0  0
 20 19  2  0  0  0  0
 21 20  1  0  0  0  0
 21 15  2  0  0  0  0
 22 21  1  0  0  0  0
 23 31  1  0  0  0  0
 23 28  1  0  0  0  0
 24 23  2  0  0  0  0
 25 24  1  0  0  0  0
 25 26  2  0  0  0  0
 26 27  1  0  0  0  0
 27 28  2  0  0  0  0
 27  1  1  0  0  0  0
 29 24  1  0  0  0  0
 30 25  1  0  0  0  0
 31 33  1  0  0  0  0
 32 31  1  0  0  0  0
 34 31  1  0  0  0  0
M  END
>  <minimizedAffinity>
-6.40321732

$$$$

 OpenBabel03272505393D

 34 37  0  0  0  0  0  0  0  0999 V2000
   37.0960   21.8870   33.7740 C   0  0  0  0  0  0  0  0  0  0  0  0
   36.2770   20.7850   33.9330 C   0  0  0  0  0  0  0  0  0  0  0  0
   35.3220   20.4690   32.9920 C   0  0  0  0  0  0  0  0  0  0  0  0
   35.1280   21.2300   31.8440 C   0  0  0  0  0  0  0  0  0  0  0  0
   35.9390   22.3320   31.6770 C   0  0  0  0  0  0  0  0  0  0  0  0
   36.8840   22.6220   32.6320 C   0  0  0  0  0  0  0  0  0  0  0  0
   36.4100   20.1770   34.8210 H   0  0  0  0  0  0  0  0  0  0  0  0
   34.7010   19.5810   33.1740 H   0  0  0  0  0  0  0  0  0  0  0  0
   34.3420   20.8700   31.1870 H   0  0  0  0  0  0  0  0  0  0  0  0
   35.7700   22.9060   30.7780 H   0  0  0  0  0  0  0  0  0  0  0  0
   37.6540   23.8180   32.3320 C   0  0  0  0  0  0  0  0  0  0  0  0
   37.2970   25.0380   32.9220 C   0  0  0  0  0  0  0  0  0  0  0  0
   36.4460   25.0650   33.5940 H   0  0  0  0  0  0  0  0  0  0  0  0
   38.0270   26.1720   32.6400 C   0  0  0  0  0  3  0  0  0  0  0  0
   39.1120   26.1610   31.7900 C   0  0  0  0  0  0  0  0  0  0  0  0
   39.7510   27.3260   31.5860 N   0  0  0  0  0  0  0  0  0  0  0  0
   40.8120   27.3940   30.7750 C   0  0  0  0  0  0  0  0  0  0  0  0
   41.4450   28.2270   30.4950 H   0  0  0  0  0  0  0  0  0  0  0  0
   41.2020   26.2010   30.1670 C   0  0  0  0  0  3  0  0  0  0  0  0
   40.5590   25.0040   30.3640 C   0  0  0  0  0  3  0  0  0  0  0  0
   39.4560   24.9660   31.2160 C   0  0  0  0  0  0  0  0  0  0  0  0
   38.7340   23.8030   31.4830 C   0  0  0  0  0  3  0  0  0  0  0  0
   38.7050   23.0280   36.8600 C   0  0  0  0  0  0  0  0  0  0  0  0
   40.0520   22.8070   36.6000 C   0  0  0  0  0  0  0  0  0  0  0  0
   40.4020   22.2650   35.3600 C   0  0  0  0  0  0  0  0  0  0  0  0
   39.3940   21.9940   34.4960 N   0  0  0  0  0  0  0  0  0  0  0  0
   38.1020   22.2120   34.7620 C   0  0  0  0  0  0  0  0  0  0  0  0
   37.7580   22.7320   35.9500 N   0  0  0  0  0  0  0  0  0  0  0  0
   40.7980   23.0560   37.3590 H   0  0  0  0  0  0  0  0  0  0  0  0
   41.4520   22.0800   35.1280 H   0  0  0  0  0  0  0  0  0  0  0  0
   38.3160   23.6140   38.1950 C   0  0  0  0  0  0  0  0  0  0  0  0
   38.0380   24.9640   38.0600 F   0  0  0  0  0  0  0  0  0  0  0  0
   37.2580   22.9000   38.6660 F   0  0  0  0  0  0  0  0  0  0  0  0
   39.4190   23.5120   39.0230 F   0  0  0  0  0  0  0  0  0  0  0  0
  1  2  1  0  0  0  0
  1 27  1  0  0  0  0
  2  7  1  0  0  0  0
  3  8  1  0  0  0  0
  3  2  2  0  0  0  0
  4  3  1  0  0  0  0
  5  4  2  0  0  0  0
  5  6  1  0  0  0  0
  6  1  2  0  0  0  0
  9  4  1  0  0  0  0
 10  5  1  0  0  0  0
 11  6  1  0  0  0  0
 11 12  1  0  0  0  0
 12 13  1  0  0  0  0
 14 12  2  0  0  0  0
 15 14  1  0  0  0  0
 16 15  1  0  0  0  0
 17 16  2  0  0  0  0
 18 17  1  0  0  0  0
 19 20  2  0  0  0  0
 19 17  1  0  0  0  0
 20 21  1  0  0  0  0
 21 22  1  0  0  0  0
 21 15  2  0  0  0  0
 22 11  2  0  0  0  0
 23 31  1  0  0  0  0
 24 23  1  0  0  0  0
 24 29  1  0  0  0  0
 25 24  2  0  0  0  0
 26 27  2  0  0  0  0
 26 25  1  0  0  0  0
 27 28  1  0  0  0  0
 28 23  2  0  0  0  0
 30 25  1  0  0  0  0
 31 33  1  0  0  0  0
 31 34  1  0  0  0  0
 32 31  1  0  0  0  0
M  END
>  <minimizedAffinity>
-6.306849

$$$$

 OpenBabel03272505393D

 34 37  0  0  0  0  0  0  0  0999 V2000
   40.7100   24.3900   35.1980 C   0  0  0  0  0  0  0  0  0  0  0  0
   41.9520   23.7980   35.3290 C   0  0  0  0  0  0  0  0  0  0  0  0
   43.1040   24.5020   35.0570 C   0  0  0  0  0  0  0  0  0  0  0  0
   43.0860   25.8280   34.6390 C   0  0  0  0  0  0  0  0  0  0  0  0
   41.8520   26.4270   34.5050 C   0  0  0  0  0  0  0  0  0  0  0  0
   40.7190   25.7010   34.7840 C   0  0  0  0  0  0  0  0  0  0  0  0
   41.9910   22.7640   35.6530 H   0  0  0  0  0  0  0  0  0  0  0  0
   44.0630   23.9770   35.1790 H   0  0  0  0  0  0  0  0  0  0  0  0
   44.0650   26.2630   34.4590 H   0  0  0  0  0  0  0  0  0  0  0  0
   41.8640   27.4570   34.1800 H   0  0  0  0  0  0  0  0  0  0  0  0
   39.4920   26.4530   34.5840 C   0  0  0  0  0  0  0  0  0  0  0  0
   38.8710   27.0710   35.6770 C   0  0  0  0  0  0  0  0  0  0  0  0
   39.3220   26.9730   36.6590 H   0  0  0  0  0  0  0  0  0  0  0  0
   37.7080   27.7860   35.4880 C   0  0  0  0  0  3  0  0  0  0  0  0
   37.1170   27.9240   34.2500 C   0  0  0  0  0  0  0  0  0  0  0  0
   35.9840   28.6430   34.1820 N   0  0  0  0  0  0  0  0  0  0  0  0
   35.3540   28.8220   33.0160 C   0  0  0  0  0  0  0  0  0  0  0  0
   34.4480   29.3610   32.7680 H   0  0  0  0  0  0  0  0  0  0  0  0
   35.9390   28.2230   31.9000 C   0  0  0  0  0  3  0  0  0  0  0  0
   37.0950   27.4850   31.9540 C   0  0  0  0  0  3  0  0  0  0  0  0
   37.7280   27.3180   33.1850 C   0  0  0  0  0  0  0  0  0  0  0  0
   38.9060   26.5880   33.3480 C   0  0  0  0  0  3  0  0  0  0  0  0
   37.7520   22.2630   34.8210 C   0  0  0  0  0  0  0  0  0  0  0  0
   37.2140   22.2610   36.1030 C   0  0  0  0  0  0  0  0  0  0  0  0
   37.8730   22.9950   37.0930 C   0  0  0  0  0  0  0  0  0  0  0  0
   38.9960   23.6590   36.7280 N   0  0  0  0  0  0  0  0  0  0  0  0
   39.5010   23.6500   35.4910 C   0  0  0  0  0  0  0  0  0  0  0  0
   38.8750   22.9480   34.5340 N   0  0  0  0  0  0  0  0  0  0  0  0
   36.3020   21.6950   36.3060 H   0  0  0  0  0  0  0  0  0  0  0  0
   37.4740   23.0120   38.1090 H   0  0  0  0  0  0  0  0  0  0  0  0
   37.0480   21.4760   33.7440 C   0  0  0  0  0  0  0  0  0  0  0  0
   37.9620   20.7170   33.0330 F   0  0  0  0  0  0  0  0  0  0  0  0
   36.0880   20.7220   34.3450 F   0  0  0  0  0  0  0  0  0  0  0  0
   36.5090   22.3900   32.8560 F   0  0  0  0  0  0  0  0  0  0  0  0
  1  2  1  0  0  0  0
  1 27  1  0  0  0  0
  2  7  1  0  0  0  0
  3  8  1  0  0  0  0
  3  2  2  0  0  0  0
  4  3  1  0  0  0  0
  5  4  2  0  0  0  0
  5  6  1  0  0  0  0
  6  1  2  0  0  0  0
  9  4  1  0  0  0  0
 10  5  1  0  0  0  0
 11  6  1  0  0  0  0
 11 12  1  0  0  0  0
 12 13  1  0  0  0  0
 14 12  2  0  0  0  0
 15 14  1  0  0  0  0
 16 15  1  0  0  0  0
 17 16  2  0  0  0  0
 18 17  1  0  0  0  0
 19 20  2  0  0  0  0
 19 17  1  0  0  0  0
 20 21  1  0  0  0  0
 21 22  1  0  0  0  0
 21 15  2  0  0  0  0
 22 11  2  0  0  0  0
 23 24  1  0  0  0  0
 24 29  1  0  0  0  0
 24 25  2  0  0  0  0
 25 30  1  0  0  0  0
 26 25  1  0  0  0  0
 27 26  2  0  0  0  0
 28 23  2  0  0  0  0
 28 27  1  0  0  0  0
 31 33  1  0  0  0  0
 31 23  1  0  0  0  0
 32 31  1  0  0  0  0
 34 31  1  0  0  0  0
M  END
>  <minimizedAffinity>
-6.3045516

$$$$

 OpenBabel03272505393D

 34 37  0  0  0  0  0  0  0  0999 V2000
   37.4240   25.9510   33.1960 C   0  0  0  0  0  0  0  0  0  0  0  0
   36.7500   27.0430   32.6810 C   0  0  0  0  0  0  0  0  0  0  0  0
   36.5190   28.1610   33.4520 C   0  0  0  0  0  0  0  0  0  0  0  0
   36.9430   28.2550   34.7730 C   0  0  0  0  0  0  0  0  0  0  0  0
   37.6150   27.1710   35.2950 C   0  0  0  0  0  0  0  0  0  0  0  0
   37.8320   26.0700   34.5030 C   0  0  0  0  0  0  0  0  0  0  0  0
   36.4090   26.9910   31.6540 H   0  0  0  0  0  0  0  0  0  0  0  0
   35.9780   28.9970   32.9870 H   0  0  0  0  0  0  0  0  0  0  0  0
   36.6950   29.1910   35.2650 H   0  0  0  0  0  0  0  0  0  0  0  0
   37.9350   27.2690   36.3220 H   0  0  0  0  0  0  0  0  0  0  0  0
   38.5370   24.9990   35.1900 C   0  0  0  0  0  0  0  0  0  0  0  0
   37.8210   24.0970   35.9860 C   0  0  0  0  0  0  0  0  0  0  0  0
   36.7460   24.2170   36.0760 H   0  0  0  0  0  0  0  0  0  0  0  0
   38.4870   23.0810   36.6360 C   0  0  0  0  0  3  0  0  0  0  0  0
   39.8520   22.9090   36.5360 C   0  0  0  0  0  0  0  0  0  0  0  0
   40.3980   21.8850   37.2130 N   0  0  0  0  0  0  0  0  0  0  0  0
   41.7140   21.6540   37.1640 C   0  0  0  0  0  0  0  0  0  0  0  0
   42.3240   20.8900   37.6320 H   0  0  0  0  0  0  0  0  0  0  0  0
   42.4660   22.5300   36.3810 C   0  0  0  0  0  3  0  0  0  0  0  0
   41.9230   23.5810   35.6850 C   0  0  0  0  0  3  0  0  0  0  0  0
   40.5470   23.7950   35.7560 C   0  0  0  0  0  0  0  0  0  0  0  0
   39.8970   24.8320   35.0870 C   0  0  0  0  0  3  0  0  0  0  0  0
   37.0110   22.7060   31.5480 C   0  0  0  0  0  0  0  0  0  0  0  0
   38.1880   22.5840   30.8190 C   0  0  0  0  0  0  0  0  0  0  0  0
   39.1210   23.6210   30.8990 C   0  0  0  0  0  0  0  0  0  0  0  0
   38.8070   24.6770   31.6870 N   0  0  0  0  0  0  0  0  0  0  0  0
   37.6700   24.7800   32.3820 C   0  0  0  0  0  0  0  0  0  0  0  0
   36.7690   23.7890   32.3110 N   0  0  0  0  0  0  0  0  0  0  0  0
   38.3550   21.6940   30.2080 H   0  0  0  0  0  0  0  0  0  0  0  0
   40.0540   23.5530   30.3370 H   0  0  0  0  0  0  0  0  0  0  0  0
   35.9970   21.5920   31.4710 C   0  0  0  0  0  0  0  0  0  0  0  0
   36.6240   20.3970   31.1610 F   0  0  0  0  0  0  0  0  0  0  0  0
   35.3390   21.5500   32.6610 F   0  0  0  0  0  0  0  0  0  0  0  0
   35.1470   21.8840   30.4200 F   0  0  0  0  0  0  0  0  0  0  0  0
  1  6  1  0  0  0  0
  2  1  2  0  0  0  0
  2  3  1  0  0  0  0
  3  4  2  0  0  0  0
  4  9  1  0  0  0  0
  4  5  1  0  0  0  0
  5 10  1  0  0  0  0
  6 11  1  0  0  0  0
  6  5  2  0  0  0  0
  7  2  1  0  0  0  0
  8  3  1  0  0  0  0
 11 12  1  0  0  0  0
 12 13  1  0  0  0  0
 12 14  2  0  0  0  0
 15 14  1  0  0  0  0
 15 16  1  0  0  0  0
 17 16  2  0  0  0  0
 17 18  1  0  0  0  0
 19 17  1  0  0  0  0
 20 21  1  0  0  0  0
 20 19  2  0  0  0  0
 21 15  2  0  0  0  0
 22 11  2  0  0  0  0
 22 21  1  0  0  0  0
 23 28  1  0  0  0  0
 24 25  1  0  0  0  0
 24 23  2  0  0  0  0
 25 26  2  0  0  0  0
 26 27  1  0  0  0  0
 27  1  1  0  0  0  0
 28 27  2  0  0  0  0
 29 24  1  0  0  0  0
 30 25  1  0  0  0  0
 31 23  1  0  0  0  0
 31 33  1  0  0  0  0
 32 31  1  0  0  0  0
 34 31  1  0  0  0  0
M  END
>  <minimizedAffinity>
-6.27124643

$$$$

 OpenBabel03272505393D

 34 37  0  0  0  0  0  0  0  0999 V2000
   37.4110   26.4100   33.9460 C   0  0  0  0  0  0  0  0  0  0  0  0
   37.0040   27.6280   34.4570 C   0  0  0  0  0  0  0  0  0  0  0  0
   36.2120   28.4780   33.7170 C   0  0  0  0  0  0  0  0  0  0  0  0
   35.7810   28.1630   32.4320 C   0  0  0  0  0  0  0  0  0  0  0  0
   36.1810   26.9510   31.9150 C   0  0  0  0  0  0  0  0  0  0  0  0
   36.9720   26.1240   32.6760 C   0  0  0  0  0  0  0  0  0  0  0  0
   37.3290   27.8950   35.4560 H   0  0  0  0  0  0  0  0  0  0  0  0
   35.9210   29.4330   34.1760 H   0  0  0  0  0  0  0  0  0  0  0  0
   35.1610   28.9220   31.9620 H   0  0  0  0  0  0  0  0  0  0  0  0
   35.8340   26.7300   30.9160 H   0  0  0  0  0  0  0  0  0  0  0  0
   37.3300   24.8890   31.9980 C   0  0  0  0  0  0  0  0  0  0  0  0
   36.7000   23.6910   32.3600 C   0  0  0  0  0  0  0  0  0  0  0  0
   35.9530   23.7100   33.1470 H   0  0  0  0  0  0  0  0  0  0  0  0
   37.0370   22.5200   31.7180 C   0  0  0  0  0  3  0  0  0  0  0  0
   37.9830   22.4720   30.7150 C   0  0  0  0  0  0  0  0  0  0  0  0
   38.2330   21.2750   30.1570 N   0  0  0  0  0  0  0  0  0  0  0  0
   39.1370   21.1500   29.1790 C   0  0  0  0  0  0  0  0  0  0  0  0
   39.4660   20.2840   28.6170 H   0  0  0  0  0  0  0  0  0  0  0  0
   39.7880   22.3190   28.7870 C   0  0  0  0  0  3  0  0  0  0  0  0
   39.5440   23.5480   29.3480 C   0  0  0  0  0  3  0  0  0  0  0  0
   38.5960   23.6460   30.3650 C   0  0  0  0  0  0  0  0  0  0  0  0
   38.2740   24.8460   31.0000 C   0  0  0  0  0  3  0  0  0  0  0  0
   38.5920   24.2090   36.6260 C   0  0  0  0  0  0  0  0  0  0  0  0
   39.8490   23.8260   36.1720 C   0  0  0  0  0  0  0  0  0  0  0  0
   40.2860   24.3290   34.9440 C   0  0  0  0  0  0  0  0  0  0  0  0
   39.4450   25.1590   34.2800 N   0  0  0  0  0  0  0  0  0  0  0  0
   38.2390   25.5170   34.7290 C   0  0  0  0  0  0  0  0  0  0  0  0
   37.8120   25.0390   35.9080 N   0  0  0  0  0  0  0  0  0  0  0  0
   40.4590   23.1500   36.7760 H   0  0  0  0  0  0  0  0  0  0  0  0
   41.2680   24.0460   34.5620 H   0  0  0  0  0  0  0  0  0  0  0  0
   38.1110   23.6740   37.9510 C   0  0  0  0  0  0  0  0  0  0  0  0
   37.7360   24.7180   38.7800 F   0  0  0  0  0  0  0  0  0  0  0  0
   37.0940   22.8050   37.7010 F   0  0  0  0  0  0  0  0  0  0  0  0
   39.1870   23.0490   38.5550 F   0  0  0  0  0  0  0  0  0  0  0  0
  1  2  1  0  0  0  0
  1 27  1  0  0  0  0
  2  7  1  0  0  0  0
  3  8  1  0  0  0  0
  3  2  2  0  0  0  0
  4  3  1  0  0  0  0
  5  4  2  0  0  0  0
  5  6  1  0  0  0  0
  6  1  2  0  0  0  0
  9  4  1  0  0  0  0
 10  5  1  0  0  0  0
 11 12  1  0  0  0  0
 11  6  1  0  0  0  0
 12 13  1  0  0  0  0
 14 12  2  0  0  0  0
 15 14  1  0  0  0  0
 16 15  2  0  0  0  0
 17 16  1  0  0  0  0
 18 17  1  0  0  0  0
 19 17  2  0  0  0  0
 19 20  1  0  0  0  0
 20 21  2  0  0  0  0
 21 15  1  0  0  0  0
 21 22  1  0  0  0  0
 22 11  2  0  0  0  0
 23 31  1  0  0  0  0
 24 23  1  0  0  0  0
 24 29  1  0  0  0  0
 25 24  2  0  0  0  0
 26 27  2  0  0  0  0
 26 25  1  0  0  0  0
 27 28  1  0  0  0  0
 28 23  2  0  0  0  0
 30 25  1  0  0  0  0
 31 34  1  0  0  0  0
 31 32  1  0  0  0  0
 33 31  1  0  0  0  0
M  END
>  <minimizedAffinity>
-6.13561296

$$$$

 OpenBabel03272505393D

 34 37  0  0  0  0  0  0  0  0999 V2000
   36.6340   26.4410   32.3790 C   0  0  0  0  0  0  0  0  0  0  0  0
   35.8610   27.3950   31.7440 C   0  0  0  0  0  0  0  0  0  0  0  0
   35.6070   28.6110   32.3380 C   0  0  0  0  0  0  0  0  0  0  0  0
   36.1060   28.9450   33.5930 C   0  0  0  0  0  0  0  0  0  0  0  0
   36.8770   28.0000   34.2340 C   0  0  0  0  0  0  0  0  0  0  0  0
   37.1140   26.7950   33.6170 C   0  0  0  0  0  0  0  0  0  0  0  0
   35.4610   27.1560   30.7650 H   0  0  0  0  0  0  0  0  0  0  0  0
   34.9860   29.3290   31.7840 H   0  0  0  0  0  0  0  0  0  0  0  0
   35.8310   29.9360   33.9430 H   0  0  0  0  0  0  0  0  0  0  0  0
   37.2530   28.2830   35.2060 H   0  0  0  0  0  0  0  0  0  0  0  0
   37.9270   25.8920   34.4140 C   0  0  0  0  0  0  0  0  0  0  0  0
   39.1780   25.4810   33.9370 C   0  0  0  0  0  0  0  0  0  0  0  0
   39.5160   25.8470   32.9730 H   0  0  0  0  0  0  0  0  0  0  0  0
   39.9510   24.6260   34.6920 C   0  0  0  0  0  3  0  0  0  0  0  0
   39.5420   24.1490   35.9200 C   0  0  0  0  0  0  0  0  0  0  0  0
   40.3750   23.3200   36.5700 N   0  0  0  0  0  0  0  0  0  0  0  0
   40.0480   22.8170   37.7650 C   0  0  0  0  0  0  0  0  0  0  0  0
   40.5820   22.1470   38.4300 H   0  0  0  0  0  0  0  0  0  0  0  0
   38.8100   23.2010   38.2790 C   0  0  0  0  0  3  0  0  0  0  0  0
   37.9470   24.0450   37.6260 C   0  0  0  0  0  3  0  0  0  0  0  0
   38.3170   24.5540   36.3810 C   0  0  0  0  0  0  0  0  0  0  0  0
   37.5150   25.4180   35.6370 C   0  0  0  0  0  3  0  0  0  0  0  0
   38.1750   23.8280   30.3250 C   0  0  0  0  0  0  0  0  0  0  0  0
   37.3700   22.7250   30.5830 C   0  0  0  0  0  0  0  0  0  0  0  0
   36.2960   22.8860   31.4630 C   0  0  0  0  0  0  0  0  0  0  0  0
   36.1190   24.1150   32.0050 N   0  0  0  0  0  0  0  0  0  0  0  0
   36.9030   25.1660   31.7480 C   0  0  0  0  0  0  0  0  0  0  0  0
   37.9360   25.0210   30.9040 N   0  0  0  0  0  0  0  0  0  0  0  0
   37.5900   21.7700   30.1000 H   0  0  0  0  0  0  0  0  0  0  0  0
   35.6470   22.0370   31.6840 H   0  0  0  0  0  0  0  0  0  0  0  0
   39.3360   23.6670   29.3750 C   0  0  0  0  0  0  0  0  0  0  0  0
   39.3770   22.3710   28.8890 F   0  0  0  0  0  0  0  0  0  0  0  0
   39.1970   24.5970   28.3930 F   0  0  0  0  0  0  0  0  0  0  0  0
   40.4940   23.8570   30.1080 F   0  0  0  0  0  0  0  0  0  0  0  0
  1  6  1  0  0  0  0
  2  3  1  0  0  0  0
  2  1  2  0  0  0  0
  3  4  2  0  0  0  0
  4  9  1  0  0  0  0
  4  5  1  0  0  0  0
  5 10  1  0  0  0  0
  6  5  2  0  0  0  0
  6 11  1  0  0  0  0
  7  2  1  0  0  0  0
  8  3  1  0  0  0  0
 11 22  1  0  0  0  0
 12 11  2  0  0  0  0
 12 14  1  0  0  0  0
 13 12  1  0  0  0  0
 14 15  2  0  0  0  0
 15 21  1  0  0  0  0
 15 16  1  0  0  0  0
 16 17  2  0  0  0  0
 17 19  1  0  0  0  0
 17 18  1  0  0  0  0
 20 19  2  0  0  0  0
 21 20  1  0  0  0  0
 22 21  2  0  0  0  0
 23 24  2  0  0  0  0
 23 28  1  0  0  0  0
 24 25  1  0  0  0  0
 25 30  1  0  0  0  0
 25 26  2  0  0  0  0
 27 26  1  0  0  0  0
 27  1  1  0  0  0  0
 28 27  2  0  0  0  0
 29 24  1  0  0  0  0
 31 34  1  0  0  0  0
 31 23  1  0  0  0  0
 32 31  1  0  0  0  0
 33 31  1  0  0  0  0
M  END
>  <minimizedAffinity>
-6.05322361

$$$$
