
 OpenBabel03272503133D

 49 54  0  0  0  0  0  0  0  0999 V2000
   39.1800   32.1820   42.5660 C   0  0  0  0  0  0  0  0  0  0  0  0
   39.7190   31.4730   43.6260 C   0  0  0  0  0  0  0  0  0  0  0  0
   40.6070   30.4570   43.4660 C   0  0  0  0  0  0  0  0  0  0  0  0
   41.0140   30.0880   42.1880 C   0  0  0  0  0  0  0  0  0  0  0  0
   41.8520   29.1550   41.7420 N   0  0  0  0  0  0  0  0  0  0  0  0
   41.8660   29.2450   40.4060 C   0  0  0  0  0  0  0  0  0  0  0  0
   41.0400   30.2330   40.0190 N   0  0  0  0  0  0  0  0  0  0  0  0
   40.4790   30.7930   41.1240 C   0  0  0  0  0  0  0  0  0  0  0  0
   39.5730   31.8310   41.2660 C   0  0  0  0  0  0  0  0  0  0  0  0
   38.4840   32.9780   42.6920 H   0  0  0  0  0  0  0  0  0  0  0  0
   41.0100   29.9230   44.3100 H   0  0  0  0  0  0  0  0  0  0  0  0
   42.4170   28.4580   42.2800 H   0  0  0  0  0  0  0  0  0  0  0  0
   42.3800   28.7110   39.6390 H   0  0  0  0  0  0  0  0  0  0  0  0
   39.2640   31.8950   44.9370 C   0  0  0  0  0  0  0  0  0  0  0  0
   38.1800   32.5500   45.0590 O   0  0  0  0  0  0  0  0  0  0  0  0
   39.9620   31.6230   46.1580 N   0  0  0  0  0  0  0  0  0  0  0  0
   40.8370   31.0950   46.1090 H   0  0  0  0  0  0  0  0  0  0  0  0
   38.1280   30.1430   47.5020 F   0  0  0  0  0  0  0  0  0  0  0  0
   38.3880   31.3990   47.9850 C   0  0  0  0  0  0  0  0  0  0  0  0
   37.7230   31.8350   49.0970 C   0  0  0  0  0  0  0  0  0  0  0  0
   38.0250   33.0950   49.5310 C   0  0  0  0  0  0  0  0  0  0  0  0
   38.9410   33.8990   48.9030 C   0  0  0  0  0  0  0  0  0  0  0  0
   39.6040   33.4320   47.7730 C   0  0  0  0  0  0  0  0  0  0  0  0
   39.3070   32.1530   47.3190 C   0  0  0  0  0  0  0  0  0  0  0  0
   37.5060   33.4640   50.4190 H   0  0  0  0  0  0  0  0  0  0  0  0
   39.1860   34.8850   49.2290 H   0  0  0  0  0  0  0  0  0  0  0  0
   40.3450   33.9680   47.1880 H   0  0  0  0  0  0  0  0  0  0  0  0
   36.0820   29.3670   51.4500 C   0  0  0  0  0  0  0  0  0  0  0  0
   37.0530   30.2210   50.8670 C   0  0  0  0  0  0  0  0  0  0  0  0
   36.7580   30.9450   49.7320 C   0  0  0  0  0  0  0  0  0  0  0  0
   35.4940   30.7950   49.2030 N   0  0  0  0  0  0  0  0  0  0  0  0
   34.5840   29.9810   49.7680 C   0  0  0  0  0  0  0  0  0  0  0  0
   34.8730   29.2860   50.8650 N   0  0  0  0  0  0  0  0  0  0  0  0
   36.3050   28.7970   52.3400 H   0  0  0  0  0  0  0  0  0  0  0  0
   38.0370   30.3120   51.3120 H   0  0  0  0  0  0  0  0  0  0  0  0
   33.6570   30.0070   49.2020 H   0  0  0  0  0  0  0  0  0  0  0  0
   39.0460   32.5260   40.2010 O   0  0  0  0  0  0  0  0  0  0  0  0
   37.7660   32.9760   40.0570 C   0  0  0  0  0  0  0  0  0  0  0  0
   37.5210   34.1170   39.2910 C   0  0  0  0  0  0  0  0  0  0  0  0
   38.3520   34.6470   38.8080 H   0  0  0  0  0  0  0  0  0  0  0  0
   36.2540   34.6130   39.1130 C   0  0  0  0  0  3  0  0  0  0  0  0
   35.1550   34.0050   39.6870 C   0  0  0  0  0  0  0  0  0  0  0  0
   33.9020   34.4490   39.5450 N   0  0  0  0  0  0  0  0  0  0  0  0
   32.8400   33.8530   40.1050 C   0  0  0  0  0  0  0  0  0  0  0  0
   31.8170   34.2220   39.9830 H   0  0  0  0  0  0  0  0  0  0  0  0
   32.9890   32.7080   40.8860 C   0  0  0  0  0  3  0  0  0  0  0  0
   34.2790   32.2300   41.0490 C   0  0  0  0  0  3  0  0  0  0  0  0
   35.3530   32.8590   40.4640 C   0  0  0  0  0  0  0  0  0  0  0  0
   36.6560   32.4060   40.6050 C   0  0  0  0  0  3  0  0  0  0  0  0
  1 10  1  0  0  0  0
  1  2  1  0  0  0  0
  2 14  1  0  0  0  0
  3  2  2  0  0  0  0
  3 11  1  0  0  0  0
  4  3  1  0  0  0  0
  5  4  1  0  0  0  0
  5 12  1  0  0  0  0
  6  5  1  0  0  0  0
  7  6  2  0  0  0  0
  7  8  1  0  0  0  0
  8  9  1  0  0  0  0
  8  4  2  0  0  0  0
  9  1  2  0  0  0  0
 13  6  1  0  0  0  0
 14 15  2  0  0  0  0
 14 16  1  0  0  0  0
 16 24  1  0  0  0  0
 17 16  1  0  0  0  0
 18 19  1  0  0  0  0
 19 20  1  0  0  0  0
 20 21  2  0  0  0  0
 20 30  1  0  0  0  0
 21 25  1  0  0  0  0
 22 26  1  0  0  0  0
 22 21  1  0  0  0  0
 23 22  2  0  0  0  0
 24 23  1  0  0  0  0
 24 19  2  0  0  0  0
 27 23  1  0  0  0  0
 28 34  1  0  0  0  0
 29 35  1  0  0  0  0
 29 28  1  0  0  0  0
 30 29  2  0  0  0  0
 31 30  1  0  0  0  0
 31 32  2  0  0  0  0
 32 33  1  0  0  0  0
 33 28  2  0  0  0  0
 36 32  1  0  0  0  0
 37  9  1  0  0  0  0
 38 37  1  0  0  0  0
 38 49  1  0  0  0  0
 39 38  2  0  0  0  0
 40 39  1  0  0  0  0
 41 39  1  0  0  0  0
 41 42  2  0  0  0  0
 42 48  1  0  0  0  0
 43 42  1  0  0  0  0
 43 44  2  0  0  0  0
 44 46  1  0  0  0  0
 45 44  1  0  0  0  0
 46 47  2  0  0  0  0
 48 49  2  0  0  0  0
 48 47  1  0  0  0  0
M  END
>  <minimizedAffinity>
-7.68717718

>  <minimizedRMSD>
2.5705409

$$$$
