
     RDKit          3D

 52 55  0  0  0  0  0  0  0  0999 V2000
   37.4299   31.3148   45.3846 C   0  0  2  0  0  0  0  0  0  0  0  0
   38.3485   30.8300   44.3635 C   0  0  0  0  0  0  0  0  0  0  0  0
   39.6647   30.3117   44.9455 C   0  0  0  0  0  0  0  0  0  0  0  0
   40.3692   31.3398   45.7635 C   0  0  0  0  0  0  0  0  0  0  0  0
   39.4468   32.2236   46.5729 C   0  0  0  0  0  0  0  0  0  0  0  0
   38.0738   31.5801   46.7213 C   0  0  2  0  0  0  0  0  0  0  0  0
   36.2502   30.4825   45.6326 C   0  0  0  0  0  0  0  0  0  0  0  0
   35.8694   29.6856   44.5476 C   0  0  0  0  0  0  0  0  0  0  0  0
   34.7644   28.8668   44.7301 C   0  0  0  0  0  0  0  0  0  0  0  0
   34.1134   28.8753   45.9294 N   0  0  0  0  0  0  0  0  0  0  0  0
   34.5131   29.6585   46.9469 C   0  0  0  0  0  0  0  0  0  0  0  0
   35.5500   30.4189   46.7598 N   0  0  0  0  0  0  0  0  0  0  0  0
   38.2264   30.5263   47.6209 N   0  0  0  0  0  0  0  0  0  0  0  0
   37.6513   30.7509   49.2027 S   0  0  1  0  0  0  0  0  0  0  0  0
   38.8983   30.9745   50.0570 O   0  0  0  0  0  0  0  0  0  0  0  0
   36.7716   31.9218   49.3524 O   0  0  0  0  0  0  0  0  0  0  0  0
   36.9198   29.3766   49.8244 O   0  0  0  0  0  0  0  0  0  0  0  0
   36.7890   29.4153   51.2012 C   0  0  0  0  0  0  0  0  0  0  0  0
   37.7539   28.6371   51.7819 F   0  0  0  0  0  0  0  0  0  0  0  0
   37.0265   30.7125   51.6006 F   0  0  0  0  0  0  0  0  0  0  0  0
   35.5087   29.1036   51.6440 F   0  0  0  0  0  0  0  0  0  0  0  0
   37.0073   32.3059   45.0356 H   0  0  0  0  0  0  0  0  0  0  0  0
   38.6939   31.6753   43.6846 H   0  0  0  0  0  0  0  0  0  0  0  0
   38.0379   30.0466   43.6657 H   0  0  0  0  0  0  0  0  0  0  0  0
   39.5157   29.3395   45.4148 H   0  0  0  0  0  0  0  0  0  0  0  0
   40.3000   30.1201   44.0331 H   0  0  0  0  0  0  0  0  0  0  0  0
   40.9863   31.9896   45.0907 H   0  0  0  0  0  0  0  0  0  0  0  0
   41.1092   30.8104   46.3994 H   0  0  0  0  0  0  0  0  0  0  0  0
   39.3907   33.2182   46.1227 H   0  0  0  0  0  0  0  0  0  0  0  0
   39.8687   32.2644   47.6124 H   0  0  0  0  0  0  0  0  0  0  0  0
   37.4437   32.3538   47.2269 H   0  0  0  0  0  0  0  0  0  0  0  0
   36.2194   29.5343   43.5487 H   0  0  0  0  0  0  0  0  0  0  0  0
   34.3033   28.1877   44.0557 H   0  0  0  0  0  0  0  0  0  0  0  0
   34.0378   29.7059   47.9128 H   0  0  0  0  0  0  0  0  0  0  0  0
   39.1509   30.0754   47.6704 H   0  0  0  0  0  0  0  0  0  0  0  0
   39.7683   30.5336   49.8272 H   0  0  0  0  0  0  0  0  0  0  0  0
   35.9854   32.7154   50.1084 C   0  0  0  0  0  0  0  0  0  0  0  0
   36.3846   33.1232   51.3629 C   0  0  0  0  0  0  0  0  0  0  0  0
   37.3403   32.7900   51.7199 H   0  0  0  0  0  0  0  0  0  0  0  0
   35.6075   33.9303   52.1562 C   0  0  0  0  0  0  0  0  0  0  0  0
   34.3893   34.3185   51.6273 C   0  0  0  0  0  0  0  0  0  0  0  0
   33.6189   35.1103   52.3968 N   0  0  0  0  0  0  0  0  0  0  0  0
   32.4100   35.5241   51.9296 C   0  0  0  0  0  0  0  0  0  0  0  0
   31.8020   36.1631   52.5654 H   0  0  0  0  0  0  0  0  0  0  0  0
   31.8982   35.1848   50.6922 C   0  0  0  0  0  0  0  0  0  0  0  0
   32.7190   34.3659   49.9222 C   0  0  0  0  0  0  0  0  0  0  0  0
   33.9491   33.9322   50.3720 C   0  0  0  0  0  0  0  0  0  0  0  0
   34.7649   33.1161   49.6024 C   0  0  0  0  0  0  0  0  0  0  0  0
   35.9580   34.2275   53.1344 H   0  0  0  0  0  0  0  0  0  0  0  0
   30.9297   35.5404   50.3667 H   0  0  0  0  0  0  0  0  0  0  0  0
   32.3771   34.0656   48.9467 H   0  0  0  0  0  0  0  0  0  0  0  0
   34.3969   32.8324   48.6322 H   0  0  0  0  0  0  0  0  0  0  0  0
  1  7  1  0
  1  6  1  0
  2  3  1  0
  2  1  1  0
  3  4  1  0
  4  5  1  0
  5  6  1  0
  6 13  1  0
  7 12  2  0
  8  9  2  0
  8  7  1  0
  9 10  1  0
 10 11  2  0
 12 11  1  0
 13 14  1  0
 14 16  1  6
 14 17  1  0
 14 15  1  0
 17 18  1  0
 18 20  1  0
 18 21  1  0
 18 19  1  0
  1 22  1  6
  2 23  1  0
  2 24  1  0
  3 25  1  0
  3 26  1  0
  4 27  1  0
  4 28  1  0
  5 29  1  0
  5 30  1  0
  6 31  1  1
  8 32  1  0
  9 33  1  0
 11 34  1  0
 13 35  1  0
 15 36  1  0
 37 38  2  0
 38 39  1  0
 38 40  1  0
 40 41  2  0
 41 42  1  0
 42 43  2  0
 43 44  1  0
 43 45  1  0
 45 46  2  0
 46 47  1  0
 47 48  2  0
 48 37  1  0
 47 41  1  0
 40 49  1  0
 45 50  1  0
 46 51  1  0
 48 52  1  0
 16 37  1  0
M  ISO  8  22  13  23  13  24  13  25  13  26  13  27  13  28  13  29  13
M  ISO  8  30  13  31  13  32  14  33  14  34  14  35   5  36   3  39  16
M  ISO  1  44  16
M  END
>  <DihAtoms>  (1) 
13,15,36,37

>  <DihDeg>  (1) 
-89.99417900582424

$$$$
