
 OpenBabel03272510023D

 24 26  0  0  0  0  0  0  0  0999 V2000
   38.3180   31.7720   50.0990 C   0  0  0  0  0  0  0  0  0  0  0  0
   38.6850   31.8850   48.7490 C   0  0  0  0  0  0  0  0  0  0  0  0
   37.9450   31.1820   47.8110 C   0  0  0  0  0  0  0  0  0  0  0  0
   36.9120   30.4240   48.2510 N   0  0  0  0  0  0  0  0  0  0  0  0
   36.5800   30.3340   49.5610 C   0  0  0  0  0  0  0  0  0  0  0  0
   37.2790   31.0030   50.4840 N   0  0  0  0  0  0  0  0  0  0  0  0
   38.9110   32.3280   50.7900 H   0  0  0  0  0  0  0  0  0  0  0  0
   39.5140   32.4950   48.4180 H   0  0  0  0  0  0  0  0  0  0  0  0
   38.2060   31.2030   46.3990 C   0  0  0  0  0  0  0  0  0  0  0  0
   38.1560   32.4020   45.7330 C   0  0  0  0  0  0  0  0  0  0  0  0
   37.9270   33.3290   46.2370 H   0  0  0  0  0  0  0  0  0  0  0  0
   38.3910   32.5360   44.3700 C   0  0  0  0  0  3  0  0  0  0  0  0
   38.6940   31.3720   43.6560 C   0  0  0  0  0  0  0  0  0  0  0  0
   38.9190   31.5310   42.3290 N   0  0  0  0  0  0  0  0  0  0  0  0
   39.2150   30.4060   41.6200 C   0  0  0  0  0  0  0  0  0  0  0  0
   39.4220   30.3570   40.5480 H   0  0  0  0  0  0  0  0  0  0  0  0
   39.2810   29.1620   42.2260 C   0  0  0  0  0  3  0  0  0  0  0  0
   39.0500   29.0140   43.5800 C   0  0  0  0  0  3  0  0  0  0  0  0
   38.7520   30.1600   44.2870 C   0  0  0  0  0  0  0  0  0  0  0  0
   38.5090   30.0930   45.6420 C   0  0  0  0  0  3  0  0  0  0  0  0
   35.4300   29.4720   49.9120 C   0  0  0  0  0  0  0  0  0  0  0  0
   35.4370   29.1030   51.2490 F   0  0  0  0  0  0  0  0  0  0  0  0
   34.2180   30.1050   49.6940 F   0  0  0  0  0  0  0  0  0  0  0  0
   35.3910   28.2920   49.1910 F   0  0  0  0  0  0  0  0  0  0  0  0
  1  6  1  0  0  0  0
  1  7  1  0  0  0  0
  2  1  2  0  0  0  0
  3  4  2  0  0  0  0
  3  2  1  0  0  0  0
  4  5  1  0  0  0  0
  5 21  1  0  0  0  0
  5  6  2  0  0  0  0
  8  2  1  0  0  0  0
  9  3  1  0  0  0  0
 10 11  1  0  0  0  0
 10  9  1  0  0  0  0
 12 10  2  0  0  0  0
 13 19  1  0  0  0  0
 13 12  1  0  0  0  0
 14 13  2  0  0  0  0
 15 17  2  0  0  0  0
 15 14  1  0  0  0  0
 16 15  1  0  0  0  0
 17 18  1  0  0  0  0
 18 19  2  0  0  0  0
 19 20  1  0  0  0  0
 20  9  2  0  0  0  0
 21 22  1  0  0  0  0
 23 21  1  0  0  0  0
 24 21  1  0  0  0  0
M  END
>  <minimizedAffinity>
-5.74933481

>  <minimizedRMSD>
1.54174864

$$$$
