
 OpenBabel03272503133D

 49 54  0  0  0  0  0  0  0  0999 V2000
   39.1950   32.2280   42.5790 C   0  0  0  0  0  0  0  0  0  0  0  0
   39.7160   31.4980   43.6350 C   0  0  0  0  0  0  0  0  0  0  0  0
   40.5870   30.4690   43.4690 C   0  0  0  0  0  0  0  0  0  0  0  0
   40.9960   30.1070   42.1900 C   0  0  0  0  0  0  0  0  0  0  0  0
   41.8210   29.1650   41.7380 N   0  0  0  0  0  0  0  0  0  0  0  0
   41.8450   29.2700   40.4040 C   0  0  0  0  0  0  0  0  0  0  0  0
   41.0380   30.2750   40.0220 N   0  0  0  0  0  0  0  0  0  0  0  0
   40.4790   30.8330   41.1310 C   0  0  0  0  0  0  0  0  0  0  0  0
   39.5900   31.8840   41.2780 C   0  0  0  0  0  0  0  0  0  0  0  0
   38.5120   33.0340   42.7100 H   0  0  0  0  0  0  0  0  0  0  0  0
   40.9760   29.9190   44.3090 H   0  0  0  0  0  0  0  0  0  0  0  0
   42.3710   28.4530   42.2720 H   0  0  0  0  0  0  0  0  0  0  0  0
   42.3550   28.7350   39.6330 H   0  0  0  0  0  0  0  0  0  0  0  0
   39.2590   31.9130   44.9480 C   0  0  0  0  0  0  0  0  0  0  0  0
   38.1740   32.5660   45.0730 O   0  0  0  0  0  0  0  0  0  0  0  0
   39.9580   31.6370   46.1670 N   0  0  0  0  0  0  0  0  0  0  0  0
   40.8340   31.1110   46.1170 H   0  0  0  0  0  0  0  0  0  0  0  0
   38.1240   30.1490   47.5020 F   0  0  0  0  0  0  0  0  0  0  0  0
   38.3830   31.4030   47.9920 C   0  0  0  0  0  0  0  0  0  0  0  0
   37.7160   31.8310   49.1060 C   0  0  0  0  0  0  0  0  0  0  0  0
   38.0170   33.0890   49.5470 C   0  0  0  0  0  0  0  0  0  0  0  0
   38.9330   33.8970   48.9240 C   0  0  0  0  0  0  0  0  0  0  0  0
   39.5970   33.4370   47.7920 C   0  0  0  0  0  0  0  0  0  0  0  0
   39.3020   32.1610   47.3310 C   0  0  0  0  0  0  0  0  0  0  0  0
   37.4970   33.4540   50.4370 H   0  0  0  0  0  0  0  0  0  0  0  0
   39.1780   34.8810   49.2560 H   0  0  0  0  0  0  0  0  0  0  0  0
   40.3390   33.9760   47.2110 H   0  0  0  0  0  0  0  0  0  0  0  0
   36.0730   29.3550   51.4470 C   0  0  0  0  0  0  0  0  0  0  0  0
   37.0440   30.2120   50.8700 C   0  0  0  0  0  0  0  0  0  0  0  0
   36.7510   30.9370   49.7360 C   0  0  0  0  0  0  0  0  0  0  0  0
   35.4900   30.7860   49.2010 N   0  0  0  0  0  0  0  0  0  0  0  0
   34.5800   29.9680   49.7610 C   0  0  0  0  0  0  0  0  0  0  0  0
   34.8670   29.2710   50.8570 N   0  0  0  0  0  0  0  0  0  0  0  0
   36.2940   28.7830   52.3380 H   0  0  0  0  0  0  0  0  0  0  0  0
   38.0250   30.3050   51.3190 H   0  0  0  0  0  0  0  0  0  0  0  0
   33.6550   29.9920   49.1910 H   0  0  0  0  0  0  0  0  0  0  0  0
   39.0810   32.6000   40.2180 O   0  0  0  0  0  0  0  0  0  0  0  0
   38.0820   32.2240   39.3690 C   0  0  0  0  0  0  0  0  0  0  0  0
   36.9730   31.5450   39.8730 C   0  0  0  0  0  0  0  0  0  0  0  0
   36.9060   31.3130   40.9450 H   0  0  0  0  0  0  0  0  0  0  0  0
   35.9380   31.1420   39.0660 C   0  0  0  0  0  3  0  0  0  0  0  0
   35.9460   31.3940   37.7080 C   0  0  0  0  0  0  0  0  0  0  0  0
   34.9650   31.0240   36.8790 N   0  0  0  0  0  0  0  0  0  0  0  0
   34.9790   31.2710   35.5610 C   0  0  0  0  0  0  0  0  0  0  0  0
   34.1710   30.9650   34.8900 H   0  0  0  0  0  0  0  0  0  0  0  0
   36.0450   31.9450   34.9690 C   0  0  0  0  0  3  0  0  0  0  0  0
   37.0750   32.3380   35.8100 C   0  0  0  0  0  3  0  0  0  0  0  0
   37.0380   32.0730   37.1580 C   0  0  0  0  0  0  0  0  0  0  0  0
   38.0510   32.4530   38.0260 C   0  0  0  0  0  3  0  0  0  0  0  0
  1 10  1  0  0  0  0
  1  2  1  0  0  0  0
  2 14  1  0  0  0  0
  3  2  2  0  0  0  0
  3 11  1  0  0  0  0
  4  3  1  0  0  0  0
  5  4  1  0  0  0  0
  5 12  1  0  0  0  0
  6  5  1  0  0  0  0
  7  6  2  0  0  0  0
  7  8  1  0  0  0  0
  8  9  1  0  0  0  0
  8  4  2  0  0  0  0
  9  1  2  0  0  0  0
 13  6  1  0  0  0  0
 14 15  2  0  0  0  0
 14 16  1  0  0  0  0
 16 24  1  0  0  0  0
 17 16  1  0  0  0  0
 18 19  1  0  0  0  0
 19 20  1  0  0  0  0
 20 21  2  0  0  0  0
 20 30  1  0  0  0  0
 21 25  1  0  0  0  0
 22 26  1  0  0  0  0
 22 21  1  0  0  0  0
 23 22  2  0  0  0  0
 24 23  1  0  0  0  0
 24 19  2  0  0  0  0
 27 23  1  0  0  0  0
 28 34  1  0  0  0  0
 29 35  1  0  0  0  0
 29 28  1  0  0  0  0
 30 29  2  0  0  0  0
 31 30  1  0  0  0  0
 31 32  2  0  0  0  0
 32 33  1  0  0  0  0
 33 28  2  0  0  0  0
 36 32  1  0  0  0  0
 37  9  1  0  0  0  0
 38 39  1  0  0  0  0
 38 37  1  0  0  0  0
 39 40  1  0  0  0  0
 41 39  2  0  0  0  0
 42 41  1  0  0  0  0
 43 42  2  0  0  0  0
 44 43  1  0  0  0  0
 45 44  1  0  0  0  0
 46 44  2  0  0  0  0
 46 47  1  0  0  0  0
 47 48  2  0  0  0  0
 48 42  1  0  0  0  0
 48 49  1  0  0  0  0
 49 38  2  0  0  0  0
M  END
>  <minimizedAffinity>
-7.00519753

>  <minimizedRMSD>
0.512203634

$$$$
