
 OpenBabel03272510023D

 24 26  0  0  0  0  0  0  0  0999 V2000
   37.8670   33.1430   49.6250 C   0  0  0  0  0  0  0  0  0  0  0  0
   38.5710   32.9370   48.4280 C   0  0  0  0  0  0  0  0  0  0  0  0
   38.2890   31.7950   47.6950 C   0  0  0  0  0  0  0  0  0  0  0  0
   37.3530   30.9420   48.1750 N   0  0  0  0  0  0  0  0  0  0  0  0
   36.6890   31.1670   49.3340 C   0  0  0  0  0  0  0  0  0  0  0  0
   36.9430   32.2620   50.0590 N   0  0  0  0  0  0  0  0  0  0  0  0
   38.1110   34.0330   50.1600 H   0  0  0  0  0  0  0  0  0  0  0  0
   39.3160   33.6300   48.0610 H   0  0  0  0  0  0  0  0  0  0  0  0
   38.9310   31.4550   46.4550 C   0  0  0  0  0  0  0  0  0  0  0  0
   39.9370   32.2620   45.9860 C   0  0  0  0  0  0  0  0  0  0  0  0
   40.2610   33.1430   46.5190 H   0  0  0  0  0  0  0  0  0  0  0  0
   40.6220   32.0250   44.8000 C   0  0  0  0  0  3  0  0  0  0  0  0
   40.2510   30.8990   44.0610 C   0  0  0  0  0  0  0  0  0  0  0  0
   40.9360   30.6930   42.9080 N   0  0  0  0  0  0  0  0  0  0  0  0
   40.5850   29.5990   42.1760 C   0  0  0  0  0  0  0  0  0  0  0  0
   41.0330   29.2880   41.2290 H   0  0  0  0  0  0  0  0  0  0  0  0
   39.5780   28.7410   42.5890 C   0  0  0  0  0  3  0  0  0  0  0  0
   38.8890   28.9630   43.7650 C   0  0  0  0  0  3  0  0  0  0  0  0
   39.2530   30.0730   44.4970 C   0  0  0  0  0  0  0  0  0  0  0  0
   38.6100   30.3610   45.6820 C   0  0  0  0  0  3  0  0  0  0  0  0
   35.6900   30.1590   49.7510 C   0  0  0  0  0  0  0  0  0  0  0  0
   35.8990   29.7150   51.0480 F   0  0  0  0  0  0  0  0  0  0  0  0
   34.3990   30.6600   49.7200 F   0  0  0  0  0  0  0  0  0  0  0  0
   35.6910   29.0280   48.9550 F   0  0  0  0  0  0  0  0  0  0  0  0
  1  6  1  0  0  0  0
  1  7  1  0  0  0  0
  2  1  2  0  0  0  0
  3  4  2  0  0  0  0
  3  2  1  0  0  0  0
  4  5  1  0  0  0  0
  5 21  1  0  0  0  0
  5  6  2  0  0  0  0
  8  2  1  0  0  0  0
  9  3  1  0  0  0  0
 10  9  1  0  0  0  0
 10 11  1  0  0  0  0
 12 10  2  0  0  0  0
 13 19  1  0  0  0  0
 13 12  1  0  0  0  0
 14 13  2  0  0  0  0
 15 17  2  0  0  0  0
 15 14  1  0  0  0  0
 16 15  1  0  0  0  0
 17 18  1  0  0  0  0
 18 19  2  0  0  0  0
 19 20  1  0  0  0  0
 20  9  2  0  0  0  0
 21 22  1  0  0  0  0
 23 21  1  0  0  0  0
 24 21  1  0  0  0  0
M  END
>  <minimizedAffinity>
-6.63915634

>  <minimizedRMSD>
2.54537559

$$$$
