
 OpenBabel03272509013D

 34 37  0  0  0  0  0  0  0  0999 V2000
   38.8500   31.9240   48.4190 Cl  0  0  0  0  0  0  0  0  0  0  0  0
   37.4140   31.1000   47.9110 C   0  0  0  0  0  0  0  0  0  0  0  0
   37.2170   30.8740   46.5630 C   0  0  0  0  0  0  0  0  0  0  0  0
   36.0940   30.2290   46.1020 C   0  0  0  0  0  0  0  0  0  0  0  0
   35.1310   29.7890   46.9760 C   0  0  0  0  0  0  0  0  0  0  0  0
   35.3010   30.0030   48.3340 C   0  0  0  0  0  0  0  0  0  0  0  0
   34.1270   29.4960   49.5340 Cl  0  0  0  0  0  0  0  0  0  0  0  0
   36.4570   30.6630   48.7630 C   0  0  0  0  0  0  0  0  0  0  0  0
   35.8830   30.0220   45.0600 H   0  0  0  0  0  0  0  0  0  0  0  0
   34.2260   29.2770   46.6830 H   0  0  0  0  0  0  0  0  0  0  0  0
   39.0320   32.9480   44.1380 C   0  0  0  0  0  0  0  0  0  0  0  0
   40.1250   32.1400   43.7870 C   0  0  0  0  0  0  0  0  0  0  0  0
   40.2140   30.8720   44.4090 C   0  0  0  0  0  0  0  0  0  0  0  0
   39.2450   30.5280   45.2940 N   0  0  0  0  0  0  0  0  0  0  0  0
   38.2100   31.3230   45.6100 C   0  0  0  0  0  0  0  0  0  0  0  0
   38.1280   32.5290   45.0160 N   0  0  0  0  0  0  0  0  0  0  0  0
   39.0220   33.9040   43.6270 H   0  0  0  0  0  0  0  0  0  0  0  0
   40.9230   32.3610   43.0920 H   0  0  0  0  0  0  0  0  0  0  0  0
   40.9860   30.1310   44.2540 H   0  0  0  0  0  0  0  0  0  0  0  0
   36.6240   30.9140   50.2170 C   0  0  0  0  0  0  0  0  0  0  0  0
   37.1670   31.9000   50.2740 H   0  0  0  0  0  0  0  0  0  0  0  0
   35.6080   31.1770   50.6410 H   0  0  0  0  0  0  0  0  0  0  0  0
   37.2920   29.8680   50.9830 C   0  0  0  0  0  0  0  0  0  0  0  0
   37.4390   29.9510   52.3520 C   0  0  0  0  0  0  0  0  0  0  0  0
   37.0620   30.7750   52.9420 H   0  0  0  0  0  0  0  0  0  0  0  0
   38.0740   29.0170   53.1460 C   0  0  0  0  0  3  0  0  0  0  0  0
   38.6180   27.8950   52.5580 C   0  0  0  0  0  0  0  0  0  0  0  0
   39.2460   26.9580   53.2900 N   0  0  0  0  0  0  0  0  0  0  0  0
   39.7830   25.8570   52.7340 C   0  0  0  0  0  0  0  0  0  0  0  0
   40.2860   25.1100   53.3340 H   0  0  0  0  0  0  0  0  0  0  0  0
   39.6990   25.6610   51.3650 C   0  0  0  0  0  3  0  0  0  0  0  0
   39.0550   26.6220   50.6140 C   0  0  0  0  0  3  0  0  0  0  0  0
   38.5090   27.7430   51.1920 C   0  0  0  0  0  0  0  0  0  0  0  0
   37.8640   28.7170   50.4790 C   0  0  0  0  0  3  0  0  0  0  0  0
  2  1  1  0  0  0  0
  2  8  1  0  0  0  0
  3  2  2  0  0  0  0
  4  3  1  0  0  0  0
  4  5  2  0  0  0  0
  5  6  1  0  0  0  0
  6  8  2  0  0  0  0
  6  7  1  0  0  0  0
  8 20  1  0  0  0  0
  9  4  1  0  0  0  0
 10  5  1  0  0  0  0
 11 16  1  0  0  0  0
 12 11  2  0  0  0  0
 12 13  1  0  0  0  0
 13 14  2  0  0  0  0
 14 15  1  0  0  0  0
 15  3  1  0  0  0  0
 16 15  2  0  0  0  0
 17 11  1  0  0  0  0
 18 12  1  0  0  0  0
 19 13  1  0  0  0  0
 20 21  1  0  0  0  0
 20 22  1  0  0  0  0
 20 23  1  0  0  0  0
 23 24  1  0  0  0  0
 24 25  1  0  0  0  0
 24 26  2  0  0  0  0
 27 26  1  0  0  0  0
 27 28  1  0  0  0  0
 29 28  2  0  0  0  0
 29 30  1  0  0  0  0
 31 29  1  0  0  0  0
 32 33  1  0  0  0  0
 32 31  2  0  0  0  0
 33 27  2  0  0  0  0
 34 23  2  0  0  0  0
 34 33  1  0  0  0  0
M  END
>  <minimizedAffinity>
-1.53874373

>  <minimizedRMSD>
1.54068267

$$$$
