
 OpenBabel03272503143D

 49 54  0  0  0  0  0  0  0  0999 V2000
   36.3850   27.8350   34.4040 C   0  0  0  0  0  0  0  0  0  0  0  0
   37.4900   27.1160   33.9780 C   0  0  0  0  0  0  0  0  0  0  0  0
   38.0090   27.2240   32.7280 C   0  0  0  0  0  0  0  0  0  0  0  0
   37.4270   28.0900   31.8080 C   0  0  0  0  0  0  0  0  0  0  0  0
   37.7150   28.3920   30.5440 N   0  0  0  0  0  0  0  0  0  0  0  0
   36.8150   29.2970   30.1410 C   0  0  0  0  0  0  0  0  0  0  0  0
   35.9660   29.5600   31.1490 N   0  0  0  0  0  0  0  0  0  0  0  0
   36.3220   28.8110   32.2280 C   0  0  0  0  0  0  0  0  0  0  0  0
   35.7770   28.7150   33.4970 C   0  0  0  0  0  0  0  0  0  0  0  0
   35.9780   27.7500   35.3850 H   0  0  0  0  0  0  0  0  0  0  0  0
   38.8700   26.6530   32.4240 H   0  0  0  0  0  0  0  0  0  0  0  0
   38.4820   28.0270   29.9330 H   0  0  0  0  0  0  0  0  0  0  0  0
   36.6560   29.8160   29.2220 H   0  0  0  0  0  0  0  0  0  0  0  0
   38.0610   26.2280   34.9730 C   0  0  0  0  0  0  0  0  0  0  0  0
   38.8740   26.6770   35.8420 O   0  0  0  0  0  0  0  0  0  0  0  0
   37.7730   24.8280   35.0610 N   0  0  0  0  0  0  0  0  0  0  0  0
   37.1210   24.4230   34.3850 H   0  0  0  0  0  0  0  0  0  0  0  0
   40.2470   23.7890   34.6570 F   0  0  0  0  0  0  0  0  0  0  0  0
   39.7120   23.6520   35.9120 C   0  0  0  0  0  0  0  0  0  0  0  0
   40.4380   23.0120   36.8770 C   0  0  0  0  0  0  0  0  0  0  0  0
   39.8530   22.9070   38.1070 C   0  0  0  0  0  0  0  0  0  0  0  0
   38.6070   23.4070   38.3840 C   0  0  0  0  0  0  0  0  0  0  0  0
   37.8890   24.0550   37.3850 C   0  0  0  0  0  0  0  0  0  0  0  0
   38.4700   24.1690   36.1280 C   0  0  0  0  0  0  0  0  0  0  0  0
   40.4140   22.3980   38.8960 H   0  0  0  0  0  0  0  0  0  0  0  0
   38.1370   23.3320   39.3390 H   0  0  0  0  0  0  0  0  0  0  0  0
   36.8990   24.4920   37.4750 H   0  0  0  0  0  0  0  0  0  0  0  0
   44.1560   22.7330   36.2320 C   0  0  0  0  0  0  0  0  0  0  0  0
   42.8910   23.2790   36.5720 C   0  0  0  0  0  0  0  0  0  0  0  0
   41.7590   22.4950   36.5370 C   0  0  0  0  0  0  0  0  0  0  0  0
   41.9160   21.1790   36.1580 N   0  0  0  0  0  0  0  0  0  0  0  0
   43.1230   20.6760   35.8390 C   0  0  0  0  0  0  0  0  0  0  0  0
   44.2140   21.4370   35.8770 N   0  0  0  0  0  0  0  0  0  0  0  0
   45.0500   23.3400   36.2580 H   0  0  0  0  0  0  0  0  0  0  0  0
   42.8080   24.3180   36.8640 H   0  0  0  0  0  0  0  0  0  0  0  0
   43.0320   19.6270   35.5730 H   0  0  0  0  0  0  0  0  0  0  0  0
   34.6780   29.4370   33.9050 O   0  0  0  0  0  0  0  0  0  0  0  0
   34.6570   30.5030   34.7560 C   0  0  0  0  0  0  0  0  0  0  0  0
   35.8610   31.0250   35.2310 C   0  0  0  0  0  0  0  0  0  0  0  0
   36.8160   30.5820   34.9220 H   0  0  0  0  0  0  0  0  0  0  0  0
   35.8990   32.0970   36.0900 C   0  0  0  0  0  3  0  0  0  0  0  0
   34.7410   32.7100   36.5250 C   0  0  0  0  0  0  0  0  0  0  0  0
   34.7240   33.7550   37.3600 N   0  0  0  0  0  0  0  0  0  0  0  0
   33.5970   34.3460   37.7800 C   0  0  0  0  0  0  0  0  0  0  0  0
   33.5920   35.2010   38.4620 H   0  0  0  0  0  0  0  0  0  0  0  0
   32.3480   33.8930   37.3580 C   0  0  0  0  0  3  0  0  0  0  0  0
   32.3410   32.8090   36.4920 C   0  0  0  0  0  3  0  0  0  0  0  0
   33.5120   32.2200   36.0760 C   0  0  0  0  0  0  0  0  0  0  0  0
   33.5390   31.1370   35.2100 C   0  0  0  0  0  3  0  0  0  0  0  0
  1 10  1  0  0  0  0
  2  1  1  0  0  0  0
  2 14  1  0  0  0  0
  3  2  2  0  0  0  0
  4  8  2  0  0  0  0
  4  3  1  0  0  0  0
  5  4  1  0  0  0  0
  6  5  1  0  0  0  0
  6  7  2  0  0  0  0
  7  8  1  0  0  0  0
  8  9  1  0  0  0  0
  9 37  1  0  0  0  0
  9  1  2  0  0  0  0
 11  3  1  0  0  0  0
 12  5  1  0  0  0  0
 13  6  1  0  0  0  0
 14 16  1  0  0  0  0
 14 15  2  0  0  0  0
 16 24  1  0  0  0  0
 17 16  1  0  0  0  0
 18 19  1  0  0  0  0
 19 24  2  0  0  0  0
 19 20  1  0  0  0  0
 20 21  2  0  0  0  0
 21 22  1  0  0  0  0
 21 25  1  0  0  0  0
 22 26  1  0  0  0  0
 23 27  1  0  0  0  0
 23 22  2  0  0  0  0
 24 23  1  0  0  0  0
 28 34  1  0  0  0  0
 28 29  1  0  0  0  0
 29 35  1  0  0  0  0
 30 29  2  0  0  0  0
 30 20  1  0  0  0  0
 31 30  1  0  0  0  0
 32 33  1  0  0  0  0
 32 31  2  0  0  0  0
 33 28  2  0  0  0  0
 36 32  1  0  0  0  0
 37 38  1  0  0  0  0
 38 49  2  0  0  0  0
 38 39  1  0  0  0  0
 39 41  2  0  0  0  0
 40 39  1  0  0  0  0
 41 42  1  0  0  0  0
 42 43  1  0  0  0  0
 43 44  2  0  0  0  0
 44 45  1  0  0  0  0
 46 44  1  0  0  0  0
 47 46  2  0  0  0  0
 48 47  1  0  0  0  0
 48 42  2  0  0  0  0
 49 48  1  0  0  0  0
M  END
>  <minimizedAffinity>
-7.85053444

$$$$

 OpenBabel03272503143D

 49 54  0  0  0  0  0  0  0  0999 V2000
   36.6580   28.0690   34.0860 C   0  0  0  0  0  0  0  0  0  0  0  0
   37.6440   27.1770   33.6990 C   0  0  0  0  0  0  0  0  0  0  0  0
   38.1260   27.1060   32.4300 C   0  0  0  0  0  0  0  0  0  0  0  0
   37.6270   27.9580   31.4510 C   0  0  0  0  0  0  0  0  0  0  0  0
   37.9050   28.1090   30.1580 N   0  0  0  0  0  0  0  0  0  0  0  0
   37.1150   29.0860   29.6970 C   0  0  0  0  0  0  0  0  0  0  0  0
   36.3450   29.5460   30.6990 N   0  0  0  0  0  0  0  0  0  0  0  0
   36.6410   28.8520   31.8320 C   0  0  0  0  0  0  0  0  0  0  0  0
   36.1360   28.9410   33.1180 C   0  0  0  0  0  0  0  0  0  0  0  0
   36.2800   28.1250   35.0800 H   0  0  0  0  0  0  0  0  0  0  0  0
   38.8930   26.4020   32.1590 H   0  0  0  0  0  0  0  0  0  0  0  0
   38.5950   27.5940   29.5640 H   0  0  0  0  0  0  0  0  0  0  0  0
   36.9900   29.5410   28.7390 H   0  0  0  0  0  0  0  0  0  0  0  0
   38.1320   26.3110   34.7550 C   0  0  0  0  0  0  0  0  0  0  0  0
   38.8840   26.7760   35.6700 O   0  0  0  0  0  0  0  0  0  0  0  0
   37.8240   24.9160   34.8580 N   0  0  0  0  0  0  0  0  0  0  0  0
   37.2200   24.4980   34.1460 H   0  0  0  0  0  0  0  0  0  0  0  0
   40.2610   23.7440   34.6330 F   0  0  0  0  0  0  0  0  0  0  0  0
   39.6590   23.6950   35.8630 C   0  0  0  0  0  0  0  0  0  0  0  0
   40.3040   23.0710   36.8940 C   0  0  0  0  0  0  0  0  0  0  0  0
   39.6540   23.0550   38.0960 C   0  0  0  0  0  0  0  0  0  0  0  0
   38.4230   23.6260   38.2840 C   0  0  0  0  0  0  0  0  0  0  0  0
   37.7870   24.2560   37.2190 C   0  0  0  0  0  0  0  0  0  0  0  0
   38.4350   24.2800   35.9900 C   0  0  0  0  0  0  0  0  0  0  0  0
   40.1510   22.5620   38.9360 H   0  0  0  0  0  0  0  0  0  0  0  0
   37.9020   23.6220   39.2160 H   0  0  0  0  0  0  0  0  0  0  0  0
   36.8170   24.7420   37.2370 H   0  0  0  0  0  0  0  0  0  0  0  0
   43.9980   22.6160   36.2120 C   0  0  0  0  0  0  0  0  0  0  0  0
   42.7450   23.2370   36.4490 C   0  0  0  0  0  0  0  0  0  0  0  0
   41.6130   22.4770   36.6480 C   0  0  0  0  0  0  0  0  0  0  0  0
   41.7600   21.1080   36.6030 N   0  0  0  0  0  0  0  0  0  0  0  0
   42.9560   20.5330   36.3770 C   0  0  0  0  0  0  0  0  0  0  0  0
   44.0460   21.2710   36.1880 N   0  0  0  0  0  0  0  0  0  0  0  0
   44.8910   23.2040   36.0560 H   0  0  0  0  0  0  0  0  0  0  0  0
   42.6690   24.3170   36.4760 H   0  0  0  0  0  0  0  0  0  0  0  0
   42.8570   19.4510   36.3830 H   0  0  0  0  0  0  0  0  0  0  0  0
   35.1550   29.8340   33.4860 O   0  0  0  0  0  0  0  0  0  0  0  0
   33.8790   29.5490   33.8740 C   0  0  0  0  0  0  0  0  0  0  0  0
   32.9230   29.2340   32.9080 C   0  0  0  0  0  0  0  0  0  0  0  0
   33.1950   29.2170   31.8460 H   0  0  0  0  0  0  0  0  0  0  0  0
   31.6230   28.9390   33.2420 C   0  0  0  0  0  3  0  0  0  0  0  0
   31.2010   28.9400   34.5570 C   0  0  0  0  0  0  0  0  0  0  0  0
   29.9480   28.6590   34.9330 N   0  0  0  0  0  0  0  0  0  0  0  0
   29.5450   28.6620   36.2120 C   0  0  0  0  0  0  0  0  0  0  0  0
   28.5180   28.4310   36.5120 H   0  0  0  0  0  0  0  0  0  0  0  0
   30.4300   28.9650   37.2440 C   0  0  0  0  0  3  0  0  0  0  0  0
   31.7350   29.2590   36.8770 C   0  0  0  0  0  3  0  0  0  0  0  0
   32.1250   29.2500   35.5580 C   0  0  0  0  0  0  0  0  0  0  0  0
   33.4210   29.5380   35.1580 C   0  0  0  0  0  3  0  0  0  0  0  0
  1 10  1  0  0  0  0
  2  1  1  0  0  0  0
  2 14  1  0  0  0  0
  3  2  2  0  0  0  0
  4  8  2  0  0  0  0
  4  3  1  0  0  0  0
  5  4  1  0  0  0  0
  6  5  1  0  0  0  0
  6  7  2  0  0  0  0
  7  8  1  0  0  0  0
  8  9  1  0  0  0  0
  9 37  1  0  0  0  0
  9  1  2  0  0  0  0
 11  3  1  0  0  0  0
 12  5  1  0  0  0  0
 13  6  1  0  0  0  0
 14 16  1  0  0  0  0
 14 15  2  0  0  0  0
 16 24  1  0  0  0  0
 17 16  1  0  0  0  0
 18 19  1  0  0  0  0
 19 24  2  0  0  0  0
 19 20  1  0  0  0  0
 20 21  2  0  0  0  0
 21 22  1  0  0  0  0
 21 25  1  0  0  0  0
 22 26  1  0  0  0  0
 23 27  1  0  0  0  0
 23 22  2  0  0  0  0
 24 23  1  0  0  0  0
 28 29  1  0  0  0  0
 29 35  1  0  0  0  0
 29 30  2  0  0  0  0
 30 20  1  0  0  0  0
 31 30  1  0  0  0  0
 32 36  1  0  0  0  0
 32 31  2  0  0  0  0
 33 28  2  0  0  0  0
 33 32  1  0  0  0  0
 34 28  1  0  0  0  0
 37 38  1  0  0  0  0
 38 49  1  0  0  0  0
 39 41  1  0  0  0  0
 39 38  2  0  0  0  0
 40 39  1  0  0  0  0
 41 42  2  0  0  0  0
 42 43  1  0  0  0  0
 42 48  1  0  0  0  0
 43 44  2  0  0  0  0
 44 45  1  0  0  0  0
 44 46  1  0  0  0  0
 47 46  2  0  0  0  0
 48 47  1  0  0  0  0
 49 48  2  0  0  0  0
M  END
>  <minimizedAffinity>
-7.69775343

$$$$

 OpenBabel03272503143D

 49 54  0  0  0  0  0  0  0  0999 V2000
   36.6350   27.4970   33.4380 C   0  0  0  0  0  0  0  0  0  0  0  0
   37.9030   26.9590   33.2910 C   0  0  0  0  0  0  0  0  0  0  0  0
   38.6790   27.1730   32.1960 C   0  0  0  0  0  0  0  0  0  0  0  0
   38.2060   27.9660   31.1560 C   0  0  0  0  0  0  0  0  0  0  0  0
   38.7340   28.3390   29.9930 N   0  0  0  0  0  0  0  0  0  0  0  0
   37.8290   29.1120   29.3800 C   0  0  0  0  0  0  0  0  0  0  0  0
   36.7380   29.2220   30.1580 N   0  0  0  0  0  0  0  0  0  0  0  0
   36.9390   28.5070   31.2980 C   0  0  0  0  0  0  0  0  0  0  0  0
   36.1330   28.3010   32.4050 C   0  0  0  0  0  0  0  0  0  0  0  0
   36.0280   27.3290   34.2970 H   0  0  0  0  0  0  0  0  0  0  0  0
   39.6610   26.7410   32.1090 H   0  0  0  0  0  0  0  0  0  0  0  0
   39.6680   28.1050   29.5830 H   0  0  0  0  0  0  0  0  0  0  0  0
   37.8130   29.6250   28.4440 H   0  0  0  0  0  0  0  0  0  0  0  0
   38.3510   26.1400   34.4010 C   0  0  0  0  0  0  0  0  0  0  0  0
   39.1610   26.6120   35.2610 O   0  0  0  0  0  0  0  0  0  0  0  0
   37.9400   24.7850   34.6190 N   0  0  0  0  0  0  0  0  0  0  0  0
   37.2860   24.3640   33.9550 H   0  0  0  0  0  0  0  0  0  0  0  0
   40.3810   23.6090   34.4800 F   0  0  0  0  0  0  0  0  0  0  0  0
   39.7560   23.6040   35.7000 C   0  0  0  0  0  0  0  0  0  0  0  0
   40.3830   23.0170   36.7640 C   0  0  0  0  0  0  0  0  0  0  0  0
   39.7110   23.0440   37.9540 C   0  0  0  0  0  0  0  0  0  0  0  0
   38.4760   23.6200   38.0990 C   0  0  0  0  0  0  0  0  0  0  0  0
   37.8600   24.2100   37.0010 C   0  0  0  0  0  0  0  0  0  0  0  0
   38.5300   24.1910   35.7840 C   0  0  0  0  0  0  0  0  0  0  0  0
   40.1930   22.5810   38.8200 H   0  0  0  0  0  0  0  0  0  0  0  0
   37.9400   23.6480   39.0210 H   0  0  0  0  0  0  0  0  0  0  0  0
   36.8900   24.6970   36.9840 H   0  0  0  0  0  0  0  0  0  0  0  0
   44.0920   22.5410   36.1870 C   0  0  0  0  0  0  0  0  0  0  0  0
   42.8350   23.1700   36.3790 C   0  0  0  0  0  0  0  0  0  0  0  0
   41.6960   22.4160   36.5630 C   0  0  0  0  0  0  0  0  0  0  0  0
   41.8410   21.0460   36.5480 N   0  0  0  0  0  0  0  0  0  0  0  0
   43.0400   20.4640   36.3640 C   0  0  0  0  0  0  0  0  0  0  0  0
   44.1370   21.1970   36.1890 N   0  0  0  0  0  0  0  0  0  0  0  0
   44.9900   23.1250   36.0420 H   0  0  0  0  0  0  0  0  0  0  0  0
   42.7610   24.2500   36.3840 H   0  0  0  0  0  0  0  0  0  0  0  0
   42.9390   19.3830   36.3880 H   0  0  0  0  0  0  0  0  0  0  0  0
   34.8750   28.8440   32.5360 O   0  0  0  0  0  0  0  0  0  0  0  0
   34.3850   29.5530   33.5930 C   0  0  0  0  0  0  0  0  0  0  0  0
   33.0850   29.3120   34.0370 C   0  0  0  0  0  0  0  0  0  0  0  0
   32.4610   28.5580   33.5400 H   0  0  0  0  0  0  0  0  0  0  0  0
   32.5410   29.9960   35.0970 C   0  0  0  0  0  3  0  0  0  0  0  0
   33.2600   30.9600   35.7760 C   0  0  0  0  0  0  0  0  0  0  0  0
   32.7760   31.6540   36.8120 N   0  0  0  0  0  0  0  0  0  0  0  0
   33.4800   32.5890   37.4660 C   0  0  0  0  0  0  0  0  0  0  0  0
   33.0770   33.1510   38.3140 H   0  0  0  0  0  0  0  0  0  0  0  0
   34.7860   32.8970   37.0930 C   0  0  0  0  0  3  0  0  0  0  0  0
   35.3090   32.1910   36.0200 C   0  0  0  0  0  3  0  0  0  0  0  0
   34.5660   31.2360   35.3650 C   0  0  0  0  0  0  0  0  0  0  0  0
   35.0600   30.5120   34.2890 C   0  0  0  0  0  3  0  0  0  0  0  0
  1 10  1  0  0  0  0
  2  1  1  0  0  0  0
  2 14  1  0  0  0  0
  3  2  2  0  0  0  0
  4  8  2  0  0  0  0
  4  3  1  0  0  0  0
  5  4  1  0  0  0  0
  6  5  1  0  0  0  0
  6  7  2  0  0  0  0
  7  8  1  0  0  0  0
  8  9  1  0  0  0  0
  9 37  1  0  0  0  0
  9  1  2  0  0  0  0
 11  3  1  0  0  0  0
 12  5  1  0  0  0  0
 13  6  1  0  0  0  0
 14 16  1  0  0  0  0
 14 15  2  0  0  0  0
 16 24  1  0  0  0  0
 17 16  1  0  0  0  0
 18 19  1  0  0  0  0
 19 24  2  0  0  0  0
 19 20  1  0  0  0  0
 20 21  2  0  0  0  0
 21 22  1  0  0  0  0
 21 25  1  0  0  0  0
 22 26  1  0  0  0  0
 23 22  2  0  0  0  0
 24 23  1  0  0  0  0
 27 23  1  0  0  0  0
 28 33  2  0  0  0  0
 28 29  1  0  0  0  0
 29 35  1  0  0  0  0
 29 30  2  0  0  0  0
 30 20  1  0  0  0  0
 31 30  1  0  0  0  0
 32 36  1  0  0  0  0
 32 31  2  0  0  0  0
 33 32  1  0  0  0  0
 34 28  1  0  0  0  0
 37 38  1  0  0  0  0
 38 39  2  0  0  0  0
 38 49  1  0  0  0  0
 39 41  1  0  0  0  0
 40 39  1  0  0  0  0
 41 42  2  0  0  0  0
 42 43  1  0  0  0  0
 43 44  2  0  0  0  0
 44 45  1  0  0  0  0
 46 44  1  0  0  0  0
 47 46  2  0  0  0  0
 48 42  1  0  0  0  0
 48 47  1  0  0  0  0
 49 48  2  0  0  0  0
M  END
>  <minimizedAffinity>
-7.66021061

$$$$

 OpenBabel03272503143D

 49 54  0  0  0  0  0  0  0  0999 V2000
   36.3130   28.2300   31.2610 C   0  0  0  0  0  0  0  0  0  0  0  0
   37.2770   27.3100   30.8820 C   0  0  0  0  0  0  0  0  0  0  0  0
   38.1790   27.5440   29.8940 C   0  0  0  0  0  0  0  0  0  0  0  0
   38.1610   28.7560   29.2120 C   0  0  0  0  0  0  0  0  0  0  0  0
   38.9060   29.2480   28.2250 N   0  0  0  0  0  0  0  0  0  0  0  0
   38.4430   30.4740   27.9560 C   0  0  0  0  0  0  0  0  0  0  0  0
   37.4100   30.7490   28.7720 N   0  0  0  0  0  0  0  0  0  0  0  0
   37.2000   29.6790   29.5870 C   0  0  0  0  0  0  0  0  0  0  0  0
   36.2710   29.4610   30.5900 C   0  0  0  0  0  0  0  0  0  0  0  0
   35.6060   28.0460   32.0360 H   0  0  0  0  0  0  0  0  0  0  0  0
   38.9170   26.8090   29.6200 H   0  0  0  0  0  0  0  0  0  0  0  0
   39.7100   28.8090   27.7190 H   0  0  0  0  0  0  0  0  0  0  0  0
   38.7230   31.2290   27.2550 H   0  0  0  0  0  0  0  0  0  0  0  0
   37.2550   26.0620   31.6220 C   0  0  0  0  0  0  0  0  0  0  0  0
   36.2390   25.7500   32.3210 O   0  0  0  0  0  0  0  0  0  0  0  0
   38.3270   25.1130   31.6300 N   0  0  0  0  0  0  0  0  0  0  0  0
   39.1630   25.3200   31.0790 H   0  0  0  0  0  0  0  0  0  0  0  0
   38.9010   25.1400   34.2820 F   0  0  0  0  0  0  0  0  0  0  0  0
   38.3550   23.9890   33.7760 C   0  0  0  0  0  0  0  0  0  0  0  0
   38.1320   22.9340   34.6160 C   0  0  0  0  0  0  0  0  0  0  0  0
   37.5850   21.8150   34.0540 C   0  0  0  0  0  0  0  0  0  0  0  0
   37.2700   21.7290   32.7230 C   0  0  0  0  0  0  0  0  0  0  0  0
   37.5060   22.8170   31.8890 C   0  0  0  0  0  0  0  0  0  0  0  0
   38.0620   23.9620   32.4450 C   0  0  0  0  0  0  0  0  0  0  0  0
   37.3980   20.9580   34.7060 H   0  0  0  0  0  0  0  0  0  0  0  0
   36.8430   20.8620   32.2690 H   0  0  0  0  0  0  0  0  0  0  0  0
   37.3020   22.8750   30.8240 H   0  0  0  0  0  0  0  0  0  0  0  0
   39.9680   22.7500   37.9190 C   0  0  0  0  0  0  0  0  0  0  0  0
   39.6690   22.5940   36.5410 C   0  0  0  0  0  0  0  0  0  0  0  0
   38.4840   23.0710   36.0250 C   0  0  0  0  0  0  0  0  0  0  0  0
   37.6210   23.6920   36.9020 N   0  0  0  0  0  0  0  0  0  0  0  0
   37.9200   23.8320   38.2060 C   0  0  0  0  0  0  0  0  0  0  0  0
   39.0660   23.3720   38.7000 N   0  0  0  0  0  0  0  0  0  0  0  0
   40.8960   22.3800   38.3330 H   0  0  0  0  0  0  0  0  0  0  0  0
   40.3730   22.1000   35.8840 H   0  0  0  0  0  0  0  0  0  0  0  0
   37.1130   24.3480   38.7210 H   0  0  0  0  0  0  0  0  0  0  0  0
   35.3200   30.3860   30.9560 O   0  0  0  0  0  0  0  0  0  0  0  0
   34.7930   30.5840   32.1980 C   0  0  0  0  0  0  0  0  0  0  0  0
   33.4680   30.2240   32.4460 C   0  0  0  0  0  0  0  0  0  0  0  0
   32.8560   29.7840   31.6490 H   0  0  0  0  0  0  0  0  0  0  0  0
   32.8860   30.4010   33.6780 C   0  0  0  0  0  3  0  0  0  0  0  0
   33.5890   30.9480   34.7330 C   0  0  0  0  0  0  0  0  0  0  0  0
   33.0680   31.1410   35.9500 N   0  0  0  0  0  0  0  0  0  0  0  0
   33.7560   31.6730   36.9700 C   0  0  0  0  0  0  0  0  0  0  0  0
   33.3230   31.8270   37.9630 H   0  0  0  0  0  0  0  0  0  0  0  0
   35.0850   32.0630   36.8150 C   0  0  0  0  0  3  0  0  0  0  0  0
   35.6460   31.8720   35.5610 C   0  0  0  0  0  3  0  0  0  0  0  0
   34.9190   31.3250   34.5300 C   0  0  0  0  0  0  0  0  0  0  0  0
   35.4500   31.1200   33.2650 C   0  0  0  0  0  3  0  0  0  0  0  0
  1 10  1  0  0  0  0
  2  1  1  0  0  0  0
  2 14  1  0  0  0  0
  3  2  2  0  0  0  0
  4  8  2  0  0  0  0
  4  3  1  0  0  0  0
  5  4  1  0  0  0  0
  6  5  1  0  0  0  0
  6  7  2  0  0  0  0
  7  8  1  0  0  0  0
  8  9  1  0  0  0  0
  9 37  1  0  0  0  0
  9  1  2  0  0  0  0
 11  3  1  0  0  0  0
 12  5  1  0  0  0  0
 13  6  1  0  0  0  0
 14 16  1  0  0  0  0
 14 15  2  0  0  0  0
 16 24  1  0  0  0  0
 17 16  1  0  0  0  0
 19 18  1  0  0  0  0
 19 20  1  0  0  0  0
 20 30  1  0  0  0  0
 21 20  2  0  0  0  0
 21 25  1  0  0  0  0
 22 21  1  0  0  0  0
 23 24  1  0  0  0  0
 23 22  2  0  0  0  0
 24 19  2  0  0  0  0
 26 22  1  0  0  0  0
 27 23  1  0  0  0  0
 28 34  1  0  0  0  0
 28 33  1  0  0  0  0
 29 28  2  0  0  0  0
 30 29  1  0  0  0  0
 30 31  2  0  0  0  0
 31 32  1  0  0  0  0
 32 33  2  0  0  0  0
 32 36  1  0  0  0  0
 35 29  1  0  0  0  0
 37 38  1  0  0  0  0
 38 39  2  0  0  0  0
 38 49  1  0  0  0  0
 39 41  1  0  0  0  0
 40 39  1  0  0  0  0
 41 42  2  0  0  0  0
 42 43  1  0  0  0  0
 43 44  2  0  0  0  0
 44 45  1  0  0  0  0
 46 44  1  0  0  0  0
 47 46  2  0  0  0  0
 48 42  1  0  0  0  0
 48 47  1  0  0  0  0
 49 48  2  0  0  0  0
M  END
>  <minimizedAffinity>
-7.23105001

$$$$

 OpenBabel03272503143D

 49 54  0  0  0  0  0  0  0  0999 V2000
   36.7090   27.9360   32.4210 C   0  0  0  0  0  0  0  0  0  0  0  0
   35.9390   29.0840   32.3210 C   0  0  0  0  0  0  0  0  0  0  0  0
   35.9570   29.8980   31.2330 C   0  0  0  0  0  0  0  0  0  0  0  0
   36.7750   29.5910   30.1510 C   0  0  0  0  0  0  0  0  0  0  0  0
   36.9900   30.1910   28.9820 N   0  0  0  0  0  0  0  0  0  0  0  0
   37.8870   29.4510   28.3190 C   0  0  0  0  0  0  0  0  0  0  0  0
   38.2330   28.3910   29.0710 N   0  0  0  0  0  0  0  0  0  0  0  0
   37.5460   28.4450   30.2450 C   0  0  0  0  0  0  0  0  0  0  0  0
   37.5430   27.6020   31.3440 C   0  0  0  0  0  0  0  0  0  0  0  0
   36.6940   27.2990   33.2730 H   0  0  0  0  0  0  0  0  0  0  0  0
   35.3480   30.7840   31.1830 H   0  0  0  0  0  0  0  0  0  0  0  0
   36.5700   31.0690   28.6010 H   0  0  0  0  0  0  0  0  0  0  0  0
   38.3520   29.5410   27.3630 H   0  0  0  0  0  0  0  0  0  0  0  0
   35.1040   29.3610   33.4730 C   0  0  0  0  0  0  0  0  0  0  0  0
   35.5760   29.2470   34.6490 O   0  0  0  0  0  0  0  0  0  0  0  0
   33.7330   29.7700   33.3940 N   0  0  0  0  0  0  0  0  0  0  0  0
   33.3120   29.8790   32.4690 H   0  0  0  0  0  0  0  0  0  0  0  0
   33.8460   32.1970   34.6010 F   0  0  0  0  0  0  0  0  0  0  0  0
   33.1890   31.1990   35.2720 C   0  0  0  0  0  0  0  0  0  0  0  0
   32.6350   31.4720   36.4920 C   0  0  0  0  0  0  0  0  0  0  0  0
   31.9930   30.4370   37.1120 C   0  0  0  0  0  0  0  0  0  0  0  0
   31.8960   29.1850   36.5630 C   0  0  0  0  0  0  0  0  0  0  0  0
   32.4680   28.9330   35.3210 C   0  0  0  0  0  0  0  0  0  0  0  0
   33.1250   29.9750   34.6770 C   0  0  0  0  0  0  0  0  0  0  0  0
   31.5420   30.6310   38.0890 H   0  0  0  0  0  0  0  0  0  0  0  0
   31.3990   28.3670   37.0350 H   0  0  0  0  0  0  0  0  0  0  0  0
   32.4620   27.9910   34.7820 H   0  0  0  0  0  0  0  0  0  0  0  0
   34.0180   34.6070   38.0970 C   0  0  0  0  0  0  0  0  0  0  0  0
   33.9400   33.2890   37.5780 C   0  0  0  0  0  0  0  0  0  0  0  0
   32.7640   32.8180   37.0370 C   0  0  0  0  0  0  0  0  0  0  0  0
   31.6870   33.6790   37.0300 N   0  0  0  0  0  0  0  0  0  0  0  0
   31.7770   34.9260   37.5260 C   0  0  0  0  0  0  0  0  0  0  0  0
   32.9150   35.3770   38.0460 N   0  0  0  0  0  0  0  0  0  0  0  0
   34.9370   34.9850   38.5220 H   0  0  0  0  0  0  0  0  0  0  0  0
   34.8080   32.6420   37.6020 H   0  0  0  0  0  0  0  0  0  0  0  0
   30.8240   35.4390   37.4240 H   0  0  0  0  0  0  0  0  0  0  0  0
   38.3140   26.4650   31.4270 O   0  0  0  0  0  0  0  0  0  0  0  0
   37.9360   25.2420   31.9000 C   0  0  0  0  0  0  0  0  0  0  0  0
   38.5390   24.7360   33.0520 C   0  0  0  0  0  0  0  0  0  0  0  0
   39.3110   25.3160   33.5730 H   0  0  0  0  0  0  0  0  0  0  0  0
   38.1980   23.5110   33.5720 C   0  0  0  0  0  3  0  0  0  0  0  0
   37.2360   22.7190   32.9750 C   0  0  0  0  0  0  0  0  0  0  0  0
   36.8690   21.5210   33.4420 N   0  0  0  0  0  0  0  0  0  0  0  0
   35.9350   20.7570   32.8570 C   0  0  0  0  0  0  0  0  0  0  0  0
   35.6390   19.7780   33.2460 H   0  0  0  0  0  0  0  0  0  0  0  0
   35.2790   21.1810   31.7030 C   0  0  0  0  0  3  0  0  0  0  0  0
   35.6440   22.4210   31.2010 C   0  0  0  0  0  3  0  0  0  0  0  0
   36.6060   23.1860   31.8190 C   0  0  0  0  0  0  0  0  0  0  0  0
   36.9930   24.4300   31.3430 C   0  0  0  0  0  3  0  0  0  0  0  0
  1 10  1  0  0  0  0
  2  1  1  0  0  0  0
  2 14  1  0  0  0  0
  3  2  2  0  0  0  0
  4  8  2  0  0  0  0
  4  3  1  0  0  0  0
  5  4  1  0  0  0  0
  6  5  1  0  0  0  0
  6  7  2  0  0  0  0
  7  8  1  0  0  0  0
  8  9  1  0  0  0  0
  9 37  1  0  0  0  0
  9  1  2  0  0  0  0
 11  3  1  0  0  0  0
 12  5  1  0  0  0  0
 13  6  1  0  0  0  0
 14 15  2  0  0  0  0
 16 14  1  0  0  0  0
 16 24  1  0  0  0  0
 17 16  1  0  0  0  0
 18 19  1  0  0  0  0
 19 20  1  0  0  0  0
 20 30  1  0  0  0  0
 20 21  2  0  0  0  0
 21 25  1  0  0  0  0
 22 26  1  0  0  0  0
 22 21  1  0  0  0  0
 23 22  2  0  0  0  0
 24 19  2  0  0  0  0
 24 23  1  0  0  0  0
 27 23  1  0  0  0  0
 28 34  1  0  0  0  0
 29 35  1  0  0  0  0
 29 28  2  0  0  0  0
 30 29  1  0  0  0  0
 31 30  2  0  0  0  0
 31 32  1  0  0  0  0
 32 33  2  0  0  0  0
 33 28  1  0  0  0  0
 36 32  1  0  0  0  0
 37 38  1  0  0  0  0
 38 39  1  0  0  0  0
 39 41  2  0  0  0  0
 39 40  1  0  0  0  0
 42 43  1  0  0  0  0
 42 41  1  0  0  0  0
 44 45  1  0  0  0  0
 44 43  2  0  0  0  0
 46 44  1  0  0  0  0
 47 46  2  0  0  0  0
 47 48  1  0  0  0  0
 48 42  2  0  0  0  0
 49 48  1  0  0  0  0
 49 38  2  0  0  0  0
M  END
>  <minimizedAffinity>
-7.19398928

$$$$

 OpenBabel03272503143D

 49 54  0  0  0  0  0  0  0  0999 V2000
   37.6790   26.5520   32.8070 C   0  0  0  0  0  0  0  0  0  0  0  0
   37.2590   27.7940   32.3590 C   0  0  0  0  0  0  0  0  0  0  0  0
   37.5660   28.2830   31.1290 C   0  0  0  0  0  0  0  0  0  0  0  0
   38.3370   27.5240   30.2540 C   0  0  0  0  0  0  0  0  0  0  0  0
   38.7800   27.7440   29.0180 N   0  0  0  0  0  0  0  0  0  0  0  0
   39.4830   26.6640   28.6550 C   0  0  0  0  0  0  0  0  0  0  0  0
   39.4790   25.7710   29.6600 N   0  0  0  0  0  0  0  0  0  0  0  0
   38.7600   26.2830   30.6960 C   0  0  0  0  0  0  0  0  0  0  0  0
   38.4580   25.7660   31.9450 C   0  0  0  0  0  0  0  0  0  0  0  0
   37.4380   26.1690   33.7700 H   0  0  0  0  0  0  0  0  0  0  0  0
   37.2250   29.2520   30.8080 H   0  0  0  0  0  0  0  0  0  0  0  0
   38.6390   28.5780   28.4020 H   0  0  0  0  0  0  0  0  0  0  0  0
   40.0140   26.3970   27.7680 H   0  0  0  0  0  0  0  0  0  0  0  0
   36.4590   28.5460   33.3060 C   0  0  0  0  0  0  0  0  0  0  0  0
   36.3310   28.1360   34.5040 O   0  0  0  0  0  0  0  0  0  0  0  0
   35.7730   29.7630   32.9920 N   0  0  0  0  0  0  0  0  0  0  0  0
   35.8500   30.1330   32.0420 H   0  0  0  0  0  0  0  0  0  0  0  0
   33.2130   29.0020   33.4710 F   0  0  0  0  0  0  0  0  0  0  0  0
   33.7600   29.9180   34.3310 C   0  0  0  0  0  0  0  0  0  0  0  0
   33.0030   30.3930   35.3660 C   0  0  0  0  0  0  0  0  0  0  0  0
   33.6040   31.3030   36.1890 C   0  0  0  0  0  0  0  0  0  0  0  0
   34.8920   31.7330   36.0090 C   0  0  0  0  0  0  0  0  0  0  0  0
   35.6410   31.2350   34.9490 C   0  0  0  0  0  0  0  0  0  0  0  0
   35.0450   30.3090   34.1020 C   0  0  0  0  0  0  0  0  0  0  0  0
   33.0180   31.6970   37.0240 H   0  0  0  0  0  0  0  0  0  0  0  0
   35.3740   32.4430   36.6430 H   0  0  0  0  0  0  0  0  0  0  0  0
   36.6660   31.4940   34.6990 H   0  0  0  0  0  0  0  0  0  0  0  0
   29.2480   30.0130   35.0940 C   0  0  0  0  0  0  0  0  0  0  0  0
   30.5610   30.5220   34.9180 C   0  0  0  0  0  0  0  0  0  0  0  0
   31.6370   29.9060   35.5180 C   0  0  0  0  0  0  0  0  0  0  0  0
   31.3750   28.7930   36.2870 N   0  0  0  0  0  0  0  0  0  0  0  0
   30.1240   28.3220   36.4450 C   0  0  0  0  0  0  0  0  0  0  0  0
   29.0880   28.9200   35.8610 N   0  0  0  0  0  0  0  0  0  0  0  0
   28.3990   30.4900   34.6260 H   0  0  0  0  0  0  0  0  0  0  0  0
   30.7260   31.4010   34.3060 H   0  0  0  0  0  0  0  0  0  0  0  0
   30.1330   27.4420   37.0820 H   0  0  0  0  0  0  0  0  0  0  0  0
   38.8840   24.5290   32.3750 O   0  0  0  0  0  0  0  0  0  0  0  0
   39.1360   24.1410   33.6580 C   0  0  0  0  0  0  0  0  0  0  0  0
   40.3420   23.5050   33.9570 C   0  0  0  0  0  0  0  0  0  0  0  0
   41.0800   23.3190   33.1670 H   0  0  0  0  0  0  0  0  0  0  0  0
   40.6480   23.0930   35.2320 C   0  0  0  0  0  3  0  0  0  0  0  0
   39.7730   23.2900   36.2810 C   0  0  0  0  0  0  0  0  0  0  0  0
   40.0240   22.9070   37.5380 N   0  0  0  0  0  0  0  0  0  0  0  0
   39.1690   23.1010   38.5520 C   0  0  0  0  0  0  0  0  0  0  0  0
   39.3830   22.7860   39.5780 H   0  0  0  0  0  0  0  0  0  0  0  0
   37.9410   23.7270   38.3470 C   0  0  0  0  0  3  0  0  0  0  0  0
   37.6590   24.1320   37.0510 C   0  0  0  0  0  3  0  0  0  0  0  0
   38.5530   23.9220   36.0270 C   0  0  0  0  0  0  0  0  0  0  0  0
   38.3010   24.3150   34.7210 C   0  0  0  0  0  3  0  0  0  0  0  0
  1 10  1  0  0  0  0
  2  1  1  0  0  0  0
  2 14  1  0  0  0  0
  3  2  2  0  0  0  0
  4  8  2  0  0  0  0
  4  3  1  0  0  0  0
  5  4  1  0  0  0  0
  6  5  1  0  0  0  0
  6  7  2  0  0  0  0
  7  8  1  0  0  0  0
  8  9  1  0  0  0  0
  9 37  1  0  0  0  0
  9  1  2  0  0  0  0
 11  3  1  0  0  0  0
 12  5  1  0  0  0  0
 13  6  1  0  0  0  0
 14 15  2  0  0  0  0
 16 14  1  0  0  0  0
 16 24  1  0  0  0  0
 17 16  1  0  0  0  0
 18 19  1  0  0  0  0
 19 20  1  0  0  0  0
 20 30  1  0  0  0  0
 20 21  2  0  0  0  0
 21 25  1  0  0  0  0
 22 21  1  0  0  0  0
 22 26  1  0  0  0  0
 23 22  2  0  0  0  0
 24 19  2  0  0  0  0
 24 23  1  0  0  0  0
 27 23  1  0  0  0  0
 28 33  1  0  0  0  0
 29 28  2  0  0  0  0
 29 30  1  0  0  0  0
 30 31  2  0  0  0  0
 31 32  1  0  0  0  0
 32 36  1  0  0  0  0
 33 32  2  0  0  0  0
 34 28  1  0  0  0  0
 35 29  1  0  0  0  0
 37 38  1  0  0  0  0
 38 39  2  0  0  0  0
 38 49  1  0  0  0  0
 39 41  1  0  0  0  0
 40 39  1  0  0  0  0
 41 42  2  0  0  0  0
 42 43  1  0  0  0  0
 43 44  2  0  0  0  0
 44 45  1  0  0  0  0
 46 44  1  0  0  0  0
 47 46  2  0  0  0  0
 48 42  1  0  0  0  0
 48 47  1  0  0  0  0
 49 48  2  0  0  0  0
M  END
>  <minimizedAffinity>
-7.17295504

$$$$

 OpenBabel03272503143D

 49 54  0  0  0  0  0  0  0  0999 V2000
   37.2950   27.8760   32.7270 C   0  0  0  0  0  0  0  0  0  0  0  0
   36.5770   29.0380   32.5000 C   0  0  0  0  0  0  0  0  0  0  0  0
   36.5310   29.6600   31.2920 C   0  0  0  0  0  0  0  0  0  0  0  0
   37.2270   29.1260   30.2120 C   0  0  0  0  0  0  0  0  0  0  0  0
   37.3590   29.5110   28.9450 N   0  0  0  0  0  0  0  0  0  0  0  0
   38.1520   28.6160   28.3430 C   0  0  0  0  0  0  0  0  0  0  0  0
   38.5150   27.6740   29.2320 N   0  0  0  0  0  0  0  0  0  0  0  0
   37.9460   27.9650   30.4330 C   0  0  0  0  0  0  0  0  0  0  0  0
   38.0070   27.3160   31.6550 C   0  0  0  0  0  0  0  0  0  0  0  0
   37.3310   27.3900   33.6740 H   0  0  0  0  0  0  0  0  0  0  0  0
   35.9640   30.5630   31.1450 H   0  0  0  0  0  0  0  0  0  0  0  0
   36.9480   30.3400   28.4570 H   0  0  0  0  0  0  0  0  0  0  0  0
   38.5280   28.5180   27.3490 H   0  0  0  0  0  0  0  0  0  0  0  0
   35.8690   29.5550   33.6560 C   0  0  0  0  0  0  0  0  0  0  0  0
   36.0000   28.9940   34.7910 O   0  0  0  0  0  0  0  0  0  0  0  0
   34.9990   30.6910   33.6250 N   0  0  0  0  0  0  0  0  0  0  0  0
   34.8660   31.1770   32.7350 H   0  0  0  0  0  0  0  0  0  0  0  0
   32.6780   29.5150   34.3940 F   0  0  0  0  0  0  0  0  0  0  0  0
   33.2490   30.3980   35.2740 C   0  0  0  0  0  0  0  0  0  0  0  0
   32.6320   30.6360   36.4700 C   0  0  0  0  0  0  0  0  0  0  0  0
   33.2480   31.5260   37.3040 C   0  0  0  0  0  0  0  0  0  0  0  0
   34.4210   32.1580   36.9830 C   0  0  0  0  0  0  0  0  0  0  0  0
   35.0290   31.8980   35.7590 C   0  0  0  0  0  0  0  0  0  0  0  0
   34.4140   30.9960   34.8990 C   0  0  0  0  0  0  0  0  0  0  0  0
   32.7730   31.7330   38.2670 H   0  0  0  0  0  0  0  0  0  0  0  0
   34.9140   32.8550   37.6230 H   0  0  0  0  0  0  0  0  0  0  0  0
   35.9530   32.3300   35.3880 H   0  0  0  0  0  0  0  0  0  0  0  0
   30.1180   28.0530   37.6190 C   0  0  0  0  0  0  0  0  0  0  0  0
   31.3550   28.6910   37.3470 C   0  0  0  0  0  0  0  0  0  0  0  0
   31.3850   29.9410   36.7690 C   0  0  0  0  0  0  0  0  0  0  0  0
   30.1730   30.5260   36.4730 N   0  0  0  0  0  0  0  0  0  0  0  0
   29.0070   29.9080   36.7380 C   0  0  0  0  0  0  0  0  0  0  0  0
   28.9830   28.7010   37.2980 N   0  0  0  0  0  0  0  0  0  0  0  0
   30.0850   27.0730   38.0730 H   0  0  0  0  0  0  0  0  0  0  0  0
   32.2870   28.1990   37.5940 H   0  0  0  0  0  0  0  0  0  0  0  0
   28.1740   30.5340   36.4320 H   0  0  0  0  0  0  0  0  0  0  0  0
   38.7250   26.1610   31.8650 O   0  0  0  0  0  0  0  0  0  0  0  0
   38.3520   24.8870   31.5510 C   0  0  0  0  0  0  0  0  0  0  0  0
   39.2250   24.0760   30.8250 C   0  0  0  0  0  0  0  0  0  0  0  0
   40.2030   24.4600   30.5090 H   0  0  0  0  0  0  0  0  0  0  0  0
   38.9020   22.7850   30.4820 C   0  0  0  0  0  3  0  0  0  0  0  0
   37.6920   22.2280   30.8420 C   0  0  0  0  0  0  0  0  0  0  0  0
   37.3300   20.9780   30.5330 N   0  0  0  0  0  0  0  0  0  0  0  0
   36.1530   20.4420   30.8850 C   0  0  0  0  0  0  0  0  0  0  0  0
   35.8640   19.4180   30.6280 H   0  0  0  0  0  0  0  0  0  0  0  0
   35.2170   21.1770   31.6110 C   0  0  0  0  0  3  0  0  0  0  0  0
   35.5710   22.4770   31.9430 C   0  0  0  0  0  3  0  0  0  0  0  0
   36.7860   23.0030   31.5690 C   0  0  0  0  0  0  0  0  0  0  0  0
   37.1690   24.2980   31.8860 C   0  0  0  0  0  3  0  0  0  0  0  0
  1 10  1  0  0  0  0
  2  1  1  0  0  0  0
  2 14  1  0  0  0  0
  3  2  2  0  0  0  0
  4  8  2  0  0  0  0
  4  3  1  0  0  0  0
  5  4  1  0  0  0  0
  6  5  1  0  0  0  0
  6  7  2  0  0  0  0
  7  8  1  0  0  0  0
  8  9  1  0  0  0  0
  9 37  1  0  0  0  0
  9  1  2  0  0  0  0
 11  3  1  0  0  0  0
 12  5  1  0  0  0  0
 13  6  1  0  0  0  0
 14 15  2  0  0  0  0
 16 14  1  0  0  0  0
 16 24  1  0  0  0  0
 17 16  1  0  0  0  0
 18 19  1  0  0  0  0
 19 20  1  0  0  0  0
 20 30  1  0  0  0  0
 20 21  2  0  0  0  0
 21 25  1  0  0  0  0
 22 21  1  0  0  0  0
 22 26  1  0  0  0  0
 23 22  2  0  0  0  0
 24 19  2  0  0  0  0
 24 23  1  0  0  0  0
 27 23  1  0  0  0  0
 28 34  1  0  0  0  0
 29 35  1  0  0  0  0
 29 28  1  0  0  0  0
 30 29  2  0  0  0  0
 31 32  2  0  0  0  0
 31 30  1  0  0  0  0
 32 33  1  0  0  0  0
 33 28  2  0  0  0  0
 36 32  1  0  0  0  0
 38 37  1  0  0  0  0
 38 49  1  0  0  0  0
 39 38  2  0  0  0  0
 40 39  1  0  0  0  0
 41 39  1  0  0  0  0
 41 42  2  0  0  0  0
 42 48  1  0  0  0  0
 43 42  1  0  0  0  0
 43 44  2  0  0  0  0
 44 46  1  0  0  0  0
 45 44  1  0  0  0  0
 46 47  2  0  0  0  0
 48 49  2  0  0  0  0
 48 47  1  0  0  0  0
M  END
>  <minimizedAffinity>
-7.08793831

$$$$

 OpenBabel03272503143D

 49 54  0  0  0  0  0  0  0  0999 V2000
   37.5390   23.6640   33.3750 C   0  0  0  0  0  0  0  0  0  0  0  0
   36.8880   24.0670   32.2200 C   0  0  0  0  0  0  0  0  0  0  0  0
   36.5490   23.2110   31.2210 C   0  0  0  0  0  0  0  0  0  0  0  0
   36.8560   21.8590   31.3330 C   0  0  0  0  0  0  0  0  0  0  0  0
   36.6490   20.8170   30.5320 N   0  0  0  0  0  0  0  0  0  0  0  0
   37.1550   19.7410   31.1460 C   0  0  0  0  0  0  0  0  0  0  0  0
   37.6770   20.1090   32.3300 N   0  0  0  0  0  0  0  0  0  0  0  0
   37.5060   21.4500   32.4850 C   0  0  0  0  0  0  0  0  0  0  0  0
   37.8600   22.3050   33.5150 C   0  0  0  0  0  0  0  0  0  0  0  0
   37.8040   24.3350   34.1580 H   0  0  0  0  0  0  0  0  0  0  0  0
   36.0430   23.5530   30.3340 H   0  0  0  0  0  0  0  0  0  0  0  0
   36.1870   20.7830   29.5930 H   0  0  0  0  0  0  0  0  0  0  0  0
   37.2180   18.7070   30.8870 H   0  0  0  0  0  0  0  0  0  0  0  0
   36.5910   25.4850   32.1500 C   0  0  0  0  0  0  0  0  0  0  0  0
   35.5640   25.8940   31.5210 O   0  0  0  0  0  0  0  0  0  0  0  0
   37.3920   26.5060   32.7570 N   0  0  0  0  0  0  0  0  0  0  0  0
   38.2260   26.2230   33.2770 H   0  0  0  0  0  0  0  0  0  0  0  0
   36.1590   27.8610   34.7580 F   0  0  0  0  0  0  0  0  0  0  0  0
   36.2710   28.5000   33.5510 C   0  0  0  0  0  0  0  0  0  0  0  0
   35.7650   29.7630   33.4180 C   0  0  0  0  0  0  0  0  0  0  0  0
   35.9070   30.3490   32.1920 C   0  0  0  0  0  0  0  0  0  0  0  0
   36.5180   29.7250   31.1360 C   0  0  0  0  0  0  0  0  0  0  0  0
   37.0240   28.4400   31.2960 C   0  0  0  0  0  0  0  0  0  0  0  0
   36.8880   27.8310   32.5370 C   0  0  0  0  0  0  0  0  0  0  0  0
   35.5100   31.3590   32.0620 H   0  0  0  0  0  0  0  0  0  0  0  0
   36.6360   30.1690   30.1720 H   0  0  0  0  0  0  0  0  0  0  0  0
   37.5270   27.8410   30.5420 H   0  0  0  0  0  0  0  0  0  0  0  0
   35.1390   31.7870   36.5530 C   0  0  0  0  0  0  0  0  0  0  0  0
   35.8060   31.2010   35.4470 C   0  0  0  0  0  0  0  0  0  0  0  0
   35.1230   30.3880   34.5700 C   0  0  0  0  0  0  0  0  0  0  0  0
   33.7850   30.1750   34.8210 N   0  0  0  0  0  0  0  0  0  0  0  0
   33.1670   30.7380   35.8760 C   0  0  0  0  0  0  0  0  0  0  0  0
   33.8300   31.5250   36.7190 N   0  0  0  0  0  0  0  0  0  0  0  0
   35.6670   32.4280   37.2460 H   0  0  0  0  0  0  0  0  0  0  0  0
   36.8590   31.3920   35.2820 H   0  0  0  0  0  0  0  0  0  0  0  0
   32.1200   30.4480   35.8940 H   0  0  0  0  0  0  0  0  0  0  0  0
   38.5070   21.8890   34.6560 O   0  0  0  0  0  0  0  0  0  0  0  0
   39.7020   22.3330   35.1400 C   0  0  0  0  0  0  0  0  0  0  0  0
   39.9600   22.2560   36.5090 C   0  0  0  0  0  0  0  0  0  0  0  0
   39.2070   21.8410   37.1900 H   0  0  0  0  0  0  0  0  0  0  0  0
   41.1460   22.6890   37.0500 C   0  0  0  0  0  3  0  0  0  0  0  0
   42.1440   23.2230   36.2590 C   0  0  0  0  0  0  0  0  0  0  0  0
   43.3160   23.6580   36.7370 N   0  0  0  0  0  0  0  0  0  0  0  0
   44.2800   24.1760   35.9640 C   0  0  0  0  0  0  0  0  0  0  0  0
   45.2360   24.5290   36.3630 H   0  0  0  0  0  0  0  0  0  0  0  0
   44.1120   24.2930   34.5860 C   0  0  0  0  0  3  0  0  0  0  0  0
   42.9040   23.8480   34.0680 C   0  0  0  0  0  3  0  0  0  0  0  0
   41.9300   23.3200   34.8820 C   0  0  0  0  0  0  0  0  0  0  0  0
   40.7130   22.8660   34.3960 C   0  0  0  0  0  3  0  0  0  0  0  0
  1  9  1  0  0  0  0
  1 10  1  0  0  0  0
  2  1  2  0  0  0  0
  3  4  2  0  0  0  0
  3  2  1  0  0  0  0
  4  8  1  0  0  0  0
  5  6  1  0  0  0  0
  5  4  1  0  0  0  0
  6  7  2  0  0  0  0
  7  8  1  0  0  0  0
  8  9  2  0  0  0  0
  9 37  1  0  0  0  0
 11  3  1  0  0  0  0
 12  5  1  0  0  0  0
 13  6  1  0  0  0  0
 14  2  1  0  0  0  0
 14 16  1  0  0  0  0
 15 14  2  0  0  0  0
 16 17  1  0  0  0  0
 19 18  1  0  0  0  0
 20 19  1  0  0  0  0
 20 30  1  0  0  0  0
 21 20  2  0  0  0  0
 22 23  2  0  0  0  0
 22 21  1  0  0  0  0
 23 24  1  0  0  0  0
 24 16  1  0  0  0  0
 24 19  2  0  0  0  0
 25 21  1  0  0  0  0
 26 22  1  0  0  0  0
 27 23  1  0  0  0  0
 28 33  1  0  0  0  0
 28 34  1  0  0  0  0
 29 28  2  0  0  0  0
 30 31  2  0  0  0  0
 30 29  1  0  0  0  0
 31 32  1  0  0  0  0
 32 36  1  0  0  0  0
 32 33  2  0  0  0  0
 35 29  1  0  0  0  0
 37 38  1  0  0  0  0
 38 39  1  0  0  0  0
 39 41  2  0  0  0  0
 39 40  1  0  0  0  0
 42 43  1  0  0  0  0
 42 41  1  0  0  0  0
 44 45  1  0  0  0  0
 44 43  2  0  0  0  0
 46 44  1  0  0  0  0
 47 46  2  0  0  0  0
 47 48  1  0  0  0  0
 48 42  2  0  0  0  0
 49 48  1  0  0  0  0
 49 38  2  0  0  0  0
M  END
>  <minimizedAffinity>
-7.07725954

$$$$

 OpenBabel03272503143D

 49 54  0  0  0  0  0  0  0  0999 V2000
   36.9660   28.2280   32.3930 C   0  0  0  0  0  0  0  0  0  0  0  0
   36.3290   29.4550   32.3130 C   0  0  0  0  0  0  0  0  0  0  0  0
   36.3260   30.2190   31.1890 C   0  0  0  0  0  0  0  0  0  0  0  0
   36.9850   29.7740   30.0470 C   0  0  0  0  0  0  0  0  0  0  0  0
   37.1440   30.2990   28.8350 N   0  0  0  0  0  0  0  0  0  0  0  0
   37.8750   29.4320   28.1230 C   0  0  0  0  0  0  0  0  0  0  0  0
   38.1720   28.3670   28.8900 N   0  0  0  0  0  0  0  0  0  0  0  0
   37.6240   28.5490   30.1220 C   0  0  0  0  0  0  0  0  0  0  0  0
   37.6390   27.7550   31.2570 C   0  0  0  0  0  0  0  0  0  0  0  0
   36.9680   27.6300   33.2740 H   0  0  0  0  0  0  0  0  0  0  0  0
   35.8220   31.1700   31.1560 H   0  0  0  0  0  0  0  0  0  0  0  0
   36.7900   31.2070   28.4530 H   0  0  0  0  0  0  0  0  0  0  0  0
   38.2430   29.4290   27.1220 H   0  0  0  0  0  0  0  0  0  0  0  0
   35.6570   29.8750   33.5280 C   0  0  0  0  0  0  0  0  0  0  0  0
   35.9010   29.2880   34.6300 O   0  0  0  0  0  0  0  0  0  0  0  0
   34.7020   30.9410   33.5920 N   0  0  0  0  0  0  0  0  0  0  0  0
   34.4780   31.4440   32.7310 H   0  0  0  0  0  0  0  0  0  0  0  0
   32.4220   29.7030   34.3850 F   0  0  0  0  0  0  0  0  0  0  0  0
   33.0310   30.5270   35.2960 C   0  0  0  0  0  0  0  0  0  0  0  0
   32.4690   30.6810   36.5320 C   0  0  0  0  0  0  0  0  0  0  0  0
   33.1220   31.5150   37.3960 C   0  0  0  0  0  0  0  0  0  0  0  0
   34.2770   32.1730   37.0650 C   0  0  0  0  0  0  0  0  0  0  0  0
   34.8290   32.0000   35.8000 C   0  0  0  0  0  0  0  0  0  0  0  0
   34.1770   31.1550   34.9100 C   0  0  0  0  0  0  0  0  0  0  0  0
   32.6910   31.6540   38.3910 H   0  0  0  0  0  0  0  0  0  0  0  0
   34.7980   32.8280   37.7280 H   0  0  0  0  0  0  0  0  0  0  0  0
   35.7340   32.4610   35.4170 H   0  0  0  0  0  0  0  0  0  0  0  0
   30.0150   28.0610   37.7280 C   0  0  0  0  0  0  0  0  0  0  0  0
   31.2370   28.7240   37.4470 C   0  0  0  0  0  0  0  0  0  0  0  0
   31.2390   29.9610   36.8400 C   0  0  0  0  0  0  0  0  0  0  0  0
   30.0140   30.5070   36.5240 N   0  0  0  0  0  0  0  0  0  0  0  0
   28.8630   29.8650   36.7960 C   0  0  0  0  0  0  0  0  0  0  0  0
   28.8670   28.6720   37.3840 N   0  0  0  0  0  0  0  0  0  0  0  0
   30.0050   27.0910   38.2040 H   0  0  0  0  0  0  0  0  0  0  0  0
   32.1810   28.2620   37.7110 H   0  0  0  0  0  0  0  0  0  0  0  0
   28.0150   30.4630   36.4710 H   0  0  0  0  0  0  0  0  0  0  0  0
   38.2770   26.5370   31.3200 O   0  0  0  0  0  0  0  0  0  0  0  0
   38.6440   25.8520   32.4410 C   0  0  0  0  0  0  0  0  0  0  0  0
   39.6360   26.3750   33.2700 C   0  0  0  0  0  0  0  0  0  0  0  0
   40.1180   27.3290   33.0220 H   0  0  0  0  0  0  0  0  0  0  0  0
   40.0450   25.7280   34.4110 C   0  0  0  0  0  3  0  0  0  0  0  0
   39.4890   24.5230   34.7930 C   0  0  0  0  0  0  0  0  0  0  0  0
   39.8510   23.8550   35.8930 N   0  0  0  0  0  0  0  0  0  0  0  0
   39.3080   22.6850   36.2580 C   0  0  0  0  0  0  0  0  0  0  0  0
   39.6100   22.1440   37.1600 H   0  0  0  0  0  0  0  0  0  0  0  0
   38.3100   22.0870   35.4910 C   0  0  0  0  0  3  0  0  0  0  0  0
   37.9180   22.7620   34.3450 C   0  0  0  0  0  3  0  0  0  0  0  0
   38.4910   23.9620   33.9920 C   0  0  0  0  0  0  0  0  0  0  0  0
   38.1210   24.6620   32.8530 C   0  0  0  0  0  3  0  0  0  0  0  0
  1 10  1  0  0  0  0
  2  1  1  0  0  0  0
  2 14  1  0  0  0  0
  3  2  2  0  0  0  0
  4  8  2  0  0  0  0
  4  3  1  0  0  0  0
  5  4  1  0  0  0  0
  6  5  1  0  0  0  0
  6  7  2  0  0  0  0
  7  8  1  0  0  0  0
  8  9  1  0  0  0  0
  9 37  1  0  0  0  0
  9  1  2  0  0  0  0
 11  3  1  0  0  0  0
 12  5  1  0  0  0  0
 13  6  1  0  0  0  0
 14 16  1  0  0  0  0
 14 15  2  0  0  0  0
 16 24  1  0  0  0  0
 17 16  1  0  0  0  0
 18 19  1  0  0  0  0
 19 20  1  0  0  0  0
 20 30  1  0  0  0  0
 20 21  2  0  0  0  0
 21 25  1  0  0  0  0
 22 21  1  0  0  0  0
 22 26  1  0  0  0  0
 23 22  2  0  0  0  0
 24 19  2  0  0  0  0
 24 23  1  0  0  0  0
 27 23  1  0  0  0  0
 28 34  1  0  0  0  0
 29 35  1  0  0  0  0
 29 28  1  0  0  0  0
 30 29  2  0  0  0  0
 31 32  2  0  0  0  0
 31 30  1  0  0  0  0
 32 33  1  0  0  0  0
 33 28  2  0  0  0  0
 36 32  1  0  0  0  0
 37 38  1  0  0  0  0
 38 49  2  0  0  0  0
 38 39  1  0  0  0  0
 39 41  2  0  0  0  0
 40 39  1  0  0  0  0
 41 42  1  0  0  0  0
 42 43  1  0  0  0  0
 43 44  2  0  0  0  0
 44 45  1  0  0  0  0
 46 44  1  0  0  0  0
 47 46  2  0  0  0  0
 48 47  1  0  0  0  0
 48 42  2  0  0  0  0
 49 48  1  0  0  0  0
M  END
>  <minimizedAffinity>
-6.98494434

$$$$
