
     RDKit          3D

 30 32  0  0  0  0  0  0  0  0999 V2000
   35.6090   29.0233   50.1859 C   0  0  0  0  0  0  0  0  0  0  0  0
   36.2803   30.1553   49.6554 C   0  0  0  0  0  0  0  0  0  0  0  0
   36.0528   30.5119   48.3361 C   0  0  0  0  0  0  0  0  0  0  0  0
   35.1742   29.7350   47.6027 N   0  0  0  0  0  0  0  0  0  0  0  0
   34.5529   28.6692   48.1332 C   0  0  0  0  0  0  0  0  0  0  0  0
   34.7628   28.3169   49.3976 N   0  0  0  0  0  0  0  0  0  0  0  0
   33.6845   28.0017   47.2399 N   0  0  0  0  0  0  0  0  0  0  0  0
   37.2187   30.9093   50.5269 C   0  0  0  0  0  0  0  0  0  0  0  0
   38.5335   30.7980   50.0964 F   0  0  0  0  0  0  0  0  0  0  0  0
   36.8541   32.2199   50.5315 F   0  0  0  0  0  0  0  0  0  0  0  0
   37.1901   30.4525   51.8382 F   0  0  0  0  0  0  0  0  0  0  0  0
   35.8159   28.7832   51.2136 H   0  0  0  0  0  0  0  0  0  0  0  0
   33.5972   26.9440   47.2317 H   0  0  0  0  0  0  0  0  0  0  0  0
   33.0829   28.4726   46.5443 H   0  0  0  0  0  0  0  0  0  0  0  0
   36.6673   31.5871   47.5895 C   0  0  0  0  0  0  0  0  0  0  0  0
   36.7620   32.9486   47.6680 C   0  0  0  0  0  0  0  0  0  0  0  0
   36.1840   33.3834   48.4476 H   0  0  0  0  0  0  0  0  0  0  0  0
   37.4980   33.7157   46.8017 C   0  0  0  0  0  0  0  0  0  0  0  0
   38.2146   33.1701   45.7610 C   0  0  0  0  0  0  0  0  0  0  0  0
   38.8891   34.0091   44.9873 N   0  0  0  0  0  0  0  0  0  0  0  0
   39.6164   33.5246   43.9410 C   0  0  0  0  0  0  0  0  0  0  0  0
   40.2018   34.1256   43.2502 H   0  0  0  0  0  0  0  0  0  0  0  0
   39.5922   32.1538   43.7641 C   0  0  0  0  0  0  0  0  0  0  0  0
   38.8820   31.2853   44.5810 C   0  0  0  0  0  0  0  0  0  0  0  0
   38.1539   31.7998   45.6330 C   0  0  0  0  0  0  0  0  0  0  0  0
   37.4039   31.0479   46.5216 C   0  0  0  0  0  0  0  0  0  0  0  0
   37.4731   34.7770   46.9969 H   0  0  0  0  0  0  0  0  0  0  0  0
   40.1652   31.7287   42.9331 H   0  0  0  0  0  0  0  0  0  0  0  0
   38.8676   30.2143   44.4367 H   0  0  0  0  0  0  0  0  0  0  0  0
   37.4795   29.9923   46.2590 H   0  0  0  0  0  0  0  0  0  0  0  0
  2  1  2  0
  2  8  1  0
  3  2  1  0
  4  5  1  0
  4  3  2  0
  5  6  2  0
  6  1  1  0
  7  5  1  0
  8 11  1  0
  9  8  1  0
 10  8  1  0
  1 12  1  0
  7 13  1  0
  7 14  1  0
 15 16  2  0
 16 17  1  0
 16 18  1  0
 18 19  2  0
 19 20  1  0
 20 21  2  0
 21 22  1  0
 21 23  1  0
 23 24  2  0
 24 25  1  0
 25 26  2  0
 26 15  1  0
 25 19  1  0
 18 27  1  0
 23 28  1  0
 24 29  1  0
 26 30  1  0
  3 15  1  0
M  ISO  3  12  14  17  16  22  16
M  END
>  <DihAtoms>  (1) 
1,2,14,15

>  <DihDeg>  (1) 
-60.22557734225758

$$$$
