
 OpenBabel03272501453D

 37 41  0  0  0  0  0  0  0  0999 V2000
   37.8490   26.9440   35.5560 C   0  0  0  0  0  0  0  0  0  0  0  0
   38.0270   25.7150   34.8520 C   0  0  0  0  0  0  0  0  0  0  0  0
   37.4980   25.6350   33.5760 C   0  0  0  0  0  0  0  0  0  0  0  0
   36.8490   26.7210   33.0760 N   0  0  0  0  0  0  0  0  0  0  0  0
   36.6970   27.8650   33.7610 C   0  0  0  0  0  0  0  0  0  0  0  0
   37.2020   27.9700   35.0060 N   0  0  0  0  0  0  0  0  0  0  0  0
   38.1810   27.2070   36.5610 H   0  0  0  0  0  0  0  0  0  0  0  0
   37.6480   24.6950   33.0730 H   0  0  0  0  0  0  0  0  0  0  0  0
   38.2480   24.3130   36.8210 C   0  0  0  0  0  0  0  0  0  0  0  0
   38.7600   24.7130   35.5870 C   0  0  0  0  0  0  0  0  0  0  0  0
   39.9420   24.1240   35.1480 C   0  0  0  0  0  0  0  0  0  0  0  0
   40.5570   23.1620   35.9600 C   0  0  0  0  0  0  0  0  0  0  0  0
   41.6690   22.4330   35.8220 N   0  0  0  0  0  0  0  0  0  0  0  0
   41.8410   21.6440   36.8750 C   0  0  0  0  0  0  0  0  0  0  0  0
   40.8210   21.8530   37.7300 N   0  0  0  0  0  0  0  0  0  0  0  0
   40.0310   22.7800   37.1780 C   0  0  0  0  0  0  0  0  0  0  0  0
   38.8610   23.3650   37.6110 C   0  0  0  0  0  0  0  0  0  0  0  0
   37.3360   24.6890   37.2940 H   0  0  0  0  0  0  0  0  0  0  0  0
   40.3500   24.4240   34.1950 H   0  0  0  0  0  0  0  0  0  0  0  0
   42.2780   22.5330   34.9560 H   0  0  0  0  0  0  0  0  0  0  0  0
   42.6920   20.9760   36.9450 H   0  0  0  0  0  0  0  0  0  0  0  0
   38.4830   23.0360   38.5730 H   0  0  0  0  0  0  0  0  0  0  0  0
   35.9750   29.0130   33.1310 C   0  0  0  0  0  0  0  0  0  0  0  0
   36.7180   29.7060   32.6750 H   0  0  0  0  0  0  0  0  0  0  0  0
   35.3150   28.6250   32.3410 H   0  0  0  0  0  0  0  0  0  0  0  0
   35.1800   29.7780   34.1180 C   0  0  0  0  0  0  0  0  0  0  0  0
   33.8780   29.3590   34.4060 C   0  0  0  0  0  0  0  0  0  0  0  0
   33.4960   28.4750   33.8870 H   0  0  0  0  0  0  0  0  0  0  0  0
   33.1100   30.0450   35.3170 C   0  0  0  0  0  3  0  0  0  0  0  0
   33.6420   31.1540   35.9430 C   0  0  0  0  0  0  0  0  0  0  0  0
   32.7740   31.7350   36.8180 N   0  0  0  0  0  0  0  0  0  0  0  0
   33.1930   32.8410   37.4950 C   0  0  0  0  0  0  0  0  0  0  0  0
   32.5650   33.3620   38.2080 H   0  0  0  0  0  0  0  0  0  0  0  0
   34.4720   33.2970   37.2460 C   0  0  0  0  0  3  0  0  0  0  0  0
   35.3600   32.7130   36.3590 C   0  0  0  0  0  3  0  0  0  0  0  0
   34.9230   31.5860   35.6740 C   0  0  0  0  0  0  0  0  0  0  0  0
   35.6980   30.8970   34.7580 C   0  0  0  0  0  3  0  0  0  0  0  0
  1  7  1  0  0  0  0
  2  1  2  0  0  0  0
  2 10  1  0  0  0  0
  3  2  1  0  0  0  0
  4  3  2  0  0  0  0
  4  5  1  0  0  0  0
  5  6  2  0  0  0  0
  6  1  1  0  0  0  0
  8  3  1  0  0  0  0
  9 18  1  0  0  0  0
  9 17  1  0  0  0  0
 10  9  2  0  0  0  0
 11 10  1  0  0  0  0
 11 12  2  0  0  0  0
 12 16  1  0  0  0  0
 13 12  1  0  0  0  0
 13 14  1  0  0  0  0
 14 21  1  0  0  0  0
 14 15  2  0  0  0  0
 16 17  2  0  0  0  0
 16 15  1  0  0  0  0
 17 22  1  0  0  0  0
 19 11  1  0  0  0  0
 20 13  1  0  0  0  0
 23  5  1  0  0  0  0
 23 26  1  0  0  0  0
 24 23  1  0  0  0  0
 25 23  1  0  0  0  0
 26 27  2  0  0  0  0
 26 37  1  0  0  0  0
 27 29  1  0  0  0  0
 28 27  1  0  0  0  0
 29 30  2  0  0  0  0
 30 31  1  0  0  0  0
 31 32  2  0  0  0  0
 32 33  1  0  0  0  0
 34 32  1  0  0  0  0
 35 34  2  0  0  0  0
 36 30  1  0  0  0  0
 36 35  1  0  0  0  0
 37 36  2  0  0  0  0
M  END
>  <minimizedAffinity>
-6.85165739

$$$$

 OpenBabel03272501453D

 37 41  0  0  0  0  0  0  0  0999 V2000
   38.9520   26.4770   33.4840 C   0  0  0  0  0  0  0  0  0  0  0  0
   38.5790   25.9030   34.7370 C   0  0  0  0  0  0  0  0  0  0  0  0
   37.3790   26.3160   35.2890 C   0  0  0  0  0  0  0  0  0  0  0  0
   36.6370   27.2320   34.6100 N   0  0  0  0  0  0  0  0  0  0  0  0
   37.0130   27.7550   33.4330 C   0  0  0  0  0  0  0  0  0  0  0  0
   38.1770   27.3710   32.8740 N   0  0  0  0  0  0  0  0  0  0  0  0
   39.8490   26.2930   32.8910 H   0  0  0  0  0  0  0  0  0  0  0  0
   37.1270   25.8650   36.2340 H   0  0  0  0  0  0  0  0  0  0  0  0
   40.8530   25.0600   34.8430 C   0  0  0  0  0  0  0  0  0  0  0  0
   39.5250   24.9440   35.2540 C   0  0  0  0  0  0  0  0  0  0  0  0
   39.2010   23.9140   36.1300 C   0  0  0  0  0  0  0  0  0  0  0  0
   40.2150   23.0470   36.5570 C   0  0  0  0  0  0  0  0  0  0  0  0
   40.2230   21.9900   37.3750 N   0  0  0  0  0  0  0  0  0  0  0  0
   41.4470   21.4850   37.4710 C   0  0  0  0  0  0  0  0  0  0  0  0
   42.2690   22.2240   36.7000 N   0  0  0  0  0  0  0  0  0  0  0  0
   41.5240   23.1820   36.1380 C   0  0  0  0  0  0  0  0  0  0  0  0
   41.8430   24.2020   35.2690 C   0  0  0  0  0  0  0  0  0  0  0  0
   41.2520   25.8130   34.1570 H   0  0  0  0  0  0  0  0  0  0  0  0
   38.1770   23.8110   36.4570 H   0  0  0  0  0  0  0  0  0  0  0  0
   39.3270   21.6620   37.8450 H   0  0  0  0  0  0  0  0  0  0  0  0
   41.6530   20.6210   38.0910 H   0  0  0  0  0  0  0  0  0  0  0  0
   42.8820   24.2710   34.9660 H   0  0  0  0  0  0  0  0  0  0  0  0
   36.1310   28.7530   32.7530 C   0  0  0  0  0  0  0  0  0  0  0  0
   36.7650   29.4930   32.2150 H   0  0  0  0  0  0  0  0  0  0  0  0
   35.4980   28.2260   32.0230 H   0  0  0  0  0  0  0  0  0  0  0  0
   35.2810   29.4900   33.7150 C   0  0  0  0  0  0  0  0  0  0  0  0
   33.9070   29.2370   33.7300 C   0  0  0  0  0  0  0  0  0  0  0  0
   33.5110   28.4990   33.0260 H   0  0  0  0  0  0  0  0  0  0  0  0
   33.0860   29.9030   34.6100 C   0  0  0  0  0  3  0  0  0  0  0  0
   33.6370   30.8240   35.4770 C   0  0  0  0  0  0  0  0  0  0  0  0
   32.7110   31.4070   36.2900 N   0  0  0  0  0  0  0  0  0  0  0  0
   33.1430   32.3350   37.1890 C   0  0  0  0  0  0  0  0  0  0  0  0
   32.4730   32.8440   37.8710 H   0  0  0  0  0  0  0  0  0  0  0  0
   34.4930   32.6210   37.2140 C   0  0  0  0  0  3  0  0  0  0  0  0
   35.4410   32.0340   36.3920 C   0  0  0  0  0  3  0  0  0  0  0  0
   34.9890   31.0890   35.4790 C   0  0  0  0  0  0  0  0  0  0  0  0
   35.8180   30.4200   34.5950 C   0  0  0  0  0  3  0  0  0  0  0  0
  1  2  1  0  0  0  0
  2 10  1  0  0  0  0
  2  3  2  0  0  0  0
  3  8  1  0  0  0  0
  4  3  1  0  0  0  0
  5  4  2  0  0  0  0
  6  5  1  0  0  0  0
  6  1  2  0  0  0  0
  7  1  1  0  0  0  0
  9 10  2  0  0  0  0
  9 17  1  0  0  0  0
 10 11  1  0  0  0  0
 11 19  1  0  0  0  0
 11 12  2  0  0  0  0
 12 13  1  0  0  0  0
 13 14  1  0  0  0  0
 13 20  1  0  0  0  0
 14 21  1  0  0  0  0
 15 14  2  0  0  0  0
 16 12  1  0  0  0  0
 16 15  1  0  0  0  0
 17 16  2  0  0  0  0
 18  9  1  0  0  0  0
 22 17  1  0  0  0  0
 23  5  1  0  0  0  0
 23 26  1  0  0  0  0
 24 23  1  0  0  0  0
 25 23  1  0  0  0  0
 26 27  2  0  0  0  0
 26 37  1  0  0  0  0
 27 29  1  0  0  0  0
 28 27  1  0  0  0  0
 29 30  2  0  0  0  0
 30 36  1  0  0  0  0
 30 31  1  0  0  0  0
 31 32  2  0  0  0  0
 32 34  1  0  0  0  0
 32 33  1  0  0  0  0
 35 34  2  0  0  0  0
 36 35  1  0  0  0  0
 37 36  2  0  0  0  0
M  END
>  <minimizedAffinity>
-6.60389996

$$$$

 OpenBabel03272501453D

 37 41  0  0  0  0  0  0  0  0999 V2000
   35.3890   25.0840   31.1880 C   0  0  0  0  0  0  0  0  0  0  0  0
   36.4160   24.5420   32.0170 C   0  0  0  0  0  0  0  0  0  0  0  0
   37.2450   25.4410   32.6660 C   0  0  0  0  0  0  0  0  0  0  0  0
   37.0300   26.7700   32.4760 N   0  0  0  0  0  0  0  0  0  0  0  0
   36.0550   27.2520   31.6890 C   0  0  0  0  0  0  0  0  0  0  0  0
   35.2350   26.3990   31.0460 N   0  0  0  0  0  0  0  0  0  0  0  0
   34.6430   24.5540   30.5930 H   0  0  0  0  0  0  0  0  0  0  0  0
   38.0100   25.0010   33.2830 H   0  0  0  0  0  0  0  0  0  0  0  0
   37.6770   22.4740   32.1790 C   0  0  0  0  0  0  0  0  0  0  0  0
   36.4360   23.1010   32.0690 C   0  0  0  0  0  0  0  0  0  0  0  0
   35.3020   22.2960   32.0150 C   0  0  0  0  0  0  0  0  0  0  0  0
   35.4580   20.9060   32.0740 C   0  0  0  0  0  0  0  0  0  0  0  0
   34.5880   19.8910   32.0460 N   0  0  0  0  0  0  0  0  0  0  0  0
   35.2250   18.7290   32.1320 C   0  0  0  0  0  0  0  0  0  0  0  0
   36.5460   18.9790   32.2180 N   0  0  0  0  0  0  0  0  0  0  0  0
   36.6970   20.3070   32.1840 C   0  0  0  0  0  0  0  0  0  0  0  0
   37.8190   21.1040   32.2360 C   0  0  0  0  0  0  0  0  0  0  0  0
   38.6490   22.9740   32.2270 H   0  0  0  0  0  0  0  0  0  0  0  0
   34.3330   22.7670   31.9310 H   0  0  0  0  0  0  0  0  0  0  0  0
   33.5430   20.0750   31.9650 H   0  0  0  0  0  0  0  0  0  0  0  0
   34.6860   17.7900   32.1250 H   0  0  0  0  0  0  0  0  0  0  0  0
   38.7720   20.5940   32.3220 H   0  0  0  0  0  0  0  0  0  0  0  0
   35.8870   28.7300   31.5430 C   0  0  0  0  0  0  0  0  0  0  0  0
   36.8910   29.2040   31.4460 H   0  0  0  0  0  0  0  0  0  0  0  0
   35.3070   28.9320   30.6300 H   0  0  0  0  0  0  0  0  0  0  0  0
   35.2070   29.3310   32.7130 C   0  0  0  0  0  0  0  0  0  0  0  0
   33.8320   29.1390   32.8640 C   0  0  0  0  0  0  0  0  0  0  0  0
   33.3080   28.5480   32.1070 H   0  0  0  0  0  0  0  0  0  0  0  0
   33.1660   29.6820   33.9370 C   0  0  0  0  0  3  0  0  0  0  0  0
   33.8750   30.4200   34.8630 C   0  0  0  0  0  0  0  0  0  0  0  0
   33.0930   30.8970   35.8720 N   0  0  0  0  0  0  0  0  0  0  0  0
   33.6880   31.6410   36.8460 C   0  0  0  0  0  0  0  0  0  0  0  0
   33.1380   32.0570   37.6820 H   0  0  0  0  0  0  0  0  0  0  0  0
   35.0460   31.8610   36.7420 C   0  0  0  0  0  3  0  0  0  0  0  0
   35.8490   31.3800   35.7210 C   0  0  0  0  0  3  0  0  0  0  0  0
   35.2320   30.6220   34.7340 C   0  0  0  0  0  0  0  0  0  0  0  0
   35.9040   30.0770   33.6540 C   0  0  0  0  0  3  0  0  0  0  0  0
  1  2  1  0  0  0  0
  2 10  1  0  0  0  0
  2  3  2  0  0  0  0
  3  8  1  0  0  0  0
  4  3  1  0  0  0  0
  5  4  2  0  0  0  0
  6  1  2  0  0  0  0
  6  5  1  0  0  0  0
  7  1  1  0  0  0  0
  9 18  1  0  0  0  0
  9 17  1  0  0  0  0
 10  9  2  0  0  0  0
 11 10  1  0  0  0  0
 11 12  2  0  0  0  0
 12 16  1  0  0  0  0
 13 12  1  0  0  0  0
 13 14  1  0  0  0  0
 14 15  2  0  0  0  0
 16 15  1  0  0  0  0
 16 17  2  0  0  0  0
 17 22  1  0  0  0  0
 19 11  1  0  0  0  0
 20 13  1  0  0  0  0
 21 14  1  0  0  0  0
 23  5  1  0  0  0  0
 23 26  1  0  0  0  0
 24 23  1  0  0  0  0
 25 23  1  0  0  0  0
 26 27  2  0  0  0  0
 26 37  1  0  0  0  0
 27 29  1  0  0  0  0
 28 27  1  0  0  0  0
 29 30  2  0  0  0  0
 30 31  1  0  0  0  0
 31 32  2  0  0  0  0
 32 33  1  0  0  0  0
 34 32  1  0  0  0  0
 35 34  2  0  0  0  0
 36 30  1  0  0  0  0
 36 35  1  0  0  0  0
 37 36  2  0  0  0  0
M  END
>  <minimizedAffinity>
-6.49140263

$$$$

 OpenBabel03272501453D

 37 41  0  0  0  0  0  0  0  0999 V2000
   37.5790   25.6850   33.8880 C   0  0  0  0  0  0  0  0  0  0  0  0
   38.1230   26.0030   35.1680 C   0  0  0  0  0  0  0  0  0  0  0  0
   37.9030   27.2810   35.6490 C   0  0  0  0  0  0  0  0  0  0  0  0
   37.1880   28.1460   34.8810 N   0  0  0  0  0  0  0  0  0  0  0  0
   36.6870   27.8200   33.6800 C   0  0  0  0  0  0  0  0  0  0  0  0
   36.8870   26.5820   33.1880 N   0  0  0  0  0  0  0  0  0  0  0  0
   37.6420   24.7470   33.3340 H   0  0  0  0  0  0  0  0  0  0  0  0
   38.3280   27.4890   36.6170 H   0  0  0  0  0  0  0  0  0  0  0  0
   38.2860   24.3710   36.9580 C   0  0  0  0  0  0  0  0  0  0  0  0
   38.8330   24.9140   35.7960 C   0  0  0  0  0  0  0  0  0  0  0  0
   40.0240   24.3750   35.3210 C   0  0  0  0  0  0  0  0  0  0  0  0
   40.6140   23.3180   36.0260 C   0  0  0  0  0  0  0  0  0  0  0  0
   41.7270   22.6040   35.8300 N   0  0  0  0  0  0  0  0  0  0  0  0
   41.8680   21.6910   36.7840 C   0  0  0  0  0  0  0  0  0  0  0  0
   40.8260   21.8020   37.6300 N   0  0  0  0  0  0  0  0  0  0  0  0
   40.0540   22.7940   37.1730 C   0  0  0  0  0  0  0  0  0  0  0  0
   38.8750   23.3300   37.6440 C   0  0  0  0  0  0  0  0  0  0  0  0
   37.3630   24.6930   37.4480 H   0  0  0  0  0  0  0  0  0  0  0  0
   40.4590   24.7850   34.4220 H   0  0  0  0  0  0  0  0  0  0  0  0
   42.3600   22.8040   34.9990 H   0  0  0  0  0  0  0  0  0  0  0  0
   42.7140   21.0150   36.7950 H   0  0  0  0  0  0  0  0  0  0  0  0
   38.4690   22.8890   38.5480 H   0  0  0  0  0  0  0  0  0  0  0  0
   35.9070   28.8330   32.9060 C   0  0  0  0  0  0  0  0  0  0  0  0
   36.6020   29.4070   32.2500 H   0  0  0  0  0  0  0  0  0  0  0  0
   35.1730   28.3090   32.2760 H   0  0  0  0  0  0  0  0  0  0  0  0
   35.2120   29.7950   33.7910 C   0  0  0  0  0  0  0  0  0  0  0  0
   35.7010   31.1010   33.8830 C   0  0  0  0  0  0  0  0  0  0  0  0
   36.5840   31.3630   33.2930 H   0  0  0  0  0  0  0  0  0  0  0  0
   35.0820   32.0210   34.6950 C   0  0  0  0  0  3  0  0  0  0  0  0
   33.9710   31.6380   35.4190 C   0  0  0  0  0  0  0  0  0  0  0  0
   33.4600   32.6480   36.1790 N   0  0  0  0  0  0  0  0  0  0  0  0
   32.3590   32.3830   36.9370 C   0  0  0  0  0  0  0  0  0  0  0  0
   31.8910   33.1290   37.5680 H   0  0  0  0  0  0  0  0  0  0  0  0
   31.8370   31.1070   36.8820 C   0  0  0  0  0  3  0  0  0  0  0  0
   32.3490   30.0760   36.1120 C   0  0  0  0  0  3  0  0  0  0  0  0
   33.4720   30.3560   35.3430 C   0  0  0  0  0  0  0  0  0  0  0  0
   34.0930   29.4280   34.5270 C   0  0  0  0  0  3  0  0  0  0  0  0
  1  2  1  0  0  0  0
  2  3  2  0  0  0  0
  2 10  1  0  0  0  0
  3  8  1  0  0  0  0
  4  3  1  0  0  0  0
  5  4  2  0  0  0  0
  6  5  1  0  0  0  0
  6  1  2  0  0  0  0
  7  1  1  0  0  0  0
  9 18  1  0  0  0  0
  9 17  1  0  0  0  0
 10  9  2  0  0  0  0
 11 10  1  0  0  0  0
 11 12  2  0  0  0  0
 12 16  1  0  0  0  0
 13 12  1  0  0  0  0
 13 14  1  0  0  0  0
 14 21  1  0  0  0  0
 14 15  2  0  0  0  0
 16 15  1  0  0  0  0
 16 17  2  0  0  0  0
 17 22  1  0  0  0  0
 19 11  1  0  0  0  0
 20 13  1  0  0  0  0
 23  5  1  0  0  0  0
 23 26  1  0  0  0  0
 24 23  1  0  0  0  0
 25 23  1  0  0  0  0
 26 27  2  0  0  0  0
 26 37  1  0  0  0  0
 27 29  1  0  0  0  0
 28 27  1  0  0  0  0
 29 30  2  0  0  0  0
 30 31  1  0  0  0  0
 31 32  2  0  0  0  0
 32 33  1  0  0  0  0
 34 32  1  0  0  0  0
 35 34  2  0  0  0  0
 36 30  1  0  0  0  0
 36 35  1  0  0  0  0
 37 36  2  0  0  0  0
M  END
>  <minimizedAffinity>
-6.43398476

$$$$

 OpenBabel03272501453D

 37 41  0  0  0  0  0  0  0  0999 V2000
   38.9880   26.4090   33.6550 C   0  0  0  0  0  0  0  0  0  0  0  0
   38.6480   25.7640   34.8820 C   0  0  0  0  0  0  0  0  0  0  0  0
   37.4450   26.1150   35.4680 C   0  0  0  0  0  0  0  0  0  0  0  0
   36.6690   27.0430   34.8460 N   0  0  0  0  0  0  0  0  0  0  0  0
   37.0140   27.6340   33.6920 C   0  0  0  0  0  0  0  0  0  0  0  0
   38.1800   27.3100   33.1000 N   0  0  0  0  0  0  0  0  0  0  0  0
   39.8810   26.2800   33.0420 H   0  0  0  0  0  0  0  0  0  0  0  0
   37.2180   25.6120   36.3930 H   0  0  0  0  0  0  0  0  0  0  0  0
   40.9440   24.9800   34.9170 C   0  0  0  0  0  0  0  0  0  0  0  0
   39.6260   24.8070   35.3380 C   0  0  0  0  0  0  0  0  0  0  0  0
   39.3420   23.7260   36.1660 C   0  0  0  0  0  0  0  0  0  0  0  0
   40.3860   22.8680   36.5360 C   0  0  0  0  0  0  0  0  0  0  0  0
   40.4340   21.7720   37.3000 N   0  0  0  0  0  0  0  0  0  0  0  0
   41.6720   21.2970   37.3560 C   0  0  0  0  0  0  0  0  0  0  0  0
   42.4630   22.0960   36.6120 N   0  0  0  0  0  0  0  0  0  0  0  0
   41.6840   23.0590   36.1080 C   0  0  0  0  0  0  0  0  0  0  0  0
   41.9640   24.1300   35.2870 C   0  0  0  0  0  0  0  0  0  0  0  0
   41.3140   25.7770   34.2640 H   0  0  0  0  0  0  0  0  0  0  0  0
   38.3260   23.5790   36.5000 H   0  0  0  0  0  0  0  0  0  0  0  0
   39.5530   21.3960   37.7640 H   0  0  0  0  0  0  0  0  0  0  0  0
   41.9100   20.4100   37.9290 H   0  0  0  0  0  0  0  0  0  0  0  0
   42.9960   24.2430   34.9750 H   0  0  0  0  0  0  0  0  0  0  0  0
   36.0960   28.6390   33.0730 C   0  0  0  0  0  0  0  0  0  0  0  0
   36.6750   29.2770   32.3670 H   0  0  0  0  0  0  0  0  0  0  0  0
   35.3130   28.1070   32.5140 H   0  0  0  0  0  0  0  0  0  0  0  0
   35.4760   29.5230   34.0870 C   0  0  0  0  0  0  0  0  0  0  0  0
   36.2900   30.4100   34.7950 C   0  0  0  0  0  0  0  0  0  0  0  0
   37.3610   30.4180   34.5710 H   0  0  0  0  0  0  0  0  0  0  0  0
   35.7500   31.2460   35.7430 C   0  0  0  0  0  3  0  0  0  0  0  0
   34.3920   31.1960   35.9870 C   0  0  0  0  0  0  0  0  0  0  0  0
   33.9940   32.0760   36.9480 N   0  0  0  0  0  0  0  0  0  0  0  0
   32.6700   32.1140   37.2720 C   0  0  0  0  0  0  0  0  0  0  0  0
   32.2720   32.7840   38.0240 H   0  0  0  0  0  0  0  0  0  0  0  0
   31.8230   31.2560   36.6010 C   0  0  0  0  0  3  0  0  0  0  0  0
   32.2190   30.3590   35.6220 C   0  0  0  0  0  3  0  0  0  0  0  0
   33.5710   30.3290   35.3000 C   0  0  0  0  0  0  0  0  0  0  0  0
   34.1120   29.4870   34.3450 C   0  0  0  0  0  3  0  0  0  0  0  0
  1  2  1  0  0  0  0
  2 10  1  0  0  0  0
  2  3  2  0  0  0  0
  3  8  1  0  0  0  0
  4  3  1  0  0  0  0
  5  4  2  0  0  0  0
  6  1  2  0  0  0  0
  6  5  1  0  0  0  0
  7  1  1  0  0  0  0
  9 17  2  0  0  0  0
  9 10  1  0  0  0  0
 10 11  2  0  0  0  0
 11 19  1  0  0  0  0
 11 12  1  0  0  0  0
 12 13  1  0  0  0  0
 13 14  1  0  0  0  0
 13 20  1  0  0  0  0
 14 21  1  0  0  0  0
 15 14  2  0  0  0  0
 16 12  2  0  0  0  0
 16 15  1  0  0  0  0
 17 16  1  0  0  0  0
 18  9  1  0  0  0  0
 22 17  1  0  0  0  0
 23  5  1  0  0  0  0
 23 26  1  0  0  0  0
 24 23  1  0  0  0  0
 25 23  1  0  0  0  0
 26 37  2  0  0  0  0
 26 27  1  0  0  0  0
 27 29  2  0  0  0  0
 28 27  1  0  0  0  0
 29 30  1  0  0  0  0
 30 31  1  0  0  0  0
 31 32  2  0  0  0  0
 32 33  1  0  0  0  0
 34 32  1  0  0  0  0
 35 34  2  0  0  0  0
 36 35  1  0  0  0  0
 36 30  2  0  0  0  0
 37 36  1  0  0  0  0
M  END
>  <minimizedAffinity>
-6.32863617

$$$$

 OpenBabel03272501453D

 37 41  0  0  0  0  0  0  0  0999 V2000
   35.8780   29.3760   32.6690 C   0  0  0  0  0  0  0  0  0  0  0  0
   35.9350   29.1290   34.0740 C   0  0  0  0  0  0  0  0  0  0  0  0
   36.6700   28.0330   34.4940 C   0  0  0  0  0  0  0  0  0  0  0  0
   37.2850   27.2690   33.5520 N   0  0  0  0  0  0  0  0  0  0  0  0
   37.2140   27.5250   32.2370 C   0  0  0  0  0  0  0  0  0  0  0  0
   36.5050   28.5850   31.8010 N   0  0  0  0  0  0  0  0  0  0  0  0
   35.3550   30.1730   32.1390 H   0  0  0  0  0  0  0  0  0  0  0  0
   36.6920   27.8740   35.5580 H   0  0  0  0  0  0  0  0  0  0  0  0
   35.9550   30.9920   35.6290 C   0  0  0  0  0  0  0  0  0  0  0  0
   35.2110   30.0860   34.8730 C   0  0  0  0  0  0  0  0  0  0  0  0
   33.8230   30.1640   34.9420 C   0  0  0  0  0  0  0  0  0  0  0  0
   33.2430   31.1420   35.7590 C   0  0  0  0  0  0  0  0  0  0  0  0
   31.9730   31.4640   36.0300 N   0  0  0  0  0  0  0  0  0  0  0  0
   31.9230   32.4830   36.8800 C   0  0  0  0  0  0  0  0  0  0  0  0
   33.1860   32.8440   37.1800 N   0  0  0  0  0  0  0  0  0  0  0  0
   33.9990   32.0300   36.4980 C   0  0  0  0  0  0  0  0  0  0  0  0
   35.3730   31.9510   36.4300 C   0  0  0  0  0  0  0  0  0  0  0  0
   37.0460   31.0470   35.6790 H   0  0  0  0  0  0  0  0  0  0  0  0
   33.2340   29.4700   34.3620 H   0  0  0  0  0  0  0  0  0  0  0  0
   31.1710   30.9270   35.5840 H   0  0  0  0  0  0  0  0  0  0  0  0
   30.9770   32.8860   37.2190 H   0  0  0  0  0  0  0  0  0  0  0  0
   35.9290   32.6670   37.0260 H   0  0  0  0  0  0  0  0  0  0  0  0
   37.9280   26.6350   31.2710 C   0  0  0  0  0  0  0  0  0  0  0  0
   37.8570   27.0730   30.2490 H   0  0  0  0  0  0  0  0  0  0  0  0
   38.9870   26.5740   31.5620 H   0  0  0  0  0  0  0  0  0  0  0  0
   37.3410   25.2760   31.2290 C   0  0  0  0  0  0  0  0  0  0  0  0
   35.9510   25.1430   31.2150 C   0  0  0  0  0  0  0  0  0  0  0  0
   35.3460   26.0540   31.2350 H   0  0  0  0  0  0  0  0  0  0  0  0
   35.3700   23.8970   31.1770 C   0  0  0  0  0  3  0  0  0  0  0  0
   36.1800   22.7800   31.1530 C   0  0  0  0  0  0  0  0  0  0  0  0
   35.4730   21.6150   31.1160 N   0  0  0  0  0  0  0  0  0  0  0  0
   36.1710   20.4440   31.0890 C   0  0  0  0  0  0  0  0  0  0  0  0
   35.6870   19.4760   31.0590 H   0  0  0  0  0  0  0  0  0  0  0  0
   37.5490   20.5210   31.1030 C   0  0  0  0  0  3  0  0  0  0  0  0
   38.2750   21.7010   31.1400 C   0  0  0  0  0  3  0  0  0  0  0  0
   37.5530   22.8880   31.1670 C   0  0  0  0  0  0  0  0  0  0  0  0
   38.1400   24.1400   31.2050 C   0  0  0  0  0  3  0  0  0  0  0  0
  1  2  1  0  0  0  0
  2  3  2  0  0  0  0
  2 10  1  0  0  0  0
  3  8  1  0  0  0  0
  4  3  1  0  0  0  0
  5  4  2  0  0  0  0
  6  5  1  0  0  0  0
  6  1  2  0  0  0  0
  7  1  1  0  0  0  0
  9 18  1  0  0  0  0
  9 17  1  0  0  0  0
 10 11  1  0  0  0  0
 10  9  2  0  0  0  0
 11 12  2  0  0  0  0
 12 13  1  0  0  0  0
 12 16  1  0  0  0  0
 13 14  1  0  0  0  0
 14 15  2  0  0  0  0
 14 21  1  0  0  0  0
 16 15  1  0  0  0  0
 17 16  2  0  0  0  0
 17 22  1  0  0  0  0
 19 11  1  0  0  0  0
 20 13  1  0  0  0  0
 23 25  1  0  0  0  0
 23  5  1  0  0  0  0
 24 23  1  0  0  0  0
 26 23  1  0  0  0  0
 27 26  1  0  0  0  0
 27 28  1  0  0  0  0
 29 27  2  0  0  0  0
 30 36  1  0  0  0  0
 30 29  1  0  0  0  0
 31 30  2  0  0  0  0
 32 34  2  0  0  0  0
 32 31  1  0  0  0  0
 33 32  1  0  0  0  0
 34 35  1  0  0  0  0
 35 36  2  0  0  0  0
 36 37  1  0  0  0  0
 37 26  2  0  0  0  0
M  END
>  <minimizedAffinity>
-6.29583311

$$$$

 OpenBabel03272501453D

 37 41  0  0  0  0  0  0  0  0999 V2000
   36.0180   25.9380   30.8180 C   0  0  0  0  0  0  0  0  0  0  0  0
   36.5990   25.1460   31.8540 C   0  0  0  0  0  0  0  0  0  0  0  0
   37.0570   25.8120   32.9770 C   0  0  0  0  0  0  0  0  0  0  0  0
   36.9250   27.1650   33.0250 N   0  0  0  0  0  0  0  0  0  0  0  0
   36.3740   27.8840   32.0350 C   0  0  0  0  0  0  0  0  0  0  0  0
   35.9210   27.2610   30.9300 N   0  0  0  0  0  0  0  0  0  0  0  0
   35.6070   25.6120   29.8610 H   0  0  0  0  0  0  0  0  0  0  0  0
   37.4900   25.1870   33.7400 H   0  0  0  0  0  0  0  0  0  0  0  0
   35.4630   23.0010   31.8690 C   0  0  0  0  0  0  0  0  0  0  0  0
   36.6160   23.7300   31.5780 C   0  0  0  0  0  0  0  0  0  0  0  0
   37.7040   23.0460   31.0440 C   0  0  0  0  0  0  0  0  0  0  0  0
   37.5910   21.6670   30.8250 C   0  0  0  0  0  0  0  0  0  0  0  0
   38.4350   20.7520   30.3370 N   0  0  0  0  0  0  0  0  0  0  0  0
   37.8640   19.5540   30.3220 C   0  0  0  0  0  0  0  0  0  0  0  0
   36.6140   19.6760   30.8100 N   0  0  0  0  0  0  0  0  0  0  0  0
   36.4390   20.9660   31.1190 C   0  0  0  0  0  0  0  0  0  0  0  0
   35.3630   21.6440   31.6490 C   0  0  0  0  0  0  0  0  0  0  0  0
   34.5380   23.4000   32.2940 H   0  0  0  0  0  0  0  0  0  0  0  0
   38.6030   23.5970   30.8140 H   0  0  0  0  0  0  0  0  0  0  0  0
   39.4140   21.0290   30.0260 H   0  0  0  0  0  0  0  0  0  0  0  0
   38.3950   18.6820   29.9590 H   0  0  0  0  0  0  0  0  0  0  0  0
   34.4780   21.0550   31.8650 H   0  0  0  0  0  0  0  0  0  0  0  0
   36.2630   29.3690   32.1740 C   0  0  0  0  0  0  0  0  0  0  0  0
   37.2680   29.7900   32.4070 H   0  0  0  0  0  0  0  0  0  0  0  0
   35.9120   29.7890   31.2200 H   0  0  0  0  0  0  0  0  0  0  0  0
   35.3380   29.7570   33.2630 C   0  0  0  0  0  0  0  0  0  0  0  0
   34.0370   29.2480   33.2560 C   0  0  0  0  0  0  0  0  0  0  0  0
   33.7510   28.5770   32.4400 H   0  0  0  0  0  0  0  0  0  0  0  0
   33.1510   29.5870   34.2500 C   0  0  0  0  0  3  0  0  0  0  0  0
   33.5630   30.4380   35.2560 C   0  0  0  0  0  0  0  0  0  0  0  0
   32.5860   30.6880   36.1720 N   0  0  0  0  0  0  0  0  0  0  0  0
   32.8810   31.5170   37.2130 C   0  0  0  0  0  0  0  0  0  0  0  0
   32.1620   31.7670   37.9830 H   0  0  0  0  0  0  0  0  0  0  0  0
   34.1540   32.0470   37.2650 C   0  0  0  0  0  3  0  0  0  0  0  0
   35.1530   31.7990   36.3390 C   0  0  0  0  0  3  0  0  0  0  0  0
   34.8410   30.9520   35.2830 C   0  0  0  0  0  0  0  0  0  0  0  0
   35.7350   30.6120   34.2830 C   0  0  0  0  0  3  0  0  0  0  0  0
  1  6  2  0  0  0  0
  1  2  1  0  0  0  0
  2  3  2  0  0  0  0
  3  4  1  0  0  0  0
  3  8  1  0  0  0  0
  5 23  1  0  0  0  0
  5  4  2  0  0  0  0
  6  5  1  0  0  0  0
  7  1  1  0  0  0  0
  9 18  1  0  0  0  0
 10  2  1  0  0  0  0
 10  9  2  0  0  0  0
 11 10  1  0  0  0  0
 12 11  2  0  0  0  0
 12 16  1  0  0  0  0
 13 12  1  0  0  0  0
 14 13  1  0  0  0  0
 14 15  2  0  0  0  0
 15 16  1  0  0  0  0
 16 17  2  0  0  0  0
 17 22  1  0  0  0  0
 17  9  1  0  0  0  0
 19 11  1  0  0  0  0
 20 13  1  0  0  0  0
 21 14  1  0  0  0  0
 23 24  1  0  0  0  0
 23 26  1  0  0  0  0
 25 23  1  0  0  0  0
 26 37  1  0  0  0  0
 27 26  2  0  0  0  0
 27 29  1  0  0  0  0
 28 27  1  0  0  0  0
 29 30  2  0  0  0  0
 30 36  1  0  0  0  0
 30 31  1  0  0  0  0
 31 32  2  0  0  0  0
 32 34  1  0  0  0  0
 32 33  1  0  0  0  0
 35 34  2  0  0  0  0
 36 35  1  0  0  0  0
 37 36  2  0  0  0  0
M  END
>  <minimizedAffinity>
-6.26091909

$$$$

 OpenBabel03272501453D

 37 41  0  0  0  0  0  0  0  0999 V2000
   36.6410   27.9700   34.5710 C   0  0  0  0  0  0  0  0  0  0  0  0
   35.9250   28.9550   33.8270 C   0  0  0  0  0  0  0  0  0  0  0  0
   36.0350   28.9090   32.4480 C   0  0  0  0  0  0  0  0  0  0  0  0
   36.8090   27.9380   31.8940 N   0  0  0  0  0  0  0  0  0  0  0  0
   37.4710   27.0230   32.6190 C   0  0  0  0  0  0  0  0  0  0  0  0
   37.3820   27.0460   33.9630 N   0  0  0  0  0  0  0  0  0  0  0  0
   36.6910   27.8370   35.6530 H   0  0  0  0  0  0  0  0  0  0  0  0
   35.4840   29.6660   31.9160 H   0  0  0  0  0  0  0  0  0  0  0  0
   33.7740   29.8400   34.5210 C   0  0  0  0  0  0  0  0  0  0  0  0
   35.1630   29.8730   34.6390 C   0  0  0  0  0  0  0  0  0  0  0  0
   35.7220   30.7870   35.5270 C   0  0  0  0  0  0  0  0  0  0  0  0
   34.8690   31.6240   36.2570 C   0  0  0  0  0  0  0  0  0  0  0  0
   35.0920   32.5800   37.1650 N   0  0  0  0  0  0  0  0  0  0  0  0
   33.9450   33.1020   37.5820 C   0  0  0  0  0  0  0  0  0  0  0  0
   32.9390   32.4790   36.9370 N   0  0  0  0  0  0  0  0  0  0  0  0
   33.4960   31.5730   36.1260 C   0  0  0  0  0  0  0  0  0  0  0  0
   32.9440   30.6690   35.2450 C   0  0  0  0  0  0  0  0  0  0  0  0
   33.1980   29.1820   33.8650 H   0  0  0  0  0  0  0  0  0  0  0  0
   36.7960   30.8240   35.6290 H   0  0  0  0  0  0  0  0  0  0  0  0
   36.0840   32.8290   37.4570 H   0  0  0  0  0  0  0  0  0  0  0  0
   33.9230   33.8940   38.3210 H   0  0  0  0  0  0  0  0  0  0  0  0
   31.8620   30.6620   35.1730 H   0  0  0  0  0  0  0  0  0  0  0  0
   38.2950   25.9860   31.9260 C   0  0  0  0  0  0  0  0  0  0  0  0
   38.2070   26.1260   30.8240 H   0  0  0  0  0  0  0  0  0  0  0  0
   39.3470   26.1140   32.2200 H   0  0  0  0  0  0  0  0  0  0  0  0
   37.8460   24.6120   32.2500 C   0  0  0  0  0  0  0  0  0  0  0  0
   38.4780   23.9260   33.2900 C   0  0  0  0  0  0  0  0  0  0  0  0
   39.2840   24.4340   33.8280 H   0  0  0  0  0  0  0  0  0  0  0  0
   38.0890   22.6490   33.6190 C   0  0  0  0  0  3  0  0  0  0  0  0
   37.0660   22.0550   32.9080 C   0  0  0  0  0  0  0  0  0  0  0  0
   36.7850   20.7930   33.3400 N   0  0  0  0  0  0  0  0  0  0  0  0
   35.7900   20.1080   32.7090 C   0  0  0  0  0  0  0  0  0  0  0  0
   35.5040   19.1020   32.9900 H   0  0  0  0  0  0  0  0  0  0  0  0
   35.1340   20.7420   31.6730 C   0  0  0  0  0  3  0  0  0  0  0  0
   35.4130   22.0240   31.2280 C   0  0  0  0  0  3  0  0  0  0  0  0
   36.4300   22.7130   31.8790 C   0  0  0  0  0  0  0  0  0  0  0  0
   36.8190   23.9980   31.5450 C   0  0  0  0  0  3  0  0  0  0  0  0
  1  7  1  0  0  0  0
  2  1  2  0  0  0  0
  2 10  1  0  0  0  0
  3  2  1  0  0  0  0
  4  3  2  0  0  0  0
  4  5  1  0  0  0  0
  5  6  2  0  0  0  0
  6  1  1  0  0  0  0
  8  3  1  0  0  0  0
  9 10  2  0  0  0  0
  9 17  1  0  0  0  0
 10 11  1  0  0  0  0
 11 19  1  0  0  0  0
 11 12  2  0  0  0  0
 12 13  1  0  0  0  0
 13 20  1  0  0  0  0
 13 14  1  0  0  0  0
 14 21  1  0  0  0  0
 15 14  2  0  0  0  0
 16 12  1  0  0  0  0
 16 15  1  0  0  0  0
 17 16  2  0  0  0  0
 18  9  1  0  0  0  0
 22 17  1  0  0  0  0
 23 25  1  0  0  0  0
 23 26  1  0  0  0  0
 23  5  1  0  0  0  0
 24 23  1  0  0  0  0
 26 27  1  0  0  0  0
 27 29  2  0  0  0  0
 27 28  1  0  0  0  0
 30 31  1  0  0  0  0
 30 29  1  0  0  0  0
 32 33  1  0  0  0  0
 32 31  2  0  0  0  0
 34 32  1  0  0  0  0
 35 34  2  0  0  0  0
 35 36  1  0  0  0  0
 36 30  2  0  0  0  0
 37 36  1  0  0  0  0
 37 26  2  0  0  0  0
M  END
>  <minimizedAffinity>
-6.24449062

$$$$

 OpenBabel03272501453D

 37 41  0  0  0  0  0  0  0  0999 V2000
   37.2050   26.6800   34.8920 C   0  0  0  0  0  0  0  0  0  0  0  0
   38.3200   26.2340   34.1200 C   0  0  0  0  0  0  0  0  0  0  0  0
   38.4490   26.7470   32.8410 C   0  0  0  0  0  0  0  0  0  0  0  0
   37.5170   27.6360   32.4040 N   0  0  0  0  0  0  0  0  0  0  0  0
   36.4790   28.0380   33.1530 C   0  0  0  0  0  0  0  0  0  0  0  0
   36.3290   27.5540   34.4010 N   0  0  0  0  0  0  0  0  0  0  0  0
   36.9230   26.3970   35.9070 H   0  0  0  0  0  0  0  0  0  0  0  0
   39.2990   26.3900   32.2850 H   0  0  0  0  0  0  0  0  0  0  0  0
   40.5410   25.3370   34.5140 C   0  0  0  0  0  0  0  0  0  0  0  0
   39.1770   25.2980   34.8050 C   0  0  0  0  0  0  0  0  0  0  0  0
   38.7350   24.3600   35.7320 C   0  0  0  0  0  0  0  0  0  0  0  0
   39.6720   23.5050   36.3270 C   0  0  0  0  0  0  0  0  0  0  0  0
   39.5640   22.5250   37.2300 N   0  0  0  0  0  0  0  0  0  0  0  0
   40.7550   21.9960   37.4860 C   0  0  0  0  0  0  0  0  0  0  0  0
   41.6710   22.6380   36.7360 N   0  0  0  0  0  0  0  0  0  0  0  0
   41.0180   23.5630   36.0250 C   0  0  0  0  0  0  0  0  0  0  0  0
   41.4550   24.4920   35.1060 C   0  0  0  0  0  0  0  0  0  0  0  0
   41.0300   26.0140   33.8080 H   0  0  0  0  0  0  0  0  0  0  0  0
   37.6820   24.3170   35.9680 H   0  0  0  0  0  0  0  0  0  0  0  0
   38.6170   22.2670   37.6390 H   0  0  0  0  0  0  0  0  0  0  0  0
   40.8690   21.1850   38.1950 H   0  0  0  0  0  0  0  0  0  0  0  0
   42.5190   24.5030   34.8980 H   0  0  0  0  0  0  0  0  0  0  0  0
   35.5040   29.0250   32.5940 C   0  0  0  0  0  0  0  0  0  0  0  0
   35.7710   29.2420   31.5350 H   0  0  0  0  0  0  0  0  0  0  0  0
   34.4970   28.5850   32.6270 H   0  0  0  0  0  0  0  0  0  0  0  0
   35.5170   30.3030   33.3420 C   0  0  0  0  0  0  0  0  0  0  0  0
   36.0230   31.4450   32.7140 C   0  0  0  0  0  0  0  0  0  0  0  0
   36.3910   31.3490   31.6890 H   0  0  0  0  0  0  0  0  0  0  0  0
   36.0510   32.6490   33.3770 C   0  0  0  0  0  3  0  0  0  0  0  0
   35.5740   32.7150   34.6710 C   0  0  0  0  0  0  0  0  0  0  0  0
   35.6620   33.9660   35.2040 N   0  0  0  0  0  0  0  0  0  0  0  0
   35.2190   34.1490   36.4800 C   0  0  0  0  0  0  0  0  0  0  0  0
   35.2530   35.1110   36.9780 H   0  0  0  0  0  0  0  0  0  0  0  0
   34.7110   33.0520   37.1440 C   0  0  0  0  0  3  0  0  0  0  0  0
   34.6170   31.7770   36.6090 C   0  0  0  0  0  3  0  0  0  0  0  0
   35.0720   31.6020   35.3080 C   0  0  0  0  0  0  0  0  0  0  0  0
   35.0420   30.3890   34.6430 C   0  0  0  0  0  3  0  0  0  0  0  0
  1  7  1  0  0  0  0
  2 10  1  0  0  0  0
  2  1  2  0  0  0  0
  3  2  1  0  0  0  0
  4  3  2  0  0  0  0
  4  5  1  0  0  0  0
  5  6  2  0  0  0  0
  6  1  1  0  0  0  0
  8  3  1  0  0  0  0
  9 10  2  0  0  0  0
  9 17  1  0  0  0  0
 10 11  1  0  0  0  0
 11 19  1  0  0  0  0
 11 12  2  0  0  0  0
 12 13  1  0  0  0  0
 13 14  1  0  0  0  0
 13 20  1  0  0  0  0
 14 21  1  0  0  0  0
 15 14  2  0  0  0  0
 16 12  1  0  0  0  0
 16 15  1  0  0  0  0
 17 16  2  0  0  0  0
 18  9  1  0  0  0  0
 22 17  1  0  0  0  0
 23 25  1  0  0  0  0
 23  5  1  0  0  0  0
 23 26  1  0  0  0  0
 24 23  1  0  0  0  0
 26 37  1  0  0  0  0
 27 26  2  0  0  0  0
 27 29  1  0  0  0  0
 28 27  1  0  0  0  0
 29 30  2  0  0  0  0
 30 31  1  0  0  0  0
 30 36  1  0  0  0  0
 31 32  2  0  0  0  0
 32 33  1  0  0  0  0
 32 34  1  0  0  0  0
 35 34  2  0  0  0  0
 36 35  1  0  0  0  0
 37 36  2  0  0  0  0
M  END
>  <minimizedAffinity>
-6.2235465

$$$$
