
 OpenBabel03262523033D

 29 32  0  0  0  0  0  0  0  0999 V2000
   37.5100   31.1250   49.5950 C   0  0  0  0  0  0  0  0  0  0  0  0
   37.7520   30.6710   50.8610 C   0  0  0  0  0  0  0  0  0  0  0  0
   36.9270   29.7140   51.3830 C   0  0  0  0  0  0  0  0  0  0  0  0
   35.8850   29.2290   50.6500 N   0  0  0  0  0  0  0  0  0  0  0  0
   35.6830   29.6980   49.4180 C   0  0  0  0  0  0  0  0  0  0  0  0
   36.4810   30.6440   48.8730 N   0  0  0  0  0  0  0  0  0  0  0  0
   38.5720   31.0440   51.4540 H   0  0  0  0  0  0  0  0  0  0  0  0
   37.0870   29.3300   52.3810 H   0  0  0  0  0  0  0  0  0  0  0  0
   34.5720   29.1810   48.6340 C   0  0  0  0  0  0  0  0  0  0  0  0
   34.5030   29.3790   47.2770 C   0  0  0  0  0  0  0  0  0  0  0  0
   35.3290   29.9450   46.8260 H   0  0  0  0  0  0  0  0  0  0  0  0
   33.5230   28.9550   46.4050 C   0  0  0  0  0  0  0  0  0  0  0  0
   32.4980   28.2440   47.0170 C   0  0  0  0  0  0  0  0  0  0  0  0
   31.4930   27.7900   46.2300 N   0  0  0  0  0  0  0  0  0  0  0  0
   30.4510   27.0910   46.7160 C   0  0  0  0  0  0  0  0  0  0  0  0
   29.6870   26.7650   46.0080 H   0  0  0  0  0  0  0  0  0  0  0  0
   30.4040   26.8240   48.0800 C   0  0  0  0  0  0  0  0  0  0  0  0
   31.4280   27.2830   48.8960 C   0  0  0  0  0  0  0  0  0  0  0  0
   32.5010   28.0060   48.3800 C   0  0  0  0  0  0  0  0  0  0  0  0
   33.5250   28.4680   49.1800 C   0  0  0  0  0  0  0  0  0  0  0  0
   39.4930   34.1830   49.0640 C   0  0  0  0  0  0  0  0  0  0  0  0
   39.9420   34.0340   47.7480 C   0  0  0  0  0  0  0  0  0  0  0  0
   39.5520   32.8610   47.0420 C   0  0  0  0  0  0  0  0  0  0  0  0
   38.7660   31.9640   47.7000 N   0  0  0  0  0  0  0  0  0  0  0  0
   38.3560   32.1510   48.9730 C   0  0  0  0  0  0  0  0  0  0  0  0
   38.7250   33.2590   49.6410 N   0  0  0  0  0  0  0  0  0  0  0  0
   39.7970   35.0800   49.5900 H   0  0  0  0  0  0  0  0  0  0  0  0
   40.5680   34.7660   47.2510 H   0  0  0  0  0  0  0  0  0  0  0  0
   39.8720   32.7090   46.0390 H   0  0  0  0  0  0  0  0  0  0  0  0
  1  2  1  0  0  0  0
  2  3  2  0  0  0  0
  2  7  1  0  0  0  0
  3  8  1  0  0  0  0
  4  3  1  0  0  0  0
  5  4  2  0  0  0  0
  6  5  1  0  0  0  0
  6  1  2  0  0  0  0
  9 20  1  0  0  0  0
  9  5  1  0  0  0  0
 10  9  2  0  0  0  0
 11 10  1  0  0  0  0
 12 13  2  0  0  0  0
 12 10  1  0  0  0  0
 13 19  1  0  0  0  0
 14 15  2  0  0  0  0
 14 13  1  0  0  0  0
 15 17  1  0  0  0  0
 16 15  1  0  0  0  0
 17 18  2  0  0  0  0
 19 18  1  0  0  0  0
 19 20  2  0  0  0  0
 21 27  1  0  0  0  0
 21 26  1  0  0  0  0
 22 21  2  0  0  0  0
 23 24  2  0  0  0  0
 23 22  1  0  0  0  0
 24 25  1  0  0  0  0
 25  1  1  0  0  0  0
 25 26  2  0  0  0  0
 28 22  1  0  0  0  0
 29 23  1  0  0  0  0
M  END
>  <minimizedAffinity>
-6.3879776

>  <minimizedRMSD>
3.15654993

$$$$
