
 OpenBabel03272501583D

 34 37  0  0  0  0  0  0  0  0999 V2000
   32.9180   27.8490   47.8860 C   0  0  0  0  0  0  0  0  0  0  0  0
   32.3020   26.6300   47.9830 C   0  0  0  0  0  0  0  0  0  0  0  0
   30.9470   26.7540   47.7220 C   0  0  0  0  0  0  0  0  0  0  0  0
   30.7810   28.0660   47.4690 N   0  0  0  0  0  0  0  0  0  0  0  0
   31.9270   28.7150   47.5620 N   0  0  0  0  0  0  0  0  0  0  0  0
   32.7320   25.6550   48.2260 H   0  0  0  0  0  0  0  0  0  0  0  0
   30.1120   26.0660   47.6910 H   0  0  0  0  0  0  0  0  0  0  0  0
   29.6510   28.8640   47.1330 C   0  0  0  0  0  0  0  0  0  0  0  0
   28.5300   28.9620   47.9300 C   0  0  0  0  0  0  0  0  0  0  0  0
   28.5130   28.4070   48.8470 H   0  0  0  0  0  0  0  0  0  0  0  0
   27.4980   29.7770   47.4820 C   0  0  0  0  0  3  0  0  0  0  0  0
   27.5920   30.4580   46.2920 C   0  0  0  0  0  0  0  0  0  0  0  0
   26.5730   31.2350   45.8950 N   0  0  0  0  0  0  0  0  0  0  0  0
   26.6430   31.9140   44.7280 C   0  0  0  0  0  0  0  0  0  0  0  0
   25.7890   32.5420   44.4320 H   0  0  0  0  0  0  0  0  0  0  0  0
   27.7540   31.8370   43.9070 C   0  0  0  0  0  3  0  0  0  0  0  0
   28.8140   31.0470   44.2890 C   0  0  0  0  0  3  0  0  0  0  0  0
   28.7070   30.3700   45.4840 C   0  0  0  0  0  0  0  0  0  0  0  0
   29.7390   29.5540   45.9340 C   0  0  0  0  0  3  0  0  0  0  0  0
   34.3860   28.1100   48.1020 C   0  0  0  0  0  0  0  0  0  0  0  0
   34.9920   27.2490   47.7330 H   0  0  0  0  0  0  0  0  0  0  0  0
   34.6150   29.0110   47.5010 H   0  0  0  0  0  0  0  0  0  0  0  0
   34.5840   28.2810   49.5720 C   0  0  0  0  0  0  0  0  0  0  0  0
   34.7140   27.3110   50.0950 H   0  0  0  0  0  0  0  0  0  0  0  0
   33.7260   28.8040   50.0360 H   0  0  0  0  0  0  0  0  0  0  0  0
   37.2660   30.1680   51.3100 C   0  0  0  0  0  0  0  0  0  0  0  0
   38.0260   30.6550   50.2270 C   0  0  0  0  0  0  0  0  0  0  0  0
   37.6130   30.3320   48.9150 C   0  0  0  0  0  0  0  0  0  0  0  0
   36.5030   29.5690   48.7600 N   0  0  0  0  0  0  0  0  0  0  0  0
   35.7990   29.1190   49.8320 C   0  0  0  0  0  0  0  0  0  0  0  0
   36.1810   29.4180   51.0640 N   0  0  0  0  0  0  0  0  0  0  0  0
   37.5760   30.4100   52.3160 H   0  0  0  0  0  0  0  0  0  0  0  0
   38.8970   31.2530   50.3410 H   0  0  0  0  0  0  0  0  0  0  0  0
   38.1390   30.6640   48.0300 H   0  0  0  0  0  0  0  0  0  0  0  0
  1  2  1  0  0  0  0
  1 20  1  0  0  0  0
  2  6  1  0  0  0  0
  3  2  2  0  0  0  0
  4  5  1  0  0  0  0
  4  3  1  0  0  0  0
  5  1  2  0  0  0  0
  7  3  1  0  0  0  0
  8  4  1  0  0  0  0
  8  9  1  0  0  0  0
  9 10  1  0  0  0  0
 11  9  2  0  0  0  0
 12 11  1  0  0  0  0
 13 12  1  0  0  0  0
 14 13  2  0  0  0  0
 15 14  1  0  0  0  0
 16 17  2  0  0  0  0
 16 14  1  0  0  0  0
 17 18  1  0  0  0  0
 18 19  1  0  0  0  0
 18 12  2  0  0  0  0
 19  8  2  0  0  0  0
 20 23  1  0  0  0  0
 21 20  1  0  0  0  0
 22 20  1  0  0  0  0
 23 30  1  0  0  0  0
 23 25  1  0  0  0  0
 23 24  1  0  0  0  0
 26 32  1  0  0  0  0
 27 33  1  0  0  0  0
 27 26  2  0  0  0  0
 28 27  1  0  0  0  0
 29 28  2  0  0  0  0
 29 30  1  0  0  0  0
 30 31  2  0  0  0  0
 31 26  1  0  0  0  0
 34 28  1  0  0  0  0
M  END
>  <minimizedAffinity>
-5.5346179

>  <minimizedRMSD>
1.63178229

$$$$
