
 OpenBabel03272509223D

 49 54  0  0  0  0  0  0  0  0999 V2000
   40.1470   31.2150   44.0330 C   0  0  0  0  0  0  0  0  0  0  0  0
   39.5050   31.9240   45.0270 C   0  0  0  0  0  0  0  0  0  0  0  0
   38.3330   32.6250   44.7160 C   0  0  0  0  0  0  0  0  0  0  0  0
   37.8220   32.6050   43.4180 C   0  0  0  0  0  0  0  0  0  0  0  0
   36.7580   33.1480   42.8030 N   0  0  0  0  0  0  0  0  0  0  0  0
   36.7290   32.8060   41.5080 C   0  0  0  0  0  0  0  0  0  0  0  0
   37.8180   32.0120   41.2900 N   0  0  0  0  0  0  0  0  0  0  0  0
   38.4890   31.8860   42.4510 C   0  0  0  0  0  0  0  0  0  0  0  0
   39.6460   31.1900   42.7440 C   0  0  0  0  0  0  0  0  0  0  0  0
   41.0330   30.7200   44.3950 H   0  0  0  0  0  0  0  0  0  0  0  0
   37.7280   33.2190   45.3860 H   0  0  0  0  0  0  0  0  0  0  0  0
   36.0470   33.7620   43.2890 H   0  0  0  0  0  0  0  0  0  0  0  0
   35.9710   33.1280   40.8360 H   0  0  0  0  0  0  0  0  0  0  0  0
   40.4020   30.4100   41.7670 C   0  0  0  0  0  0  0  0  0  0  0  0
   40.5430   29.0400   41.9660 C   0  0  0  0  0  0  0  0  0  0  0  0
   40.1110   28.5310   42.8250 H   0  0  0  0  0  0  0  0  0  0  0  0
   41.2600   28.2680   41.0480 C   0  0  0  0  0  3  0  0  0  0  0  0
   41.8410   28.8330   39.9330 C   0  0  0  0  0  0  0  0  0  0  0  0
   42.5390   28.1170   39.0280 N   0  0  0  0  0  0  0  0  0  0  0  0
   43.1120   28.6520   37.9340 C   0  0  0  0  0  0  0  0  0  0  0  0
   43.6480   27.9890   37.2750 H   0  0  0  0  0  0  0  0  0  0  0  0
   42.9850   30.0170   37.7130 C   0  0  0  0  0  3  0  0  0  0  0  0
   42.2670   30.7870   38.6330 C   0  0  0  0  0  3  0  0  0  0  0  0
   41.6870   30.1890   39.7570 C   0  0  0  0  0  0  0  0  0  0  0  0
   40.9930   30.9730   40.6350 C   0  0  0  0  0  3  0  0  0  0  0  0
   39.8180   32.0850   46.3550 O   0  0  0  0  0  0  0  0  0  0  0  0
   37.9880   31.2540   47.6970 C   0  0  0  0  0  0  0  0  0  0  0  0
   37.0970   31.2770   48.7540 C   0  0  0  0  0  0  0  0  0  0  0  0
   37.2630   32.3920   49.6070 C   0  0  0  0  0  0  0  0  0  0  0  0
   38.2440   33.3600   49.3750 C   0  0  0  0  0  0  0  0  0  0  0  0
   39.1000   33.2240   48.2560 C   0  0  0  0  0  0  0  0  0  0  0  0
   38.9520   32.1390   47.4100 C   0  0  0  0  0  0  0  0  0  0  0  0
   36.5930   32.4740   50.4590 H   0  0  0  0  0  0  0  0  0  0  0  0
   38.3730   34.1990   50.0130 H   0  0  0  0  0  0  0  0  0  0  0  0
   39.8460   33.9860   48.1030 H   0  0  0  0  0  0  0  0  0  0  0  0
   34.9080   30.3140   48.2520 C   0  0  0  0  0  0  0  0  0  0  0  0
   36.0980   30.2990   48.9960 C   0  0  0  0  0  0  0  0  0  0  0  0
   36.2380   29.2990   49.9570 C   0  0  0  0  0  0  0  0  0  0  0  0
   35.2390   28.4090   50.1210 N   0  0  0  0  0  0  0  0  0  0  0  0
   34.1010   28.4510   49.3860 C   0  0  0  0  0  0  0  0  0  0  0  0
   33.9500   29.4050   48.4590 N   0  0  0  0  0  0  0  0  0  0  0  0
   34.8060   31.0880   47.5130 H   0  0  0  0  0  0  0  0  0  0  0  0
   33.3500   27.6930   49.5880 H   0  0  0  0  0  0  0  0  0  0  0  0
   37.4810   29.2270   50.7830 C   0  0  0  0  0  0  0  0  0  0  0  0
   37.5930   30.1350   51.4190 H   0  0  0  0  0  0  0  0  0  0  0  0
   38.3540   29.2160   50.0910 H   0  0  0  0  0  0  0  0  0  0  0  0
   37.4310   28.3080   51.3950 H   0  0  0  0  0  0  0  0  0  0  0  0
   37.8970   30.1820   46.7990 O   0  0  0  0  0  0  0  0  0  0  0  0
   36.9840   29.7740   46.6000 H   0  0  0  0  0  0  0  0  0  0  0  0
  1 10  1  0  0  0  0
  1  2  1  0  0  0  0
  2 26  1  0  0  0  0
  3  2  2  0  0  0  0
  3 11  1  0  0  0  0
  4  3  1  0  0  0  0
  5 12  1  0  0  0  0
  5  4  1  0  0  0  0
  6  5  1  0  0  0  0
  7  6  2  0  0  0  0
  7  8  1  0  0  0  0
  8  9  1  0  0  0  0
  8  4  2  0  0  0  0
  9  1  2  0  0  0  0
 13  6  1  0  0  0  0
 14 15  1  0  0  0  0
 14  9  1  0  0  0  0
 15 16  1  0  0  0  0
 17 15  2  0  0  0  0
 18 17  1  0  0  0  0
 19 18  2  0  0  0  0
 20 19  1  0  0  0  0
 21 20  1  0  0  0  0
 22 20  2  0  0  0  0
 22 23  1  0  0  0  0
 23 24  2  0  0  0  0
 24 18  1  0  0  0  0
 24 25  1  0  0  0  0
 25 14  2  0  0  0  0
 26 32  1  0  0  0  0
 27 28  1  0  0  0  0
 28 37  1  0  0  0  0
 28 29  2  0  0  0  0
 29 33  1  0  0  0  0
 30 29  1  0  0  0  0
 30 34  1  0  0  0  0
 31 30  2  0  0  0  0
 32 27  2  0  0  0  0
 32 31  1  0  0  0  0
 35 31  1  0  0  0  0
 36 41  2  0  0  0  0
 36 37  1  0  0  0  0
 37 38  2  0  0  0  0
 38 39  1  0  0  0  0
 38 44  1  0  0  0  0
 40 43  1  0  0  0  0
 40 39  2  0  0  0  0
 41 40  1  0  0  0  0
 42 36  1  0  0  0  0
 44 47  1  0  0  0  0
 44 45  1  0  0  0  0
 46 44  1  0  0  0  0
 48 27  1  0  0  0  0
 49 48  1  0  0  0  0
M  END
>  <minimizedAffinity>
-8.00039196

>  <minimizedRMSD>
0.725635588

$$$$
