
     RDKit          3D

 38 41  0  0  0  0  0  0  0  0999 V2000
   37.4097   29.9375   50.5659 C   0  0  0  0  0  0  0  0  0  0  0  0
   37.8648   30.4016   49.3246 C   0  0  0  0  0  0  0  0  0  0  0  0
   36.9983   30.6658   48.2941 C   0  0  0  0  0  0  0  0  0  0  0  0
   35.6760   30.4610   48.5157 N   0  0  0  0  0  0  0  0  0  0  0  0
   35.2016   30.0102   49.7099 C   0  0  0  0  0  0  0  0  0  0  0  0
   36.0657   29.7482   50.7357 N   0  0  0  0  0  0  0  0  0  0  0  0
   37.4412   31.1352   47.0544 N   0  0  0  0  0  0  0  0  0  0  0  0
   36.8061   30.8083   45.8960 C   0  0  0  0  0  0  0  0  0  0  0  0
   37.2315   31.2661   44.6597 C   0  0  0  0  0  0  0  0  0  0  0  0
   38.3673   32.0982   44.6427 C   0  0  0  0  0  0  0  0  0  0  0  0
   38.7868   32.5337   43.5483 O   0  0  0  0  0  0  0  0  0  0  0  0
   39.0051   32.4272   45.8007 N   0  0  0  0  0  0  0  0  0  0  0  0
   38.4958   31.9215   46.9297 C   0  0  0  0  0  0  0  0  0  0  0  0
   39.1080   32.2477   47.9726 O   0  0  0  0  0  0  0  0  0  0  0  0
   40.1722   33.2800   45.7759 C   0  0  0  0  0  0  0  0  0  0  0  0
   40.0345   34.2228   44.7994 F   0  0  0  0  0  0  0  0  0  0  0  0
   41.3446   32.5889   45.5087 F   0  0  0  0  0  0  0  0  0  0  0  0
   40.2698   33.9389   46.9950 F   0  0  0  0  0  0  0  0  0  0  0  0
   38.0402   29.7126   51.4142 H   0  0  0  0  0  0  0  0  0  0  0  0
   38.9225   30.4900   49.3336 H   0  0  0  0  0  0  0  0  0  0  0  0
   34.1330   29.8790   49.7869 H   0  0  0  0  0  0  0  0  0  0  0  0
   35.9461   30.1794   45.8973 H   0  0  0  0  0  0  0  0  0  0  0  0
   36.5473   30.9138   43.4177 C   0  0  0  0  0  0  0  0  0  0  0  0
   36.2023   29.5650   43.2870 C   0  0  0  0  0  0  0  0  0  0  0  0
   36.4148   28.8117   44.0382 H   0  0  0  0  0  0  0  0  0  0  0  0
   35.5477   29.0869   42.1587 C   0  0  0  0  0  0  0  0  0  0  0  0
   35.2359   29.9744   41.1490 C   0  0  0  0  0  0  0  0  0  0  0  0
   34.5940   29.5614   40.0188 N   0  0  0  0  0  0  0  0  0  0  0  0
   34.2904   30.4288   39.0345 C   0  0  0  0  0  0  0  0  0  0  0  0
   33.7799   29.9459   38.2010 H   0  0  0  0  0  0  0  0  0  0  0  0
   34.6239   31.7676   39.1457 C   0  0  0  0  0  0  0  0  0  0  0  0
   35.2745   32.2117   40.2805 C   0  0  0  0  0  0  0  0  0  0  0  0
   35.5832   31.3200   41.2856 C   0  0  0  0  0  0  0  0  0  0  0  0
   36.2342   31.8025   42.4048 C   0  0  0  0  0  0  0  0  0  0  0  0
   35.2802   28.0344   42.0602 H   0  0  0  0  0  0  0  0  0  0  0  0
   34.3490   32.3946   38.3216 H   0  0  0  0  0  0  0  0  0  0  0  0
   35.5295   33.2725   40.3499 H   0  0  0  0  0  0  0  0  0  0  0  0
   36.5203   32.8269   42.5529 H   0  0  0  0  0  0  0  0  0  0  0  0
  1  6  2  0
  2  1  1  0
  3  4  1  0
  3  2  2  0
  4  5  2  0
  5  6  1  0
  7  3  1  0
  8  7  1  0
  9  8  2  0
 10  9  1  0
 10 12  1  0
 11 10  2  0
 12 13  1  0
 13  7  1  0
 13 14  2  0
 15 12  1  0
 15 18  1  0
 16 15  1  0
 17 15  1  0
  1 19  1  0
  2 20  1  0
  5 21  1  0
  8 22  1  0
 23 24  2  0
 24 25  1  0
 24 26  1  0
 26 27  2  0
 27 28  1  0
 28 29  2  0
 29 30  1  0
 29 31  1  0
 31 32  2  0
 32 33  1  0
 33 34  2  0
 34 23  1  0
 33 27  1  0
 26 35  1  0
 31 36  1  0
 32 37  1  0
 34 38  1  0
  9 23  1  0
M  ISO  6  19  14  20  14  21  14  22  14  25  16  30  16
M  END
>  <DihAtoms>  (1) 
7,8,22,23

>  <DihDeg>  (1) 
134.99535661518675

$$$$
