
 OpenBabel03272509583D

 49 53  0  0  0  0  0  0  0  0999 V2000
   33.5920   27.4940   47.7790 C   0  0  0  0  0  0  0  0  0  0  0  0
   33.7590   26.6210   48.4080 H   0  0  0  0  0  0  0  0  0  0  0  0
   33.8250   27.1790   46.7380 H   0  0  0  0  0  0  0  0  0  0  0  0
   32.1490   27.8620   47.7850 C   0  0  0  0  0  0  0  0  0  0  0  0
   31.3970   27.4550   48.8710 C   0  0  0  0  0  0  0  0  0  0  0  0
   30.0500   27.7440   48.9730 C   0  0  0  0  0  0  0  0  0  0  0  0
   29.4610   28.4360   47.9970 N   0  0  0  0  0  0  0  0  0  0  0  0
   30.2100   28.8300   46.9350 C   0  0  0  0  0  0  0  0  0  0  0  0
   31.5200   28.5570   46.8190 N   0  0  0  0  0  0  0  0  0  0  0  0
   31.8300   26.8940   49.6850 H   0  0  0  0  0  0  0  0  0  0  0  0
   29.4440   27.4270   49.8270 H   0  0  0  0  0  0  0  0  0  0  0  0
   29.5290   29.5990   45.8590 C   0  0  0  0  0  0  0  0  0  0  0  0
   28.7780   30.3070   46.2650 H   0  0  0  0  0  0  0  0  0  0  0  0
   30.3060   30.2300   45.3790 H   0  0  0  0  0  0  0  0  0  0  0  0
   28.9060   28.6810   44.8500 C   0  0  0  0  0  0  0  0  0  0  0  0
   29.6420   27.9590   43.9340 C   0  0  0  0  0  0  0  0  0  0  0  0
   30.7190   28.0560   43.9360 H   0  0  0  0  0  0  0  0  0  0  0  0
   28.9390   27.1500   43.0580 C   0  0  0  0  0  3  0  0  0  0  0  0
   27.5520   27.0560   43.0890 C   0  0  0  0  0  0  0  0  0  0  0  0
   26.8780   26.2720   42.2400 N   0  0  0  0  0  0  0  0  0  0  0  0
   25.5320   26.2150   42.3100 C   0  0  0  0  0  0  0  0  0  0  0  0
   24.9280   25.5950   41.6470 H   0  0  0  0  0  0  0  0  0  0  0  0
   24.7790   26.9410   43.2340 C   0  0  0  0  0  3  0  0  0  0  0  0
   25.4430   27.7470   44.1100 C   0  0  0  0  0  3  0  0  0  0  0  0
   26.8220   27.7920   44.0220 C   0  0  0  0  0  0  0  0  0  0  0  0
   27.5130   28.5890   44.8830 C   0  0  0  0  0  3  0  0  0  0  0  0
   34.4800   28.6100   48.2270 C   0  0  0  0  0  0  0  0  0  0  0  0
   33.9870   29.6010   48.1820 H   0  0  0  0  0  0  0  0  0  0  0  0
   35.3470   28.6590   47.5350 H   0  0  0  0  0  0  0  0  0  0  0  0
   35.0220   28.3650   49.5100 O   0  0  0  0  0  0  0  0  0  0  0  0
   37.3670   30.1910   51.5490 C   0  0  0  0  0  0  0  0  0  0  0  0
   38.0920   30.8840   50.5480 C   0  0  0  0  0  0  0  0  0  0  0  0
   37.7120   30.6650   49.2260 C   0  0  0  0  0  0  0  0  0  0  0  0
   36.6720   29.7990   49.0280 N   0  0  0  0  0  0  0  0  0  0  0  0
   36.0060   29.1620   49.9850 C   0  0  0  0  0  0  0  0  0  0  0  0
   36.3650   29.3650   51.2680 N   0  0  0  0  0  0  0  0  0  0  0  0
   37.7150   30.4100   52.5460 H   0  0  0  0  0  0  0  0  0  0  0  0
   38.9040   31.5570   50.7320 H   0  0  0  0  0  0  0  0  0  0  0  0
   38.9420   33.2780   49.0300 F   0  0  0  0  0  0  0  0  0  0  0  0
   38.9090   32.4880   47.9640 C   0  0  0  0  0  0  0  0  0  0  0  0
   38.3320   31.2800   48.0810 C   0  0  0  0  0  0  0  0  0  0  0  0
   38.3510   30.5270   46.9010 C   0  0  0  0  0  0  0  0  0  0  0  0
   38.9080   30.9920   45.7430 C   0  0  0  0  0  0  0  0  0  0  0  0
   39.4870   32.2390   45.6780 C   0  0  0  0  0  0  0  0  0  0  0  0
   39.4770   32.9810   46.8140 C   0  0  0  0  0  0  0  0  0  0  0  0
   37.9210   29.5320   46.8500 H   0  0  0  0  0  0  0  0  0  0  0  0
   38.9190   30.3960   44.8220 H   0  0  0  0  0  0  0  0  0  0  0  0
   39.9210   32.5880   44.7560 H   0  0  0  0  0  0  0  0  0  0  0  0
   39.9270   33.9650   46.7810 H   0  0  0  0  0  0  0  0  0  0  0  0
  1  4  1  0  0  0  0
  1 27  1  0  0  0  0
  1  2  1  0  0  0  0
  3  1  1  0  0  0  0
  4  5  1  0  0  0  0
  5  6  2  0  0  0  0
  5 10  1  0  0  0  0
  6 11  1  0  0  0  0
  7  6  1  0  0  0  0
  8  7  2  0  0  0  0
  9  8  1  0  0  0  0
  9  4  2  0  0  0  0
 12 13  1  0  0  0  0
 12  8  1  0  0  0  0
 14 12  1  0  0  0  0
 15 26  1  0  0  0  0
 15 12  1  0  0  0  0
 16 17  1  0  0  0  0
 16 15  2  0  0  0  0
 18 19  2  0  0  0  0
 18 16  1  0  0  0  0
 19 25  1  0  0  0  0
 20 21  2  0  0  0  0
 20 19  1  0  0  0  0
 21 23  1  0  0  0  0
 22 21  1  0  0  0  0
 23 24  2  0  0  0  0
 25 24  1  0  0  0  0
 25 26  2  0  0  0  0
 27 30  1  0  0  0  0
 28 27  1  0  0  0  0
 29 27  1  0  0  0  0
 30 35  1  0  0  0  0
 31 37  1  0  0  0  0
 32 38  1  0  0  0  0
 32 31  2  0  0  0  0
 33 32  1  0  0  0  0
 34 33  2  0  0  0  0
 34 35  1  0  0  0  0
 35 36  2  0  0  0  0
 36 31  1  0  0  0  0
 40 41  1  0  0  0  0
 40 39  1  0  0  0  0
 41 33  1  0  0  0  0
 42 41  2  0  0  0  0
 43 42  1  0  0  0  0
 44 43  2  0  0  0  0
 44 45  1  0  0  0  0
 45 40  2  0  0  0  0
 46 42  1  0  0  0  0
 47 43  1  0  0  0  0
 48 44  1  0  0  0  0
 49 45  1  0  0  0  0
M  END
>  <minimizedAffinity>
-6.94460154

>  <minimizedRMSD>
0.222506955

$$$$
