REMARK  Name = 
REMARK  4 active torsions:
REMARK  status: ('A' for Active; 'I' for Inactive)
REMARK    1  A    between atoms: C_1  and  C_8
REMARK    2  A    between atoms: C_3  and  N_12
REMARK    3  A    between atoms: C_10  and  C_13
REMARK    4  A    between atoms: C_17  and  C_30
REMARK                            x       y       z     vdW  Elec       q    Type
REMARK                         _______ _______ _______ _____ _____    ______ ____
ROOT
ATOM      1  C   UNL     1      39.179  31.453  43.330  0.00  0.00    +0.000 A 
ATOM      2  C   UNL     1      40.143  30.493  43.478  0.00  0.00    +0.000 A 
ATOM      3  C   UNL     1      40.873  30.106  42.362  0.00  0.00    +0.000 A 
ATOM      4  C   UNL     1      40.583  30.713  41.179  0.00  0.00    +0.000 A 
ATOM      5  C   UNL     1      39.614  31.686  41.013  0.00  0.00    +0.000 A 
ATOM      6  N   UNL     1      38.951  32.004  42.139  0.00  0.00    +0.000 NA
ATOM      7  H   UNL     1      40.401  29.987  44.407  0.00  0.00    +0.000 HD
ATOM      8  H   UNL     1      41.645  29.345  42.448  0.00  0.00    +0.000 HD
ATOM      9  H   UNL     1      41.157  30.404  40.317  0.00  0.00    +0.000 HD
ENDROOT
BRANCH   5  10
ATOM     10  C   UNL     1      39.301  32.338  39.750  0.00  0.00    +0.000 A 
ATOM     11  C   UNL     1      39.954  32.042  38.575  0.00  0.00    +0.000 A 
ATOM     12  H   UNL     1      40.739  31.300  38.546  0.00  0.00    +0.000 HD
ATOM     13  C   UNL     1      39.683  32.640  37.363  0.00  0.00    +0.000 A 
ATOM     14  C   UNL     1      38.671  33.606  37.367  0.00  0.00    +0.000 A 
ATOM     15  N   UNL     1      38.309  34.266  36.241  0.00  0.00    +0.000 NA
ATOM     16  C   UNL     1      37.343  35.196  36.219  0.00  0.00    +0.000 A 
ATOM     17  H   UNL     1      37.128  35.671  35.252  0.00  0.00    +0.000 HD
ATOM     18  C   UNL     1      36.647  35.538  37.374  0.00  0.00    +0.000 A 
ATOM     19  C   UNL     1      36.988  34.885  38.542  0.00  0.00    +0.000 A 
ATOM     20  C   UNL     1      37.985  33.935  38.532  0.00  0.00    +0.000 A 
ATOM     21  C   UNL     1      38.308  33.293  39.727  0.00  0.00    +0.000 A 
ENDBRANCH   5  10
BRANCH   1  22
ATOM     22  C   UNL     1      38.404  31.845  44.516  0.00  0.00    +0.000 C 
ATOM     23  O   UNL     1      37.295  32.449  44.404  0.00  0.00    +0.000 OA
ATOM     24  N   UNL     1      38.929  31.528  45.815  0.00  0.00    +0.000 N 
ATOM     25  H   UNL     1      39.900  31.180  45.981  0.00  0.00    +0.000 HD
BRANCH  24  28
ATOM     26  C   UNL     1      38.414  31.119  48.219  0.00  0.00    +0.000 C 
ATOM     27  C   UNL     1      38.676  32.560  48.089  0.00  0.00    +0.000 C 
ATOM     28  C   UNL     1      38.047  31.706  46.957  0.00  0.00    +0.000 C 
ATOM     29  H   UNL     1      39.361  30.519  48.318  0.00  0.00    +0.000 HD
ATOM     30  H   UNL     1      39.686  32.933  47.922  0.00  0.00    +0.000 HD
ATOM     31  H   UNL     1      37.967  33.226  48.640  0.00  0.00    +0.000 HD
ATOM     32  H   UNL     1      36.981  31.949  46.746  0.00  0.00    +0.000 HD
BRANCH  26  37
ATOM     33  C   UNL     1      35.093  30.222  49.554  0.00  0.00    +0.000 A 
ATOM     34  C   UNL     1      35.424  29.541  50.770  0.00  0.00    +0.000 A 
ATOM     35  C   UNL     1      36.827  29.418  51.099  0.00  0.00    +0.000 A 
ATOM     36  N   UNL     1      37.757  29.943  50.258  0.00  0.00    +0.000 NA
ATOM     37  C   UNL     1      37.358  30.579  49.116  0.00  0.00    +0.000 A 
ATOM     38  N   UNL     1      36.040  30.735  48.736  0.00  0.00    +0.000 NA
ATOM     39  H   UNL     1      34.059  30.321  49.297  0.00  0.00    +0.000 HD
ATOM     40  H   UNL     1      34.659  29.143  51.402  0.00  0.00    +0.000 HD
ATOM     41  H   UNL     1      37.066  28.910  52.004  0.00  0.00    +0.000 HD
ENDBRANCH  26  37
ENDBRANCH  24  28
ENDBRANCH   1  22
TORSDOF 4
