REMARK  Name = 
REMARK  3 active torsions:
REMARK  status: ('A' for Active; 'I' for Inactive)
REMARK    1  A    between atoms: C_2  and  C_11
REMARK    2  A    between atoms: C_14  and  C_16
REMARK    3  A    between atoms: C_16  and  C_26
REMARK                            x       y       z     vdW  Elec       q    Type
REMARK                         _______ _______ _______ _____ _____    ______ ____
ROOT
ATOM      1  C   UNL     1      35.617  29.339  48.726  0.00  0.00    +0.000 A 
ATOM      2  C   UNL     1      35.586  30.063  47.496  0.00  0.00    +0.000 A 
ATOM      3  C   UNL     1      34.460  29.917  46.705  0.00  0.00    +0.000 A 
ATOM      4  N   UNL     1      33.463  29.103  47.144  0.00  0.00    +0.000 NA
ATOM      5  C   UNL     1      33.519  28.434  48.306  0.00  0.00    +0.000 A 
ATOM      6  N   UNL     1      34.604  28.558  49.095  0.00  0.00    +0.000 NA
ATOM      7  H   UNL     1      36.404  29.313  49.481  0.00  0.00    +0.000 HD
ATOM      8  H   UNL     1      34.468  30.475  45.784  0.00  0.00    +0.000 HD
ENDROOT
BRANCH   2  10
ATOM      9  C   UNL     1      37.463  31.333  48.365  0.00  0.00    +0.000 A 
ATOM     10  C   UNL     1      36.757  30.870  47.255  0.00  0.00    +0.000 A 
ATOM     11  C   UNL     1      37.226  31.218  45.992  0.00  0.00    +0.000 A 
ATOM     12  C   UNL     1      38.377  32.010  45.895  0.00  0.00    +0.000 A 
ATOM     13  N   UNL     1      39.059  32.499  44.854  0.00  0.00    +0.000 N 
ATOM     14  C   UNL     1      40.102  33.206  45.272  0.00  0.00    +0.000 A 
ATOM     15  N   UNL     1      40.112  33.186  46.619  0.00  0.00    +0.000 NA
ATOM     16  C   UNL     1      39.061  32.456  47.008  0.00  0.00    +0.000 A 
ATOM     17  C   UNL     1      38.595  32.112  48.258  0.00  0.00    +0.000 A 
ATOM     18  H   UNL     1      37.212  31.145  49.413  0.00  0.00    +0.000 HD
ATOM     19  H   UNL     1      36.690  30.867  45.123  0.00  0.00    +0.000 HD
ATOM     20  H   UNL     1      38.742  32.302  43.858  0.00  0.00    +0.000 HD
ATOM     21  H   UNL     1      40.776  33.683  44.571  0.00  0.00    +0.000 HD
ATOM     22  H   UNL     1      39.162  32.483  49.105  0.00  0.00    +0.000 HD
ENDBRANCH   2  10
BRANCH   5  23
ATOM     23  C   UNL     1      32.373  27.565  48.714  0.00  0.00    +0.000 C 
ATOM     24  H   UNL     1      32.315  27.535  49.826  0.00  0.00    +0.000 HD
ATOM     25  H   UNL     1      31.442  27.998  48.319  0.00  0.00    +0.000 HD
BRANCH  23  26
ATOM     26  C   UNL     1      32.527  26.176  48.225  0.00  0.00    +0.000 A 
ATOM     27  C   UNL     1      33.444  25.336  48.862  0.00  0.00    +0.000 A 
ATOM     28  H   UNL     1      34.016  25.740  49.701  0.00  0.00    +0.000 HD
ATOM     29  C   UNL     1      33.614  24.039  48.435  0.00  0.00    +0.000 A 
ATOM     30  C   UNL     1      32.866  23.580  47.370  0.00  0.00    +0.000 A 
ATOM     31  N   UNL     1      33.136  22.281  47.056  0.00  0.00    +0.000 NA
ATOM     32  C   UNL     1      32.454  21.721  46.017  0.00  0.00    +0.000 A 
ATOM     33  H   UNL     1      32.608  20.696  45.702  0.00  0.00    +0.000 HD
ATOM     34  C   UNL     1      31.536  22.510  45.355  0.00  0.00    +0.000 A 
ATOM     35  C   UNL     1      31.256  23.830  45.668  0.00  0.00    +0.000 A 
ATOM     36  C   UNL     1      31.957  24.391  46.728  0.00  0.00    +0.000 A 
ATOM     37  C   UNL     1      31.784  25.696  47.155  0.00  0.00    +0.000 A 
ENDBRANCH  23  26
ENDBRANCH   5  23
TORSDOF 3
