REMARK  Name = 
REMARK  2 active torsions:
REMARK  status: ('A' for Active; 'I' for Inactive)
REMARK    1  A    between atoms: C_3  and  C_13
REMARK    2  A    between atoms: C_5  and  C_7
REMARK                            x       y       z     vdW  Elec       q    Type
REMARK                         _______ _______ _______ _____ _____    ______ ____
ROOT
ATOM      1  C   UNL     1      38.307  31.241  50.116  0.00  0.00    +0.000 A 
ATOM      2  C   UNL     1      38.291  31.607  48.761  0.00  0.00    +0.000 A 
ATOM      3  C   UNL     1      37.203  31.219  47.994  0.00  0.00    +0.000 A 
ATOM      4  N   UNL     1      36.219  30.508  48.595  0.00  0.00    +0.000 NA
ATOM      5  C   UNL     1      36.261  30.169  49.906  0.00  0.00    +0.000 A 
ATOM      6  N   UNL     1      37.300  30.532  50.666  0.00  0.00    +0.000 NA
ATOM      7  H   UNL     1      39.160  31.558  50.673  0.00  0.00    +0.000 HD
ATOM      8  H   UNL     1      39.087  32.175  48.300  0.00  0.00    +0.000 HD
ENDROOT
BRANCH   3   9
ATOM      9  C   UNL     1      37.053  31.522  46.598  0.00  0.00    +0.000 A 
ATOM     10  C   UNL     1      37.329  32.794  46.162  0.00  0.00    +0.000 A 
ATOM     11  H   UNL     1      37.655  33.572  46.834  0.00  0.00    +0.000 HD
ATOM     12  C   UNL     1      37.216  33.193  44.836  0.00  0.00    +0.000 A 
ATOM     13  C   UNL     1      36.798  32.232  43.911  0.00  0.00    +0.000 A 
ATOM     14  N   UNL     1      36.697  32.648  42.625  0.00  0.00    +0.000 NA
ATOM     15  C   UNL     1      36.290  31.722  41.712  0.00  0.00    +0.000 A 
ATOM     16  H   UNL     1      36.157  31.890  40.640  0.00  0.00    +0.000 HD
ATOM     17  C   UNL     1      35.994  30.420  42.081  0.00  0.00    +0.000 A 
ATOM     18  C   UNL     1      36.102  30.008  43.396  0.00  0.00    +0.000 A 
ATOM     19  C   UNL     1      36.514  30.955  44.310  0.00  0.00    +0.000 A 
ATOM     20  C   UNL     1      36.645  30.620  45.641  0.00  0.00    +0.000 A 
ENDBRANCH   3   9
BRANCH   5  21
ATOM     21  C   UNL     1      35.124  29.390  50.442  0.00  0.00    +0.000 C 
ATOM     22  F   UNL     1      35.262  29.119  51.795  0.00  0.00    +0.000 F 
ATOM     23  F   UNL     1      33.921  30.063  50.306  0.00  0.00    +0.000 F 
ATOM     24  F   UNL     1      34.960  28.165  49.822  0.00  0.00    +0.000 F 
ENDBRANCH   5  21
TORSDOF 2
