
 OpenBabel03272510213D

 39 43  0  0  0  0  0  0  0  0999 V2000
   32.8020   29.3140   46.9130 C   0  0  0  0  0  0  0  0  0  0  0  0
   31.9000   28.2850   46.7790 C   0  0  0  0  0  0  0  0  0  0  0  0
   30.8380   28.3180   45.8850 C   0  0  0  0  0  0  0  0  0  0  0  0
   30.6710   29.4000   45.1040 N   0  0  0  0  0  0  0  0  0  0  0  0
   31.5460   30.4040   45.2290 C   0  0  0  0  0  0  0  0  0  0  0  0
   32.5580   30.3530   46.0940 N   0  0  0  0  0  0  0  0  0  0  0  0
   32.0410   27.3990   47.4210 H   0  0  0  0  0  0  0  0  0  0  0  0
   30.1930   27.4410   45.8750 H   0  0  0  0  0  0  0  0  0  0  0  0
   31.3810   31.5870   44.3910 C   0  0  0  0  0  0  0  0  0  0  0  0
   30.1110   32.0790   44.1030 C   0  0  0  0  0  0  0  0  0  0  0  0
   29.2570   31.5590   44.5180 H   0  0  0  0  0  0  0  0  0  0  0  0
   29.8520   33.1760   43.3310 C   0  0  0  0  0  3  0  0  0  0  0  0
   30.9380   33.8410   42.8010 C   0  0  0  0  0  0  0  0  0  0  0  0
   30.7100   34.9250   42.0360 N   0  0  0  0  0  0  0  0  0  0  0  0
   31.7030   35.6410   41.4730 C   0  0  0  0  0  0  0  0  0  0  0  0
   31.4840   36.4980   40.8710 H   0  0  0  0  0  0  0  0  0  0  0  0
   33.0050   35.2190   41.7110 C   0  0  0  0  0  3  0  0  0  0  0  0
   33.2890   34.1020   42.4950 C   0  0  0  0  0  3  0  0  0  0  0  0
   32.2330   33.4060   43.0460 C   0  0  0  0  0  0  0  0  0  0  0  0
   32.4180   32.2820   43.8400 C   0  0  0  0  0  3  0  0  0  0  0  0
   37.4840   29.2190   50.8810 Br  0  0  0  0  0  0  0  0  0  0  0  0
   36.0480   29.2830   49.6300 C   0  0  0  0  0  0  0  0  0  0  0  0
   36.0100   30.2690   48.6380 C   0  0  0  0  0  0  0  0  0  0  0  0
   34.9530   30.2640   47.7690 C   0  0  0  0  0  0  0  0  0  0  0  0
   33.9270   29.3260   47.8320 C   0  0  0  0  0  0  0  0  0  0  0  0
   33.9870   28.3760   48.8060 C   0  0  0  0  0  0  0  0  0  0  0  0
   35.0420   28.3680   49.6890 C   0  0  0  0  0  0  0  0  0  0  0  0
   34.8590   31.0010   46.9720 H   0  0  0  0  0  0  0  0  0  0  0  0
   33.2480   27.5990   48.9520 H   0  0  0  0  0  0  0  0  0  0  0  0
   35.1040   27.6110   50.4760 H   0  0  0  0  0  0  0  0  0  0  0  0
   38.0280   33.2040   49.4190 C   0  0  0  0  0  0  0  0  0  0  0  0
   39.0410   33.1900   48.4140 C   0  0  0  0  0  0  0  0  0  0  0  0
   39.0020   32.1650   47.4900 C   0  0  0  0  0  0  0  0  0  0  0  0
   38.0120   31.2200   47.5710 N   0  0  0  0  0  0  0  0  0  0  0  0
   37.0640   31.2640   48.5410 C   0  0  0  0  0  0  0  0  0  0  0  0
   37.0840   32.2620   49.4570 N   0  0  0  0  0  0  0  0  0  0  0  0
   38.0950   34.0320   50.1310 H   0  0  0  0  0  0  0  0  0  0  0  0
   39.8270   33.8940   48.3070 H   0  0  0  0  0  0  0  0  0  0  0  0
   39.6970   32.0350   46.6890 H   0  0  0  0  0  0  0  0  0  0  0  0
  1 25  1  0  0  0  0
  2  1  1  0  0  0  0
  2  7  1  0  0  0  0
  3  2  2  0  0  0  0
  4  5  2  0  0  0  0
  4  3  1  0  0  0  0
  5  6  1  0  0  0  0
  6  1  2  0  0  0  0
  8  3  1  0  0  0  0
  9  5  1  0  0  0  0
 10  9  1  0  0  0  0
 10 11  1  0  0  0  0
 12 10  2  0  0  0  0
 13 19  1  0  0  0  0
 13 12  1  0  0  0  0
 14 13  2  0  0  0  0
 15 17  2  0  0  0  0
 15 14  1  0  0  0  0
 16 15  1  0  0  0  0
 17 18  1  0  0  0  0
 18 19  2  0  0  0  0
 19 20  1  0  0  0  0
 20  9  2  0  0  0  0
 22 27  1  0  0  0  0
 22 21  1  0  0  0  0
 23 22  2  0  0  0  0
 24 25  2  0  0  0  0
 24 23  1  0  0  0  0
 25 26  1  0  0  0  0
 26 29  1  0  0  0  0
 26 27  2  0  0  0  0
 27 30  1  0  0  0  0
 28 24  1  0  0  0  0
 31 36  1  0  0  0  0
 31 37  1  0  0  0  0
 32 31  2  0  0  0  0
 33 34  2  0  0  0  0
 33 32  1  0  0  0  0
 34 35  1  0  0  0  0
 35 23  1  0  0  0  0
 35 36  2  0  0  0  0
 38 32  1  0  0  0  0
 39 33  1  0  0  0  0
M  END
>  <minimizedAffinity>
-7.13779306

>  <minimizedRMSD>
0.640548468

$$$$
