
 OpenBabel03262520203D

 24 26  0  0  0  0  0  0  0  0999 V2000
   37.4180   29.3280   50.6840 C   0  0  0  0  0  0  0  0  0  0  0  0
   37.9850   30.6070   50.4850 C   0  0  0  0  0  0  0  0  0  0  0  0
   37.4230   31.4380   49.5200 C   0  0  0  0  0  0  0  0  0  0  0  0
   36.3510   30.9690   48.8130 N   0  0  0  0  0  0  0  0  0  0  0  0
   35.8360   29.7470   49.0280 C   0  0  0  0  0  0  0  0  0  0  0  0
   36.3730   28.9420   49.9580 N   0  0  0  0  0  0  0  0  0  0  0  0
   37.9090   28.7450   51.4480 H   0  0  0  0  0  0  0  0  0  0  0  0
   38.8300   30.9520   51.0550 H   0  0  0  0  0  0  0  0  0  0  0  0
   34.6840   29.2880   48.2440 C   0  0  0  0  0  0  0  0  0  0  0  0
   34.5720   29.6220   46.9160 C   0  0  0  0  0  0  0  0  0  0  0  0
   35.3200   30.2240   46.4170 H   0  0  0  0  0  0  0  0  0  0  0  0
   33.4790   29.1870   46.1750 C   0  0  0  0  0  0  0  0  0  0  0  0
   32.5100   28.4190   46.7880 C   0  0  0  0  0  0  0  0  0  0  0  0
   31.4350   27.9660   46.1410 N   0  0  0  0  0  0  0  0  0  0  0  0
   30.4900   27.2160   46.7370 C   0  0  0  0  0  0  0  0  0  0  0  0
   29.6360   26.8790   46.1520 H   0  0  0  0  0  0  0  0  0  0  0  0
   30.5500   26.8470   48.0860 C   0  0  0  0  0  0  0  0  0  0  0  0
   31.6660   27.3200   48.7440 C   0  0  0  0  0  0  0  0  0  0  0  0
   32.6300   28.0880   48.1220 C   0  0  0  0  0  0  0  0  0  0  0  0
   33.7020   28.5110   48.8590 C   0  0  0  0  0  0  0  0  0  0  0  0
   37.9990   32.7930   49.2870 C   0  0  0  0  0  0  0  0  0  0  0  0
   39.1610   32.8280   50.0050 F   0  0  0  0  0  0  0  0  0  0  0  0
   38.2890   33.0360   47.9690 F   0  0  0  0  0  0  0  0  0  0  0  0
   37.1610   33.7960   49.7670 F   0  0  0  0  0  0  0  0  0  0  0  0
  1  7  1  0  0  0  0
  2  1  1  0  0  0  0
  2  8  1  0  0  0  0
  3  2  2  0  0  0  0
  4  5  2  0  0  0  0
  4  3  1  0  0  0  0
  5  6  1  0  0  0  0
  6  1  2  0  0  0  0
  9 20  1  0  0  0  0
  9  5  1  0  0  0  0
 10  9  2  0  0  0  0
 11 10  1  0  0  0  0
 12 13  2  0  0  0  0
 12 10  1  0  0  0  0
 13 19  1  0  0  0  0
 14 15  2  0  0  0  0
 14 13  1  0  0  0  0
 15 17  1  0  0  0  0
 16 15  1  0  0  0  0
 17 18  2  0  0  0  0
 19 18  1  0  0  0  0
 19 20  2  0  0  0  0
 21  3  1  0  0  0  0
 21 24  1  0  0  0  0
 21 22  1  0  0  0  0
 23 21  1  0  0  0  0
M  END
>  <minimizedAffinity>
-6.32020903

>  <minimizedRMSD>
1.76445484

$$$$
