
 OpenBabel03272504123D

 24 26  0  0  0  0  0  0  0  0999 V2000
   35.8600   29.3870   49.8960 C   0  0  0  0  0  0  0  0  0  0  0  0
   36.8210   29.9310   49.0430 C   0  0  0  0  0  0  0  0  0  0  0  0
   36.4780   30.1990   47.7240 C   0  0  0  0  0  0  0  0  0  0  0  0
   35.1910   29.9030   47.3400 N   0  0  0  0  0  0  0  0  0  0  0  0
   34.2970   29.3810   48.1890 C   0  0  0  0  0  0  0  0  0  0  0  0
   34.6250   29.1230   49.4590 N   0  0  0  0  0  0  0  0  0  0  0  0
   37.7840   30.1190   49.4420 H   0  0  0  0  0  0  0  0  0  0  0  0
   33.3250   29.1900   47.7860 H   0  0  0  0  0  0  0  0  0  0  0  0
   37.4350   30.7580   46.8120 C   0  0  0  0  0  0  0  0  0  0  0  0
   37.9930   31.9950   46.8890 C   0  0  0  0  0  0  0  0  0  0  0  0
   37.7080   32.6280   47.6950 H   0  0  0  0  0  0  0  0  0  0  0  0
   38.9190   32.4760   45.9660 C   0  0  0  0  0  0  0  0  0  0  0  0
   39.2930   31.6630   44.9210 C   0  0  0  0  0  0  0  0  0  0  0  0
   40.1900   32.0830   43.9970 N   0  0  0  0  0  0  0  0  0  0  0  0
   40.5380   31.2530   42.9730 C   0  0  0  0  0  0  0  0  0  0  0  0
   41.2690   31.6300   42.2430 H   0  0  0  0  0  0  0  0  0  0  0  0
   40.0120   29.9750   42.8260 C   0  0  0  0  0  0  0  0  0  0  0  0
   39.0940   29.5310   43.7620 C   0  0  0  0  0  0  0  0  0  0  0  0
   38.7600   30.3910   44.7860 C   0  0  0  0  0  0  0  0  0  0  0  0
   37.8470   29.9700   45.7310 C   0  0  0  0  0  0  0  0  0  0  0  0
   36.2460   29.1060   51.3130 C   0  0  0  0  0  0  0  0  0  0  0  0
   35.1860   29.4300   52.1590 F   0  0  0  0  0  0  0  0  0  0  0  0
   36.6600   27.8160   51.3920 F   0  0  0  0  0  0  0  0  0  0  0  0
   37.2740   29.9970   51.6480 F   0  0  0  0  0  0  0  0  0  0  0  0
  1 21  1  0  0  0  0
  2  7  1  0  0  0  0
  2  1  2  0  0  0  0
  3  2  1  0  0  0  0
  4  3  2  0  0  0  0
  4  5  1  0  0  0  0
  5  6  2  0  0  0  0
  6  1  1  0  0  0  0
  8  5  1  0  0  0  0
  9 10  1  0  0  0  0
  9  3  1  0  0  0  0
 10 11  1  0  0  0  0
 12 10  2  0  0  0  0
 13 12  1  0  0  0  0
 14 13  2  0  0  0  0
 15 14  1  0  0  0  0
 16 15  1  0  0  0  0
 17 15  2  0  0  0  0
 17 18  1  0  0  0  0
 18 19  2  0  0  0  0
 19 13  1  0  0  0  0
 19 20  1  0  0  0  0
 20  9  2  0  0  0  0
 21 23  1  0  0  0  0
 21 24  1  0  0  0  0
 21 22  1  0  0  0  0
M  END
>  <minimizedAffinity>
-4.12569094

>  <minimizedRMSD>
4.40221786

$$$$
