
 OpenBabel03272503033D

 31 34  0  0  0  0  0  0  0  0999 V2000
   35.8140   28.2550   34.6750 F   0  0  0  0  0  0  0  0  0  0  0  0
   35.9710   29.0380   33.5840 C   0  0  0  0  0  0  0  0  0  0  0  0
   35.5440   30.3290   33.6140 C   0  0  0  0  0  0  0  0  0  0  0  0
   35.7370   31.0630   32.4700 C   0  0  0  0  0  0  0  0  0  0  0  0
   36.3300   30.5490   31.3370 C   0  0  0  0  0  0  0  0  0  0  0  0
   36.7540   29.2400   31.3380 C   0  0  0  0  0  0  0  0  0  0  0  0
   36.5710   28.4710   32.4800 C   0  0  0  0  0  0  0  0  0  0  0  0
   35.3980   32.1040   32.4770 H   0  0  0  0  0  0  0  0  0  0  0  0
   36.4540   31.1860   30.4630 H   0  0  0  0  0  0  0  0  0  0  0  0
   37.2230   28.8160   30.4540 H   0  0  0  0  0  0  0  0  0  0  0  0
   37.0330   27.0880   32.4410 C   0  0  0  0  0  0  0  0  0  0  0  0
   38.2840   26.6920   32.8770 C   0  0  0  0  0  0  0  0  0  0  0  0
   38.9650   27.4230   33.2660 H   0  0  0  0  0  0  0  0  0  0  0  0
   38.5920   25.3500   32.7820 C   0  0  0  0  0  3  0  0  0  0  0  0
   37.7000   24.4250   32.2770 C   0  0  0  0  0  0  0  0  0  0  0  0
   37.9700   23.0980   32.1700 N   0  0  0  0  0  0  0  0  0  0  0  0
   37.0660   22.2330   31.6700 C   0  0  0  0  0  0  0  0  0  0  0  0
   37.3500   21.1760   31.6120 H   0  0  0  0  0  0  0  0  0  0  0  0
   35.8120   22.6030   31.2280 C   0  0  0  0  0  3  0  0  0  0  0  0
   35.5010   23.9650   31.3250 C   0  0  0  0  0  3  0  0  0  0  0  0
   36.4530   24.8220   31.8430 C   0  0  0  0  0  0  0  0  0  0  0  0
   36.1220   26.1810   31.9310 C   0  0  0  0  0  3  0  0  0  0  0  0
   34.9780   32.0830   36.9210 C   0  0  0  0  0  0  0  0  0  0  0  0
   35.6040   31.6170   35.7560 C   0  0  0  0  0  0  0  0  0  0  0  0
   34.9210   30.8290   34.8360 C   0  0  0  0  0  0  0  0  0  0  0  0
   33.6280   30.5410   35.1280 N   0  0  0  0  0  0  0  0  0  0  0  0
   33.0440   30.9970   36.2550 C   0  0  0  0  0  0  0  0  0  0  0  0
   33.7040   31.7570   37.1420 N   0  0  0  0  0  0  0  0  0  0  0  0
   35.6840   32.6770   37.4990 H   0  0  0  0  0  0  0  0  0  0  0  0
   36.6300   31.8120   35.4640 H   0  0  0  0  0  0  0  0  0  0  0  0
   32.0140   30.7540   36.4660 H   0  0  0  0  0  0  0  0  0  0  0  0
  2  3  1  0  0  0  0
  2  1  1  0  0  0  0
  3 25  1  0  0  0  0
  4  8  1  0  0  0  0
  4  3  2  0  0  0  0
  5  6  2  0  0  0  0
  5  4  1  0  0  0  0
  6  7  1  0  0  0  0
  7  2  2  0  0  0  0
  9  5  1  0  0  0  0
 10  6  1  0  0  0  0
 11  7  1  0  0  0  0
 11 12  1  0  0  0  0
 12 13  1  0  0  0  0
 14 12  2  0  0  0  0
 15 14  1  0  0  0  0
 16 15  1  0  0  0  0
 17 16  2  0  0  0  0
 18 17  1  0  0  0  0
 19 20  2  0  0  0  0
 19 17  1  0  0  0  0
 20 21  1  0  0  0  0
 21 22  1  0  0  0  0
 21 15  2  0  0  0  0
 22 11  2  0  0  0  0
 23 28  1  0  0  0  0
 23 29  1  0  0  0  0
 24 23  2  0  0  0  0
 25 26  2  0  0  0  0
 25 24  1  0  0  0  0
 26 27  1  0  0  0  0
 27 31  1  0  0  0  0
 27 28  2  0  0  0  0
 30 24  1  0  0  0  0
M  END
>  <minimizedAffinity>
-6.12834501

$$$$

 OpenBabel03272503033D

 31 34  0  0  0  0  0  0  0  0999 V2000
   36.5280   27.4900   35.0510 F   0  0  0  0  0  0  0  0  0  0  0  0
   36.7930   27.8530   33.7760 C   0  0  0  0  0  0  0  0  0  0  0  0
   37.7280   27.1730   33.0620 C   0  0  0  0  0  0  0  0  0  0  0  0
   37.9440   27.5990   31.7750 C   0  0  0  0  0  0  0  0  0  0  0  0
   37.2640   28.6560   31.2080 C   0  0  0  0  0  0  0  0  0  0  0  0
   36.3230   29.3240   31.9550 C   0  0  0  0  0  0  0  0  0  0  0  0
   36.0830   28.9170   33.2620 C   0  0  0  0  0  0  0  0  0  0  0  0
   38.6940   27.0620   31.1860 H   0  0  0  0  0  0  0  0  0  0  0  0
   37.4830   28.9430   30.1810 H   0  0  0  0  0  0  0  0  0  0  0  0
   35.7770   30.1610   31.5270 H   0  0  0  0  0  0  0  0  0  0  0  0
   35.0780   29.6520   34.0210 C   0  0  0  0  0  0  0  0  0  0  0  0
   33.7170   29.4360   33.8910 C   0  0  0  0  0  0  0  0  0  0  0  0
   33.3640   28.6940   33.2010 H   0  0  0  0  0  0  0  0  0  0  0  0
   32.8770   30.2020   34.6710 C   0  0  0  0  0  3  0  0  0  0  0  0
   33.3540   31.1510   35.5530 C   0  0  0  0  0  0  0  0  0  0  0  0
   32.5550   31.9220   36.3360 N   0  0  0  0  0  0  0  0  0  0  0  0
   33.0690   32.8360   37.1820 C   0  0  0  0  0  0  0  0  0  0  0  0
   32.3660   33.4240   37.7840 H   0  0  0  0  0  0  0  0  0  0  0  0
   34.4200   33.0720   37.3300 C   0  0  0  0  0  3  0  0  0  0  0  0
   35.2720   32.2930   36.5380 C   0  0  0  0  0  3  0  0  0  0  0  0
   34.7100   31.3660   35.6820 C   0  0  0  0  0  0  0  0  0  0  0  0
   35.5800   30.5960   34.8970 C   0  0  0  0  0  3  0  0  0  0  0  0
   40.3120   25.1150   34.9120 C   0  0  0  0  0  0  0  0  0  0  0  0
   39.6700   26.2030   34.3030 C   0  0  0  0  0  0  0  0  0  0  0  0
   38.4230   26.0600   33.7040 C   0  0  0  0  0  0  0  0  0  0  0  0
   37.8710   24.8230   33.7430 N   0  0  0  0  0  0  0  0  0  0  0  0
   38.5040   23.7890   34.3340 C   0  0  0  0  0  0  0  0  0  0  0  0
   39.7070   23.9270   34.9110 N   0  0  0  0  0  0  0  0  0  0  0  0
   41.2700   25.4400   35.3160 H   0  0  0  0  0  0  0  0  0  0  0  0
   40.0570   27.2140   34.2380 H   0  0  0  0  0  0  0  0  0  0  0  0
   38.0450   22.8120   34.3520 H   0  0  0  0  0  0  0  0  0  0  0  0
  2  1  1  0  0  0  0
  3 25  1  0  0  0  0
  3  2  2  0  0  0  0
  4  3  1  0  0  0  0
  5  4  2  0  0  0  0
  5  6  1  0  0  0  0
  6  7  2  0  0  0  0
  7  2  1  0  0  0  0
  7 11  1  0  0  0  0
  8  4  1  0  0  0  0
  9  5  1  0  0  0  0
 10  6  1  0  0  0  0
 11 22  1  0  0  0  0
 12 11  2  0  0  0  0
 12 14  1  0  0  0  0
 13 12  1  0  0  0  0
 14 15  2  0  0  0  0
 15 21  1  0  0  0  0
 15 16  1  0  0  0  0
 16 17  2  0  0  0  0
 17 19  1  0  0  0  0
 17 18  1  0  0  0  0
 20 19  2  0  0  0  0
 21 20  1  0  0  0  0
 22 21  2  0  0  0  0
 23 29  1  0  0  0  0
 24 23  2  0  0  0  0
 25 26  2  0  0  0  0
 25 24  1  0  0  0  0
 26 27  1  0  0  0  0
 27 31  1  0  0  0  0
 27 28  2  0  0  0  0
 28 23  1  0  0  0  0
 30 24  1  0  0  0  0
M  END
>  <minimizedAffinity>
-6.02984238

$$$$

 OpenBabel03272503033D

 31 34  0  0  0  0  0  0  0  0999 V2000
   37.1040   28.4300   35.7050 F   0  0  0  0  0  0  0  0  0  0  0  0
   36.7880   28.4080   34.3900 C   0  0  0  0  0  0  0  0  0  0  0  0
   35.8330   29.2490   33.9120 C   0  0  0  0  0  0  0  0  0  0  0  0
   35.5660   29.1700   32.5680 C   0  0  0  0  0  0  0  0  0  0  0  0
   36.2140   28.2970   31.7220 C   0  0  0  0  0  0  0  0  0  0  0  0
   37.1770   27.4590   32.2340 C   0  0  0  0  0  0  0  0  0  0  0  0
   37.4680   27.5140   33.5910 C   0  0  0  0  0  0  0  0  0  0  0  0
   34.7990   29.8410   32.1670 H   0  0  0  0  0  0  0  0  0  0  0  0
   35.9550   28.2850   30.6640 H   0  0  0  0  0  0  0  0  0  0  0  0
   37.6990   26.7620   31.5840 H   0  0  0  0  0  0  0  0  0  0  0  0
   38.4950   26.6080   34.0960 C   0  0  0  0  0  0  0  0  0  0  0  0
   39.8350   26.9430   34.1690 C   0  0  0  0  0  0  0  0  0  0  0  0
   40.1570   27.9130   33.8420 H   0  0  0  0  0  0  0  0  0  0  0  0
   40.6990   25.9900   34.6670 C   0  0  0  0  0  3  0  0  0  0  0  0
   40.2640   24.7480   35.0830 C   0  0  0  0  0  0  0  0  0  0  0  0
   41.0870   23.7870   35.5790 N   0  0  0  0  0  0  0  0  0  0  0  0
   40.6130   22.5890   35.9720 C   0  0  0  0  0  0  0  0  0  0  0  0
   41.3330   21.8600   36.3620 H   0  0  0  0  0  0  0  0  0  0  0  0
   39.2820   22.2300   35.9090 C   0  0  0  0  0  3  0  0  0  0  0  0
   38.4060   23.1980   35.4030 C   0  0  0  0  0  3  0  0  0  0  0  0
   38.9270   24.4160   35.0100 C   0  0  0  0  0  0  0  0  0  0  0  0
   38.0340   25.3720   34.5060 C   0  0  0  0  0  3  0  0  0  0  0  0
   35.1950   32.0100   36.4230 C   0  0  0  0  0  0  0  0  0  0  0  0
   35.8570   31.1540   35.5320 C   0  0  0  0  0  0  0  0  0  0  0  0
   35.1720   30.1570   34.8470 C   0  0  0  0  0  0  0  0  0  0  0  0
   33.8410   30.0630   35.0860 N   0  0  0  0  0  0  0  0  0  0  0  0
   33.2210   30.8950   35.9480 C   0  0  0  0  0  0  0  0  0  0  0  0
   33.8840   31.8570   36.6100 N   0  0  0  0  0  0  0  0  0  0  0  0
   35.9100   32.7120   36.8500 H   0  0  0  0  0  0  0  0  0  0  0  0
   36.9160   31.1770   35.2970 H   0  0  0  0  0  0  0  0  0  0  0  0
   32.1610   30.8010   36.1230 H   0  0  0  0  0  0  0  0  0  0  0  0
  2  1  1  0  0  0  0
  3  2  1  0  0  0  0
  3 25  1  0  0  0  0
  4  3  2  0  0  0  0
  5  6  2  0  0  0  0
  5  4  1  0  0  0  0
  6  7  1  0  0  0  0
  7 11  1  0  0  0  0
  7  2  2  0  0  0  0
  8  4  1  0  0  0  0
  9  5  1  0  0  0  0
 10  6  1  0  0  0  0
 11 12  2  0  0  0  0
 11 22  1  0  0  0  0
 12 14  1  0  0  0  0
 13 12  1  0  0  0  0
 14 15  2  0  0  0  0
 15 16  1  0  0  0  0
 16 17  2  0  0  0  0
 17 18  1  0  0  0  0
 19 17  1  0  0  0  0
 20 19  2  0  0  0  0
 21 15  1  0  0  0  0
 21 20  1  0  0  0  0
 22 21  2  0  0  0  0
 23 28  1  0  0  0  0
 23 29  1  0  0  0  0
 24 23  2  0  0  0  0
 25 26  2  0  0  0  0
 25 24  1  0  0  0  0
 26 27  1  0  0  0  0
 27 31  1  0  0  0  0
 27 28  2  0  0  0  0
 30 24  1  0  0  0  0
M  END
>  <minimizedAffinity>
-5.92876387

$$$$

 OpenBabel03272503033D

 31 34  0  0  0  0  0  0  0  0999 V2000
   37.2090   28.0560   35.5600 F   0  0  0  0  0  0  0  0  0  0  0  0
   36.9580   28.0480   34.2320 C   0  0  0  0  0  0  0  0  0  0  0  0
   37.6210   27.1770   33.4250 C   0  0  0  0  0  0  0  0  0  0  0  0
   37.3130   27.2260   32.0890 C   0  0  0  0  0  0  0  0  0  0  0  0
   36.3860   28.0990   31.5610 C   0  0  0  0  0  0  0  0  0  0  0  0
   35.7290   28.9670   32.4020 C   0  0  0  0  0  0  0  0  0  0  0  0
   36.0200   28.9420   33.7600 C   0  0  0  0  0  0  0  0  0  0  0  0
   37.8390   26.5320   31.4250 H   0  0  0  0  0  0  0  0  0  0  0  0
   36.1880   28.0850   30.4910 H   0  0  0  0  0  0  0  0  0  0  0  0
   34.9950   29.6630   32.0060 H   0  0  0  0  0  0  0  0  0  0  0  0
   35.3040   29.8790   34.6190 C   0  0  0  0  0  0  0  0  0  0  0  0
   35.9310   30.8660   35.3580 C   0  0  0  0  0  0  0  0  0  0  0  0
   36.9980   30.9640   35.3110 H   0  0  0  0  0  0  0  0  0  0  0  0
   35.1310   31.6840   36.1280 C   0  0  0  0  0  3  0  0  0  0  0  0
   33.7590   31.5410   36.1730 C   0  0  0  0  0  0  0  0  0  0  0  0
   32.9430   32.3290   36.9200 N   0  0  0  0  0  0  0  0  0  0  0  0
   31.6070   32.1500   36.9310 C   0  0  0  0  0  0  0  0  0  0  0  0
   31.0080   32.8210   37.5560 H   0  0  0  0  0  0  0  0  0  0  0  0
   30.9580   31.1730   36.2040 C   0  0  0  0  0  3  0  0  0  0  0  0
   31.7700   30.3430   35.4220 C   0  0  0  0  0  3  0  0  0  0  0  0
   33.1350   30.5570   35.4360 C   0  0  0  0  0  0  0  0  0  0  0  0
   33.9320   29.7150   34.6460 C   0  0  0  0  0  3  0  0  0  0  0  0
   40.8340   25.7400   34.8190 C   0  0  0  0  0  0  0  0  0  0  0  0
   39.9220   26.6310   34.2370 C   0  0  0  0  0  0  0  0  0  0  0  0
   38.5950   26.2710   34.0290 C   0  0  0  0  0  0  0  0  0  0  0  0
   38.2380   25.0230   34.4180 N   0  0  0  0  0  0  0  0  0  0  0  0
   39.1300   24.1790   34.9760 C   0  0  0  0  0  0  0  0  0  0  0  0
   40.4110   24.5260   35.1750 N   0  0  0  0  0  0  0  0  0  0  0  0
   41.8110   26.2150   34.8910 H   0  0  0  0  0  0  0  0  0  0  0  0
   40.1430   27.6400   33.9060 H   0  0  0  0  0  0  0  0  0  0  0  0
   38.8230   23.1890   35.2770 H   0  0  0  0  0  0  0  0  0  0  0  0
  2  1  1  0  0  0  0
  3 25  1  0  0  0  0
  3  2  2  0  0  0  0
  4  3  1  0  0  0  0
  5  4  2  0  0  0  0
  5  6  1  0  0  0  0
  6  7  2  0  0  0  0
  7  2  1  0  0  0  0
  7 11  1  0  0  0  0
  8  4  1  0  0  0  0
  9  5  1  0  0  0  0
 10  6  1  0  0  0  0
 11 22  2  0  0  0  0
 11 12  1  0  0  0  0
 12 14  2  0  0  0  0
 13 12  1  0  0  0  0
 14 15  1  0  0  0  0
 15 16  1  0  0  0  0
 16 17  2  0  0  0  0
 17 18  1  0  0  0  0
 19 17  1  0  0  0  0
 20 21  1  0  0  0  0
 20 19  2  0  0  0  0
 21 15  2  0  0  0  0
 22 21  1  0  0  0  0
 23 29  1  0  0  0  0
 23 28  1  0  0  0  0
 24 23  2  0  0  0  0
 25 24  1  0  0  0  0
 25 26  2  0  0  0  0
 26 27  1  0  0  0  0
 27 28  2  0  0  0  0
 27 31  1  0  0  0  0
 30 24  1  0  0  0  0
M  END
>  <minimizedAffinity>
-5.87031889

$$$$

 OpenBabel03272503033D

 31 34  0  0  0  0  0  0  0  0999 V2000
   36.5250   26.5820   35.0160 F   0  0  0  0  0  0  0  0  0  0  0  0
   37.1720   26.7850   33.8460 C   0  0  0  0  0  0  0  0  0  0  0  0
   38.1150   25.8970   33.4350 C   0  0  0  0  0  0  0  0  0  0  0  0
   38.7290   26.1680   32.2370 C   0  0  0  0  0  0  0  0  0  0  0  0
   38.4280   27.2730   31.4700 C   0  0  0  0  0  0  0  0  0  0  0  0
   37.4670   28.1530   31.9110 C   0  0  0  0  0  0  0  0  0  0  0  0
   36.8290   27.9060   33.1200 C   0  0  0  0  0  0  0  0  0  0  0  0
   39.4920   25.4630   31.8920 H   0  0  0  0  0  0  0  0  0  0  0  0
   38.9520   27.4290   30.5290 H   0  0  0  0  0  0  0  0  0  0  0  0
   37.2150   29.0300   31.3210 H   0  0  0  0  0  0  0  0  0  0  0  0
   35.8170   28.8630   33.5540 C   0  0  0  0  0  0  0  0  0  0  0  0
   34.5530   28.9390   32.9970 C   0  0  0  0  0  0  0  0  0  0  0  0
   34.2830   28.2680   32.2040 H   0  0  0  0  0  0  0  0  0  0  0  0
   33.6940   29.8920   33.5040 C   0  0  0  0  0  3  0  0  0  0  0  0
   34.0620   30.7450   34.5250 C   0  0  0  0  0  0  0  0  0  0  0  0
   33.2420   31.6940   35.0470 N   0  0  0  0  0  0  0  0  0  0  0  0
   33.6480   32.5040   36.0440 C   0  0  0  0  0  0  0  0  0  0  0  0
   32.9350   33.2480   36.4180 H   0  0  0  0  0  0  0  0  0  0  0  0
   34.9030   32.4500   36.6160 C   0  0  0  0  0  3  0  0  0  0  0  0
   35.7730   31.4810   36.1010 C   0  0  0  0  0  3  0  0  0  0  0  0
   35.3230   30.6690   35.0790 C   0  0  0  0  0  0  0  0  0  0  0  0
   36.2090   29.7060   34.5770 C   0  0  0  0  0  3  0  0  0  0  0  0
   39.4670   23.6960   36.2030 C   0  0  0  0  0  0  0  0  0  0  0  0
   39.2100   24.8230   35.4090 C   0  0  0  0  0  0  0  0  0  0  0  0
   38.4020   24.7410   34.2810 C   0  0  0  0  0  0  0  0  0  0  0  0
   37.8810   23.5220   33.9960 N   0  0  0  0  0  0  0  0  0  0  0  0
   38.1400   22.4490   34.7710 C   0  0  0  0  0  0  0  0  0  0  0  0
   38.9210   22.5290   35.8590 N   0  0  0  0  0  0  0  0  0  0  0  0
   40.1180   23.9750   37.0300 H   0  0  0  0  0  0  0  0  0  0  0  0
   39.5940   25.8230   35.5820 H   0  0  0  0  0  0  0  0  0  0  0  0
   37.7150   21.4890   34.5240 H   0  0  0  0  0  0  0  0  0  0  0  0
  2  1  1  0  0  0  0
  3  2  1  0  0  0  0
  3 25  1  0  0  0  0
  4  3  2  0  0  0  0
  5  6  2  0  0  0  0
  5  4  1  0  0  0  0
  6  7  1  0  0  0  0
  7 11  1  0  0  0  0
  7  2  2  0  0  0  0
  8  4  1  0  0  0  0
  9  5  1  0  0  0  0
 10  6  1  0  0  0  0
 11 22  1  0  0  0  0
 12 14  1  0  0  0  0
 12 11  2  0  0  0  0
 13 12  1  0  0  0  0
 14 15  2  0  0  0  0
 15 16  1  0  0  0  0
 15 21  1  0  0  0  0
 16 17  2  0  0  0  0
 17 18  1  0  0  0  0
 17 19  1  0  0  0  0
 20 19  2  0  0  0  0
 21 20  1  0  0  0  0
 22 21  2  0  0  0  0
 23 29  1  0  0  0  0
 24 30  1  0  0  0  0
 24 23  2  0  0  0  0
 25 24  1  0  0  0  0
 26 25  2  0  0  0  0
 26 27  1  0  0  0  0
 27 28  2  0  0  0  0
 28 23  1  0  0  0  0
 31 27  1  0  0  0  0
M  END
>  <minimizedAffinity>
-5.81636333

$$$$

 OpenBabel03272503033D

 31 34  0  0  0  0  0  0  0  0999 V2000
   37.8700   26.8800   33.0650 F   0  0  0  0  0  0  0  0  0  0  0  0
   37.0720   26.0030   32.4160 C   0  0  0  0  0  0  0  0  0  0  0  0
   36.0670   26.4630   31.6260 C   0  0  0  0  0  0  0  0  0  0  0  0
   35.2990   25.5130   30.9980 C   0  0  0  0  0  0  0  0  0  0  0  0
   35.5110   24.1590   31.1410 C   0  0  0  0  0  0  0  0  0  0  0  0
   36.5380   23.7230   31.9460 C   0  0  0  0  0  0  0  0  0  0  0  0
   37.3310   24.6600   32.5960 C   0  0  0  0  0  0  0  0  0  0  0  0
   34.4840   25.8680   30.3590 H   0  0  0  0  0  0  0  0  0  0  0  0
   34.8650   23.4580   30.6140 H   0  0  0  0  0  0  0  0  0  0  0  0
   36.7210   22.6600   32.0720 H   0  0  0  0  0  0  0  0  0  0  0  0
   38.4090   24.1580   33.4410 C   0  0  0  0  0  0  0  0  0  0  0  0
   39.6730   23.8580   32.9650 C   0  0  0  0  0  0  0  0  0  0  0  0
   39.8920   23.9940   31.9230 H   0  0  0  0  0  0  0  0  0  0  0  0
   40.5980   23.3900   33.8750 C   0  0  0  0  0  3  0  0  0  0  0  0
   40.2950   23.2230   35.2110 C   0  0  0  0  0  0  0  0  0  0  0  0
   41.1810   22.7650   36.1340 N   0  0  0  0  0  0  0  0  0  0  0  0
   40.8380   22.6180   37.4280 C   0  0  0  0  0  0  0  0  0  0  0  0
   41.6020   22.2440   38.1190 H   0  0  0  0  0  0  0  0  0  0  0  0
   39.5850   22.9100   37.9280 C   0  0  0  0  0  3  0  0  0  0  0  0
   38.6470   23.3850   37.0030 C   0  0  0  0  0  3  0  0  0  0  0  0
   39.0350   23.5220   35.6850 C   0  0  0  0  0  0  0  0  0  0  0  0
   38.0810   23.9990   34.7740 C   0  0  0  0  0  3  0  0  0  0  0  0
   36.3360   30.0540   30.4560 C   0  0  0  0  0  0  0  0  0  0  0  0
   36.5370   28.6690   30.5470 C   0  0  0  0  0  0  0  0  0  0  0  0
   35.8790   27.9070   31.5060 C   0  0  0  0  0  0  0  0  0  0  0  0
   35.0420   28.5720   32.3390 N   0  0  0  0  0  0  0  0  0  0  0  0
   34.8620   29.9050   32.2370 C   0  0  0  0  0  0  0  0  0  0  0  0
   35.4980   30.6400   31.3120 N   0  0  0  0  0  0  0  0  0  0  0  0
   36.9410   30.4550   29.6450 H   0  0  0  0  0  0  0  0  0  0  0  0
   37.1900   28.0790   29.9130 H   0  0  0  0  0  0  0  0  0  0  0  0
   34.1910   30.4140   32.9120 H   0  0  0  0  0  0  0  0  0  0  0  0
  2  7  1  0  0  0  0
  2  1  1  0  0  0  0
  3  2  2  0  0  0  0
  4  5  2  0  0  0  0
  4  3  1  0  0  0  0
  5  6  1  0  0  0  0
  6 10  1  0  0  0  0
  6  7  2  0  0  0  0
  7 11  1  0  0  0  0
  8  4  1  0  0  0  0
  9  5  1  0  0  0  0
 11 22  1  0  0  0  0
 12 11  2  0  0  0  0
 12 14  1  0  0  0  0
 13 12  1  0  0  0  0
 14 15  2  0  0  0  0
 15 21  1  0  0  0  0
 15 16  1  0  0  0  0
 16 17  2  0  0  0  0
 17 19  1  0  0  0  0
 17 18  1  0  0  0  0
 20 19  2  0  0  0  0
 21 20  1  0  0  0  0
 22 21  2  0  0  0  0
 23 24  2  0  0  0  0
 23 28  1  0  0  0  0
 24 25  1  0  0  0  0
 25  3  1  0  0  0  0
 25 26  2  0  0  0  0
 27 26  1  0  0  0  0
 27 31  1  0  0  0  0
 28 27  2  0  0  0  0
 29 23  1  0  0  0  0
 30 24  1  0  0  0  0
M  END
>  <minimizedAffinity>
-5.81494522

$$$$

 OpenBabel03272503033D

 31 34  0  0  0  0  0  0  0  0999 V2000
   36.5000   28.2860   35.2850 F   0  0  0  0  0  0  0  0  0  0  0  0
   36.2820   28.6740   34.0080 C   0  0  0  0  0  0  0  0  0  0  0  0
   35.4870   29.7470   33.7550 C   0  0  0  0  0  0  0  0  0  0  0  0
   35.3130   30.0810   32.4350 C   0  0  0  0  0  0  0  0  0  0  0  0
   35.8990   29.3870   31.3990 C   0  0  0  0  0  0  0  0  0  0  0  0
   36.7000   28.3060   31.6860 C   0  0  0  0  0  0  0  0  0  0  0  0
   36.8940   27.9420   33.0130 C   0  0  0  0  0  0  0  0  0  0  0  0
   34.6740   30.9430   32.2150 H   0  0  0  0  0  0  0  0  0  0  0  0
   35.7200   29.7050   30.3740 H   0  0  0  0  0  0  0  0  0  0  0  0
   37.1700   27.7450   30.8830 H   0  0  0  0  0  0  0  0  0  0  0  0
   37.7500   26.7900   33.2750 C   0  0  0  0  0  0  0  0  0  0  0  0
   37.3530   25.4830   33.0550 C   0  0  0  0  0  0  0  0  0  0  0  0
   36.3700   25.2850   32.6730 H   0  0  0  0  0  0  0  0  0  0  0  0
   38.2630   24.4880   33.3470 C   0  0  0  0  0  3  0  0  0  0  0  0
   39.5230   24.7650   33.8380 C   0  0  0  0  0  0  0  0  0  0  0  0
   40.4430   23.8110   34.1360 N   0  0  0  0  0  0  0  0  0  0  0  0
   41.6610   24.1310   34.6140 C   0  0  0  0  0  0  0  0  0  0  0  0
   42.3550   23.3110   34.8320 H   0  0  0  0  0  0  0  0  0  0  0  0
   42.0810   25.4260   34.8420 C   0  0  0  0  0  3  0  0  0  0  0  0
   41.1560   26.4350   34.5450 C   0  0  0  0  0  3  0  0  0  0  0  0
   39.9170   26.0690   34.0570 C   0  0  0  0  0  0  0  0  0  0  0  0
   39.0050   27.0930   33.7660 C   0  0  0  0  0  3  0  0  0  0  0  0
   34.9960   32.0090   36.7510 C   0  0  0  0  0  0  0  0  0  0  0  0
   35.6000   31.3480   35.6730 C   0  0  0  0  0  0  0  0  0  0  0  0
   34.8870   30.4520   34.8860 C   0  0  0  0  0  0  0  0  0  0  0  0
   33.5870   30.2560   35.2170 N   0  0  0  0  0  0  0  0  0  0  0  0
   33.0230   30.9010   36.2590 C   0  0  0  0  0  0  0  0  0  0  0  0
   33.7130   31.7660   37.0190 N   0  0  0  0  0  0  0  0  0  0  0  0
   35.7250   32.6610   37.2310 H   0  0  0  0  0  0  0  0  0  0  0  0
   36.6320   31.4600   35.3560 H   0  0  0  0  0  0  0  0  0  0  0  0
   31.9860   30.7290   36.5050 H   0  0  0  0  0  0  0  0  0  0  0  0
  2  1  1  0  0  0  0
  3  2  1  0  0  0  0
  3 25  1  0  0  0  0
  4  3  2  0  0  0  0
  5  6  2  0  0  0  0
  5  4  1  0  0  0  0
  6  7  1  0  0  0  0
  7 11  1  0  0  0  0
  7  2  2  0  0  0  0
  8  4  1  0  0  0  0
  9  5  1  0  0  0  0
 10  6  1  0  0  0  0
 11 22  1  0  0  0  0
 12 11  2  0  0  0  0
 12 14  1  0  0  0  0
 13 12  1  0  0  0  0
 14 15  2  0  0  0  0
 15 21  1  0  0  0  0
 15 16  1  0  0  0  0
 16 17  2  0  0  0  0
 17 18  1  0  0  0  0
 17 19  1  0  0  0  0
 20 19  2  0  0  0  0
 21 20  1  0  0  0  0
 22 21  2  0  0  0  0
 23 28  1  0  0  0  0
 23 29  1  0  0  0  0
 24 23  2  0  0  0  0
 25 26  2  0  0  0  0
 25 24  1  0  0  0  0
 26 27  1  0  0  0  0
 27 31  1  0  0  0  0
 27 28  2  0  0  0  0
 30 24  1  0  0  0  0
M  END
>  <minimizedAffinity>
-5.75211

$$$$

 OpenBabel03272503033D

 31 34  0  0  0  0  0  0  0  0999 V2000
   36.2600   29.8360   31.7990 F   0  0  0  0  0  0  0  0  0  0  0  0
   36.7110   28.7860   32.5220 C   0  0  0  0  0  0  0  0  0  0  0  0
   37.6520   27.9580   31.9950 C   0  0  0  0  0  0  0  0  0  0  0  0
   38.0610   26.9150   32.7870 C   0  0  0  0  0  0  0  0  0  0  0  0
   37.5640   26.6900   34.0520 C   0  0  0  0  0  0  0  0  0  0  0  0
   36.6130   27.5450   34.5600 C   0  0  0  0  0  0  0  0  0  0  0  0
   36.1780   28.6100   33.7810 C   0  0  0  0  0  0  0  0  0  0  0  0
   38.8180   26.2390   32.3760 H   0  0  0  0  0  0  0  0  0  0  0  0
   37.9320   25.8430   34.6290 H   0  0  0  0  0  0  0  0  0  0  0  0
   36.2090   27.3850   35.5550 H   0  0  0  0  0  0  0  0  0  0  0  0
   35.1680   29.4940   34.3550 C   0  0  0  0  0  0  0  0  0  0  0  0
   33.8130   29.3560   34.1150 C   0  0  0  0  0  0  0  0  0  0  0  0
   33.4660   28.5660   33.4770 H   0  0  0  0  0  0  0  0  0  0  0  0
   32.9680   30.2620   34.7210 C   0  0  0  0  0  3  0  0  0  0  0  0
   33.4350   31.2700   35.5390 C   0  0  0  0  0  0  0  0  0  0  0  0
   32.6320   32.1780   36.1520 N   0  0  0  0  0  0  0  0  0  0  0  0
   33.1360   33.1460   36.9420 C   0  0  0  0  0  0  0  0  0  0  0  0
   32.4300   33.8450   37.4050 H   0  0  0  0  0  0  0  0  0  0  0  0
   34.4830   33.3050   37.1970 C   0  0  0  0  0  3  0  0  0  0  0  0
   35.3400   32.3850   36.5810 C   0  0  0  0  0  3  0  0  0  0  0  0
   34.7870   31.4060   35.7770 C   0  0  0  0  0  0  0  0  0  0  0  0
   35.6610   30.4950   35.1690 C   0  0  0  0  0  3  0  0  0  0  0  0
   39.9370   28.3880   29.0070 C   0  0  0  0  0  0  0  0  0  0  0  0
   39.4910   28.1150   30.3070 C   0  0  0  0  0  0  0  0  0  0  0  0
   38.1480   28.2350   30.6490 C   0  0  0  0  0  0  0  0  0  0  0  0
   37.3050   28.6280   29.6620 N   0  0  0  0  0  0  0  0  0  0  0  0
   37.7530   28.8860   28.4170 C   0  0  0  0  0  0  0  0  0  0  0  0
   39.0490   28.7700   28.0880 N   0  0  0  0  0  0  0  0  0  0  0  0
   41.0130   28.2330   28.9530 H   0  0  0  0  0  0  0  0  0  0  0  0
   40.1110   27.7980   31.1390 H   0  0  0  0  0  0  0  0  0  0  0  0
   37.0640   29.1980   27.6470 H   0  0  0  0  0  0  0  0  0  0  0  0
  1  2  1  0  0  0  0
  2  7  1  0  0  0  0
  3  2  2  0  0  0  0
  3  4  1  0  0  0  0
  4  5  2  0  0  0  0
  5  6  1  0  0  0  0
  5  9  1  0  0  0  0
  6 10  1  0  0  0  0
  7 11  1  0  0  0  0
  7  6  2  0  0  0  0
  8  4  1  0  0  0  0
 11 22  1  0  0  0  0
 12 11  2  0  0  0  0
 12 14  1  0  0  0  0
 13 12  1  0  0  0  0
 14 15  2  0  0  0  0
 15 21  1  0  0  0  0
 15 16  1  0  0  0  0
 16 17  2  0  0  0  0
 17 19  1  0  0  0  0
 17 18  1  0  0  0  0
 20 19  2  0  0  0  0
 21 20  1  0  0  0  0
 22 21  2  0  0  0  0
 23 24  1  0  0  0  0
 24 25  2  0  0  0  0
 24 30  1  0  0  0  0
 25  3  1  0  0  0  0
 26 25  1  0  0  0  0
 27 26  2  0  0  0  0
 28 27  1  0  0  0  0
 28 23  2  0  0  0  0
 29 23  1  0  0  0  0
 31 27  1  0  0  0  0
M  END
>  <minimizedAffinity>
-5.71357965

$$$$

 OpenBabel03272503033D

 31 34  0  0  0  0  0  0  0  0999 V2000
   35.3130   28.5930   34.5410 F   0  0  0  0  0  0  0  0  0  0  0  0
   35.9210   28.6540   33.3350 C   0  0  0  0  0  0  0  0  0  0  0  0
   35.4340   29.4840   32.3740 C   0  0  0  0  0  0  0  0  0  0  0  0
   36.1050   29.4920   31.1770 C   0  0  0  0  0  0  0  0  0  0  0  0
   37.2150   28.7140   30.9300 C   0  0  0  0  0  0  0  0  0  0  0  0
   37.6860   27.8850   31.9220 C   0  0  0  0  0  0  0  0  0  0  0  0
   37.0280   27.8540   33.1450 C   0  0  0  0  0  0  0  0  0  0  0  0
   35.7250   30.1550   30.3920 H   0  0  0  0  0  0  0  0  0  0  0  0
   37.7010   28.7690   29.9570 H   0  0  0  0  0  0  0  0  0  0  0  0
   38.5590   27.2630   31.7470 H   0  0  0  0  0  0  0  0  0  0  0  0
   37.5570   26.9610   34.1700 C   0  0  0  0  0  0  0  0  0  0  0  0
   37.9720   27.3960   35.4160 C   0  0  0  0  0  0  0  0  0  0  0  0
   37.9090   28.4390   35.6610 H   0  0  0  0  0  0  0  0  0  0  0  0
   38.4530   26.4440   36.2910 C   0  0  0  0  0  3  0  0  0  0  0  0
   38.5240   25.1070   35.9560 C   0  0  0  0  0  0  0  0  0  0  0  0
   38.9910   24.1440   36.7930 N   0  0  0  0  0  0  0  0  0  0  0  0
   39.0420   22.8500   36.4190 C   0  0  0  0  0  0  0  0  0  0  0  0
   39.4300   22.1250   37.1440 H   0  0  0  0  0  0  0  0  0  0  0  0
   38.6360   22.3910   35.1830 C   0  0  0  0  0  3  0  0  0  0  0  0
   38.1480   23.3580   34.2960 C   0  0  0  0  0  3  0  0  0  0  0  0
   38.1110   24.6750   34.7130 C   0  0  0  0  0  0  0  0  0  0  0  0
   37.6190   25.6280   33.8110 C   0  0  0  0  0  3  0  0  0  0  0  0
   33.1860   32.3790   33.3200 C   0  0  0  0  0  0  0  0  0  0  0  0
   34.3360   31.6320   33.0310 C   0  0  0  0  0  0  0  0  0  0  0  0
   34.2550   30.2890   32.6810 C   0  0  0  0  0  0  0  0  0  0  0  0
   33.0120   29.7490   32.6370 N   0  0  0  0  0  0  0  0  0  0  0  0
   31.9160   30.4840   32.9190 C   0  0  0  0  0  0  0  0  0  0  0  0
   31.9960   31.7800   33.2570 N   0  0  0  0  0  0  0  0  0  0  0  0
   33.4690   33.4010   33.5680 H   0  0  0  0  0  0  0  0  0  0  0  0
   35.3560   32.0030   33.0480 H   0  0  0  0  0  0  0  0  0  0  0  0
   30.9370   30.0320   32.8780 H   0  0  0  0  0  0  0  0  0  0  0  0
  2  1  1  0  0  0  0
  3 25  1  0  0  0  0
  3  2  2  0  0  0  0
  4  3  1  0  0  0  0
  5  4  2  0  0  0  0
  5  6  1  0  0  0  0
  6  7  2  0  0  0  0
  7  2  1  0  0  0  0
  7 11  1  0  0  0  0
  8  4  1  0  0  0  0
  9  5  1  0  0  0  0
 10  6  1  0  0  0  0
 11 12  1  0  0  0  0
 12 13  1  0  0  0  0
 12 14  2  0  0  0  0
 15 14  1  0  0  0  0
 15 16  1  0  0  0  0
 17 16  2  0  0  0  0
 17 18  1  0  0  0  0
 19 17  1  0  0  0  0
 20 21  1  0  0  0  0
 20 19  2  0  0  0  0
 21 15  2  0  0  0  0
 22 11  2  0  0  0  0
 22 21  1  0  0  0  0
 23 29  1  0  0  0  0
 24 30  1  0  0  0  0
 24 23  2  0  0  0  0
 25 24  1  0  0  0  0
 26 25  2  0  0  0  0
 26 27  1  0  0  0  0
 27 28  2  0  0  0  0
 28 23  1  0  0  0  0
 31 27  1  0  0  0  0
M  END
>  <minimizedAffinity>
-5.6973753

$$$$
