
     RDKit          3D

 28 30  0  0  0  0  0  0  0  0999 V2000
   38.3071   31.2408   50.1163 C   0  0  0  0  0  0  0  0  0  0  0  0
   38.2909   31.6070   48.7615 C   0  0  0  0  0  0  0  0  0  0  0  0
   37.2032   31.2187   47.9938 C   0  0  0  0  0  0  0  0  0  0  0  0
   36.2190   30.5084   48.5952 N   0  0  0  0  0  0  0  0  0  0  0  0
   36.2611   30.1685   49.9061 C   0  0  0  0  0  0  0  0  0  0  0  0
   37.3003   30.5322   50.6660 N   0  0  0  0  0  0  0  0  0  0  0  0
   35.1239   29.3901   50.4417 C   0  0  0  0  0  0  0  0  0  0  0  0
   35.2623   29.1190   51.7946 F   0  0  0  0  0  0  0  0  0  0  0  0
   33.9212   30.0627   50.3063 F   0  0  0  0  0  0  0  0  0  0  0  0
   34.9601   28.1647   49.8224 F   0  0  0  0  0  0  0  0  0  0  0  0
   39.1605   31.5582   50.6728 H   0  0  0  0  0  0  0  0  0  0  0  0
   39.0872   32.1746   48.3001 H   0  0  0  0  0  0  0  0  0  0  0  0
   37.0530   31.5224   46.5983 C   0  0  0  0  0  0  0  0  0  0  0  0
   36.4193   32.6843   46.2358 C   0  0  0  0  0  0  0  0  0  0  0  0
   36.0304   33.3771   46.9667 H   0  0  0  0  0  0  0  0  0  0  0  0
   36.2213   33.0733   44.9165 C   0  0  0  0  0  0  0  0  0  0  0  0
   36.7017   32.2199   43.9188 C   0  0  0  0  0  0  0  0  0  0  0  0
   36.4954   32.6233   42.6411 N   0  0  0  0  0  0  0  0  0  0  0  0
   36.9578   31.8022   41.6579 C   0  0  0  0  0  0  0  0  0  0  0  0
   36.8750   31.9761   40.5818 H   0  0  0  0  0  0  0  0  0  0  0  0
   37.6070   30.6135   41.9501 C   0  0  0  0  0  0  0  0  0  0  0  0
   37.8110   30.2138   43.2565 C   0  0  0  0  0  0  0  0  0  0  0  0
   37.3380   31.0541   44.2432 C   0  0  0  0  0  0  0  0  0  0  0  0
   37.5041   30.7230   45.5709 C   0  0  0  0  0  0  0  0  0  0  0  0
   35.7174   33.9966   44.6629 H   0  0  0  0  0  0  0  0  0  0  0  0
   37.9884   29.9349   41.1976 H   0  0  0  0  0  0  0  0  0  0  0  0
   38.3094   29.2997   43.5458 H   0  0  0  0  0  0  0  0  0  0  0  0
   38.0078   29.8004   45.8027 H   0  0  0  0  0  0  0  0  0  0  0  0
  1  6  2  0
  2  1  1  0
  3  4  1  0
  3  2  2  0
  4  5  2  0
  5  7  1  0
  5  6  1  0
  7  8  1  0
  9  7  1  0
 10  7  1  0
  1 11  1  0
  2 12  1  0
 13 14  2  0
 14 15  1  0
 14 16  1  0
 16 17  2  0
 17 18  1  0
 18 19  2  0
 19 20  1  0
 19 21  1  0
 21 22  2  0
 22 23  1  0
 23 24  2  0
 24 13  1  0
 23 17  1  0
 16 25  1  0
 21 26  1  0
 22 27  1  0
 24 28  1  0
  3 13  1  0
M  ISO  4  11  14  12  14  15  16  20  16
M  END
>  <DihAtoms>  (1) 
3,2,12,13

>  <DihDeg>  (1) 
0.000960079600988756

$$$$
