
 OpenBabel03272509223D

 49 54  0  0  0  0  0  0  0  0999 V2000
   39.9200   30.9160   44.0460 C   0  0  0  0  0  0  0  0  0  0  0  0
   39.4010   31.6910   45.0630 C   0  0  0  0  0  0  0  0  0  0  0  0
   38.2770   32.4850   44.8080 C   0  0  0  0  0  0  0  0  0  0  0  0
   37.6890   32.4920   43.5430 C   0  0  0  0  0  0  0  0  0  0  0  0
   36.6400   33.1160   42.9820 N   0  0  0  0  0  0  0  0  0  0  0  0
   36.5040   32.7600   41.6970 C   0  0  0  0  0  0  0  0  0  0  0  0
   37.5070   31.8740   41.4300 N   0  0  0  0  0  0  0  0  0  0  0  0
   38.2330   31.7060   42.5520 C   0  0  0  0  0  0  0  0  0  0  0  0
   39.3420   30.9170   42.7900 C   0  0  0  0  0  0  0  0  0  0  0  0
   40.7810   30.3520   44.3640 H   0  0  0  0  0  0  0  0  0  0  0  0
   37.7660   33.1380   45.5020 H   0  0  0  0  0  0  0  0  0  0  0  0
   36.0140   33.7960   43.4970 H   0  0  0  0  0  0  0  0  0  0  0  0
   35.7370   33.1370   41.0650 H   0  0  0  0  0  0  0  0  0  0  0  0
   39.9690   30.0610   41.7840 C   0  0  0  0  0  0  0  0  0  0  0  0
   40.9420   30.6030   40.9520 C   0  0  0  0  0  0  0  0  0  0  0  0
   41.2540   31.6440   41.0230 H   0  0  0  0  0  0  0  0  0  0  0  0
   41.5570   29.8090   39.9820 C   0  0  0  0  0  3  0  0  0  0  0  0
   41.2230   28.4800   39.8230 C   0  0  0  0  0  0  0  0  0  0  0  0
   41.7970   27.6860   38.8960 N   0  0  0  0  0  0  0  0  0  0  0  0
   41.4830   26.3870   38.7270 C   0  0  0  0  0  0  0  0  0  0  0  0
   42.0040   25.8440   37.9580 H   0  0  0  0  0  0  0  0  0  0  0  0
   40.5140   25.8240   39.5470 C   0  0  0  0  0  3  0  0  0  0  0  0
   39.9000   26.6220   40.5170 C   0  0  0  0  0  3  0  0  0  0  0  0
   40.2580   27.9670   40.6570 C   0  0  0  0  0  0  0  0  0  0  0  0
   39.6360   28.7160   41.6170 C   0  0  0  0  0  3  0  0  0  0  0  0
   39.8060   31.8420   46.3670 O   0  0  0  0  0  0  0  0  0  0  0  0
   38.0520   31.3090   47.9420 C   0  0  0  0  0  0  0  0  0  0  0  0
   37.2400   31.5350   49.0380 C   0  0  0  0  0  0  0  0  0  0  0  0
   37.5010   32.7620   49.6890 C   0  0  0  0  0  0  0  0  0  0  0  0
   38.4920   33.6410   49.2420 C   0  0  0  0  0  0  0  0  0  0  0  0
   39.2610   33.2950   48.1040 C   0  0  0  0  0  0  0  0  0  0  0  0
   39.0200   32.0970   47.4550 C   0  0  0  0  0  0  0  0  0  0  0  0
   36.8970   33.0050   50.5590 H   0  0  0  0  0  0  0  0  0  0  0  0
   38.6920   34.5630   49.7280 H   0  0  0  0  0  0  0  0  0  0  0  0
   40.0180   33.9910   47.7830 H   0  0  0  0  0  0  0  0  0  0  0  0
   35.0630   30.4660   48.7430 C   0  0  0  0  0  0  0  0  0  0  0  0
   36.2320   30.6500   49.4980 C   0  0  0  0  0  0  0  0  0  0  0  0
   36.3410   29.9340   50.6890 C   0  0  0  0  0  0  0  0  0  0  0  0
   35.3360   29.1140   51.0520 N   0  0  0  0  0  0  0  0  0  0  0  0
   34.2180   28.9590   50.3000 C   0  0  0  0  0  0  0  0  0  0  0  0
   34.0970   29.6380   49.1530 N   0  0  0  0  0  0  0  0  0  0  0  0
   34.9840   31.0200   47.8250 H   0  0  0  0  0  0  0  0  0  0  0  0
   33.4590   28.2760   50.6710 H   0  0  0  0  0  0  0  0  0  0  0  0
   37.5610   30.0850   51.5410 C   0  0  0  0  0  0  0  0  0  0  0  0
   37.6580   31.1280   51.9210 H   0  0  0  0  0  0  0  0  0  0  0  0
   38.4530   29.8980   50.9000 H   0  0  0  0  0  0  0  0  0  0  0  0
   37.4910   29.3560   52.3680 H   0  0  0  0  0  0  0  0  0  0  0  0
   37.8650   30.1140   47.2350 O   0  0  0  0  0  0  0  0  0  0  0  0
   36.9280   29.7180   47.1630 H   0  0  0  0  0  0  0  0  0  0  0  0
  1 10  1  0  0  0  0
  1  2  1  0  0  0  0
  2 26  1  0  0  0  0
  3  2  2  0  0  0  0
  3 11  1  0  0  0  0
  4  3  1  0  0  0  0
  5 12  1  0  0  0  0
  5  4  1  0  0  0  0
  6  5  1  0  0  0  0
  7  6  2  0  0  0  0
  7  8  1  0  0  0  0
  8  9  1  0  0  0  0
  8  4  2  0  0  0  0
  9  1  2  0  0  0  0
 13  6  1  0  0  0  0
 14  9  1  0  0  0  0
 15 16  1  0  0  0  0
 15 14  2  0  0  0  0
 17 15  1  0  0  0  0
 18 17  2  0  0  0  0
 18 24  1  0  0  0  0
 19 18  1  0  0  0  0
 20 19  2  0  0  0  0
 20 22  1  0  0  0  0
 21 20  1  0  0  0  0
 22 23  2  0  0  0  0
 23 24  1  0  0  0  0
 24 25  2  0  0  0  0
 25 14  1  0  0  0  0
 26 32  1  0  0  0  0
 27 28  1  0  0  0  0
 28 37  1  0  0  0  0
 28 29  2  0  0  0  0
 29 33  1  0  0  0  0
 30 29  1  0  0  0  0
 30 34  1  0  0  0  0
 31 30  2  0  0  0  0
 32 27  2  0  0  0  0
 32 31  1  0  0  0  0
 35 31  1  0  0  0  0
 36 41  2  0  0  0  0
 36 37  1  0  0  0  0
 37 38  2  0  0  0  0
 38 39  1  0  0  0  0
 38 44  1  0  0  0  0
 40 43  1  0  0  0  0
 40 39  2  0  0  0  0
 41 40  1  0  0  0  0
 42 36  1  0  0  0  0
 44 45  1  0  0  0  0
 44 47  1  0  0  0  0
 46 44  1  0  0  0  0
 48 27  1  0  0  0  0
 49 48  1  0  0  0  0
M  END
>  <minimizedAffinity>
-7.9659996

>  <minimizedRMSD>
1.1723851

$$$$
