
     RDKit          3D

 38 41  0  0  0  0  0  0  0  0999 V2000
   34.6679   28.2861   49.5812 C   0  0  0  0  0  0  0  0  0  0  0  0
   37.2874   30.1889   51.3966 C   0  0  0  0  0  0  0  0  0  0  0  0
   38.0620   30.6989   50.3361 C   0  0  0  0  0  0  0  0  0  0  0  0
   37.6811   30.3872   49.0120 C   0  0  0  0  0  0  0  0  0  0  0  0
   36.5853   29.6101   48.8251 N   0  0  0  0  0  0  0  0  0  0  0  0
   35.8649   29.1380   49.8757 C   0  0  0  0  0  0  0  0  0  0  0  0
   36.2180   29.4274   51.1203 N   0  0  0  0  0  0  0  0  0  0  0  0
   34.4480   28.2075   48.1068 C   0  0  0  0  0  0  0  0  0  0  0  0
   32.9587   28.2570   47.8836 C   0  0  0  0  0  0  0  0  0  0  0  0
   32.0189   27.5903   48.6252 C   0  0  0  0  0  0  0  0  0  0  0  0
   30.7477   27.8616   48.1452 C   0  0  0  0  0  0  0  0  0  0  0  0
   30.9597   28.6976   47.1113 N   0  0  0  0  0  0  0  0  0  0  0  0
   32.2485   28.9352   46.9499 N   0  0  0  0  0  0  0  0  0  0  0  0
   34.8334   27.2881   50.0365 H   0  0  0  0  0  0  0  0  0  0  0  0
   33.8051   28.7536   50.0930 H   0  0  0  0  0  0  0  0  0  0  0  0
   37.5731   30.4234   52.4119 H   0  0  0  0  0  0  0  0  0  0  0  0
   38.9215   31.3083   50.4754 H   0  0  0  0  0  0  0  0  0  0  0  0
   38.2196   30.7374   48.1425 H   0  0  0  0  0  0  0  0  0  0  0  0
   34.8692   27.2544   47.7082 H   0  0  0  0  0  0  0  0  0  0  0  0
   34.8576   29.0628   47.5365 H   0  0  0  0  0  0  0  0  0  0  0  0
   32.1574   26.9251   49.4810 H   0  0  0  0  0  0  0  0  0  0  0  0
   29.7485   27.5556   48.4245 H   0  0  0  0  0  0  0  0  0  0  0  0
   30.0965   29.3538   46.1888 C   0  0  0  0  0  0  0  0  0  0  0  0
   29.9785   30.7258   46.1071 C   0  0  0  0  0  0  0  0  0  0  0  0
   30.5684   31.3235   46.7737 H   0  0  0  0  0  0  0  0  0  0  0  0
   29.0987   31.2352   45.1614 C   0  0  0  0  0  0  0  0  0  0  0  0
   28.3743   30.4052   44.3394 C   0  0  0  0  0  0  0  0  0  0  0  0
   27.5351   30.9373   43.4390 N   0  0  0  0  0  0  0  0  0  0  0  0
   26.8126   30.1403   42.6204 C   0  0  0  0  0  0  0  0  0  0  0  0
   26.1331   30.6095   41.8926 H   0  0  0  0  0  0  0  0  0  0  0  0
   26.9081   28.7608   42.6772 C   0  0  0  0  0  0  0  0  0  0  0  0
   27.7625   28.1874   43.5929 C   0  0  0  0  0  0  0  0  0  0  0  0
   28.4813   29.0313   44.4092 C   0  0  0  0  0  0  0  0  0  0  0  0
   29.3625   28.5230   45.3564 C   0  0  0  0  0  0  0  0  0  0  0  0
   29.0152   32.3161   45.1074 H   0  0  0  0  0  0  0  0  0  0  0  0
   26.3255   28.1323   42.0176 H   0  0  0  0  0  0  0  0  0  0  0  0
   27.8925   27.1020   43.6977 H   0  0  0  0  0  0  0  0  0  0  0  0
   29.4579   27.4356   45.4232 H   0  0  0  0  0  0  0  0  0  0  0  0
  1  6  1  0
  3  2  2  0
  4  3  1  0
  5  4  2  0
  5  6  1  0
  6  7  2  0
  7  2  1  0
  8  1  1  0
  9  8  1  0
  9 10  1  0
 11 10  2  0
 12 11  1  0
 13 12  1  0
 13  9  2  0
  1 14  1  0
  1 15  1  0
  2 16  1  0
  3 17  1  0
  4 18  1  0
  8 19  1  0
  8 20  1  0
 10 21  1  0
 11 22  1  0
 23 24  2  0
 24 25  1  0
 24 26  1  0
 26 27  2  0
 27 28  1  0
 28 29  2  0
 29 30  1  0
 29 31  1  0
 31 32  2  0
 32 33  1  0
 33 34  2  0
 34 23  1  0
 33 27  1  0
 26 35  1  0
 31 36  1  0
 32 37  1  0
 34 38  1  0
 12 23  1  0
M  ISO  8  14   8  15   8  16  14  17  14  18  14  19   8  20   8  21  14
M  ISO  3  22  14  25  16  30  16
M  END
>  <DihAtoms>  (1) 
10,11,22,23

>  <DihDeg>  (1) 
-63.36275992869084

$$$$
