REMARK  Name = 
REMARK  7 active torsions:
REMARK  status: ('A' for Active; 'I' for Inactive)
REMARK    1  A    between atoms: C_3  and  C_9
REMARK    2  A    between atoms: C_5  and  O_14
REMARK    3  A    between atoms: O_14  and  C_15
REMARK    4  A    between atoms: C_15  and  C_16
REMARK    5  A    between atoms: C_16  and  C_17
REMARK    6  A    between atoms: C_21  and  C_23
REMARK    7  A    between atoms: C_23  and  C_38
REMARK                            x       y       z     vdW  Elec       q    Type
REMARK                         _______ _______ _______ _____ _____    ______ ____
ROOT
ATOM      1  C   UNL     1      33.558  27.524  47.715  0.00  0.00    +0.000 C 
ATOM      2  H   UNL     1      33.733  26.638  48.324  0.00  0.00    +0.000 HD
ATOM      3  H   UNL     1      33.779  27.230  46.665  0.00  0.00    +0.000 HD
ENDROOT
BRANCH   1   4
ATOM      4  C   UNL     1      32.114  27.889  47.745  0.00  0.00    +0.000 A 
ATOM      5  C   UNL     1      31.378  27.471  48.837  0.00  0.00    +0.000 A 
ATOM      6  C   UNL     1      30.033  27.757  48.961  0.00  0.00    +0.000 A 
ATOM      7  N   UNL     1      29.429  28.457  48.000  0.00  0.00    +0.000 NA
ATOM      8  C   UNL     1      30.162  28.863  46.932  0.00  0.00    +0.000 A 
ATOM      9  N   UNL     1      31.471  28.593  46.795  0.00  0.00    +0.000 NA
ATOM     10  H   UNL     1      31.824  26.902  49.640  0.00  0.00    +0.000 HD
ATOM     11  H   UNL     1      29.439  27.431  49.821  0.00  0.00    +0.000 HD
BRANCH   8  12
ATOM     12  C   UNL     1      29.465  29.641  45.873  0.00  0.00    +0.000 C 
ATOM     13  H   UNL     1      28.678  30.301  46.292  0.00  0.00    +0.000 HD
ATOM     14  H   UNL     1      30.221  30.322  45.429  0.00  0.00    +0.000 HD
BRANCH  12  15
ATOM     15  C   UNL     1      28.897  28.735  44.822  0.00  0.00    +0.000 A 
ATOM     16  C   UNL     1      27.959  29.148  43.899  0.00  0.00    +0.000 A 
ATOM     17  H   UNL     1      27.612  30.173  43.929  0.00  0.00    +0.000 HD
ATOM     18  C   UNL     1      27.520  28.209  42.983  0.00  0.00    +0.000 A 
ATOM     19  C   UNL     1      27.993  26.901  42.979  0.00  0.00    +0.000 A 
ATOM     20  N   UNL     1      27.564  25.997  42.092  0.00  0.00    +0.000 NA
ATOM     21  C   UNL     1      28.054  24.741  42.130  0.00  0.00    +0.000 A 
ATOM     22  H   UNL     1      27.744  23.961  41.434  0.00  0.00    +0.000 HD
ATOM     23  C   UNL     1      29.003  24.314  43.059  0.00  0.00    +0.000 A 
ATOM     24  C   UNL     1      29.456  25.216  43.974  0.00  0.00    +0.000 A 
ATOM     25  C   UNL     1      28.941  26.499  43.919  0.00  0.00    +0.000 A 
ATOM     26  C   UNL     1      29.374  27.424  44.821  0.00  0.00    +0.000 A 
ENDBRANCH  12  15
ENDBRANCH   8  12
ENDBRANCH   1   4
BRANCH   1  27
ATOM     27  C   UNL     1      34.449  28.631  48.175  0.00  0.00    +0.000 C 
ATOM     28  H   UNL     1      33.958  29.624  48.148  0.00  0.00    +0.000 HD
ATOM     29  H   UNL     1      35.313  28.690  47.480  0.00  0.00    +0.000 HD
BRANCH  27  30
ATOM     30  O   UNL     1      34.997  28.366  49.452  0.00  0.00    +0.000 OA
BRANCH  30  35
ATOM     31  C   UNL     1      37.337  30.175  51.512  0.00  0.00    +0.000 A 
ATOM     32  C   UNL     1      38.072  30.868  50.518  0.00  0.00    +0.000 A 
ATOM     33  C   UNL     1      37.700  30.655  49.193  0.00  0.00    +0.000 A 
ATOM     34  N   UNL     1      36.657  29.794  48.985  0.00  0.00    +0.000 NA
ATOM     35  C   UNL     1      35.982  29.157  49.936  0.00  0.00    +0.000 A 
ATOM     36  N   UNL     1      36.333  29.354  51.221  0.00  0.00    +0.000 NA
ATOM     37  H   UNL     1      37.680  30.389  52.512  0.00  0.00    +0.000 HD
ATOM     38  H   UNL     1      38.886  31.536  50.709  0.00  0.00    +0.000 HD
BRANCH  33  41
ATOM     39  F   UNL     1      38.939  33.264  49.012  0.00  0.00    +0.000 F 
ATOM     40  C   UNL     1      38.911  32.477  47.944  0.00  0.00    +0.000 A 
ATOM     41  C   UNL     1      38.330  31.270  48.054  0.00  0.00    +0.000 A 
ATOM     42  C   UNL     1      38.355  30.520  46.872  0.00  0.00    +0.000 A 
ATOM     43  C   UNL     1      38.922  30.986  45.719  0.00  0.00    +0.000 A 
ATOM     44  C   UNL     1      39.505  32.232  45.661  0.00  0.00    +0.000 A 
ATOM     45  C   UNL     1      39.489  32.971  46.799  0.00  0.00    +0.000 A 
ATOM     46  H   UNL     1      37.923  29.527  46.815  0.00  0.00    +0.000 HD
ATOM     47  H   UNL     1      38.938  30.392  44.797  0.00  0.00    +0.000 HD
ATOM     48  H   UNL     1      39.947  32.581  44.743  0.00  0.00    +0.000 HD
ATOM     49  H   UNL     1      39.943  33.954  46.772  0.00  0.00    +0.000 HD
ENDBRANCH  33  41
ENDBRANCH  30  35
ENDBRANCH  27  30
ENDBRANCH   1  27
TORSDOF 7
