
     RDKit          3D

 53 58  0  0  0  0  0  0  0  0999 V2000
   38.0873   31.3060   47.7735 C   0  0  0  0  0  0  0  0  0  0  0  0
   37.0887   31.2948   48.7288 C   0  0  0  0  0  0  0  0  0  0  0  0
   37.1277   32.4104   49.5973 C   0  0  0  0  0  0  0  0  0  0  0  0
   38.0975   33.4105   49.4732 C   0  0  0  0  0  0  0  0  0  0  0  0
   39.0701   33.3074   48.4503 C   0  0  0  0  0  0  0  0  0  0  0  0
   39.0466   32.2221   47.5913 C   0  0  0  0  0  0  0  0  0  0  0  0
   34.9587   30.3108   48.0482 C   0  0  0  0  0  0  0  0  0  0  0  0
   36.1020   30.2853   48.8616 C   0  0  0  0  0  0  0  0  0  0  0  0
   36.2079   29.2408   49.7803 C   0  0  0  0  0  0  0  0  0  0  0  0
   35.2242   28.3234   49.8405 N   0  0  0  0  0  0  0  0  0  0  0  0
   34.1306   28.3773   49.0386 C   0  0  0  0  0  0  0  0  0  0  0  0
   34.0130   29.3718   48.1522 N   0  0  0  0  0  0  0  0  0  0  0  0
   37.4010   29.1546   50.6774 C   0  0  0  0  0  0  0  0  0  0  0  0
   38.1257   30.2370   46.8681 O   0  0  0  0  0  0  0  0  0  0  0  0
   40.0212   32.2017   46.6336 O   0  0  0  0  0  0  0  0  0  0  0  0
   40.5718   31.1828   44.4156 C   0  0  0  0  0  0  0  0  0  0  0  0
   39.8609   31.9841   45.2868 C   0  0  0  0  0  0  0  0  0  0  0  0
   38.7833   32.7317   44.7982 C   0  0  0  0  0  0  0  0  0  0  0  0
   38.4330   32.6676   43.4494 C   0  0  0  0  0  0  0  0  0  0  0  0
   37.4884   33.2352   42.6808 N   0  0  0  0  0  0  0  0  0  0  0  0
   37.5942   32.8218   41.4114 C   0  0  0  0  0  0  0  0  0  0  0  0
   38.6484   31.9561   41.3692 N   0  0  0  0  0  0  0  0  0  0  0  0
   39.1644   31.8576   42.6089 C   0  0  0  0  0  0  0  0  0  0  0  0
   40.2305   31.1143   43.0780 C   0  0  0  0  0  0  0  0  0  0  0  0
   36.3702   32.4658   50.3739 H   0  0  0  0  0  0  0  0  0  0  0  0
   38.1307   34.2494   50.1226 H   0  0  0  0  0  0  0  0  0  0  0  0
   39.8044   34.0931   48.3794 H   0  0  0  0  0  0  0  0  0  0  0  0
   34.8817   31.1176   47.3418 H   0  0  0  0  0  0  0  0  0  0  0  0
   33.3878   27.5927   49.1584 H   0  0  0  0  0  0  0  0  0  0  0  0
   37.4521   30.0327   51.3607 H   0  0  0  0  0  0  0  0  0  0  0  0
   38.3136   29.1975   50.0403 H   0  0  0  0  0  0  0  0  0  0  0  0
   37.3365   28.2060   51.2386 H   0  0  0  0  0  0  0  0  0  0  0  0
   37.2533   29.8010   46.5719 H   0  0  0  0  0  0  0  0  0  0  0  0
   41.3737   30.6600   44.9094 H   0  0  0  0  0  0  0  0  0  0  0  0
   38.1407   33.3973   45.3584 H   0  0  0  0  0  0  0  0  0  0  0  0
   36.7641   33.9162   43.0438 H   0  0  0  0  0  0  0  0  0  0  0  0
   36.9448   33.1481   40.6354 H   0  0  0  0  0  0  0  0  0  0  0  0
   41.0466   30.2369   42.2424 C   0  0  0  0  0  0  0  0  0  0  0  0
   42.3232   30.6520   41.8774 C   0  0  0  0  0  0  0  0  0  0  0  0
   42.7347   31.6083   42.1932 H   0  0  0  0  0  0  0  0  0  0  0  0
   43.1257   29.8336   41.0791 C   0  0  0  0  0  0  0  0  0  0  0  0
   42.6829   28.6058   40.6345 C   0  0  0  0  0  0  0  0  0  0  0  0
   43.4318   27.7920   39.8630 N   0  0  0  0  0  0  0  0  0  0  0  0
   43.0159   26.5906   39.4201 C   0  0  0  0  0  0  0  0  0  0  0  0
   43.6946   26.0204   38.8091 H   0  0  0  0  0  0  0  0  0  0  0  0
   41.7449   26.1537   39.7709 C   0  0  0  0  0  0  0  0  0  0  0  0
   40.9434   26.9753   40.5705 C   0  0  0  0  0  0  0  0  0  0  0  0
   41.4175   28.2169   41.0082 C   0  0  0  0  0  0  0  0  0  0  0  0
   40.6058   28.9924   41.7881 C   0  0  0  0  0  0  0  0  0  0  0  0
   44.1366   30.1078   40.7613 H   0  0  0  0  0  0  0  0  0  0  0  0
   41.3974   25.1796   39.4165 H   0  0  0  0  0  0  0  0  0  0  0  0
   39.9809   26.5806   40.8026 H   0  0  0  0  0  0  0  0  0  0  0  0
   39.6118   28.6612   42.0681 H   0  0  0  0  0  0  0  0  0  0  0  0
  1  2  2  0
  2  8  1  0
  2  3  1  0
  4  3  2  0
  5  4  1  0
  6  1  1  0
  6  5  2  0
  7 12  2  0
  7  8  1  0
  8  9  2  0
  9 10  1  0
  9 13  1  0
 11 10  2  0
 12 11  1  0
 14  1  1  0
 15  6  1  0
 16 17  2  0
 17 15  1  0
 18 17  1  0
 19 18  2  0
 20 19  1  0
 21 20  1  0
 22 21  2  0
 22 23  1  0
 23 24  2  0
 23 19  1  0
 24 16  1  0
  3 25  1  0
  4 26  1  0
  5 27  1  0
  7 28  1  0
 11 29  1  0
 13 30  1  0
 13 31  1  0
 13 32  1  0
 14 33  1  0
 16 34  1  0
 18 35  1  0
 20 36  1  0
 21 37  1  0
 38 39  2  0
 39 40  1  0
 39 41  1  0
 41 42  2  0
 42 43  1  0
 43 44  2  0
 44 45  1  0
 44 46  1  0
 46 47  2  0
 47 48  1  0
 48 49  2  0
 49 38  1  0
 48 42  1  0
 41 50  1  0
 46 51  1  0
 47 52  1  0
 49 53  1  0
 24 38  1  0
M  ISO  8  25  14  26  14  27  14  28  14  29  14  30   8  31   8  32   8
M  ISO  7  33   3  34  14  35  14  36   9  37  14  40  16  45  16
M  END
>  <DihAtoms>  (1) 
22,23,37,38

>  <DihDeg>  (1) 
135.00021573798838

$$$$
