
 OpenBabel03272505323D

 43 47  0  0  0  0  0  0  0  0999 V2000
   37.3940   31.2540   47.0050 N   0  0  0  0  0  0  0  0  0  0  0  0
   36.6810   31.0970   45.8560 C   0  0  0  0  0  0  0  0  0  0  0  0
   37.0880   31.6500   44.6590 C   0  0  0  0  0  0  0  0  0  0  0  0
   38.2800   32.3900   44.6720 C   0  0  0  0  0  0  0  0  0  0  0  0
   38.6960   32.9180   43.6050 O   0  0  0  0  0  0  0  0  0  0  0  0
   38.9950   32.5460   45.8270 N   0  0  0  0  0  0  0  0  0  0  0  0
   38.4960   31.9640   46.9070 C   0  0  0  0  0  0  0  0  0  0  0  0
   39.1760   32.1270   47.9480 O   0  0  0  0  0  0  0  0  0  0  0  0
   35.7670   30.5260   45.8630 H   0  0  0  0  0  0  0  0  0  0  0  0
   37.4310   29.5120   50.2930 C   0  0  0  0  0  0  0  0  0  0  0  0
   37.8480   30.0880   49.0850 C   0  0  0  0  0  0  0  0  0  0  0  0
   36.9630   30.6820   48.2080 C   0  0  0  0  0  0  0  0  0  0  0  0
   35.6750   30.6850   48.5660 N   0  0  0  0  0  0  0  0  0  0  0  0
   35.2260   30.1380   49.7290 C   0  0  0  0  0  0  0  0  0  0  0  0
   36.1170   29.5550   50.5820 N   0  0  0  0  0  0  0  0  0  0  0  0
   38.1250   29.0470   50.9800 H   0  0  0  0  0  0  0  0  0  0  0  0
   38.8940   30.0360   48.8890 H   0  0  0  0  0  0  0  0  0  0  0  0
   34.1790   30.1500   50.0010 H   0  0  0  0  0  0  0  0  0  0  0  0
   36.3690   31.5180   43.4000 C   0  0  0  0  0  0  0  0  0  0  0  0
   36.5460   30.4700   42.5430 C   0  0  0  0  0  0  0  0  0  0  0  0
   35.8780   30.3220   41.3450 C   0  0  0  0  0  0  0  0  0  0  0  0
   34.9570   31.3110   40.9810 C   0  0  0  0  0  0  0  0  0  0  0  0
   34.8090   32.3550   41.8760 C   0  0  0  0  0  0  0  0  0  0  0  0
   35.4870   32.4340   43.0160 N   0  0  0  0  0  0  0  0  0  0  0  0
   37.2460   29.6790   42.7780 H   0  0  0  0  0  0  0  0  0  0  0  0
   36.0270   29.4830   40.6700 H   0  0  0  0  0  0  0  0  0  0  0  0
   34.4260   31.2250   40.0620 H   0  0  0  0  0  0  0  0  0  0  0  0
   33.8730   33.4360   41.5880 C   0  0  0  0  0  0  0  0  0  0  0  0
   34.3370   34.6360   41.0710 C   0  0  0  0  0  0  0  0  0  0  0  0
   35.4070   34.7600   40.8810 H   0  0  0  0  0  0  0  0  0  0  0  0
   33.5700   35.7380   40.7540 C   0  0  0  0  0  3  0  0  0  0  0  0
   32.2100   35.6410   40.9710 C   0  0  0  0  0  0  0  0  0  0  0  0
   31.3930   36.6700   40.6870 N   0  0  0  0  0  0  0  0  0  0  0  0
   30.0590   36.6060   40.8880 C   0  0  0  0  0  0  0  0  0  0  0  0
   29.4090   37.4420   40.6560 H   0  0  0  0  0  0  0  0  0  0  0  0
   29.5530   35.4140   41.4080 C   0  0  0  0  0  3  0  0  0  0  0  0
   30.3420   34.3200   41.7200 C   0  0  0  0  0  3  0  0  0  0  0  0
   31.6950   34.4680   41.4850 C   0  0  0  0  0  0  0  0  0  0  0  0
   32.5080   33.3940   41.7850 C   0  0  0  0  0  3  0  0  0  0  0  0
   40.2160   33.3070   45.8270 C   0  0  0  0  0  0  0  0  0  0  0  0
   40.2070   34.2320   44.8460 F   0  0  0  0  0  0  0  0  0  0  0  0
   41.3530   32.5300   45.6010 F   0  0  0  0  0  0  0  0  0  0  0  0
   40.3400   33.9630   47.0450 F   0  0  0  0  0  0  0  0  0  0  0  0
  1 12  1  0  0  0  0
  2  9  1  0  0  0  0
  2  1  1  0  0  0  0
  3  4  1  0  0  0  0
  3  2  2  0  0  0  0
  4  6  1  0  0  0  0
  5  4  2  0  0  0  0
  6 40  1  0  0  0  0
  6  7  1  0  0  0  0
  7  1  1  0  0  0  0
  7  8  2  0  0  0  0
 10 15  1  0  0  0  0
 10 16  1  0  0  0  0
 11 10  2  0  0  0  0
 12 13  2  0  0  0  0
 12 11  1  0  0  0  0
 13 14  1  0  0  0  0
 14 18  1  0  0  0  0
 14 15  2  0  0  0  0
 17 11  1  0  0  0  0
 19  3  1  0  0  0  0
 20 25  1  0  0  0  0
 20 19  2  0  0  0  0
 21 20  1  0  0  0  0
 22 21  2  0  0  0  0
 22 23  1  0  0  0  0
 23 24  2  0  0  0  0
 24 19  1  0  0  0  0
 26 21  1  0  0  0  0
 27 22  1  0  0  0  0
 28 39  1  0  0  0  0
 28 23  1  0  0  0  0
 29 28  2  0  0  0  0
 30 29  1  0  0  0  0
 31 32  2  0  0  0  0
 31 29  1  0  0  0  0
 32 38  1  0  0  0  0
 33 34  2  0  0  0  0
 33 32  1  0  0  0  0
 34 36  1  0  0  0  0
 35 34  1  0  0  0  0
 36 37  2  0  0  0  0
 38 37  1  0  0  0  0
 38 39  2  0  0  0  0
 40 43  1  0  0  0  0
 41 40  1  0  0  0  0
 42 40  1  0  0  0  0
M  END
>  <minimizedAffinity>
-7.15163898

>  <minimizedRMSD>
0.995783567

$$$$
