REMARK  Name = 
REMARK  2 active torsions:
REMARK  status: ('A' for Active; 'I' for Inactive)
REMARK    1  A    between atoms: C_2  and  C_8
REMARK    2  A    between atoms: C_3  and  C_15
REMARK                            x       y       z     vdW  Elec       q    Type
REMARK                         _______ _______ _______ _____ _____    ______ ____
ROOT
ATOM      1  C   UNL     1      35.609  29.023  50.186  0.00  0.00    +0.000 A 
ATOM      2  C   UNL     1      36.280  30.155  49.655  0.00  0.00    +0.000 A 
ATOM      3  C   UNL     1      36.053  30.512  48.336  0.00  0.00    +0.000 A 
ATOM      4  N   UNL     1      35.174  29.735  47.603  0.00  0.00    +0.000 NA
ATOM      5  C   UNL     1      34.553  28.669  48.133  0.00  0.00    +0.000 A 
ATOM      6  N   UNL     1      34.763  28.317  49.398  0.00  0.00    +0.000 NA
ATOM      7  N   UNL     1      33.684  28.002  47.240  0.00  0.00    +0.000 N 
ATOM      8  H   UNL     1      35.816  28.783  51.214  0.00  0.00    +0.000 HD
ATOM      9  H   UNL     1      33.597  26.944  47.232  0.00  0.00    +0.000 HD
ATOM     10  H   UNL     1      33.083  28.473  46.544  0.00  0.00    +0.000 HD
ENDROOT
BRANCH   3  11
ATOM     11  C   UNL     1      36.667  31.587  47.590  0.00  0.00    +0.000 A 
ATOM     12  C   UNL     1      36.270  32.715  46.927  0.00  0.00    +0.000 A 
ATOM     13  H   UNL     1      35.216  32.840  46.869  0.00  0.00    +0.000 HD
ATOM     14  C   UNL     1      37.136  33.604  46.343  0.00  0.00    +0.000 A 
ATOM     15  C   UNL     1      38.501  33.431  46.372  0.00  0.00    +0.000 A 
ATOM     16  N   UNL     1      39.240  34.354  45.772  0.00  0.00    +0.000 NA
ATOM     17  C   UNL     1      40.597  34.234  45.770  0.00  0.00    +0.000 A 
ATOM     18  H   UNL     1      41.290  34.933  45.308  0.00  0.00    +0.000 HD
ATOM     19  C   UNL     1      41.113  33.123  46.412  0.00  0.00    +0.000 A 
ATOM     20  C   UNL     1      40.329  32.163  47.036  0.00  0.00    +0.000 A 
ATOM     21  C   UNL     1      38.958  32.307  47.026  0.00  0.00    +0.000 A 
ATOM     22  C   UNL     1      38.063  31.426  47.609  0.00  0.00    +0.000 A 
ENDBRANCH   3  11
BRANCH   2  23
ATOM     23  C   UNL     1      37.219  30.909  50.527  0.00  0.00    +0.000 C 
ATOM     24  F   UNL     1      38.533  30.798  50.096  0.00  0.00    +0.000 F 
ATOM     25  F   UNL     1      36.854  32.220  50.532  0.00  0.00    +0.000 F 
ATOM     26  F   UNL     1      37.190  30.453  51.838  0.00  0.00    +0.000 F 
ENDBRANCH   2  23
TORSDOF 2
