
 OpenBabel03272504133D

 24 26  0  0  0  0  0  0  0  0999 V2000
   38.4260   23.8520   36.9610 C   0  0  0  0  0  0  0  0  0  0  0  0
   37.9140   24.9910   36.3390 C   0  0  0  0  0  0  0  0  0  0  0  0
   38.0010   25.1020   34.9570 C   0  0  0  0  0  0  0  0  0  0  0  0
   38.5970   24.0630   34.2820 N   0  0  0  0  0  0  0  0  0  0  0  0
   39.0770   22.9850   34.9160 C   0  0  0  0  0  0  0  0  0  0  0  0
   38.9940   22.8760   36.2460 N   0  0  0  0  0  0  0  0  0  0  0  0
   37.4740   25.7330   36.9550 H   0  0  0  0  0  0  0  0  0  0  0  0
   39.5200   22.2370   34.2940 H   0  0  0  0  0  0  0  0  0  0  0  0
   37.4870   26.2570   34.2760 C   0  0  0  0  0  0  0  0  0  0  0  0
   36.8580   27.3170   34.8510 C   0  0  0  0  0  0  0  0  0  0  0  0
   36.7230   27.3120   35.9060 H   0  0  0  0  0  0  0  0  0  0  0  0
   36.3830   28.4090   34.1280 C   0  0  0  0  0  3  0  0  0  0  0  0
   36.5550   28.4220   32.7630 C   0  0  0  0  0  0  0  0  0  0  0  0
   36.1110   29.4610   32.0150 N   0  0  0  0  0  0  0  0  0  0  0  0
   36.2980   29.4420   30.6640 C   0  0  0  0  0  0  0  0  0  0  0  0
   35.9230   30.3040   30.0910 H   0  0  0  0  0  0  0  0  0  0  0  0
   36.9300   28.3960   30.0030 C   0  0  0  0  0  3  0  0  0  0  0  0
   37.3890   27.3280   30.7540 C   0  0  0  0  0  3  0  0  0  0  0  0
   37.1880   27.3720   32.1180 C   0  0  0  0  0  0  0  0  0  0  0  0
   37.6370   26.3180   32.8860 C   0  0  0  0  0  3  0  0  0  0  0  0
   38.3220   23.7480   38.4490 C   0  0  0  0  0  0  0  0  0  0  0  0
   37.3080   22.8530   38.7860 F   0  0  0  0  0  0  0  0  0  0  0  0
   39.5470   23.4260   38.9370 F   0  0  0  0  0  0  0  0  0  0  0  0
   37.8910   24.9940   38.9230 F   0  0  0  0  0  0  0  0  0  0  0  0
  1 21  1  0  0  0  0
  2  7  1  0  0  0  0
  2  1  1  0  0  0  0
  3  2  2  0  0  0  0
  4  5  2  0  0  0  0
  4  3  1  0  0  0  0
  5  6  1  0  0  0  0
  6  1  2  0  0  0  0
  8  5  1  0  0  0  0
  9 10  1  0  0  0  0
  9  3  1  0  0  0  0
 10 11  1  0  0  0  0
 12 10  2  0  0  0  0
 13 12  1  0  0  0  0
 14 13  2  0  0  0  0
 15 14  1  0  0  0  0
 16 15  1  0  0  0  0
 17 15  2  0  0  0  0
 17 18  1  0  0  0  0
 18 19  2  0  0  0  0
 19 13  1  0  0  0  0
 19 20  1  0  0  0  0
 20  9  2  0  0  0  0
 21 22  1  0  0  0  0
 21 24  1  0  0  0  0
 21 23  1  0  0  0  0
M  END
>  <minimizedAffinity>
-6.15167713

$$$$

 OpenBabel03272504133D

 24 26  0  0  0  0  0  0  0  0999 V2000
   38.4730   23.7030   36.9910 C   0  0  0  0  0  0  0  0  0  0  0  0
   38.0980   24.7790   36.1850 C   0  0  0  0  0  0  0  0  0  0  0  0
   38.3340   24.7110   34.8170 C   0  0  0  0  0  0  0  0  0  0  0  0
   38.9330   23.5680   34.3420 N   0  0  0  0  0  0  0  0  0  0  0  0
   39.2780   22.5570   35.1480 C   0  0  0  0  0  0  0  0  0  0  0  0
   39.0510   22.6200   36.4640 N   0  0  0  0  0  0  0  0  0  0  0  0
   37.6440   25.6120   36.6550 H   0  0  0  0  0  0  0  0  0  0  0  0
   39.7360   21.7160   34.6730 H   0  0  0  0  0  0  0  0  0  0  0  0
   37.9650   25.7960   33.9510 C   0  0  0  0  0  0  0  0  0  0  0  0
   38.3490   25.9580   32.6570 C   0  0  0  0  0  0  0  0  0  0  0  0
   38.9840   25.2230   32.2220 H   0  0  0  0  0  0  0  0  0  0  0  0
   37.9530   27.0380   31.8720 C   0  0  0  0  0  3  0  0  0  0  0  0
   37.1320   27.9930   32.4280 C   0  0  0  0  0  0  0  0  0  0  0  0
   36.7190   29.0630   31.7060 N   0  0  0  0  0  0  0  0  0  0  0  0
   35.9070   29.9900   32.2880 C   0  0  0  0  0  0  0  0  0  0  0  0
   35.5930   30.8450   31.6690 H   0  0  0  0  0  0  0  0  0  0  0  0
   35.4730   29.8950   33.6040 C   0  0  0  0  0  3  0  0  0  0  0  0
   35.8860   28.8080   34.3540 C   0  0  0  0  0  3  0  0  0  0  0  0
   36.7080   27.8850   33.7420 C   0  0  0  0  0  0  0  0  0  0  0  0
   37.1320   26.7930   34.4700 C   0  0  0  0  0  3  0  0  0  0  0  0
   38.2100   23.7920   38.4610 C   0  0  0  0  0  0  0  0  0  0  0  0
   37.8820   25.1040   38.7980 F   0  0  0  0  0  0  0  0  0  0  0  0
   37.2630   22.8730   38.7780 F   0  0  0  0  0  0  0  0  0  0  0  0
   39.4200   23.5310   39.1160 F   0  0  0  0  0  0  0  0  0  0  0  0
  1 21  1  0  0  0  0
  2  7  1  0  0  0  0
  2  1  2  0  0  0  0
  3  2  1  0  0  0  0
  4  3  2  0  0  0  0
  4  5  1  0  0  0  0
  5  6  2  0  0  0  0
  6  1  1  0  0  0  0
  8  5  1  0  0  0  0
  9 20  1  0  0  0  0
  9  3  1  0  0  0  0
 10  9  2  0  0  0  0
 11 10  1  0  0  0  0
 12 13  2  0  0  0  0
 12 10  1  0  0  0  0
 13 19  1  0  0  0  0
 14 15  2  0  0  0  0
 14 13  1  0  0  0  0
 15 17  1  0  0  0  0
 16 15  1  0  0  0  0
 17 18  2  0  0  0  0
 19 18  1  0  0  0  0
 19 20  2  0  0  0  0
 21 23  1  0  0  0  0
 21 22  1  0  0  0  0
 21 24  1  0  0  0  0
M  END
>  <minimizedAffinity>
-6.08688831

$$$$

 OpenBabel03272504133D

 24 26  0  0  0  0  0  0  0  0999 V2000
   35.9350   28.8650   33.7880 C   0  0  0  0  0  0  0  0  0  0  0  0
   36.7490   27.9470   34.4510 C   0  0  0  0  0  0  0  0  0  0  0  0
   37.1280   26.7830   33.7940 C   0  0  0  0  0  0  0  0  0  0  0  0
   36.6650   26.6110   32.5110 N   0  0  0  0  0  0  0  0  0  0  0  0
   35.8830   27.5160   31.9080 C   0  0  0  0  0  0  0  0  0  0  0  0
   35.5190   28.6370   32.5390 N   0  0  0  0  0  0  0  0  0  0  0  0
   37.0500   28.1790   35.4410 H   0  0  0  0  0  0  0  0  0  0  0  0
   35.5810   27.2820   30.9100 H   0  0  0  0  0  0  0  0  0  0  0  0
   37.9650   25.8110   34.4390 C   0  0  0  0  0  0  0  0  0  0  0  0
   39.0220   25.1620   33.8820 C   0  0  0  0  0  0  0  0  0  0  0  0
   39.2720   25.3800   32.8710 H   0  0  0  0  0  0  0  0  0  0  0  0
   39.7930   24.2270   34.5680 C   0  0  0  0  0  3  0  0  0  0  0  0
   39.4750   23.9400   35.8750 C   0  0  0  0  0  0  0  0  0  0  0  0
   40.1940   23.0380   36.5860 N   0  0  0  0  0  0  0  0  0  0  0  0
   39.8520   22.7770   37.8790 C   0  0  0  0  0  0  0  0  0  0  0  0
   40.4600   22.0380   38.4240 H   0  0  0  0  0  0  0  0  0  0  0  0
   38.7860   23.3980   38.5190 C   0  0  0  0  0  3  0  0  0  0  0  0
   38.0410   24.3220   37.8060 C   0  0  0  0  0  3  0  0  0  0  0  0
   38.4090   24.5670   36.5000 C   0  0  0  0  0  0  0  0  0  0  0  0
   37.6810   25.4850   35.7700 C   0  0  0  0  0  3  0  0  0  0  0  0
   35.5390   30.1140   34.5100 C   0  0  0  0  0  0  0  0  0  0  0  0
   36.3690   30.2990   35.6140 F   0  0  0  0  0  0  0  0  0  0  0  0
   35.5450   31.1380   33.6200 F   0  0  0  0  0  0  0  0  0  0  0  0
   34.2590   29.9000   35.0390 F   0  0  0  0  0  0  0  0  0  0  0  0
  1  2  1  0  0  0  0
  1 21  1  0  0  0  0
  2  7  1  0  0  0  0
  3  9  1  0  0  0  0
  3  2  2  0  0  0  0
  4  3  1  0  0  0  0
  5  4  2  0  0  0  0
  5  6  1  0  0  0  0
  6  1  2  0  0  0  0
  8  5  1  0  0  0  0
  9 20  1  0  0  0  0
 10  9  2  0  0  0  0
 10 12  1  0  0  0  0
 11 10  1  0  0  0  0
 12 13  2  0  0  0  0
 13 19  1  0  0  0  0
 13 14  1  0  0  0  0
 14 15  2  0  0  0  0
 15 16  1  0  0  0  0
 15 17  1  0  0  0  0
 18 17  2  0  0  0  0
 19 18  1  0  0  0  0
 20 19  2  0  0  0  0
 21 24  1  0  0  0  0
 21 22  1  0  0  0  0
 23 21  1  0  0  0  0
M  END
>  <minimizedAffinity>
-5.93996525

$$$$

 OpenBabel03272504133D

 24 26  0  0  0  0  0  0  0  0999 V2000
   40.0290   22.9920   37.1150 C   0  0  0  0  0  0  0  0  0  0  0  0
   39.5870   23.6850   35.9880 C   0  0  0  0  0  0  0  0  0  0  0  0
   38.4140   24.4250   36.0680 C   0  0  0  0  0  0  0  0  0  0  0  0
   37.7550   24.4240   37.2750 N   0  0  0  0  0  0  0  0  0  0  0  0
   38.2120   23.7450   38.3340 C   0  0  0  0  0  0  0  0  0  0  0  0
   39.3410   23.0330   38.2590 N   0  0  0  0  0  0  0  0  0  0  0  0
   40.1720   23.6180   35.1070 H   0  0  0  0  0  0  0  0  0  0  0  0
   37.6210   23.8130   39.2230 H   0  0  0  0  0  0  0  0  0  0  0  0
   37.9220   25.1530   34.9320 C   0  0  0  0  0  0  0  0  0  0  0  0
   37.9520   24.7400   33.6370 C   0  0  0  0  0  0  0  0  0  0  0  0
   38.3740   23.7880   33.4200 H   0  0  0  0  0  0  0  0  0  0  0  0
   37.4550   25.5000   32.5800 C   0  0  0  0  0  3  0  0  0  0  0  0
   36.9080   26.7320   32.8530 C   0  0  0  0  0  0  0  0  0  0  0  0
   36.4120   27.5100   31.8610 N   0  0  0  0  0  0  0  0  0  0  0  0
   35.8760   28.7260   32.1660 C   0  0  0  0  0  0  0  0  0  0  0  0
   35.4840   29.3290   31.3320 H   0  0  0  0  0  0  0  0  0  0  0  0
   35.8110   29.2190   33.4640 C   0  0  0  0  0  3  0  0  0  0  0  0
   36.3140   28.4360   34.4890 C   0  0  0  0  0  3  0  0  0  0  0  0
   36.8500   27.2100   34.1520 C   0  0  0  0  0  0  0  0  0  0  0  0
   37.3560   26.4130   35.1580 C   0  0  0  0  0  3  0  0  0  0  0  0
   41.2950   22.2020   37.0110 C   0  0  0  0  0  0  0  0  0  0  0  0
   42.3850   23.0710   36.9580 F   0  0  0  0  0  0  0  0  0  0  0  0
   41.3270   21.3180   38.0400 F   0  0  0  0  0  0  0  0  0  0  0  0
   41.2780   21.5500   35.7720 F   0  0  0  0  0  0  0  0  0  0  0  0
  1  6  1  0  0  0  0
  2  3  1  0  0  0  0
  2  1  2  0  0  0  0
  3  4  2  0  0  0  0
  4  5  1  0  0  0  0
  5  8  1  0  0  0  0
  6  5  2  0  0  0  0
  7  2  1  0  0  0  0
  9 20  1  0  0  0  0
  9  3  1  0  0  0  0
 10  9  2  0  0  0  0
 11 10  1  0  0  0  0
 12 13  2  0  0  0  0
 12 10  1  0  0  0  0
 13 19  1  0  0  0  0
 14 15  2  0  0  0  0
 14 13  1  0  0  0  0
 15 17  1  0  0  0  0
 16 15  1  0  0  0  0
 17 18  2  0  0  0  0
 19 18  1  0  0  0  0
 19 20  2  0  0  0  0
 21  1  1  0  0  0  0
 21 23  1  0  0  0  0
 22 21  1  0  0  0  0
 24 21  1  0  0  0  0
M  END
>  <minimizedAffinity>
-5.81754923

$$$$

 OpenBabel03272504133D

 24 26  0  0  0  0  0  0  0  0999 V2000
   38.9810   24.3200   36.5920 C   0  0  0  0  0  0  0  0  0  0  0  0
   38.1750   25.3070   36.0260 C   0  0  0  0  0  0  0  0  0  0  0  0
   38.5620   25.8880   34.8240 C   0  0  0  0  0  0  0  0  0  0  0  0
   39.7360   25.4420   34.2650 N   0  0  0  0  0  0  0  0  0  0  0  0
   40.4840   24.4920   34.8400 C   0  0  0  0  0  0  0  0  0  0  0  0
   40.1120   23.9320   35.9960 N   0  0  0  0  0  0  0  0  0  0  0  0
   37.2890   25.5760   36.5420 H   0  0  0  0  0  0  0  0  0  0  0  0
   41.3770   24.2210   34.3190 H   0  0  0  0  0  0  0  0  0  0  0  0
   37.7620   26.9080   34.2070 C   0  0  0  0  0  0  0  0  0  0  0  0
   36.8060   27.6590   34.8150 C   0  0  0  0  0  0  0  0  0  0  0  0
   36.6150   27.4950   35.8480 H   0  0  0  0  0  0  0  0  0  0  0  0
   36.0650   28.6360   34.1530 C   0  0  0  0  0  3  0  0  0  0  0  0
   36.3060   28.8550   32.8160 C   0  0  0  0  0  0  0  0  0  0  0  0
   35.6110   29.7920   32.1270 N   0  0  0  0  0  0  0  0  0  0  0  0
   35.8750   29.9830   30.8030 C   0  0  0  0  0  0  0  0  0  0  0  0
   35.2900   30.7540   30.2780 H   0  0  0  0  0  0  0  0  0  0  0  0
   36.8350   29.2550   30.1120 C   0  0  0  0  0  3  0  0  0  0  0  0
   37.5530   28.2940   30.8020 C   0  0  0  0  0  3  0  0  0  0  0  0
   37.2660   28.1210   32.1400 C   0  0  0  0  0  0  0  0  0  0  0  0
   37.9690   27.1680   32.8470 C   0  0  0  0  0  3  0  0  0  0  0  0
   38.5480   23.7040   37.8850 C   0  0  0  0  0  0  0  0  0  0  0  0
   38.1640   24.7070   38.7740 F   0  0  0  0  0  0  0  0  0  0  0  0
   37.5840   22.7880   37.6160 F   0  0  0  0  0  0  0  0  0  0  0  0
   39.6780   23.1090   38.4610 F   0  0  0  0  0  0  0  0  0  0  0  0
  1 21  1  0  0  0  0
  2  7  1  0  0  0  0
  2  1  1  0  0  0  0
  3  2  2  0  0  0  0
  4  3  1  0  0  0  0
  4  5  2  0  0  0  0
  5  6  1  0  0  0  0
  6  1  2  0  0  0  0
  8  5  1  0  0  0  0
  9 10  1  0  0  0  0
  9  3  1  0  0  0  0
 10 11  1  0  0  0  0
 12 10  2  0  0  0  0
 13 12  1  0  0  0  0
 14 13  2  0  0  0  0
 15 14  1  0  0  0  0
 16 15  1  0  0  0  0
 17 18  1  0  0  0  0
 17 15  2  0  0  0  0
 18 19  2  0  0  0  0
 19 13  1  0  0  0  0
 19 20  1  0  0  0  0
 20  9  2  0  0  0  0
 21 24  1  0  0  0  0
 21 22  1  0  0  0  0
 23 21  1  0  0  0  0
M  END
>  <minimizedAffinity>
-5.71581173

$$$$

 OpenBabel03272504133D

 24 26  0  0  0  0  0  0  0  0999 V2000
   36.6080   28.6480   32.1870 C   0  0  0  0  0  0  0  0  0  0  0  0
   37.3860   27.5990   32.6800 C   0  0  0  0  0  0  0  0  0  0  0  0
   37.3330   27.2980   34.0350 C   0  0  0  0  0  0  0  0  0  0  0  0
   36.5030   28.0690   34.8140 N   0  0  0  0  0  0  0  0  0  0  0  0
   35.7720   29.0680   34.3040 C   0  0  0  0  0  0  0  0  0  0  0  0
   35.8220   29.3580   33.0000 N   0  0  0  0  0  0  0  0  0  0  0  0
   37.9920   27.0690   31.9900 H   0  0  0  0  0  0  0  0  0  0  0  0
   35.1620   29.6020   35.0000 H   0  0  0  0  0  0  0  0  0  0  0  0
   38.1170   26.2270   34.5830 C   0  0  0  0  0  0  0  0  0  0  0  0
   39.1610   25.6030   33.9780 C   0  0  0  0  0  0  0  0  0  0  0  0
   39.4450   25.9210   33.0030 H   0  0  0  0  0  0  0  0  0  0  0  0
   39.8810   24.5670   34.5700 C   0  0  0  0  0  3  0  0  0  0  0  0
   39.5200   24.1490   35.8310 C   0  0  0  0  0  0  0  0  0  0  0  0
   40.1880   23.1450   36.4500 N   0  0  0  0  0  0  0  0  0  0  0  0
   39.8040   22.7560   37.6990 C   0  0  0  0  0  0  0  0  0  0  0  0
   40.3700   21.9370   38.1680 H   0  0  0  0  0  0  0  0  0  0  0  0
   38.7470   23.3440   38.3820 C   0  0  0  0  0  3  0  0  0  0  0  0
   38.0550   24.3710   37.7630 C   0  0  0  0  0  3  0  0  0  0  0  0
   38.4640   24.7450   36.5000 C   0  0  0  0  0  0  0  0  0  0  0  0
   37.7890   25.7660   35.8630 C   0  0  0  0  0  3  0  0  0  0  0  0
   36.6770   28.9570   30.7260 C   0  0  0  0  0  0  0  0  0  0  0  0
   35.6260   29.8050   30.3780 F   0  0  0  0  0  0  0  0  0  0  0  0
   37.9120   29.4460   30.4540 F   0  0  0  0  0  0  0  0  0  0  0  0
   36.4330   27.7620   30.0360 F   0  0  0  0  0  0  0  0  0  0  0  0
  1  2  2  0  0  0  0
  1  6  1  0  0  0  0
  2  3  1  0  0  0  0
  3  9  1  0  0  0  0
  3  4  2  0  0  0  0
  5  4  1  0  0  0  0
  5  8  1  0  0  0  0
  6  5  2  0  0  0  0
  7  2  1  0  0  0  0
  9 20  1  0  0  0  0
 10 12  1  0  0  0  0
 10  9  2  0  0  0  0
 11 10  1  0  0  0  0
 12 13  2  0  0  0  0
 13 14  1  0  0  0  0
 13 19  1  0  0  0  0
 14 15  2  0  0  0  0
 15 16  1  0  0  0  0
 15 17  1  0  0  0  0
 18 17  2  0  0  0  0
 19 18  1  0  0  0  0
 20 19  2  0  0  0  0
 21  1  1  0  0  0  0
 22 21  1  0  0  0  0
 23 21  1  0  0  0  0
 24 21  1  0  0  0  0
M  END
>  <minimizedAffinity>
-5.58527756

$$$$

 OpenBabel03272504133D

 24 26  0  0  0  0  0  0  0  0999 V2000
   39.9740   23.0760   37.0100 C   0  0  0  0  0  0  0  0  0  0  0  0
   39.6740   23.9650   35.9770 C   0  0  0  0  0  0  0  0  0  0  0  0
   38.5350   24.7540   36.0750 C   0  0  0  0  0  0  0  0  0  0  0  0
   37.7640   24.6020   37.2040 N   0  0  0  0  0  0  0  0  0  0  0  0
   38.0860   23.7360   38.1740 C   0  0  0  0  0  0  0  0  0  0  0  0
   39.1830   22.9770   38.0810 N   0  0  0  0  0  0  0  0  0  0  0  0
   40.3370   24.0020   35.1510 H   0  0  0  0  0  0  0  0  0  0  0  0
   37.4170   23.6990   39.0070 H   0  0  0  0  0  0  0  0  0  0  0  0
   38.1880   25.6820   35.0360 C   0  0  0  0  0  0  0  0  0  0  0  0
   37.2860   26.6940   35.1290 C   0  0  0  0  0  0  0  0  0  0  0  0
   36.7760   26.8330   36.0520 H   0  0  0  0  0  0  0  0  0  0  0  0
   36.9970   27.5600   34.0760 C   0  0  0  0  0  3  0  0  0  0  0  0
   37.6530   27.3870   32.8790 C   0  0  0  0  0  0  0  0  0  0  0  0
   37.4080   28.2020   31.8250 N   0  0  0  0  0  0  0  0  0  0  0  0
   38.0750   28.0020   30.6540 C   0  0  0  0  0  0  0  0  0  0  0  0
   37.8480   28.6850   29.8200 H   0  0  0  0  0  0  0  0  0  0  0  0
   39.0100   26.9890   30.4800 C   0  0  0  0  0  3  0  0  0  0  0  0
   39.2720   26.1480   31.5480 C   0  0  0  0  0  3  0  0  0  0  0  0
   38.5830   26.3720   32.7210 C   0  0  0  0  0  0  0  0  0  0  0  0
   38.8280   25.5460   33.7990 C   0  0  0  0  0  3  0  0  0  0  0  0
   41.2060   22.2360   36.8880 C   0  0  0  0  0  0  0  0  0  0  0  0
   41.2960   21.3780   37.9830 F   0  0  0  0  0  0  0  0  0  0  0  0
   41.1770   21.6150   35.6820 F   0  0  0  0  0  0  0  0  0  0  0  0
   42.3070   23.0950   36.9980 F   0  0  0  0  0  0  0  0  0  0  0  0
  1  6  1  0  0  0  0
  2  3  1  0  0  0  0
  2  1  2  0  0  0  0
  3  4  2  0  0  0  0
  4  5  1  0  0  0  0
  5  8  1  0  0  0  0
  6  5  2  0  0  0  0
  7  2  1  0  0  0  0
  9 10  1  0  0  0  0
  9  3  1  0  0  0  0
 10 11  1  0  0  0  0
 12 10  2  0  0  0  0
 13 12  1  0  0  0  0
 14 13  2  0  0  0  0
 15 14  1  0  0  0  0
 16 15  1  0  0  0  0
 17 15  2  0  0  0  0
 17 18  1  0  0  0  0
 18 19  2  0  0  0  0
 19 13  1  0  0  0  0
 19 20  1  0  0  0  0
 20  9  2  0  0  0  0
 21 24  1  0  0  0  0
 21  1  1  0  0  0  0
 21 22  1  0  0  0  0
 23 21  1  0  0  0  0
M  END
>  <minimizedAffinity>
-5.402987

$$$$

 OpenBabel03272504133D

 24 26  0  0  0  0  0  0  0  0999 V2000
   36.6350   26.7230   32.5910 C   0  0  0  0  0  0  0  0  0  0  0  0
   37.2750   25.7470   33.3560 C   0  0  0  0  0  0  0  0  0  0  0  0
   37.5790   26.0210   34.6830 C   0  0  0  0  0  0  0  0  0  0  0  0
   37.2220   27.2590   35.1630 N   0  0  0  0  0  0  0  0  0  0  0  0
   36.6090   28.1700   34.3970 C   0  0  0  0  0  0  0  0  0  0  0  0
   36.3150   27.9080   33.1190 N   0  0  0  0  0  0  0  0  0  0  0  0
   37.5050   24.8250   32.8860 H   0  0  0  0  0  0  0  0  0  0  0  0
   36.3770   29.1000   34.8710 H   0  0  0  0  0  0  0  0  0  0  0  0
   38.2370   25.0460   35.5060 C   0  0  0  0  0  0  0  0  0  0  0  0
   37.7630   24.5200   36.6670 C   0  0  0  0  0  0  0  0  0  0  0  0
   36.8150   24.8470   37.0190 H   0  0  0  0  0  0  0  0  0  0  0  0
   38.4570   23.5730   37.4170 C   0  0  0  0  0  3  0  0  0  0  0  0
   39.6850   23.1450   36.9670 C   0  0  0  0  0  0  0  0  0  0  0  0
   40.4010   22.2270   37.6610 N   0  0  0  0  0  0  0  0  0  0  0  0
   41.6140   21.8250   37.1870 C   0  0  0  0  0  0  0  0  0  0  0  0
   42.1650   21.0770   37.7790 H   0  0  0  0  0  0  0  0  0  0  0  0
   42.1660   22.3160   36.0100 C   0  0  0  0  0  3  0  0  0  0  0  0
   41.4470   23.2550   35.2910 C   0  0  0  0  0  3  0  0  0  0  0  0
   40.2230   23.6440   35.7920 C   0  0  0  0  0  0  0  0  0  0  0  0
   39.4900   24.5790   35.0910 C   0  0  0  0  0  3  0  0  0  0  0  0
   36.3140   26.4100   31.1640 C   0  0  0  0  0  0  0  0  0  0  0  0
   36.2860   27.5890   30.4220 F   0  0  0  0  0  0  0  0  0  0  0  0
   37.2030   25.4850   30.7240 F   0  0  0  0  0  0  0  0  0  0  0  0
   35.0020   25.9190   31.1320 F   0  0  0  0  0  0  0  0  0  0  0  0
  1  6  2  0  0  0  0
  1  2  1  0  0  0  0
  2  3  2  0  0  0  0
  3  4  1  0  0  0  0
  3  9  1  0  0  0  0
  5  8  1  0  0  0  0
  5  4  2  0  0  0  0
  6  5  1  0  0  0  0
  7  2  1  0  0  0  0
  9 10  1  0  0  0  0
 10 11  1  0  0  0  0
 10 12  2  0  0  0  0
 13 12  1  0  0  0  0
 13 14  1  0  0  0  0
 15 14  2  0  0  0  0
 15 16  1  0  0  0  0
 17 15  1  0  0  0  0
 18 19  1  0  0  0  0
 18 17  2  0  0  0  0
 19 13  2  0  0  0  0
 20  9  2  0  0  0  0
 20 19  1  0  0  0  0
 21  1  1  0  0  0  0
 22 21  1  0  0  0  0
 23 21  1  0  0  0  0
 24 21  1  0  0  0  0
M  END
>  <minimizedAffinity>
-5.39873123

$$$$

 OpenBabel03272504133D

 24 26  0  0  0  0  0  0  0  0999 V2000
   37.9820   27.1390   34.4760 C   0  0  0  0  0  0  0  0  0  0  0  0
   37.0390   28.0840   34.8800 C   0  0  0  0  0  0  0  0  0  0  0  0
   36.1510   28.5960   33.9420 C   0  0  0  0  0  0  0  0  0  0  0  0
   36.2660   28.1300   32.6530 N   0  0  0  0  0  0  0  0  0  0  0  0
   37.1870   27.2220   32.3040 C   0  0  0  0  0  0  0  0  0  0  0  0
   38.0410   26.7280   33.2060 N   0  0  0  0  0  0  0  0  0  0  0  0
   37.0380   28.3740   35.9000 H   0  0  0  0  0  0  0  0  0  0  0  0
   37.1870   26.9300   31.2760 H   0  0  0  0  0  0  0  0  0  0  0  0
   35.1640   29.5700   34.3150 C   0  0  0  0  0  0  0  0  0  0  0  0
   33.9210   29.7000   33.7820 C   0  0  0  0  0  0  0  0  0  0  0  0
   33.6270   29.0260   33.0130 H   0  0  0  0  0  0  0  0  0  0  0  0
   33.0100   30.6710   34.1930 C   0  0  0  0  0  3  0  0  0  0  0  0
   33.3820   31.5470   35.1870 C   0  0  0  0  0  0  0  0  0  0  0  0
   32.5340   32.5100   35.6220 N   0  0  0  0  0  0  0  0  0  0  0  0
   32.9350   33.3600   36.6090 C   0  0  0  0  0  0  0  0  0  0  0  0
   32.2170   34.1290   36.9350 H   0  0  0  0  0  0  0  0  0  0  0  0
   34.1890   33.2920   37.2020 C   0  0  0  0  0  3  0  0  0  0  0  0
   35.0670   32.3130   36.7690 C   0  0  0  0  0  3  0  0  0  0  0  0
   34.6370   31.4660   35.7700 C   0  0  0  0  0  0  0  0  0  0  0  0
   35.4950   30.4830   35.3220 C   0  0  0  0  0  3  0  0  0  0  0  0
   38.9290   26.5970   35.4990 C   0  0  0  0  0  0  0  0  0  0  0  0
   38.8660   25.2040   35.5020 F   0  0  0  0  0  0  0  0  0  0  0  0
   40.1610   27.1080   35.2500 F   0  0  0  0  0  0  0  0  0  0  0  0
   38.4520   26.9930   36.7560 F   0  0  0  0  0  0  0  0  0  0  0  0
  1  2  1  0  0  0  0
  1 21  1  0  0  0  0
  2  7  1  0  0  0  0
  3  9  1  0  0  0  0
  3  2  2  0  0  0  0
  4  3  1  0  0  0  0
  5  4  2  0  0  0  0
  5  6  1  0  0  0  0
  6  1  2  0  0  0  0
  8  5  1  0  0  0  0
  9 20  1  0  0  0  0
 10 12  1  0  0  0  0
 10  9  2  0  0  0  0
 11 10  1  0  0  0  0
 12 13  2  0  0  0  0
 13 14  1  0  0  0  0
 13 19  1  0  0  0  0
 14 15  2  0  0  0  0
 15 16  1  0  0  0  0
 15 17  1  0  0  0  0
 18 17  2  0  0  0  0
 19 18  1  0  0  0  0
 20 19  2  0  0  0  0
 21 22  1  0  0  0  0
 21 24  1  0  0  0  0
 23 21  1  0  0  0  0
M  END
>  <minimizedAffinity>
-5.38243818

$$$$
