
 OpenBabel03262522523D

 36 40  0  0  0  0  0  0  0  0999 V2000
   33.3340   27.5660   48.3310 C   0  0  0  0  0  0  0  0  0  0  0  0
   33.5560   26.5050   47.5370 C   0  0  0  0  0  0  0  0  0  0  0  0
   32.4770   25.6960   47.2500 C   0  0  0  0  0  0  0  0  0  0  0  0
   31.2400   25.9470   47.7400 N   0  0  0  0  0  0  0  0  0  0  0  0
   31.1120   27.0530   48.5420 C   0  0  0  0  0  0  0  0  0  0  0  0
   32.1220   27.8830   48.8600 N   0  0  0  0  0  0  0  0  0  0  0  0
   34.5310   26.2760   47.1300 H   0  0  0  0  0  0  0  0  0  0  0  0
   32.5880   24.8260   46.6170 H   0  0  0  0  0  0  0  0  0  0  0  0
   29.7870   27.3500   49.0850 C   0  0  0  0  0  0  0  0  0  0  0  0
   29.4480   27.0080   50.3810 C   0  0  0  0  0  0  0  0  0  0  0  0
   30.1680   26.5110   51.0170 H   0  0  0  0  0  0  0  0  0  0  0  0
   28.2190   27.2560   50.9560 C   0  0  0  0  0  0  0  0  0  0  0  0
   27.2770   27.8890   50.1740 C   0  0  0  0  0  0  0  0  0  0  0  0
   26.0280   28.1890   50.6280 N   0  0  0  0  0  0  0  0  0  0  0  0
   25.1350   28.8140   49.8120 C   0  0  0  0  0  0  0  0  0  0  0  0
   24.1890   29.0060   50.2570 H   0  0  0  0  0  0  0  0  0  0  0  0
   25.4080   29.1810   48.5140 C   0  0  0  0  0  0  0  0  0  0  0  0
   26.6730   28.8830   48.0360 C   0  0  0  0  0  0  0  0  0  0  0  0
   27.5740   28.2470   48.8740 C   0  0  0  0  0  0  0  0  0  0  0  0
   28.8150   27.9830   48.3310 C   0  0  0  0  0  0  0  0  0  0  0  0
   36.3040   30.3090   48.8400 C   0  0  0  0  0  0  0  0  0  0  0  0
   36.1550   29.4850   49.8740 C   0  0  0  0  0  0  0  0  0  0  0  0
   35.1820   28.5110   49.8200 C   0  0  0  0  0  0  0  0  0  0  0  0
   34.4320   28.4710   48.6820 C   0  0  0  0  0  0  0  0  0  0  0  0
   35.1290   29.8280   47.7020 S   0  0  0  0  0  0  0  0  0  0  0  0
   36.8050   29.5820   50.7630 H   0  0  0  0  0  0  0  0  0  0  0  0
   34.9750   27.7860   50.6070 H   0  0  0  0  0  0  0  0  0  0  0  0
   38.1830   33.3740   49.4660 C   0  0  0  0  0  0  0  0  0  0  0  0
   39.0670   33.4420   48.3840 C   0  0  0  0  0  0  0  0  0  0  0  0
   39.0130   32.4210   47.4290 C   0  0  0  0  0  0  0  0  0  0  0  0
   38.1050   31.4070   47.5920 N   0  0  0  0  0  0  0  0  0  0  0  0
   37.2720   31.4090   48.6790 C   0  0  0  0  0  0  0  0  0  0  0  0
   37.2910   32.3570   49.6050 N   0  0  0  0  0  0  0  0  0  0  0  0
   38.1440   34.1150   50.2610 H   0  0  0  0  0  0  0  0  0  0  0  0
   39.7390   34.2830   48.3530 H   0  0  0  0  0  0  0  0  0  0  0  0
   39.6820   32.4680   46.6060 H   0  0  0  0  0  0  0  0  0  0  0  0
  1 24  1  0  0  0  0
  1  6  1  0  0  0  0
  2  1  2  0  0  0  0
  3  2  1  0  0  0  0
  3  4  2  0  0  0  0
  4  5  1  0  0  0  0
  5  6  2  0  0  0  0
  5  9  1  0  0  0  0
  7  2  1  0  0  0  0
  8  3  1  0  0  0  0
  9 10  1  0  0  0  0
 10 12  2  0  0  0  0
 10 11  1  0  0  0  0
 13 14  1  0  0  0  0
 13 12  1  0  0  0  0
 15 16  1  0  0  0  0
 15 14  2  0  0  0  0
 17 15  1  0  0  0  0
 18 17  2  0  0  0  0
 18 19  1  0  0  0  0
 19 13  2  0  0  0  0
 20 19  1  0  0  0  0
 20  9  2  0  0  0  0
 21 22  2  0  0  0  0
 22 26  1  0  0  0  0
 23 22  1  0  0  0  0
 23 27  1  0  0  0  0
 24 23  2  0  0  0  0
 25 24  1  0  0  0  0
 25 21  1  0  0  0  0
 28 33  1  0  0  0  0
 28 34  1  0  0  0  0
 29 28  2  0  0  0  0
 30 31  2  0  0  0  0
 30 29  1  0  0  0  0
 31 32  1  0  0  0  0
 32 21  1  0  0  0  0
 32 33  2  0  0  0  0
 35 29  1  0  0  0  0
 36 30  1  0  0  0  0
M  END
>  <minimizedAffinity>
-8.12403393

>  <minimizedRMSD>
0.28653875

$$$$
