REMARK  Name = 
REMARK  3 active torsions:
REMARK  status: ('A' for Active; 'I' for Inactive)
REMARK    1  A    between atoms: C_11  and  C_13
REMARK    2  A    between atoms: C_12  and  C_19
REMARK    3  A    between atoms: C_17  and  C_33
REMARK                            x       y       z     vdW  Elec       q    Type
REMARK                         _______ _______ _______ _____ _____    ______ ____
ROOT
ATOM      1  C   UNL     1      36.298  29.490  49.558  0.00  0.00    +0.000 A 
ATOM      2  C   UNL     1      36.407  30.504  48.596  0.00  0.00    +0.000 A 
ATOM      3  C   UNL     1      37.384  31.425  48.946  0.00  0.00    +0.000 A 
ATOM      4  C   UNL     1      38.172  31.378  50.077  0.00  0.00    +0.000 A 
ATOM      5  C   UNL     1      37.979  30.312  50.976  0.00  0.00    +0.000 A 
ATOM      6  C   UNL     1      37.025  29.334  50.733  0.00  0.00    +0.000 A 
ATOM      7  H   UNL     1      37.639  32.339  48.472  0.00  0.00    +0.000 HD
ATOM      8  H   UNL     1      38.935  32.025  50.419  0.00  0.00    +0.000 HD
ATOM      9  H   UNL     1      38.548  30.180  51.901  0.00  0.00    +0.000 HD
ENDROOT
BRANCH   2  20
ATOM     10  C   UNL     1      39.480  32.684  46.208  0.00  0.00    +0.000 A 
ATOM     11  C   UNL     1      40.428  31.831  45.654  0.00  0.00    +0.000 A 
ATOM     12  C   UNL     1      40.028  30.564  45.266  0.00  0.00    +0.000 A 
ATOM     13  N   UNL     1      38.733  30.201  45.440  0.00  0.00    +0.000 NA
ATOM     14  C   UNL     1      37.837  30.995  45.959  0.00  0.00    +0.000 A 
ATOM     15  N   UNL     1      38.272  32.177  46.305  0.00  0.00    +0.000 NA
ATOM     16  N   UNL     1      36.499  30.582  46.117  0.00  0.00    +0.000 N 
ATOM     17  C   UNL     1      35.672  30.143  44.987  0.00  0.00    +0.000 C 
ATOM     18  C   UNL     1      34.408  29.700  45.587  0.00  0.00    +0.000 C 
ATOM     19  C   UNL     1      34.728  29.517  47.071  0.00  0.00    +0.000 C 
ATOM     20  C   UNL     1      35.699  30.560  47.351  0.00  0.00    +0.000 C 
ATOM     21  H   UNL     1      39.721  33.673  46.527  0.00  0.00    +0.000 HD
ATOM     22  H   UNL     1      41.458  32.148  45.527  0.00  0.00    +0.000 HD
ATOM     23  H   UNL     1      40.793  29.917  44.834  0.00  0.00    +0.000 HD
ATOM     24  H   UNL     1      35.529  31.041  44.350  0.00  0.00    +0.000 HD
ATOM     25  H   UNL     1      36.201  29.396  44.366  0.00  0.00    +0.000 HD
ATOM     26  H   UNL     1      33.622  30.488  45.419  0.00  0.00    +0.000 HD
ATOM     27  H   UNL     1      34.006  28.803  45.103  0.00  0.00    +0.000 HD
ATOM     28  H   UNL     1      35.261  28.562  46.935  0.00  0.00    +0.000 HD
ATOM     29  H   UNL     1      33.743  29.590  47.471  0.00  0.00    +0.000 HD
ATOM     30  H   UNL     1      35.287  31.614  47.264  0.00  0.00    +0.000 HD
ENDBRANCH   2  20
BRANCH   6  31
ATOM     31  C   UNL     1      36.835  28.239  51.665  0.00  0.00    +0.000 A 
ATOM     32  C   UNL     1      35.517  27.767  51.648  0.00  0.00    +0.000 A 
ATOM     33  H   UNL     1      34.710  28.150  51.025  0.00  0.00    +0.000 HD
ATOM     34  C   UNL     1      35.111  26.727  52.461  0.00  0.00    +0.000 A 
ATOM     35  C   UNL     1      36.038  26.147  53.303  0.00  0.00    +0.000 A 
ATOM     36  N   UNL     1      35.677  25.126  54.113  0.00  0.00    +0.000 NA
ATOM     37  C   UNL     1      36.551  24.534  54.950  0.00  0.00    +0.000 A 
ATOM     38  H   UNL     1      36.129  23.744  55.528  0.00  0.00    +0.000 HD
ATOM     39  C   UNL     1      37.868  25.004  54.968  0.00  0.00    +0.000 A 
ATOM     40  C   UNL     1      38.249  26.054  54.139  0.00  0.00    +0.000 A 
ATOM     41  C   UNL     1      37.327  26.637  53.294  0.00  0.00    +0.000 A 
ATOM     42  C   UNL     1      37.759  27.674  52.494  0.00  0.00    +0.000 A 
ENDBRANCH   6  31
BRANCH   1  44
ATOM     43  N   UNL     1      34.436  27.736  49.255  0.00  0.00    +0.000 NA
ATOM     44  C   UNL     1      35.251  28.508  49.377  0.00  0.00    +0.000 C 
ENDBRANCH   1  44
TORSDOF 3
