
     RDKit          3D

 28 30  0  0  0  0  0  0  0  0999 V2000
   38.3071   31.2408   50.1163 C   0  0  0  0  0  0  0  0  0  0  0  0
   38.2909   31.6070   48.7615 C   0  0  0  0  0  0  0  0  0  0  0  0
   37.2032   31.2187   47.9938 C   0  0  0  0  0  0  0  0  0  0  0  0
   36.2190   30.5084   48.5952 N   0  0  0  0  0  0  0  0  0  0  0  0
   36.2611   30.1685   49.9061 C   0  0  0  0  0  0  0  0  0  0  0  0
   37.3003   30.5322   50.6660 N   0  0  0  0  0  0  0  0  0  0  0  0
   35.1239   29.3901   50.4417 C   0  0  0  0  0  0  0  0  0  0  0  0
   35.2623   29.1190   51.7946 F   0  0  0  0  0  0  0  0  0  0  0  0
   33.9212   30.0627   50.3063 F   0  0  0  0  0  0  0  0  0  0  0  0
   34.9601   28.1647   49.8224 F   0  0  0  0  0  0  0  0  0  0  0  0
   39.1605   31.5582   50.6728 H   0  0  0  0  0  0  0  0  0  0  0  0
   39.0872   32.1746   48.3001 H   0  0  0  0  0  0  0  0  0  0  0  0
   37.0530   31.5224   46.5983 C   0  0  0  0  0  0  0  0  0  0  0  0
   37.3288   32.7938   46.1618 C   0  0  0  0  0  0  0  0  0  0  0  0
   37.6551   33.5725   46.8344 H   0  0  0  0  0  0  0  0  0  0  0  0
   37.2163   33.1931   44.8355 C   0  0  0  0  0  0  0  0  0  0  0  0
   36.7978   32.2316   43.9110 C   0  0  0  0  0  0  0  0  0  0  0  0
   36.6967   32.6476   42.6248 N   0  0  0  0  0  0  0  0  0  0  0  0
   36.2900   31.7220   41.7123 C   0  0  0  0  0  0  0  0  0  0  0  0
   36.1565   31.8898   40.6403 H   0  0  0  0  0  0  0  0  0  0  0  0
   35.9944   30.4196   42.0815 C   0  0  0  0  0  0  0  0  0  0  0  0
   36.1015   30.0081   43.3958 C   0  0  0  0  0  0  0  0  0  0  0  0
   36.5144   30.9550   44.3103 C   0  0  0  0  0  0  0  0  0  0  0  0
   36.6450   30.6196   45.6408 C   0  0  0  0  0  0  0  0  0  0  0  0
   37.4414   34.2041   44.5225 H   0  0  0  0  0  0  0  0  0  0  0  0
   35.6685   29.6560   41.3866 H   0  0  0  0  0  0  0  0  0  0  0  0
   35.8852   29.0081   43.7432 H   0  0  0  0  0  0  0  0  0  0  0  0
   36.4165   29.6090   45.9323 H   0  0  0  0  0  0  0  0  0  0  0  0
  1  6  2  0
  2  1  1  0
  3  4  1  0
  3  2  2  0
  4  5  2  0
  5  7  1  0
  5  6  1  0
  7  8  1  0
  9  7  1  0
 10  7  1  0
  1 11  1  0
  2 12  1  0
 13 14  2  0
 14 15  1  0
 14 16  1  0
 16 17  2  0
 17 18  1  0
 18 19  2  0
 19 20  1  0
 19 21  1  0
 21 22  2  0
 22 23  1  0
 23 24  2  0
 24 13  1  0
 23 17  1  0
 16 25  1  0
 21 26  1  0
 22 27  1  0
 24 28  1  0
  3 13  1  0
M  ISO  4  11  14  12  14  15  16  20  16
M  END
>  <DihAtoms>  (1) 
3,2,12,13

>  <DihDeg>  (1) 
0.000960079600988756

$$$$
