
 OpenBabel03272504493D

 30 33  0  0  0  0  0  0  0  0999 V2000
   37.0900   25.3800   32.3970 C   0  0  0  0  0  0  0  0  0  0  0  0
   36.1900   26.2030   31.7210 C   0  0  0  0  0  0  0  0  0  0  0  0
   35.1980   25.5860   30.9720 C   0  0  0  0  0  0  0  0  0  0  0  0
   35.1800   24.2170   30.9580 N   0  0  0  0  0  0  0  0  0  0  0  0
   36.0550   23.4550   31.6150 C   0  0  0  0  0  0  0  0  0  0  0  0
   37.0100   24.0430   32.3350 N   0  0  0  0  0  0  0  0  0  0  0  0
   37.8480   25.8990   32.9690 H   0  0  0  0  0  0  0  0  0  0  0  0
   34.4250   26.0870   30.3920 H   0  0  0  0  0  0  0  0  0  0  0  0
   36.2050   27.6600   31.7340 C   0  0  0  0  0  0  0  0  0  0  0  0
   36.5690   28.3470   30.5710 C   0  0  0  0  0  0  0  0  0  0  0  0
   36.8420   27.8550   29.6620 H   0  0  0  0  0  0  0  0  0  0  0  0
   36.5690   29.7210   30.6290 C   0  0  0  0  0  3  0  0  0  0  0  0
   36.2260   30.4030   31.7780 C   0  0  0  0  0  0  0  0  0  0  0  0
   36.2140   31.7500   31.8720 N   0  0  0  0  0  0  0  0  0  0  0  0
   35.8740   32.3790   33.0110 C   0  0  0  0  0  0  0  0  0  0  0  0
   35.8810   33.4660   33.0340 H   0  0  0  0  0  0  0  0  0  0  0  0
   35.5120   31.7070   34.1660 C   0  0  0  0  0  3  0  0  0  0  0  0
   35.5130   30.3100   34.1040 C   0  0  0  0  0  3  0  0  0  0  0  0
   35.8710   29.7120   32.9110 C   0  0  0  0  0  0  0  0  0  0  0  0
   35.8600   28.3310   32.8900 C   0  0  0  0  0  3  0  0  0  0  0  0
   35.9690   22.0030   31.5480 C   0  0  0  0  0  0  0  0  0  0  0  0
   34.9680   21.3400   32.2070 C   0  0  0  0  0  0  0  0  0  0  0  0
   34.8630   19.9640   32.1570 C   0  0  0  0  0  0  0  0  0  0  0  0
   35.8130   19.3050   31.4170 C   0  0  0  0  0  0  0  0  0  0  0  0
   36.8400   19.9440   30.7370 C   0  0  0  0  0  0  0  0  0  0  0  0
   36.8720   21.3080   30.8360 N   0  0  0  0  0  0  0  0  0  0  0  0
   34.2180   21.8600   32.7910 H   0  0  0  0  0  0  0  0  0  0  0  0
   34.0850   19.4250   32.6680 H   0  0  0  0  0  0  0  0  0  0  0  0
   35.8190   18.2130   31.3150 H   0  0  0  0  0  0  0  0  0  0  0  0
   37.5910   19.4280   30.1520 H   0  0  0  0  0  0  0  0  0  0  0  0
  1  7  1  0  0  0  0
  2  9  1  0  0  0  0
  2  1  2  0  0  0  0
  3  2  1  0  0  0  0
  4  3  2  0  0  0  0
  4  5  1  0  0  0  0
  5  6  2  0  0  0  0
  6  1  1  0  0  0  0
  8  3  1  0  0  0  0
  9 20  1  0  0  0  0
 10 12  1  0  0  0  0
 10  9  2  0  0  0  0
 11 10  1  0  0  0  0
 12 13  2  0  0  0  0
 13 14  1  0  0  0  0
 13 19  1  0  0  0  0
 14 15  2  0  0  0  0
 15 16  1  0  0  0  0
 15 17  1  0  0  0  0
 18 17  2  0  0  0  0
 19 18  1  0  0  0  0
 20 19  2  0  0  0  0
 21  5  1  0  0  0  0
 21 22  1  0  0  0  0
 22 27  1  0  0  0  0
 23 22  2  0  0  0  0
 23 28  1  0  0  0  0
 24 23  1  0  0  0  0
 25 26  1  0  0  0  0
 25 24  2  0  0  0  0
 26 21  2  0  0  0  0
 29 24  1  0  0  0  0
 30 25  1  0  0  0  0
M  END
>  <minimizedAffinity>
-5.90415859

$$$$

 OpenBabel03272504493D

 30 33  0  0  0  0  0  0  0  0999 V2000
   36.9590   26.9810   33.5420 C   0  0  0  0  0  0  0  0  0  0  0  0
   36.2210   27.8880   32.7840 C   0  0  0  0  0  0  0  0  0  0  0  0
   35.6200   27.4150   31.6260 C   0  0  0  0  0  0  0  0  0  0  0  0
   35.7980   26.0920   31.3210 N   0  0  0  0  0  0  0  0  0  0  0  0
   36.5110   25.2470   32.0650 C   0  0  0  0  0  0  0  0  0  0  0  0
   37.0900   25.6970   33.1770 N   0  0  0  0  0  0  0  0  0  0  0  0
   37.4110   27.3890   34.4360 H   0  0  0  0  0  0  0  0  0  0  0  0
   35.0140   27.9950   30.9310 H   0  0  0  0  0  0  0  0  0  0  0  0
   36.0280   29.2970   33.1050 C   0  0  0  0  0  0  0  0  0  0  0  0
   36.0220   30.2370   32.0690 C   0  0  0  0  0  0  0  0  0  0  0  0
   36.1550   29.9750   31.0400 H   0  0  0  0  0  0  0  0  0  0  0  0
   35.8370   31.5540   32.4190 C   0  0  0  0  0  3  0  0  0  0  0  0
   35.6620   31.9430   33.7300 C   0  0  0  0  0  0  0  0  0  0  0  0
   35.4780   33.2250   34.1110 N   0  0  0  0  0  0  0  0  0  0  0  0
   35.3110   33.5660   35.4010 C   0  0  0  0  0  0  0  0  0  0  0  0
   35.1660   34.6130   35.6550 H   0  0  0  0  0  0  0  0  0  0  0  0
   35.3140   32.6420   36.4330 C   0  0  0  0  0  3  0  0  0  0  0  0
   35.5040   31.3030   36.0740 C   0  0  0  0  0  3  0  0  0  0  0  0
   35.6710   31.0060   34.7360 C   0  0  0  0  0  0  0  0  0  0  0  0
   35.8550   29.6740   34.4210 C   0  0  0  0  0  3  0  0  0  0  0  0
   36.6540   23.8520   31.6710 C   0  0  0  0  0  0  0  0  0  0  0  0
   35.5540   23.0400   31.5970 C   0  0  0  0  0  0  0  0  0  0  0  0
   35.6630   21.7140   31.2240 C   0  0  0  0  0  0  0  0  0  0  0  0
   36.9260   21.2620   30.9350 C   0  0  0  0  0  0  0  0  0  0  0  0
   38.0620   22.0580   30.9980 C   0  0  0  0  0  0  0  0  0  0  0  0
   37.8680   23.3580   31.3750 N   0  0  0  0  0  0  0  0  0  0  0  0
   34.5560   23.3960   31.8250 H   0  0  0  0  0  0  0  0  0  0  0  0
   34.8110   21.0610   31.1610 H   0  0  0  0  0  0  0  0  0  0  0  0
   37.1200   20.2280   30.6290 H   0  0  0  0  0  0  0  0  0  0  0  0
   39.0600   21.7050   30.7710 H   0  0  0  0  0  0  0  0  0  0  0  0
  1  7  1  0  0  0  0
  2  9  1  0  0  0  0
  2  1  2  0  0  0  0
  3  2  1  0  0  0  0
  4  3  2  0  0  0  0
  4  5  1  0  0  0  0
  5  6  2  0  0  0  0
  6  1  1  0  0  0  0
  8  3  1  0  0  0  0
  9 20  1  0  0  0  0
 10 12  1  0  0  0  0
 10  9  2  0  0  0  0
 11 10  1  0  0  0  0
 12 13  2  0  0  0  0
 13 14  1  0  0  0  0
 13 19  1  0  0  0  0
 14 15  2  0  0  0  0
 15 16  1  0  0  0  0
 15 17  1  0  0  0  0
 18 17  2  0  0  0  0
 19 18  1  0  0  0  0
 20 19  2  0  0  0  0
 21  5  1  0  0  0  0
 22 21  1  0  0  0  0
 22 27  1  0  0  0  0
 23 22  2  0  0  0  0
 24 25  2  0  0  0  0
 24 23  1  0  0  0  0
 25 26  1  0  0  0  0
 26 21  2  0  0  0  0
 28 23  1  0  0  0  0
 29 24  1  0  0  0  0
 30 25  1  0  0  0  0
M  END
>  <minimizedAffinity>
-5.83090353

$$$$

 OpenBabel03272504493D

 30 33  0  0  0  0  0  0  0  0999 V2000
   37.6970   25.4380   34.0560 C   0  0  0  0  0  0  0  0  0  0  0  0
   38.3330   25.5450   35.2920 C   0  0  0  0  0  0  0  0  0  0  0  0
   38.2450   26.7610   35.9530 C   0  0  0  0  0  0  0  0  0  0  0  0
   37.5380   27.7610   35.3410 N   0  0  0  0  0  0  0  0  0  0  0  0
   36.9400   27.6300   34.1560 C   0  0  0  0  0  0  0  0  0  0  0  0
   37.0230   26.4640   33.5170 N   0  0  0  0  0  0  0  0  0  0  0  0
   37.7900   24.4750   33.5720 H   0  0  0  0  0  0  0  0  0  0  0  0
   38.6840   27.0010   36.9210 H   0  0  0  0  0  0  0  0  0  0  0  0
   39.0860   24.4830   35.9480 C   0  0  0  0  0  0  0  0  0  0  0  0
   38.6040   23.9480   37.1470 C   0  0  0  0  0  0  0  0  0  0  0  0
   37.7010   24.2800   37.6150 H   0  0  0  0  0  0  0  0  0  0  0  0
   39.3460   22.9480   37.7310 C   0  0  0  0  0  3  0  0  0  0  0  0
   40.5160   22.4850   37.1670 C   0  0  0  0  0  0  0  0  0  0  0  0
   41.2700   21.5060   37.7110 N   0  0  0  0  0  0  0  0  0  0  0  0
   42.4070   21.0800   37.1310 C   0  0  0  0  0  0  0  0  0  0  0  0
   42.9790   20.2890   37.6100 H   0  0  0  0  0  0  0  0  0  0  0  0
   42.8910   21.6040   35.9440 C   0  0  0  0  0  3  0  0  0  0  0  0
   42.1340   22.6210   35.3530 C   0  0  0  0  0  3  0  0  0  0  0  0
   40.9760   23.0220   35.9890 C   0  0  0  0  0  0  0  0  0  0  0  0
   40.2560   24.0280   35.3750 C   0  0  0  0  0  3  0  0  0  0  0  0
   36.2060   28.7430   33.5710 C   0  0  0  0  0  0  0  0  0  0  0  0
   35.6270   29.6880   34.3750 C   0  0  0  0  0  0  0  0  0  0  0  0
   34.9280   30.7540   33.8440 C   0  0  0  0  0  0  0  0  0  0  0  0
   34.8470   30.8110   32.4750 C   0  0  0  0  0  0  0  0  0  0  0  0
   35.4220   29.8720   31.6300 C   0  0  0  0  0  0  0  0  0  0  0  0
   36.0980   28.8480   32.2360 N   0  0  0  0  0  0  0  0  0  0  0  0
   35.6910   29.6440   35.4560 H   0  0  0  0  0  0  0  0  0  0  0  0
   34.4650   31.5050   34.4590 H   0  0  0  0  0  0  0  0  0  0  0  0
   34.3140   31.6150   31.9540 H   0  0  0  0  0  0  0  0  0  0  0  0
   35.3610   29.9130   30.5490 H   0  0  0  0  0  0  0  0  0  0  0  0
  1  2  1  0  0  0  0
  2  9  1  0  0  0  0
  2  3  2  0  0  0  0
  3  8  1  0  0  0  0
  4  3  1  0  0  0  0
  5  4  2  0  0  0  0
  6  1  2  0  0  0  0
  6  5  1  0  0  0  0
  7  1  1  0  0  0  0
  9 10  1  0  0  0  0
 10 11  1  0  0  0  0
 10 12  2  0  0  0  0
 13 14  1  0  0  0  0
 13 12  1  0  0  0  0
 15 16  1  0  0  0  0
 15 14  2  0  0  0  0
 17 15  1  0  0  0  0
 18 17  2  0  0  0  0
 18 19  1  0  0  0  0
 19 13  2  0  0  0  0
 20  9  2  0  0  0  0
 20 19  1  0  0  0  0
 21  5  1  0  0  0  0
 21 22  1  0  0  0  0
 22 27  1  0  0  0  0
 23 22  2  0  0  0  0
 23 28  1  0  0  0  0
 24 23  1  0  0  0  0
 25 26  1  0  0  0  0
 25 24  2  0  0  0  0
 26 21  2  0  0  0  0
 29 24  1  0  0  0  0
 30 25  1  0  0  0  0
M  END
>  <minimizedAffinity>
-5.81906033

$$$$

 OpenBabel03272504493D

 30 33  0  0  0  0  0  0  0  0999 V2000
   38.1610   26.8960   35.8140 C   0  0  0  0  0  0  0  0  0  0  0  0
   38.3470   25.6180   35.2920 C   0  0  0  0  0  0  0  0  0  0  0  0
   37.7810   25.3430   34.0560 C   0  0  0  0  0  0  0  0  0  0  0  0
   37.0860   26.3510   33.4440 N   0  0  0  0  0  0  0  0  0  0  0  0
   36.9240   27.5660   33.9680 C   0  0  0  0  0  0  0  0  0  0  0  0
   37.4650   27.8340   35.1550 N   0  0  0  0  0  0  0  0  0  0  0  0
   38.6170   27.0710   36.7790 H   0  0  0  0  0  0  0  0  0  0  0  0
   37.8370   24.3970   33.5180 H   0  0  0  0  0  0  0  0  0  0  0  0
   39.0870   24.5410   35.9400 C   0  0  0  0  0  0  0  0  0  0  0  0
   38.5610   23.9530   37.0950 C   0  0  0  0  0  0  0  0  0  0  0  0
   37.6340   24.2550   37.5350 H   0  0  0  0  0  0  0  0  0  0  0  0
   39.2930   22.9420   37.6710 C   0  0  0  0  0  3  0  0  0  0  0  0
   40.4930   22.5160   37.1430 C   0  0  0  0  0  0  0  0  0  0  0  0
   41.2380   21.5270   37.6800 N   0  0  0  0  0  0  0  0  0  0  0  0
   42.4050   21.1400   37.1360 C   0  0  0  0  0  0  0  0  0  0  0  0
   42.9680   20.3390   37.6090 H   0  0  0  0  0  0  0  0  0  0  0  0
   42.9330   21.7170   35.9920 C   0  0  0  0  0  3  0  0  0  0  0  0
   42.1870   22.7460   35.4080 C   0  0  0  0  0  3  0  0  0  0  0  0
   40.9950   23.1050   36.0070 C   0  0  0  0  0  0  0  0  0  0  0  0
   40.2870   24.1250   35.4010 C   0  0  0  0  0  3  0  0  0  0  0  0
   36.1680   28.5860   33.2530 C   0  0  0  0  0  0  0  0  0  0  0  0
   36.4740   28.8860   31.9530 C   0  0  0  0  0  0  0  0  0  0  0  0
   35.7710   29.8480   31.2530 C   0  0  0  0  0  0  0  0  0  0  0  0
   34.7590   30.4800   31.9300 C   0  0  0  0  0  0  0  0  0  0  0  0
   34.4210   30.1990   33.2470 C   0  0  0  0  0  0  0  0  0  0  0  0
   35.1650   29.2340   33.8680 N   0  0  0  0  0  0  0  0  0  0  0  0
   37.2730   28.3880   31.4170 H   0  0  0  0  0  0  0  0  0  0  0  0
   35.9970   30.0990   30.2320 H   0  0  0  0  0  0  0  0  0  0  0  0
   34.1410   31.2570   31.4660 H   0  0  0  0  0  0  0  0  0  0  0  0
   33.6230   30.6950   33.7860 H   0  0  0  0  0  0  0  0  0  0  0  0
  1  7  1  0  0  0  0
  2  1  1  0  0  0  0
  2  9  1  0  0  0  0
  3  2  2  0  0  0  0
  4  5  2  0  0  0  0
  4  3  1  0  0  0  0
  5  6  1  0  0  0  0
  6  1  2  0  0  0  0
  8  3  1  0  0  0  0
  9 10  1  0  0  0  0
 10 11  1  0  0  0  0
 10 12  2  0  0  0  0
 13 12  1  0  0  0  0
 13 14  1  0  0  0  0
 15 16  1  0  0  0  0
 15 14  2  0  0  0  0
 17 15  1  0  0  0  0
 18 17  2  0  0  0  0
 18 19  1  0  0  0  0
 19 13  2  0  0  0  0
 20  9  2  0  0  0  0
 20 19  1  0  0  0  0
 21 26  1  0  0  0  0
 21  5  1  0  0  0  0
 22 21  2  0  0  0  0
 23 24  2  0  0  0  0
 23 22  1  0  0  0  0
 24 25  1  0  0  0  0
 25 30  1  0  0  0  0
 25 26  2  0  0  0  0
 27 22  1  0  0  0  0
 28 23  1  0  0  0  0
 29 24  1  0  0  0  0
M  END
>  <minimizedAffinity>
-5.80408001

$$$$

 OpenBabel03272504493D

 30 33  0  0  0  0  0  0  0  0999 V2000
   35.4840   25.1950   30.9780 C   0  0  0  0  0  0  0  0  0  0  0  0
   36.4220   24.4500   31.6900 C   0  0  0  0  0  0  0  0  0  0  0  0
   37.2060   25.1250   32.6140 C   0  0  0  0  0  0  0  0  0  0  0  0
   36.9940   26.4700   32.7560 N   0  0  0  0  0  0  0  0  0  0  0  0
   36.0890   27.1580   32.0600 C   0  0  0  0  0  0  0  0  0  0  0  0
   35.3340   26.5140   31.1700 N   0  0  0  0  0  0  0  0  0  0  0  0
   34.8930   24.6330   30.2670 H   0  0  0  0  0  0  0  0  0  0  0  0
   37.9780   24.6860   33.2460 H   0  0  0  0  0  0  0  0  0  0  0  0
   36.6500   23.0180   31.5430 C   0  0  0  0  0  0  0  0  0  0  0  0
   37.8160   22.5760   30.9090 C   0  0  0  0  0  0  0  0  0  0  0  0
   38.5580   23.2400   30.5200 H   0  0  0  0  0  0  0  0  0  0  0  0
   37.9890   21.2170   30.7930 C   0  0  0  0  0  3  0  0  0  0  0  0
   37.0620   20.3190   31.2780 C   0  0  0  0  0  0  0  0  0  0  0  0
   37.1980   18.9790   31.1820 N   0  0  0  0  0  0  0  0  0  0  0  0
   36.2700   18.1340   31.6670 C   0  0  0  0  0  0  0  0  0  0  0  0
   36.4280   17.0630   31.5640 H   0  0  0  0  0  0  0  0  0  0  0  0
   35.1140   18.5630   32.2960 C   0  0  0  0  0  3  0  0  0  0  0  0
   34.9400   19.9460   32.4120 C   0  0  0  0  0  3  0  0  0  0  0  0
   35.9210   20.7700   31.8980 C   0  0  0  0  0  0  0  0  0  0  0  0
   35.7140   22.1290   32.0320 C   0  0  0  0  0  3  0  0  0  0  0  0
   35.9250   28.5900   32.2690 C   0  0  0  0  0  0  0  0  0  0  0  0
   35.7460   29.0870   33.5320 C   0  0  0  0  0  0  0  0  0  0  0  0
   35.5900   30.4410   33.7560 C   0  0  0  0  0  0  0  0  0  0  0  0
   35.6250   31.2520   32.6490 C   0  0  0  0  0  0  0  0  0  0  0  0
   35.8060   30.7820   31.3550 C   0  0  0  0  0  0  0  0  0  0  0  0
   35.9530   29.4290   31.2200 N   0  0  0  0  0  0  0  0  0  0  0  0
   35.7180   28.4470   34.4060 H   0  0  0  0  0  0  0  0  0  0  0  0
   35.4470   30.8500   34.7400 H   0  0  0  0  0  0  0  0  0  0  0  0
   35.5110   32.3400   32.7180 H   0  0  0  0  0  0  0  0  0  0  0  0
   35.8350   31.4180   30.4790 H   0  0  0  0  0  0  0  0  0  0  0  0
  1  6  2  0  0  0  0
  1  2  1  0  0  0  0
  2  3  2  0  0  0  0
  3  4  1  0  0  0  0
  3  8  1  0  0  0  0
  5 21  1  0  0  0  0
  5  4  2  0  0  0  0
  6  5  1  0  0  0  0
  7  1  1  0  0  0  0
  9  2  1  0  0  0  0
  9 20  1  0  0  0  0
 10  9  2  0  0  0  0
 11 10  1  0  0  0  0
 12 10  1  0  0  0  0
 12 13  2  0  0  0  0
 13 19  1  0  0  0  0
 14 13  1  0  0  0  0
 14 15  2  0  0  0  0
 15 17  1  0  0  0  0
 16 15  1  0  0  0  0
 17 18  2  0  0  0  0
 19 20  2  0  0  0  0
 19 18  1  0  0  0  0
 21 22  1  0  0  0  0
 22 23  2  0  0  0  0
 22 27  1  0  0  0  0
 23 28  1  0  0  0  0
 24 29  1  0  0  0  0
 24 23  1  0  0  0  0
 25 24  2  0  0  0  0
 26 25  1  0  0  0  0
 26 21  2  0  0  0  0
 30 25  1  0  0  0  0
M  END
>  <minimizedAffinity>
-5.76438904

$$$$

 OpenBabel03272504493D

 30 33  0  0  0  0  0  0  0  0999 V2000
   37.1380   25.3620   32.3760 C   0  0  0  0  0  0  0  0  0  0  0  0
   36.2360   26.1850   31.7040 C   0  0  0  0  0  0  0  0  0  0  0  0
   35.2280   25.5690   30.9760 C   0  0  0  0  0  0  0  0  0  0  0  0
   35.1990   24.2010   30.9750 N   0  0  0  0  0  0  0  0  0  0  0  0
   36.0770   23.4380   31.6280 C   0  0  0  0  0  0  0  0  0  0  0  0
   37.0460   24.0250   32.3280 N   0  0  0  0  0  0  0  0  0  0  0  0
   37.9080   25.8810   32.9320 H   0  0  0  0  0  0  0  0  0  0  0  0
   34.4510   26.0710   30.4010 H   0  0  0  0  0  0  0  0  0  0  0  0
   36.2630   27.6430   31.7020 C   0  0  0  0  0  0  0  0  0  0  0  0
   35.8130   28.3330   32.8330 C   0  0  0  0  0  0  0  0  0  0  0  0
   35.4440   27.8440   33.7100 H   0  0  0  0  0  0  0  0  0  0  0  0
   35.8570   29.7070   32.7870 C   0  0  0  0  0  3  0  0  0  0  0  0
   36.3230   30.3850   31.6800 C   0  0  0  0  0  0  0  0  0  0  0  0
   36.3810   31.7310   31.5990 N   0  0  0  0  0  0  0  0  0  0  0  0
   36.8410   32.3580   30.5020 C   0  0  0  0  0  0  0  0  0  0  0  0
   36.8660   33.4450   30.4870 H   0  0  0  0  0  0  0  0  0  0  0  0
   37.2890   31.6820   29.3790 C   0  0  0  0  0  3  0  0  0  0  0  0
   37.2420   30.2850   29.4280 C   0  0  0  0  0  3  0  0  0  0  0  0
   36.7600   29.6910   30.5780 C   0  0  0  0  0  0  0  0  0  0  0  0
   36.7300   28.3100   30.5890 C   0  0  0  0  0  3  0  0  0  0  0  0
   35.9780   21.9860   31.5770 C   0  0  0  0  0  0  0  0  0  0  0  0
   34.9980   21.3360   32.2790 C   0  0  0  0  0  0  0  0  0  0  0  0
   34.8830   19.9600   32.2460 C   0  0  0  0  0  0  0  0  0  0  0  0
   35.7980   19.2880   31.4760 C   0  0  0  0  0  0  0  0  0  0  0  0
   36.8020   19.9150   30.7500 C   0  0  0  0  0  0  0  0  0  0  0  0
   36.8480   21.2790   30.8360 N   0  0  0  0  0  0  0  0  0  0  0  0
   34.2750   21.8660   32.8880 H   0  0  0  0  0  0  0  0  0  0  0  0
   34.1210   19.4320   32.7910 H   0  0  0  0  0  0  0  0  0  0  0  0
   35.7930   18.1960   31.3820 H   0  0  0  0  0  0  0  0  0  0  0  0
   37.5270   19.3880   30.1410 H   0  0  0  0  0  0  0  0  0  0  0  0
  1  7  1  0  0  0  0
  2  1  2  0  0  0  0
  3  2  1  0  0  0  0
  4  3  2  0  0  0  0
  4  5  1  0  0  0  0
  5  6  2  0  0  0  0
  6  1  1  0  0  0  0
  8  3  1  0  0  0  0
  9  2  1  0  0  0  0
  9 10  1  0  0  0  0
 10 11  1  0  0  0  0
 12 10  2  0  0  0  0
 13 12  1  0  0  0  0
 14 13  1  0  0  0  0
 15 14  2  0  0  0  0
 16 15  1  0  0  0  0
 17 18  2  0  0  0  0
 17 15  1  0  0  0  0
 18 19  1  0  0  0  0
 19 20  1  0  0  0  0
 19 13  2  0  0  0  0
 20  9  2  0  0  0  0
 21  5  1  0  0  0  0
 21 22  1  0  0  0  0
 22 27  1  0  0  0  0
 23 22  2  0  0  0  0
 23 28  1  0  0  0  0
 24 23  1  0  0  0  0
 25 26  1  0  0  0  0
 25 24  2  0  0  0  0
 26 21  2  0  0  0  0
 29 24  1  0  0  0  0
 30 25  1  0  0  0  0
M  END
>  <minimizedAffinity>
-5.67580605

$$$$

 OpenBabel03272504493D

 30 33  0  0  0  0  0  0  0  0999 V2000
   37.7710   27.5090   35.3220 C   0  0  0  0  0  0  0  0  0  0  0  0
   37.1900   27.2800   34.0760 C   0  0  0  0  0  0  0  0  0  0  0  0
   37.3150   26.0090   33.5360 C   0  0  0  0  0  0  0  0  0  0  0  0
   37.9980   25.0770   34.2720 N   0  0  0  0  0  0  0  0  0  0  0  0
   38.5440   25.3250   35.4620 C   0  0  0  0  0  0  0  0  0  0  0  0
   38.4270   26.5450   35.9840 N   0  0  0  0  0  0  0  0  0  0  0  0
   37.6520   28.5130   35.7080 H   0  0  0  0  0  0  0  0  0  0  0  0
   36.9190   25.6740   32.5780 H   0  0  0  0  0  0  0  0  0  0  0  0
   36.4620   28.2690   33.2900 C   0  0  0  0  0  0  0  0  0  0  0  0
   36.7910   28.4430   31.9420 C   0  0  0  0  0  0  0  0  0  0  0  0
   37.5600   27.8840   31.4500 H   0  0  0  0  0  0  0  0  0  0  0  0
   36.0790   29.3850   31.2390 C   0  0  0  0  0  3  0  0  0  0  0  0
   35.0790   30.1320   31.8270 C   0  0  0  0  0  0  0  0  0  0  0  0
   34.3590   31.0650   31.1700 N   0  0  0  0  0  0  0  0  0  0  0  0
   33.3910   31.7740   31.7780 C   0  0  0  0  0  0  0  0  0  0  0  0
   32.8400   32.5150   31.2030 H   0  0  0  0  0  0  0  0  0  0  0  0
   33.0580   31.6080   33.1120 C   0  0  0  0  0  3  0  0  0  0  0  0
   33.7860   30.6490   33.8240 C   0  0  0  0  0  3  0  0  0  0  0  0
   34.7690   29.9480   33.1530 C   0  0  0  0  0  0  0  0  0  0  0  0
   35.4650   29.0100   33.8900 C   0  0  0  0  0  3  0  0  0  0  0  0
   39.2560   24.2780   36.1820 C   0  0  0  0  0  0  0  0  0  0  0  0
   40.4080   23.7470   35.6670 C   0  0  0  0  0  0  0  0  0  0  0  0
   41.1020   22.7550   36.3320 C   0  0  0  0  0  0  0  0  0  0  0  0
   40.5750   22.3360   37.5280 C   0  0  0  0  0  0  0  0  0  0  0  0
   39.4110   22.8530   38.0800 C   0  0  0  0  0  0  0  0  0  0  0  0
   38.7850   23.8320   37.3590 N   0  0  0  0  0  0  0  0  0  0  0  0
   40.8250   24.0770   34.7230 H   0  0  0  0  0  0  0  0  0  0  0  0
   42.0080   22.3240   35.9430 H   0  0  0  0  0  0  0  0  0  0  0  0
   41.0490   21.5540   38.1330 H   0  0  0  0  0  0  0  0  0  0  0  0
   38.9920   22.5250   39.0230 H   0  0  0  0  0  0  0  0  0  0  0  0
  1  7  1  0  0  0  0
  1  6  1  0  0  0  0
  2  1  2  0  0  0  0
  3  2  1  0  0  0  0
  3  4  2  0  0  0  0
  4  5  1  0  0  0  0
  5  6  2  0  0  0  0
  5 21  1  0  0  0  0
  8  3  1  0  0  0  0
  9 20  1  0  0  0  0
  9  2  1  0  0  0  0
 10  9  2  0  0  0  0
 11 10  1  0  0  0  0
 12 13  2  0  0  0  0
 12 10  1  0  0  0  0
 13 19  1  0  0  0  0
 14 15  2  0  0  0  0
 14 13  1  0  0  0  0
 15 17  1  0  0  0  0
 16 15  1  0  0  0  0
 17 18  2  0  0  0  0
 19 18  1  0  0  0  0
 19 20  2  0  0  0  0
 21 26  1  0  0  0  0
 22 21  2  0  0  0  0
 22 23  1  0  0  0  0
 23 24  2  0  0  0  0
 24 25  1  0  0  0  0
 24 29  1  0  0  0  0
 25 30  1  0  0  0  0
 26 25  2  0  0  0  0
 27 22  1  0  0  0  0
 28 23  1  0  0  0  0
M  END
>  <minimizedAffinity>
-5.62625504

$$$$

 OpenBabel03272504493D

 30 33  0  0  0  0  0  0  0  0999 V2000
   37.6290   27.4340   32.4510 C   0  0  0  0  0  0  0  0  0  0  0  0
   37.4960   27.1090   33.7990 C   0  0  0  0  0  0  0  0  0  0  0  0
   36.5960   27.8510   34.5500 C   0  0  0  0  0  0  0  0  0  0  0  0
   35.9070   28.8430   33.9060 N   0  0  0  0  0  0  0  0  0  0  0  0
   36.0560   29.1330   32.6140 C   0  0  0  0  0  0  0  0  0  0  0  0
   36.9200   28.4240   31.8890 N   0  0  0  0  0  0  0  0  0  0  0  0
   38.3410   26.8340   31.9000 H   0  0  0  0  0  0  0  0  0  0  0  0
   36.3800   27.7190   35.6100 H   0  0  0  0  0  0  0  0  0  0  0  0
   38.2270   26.0530   34.4890 C   0  0  0  0  0  0  0  0  0  0  0  0
   39.3130   25.4460   33.8480 C   0  0  0  0  0  0  0  0  0  0  0  0
   39.6390   25.7180   32.8660 H   0  0  0  0  0  0  0  0  0  0  0  0
   39.9720   24.4550   34.5350 C   0  0  0  0  0  3  0  0  0  0  0  0
   39.5900   24.0680   35.8020 C   0  0  0  0  0  0  0  0  0  0  0  0
   40.2140   23.1000   36.5070 N   0  0  0  0  0  0  0  0  0  0  0  0
   39.8110   22.7490   37.7420 C   0  0  0  0  0  0  0  0  0  0  0  0
   40.3470   21.9620   38.2670 H   0  0  0  0  0  0  0  0  0  0  0  0
   38.7380   23.3440   38.3840 C   0  0  0  0  0  3  0  0  0  0  0  0
   38.0690   24.3520   37.6820 C   0  0  0  0  0  3  0  0  0  0  0  0
   38.5220   24.6740   36.4170 C   0  0  0  0  0  0  0  0  0  0  0  0
   37.8350   25.6740   35.7560 C   0  0  0  0  0  3  0  0  0  0  0  0
   35.2850   30.2070   32.0020 C   0  0  0  0  0  0  0  0  0  0  0  0
   35.9150   31.1820   31.2770 C   0  0  0  0  0  0  0  0  0  0  0  0
   35.2050   32.2100   30.6870 C   0  0  0  0  0  0  0  0  0  0  0  0
   33.8450   32.1970   30.8670 C   0  0  0  0  0  0  0  0  0  0  0  0
   33.1740   31.2230   31.5940 C   0  0  0  0  0  0  0  0  0  0  0  0
   33.9490   30.2410   32.1460 N   0  0  0  0  0  0  0  0  0  0  0  0
   36.9890   31.1940   31.1340 H   0  0  0  0  0  0  0  0  0  0  0  0
   35.6820   32.9860   30.1140 H   0  0  0  0  0  0  0  0  0  0  0  0
   33.1920   32.9670   30.4400 H   0  0  0  0  0  0  0  0  0  0  0  0
   32.1010   31.2090   31.7390 H   0  0  0  0  0  0  0  0  0  0  0  0
  1  2  1  0  0  0  0
  2  9  1  0  0  0  0
  2  3  2  0  0  0  0
  3  8  1  0  0  0  0
  4  3  1  0  0  0  0
  5  4  2  0  0  0  0
  6  1  2  0  0  0  0
  6  5  1  0  0  0  0
  7  1  1  0  0  0  0
  9 20  1  0  0  0  0
 10  9  2  0  0  0  0
 10 12  1  0  0  0  0
 11 10  1  0  0  0  0
 12 13  2  0  0  0  0
 13 19  1  0  0  0  0
 13 14  1  0  0  0  0
 14 15  2  0  0  0  0
 15 16  1  0  0  0  0
 15 17  1  0  0  0  0
 18 17  2  0  0  0  0
 19 18  1  0  0  0  0
 20 19  2  0  0  0  0
 21 26  1  0  0  0  0
 21  5  1  0  0  0  0
 22 21  2  0  0  0  0
 23 24  2  0  0  0  0
 23 22  1  0  0  0  0
 24 25  1  0  0  0  0
 25 30  1  0  0  0  0
 25 26  2  0  0  0  0
 27 22  1  0  0  0  0
 28 23  1  0  0  0  0
 29 24  1  0  0  0  0
M  END
>  <minimizedAffinity>
-5.62587976

$$$$

 OpenBabel03272504493D

 30 33  0  0  0  0  0  0  0  0999 V2000
   36.6410   28.2380   34.6510 C   0  0  0  0  0  0  0  0  0  0  0  0
   35.6810   29.1390   34.1950 C   0  0  0  0  0  0  0  0  0  0  0  0
   35.1990   28.9610   32.9060 C   0  0  0  0  0  0  0  0  0  0  0  0
   35.7030   27.9120   32.1850 N   0  0  0  0  0  0  0  0  0  0  0  0
   36.6220   27.0650   32.6480 C   0  0  0  0  0  0  0  0  0  0  0  0
   37.0890   27.2330   33.8840 N   0  0  0  0  0  0  0  0  0  0  0  0
   36.9920   28.4100   35.6600 H   0  0  0  0  0  0  0  0  0  0  0  0
   34.4510   29.5770   32.4080 H   0  0  0  0  0  0  0  0  0  0  0  0
   35.1420   30.2560   34.9590 C   0  0  0  0  0  0  0  0  0  0  0  0
   36.0250   31.1370   35.5920 C   0  0  0  0  0  0  0  0  0  0  0  0
   37.0880   31.0330   35.5470 H   0  0  0  0  0  0  0  0  0  0  0  0
   35.4720   32.1770   36.3020 C   0  0  0  0  0  3  0  0  0  0  0  0
   34.1070   32.3540   36.3920 C   0  0  0  0  0  0  0  0  0  0  0  0
   33.5280   33.3620   37.0790 N   0  0  0  0  0  0  0  0  0  0  0  0
   32.1920   33.5020   37.1440 C   0  0  0  0  0  0  0  0  0  0  0  0
   31.7760   34.3310   37.7110 H   0  0  0  0  0  0  0  0  0  0  0  0
   31.3110   32.6360   36.5190 C   0  0  0  0  0  3  0  0  0  0  0  0
   31.8760   31.5780   35.7990 C   0  0  0  0  0  3  0  0  0  0  0  0
   33.2540   31.4800   35.7640 C   0  0  0  0  0  0  0  0  0  0  0  0
   33.7740   30.4230   35.0420 C   0  0  0  0  0  3  0  0  0  0  0  0
   37.1090   25.9730   31.8160 C   0  0  0  0  0  0  0  0  0  0  0  0
   36.3610   24.8360   31.6630 C   0  0  0  0  0  0  0  0  0  0  0  0
   36.7990   23.7880   30.8790 C   0  0  0  0  0  0  0  0  0  0  0  0
   38.0170   23.9490   30.2670 C   0  0  0  0  0  0  0  0  0  0  0  0
   38.8000   25.0870   30.3990 C   0  0  0  0  0  0  0  0  0  0  0  0
   38.2940   26.0790   31.1930 N   0  0  0  0  0  0  0  0  0  0  0  0
   35.3990   24.7080   32.1460 H   0  0  0  0  0  0  0  0  0  0  0  0
   36.2270   22.8870   30.7470 H   0  0  0  0  0  0  0  0  0  0  0  0
   38.4550   23.1760   29.6240 H   0  0  0  0  0  0  0  0  0  0  0  0
   39.7620   25.2190   29.9180 H   0  0  0  0  0  0  0  0  0  0  0  0
  1  7  1  0  0  0  0
  2  1  1  0  0  0  0
  2  9  1  0  0  0  0
  3  2  2  0  0  0  0
  4  5  2  0  0  0  0
  4  3  1  0  0  0  0
  5  6  1  0  0  0  0
  6  1  2  0  0  0  0
  8  3  1  0  0  0  0
  9 20  2  0  0  0  0
  9 10  1  0  0  0  0
 10 12  2  0  0  0  0
 11 10  1  0  0  0  0
 12 13  1  0  0  0  0
 13 14  1  0  0  0  0
 14 15  2  0  0  0  0
 15 16  1  0  0  0  0
 17 15  1  0  0  0  0
 18 17  2  0  0  0  0
 19 18  1  0  0  0  0
 19 13  2  0  0  0  0
 20 19  1  0  0  0  0
 21  5  1  0  0  0  0
 22 21  1  0  0  0  0
 22 27  1  0  0  0  0
 23 22  2  0  0  0  0
 24 25  2  0  0  0  0
 24 23  1  0  0  0  0
 25 26  1  0  0  0  0
 26 21  2  0  0  0  0
 28 23  1  0  0  0  0
 29 24  1  0  0  0  0
 30 25  1  0  0  0  0
M  END
>  <minimizedAffinity>
-5.53151035

$$$$
