
 OpenBabel03272509043D

 34 36  0  0  0  0  0  0  0  0999 V2000
   40.0600   34.3440   48.0300 C   0  0  0  0  0  0  0  0  0  0  0  0
   40.1820   33.7780   46.7350 C   0  0  0  0  0  0  0  0  0  0  0  0
   39.4190   32.6020   46.4490 C   0  0  0  0  0  0  0  0  0  0  0  0
   38.6330   32.1160   47.4460 N   0  0  0  0  0  0  0  0  0  0  0  0
   38.5550   32.6870   48.6490 C   0  0  0  0  0  0  0  0  0  0  0  0
   39.2670   33.7940   48.9320 N   0  0  0  0  0  0  0  0  0  0  0  0
   40.6650   35.2110   48.1430 H   0  0  0  0  0  0  0  0  0  0  0  0
   40.8060   34.1630   45.9410 H   0  0  0  0  0  0  0  0  0  0  0  0
   39.5100   32.0010   45.1620 N   0  0  0  0  0  0  0  0  0  0  0  0
   40.6820   31.3440   44.9940 C   0  0  0  0  0  3  0  0  0  0  0  0
   40.9070   30.7030   43.7710 C   0  0  0  0  0  0  0  0  0  0  0  0
   41.8060   30.1530   43.5360 H   0  0  0  0  0  0  0  0  0  0  0  0
   39.9440   30.7640   42.8030 C   0  0  0  0  0  0  0  0  0  0  0  0
   40.0480   30.2280   41.6830 O   0  0  0  0  0  0  0  0  0  0  0  0
   38.7860   31.4320   43.0110 N   0  0  0  0  0  0  0  0  0  0  0  0
   38.5770   32.0460   44.1910 C   0  0  0  0  0  0  0  0  0  0  0  0
   37.5780   32.7090   44.5700 O   0  0  0  0  0  0  0  0  0  0  0  0
   38.0050   31.5290   42.3360 H   0  0  0  0  0  0  0  0  0  0  0  0
   37.6760   32.0500   49.5990 C   0  0  0  0  0  3  0  0  0  0  0  0
   37.0370   30.9860   49.2470 C   0  0  0  0  0  3  0  0  0  0  0  0
   36.0990   30.1830   50.0450 C   0  0  0  0  0  0  0  0  0  0  0  0
   35.5190   30.8830   50.6980 H   0  0  0  0  0  0  0  0  0  0  0  0
   36.5960   29.4740   50.7460 H   0  0  0  0  0  0  0  0  0  0  0  0
   35.1040   29.4580   49.1950 C   0  0  0  0  0  0  0  0  0  0  0  0
   34.6170   28.1930   49.4160 C   0  0  0  0  0  0  0  0  0  0  0  0
   33.6980   27.6250   48.5620 C   0  0  0  0  0  0  0  0  0  0  0  0
   33.2270   28.3160   47.4390 C   0  0  0  0  0  0  0  0  0  0  0  0
   33.6980   29.5750   47.2000 C   0  0  0  0  0  0  0  0  0  0  0  0
   34.6210   30.1300   48.0690 C   0  0  0  0  0  0  0  0  0  0  0  0
   35.0040   27.6820   50.3000 H   0  0  0  0  0  0  0  0  0  0  0  0
   33.3600   26.6210   48.8040 H   0  0  0  0  0  0  0  0  0  0  0  0
   32.5160   27.8220   46.8170 H   0  0  0  0  0  0  0  0  0  0  0  0
   33.3580   30.1420   46.3410 H   0  0  0  0  0  0  0  0  0  0  0  0
   34.9670   31.1190   47.8500 H   0  0  0  0  0  0  0  0  0  0  0  0
  1  7  1  0  0  0  0
  1  6  1  0  0  0  0
  2  1  2  0  0  0  0
  3  2  1  0  0  0  0
  3  4  2  0  0  0  0
  4  5  1  0  0  0  0
  5  6  2  0  0  0  0
  5 19  1  0  0  0  0
  8  2  1  0  0  0  0
  9  3  1  0  0  0  0
 10  9  1  0  0  0  0
 11 10  2  0  0  0  0
 12 11  1  0  0  0  0
 13 15  1  0  0  0  0
 13 11  1  0  0  0  0
 14 13  2  0  0  0  0
 15 16  1  0  0  0  0
 16 17  2  0  0  0  0
 16  9  1  0  0  0  0
 18 15  1  0  0  0  0
 20 19  2  0  0  0  0
 20 21  1  0  0  0  0
 21 22  1  0  0  0  0
 21 23  1  0  0  0  0
 24 25  1  0  0  0  0
 24 21  1  0  0  0  0
 25 30  1  0  0  0  0
 26 31  1  0  0  0  0
 26 25  2  0  0  0  0
 27 26  1  0  0  0  0
 28 27  2  0  0  0  0
 28 29  1  0  0  0  0
 29 24  2  0  0  0  0
 32 27  1  0  0  0  0
 33 28  1  0  0  0  0
 34 29  1  0  0  0  0
M  END
>  <minimizedAffinity>
-6.62676668

>  <minimizedRMSD>
4.13516569

$$$$
