
 OpenBabel03262520493D

 49 53  0  0  1  0  0  0  0  0999 V2000
   40.2750   31.0600   43.8590 C   0  0  0  0  0  0  0  0  0  0  0  0
   41.3650   31.2910   44.0350 H   0  0  0  0  0  0  0  0  0  0  0  0
   39.7580   31.9390   43.3930 H   0  0  0  0  0  0  0  0  0  0  0  0
   39.4520   28.7730   43.3830 C   0  0  0  0  0  0  0  0  0  0  0  0
   40.2120   29.8550   42.9700 C   0  0  0  0  0  0  0  0  0  0  0  0
   40.8960   29.8040   41.7500 C   0  0  0  0  0  0  0  0  0  0  0  0
   40.8220   28.6850   40.9520 C   0  0  0  0  0  0  0  0  0  0  0  0
   41.3720   28.3950   39.7650 N   0  0  0  0  0  0  0  0  0  0  0  0
   40.9650   27.1490   39.4340 C   0  0  0  0  0  0  0  0  0  0  0  0
   40.1480   26.6040   40.3910 C   0  0  0  0  0  0  0  0  0  0  0  0
   40.0580   27.5980   41.3670 C   0  0  0  0  0  0  0  0  0  0  0  0
   39.3890   27.6550   42.5660 C   0  0  0  0  0  0  0  0  0  0  0  0
   38.8940   28.7040   44.2860 H   0  0  0  0  0  0  0  0  0  0  0  0
   41.4820   30.6610   41.4510 H   0  0  0  0  0  0  0  0  0  0  0  0
   42.0070   29.0020   39.1720 H   0  0  0  0  0  0  0  0  0  0  0  0
   41.2370   26.6190   38.5270 H   0  0  0  0  0  0  0  0  0  0  0  0
   39.6730   25.6320   40.4060 H   0  0  0  0  0  0  0  0  0  0  0  0
   38.6250   26.5130   42.9380 N   0  0  0  0  0  0  0  0  0  0  0  0
   39.0030   25.3800   43.5180 C   0  0  0  0  0  0  0  0  0  0  0  0
   38.0730   24.4030   43.7840 C   0  0  0  0  0  0  0  0  0  0  0  0
   38.4220   23.5010   44.2560 H   0  0  0  0  0  0  0  0  0  0  0  0
   36.7370   24.5490   43.4700 C   0  0  0  0  0  0  0  0  0  0  0  0
   35.8920   23.6540   43.7140 O   0  0  0  0  0  0  0  0  0  0  0  0
   36.4020   25.7230   42.8780 N   0  0  0  0  0  0  0  0  0  0  0  0
   37.3100   26.6840   42.6150 C   0  0  0  0  0  0  0  0  0  0  0  0
   36.8090   27.7050   42.0630 O   0  0  0  0  0  0  0  0  0  0  0  0
   35.3770   25.8130   42.6470 H   0  0  0  0  0  0  0  0  0  0  0  0
   39.5880   30.7050   45.1630 C   0  0  0  0  0  0  0  0  0  0  0  0
   38.5000   30.7420   44.9490 H   0  0  0  0  0  0  0  0  0  0  0  0
   39.9450   29.6770   45.4490 H   0  0  0  0  0  0  0  0  0  0  0  0
   38.8320   32.3980   46.8770 C   0  0  1  0  0  0  0  0  0  0  0  0
   39.9740   33.0810   46.1610 C   0  0  0  0  0  0  0  0  0  0  0  0
   39.9270   31.6100   46.2880 C   0  0  2  0  0  0  0  0  0  0  0  0
   37.8410   32.4090   46.3550 H   0  0  0  0  0  0  0  0  0  0  0  0
   39.7930   33.4640   45.1230 H   0  0  0  0  0  0  0  0  0  0  0  0
   40.6840   33.6820   46.7530 H   0  0  0  0  0  0  0  0  0  0  0  0
   40.6580   31.2140   47.0550 H   0  0  0  0  0  0  0  0  0  0  0  0
   38.7450   32.6580   48.3480 C   0  0  0  0  0  0  0  0  0  0  0  0
   39.7610   32.5860   48.7780 H   0  0  0  0  0  0  0  0  0  0  0  0
   38.4090   33.7000   48.5320 H   0  0  0  0  0  0  0  0  0  0  0  0
   37.4720   30.2410   50.9090 C   0  0  0  0  0  0  0  0  0  0  0  0
   38.2940   31.1940   50.2330 C   0  0  0  0  0  0  0  0  0  0  0  0
   37.8790   31.6750   49.0240 C   0  0  0  0  0  0  0  0  0  0  0  0
   36.7160   31.2260   48.5330 N   0  0  0  0  0  0  0  0  0  0  0  0
   35.9450   30.3350   49.1640 C   0  0  0  0  0  0  0  0  0  0  0  0
   36.3370   29.8530   50.3490 N   0  0  0  0  0  0  0  0  0  0  0  0
   37.8790   29.9170   51.8570 H   0  0  0  0  0  0  0  0  0  0  0  0
   39.2290   31.5290   50.6710 H   0  0  0  0  0  0  0  0  0  0  0  0
   35.0090   29.9540   48.7970 H   0  0  0  0  0  0  0  0  0  0  0  0
  1  2  1  0  0  0  0
  1 28  1  0  0  0  0
  3  1  1  0  0  0  0
  4 13  1  0  0  0  0
  5  4  1  0  0  0  0
  5  1  1  0  0  0  0
  6  5  2  0  0  0  0
  7 11  2  0  0  0  0
  7  6  1  0  0  0  0
  8  7  1  0  0  0  0
  9  8  1  0  0  0  0
  9 10  2  0  0  0  0
 10 17  1  0  0  0  0
 10 11  1  0  0  0  0
 11 12  1  0  0  0  0
 12 18  1  0  0  0  0
 12  4  2  0  0  0  0
 14  6  1  0  0  0  0
 15  8  1  0  0  0  0
 16  9  1  0  0  0  0
 18 19  1  0  0  0  0
 19 20  2  0  0  0  0
 20 21  1  0  0  0  0
 22 23  2  0  0  0  0
 22 20  1  0  0  0  0
 24 22  1  0  0  0  0
 25 24  1  0  0  0  0
 25 18  1  0  0  0  0
 26 25  2  0  0  0  0
 27 24  1  0  0  0  0
 28 30  1  0  0  0  0
 28 33  1  0  0  0  0
 29 28  1  0  0  0  0
 31 34  1  6  0  0  0
 31 38  1  0  0  0  0
 32 33  1  0  0  0  0
 32 36  1  0  0  0  0
 32 31  1  0  0  0  0
 33 31  1  0  0  0  0
 33 37  1  1  0  0  0
 35 32  1  0  0  0  0
 38 40  1  0  0  0  0
 38 39  1  0  0  0  0
 38 43  1  0  0  0  0
 41 47  1  0  0  0  0
 42 48  1  0  0  0  0
 42 41  2  0  0  0  0
 43 42  1  0  0  0  0
 44 43  2  0  0  0  0
 44 45  1  0  0  0  0
 45 46  2  0  0  0  0
 46 41  1  0  0  0  0
 49 45  1  0  0  0  0
M  END
>  <minimizedAffinity>
-6.12637424

>  <minimizedRMSD>
0.859418869

$$$$
