
 OpenBabel03272508053D

 36 39  0  0  0  0  0  0  0  0999 V2000
   38.8450   30.9000   45.8350 C   0  0  0  0  0  0  0  0  0  0  0  0
   40.0270   31.5760   46.1040 C   0  0  0  0  0  0  0  0  0  0  0  0
   40.8690   31.5290   45.0050 C   0  0  0  0  0  0  0  0  0  0  0  0
   40.1510   30.8110   44.0940 N   0  0  0  0  0  0  0  0  0  0  0  0
   38.9850   30.4520   44.5830 N   0  0  0  0  0  0  0  0  0  0  0  0
   40.2730   32.0730   47.0280 H   0  0  0  0  0  0  0  0  0  0  0  0
   41.8500   31.9320   44.8390 H   0  0  0  0  0  0  0  0  0  0  0  0
   37.7250   30.7320   46.7340 C   0  0  0  0  0  0  0  0  0  0  0  0
   37.9300   30.9240   48.1280 C   0  0  0  0  0  0  0  0  0  0  0  0
   36.8360   30.7580   48.9680 C   0  0  0  0  0  0  0  0  0  0  0  0
   35.6420   30.4250   48.4200 N   0  0  0  0  0  0  0  0  0  0  0  0
   35.4670   30.2460   47.0860 C   0  0  0  0  0  0  0  0  0  0  0  0
   36.5170   30.4030   46.2550 N   0  0  0  0  0  0  0  0  0  0  0  0
   38.9190   31.1900   48.4930 H   0  0  0  0  0  0  0  0  0  0  0  0
   34.4740   29.9820   46.7460 H   0  0  0  0  0  0  0  0  0  0  0  0
   37.0370   30.9560   50.4360 C   0  0  0  0  0  0  0  0  0  0  0  0
   36.5480   32.2110   50.7100 F   0  0  0  0  0  0  0  0  0  0  0  0
   36.3340   30.0320   51.1920 F   0  0  0  0  0  0  0  0  0  0  0  0
   38.3830   30.9320   50.7850 F   0  0  0  0  0  0  0  0  0  0  0  0
   40.5410   30.4460   42.7370 C   0  0  0  0  0  0  0  0  0  0  0  0
   40.1230   31.2140   41.6340 C   0  0  0  0  0  0  0  0  0  0  0  0
   40.5380   30.8230   40.3910 C   0  0  0  0  0  0  0  0  0  0  0  0
   41.3680   29.6640   40.2490 C   0  0  0  0  0  0  0  0  0  0  0  0
   41.5560   29.1170   42.0050 S   0  0  0  0  0  0  0  0  0  0  0  0
   39.4960   32.0910   41.7110 H   0  0  0  0  0  0  0  0  0  0  0  0
   40.3200   31.2850   39.4410 H   0  0  0  0  0  0  0  0  0  0  0  0
   41.9300   29.0250   39.2270 N   0  0  0  0  0  0  0  0  0  0  0  0
   41.4370   27.8450   38.8020 C   0  0  0  0  0  3  0  0  0  0  0  0
   42.0330   27.1770   37.7270 C   0  0  0  0  0  0  0  0  0  0  0  0
   41.6910   26.2350   37.3380 H   0  0  0  0  0  0  0  0  0  0  0  0
   43.1310   27.7850   37.1420 C   0  0  0  0  0  0  0  0  0  0  0  0
   43.7670   27.2850   36.1570 O   0  0  0  0  0  0  0  0  0  0  0  0
   43.6290   28.9680   37.5660 N   0  0  0  0  0  0  0  0  0  0  0  0
   43.0020   29.5690   38.6190 C   0  0  0  0  0  0  0  0  0  0  0  0
   43.4660   30.6670   39.0090 O   0  0  0  0  0  0  0  0  0  0  0  0
   44.4560   29.4340   37.1300 H   0  0  0  0  0  0  0  0  0  0  0  0
  1  2  1  0  0  0  0
  1  8  1  0  0  0  0
  2  6  1  0  0  0  0
  3  2  2  0  0  0  0
  4  5  1  0  0  0  0
  4  3  1  0  0  0  0
  5  1  2  0  0  0  0
  7  3  1  0  0  0  0
  8  9  1  0  0  0  0
  9 14  1  0  0  0  0
  9 10  2  0  0  0  0
 10 16  1  0  0  0  0
 11 10  1  0  0  0  0
 12 11  2  0  0  0  0
 13  8  2  0  0  0  0
 13 12  1  0  0  0  0
 15 12  1  0  0  0  0
 16 17  1  0  0  0  0
 16 19  1  0  0  0  0
 16 18  1  0  0  0  0
 20  4  1  0  0  0  0
 21 25  1  0  0  0  0
 21 20  2  0  0  0  0
 22 21  1  0  0  0  0
 23 22  2  0  0  0  0
 23 24  1  0  0  0  0
 24 20  1  0  0  0  0
 26 22  1  0  0  0  0
 27 23  1  0  0  0  0
 28 27  1  0  0  0  0
 29 28  2  0  0  0  0
 30 29  1  0  0  0  0
 31 33  1  0  0  0  0
 31 29  1  0  0  0  0
 32 31  2  0  0  0  0
 33 34  1  0  0  0  0
 34 35  2  0  0  0  0
 34 27  1  0  0  0  0
 36 33  1  0  0  0  0
M  END
>  <minimizedAffinity>
-6.56113625

>  <minimizedRMSD>
0.693207204

$$$$
