
 OpenBabel03262520173D

 19 20  0  0  0  0  0  0  0  0999 V2000
   37.4650   30.2640   51.3320 C   0  0  0  0  0  0  0  0  0  0  0  0
   38.1420   30.9900   50.3150 C   0  0  0  0  0  0  0  0  0  0  0  0
   37.8270   30.7240   48.9860 C   0  0  0  0  0  0  0  0  0  0  0  0
   36.8850   29.7820   48.7310 N   0  0  0  0  0  0  0  0  0  0  0  0
   36.2450   29.0940   49.7130 C   0  0  0  0  0  0  0  0  0  0  0  0
   36.5410   29.3420   51.0030 N   0  0  0  0  0  0  0  0  0  0  0  0
   37.7410   30.5020   52.3580 H   0  0  0  0  0  0  0  0  0  0  0  0
   38.8730   31.7190   50.5580 H   0  0  0  0  0  0  0  0  0  0  0  0
   35.4920   28.3430   49.4720 H   0  0  0  0  0  0  0  0  0  0  0  0
   38.4520   31.4010   47.9040 N   0  0  0  0  0  0  0  0  0  0  0  0
   38.6670   30.8280   46.7210 C   0  0  0  0  0  0  0  0  0  0  0  0
   39.2850   31.5310   45.6850 C   0  0  0  0  0  0  0  0  0  0  0  0
   39.4580   31.0520   44.7160 H   0  0  0  0  0  0  0  0  0  0  0  0
   39.6780   32.8490   45.9080 C   0  0  0  0  0  0  0  0  0  0  0  0
   40.2330   33.5130   45.0110 O   0  0  0  0  0  0  0  0  0  0  0  0
   39.4510   33.4100   47.1140 N   0  0  0  0  0  0  0  0  0  0  0  0
   38.8490   32.6660   48.0630 C   0  0  0  0  0  0  0  0  0  0  0  0
   38.6580   33.2410   49.1810 O   0  0  0  0  0  0  0  0  0  0  0  0
   39.7420   34.4060   47.2990 H   0  0  0  0  0  0  0  0  0  0  0  0
  1  7  1  0  0  0  0
  2  8  1  0  0  0  0
  2  1  2  0  0  0  0
  3  2  1  0  0  0  0
  4  3  2  0  0  0  0
  4  5  1  0  0  0  0
  5  6  2  0  0  0  0
  6  1  1  0  0  0  0
  9  5  1  0  0  0  0
 10 17  1  0  0  0  0
 10  3  1  0  0  0  0
 11 10  1  0  0  0  0
 12 14  1  0  0  0  0
 12 11  2  0  0  0  0
 13 12  1  0  0  0  0
 14 16  1  0  0  0  0
 15 14  2  0  0  0  0
 16 19  1  0  0  0  0
 16 17  1  0  0  0  0
 17 18  2  0  0  0  0
M  END
>  <minimizedAffinity>
-5.98533487

>  <minimizedRMSD>
0.728984118

$$$$
