
 OpenBabel03272509043D

 34 36  0  0  0  0  0  0  0  0999 V2000
   36.5270   29.2750   49.4100 C   0  0  0  0  0  0  0  0  0  0  0  0
   37.6160   29.9010   48.7500 C   0  0  0  0  0  0  0  0  0  0  0  0
   37.3450   30.5860   47.5240 C   0  0  0  0  0  0  0  0  0  0  0  0
   36.0590   30.5840   47.0840 N   0  0  0  0  0  0  0  0  0  0  0  0
   35.0710   29.9790   47.7440 C   0  0  0  0  0  0  0  0  0  0  0  0
   35.3100   29.3300   48.8990 N   0  0  0  0  0  0  0  0  0  0  0  0
   36.8300   28.7950   50.3080 H   0  0  0  0  0  0  0  0  0  0  0  0
   38.6400   29.9040   49.0980 H   0  0  0  0  0  0  0  0  0  0  0  0
   38.4080   31.2290   46.8290 N   0  0  0  0  0  0  0  0  0  0  0  0
   38.5510   32.5210   47.2060 C   0  0  0  0  0  3  0  0  0  0  0  0
   39.5610   33.2770   46.6010 C   0  0  0  0  0  0  0  0  0  0  0  0
   39.7580   34.3130   46.8300 H   0  0  0  0  0  0  0  0  0  0  0  0
   40.3570   32.6850   45.6600 C   0  0  0  0  0  0  0  0  0  0  0  0
   41.2810   33.2700   45.0650 O   0  0  0  0  0  0  0  0  0  0  0  0
   40.1820   31.3910   45.3100 N   0  0  0  0  0  0  0  0  0  0  0  0
   39.2060   30.6700   45.8980 C   0  0  0  0  0  0  0  0  0  0  0  0
   38.8900   29.4680   45.7100 O   0  0  0  0  0  0  0  0  0  0  0  0
   40.7360   30.8640   44.6100 H   0  0  0  0  0  0  0  0  0  0  0  0
   33.7600   30.0670   47.1460 C   0  0  0  0  0  3  0  0  0  0  0  0
   33.1200   28.9810   46.8750 C   0  0  0  0  0  3  0  0  0  0  0  0
   31.7870   28.8370   46.2710 C   0  0  0  0  0  0  0  0  0  0  0  0
   31.8270   27.9760   45.5560 H   0  0  0  0  0  0  0  0  0  0  0  0
   31.4740   29.7110   45.6560 H   0  0  0  0  0  0  0  0  0  0  0  0
   30.7350   28.5120   47.2830 C   0  0  0  0  0  0  0  0  0  0  0  0
   29.4320   28.9430   47.2650 C   0  0  0  0  0  0  0  0  0  0  0  0
   28.5470   28.5770   48.2560 C   0  0  0  0  0  0  0  0  0  0  0  0
   28.9460   27.7540   49.3160 C   0  0  0  0  0  0  0  0  0  0  0  0
   30.2370   27.3130   49.3530 C   0  0  0  0  0  0  0  0  0  0  0  0
   31.1120   27.6910   48.3490 C   0  0  0  0  0  0  0  0  0  0  0  0
   29.1540   29.5830   46.4250 H   0  0  0  0  0  0  0  0  0  0  0  0
   27.5330   28.9580   48.1720 H   0  0  0  0  0  0  0  0  0  0  0  0
   28.2140   27.5060   50.0510 H   0  0  0  0  0  0  0  0  0  0  0  0
   30.5840   26.6740   50.1580 H   0  0  0  0  0  0  0  0  0  0  0  0
   32.1170   27.3260   48.4120 H   0  0  0  0  0  0  0  0  0  0  0  0
  1  7  1  0  0  0  0
  2  8  1  0  0  0  0
  2  1  2  0  0  0  0
  3  2  1  0  0  0  0
  4  3  2  0  0  0  0
  4  5  1  0  0  0  0
  5  6  2  0  0  0  0
  6  1  1  0  0  0  0
  9 10  1  0  0  0  0
  9  3  1  0  0  0  0
 11 12  1  0  0  0  0
 11 10  2  0  0  0  0
 13 11  1  0  0  0  0
 14 13  2  0  0  0  0
 15 13  1  0  0  0  0
 15 16  1  0  0  0  0
 16  9  1  0  0  0  0
 17 16  2  0  0  0  0
 18 15  1  0  0  0  0
 19  5  1  0  0  0  0
 20 19  2  0  0  0  0
 21 20  1  0  0  0  0
 21 24  1  0  0  0  0
 22 21  1  0  0  0  0
 23 21  1  0  0  0  0
 24 29  1  0  0  0  0
 25 24  2  0  0  0  0
 25 26  1  0  0  0  0
 26 27  2  0  0  0  0
 27 28  1  0  0  0  0
 27 32  1  0  0  0  0
 28 33  1  0  0  0  0
 29 34  1  0  0  0  0
 29 28  2  0  0  0  0
 30 25  1  0  0  0  0
 31 26  1  0  0  0  0
M  END
>  <minimizedAffinity>
-4.83852816

>  <minimizedRMSD>
3.56658816

$$$$
