
 OpenBabel03272501263D

 40 43  0  0  1  0  0  0  0  0999 V2000
   35.4500   30.2030   47.4400 C   0  0  0  0  0  0  0  0  0  0  0  0
   36.0540   30.3010   46.1790 C   0  0  0  0  0  0  0  0  0  0  0  0
   37.2220   31.0580   46.3240 C   0  0  0  0  0  0  0  0  0  0  0  0
   37.2860   31.3830   47.6260 N   0  0  0  0  0  0  0  0  0  0  0  0
   36.2290   30.8650   48.2530 N   0  0  0  0  0  0  0  0  0  0  0  0
   35.6920   29.8700   45.2360 H   0  0  0  0  0  0  0  0  0  0  0  0
   37.9350   31.3280   45.5460 H   0  0  0  0  0  0  0  0  0  0  0  0
   34.0240   28.5680   48.6690 C   0  0  0  0  0  0  0  0  0  0  0  0
   34.2120   29.4770   47.6290 C   0  0  0  0  0  0  0  0  0  0  0  0
   33.1480   29.6730   46.7560 C   0  0  0  0  0  0  0  0  0  0  0  0
   32.0090   28.9640   46.9820 N   0  0  0  0  0  0  0  0  0  0  0  0
   31.8650   28.0940   47.9980 C   0  0  0  0  0  0  0  0  0  0  0  0
   32.9140   27.8880   48.8750 N   0  0  0  0  0  0  0  0  0  0  0  0
   34.8240   28.3840   49.3710 H   0  0  0  0  0  0  0  0  0  0  0  0
   33.2510   30.3700   45.9350 H   0  0  0  0  0  0  0  0  0  0  0  0
   30.5570   27.5110   47.9650 N   0  0  0  0  0  0  0  0  0  0  0  0
   30.0620   26.8990   46.8720 C   0  0  0  0  0  0  0  0  0  0  0  0
   28.7770   26.3470   46.8950 C   0  0  0  0  0  0  0  0  0  0  0  0
   28.3640   25.8570   46.0390 H   0  0  0  0  0  0  0  0  0  0  0  0
   28.1110   26.4940   48.0960 C   0  0  0  0  0  0  0  0  0  0  0  0
   26.9340   26.0000   48.1460 O   0  0  0  0  0  0  0  0  0  0  0  0
   28.6140   27.1080   49.1830 N   0  0  0  0  0  0  0  0  0  0  0  0
   29.8720   27.6320   49.1170 C   0  0  0  0  0  0  0  0  0  0  0  0
   30.2740   28.1840   50.1530 O   0  0  0  0  0  0  0  0  0  0  0  0
   28.0180   27.1680   50.0610 H   0  0  0  0  0  0  0  0  0  0  0  0
   39.1420   32.8940   47.4200 N   0  0  0  0  0  0  0  0  0  0  0  0
   39.7620   33.8970   48.2600 C   0  0  0  0  0  0  0  0  0  0  0  0
   38.9430   33.9980   49.5410 C   0  0  0  0  0  0  0  0  0  0  0  0
   37.6720   33.2370   49.1550 C   0  0  0  0  0  0  0  0  0  0  0  0
   38.2710   32.1430   48.3090 C   0  0  1  0  0  0  0  0  0  0  0  0
   38.6010   33.2850   46.6240 H   0  0  0  0  0  0  0  0  0  0  0  0
   40.7590   33.4920   48.5440 H   0  0  0  0  0  0  0  0  0  0  0  0
   39.8760   34.8730   47.7710 H   0  0  0  0  0  0  0  0  0  0  0  0
   39.4450   33.5100   50.3840 H   0  0  0  0  0  0  0  0  0  0  0  0
   38.7270   35.0700   49.7210 H   0  0  0  0  0  0  0  0  0  0  0  0
   37.0060   33.9030   48.5870 H   0  0  0  0  0  0  0  0  0  0  0  0
   37.2210   32.7860   50.0450 H   0  0  0  0  0  0  0  0  0  0  0  0
   39.0270   31.2730   49.1760 N   0  0  0  0  0  0  0  0  0  0  0  0
   39.6930   30.7390   48.5850 H   0  0  0  0  0  0  0  0  0  0  0  0
   38.3680   30.6250   49.6370 H   0  0  0  0  0  0  0  0  0  0  0  0
  1  9  1  0  0  0  0
  1  5  2  0  0  0  0
  2  3  2  0  0  0  0
  2  1  1  0  0  0  0
  3  4  1  0  0  0  0
  4  5  1  0  0  0  0
  4 30  1  0  0  0  0
  6  2  1  0  0  0  0
  7  3  1  0  0  0  0
  8 13  1  0  0  0  0
  8 14  1  0  0  0  0
  9  8  2  0  0  0  0
 10 11  2  0  0  0  0
 10  9  1  0  0  0  0
 11 12  1  0  0  0  0
 12 13  2  0  0  0  0
 15 10  1  0  0  0  0
 16 12  1  0  0  0  0
 16 23  1  0  0  0  0
 17 18  2  0  0  0  0
 17 16  1  0  0  0  0
 18 20  1  0  0  0  0
 19 18  1  0  0  0  0
 20 21  2  0  0  0  0
 20 22  1  0  0  0  0
 22 25  1  0  0  0  0
 23 22  1  0  0  0  0
 23 24  2  0  0  0  0
 26 27  1  0  0  0  0
 26 30  1  0  0  0  0
 27 32  1  0  0  0  0
 27 28  1  0  0  0  0
 28 35  1  0  0  0  0
 28 34  1  0  0  0  0
 29 28  1  0  0  0  0
 29 37  1  0  0  0  0
 30 29  1  0  0  0  0
 30 38  1  1  0  0  0
 31 26  1  0  0  0  0
 33 27  1  0  0  0  0
 36 29  1  0  0  0  0
 38 40  1  0  0  0  0
 39 38  1  0  0  0  0
M  END
>  <minimizedAffinity>
-6.11967945

>  <minimizedRMSD>
0.384909332

$$$$
