
     RDKit          3D

 37 39  0  0  0  0  0  0  0  0999 V2000
   33.2812   27.2802   48.0130 C   0  0  0  0  0  0  0  0  0  0  0  0
   33.7046   26.2079   47.0595 C   0  0  0  0  0  0  0  0  0  0  0  0
   33.9308   24.8897   47.3694 C   0  0  0  0  0  0  0  0  0  0  0  0
   34.3197   23.9882   46.4021 C   0  0  0  0  0  0  0  0  0  0  0  0
   34.4978   24.3835   45.0706 C   0  0  0  0  0  0  0  0  0  0  0  0
   34.2781   25.6903   44.7406 C   0  0  0  0  0  0  0  0  0  0  0  0
   33.8878   26.5825   45.7252 C   0  0  0  0  0  0  0  0  0  0  0  0
   34.6857   28.4059   49.7239 C   0  0  0  0  0  0  0  0  0  0  0  0
   34.4175   28.0710   48.5076 C   0  0  0  0  0  0  0  0  0  0  0  0
   37.3631   30.2321   51.4292 C   0  0  0  0  0  0  0  0  0  0  0  0
   38.1285   30.6984   50.3286 C   0  0  0  0  0  0  0  0  0  0  0  0
   37.6798   30.3563   49.0150 C   0  0  0  0  0  0  0  0  0  0  0  0
   36.5489   29.6070   48.9216 N   0  0  0  0  0  0  0  0  0  0  0  0
   35.8656   29.1937   49.9896 C   0  0  0  0  0  0  0  0  0  0  0  0
   36.2761   29.5081   51.2331 N   0  0  0  0  0  0  0  0  0  0  0  0
   32.6050   27.9701   47.4460 H   0  0  0  0  0  0  0  0  0  0  0  0
   32.6464   26.8487   48.8204 H   0  0  0  0  0  0  0  0  0  0  0  0
   33.7831   24.6154   48.4149 H   0  0  0  0  0  0  0  0  0  0  0  0
   34.4793   22.9629   46.7254 H   0  0  0  0  0  0  0  0  0  0  0  0
   34.7991   23.6392   44.3715 H   0  0  0  0  0  0  0  0  0  0  0  0
   34.4055   26.0346   43.7205 H   0  0  0  0  0  0  0  0  0  0  0  0
   33.7250   27.5979   45.4286 H   0  0  0  0  0  0  0  0  0  0  0  0
   33.9963   28.0708   50.4973 H   0  0  0  0  0  0  0  0  0  0  0  0
   35.0213   28.3397   47.6460 H   0  0  0  0  0  0  0  0  0  0  0  0
   37.7776   30.5383   52.3592 H   0  0  0  0  0  0  0  0  0  0  0  0
   39.0281   31.2945   50.4005 H   0  0  0  0  0  0  0  0  0  0  0  0
   38.4166   30.8026   47.8819 N   0  0  0  0  0  0  0  0  0  0  0  0
   37.7126   30.6629   46.7346 C   0  0  0  0  0  0  0  0  0  0  0  0
   38.3161   31.0629   45.5380 C   0  0  0  0  0  0  0  0  0  0  0  0
   37.8419   30.9939   44.5706 H   0  0  0  0  0  0  0  0  0  0  0  0
   39.5833   31.5753   45.5735 C   0  0  0  0  0  0  0  0  0  0  0  0
   40.2067   31.9592   44.5663 O   0  0  0  0  0  0  0  0  0  0  0  0
   40.2537   31.6986   46.7422 N   0  0  0  0  0  0  0  0  0  0  0  0
   39.6644   31.3106   47.8897 C   0  0  0  0  0  0  0  0  0  0  0  0
   40.1194   31.3455   49.0616 O   0  0  0  0  0  0  0  0  0  0  0  0
   36.7107   30.2655   46.6465 H   0  0  0  0  0  0  0  0  0  0  0  0
   41.2123   32.0743   46.8616 H   0  0  0  0  0  0  0  0  0  0  0  0
  1  9  1  0
  2  3  2  0
  2  1  1  0
  4  3  1  0
  5  4  2  0
  6  5  1  0
  6  7  2  0
  7  2  1  0
  8 14  1  0
  9  8  2  0
 11 10  2  0
 12 11  1  0
 13 12  2  0
 13 14  1  0
 14 15  2  0
 15 10  1  0
  1 16  1  0
  1 17  1  0
  3 18  1  0
  4 19  1  0
  5 20  1  0
  6 21  1  0
  7 22  1  0
  8 23  1  0
  9 24  1  0
 10 25  1  0
 11 26  1  0
 27 28  1  0
 28 29  2  0
 29 30  1  0
 29 31  1  0
 31 32  2  0
 31 33  1  0
 33 34  1  0
 34 35  2  0
 34 27  1  0
 28 36  1  0
 33 37  1  0
 12 27  1  0
M  ISO  8  16   8  17   8  18  14  19  14  20  14  21  14  22  14  25  14
M  ISO  2  26  14  30  16
M  END
>  <DihAtoms>  (1) 
10,11,26,27

>  <DihDeg>  (1) 
-90.96125783788925

$$$$
