
 OpenBabel03272508043D

 36 39  0  0  0  0  0  0  0  0999 V2000
   38.9030   30.8920   45.7730 C   0  0  0  0  0  0  0  0  0  0  0  0
   40.0990   31.5500   46.0250 C   0  0  0  0  0  0  0  0  0  0  0  0
   40.9270   31.4860   44.9170 C   0  0  0  0  0  0  0  0  0  0  0  0
   40.1870   30.7770   44.0160 N   0  0  0  0  0  0  0  0  0  0  0  0
   39.0210   30.4390   44.5200 N   0  0  0  0  0  0  0  0  0  0  0  0
   40.3630   32.0450   46.9460 H   0  0  0  0  0  0  0  0  0  0  0  0
   41.9130   31.8720   44.7400 H   0  0  0  0  0  0  0  0  0  0  0  0
   37.7900   30.7460   46.6850 C   0  0  0  0  0  0  0  0  0  0  0  0
   38.0080   30.9670   48.0730 C   0  0  0  0  0  0  0  0  0  0  0  0
   36.9210   30.8210   48.9250 C   0  0  0  0  0  0  0  0  0  0  0  0
   35.7220   30.4770   48.3940 N   0  0  0  0  0  0  0  0  0  0  0  0
   35.5350   30.2710   47.0660 C   0  0  0  0  0  0  0  0  0  0  0  0
   36.5780   30.4080   46.2230 N   0  0  0  0  0  0  0  0  0  0  0  0
   39.0000   31.2400   48.4230 H   0  0  0  0  0  0  0  0  0  0  0  0
   34.5390   30.0000   46.7410 H   0  0  0  0  0  0  0  0  0  0  0  0
   37.1350   31.0500   50.3870 C   0  0  0  0  0  0  0  0  0  0  0  0
   36.6170   32.2970   50.6450 F   0  0  0  0  0  0  0  0  0  0  0  0
   36.4670   30.1210   51.1670 F   0  0  0  0  0  0  0  0  0  0  0  0
   38.4850   31.0680   50.7190 F   0  0  0  0  0  0  0  0  0  0  0  0
   40.5560   30.4020   42.6560 C   0  0  0  0  0  0  0  0  0  0  0  0
   40.1900   31.2070   41.5610 C   0  0  0  0  0  0  0  0  0  0  0  0
   40.5810   30.8030   40.3150 C   0  0  0  0  0  0  0  0  0  0  0  0
   41.3350   29.5960   40.1610 C   0  0  0  0  0  0  0  0  0  0  0  0
   41.4840   29.0190   41.9120 S   0  0  0  0  0  0  0  0  0  0  0  0
   39.6210   32.1230   41.6470 H   0  0  0  0  0  0  0  0  0  0  0  0
   40.3960   31.2890   39.3700 H   0  0  0  0  0  0  0  0  0  0  0  0
   41.8580   28.9320   39.1330 N   0  0  0  0  0  0  0  0  0  0  0  0
   43.0940   29.2280   38.6850 C   0  0  0  0  0  3  0  0  0  0  0  0
   43.6380   28.5270   37.6030 C   0  0  0  0  0  0  0  0  0  0  0  0
   44.6170   28.7120   37.1960 H   0  0  0  0  0  0  0  0  0  0  0  0
   42.8520   27.5390   37.0370 C   0  0  0  0  0  0  0  0  0  0  0  0
   43.2250   26.8260   36.0470 O   0  0  0  0  0  0  0  0  0  0  0  0
   41.6120   27.2400   37.4830 N   0  0  0  0  0  0  0  0  0  0  0  0
   41.1380   27.9610   38.5410 C   0  0  0  0  0  0  0  0  0  0  0  0
   39.9860   27.6810   38.9540 O   0  0  0  0  0  0  0  0  0  0  0  0
   41.0110   26.4970   37.0620 H   0  0  0  0  0  0  0  0  0  0  0  0
  1  2  1  0  0  0  0
  1  8  1  0  0  0  0
  2  6  1  0  0  0  0
  3  2  2  0  0  0  0
  4  5  1  0  0  0  0
  4  3  1  0  0  0  0
  5  1  2  0  0  0  0
  7  3  1  0  0  0  0
  8  9  1  0  0  0  0
  9 14  1  0  0  0  0
  9 10  2  0  0  0  0
 10 16  1  0  0  0  0
 11 10  1  0  0  0  0
 12 11  2  0  0  0  0
 13  8  2  0  0  0  0
 13 12  1  0  0  0  0
 15 12  1  0  0  0  0
 16 17  1  0  0  0  0
 16 19  1  0  0  0  0
 16 18  1  0  0  0  0
 20  4  1  0  0  0  0
 21 25  1  0  0  0  0
 21 20  2  0  0  0  0
 22 21  1  0  0  0  0
 23 22  2  0  0  0  0
 23 24  1  0  0  0  0
 24 20  1  0  0  0  0
 26 22  1  0  0  0  0
 27 23  1  0  0  0  0
 28 27  1  0  0  0  0
 29 28  2  0  0  0  0
 30 29  1  0  0  0  0
 31 33  1  0  0  0  0
 31 29  1  0  0  0  0
 32 31  2  0  0  0  0
 33 34  1  0  0  0  0
 34 35  2  0  0  0  0
 34 27  1  0  0  0  0
 36 33  1  0  0  0  0
M  END
>  <minimizedAffinity>
-6.4073782

>  <minimizedRMSD>
0.726037383

$$$$
