
 OpenBabel03272510163D

 29 31  0  0  0  0  0  0  0  0999 V2000
   37.1940   29.3230   50.9800 Br  0  0  0  0  0  0  0  0  0  0  0  0
   35.9110   29.3340   49.5690 C   0  0  0  0  0  0  0  0  0  0  0  0
   35.9860   30.2570   48.5480 C   0  0  0  0  0  0  0  0  0  0  0  0
   35.0150   30.1970   47.5620 C   0  0  0  0  0  0  0  0  0  0  0  0
   33.9900   29.2580   47.5650 C   0  0  0  0  0  0  0  0  0  0  0  0
   33.9570   28.3620   48.6010 C   0  0  0  0  0  0  0  0  0  0  0  0
   34.9130   28.4040   49.5910 C   0  0  0  0  0  0  0  0  0  0  0  0
   35.1220   30.9540   46.7750 H   0  0  0  0  0  0  0  0  0  0  0  0
   33.1430   27.6560   48.5580 H   0  0  0  0  0  0  0  0  0  0  0  0
   34.8110   27.6560   50.3740 H   0  0  0  0  0  0  0  0  0  0  0  0
   33.0980   29.3690   46.4610 N   0  0  0  0  0  0  0  0  0  0  0  0
   32.2140   30.3440   46.1900 C   0  0  0  0  0  3  0  0  0  0  0  0
   31.4480   30.2360   45.0500 C   0  0  0  0  0  0  0  0  0  0  0  0
   30.7430   31.0430   44.8610 H   0  0  0  0  0  0  0  0  0  0  0  0
   31.5800   29.1470   44.1920 C   0  0  0  0  0  0  0  0  0  0  0  0
   30.8580   29.0790   43.1500 O   0  0  0  0  0  0  0  0  0  0  0  0
   32.4820   28.1930   44.5070 N   0  0  0  0  0  0  0  0  0  0  0  0
   33.2330   28.3000   45.6270 C   0  0  0  0  0  0  0  0  0  0  0  0
   34.0210   27.3330   45.7750 O   0  0  0  0  0  0  0  0  0  0  0  0
   32.5420   27.3960   43.8310 H   0  0  0  0  0  0  0  0  0  0  0  0
   38.0070   33.1540   49.4410 C   0  0  0  0  0  0  0  0  0  0  0  0
   39.0410   33.1510   48.4850 C   0  0  0  0  0  0  0  0  0  0  0  0
   39.0310   32.1430   47.5340 C   0  0  0  0  0  0  0  0  0  0  0  0
   38.0300   31.2100   47.5710 N   0  0  0  0  0  0  0  0  0  0  0  0
   37.0480   31.2520   48.5160 C   0  0  0  0  0  0  0  0  0  0  0  0
   37.0470   32.2230   49.4400 N   0  0  0  0  0  0  0  0  0  0  0  0
   38.0700   33.9640   50.1530 H   0  0  0  0  0  0  0  0  0  0  0  0
   39.8470   33.8330   48.3890 H   0  0  0  0  0  0  0  0  0  0  0  0
   39.7240   31.9640   46.7240 H   0  0  0  0  0  0  0  0  0  0  0  0
  2  7  1  0  0  0  0
  2  1  1  0  0  0  0
  3  2  2  0  0  0  0
  4  5  2  0  0  0  0
  4  3  1  0  0  0  0
  5  6  1  0  0  0  0
  6  7  2  0  0  0  0
  7 10  1  0  0  0  0
  8  4  1  0  0  0  0
  9  6  1  0  0  0  0
 11  5  1  0  0  0  0
 12 11  1  0  0  0  0
 13 12  2  0  0  0  0
 14 13  1  0  0  0  0
 15 17  1  0  0  0  0
 15 13  1  0  0  0  0
 16 15  2  0  0  0  0
 17 18  1  0  0  0  0
 18 19  2  0  0  0  0
 18 11  1  0  0  0  0
 20 17  1  0  0  0  0
 21 27  1  0  0  0  0
 22 21  2  0  0  0  0
 23 24  2  0  0  0  0
 23 22  1  0  0  0  0
 24 25  1  0  0  0  0
 25  3  1  0  0  0  0
 25 26  2  0  0  0  0
 26 21  1  0  0  0  0
 28 22  1  0  0  0  0
 29 23  1  0  0  0  0
M  END
>  <minimizedAffinity>
-5.82515526

>  <minimizedRMSD>
0.988679707

$$$$
