
 OpenBabel03272502363D

 37 39  0  0  1  0  0  0  0  0999 V2000
   35.2680   30.0470   34.8000 C   0  0  0  0  0  3  0  0  0  0  0  0
   35.9050   30.8920   35.5460 C   0  0  0  0  0  3  0  0  0  0  0  0
   36.7490   28.3390   31.8410 C   0  0  0  0  0  0  0  0  0  0  0  0
   36.1170   29.2490   32.6610 C   0  0  0  0  0  0  0  0  0  0  0  0
   35.9470   29.0580   34.0060 C   0  0  0  0  0  0  0  0  0  0  0  0
   36.4410   27.9070   34.5040 N   0  0  0  0  0  0  0  0  0  0  0  0
   37.0570   27.0070   33.7390 C   0  0  0  0  0  0  0  0  0  0  0  0
   37.2150   27.2150   32.4110 N   0  0  0  0  0  0  0  0  0  0  0  0
   36.9000   28.4580   30.7790 H   0  0  0  0  0  0  0  0  0  0  0  0
   35.7850   30.1120   32.1000 H   0  0  0  0  0  0  0  0  0  0  0  0
   37.5780   25.7910   34.2650 N   0  0  0  0  0  0  0  0  0  0  0  0
   37.8160   25.8650   35.5880 C   0  0  0  0  0  3  0  0  0  0  0  0
   38.3230   24.8010   36.3010 C   0  0  0  0  0  0  0  0  0  0  0  0
   38.5240   24.8300   37.3640 H   0  0  0  0  0  0  0  0  0  0  0  0
   38.5890   23.6250   35.6100 C   0  0  0  0  0  0  0  0  0  0  0  0
   39.0580   22.6010   36.1990 O   0  0  0  0  0  0  0  0  0  0  0  0
   38.3390   23.5900   34.2910 N   0  0  0  0  0  0  0  0  0  0  0  0
   37.8450   24.6410   33.6180 C   0  0  0  0  0  0  0  0  0  0  0  0
   37.5890   24.6750   32.3860 O   0  0  0  0  0  0  0  0  0  0  0  0
   38.5240   22.7280   33.7310 H   0  0  0  0  0  0  0  0  0  0  0  0
   35.0920   31.8880   36.3220 C   0  0  1  0  0  0  0  0  0  0  0  0
   35.0970   31.6150   37.4000 H   0  0  0  0  0  0  0  0  0  0  0  0
   35.6220   33.2430   36.0850 C   0  0  0  0  0  0  0  0  0  0  0  0
   36.8330   33.2450   35.3430 C   0  0  0  0  0  0  0  0  0  0  0  0
   37.5100   34.3910   35.0030 C   0  0  0  0  0  0  0  0  0  0  0  0
   37.0250   35.6520   35.3810 C   0  0  0  0  0  0  0  0  0  0  0  0
   35.8410   35.5590   36.1000 C   0  0  0  0  0  0  0  0  0  0  0  0
   35.1580   34.4590   36.4480 N   0  0  0  0  0  0  0  0  0  0  0  0
   37.4080   32.4000   34.9350 H   0  0  0  0  0  0  0  0  0  0  0  0
   38.4330   34.4590   34.4420 H   0  0  0  0  0  0  0  0  0  0  0  0
   37.4210   36.6240   35.2010 H   0  0  0  0  0  0  0  0  0  0  0  0
   35.3380   36.4570   36.4660 H   0  0  0  0  0  0  0  0  0  0  0  0
   33.4090   31.8740   35.6180 S   0  0  0  0  0  0  0  0  0  0  0  0
   32.2720   31.0180   36.6930 C   0  0  0  0  0  0  0  0  0  0  0  0
   31.0550   31.6680   36.8310 F   0  0  0  0  0  0  0  0  0  0  0  0
   32.1060   29.7000   36.3120 F   0  0  0  0  0  0  0  0  0  0  0  0
   32.8810   30.9820   37.9650 F   0  0  0  0  0  0  0  0  0  0  0  0
  1  2  2  0  0  0  0
  2 21  1  0  0  0  0
  3  8  2  0  0  0  0
  3  4  1  0  0  0  0
  4  5  2  0  0  0  0
  5  6  1  0  0  0  0
  5  1  1  0  0  0  0
  7 11  1  0  0  0  0
  7  6  2  0  0  0  0
  8  7  1  0  0  0  0
  9  3  1  0  0  0  0
 10  4  1  0  0  0  0
 11 12  1  0  0  0  0
 12 13  2  0  0  0  0
 13 14  1  0  0  0  0
 15 16  2  0  0  0  0
 15 13  1  0  0  0  0
 17 15  1  0  0  0  0
 18 11  1  0  0  0  0
 18 17  1  0  0  0  0
 19 18  2  0  0  0  0
 20 17  1  0  0  0  0
 21 22  1  1  0  0  0
 23 21  1  0  0  0  0
 23 28  1  0  0  0  0
 24 23  2  0  0  0  0
 25 24  1  0  0  0  0
 25 26  2  0  0  0  0
 26 27  1  0  0  0  0
 27 28  2  0  0  0  0
 27 32  1  0  0  0  0
 29 24  1  0  0  0  0
 30 25  1  0  0  0  0
 31 26  1  0  0  0  0
 33 21  1  0  0  0  0
 33 34  1  0  0  0  0
 34 35  1  0  0  0  0
 34 37  1  0  0  0  0
 36 34  1  0  0  0  0
M  END
>  <minimizedAffinity>
-6.21877432

$$$$

 OpenBabel03272502363D

 37 39  0  0  1  0  0  0  0  0999 V2000
   38.0530   25.2380   34.2700 C   0  0  0  0  0  3  0  0  0  0  0  0
   38.5840   24.0600   34.3370 C   0  0  0  0  0  3  0  0  0  0  0  0
   38.3190   26.0880   30.6540 C   0  0  0  0  0  0  0  0  0  0  0  0
   38.4690   25.4810   31.8820 C   0  0  0  0  0  0  0  0  0  0  0  0
   37.8420   25.9170   33.0190 C   0  0  0  0  0  0  0  0  0  0  0  0
   37.0480   26.9960   32.8760 N   0  0  0  0  0  0  0  0  0  0  0  0
   36.8810   27.6070   31.7030 C   0  0  0  0  0  0  0  0  0  0  0  0
   37.5110   27.1600   30.5910 N   0  0  0  0  0  0  0  0  0  0  0  0
   38.7980   25.7720   29.7400 H   0  0  0  0  0  0  0  0  0  0  0  0
   39.1370   24.6330   31.8160 H   0  0  0  0  0  0  0  0  0  0  0  0
   36.0430   28.7470   31.5530 N   0  0  0  0  0  0  0  0  0  0  0  0
   35.1160   28.8350   32.5250 C   0  0  0  0  0  3  0  0  0  0  0  0
   34.2000   29.8620   32.5730 C   0  0  0  0  0  0  0  0  0  0  0  0
   33.4450   29.9600   33.3410 H   0  0  0  0  0  0  0  0  0  0  0  0
   34.2540   30.8270   31.5740 C   0  0  0  0  0  0  0  0  0  0  0  0
   33.4430   31.8040   31.5500 O   0  0  0  0  0  0  0  0  0  0  0  0
   35.1920   30.7050   30.6200 N   0  0  0  0  0  0  0  0  0  0  0  0
   36.0740   29.6930   30.5950 C   0  0  0  0  0  0  0  0  0  0  0  0
   36.9750   29.5200   29.7340 O   0  0  0  0  0  0  0  0  0  0  0  0
   35.2700   31.4050   29.8500 H   0  0  0  0  0  0  0  0  0  0  0  0
   38.7670   23.4530   35.6980 C   0  0  1  0  0  0  0  0  0  0  0  0
   38.1320   22.5450   35.7910 H   0  0  0  0  0  0  0  0  0  0  0  0
   40.1950   23.1640   35.9180 C   0  0  0  0  0  0  0  0  0  0  0  0
   40.4140   21.9830   36.6760 C   0  0  0  0  0  0  0  0  0  0  0  0
   41.6630   21.5150   37.0050 C   0  0  0  0  0  0  0  0  0  0  0  0
   42.8180   22.1990   36.5970 C   0  0  0  0  0  0  0  0  0  0  0  0
   42.5140   23.3390   35.8640 C   0  0  0  0  0  0  0  0  0  0  0  0
   41.3090   23.8210   35.5270 N   0  0  0  0  0  0  0  0  0  0  0  0
   39.6850   21.2790   37.1050 H   0  0  0  0  0  0  0  0  0  0  0  0
   41.8950   20.6270   37.5780 H   0  0  0  0  0  0  0  0  0  0  0  0
   43.8450   21.9770   36.7640 H   0  0  0  0  0  0  0  0  0  0  0  0
   43.3080   23.9800   35.4740 H   0  0  0  0  0  0  0  0  0  0  0  0
   38.3170   24.7320   36.9210 S   0  0  0  0  0  0  0  0  0  0  0  0
   37.9300   23.9990   38.5000 C   0  0  0  0  0  0  0  0  0  0  0  0
   37.2220   24.8480   39.3380 F   0  0  0  0  0  0  0  0  0  0  0  0
   37.2960   22.7800   38.3540 F   0  0  0  0  0  0  0  0  0  0  0  0
   39.1660   23.7230   39.1230 F   0  0  0  0  0  0  0  0  0  0  0  0
  1  2  2  0  0  0  0
  2 21  1  0  0  0  0
  3  4  1  0  0  0  0
  4  5  2  0  0  0  0
  5  1  1  0  0  0  0
  6  5  1  0  0  0  0
  7  6  2  0  0  0  0
  8  3  2  0  0  0  0
  8  7  1  0  0  0  0
  9  3  1  0  0  0  0
 10  4  1  0  0  0  0
 11  7  1  0  0  0  0
 11 12  1  0  0  0  0
 12 13  2  0  0  0  0
 13 14  1  0  0  0  0
 15 13  1  0  0  0  0
 16 15  2  0  0  0  0
 17 15  1  0  0  0  0
 18 17  1  0  0  0  0
 18 11  1  0  0  0  0
 19 18  2  0  0  0  0
 20 17  1  0  0  0  0
 21 22  1  1  0  0  0
 21 23  1  0  0  0  0
 21 33  1  0  0  0  0
 23 24  1  0  0  0  0
 24 25  2  0  0  0  0
 24 29  1  0  0  0  0
 25 30  1  0  0  0  0
 26 31  1  0  0  0  0
 26 25  1  0  0  0  0
 27 26  2  0  0  0  0
 28 27  1  0  0  0  0
 28 23  2  0  0  0  0
 32 27  1  0  0  0  0
 33 34  1  0  0  0  0
 34 37  1  0  0  0  0
 34 35  1  0  0  0  0
 36 34  1  0  0  0  0
M  END
>  <minimizedAffinity>
-6.11056709

$$$$

 OpenBabel03272502363D

 37 39  0  0  1  0  0  0  0  0999 V2000
   35.6190   29.5120   32.5700 C   0  0  0  0  0  3  0  0  0  0  0  0
   34.7010   29.5540   33.4810 C   0  0  0  0  0  3  0  0  0  0  0  0
   37.6630   26.9670   30.7780 C   0  0  0  0  0  0  0  0  0  0  0  0
   36.9040   28.0770   31.0790 C   0  0  0  0  0  0  0  0  0  0  0  0
   36.4130   28.3370   32.3310 C   0  0  0  0  0  0  0  0  0  0  0  0
   36.7180   27.4310   33.2820 N   0  0  0  0  0  0  0  0  0  0  0  0
   37.4490   26.3470   33.0250 C   0  0  0  0  0  0  0  0  0  0  0  0
   37.9240   26.1090   31.7790 N   0  0  0  0  0  0  0  0  0  0  0  0
   38.0640   26.7320   29.8040 H   0  0  0  0  0  0  0  0  0  0  0  0
   36.7570   28.6950   30.2040 H   0  0  0  0  0  0  0  0  0  0  0  0
   37.7690   25.3910   34.0290 N   0  0  0  0  0  0  0  0  0  0  0  0
   37.6940   25.9050   35.2700 C   0  0  0  0  0  3  0  0  0  0  0  0
   37.9650   25.1530   36.3920 C   0  0  0  0  0  0  0  0  0  0  0  0
   37.9130   25.5380   37.4010 H   0  0  0  0  0  0  0  0  0  0  0  0
   38.3250   23.8230   36.2090 C   0  0  0  0  0  0  0  0  0  0  0  0
   38.5890   23.0660   37.1950 O   0  0  0  0  0  0  0  0  0  0  0  0
   38.3890   23.3460   34.9560 N   0  0  0  0  0  0  0  0  0  0  0  0
   38.1220   24.1000   33.8780 C   0  0  0  0  0  0  0  0  0  0  0  0
   38.1630   23.7170   32.6790 O   0  0  0  0  0  0  0  0  0  0  0  0
   38.6560   22.3530   34.7710 H   0  0  0  0  0  0  0  0  0  0  0  0
   33.9420   30.8390   33.6490 C   0  0  1  0  0  0  0  0  0  0  0  0
   33.4660   31.1200   32.6850 H   0  0  0  0  0  0  0  0  0  0  0  0
   32.9580   30.6870   34.7360 C   0  0  0  0  0  0  0  0  0  0  0  0
   32.8160   29.3450   35.1760 C   0  0  0  0  0  0  0  0  0  0  0  0
   31.9570   28.9630   36.1780 C   0  0  0  0  0  0  0  0  0  0  0  0
   31.1550   29.9070   36.8360 C   0  0  0  0  0  0  0  0  0  0  0  0
   31.3560   31.1910   36.3460 C   0  0  0  0  0  0  0  0  0  0  0  0
   32.1840   31.5940   35.3720 N   0  0  0  0  0  0  0  0  0  0  0  0
   33.3260   28.4340   34.8270 H   0  0  0  0  0  0  0  0  0  0  0  0
   31.8040   27.9610   36.5560 H   0  0  0  0  0  0  0  0  0  0  0  0
   30.4480   29.7810   37.6220 H   0  0  0  0  0  0  0  0  0  0  0  0
   30.8040   32.0380   36.7580 H   0  0  0  0  0  0  0  0  0  0  0  0
   35.1350   32.0960   34.2200 S   0  0  0  0  0  0  0  0  0  0  0  0
   35.8930   31.6070   35.7590 C   0  0  0  0  0  0  0  0  0  0  0  0
   35.0440   31.7260   36.8480 F   0  0  0  0  0  0  0  0  0  0  0  0
   36.4420   30.3410   35.6750 F   0  0  0  0  0  0  0  0  0  0  0  0
   36.9750   32.4880   35.9660 F   0  0  0  0  0  0  0  0  0  0  0  0
  1  2  2  0  0  0  0
  2 21  1  0  0  0  0
  3  4  2  0  0  0  0
  3  8  1  0  0  0  0
  4  5  1  0  0  0  0
  5  1  1  0  0  0  0
  5  6  2  0  0  0  0
  7  6  1  0  0  0  0
  7 11  1  0  0  0  0
  8  7  2  0  0  0  0
  9  3  1  0  0  0  0
 10  4  1  0  0  0  0
 11 12  1  0  0  0  0
 12 13  2  0  0  0  0
 13 14  1  0  0  0  0
 15 13  1  0  0  0  0
 15 16  2  0  0  0  0
 17 15  1  0  0  0  0
 18 11  1  0  0  0  0
 18 17  1  0  0  0  0
 19 18  2  0  0  0  0
 20 17  1  0  0  0  0
 21 22  1  6  0  0  0
 21 33  1  0  0  0  0
 21 23  1  0  0  0  0
 23 24  2  0  0  0  0
 23 28  1  0  0  0  0
 24 25  1  0  0  0  0
 25 30  1  0  0  0  0
 25 26  2  0  0  0  0
 26 31  1  0  0  0  0
 27 32  1  0  0  0  0
 27 26  1  0  0  0  0
 28 27  2  0  0  0  0
 29 24  1  0  0  0  0
 33 34  1  0  0  0  0
 34 37  1  0  0  0  0
 34 35  1  0  0  0  0
 36 34  1  0  0  0  0
M  END
>  <minimizedAffinity>
-6.03513861

$$$$

 OpenBabel03272502363D

 37 39  0  0  1  0  0  0  0  0999 V2000
   35.8110   29.1530   33.3600 C   0  0  0  0  0  3  0  0  0  0  0  0
   35.6850   29.6550   34.5470 C   0  0  0  0  0  3  0  0  0  0  0  0
   37.6370   26.4770   31.5250 C   0  0  0  0  0  0  0  0  0  0  0  0
   36.9340   27.6210   31.8360 C   0  0  0  0  0  0  0  0  0  0  0  0
   36.5520   27.9460   33.1100 C   0  0  0  0  0  0  0  0  0  0  0  0
   36.9070   27.0710   34.0720 N   0  0  0  0  0  0  0  0  0  0  0  0
   37.5860   25.9560   33.8050 C   0  0  0  0  0  0  0  0  0  0  0  0
   37.9540   25.6530   32.5380 N   0  0  0  0  0  0  0  0  0  0  0  0
   37.9530   26.1910   30.5330 H   0  0  0  0  0  0  0  0  0  0  0  0
   36.7350   28.2070   30.9490 H   0  0  0  0  0  0  0  0  0  0  0  0
   37.9600   25.0320   34.8210 N   0  0  0  0  0  0  0  0  0  0  0  0
   37.9970   25.5990   36.0410 C   0  0  0  0  0  3  0  0  0  0  0  0
   38.3360   24.8850   37.1700 C   0  0  0  0  0  0  0  0  0  0  0  0
   38.3750   25.3120   38.1630 H   0  0  0  0  0  0  0  0  0  0  0  0
   38.6450   23.5380   37.0170 C   0  0  0  0  0  0  0  0  0  0  0  0
   38.9670   22.8150   38.0110 O   0  0  0  0  0  0  0  0  0  0  0  0
   38.5970   23.0090   35.7840 N   0  0  0  0  0  0  0  0  0  0  0  0
   38.2640   23.7260   34.6980 C   0  0  0  0  0  0  0  0  0  0  0  0
   38.2000   23.2940   33.5180 O   0  0  0  0  0  0  0  0  0  0  0  0
   38.8210   22.0020   35.6210 H   0  0  0  0  0  0  0  0  0  0  0  0
   34.8980   30.9270   34.6870 C   0  0  1  0  0  0  0  0  0  0  0  0
   34.9090   31.4820   33.7240 H   0  0  0  0  0  0  0  0  0  0  0  0
   33.5300   30.6090   35.1340 C   0  0  0  0  0  0  0  0  0  0  0  0
   33.2270   31.1370   36.4170 C   0  0  0  0  0  0  0  0  0  0  0  0
   32.0140   30.9680   37.0390 C   0  0  0  0  0  0  0  0  0  0  0  0
   30.9830   30.2450   36.4190 C   0  0  0  0  0  0  0  0  0  0  0  0
   31.3630   29.7650   35.1720 C   0  0  0  0  0  0  0  0  0  0  0  0
   32.5360   29.9130   34.5400 N   0  0  0  0  0  0  0  0  0  0  0  0
   33.8550   31.7320   37.0980 H   0  0  0  0  0  0  0  0  0  0  0  0
   31.7220   31.3430   38.0110 H   0  0  0  0  0  0  0  0  0  0  0  0
   29.9980   30.0240   36.7560 H   0  0  0  0  0  0  0  0  0  0  0  0
   30.6680   29.1820   34.5630 H   0  0  0  0  0  0  0  0  0  0  0  0
   35.6620   31.8840   36.0400 S   0  0  0  0  0  0  0  0  0  0  0  0
   36.2160   33.4780   35.4620 C   0  0  0  0  0  0  0  0  0  0  0  0
   35.7720   34.5300   36.2500 F   0  0  0  0  0  0  0  0  0  0  0  0
   37.5870   33.5100   35.2950 F   0  0  0  0  0  0  0  0  0  0  0  0
   35.6620   33.6480   34.1760 F   0  0  0  0  0  0  0  0  0  0  0  0
  1  2  2  0  0  0  0
  2 21  1  0  0  0  0
  3  4  2  0  0  0  0
  3  8  1  0  0  0  0
  4  5  1  0  0  0  0
  5  1  1  0  0  0  0
  5  6  2  0  0  0  0
  7  6  1  0  0  0  0
  7 11  1  0  0  0  0
  8  7  2  0  0  0  0
  9  3  1  0  0  0  0
 10  4  1  0  0  0  0
 11 12  1  0  0  0  0
 12 13  2  0  0  0  0
 13 14  1  0  0  0  0
 15 13  1  0  0  0  0
 15 16  2  0  0  0  0
 17 15  1  0  0  0  0
 18 11  1  0  0  0  0
 18 17  1  0  0  0  0
 19 18  2  0  0  0  0
 20 17  1  0  0  0  0
 21 22  1  6  0  0  0
 21 23  1  0  0  0  0
 21 33  1  0  0  0  0
 23 24  1  0  0  0  0
 24 25  2  0  0  0  0
 24 29  1  0  0  0  0
 25 30  1  0  0  0  0
 26 31  1  0  0  0  0
 26 25  1  0  0  0  0
 27 26  2  0  0  0  0
 28 23  2  0  0  0  0
 28 27  1  0  0  0  0
 32 27  1  0  0  0  0
 34 33  1  0  0  0  0
 34 35  1  0  0  0  0
 36 34  1  0  0  0  0
 37 34  1  0  0  0  0
M  END
>  <minimizedAffinity>
-5.99620342

$$$$

 OpenBabel03272502363D

 37 39  0  0  1  0  0  0  0  0999 V2000
   39.3610   26.9180   33.9740 C   0  0  0  0  0  3  0  0  0  0  0  0
   38.8600   26.9590   32.7810 C   0  0  0  0  0  3  0  0  0  0  0  0
   43.0790   26.7520   34.1000 C   0  0  0  0  0  0  0  0  0  0  0  0
   41.7820   27.1680   33.8870 C   0  0  0  0  0  0  0  0  0  0  0  0
   40.6860   26.4240   34.2350 C   0  0  0  0  0  0  0  0  0  0  0  0
   40.9430   25.2330   34.8120 N   0  0  0  0  0  0  0  0  0  0  0  0
   42.1840   24.8010   35.0320 C   0  0  0  0  0  0  0  0  0  0  0  0
   43.2540   25.5520   34.6800 N   0  0  0  0  0  0  0  0  0  0  0  0
   43.9630   27.3120   33.8380 H   0  0  0  0  0  0  0  0  0  0  0  0
   41.7600   28.1420   33.4180 H   0  0  0  0  0  0  0  0  0  0  0  0
   42.4540   23.5430   35.6410 N   0  0  0  0  0  0  0  0  0  0  0  0
   41.4170   23.0940   36.3720 C   0  0  0  0  0  3  0  0  0  0  0  0
   41.4640   21.8950   37.0490 C   0  0  0  0  0  0  0  0  0  0  0  0
   40.6480   21.5080   37.6440 H   0  0  0  0  0  0  0  0  0  0  0  0
   42.6300   21.1440   36.9580 C   0  0  0  0  0  0  0  0  0  0  0  0
   42.7480   20.0280   37.5540 O   0  0  0  0  0  0  0  0  0  0  0  0
   43.6430   21.6250   36.2190 N   0  0  0  0  0  0  0  0  0  0  0  0
   43.5730   22.7980   35.5690 C   0  0  0  0  0  0  0  0  0  0  0  0
   44.4820   23.3060   34.8620 O   0  0  0  0  0  0  0  0  0  0  0  0
   44.5370   21.0960   36.1230 H   0  0  0  0  0  0  0  0  0  0  0  0
   37.4610   27.4850   32.6290 C   0  0  1  0  0  0  0  0  0  0  0  0
   37.4750   28.4130   32.0180 H   0  0  0  0  0  0  0  0  0  0  0  0
   36.6060   26.4390   32.0400 C   0  0  0  0  0  0  0  0  0  0  0  0
   37.0530   25.1240   32.3350 C   0  0  0  0  0  0  0  0  0  0  0  0
   36.4140   23.9900   31.8930 C   0  0  0  0  0  0  0  0  0  0  0  0
   35.2570   24.0780   31.1050 C   0  0  0  0  0  0  0  0  0  0  0  0
   34.8910   25.3960   30.8640 C   0  0  0  0  0  0  0  0  0  0  0  0
   35.4920   26.5200   31.2810 N   0  0  0  0  0  0  0  0  0  0  0  0
   37.9200   24.7920   32.9260 H   0  0  0  0  0  0  0  0  0  0  0  0
   36.7030   22.9650   32.0820 H   0  0  0  0  0  0  0  0  0  0  0  0
   34.6490   23.3110   30.6860 H   0  0  0  0  0  0  0  0  0  0  0  0
   34.0090   25.6300   30.2650 H   0  0  0  0  0  0  0  0  0  0  0  0
   36.8130   27.7790   34.3100 S   0  0  0  0  0  0  0  0  0  0  0  0
   35.8510   29.2800   34.3710 C   0  0  0  0  0  0  0  0  0  0  0  0
   35.9700   30.0520   33.2250 F   0  0  0  0  0  0  0  0  0  0  0  0
   34.5280   29.0240   34.6780 F   0  0  0  0  0  0  0  0  0  0  0  0
   36.3620   30.0360   35.4460 F   0  0  0  0  0  0  0  0  0  0  0  0
  1  5  1  0  0  0  0
  2  1  2  0  0  0  0
  3  8  1  0  0  0  0
  4  3  2  0  0  0  0
  4  5  1  0  0  0  0
  5  6  2  0  0  0  0
  6  7  1  0  0  0  0
  7 11  1  0  0  0  0
  8  7  2  0  0  0  0
  9  3  1  0  0  0  0
 10  4  1  0  0  0  0
 11 12  1  0  0  0  0
 12 13  2  0  0  0  0
 13 14  1  0  0  0  0
 15 13  1  0  0  0  0
 15 16  2  0  0  0  0
 17 15  1  0  0  0  0
 18 11  1  0  0  0  0
 18 17  1  0  0  0  0
 19 18  2  0  0  0  0
 20 17  1  0  0  0  0
 21 22  1  6  0  0  0
 21  2  1  0  0  0  0
 21 33  1  0  0  0  0
 23 24  1  0  0  0  0
 23 21  1  0  0  0  0
 24 29  1  0  0  0  0
 25 30  1  0  0  0  0
 25 24  2  0  0  0  0
 26 25  1  0  0  0  0
 27 26  2  0  0  0  0
 27 28  1  0  0  0  0
 28 23  2  0  0  0  0
 31 26  1  0  0  0  0
 32 27  1  0  0  0  0
 33 34  1  0  0  0  0
 34 36  1  0  0  0  0
 34 37  1  0  0  0  0
 35 34  1  0  0  0  0
M  END
>  <minimizedAffinity>
-5.93380165

$$$$

 OpenBabel03272502363D

 37 39  0  0  1  0  0  0  0  0999 V2000
   35.8160   28.9800   33.1340 C   0  0  0  0  0  3  0  0  0  0  0  0
   35.2400   29.2750   34.2550 C   0  0  0  0  0  3  0  0  0  0  0  0
   37.8090   26.3020   31.4850 C   0  0  0  0  0  0  0  0  0  0  0  0
   37.0600   27.4340   31.7220 C   0  0  0  0  0  0  0  0  0  0  0  0
   36.6010   27.7870   32.9630 C   0  0  0  0  0  0  0  0  0  0  0  0
   36.9270   26.9530   33.9700 N   0  0  0  0  0  0  0  0  0  0  0  0
   37.6500   25.8500   33.7750 C   0  0  0  0  0  0  0  0  0  0  0  0
   38.0930   25.5190   32.5400 N   0  0  0  0  0  0  0  0  0  0  0  0
   38.1850   25.9950   30.5210 H   0  0  0  0  0  0  0  0  0  0  0  0
   36.8930   27.9870   30.8070 H   0  0  0  0  0  0  0  0  0  0  0  0
   37.9930   24.9690   34.8390 N   0  0  0  0  0  0  0  0  0  0  0  0
   37.9500   25.5740   36.0400 C   0  0  0  0  0  3  0  0  0  0  0  0
   38.2470   24.9060   37.2080 C   0  0  0  0  0  0  0  0  0  0  0  0
   38.2210   25.3640   38.1870 H   0  0  0  0  0  0  0  0  0  0  0  0
   38.6000   23.5640   37.1150 C   0  0  0  0  0  0  0  0  0  0  0  0
   38.8870   22.8810   38.1470 O   0  0  0  0  0  0  0  0  0  0  0  0
   38.6320   22.9960   35.8990 N   0  0  0  0  0  0  0  0  0  0  0  0
   38.3390   23.6700   34.7750 C   0  0  0  0  0  0  0  0  0  0  0  0
   38.3500   23.1990   33.6070 O   0  0  0  0  0  0  0  0  0  0  0  0
   38.8920   21.9920   35.7810 H   0  0  0  0  0  0  0  0  0  0  0  0
   34.4540   30.5530   34.3220 C   0  0  1  0  0  0  0  0  0  0  0  0
   33.9200   30.6130   35.2950 H   0  0  0  0  0  0  0  0  0  0  0  0
   35.3590   31.6960   34.1080 C   0  0  0  0  0  0  0  0  0  0  0  0
   35.9840   32.1420   35.3030 C   0  0  0  0  0  0  0  0  0  0  0  0
   36.8680   33.1940   35.3480 C   0  0  0  0  0  0  0  0  0  0  0  0
   37.2060   33.8990   34.1840 C   0  0  0  0  0  0  0  0  0  0  0  0
   36.5520   33.4000   33.0650 C   0  0  0  0  0  0  0  0  0  0  0  0
   35.6870   32.3780   32.9890 N   0  0  0  0  0  0  0  0  0  0  0  0
   35.8880   31.7600   36.3300 H   0  0  0  0  0  0  0  0  0  0  0  0
   37.3750   33.5800   36.2220 H   0  0  0  0  0  0  0  0  0  0  0  0
   37.8640   34.7250   34.0460 H   0  0  0  0  0  0  0  0  0  0  0  0
   36.7120   33.8430   32.0800 H   0  0  0  0  0  0  0  0  0  0  0  0
   33.3030   30.5490   32.9050 S   0  0  0  0  0  0  0  0  0  0  0  0
   31.9630   29.4020   33.1720 C   0  0  0  0  0  0  0  0  0  0  0  0
   30.7330   29.8940   32.7640 F   0  0  0  0  0  0  0  0  0  0  0  0
   32.2310   28.1680   32.6110 F   0  0  0  0  0  0  0  0  0  0  0  0
   31.8950   29.1900   34.5650 F   0  0  0  0  0  0  0  0  0  0  0  0
  1  2  2  0  0  0  0
  2 21  1  0  0  0  0
  3  4  2  0  0  0  0
  3  8  1  0  0  0  0
  4  5  1  0  0  0  0
  5  1  1  0  0  0  0
  5  6  2  0  0  0  0
  7  6  1  0  0  0  0
  7 11  1  0  0  0  0
  8  7  2  0  0  0  0
  9  3  1  0  0  0  0
 10  4  1  0  0  0  0
 11 12  1  0  0  0  0
 12 13  2  0  0  0  0
 13 14  1  0  0  0  0
 15 13  1  0  0  0  0
 15 16  2  0  0  0  0
 17 15  1  0  0  0  0
 18 11  1  0  0  0  0
 18 17  1  0  0  0  0
 19 18  2  0  0  0  0
 20 17  1  0  0  0  0
 21 22  1  1  0  0  0
 23 21  1  0  0  0  0
 23 24  1  0  0  0  0
 24 25  2  0  0  0  0
 24 29  1  0  0  0  0
 25 30  1  0  0  0  0
 26 25  1  0  0  0  0
 27 26  2  0  0  0  0
 28 27  1  0  0  0  0
 28 23  2  0  0  0  0
 31 26  1  0  0  0  0
 32 27  1  0  0  0  0
 33 34  1  0  0  0  0
 33 21  1  0  0  0  0
 34 37  1  0  0  0  0
 35 34  1  0  0  0  0
 36 34  1  0  0  0  0
M  END
>  <minimizedAffinity>
-5.86797333

$$$$

 OpenBabel03272502363D

 37 39  0  0  1  0  0  0  0  0999 V2000
   36.2770   26.8460   31.5430 C   0  0  0  0  0  3  0  0  0  0  0  0
   36.2910   27.9560   32.2090 C   0  0  0  0  0  3  0  0  0  0  0  0
   38.4520   23.8370   31.2690 C   0  0  0  0  0  0  0  0  0  0  0  0
   37.6860   24.9440   30.9730 C   0  0  0  0  0  0  0  0  0  0  0  0
   37.0700   25.7090   31.9270 C   0  0  0  0  0  0  0  0  0  0  0  0
   37.2530   25.3190   33.2040 N   0  0  0  0  0  0  0  0  0  0  0  0
   37.9870   24.2540   33.5240 C   0  0  0  0  0  0  0  0  0  0  0  0
   38.5880   23.5100   32.5660 N   0  0  0  0  0  0  0  0  0  0  0  0
   38.9510   23.2120   30.5440 H   0  0  0  0  0  0  0  0  0  0  0  0
   37.6460   25.1130   29.9060 H   0  0  0  0  0  0  0  0  0  0  0  0
   38.1800   23.8420   34.8730 N   0  0  0  0  0  0  0  0  0  0  0  0
   37.9820   24.8440   35.7490 C   0  0  0  0  0  3  0  0  0  0  0  0
   38.1170   24.6660   37.1080 C   0  0  0  0  0  0  0  0  0  0  0  0
   37.9650   25.4510   37.8360 H   0  0  0  0  0  0  0  0  0  0  0  0
   38.4690   23.4010   37.5650 C   0  0  0  0  0  0  0  0  0  0  0  0
   38.6130   23.1590   38.8040 O   0  0  0  0  0  0  0  0  0  0  0  0
   38.6590   22.4270   36.6600 N   0  0  0  0  0  0  0  0  0  0  0  0
   38.5220   22.6260   35.3390 C   0  0  0  0  0  0  0  0  0  0  0  0
   38.6840   21.7590   34.4410 O   0  0  0  0  0  0  0  0  0  0  0  0
   38.9250   21.4610   36.9570 H   0  0  0  0  0  0  0  0  0  0  0  0
   35.4310   29.0810   31.7100 C   0  0  1  0  0  0  0  0  0  0  0  0
   34.7600   28.7100   30.9050 H   0  0  0  0  0  0  0  0  0  0  0  0
   34.6830   29.6640   32.8380 C   0  0  0  0  0  0  0  0  0  0  0  0
   35.5230   30.2800   33.8040 C   0  0  0  0  0  0  0  0  0  0  0  0
   35.0490   30.8890   34.9400 C   0  0  0  0  0  0  0  0  0  0  0  0
   33.6740   30.9350   35.2120 C   0  0  0  0  0  0  0  0  0  0  0  0
   32.9280   30.3110   34.2210 C   0  0  0  0  0  0  0  0  0  0  0  0
   33.3590   29.7100   33.1020 N   0  0  0  0  0  0  0  0  0  0  0  0
   36.6190   30.3780   33.8200 H   0  0  0  0  0  0  0  0  0  0  0  0
   35.6350   31.3730   35.7110 H   0  0  0  0  0  0  0  0  0  0  0  0
   33.1480   31.3610   36.0340 H   0  0  0  0  0  0  0  0  0  0  0  0
   31.8390   30.2640   34.2880 H   0  0  0  0  0  0  0  0  0  0  0  0
   36.5540   30.3930   31.1170 S   0  0  0  0  0  0  0  0  0  0  0  0
   37.2110   29.9940   29.5070 C   0  0  0  0  0  0  0  0  0  0  0  0
   36.8330   28.7360   29.0600 F   0  0  0  0  0  0  0  0  0  0  0  0
   36.9160   30.9750   28.5800 F   0  0  0  0  0  0  0  0  0  0  0  0
   38.6150   29.9930   29.6410 F   0  0  0  0  0  0  0  0  0  0  0  0
  1  5  1  0  0  0  0
  1  2  2  0  0  0  0
  3  8  1  0  0  0  0
  4  3  2  0  0  0  0
  4  5  1  0  0  0  0
  5  6  2  0  0  0  0
  6  7  1  0  0  0  0
  7 11  1  0  0  0  0
  8  7  2  0  0  0  0
  9  3  1  0  0  0  0
 10  4  1  0  0  0  0
 11 18  1  0  0  0  0
 11 12  1  0  0  0  0
 12 13  2  0  0  0  0
 13 15  1  0  0  0  0
 13 14  1  0  0  0  0
 15 16  2  0  0  0  0
 17 20  1  0  0  0  0
 17 15  1  0  0  0  0
 18 17  1  0  0  0  0
 19 18  2  0  0  0  0
 21 22  1  6  0  0  0
 21  2  1  0  0  0  0
 21 23  1  0  0  0  0
 23 28  2  0  0  0  0
 23 24  1  0  0  0  0
 24 29  1  0  0  0  0
 24 25  2  0  0  0  0
 25 26  1  0  0  0  0
 25 30  1  0  0  0  0
 26 31  1  0  0  0  0
 27 32  1  0  0  0  0
 27 26  2  0  0  0  0
 28 27  1  0  0  0  0
 33 21  1  0  0  0  0
 34 37  1  0  0  0  0
 34 33  1  0  0  0  0
 35 34  1  0  0  0  0
 36 34  1  0  0  0  0
M  END
>  <minimizedAffinity>
-5.83623171

$$$$

 OpenBabel03272502363D

 37 39  0  0  1  0  0  0  0  0999 V2000
   36.0930   29.4450   32.4100 C   0  0  0  0  0  3  0  0  0  0  0  0
   36.6890   28.3360   32.7080 C   0  0  0  0  0  3  0  0  0  0  0  0
   35.0080   32.3080   34.5300 C   0  0  0  0  0  0  0  0  0  0  0  0
   35.6660   31.5220   33.6090 C   0  0  0  0  0  0  0  0  0  0  0  0
   35.3560   30.2080   33.3830 C   0  0  0  0  0  0  0  0  0  0  0  0
   34.3480   29.7050   34.1230 N   0  0  0  0  0  0  0  0  0  0  0  0
   33.6920   30.4370   35.0220 C   0  0  0  0  0  0  0  0  0  0  0  0
   34.0140   31.7350   35.2310 N   0  0  0  0  0  0  0  0  0  0  0  0
   35.2270   33.3450   34.7330 H   0  0  0  0  0  0  0  0  0  0  0  0
   36.4420   32.0830   33.1050 H   0  0  0  0  0  0  0  0  0  0  0  0
   32.6280   29.9050   35.8050 N   0  0  0  0  0  0  0  0  0  0  0  0
   32.0630   28.8250   35.2360 C   0  0  0  0  0  3  0  0  0  0  0  0
   31.0140   28.1520   35.8230 C   0  0  0  0  0  0  0  0  0  0  0  0
   30.5400   27.2810   35.3910 H   0  0  0  0  0  0  0  0  0  0  0  0
   30.5430   28.6240   37.0420 C   0  0  0  0  0  0  0  0  0  0  0  0
   29.5780   28.0570   37.6450 O   0  0  0  0  0  0  0  0  0  0  0  0
   31.1320   29.7050   37.5790 N   0  0  0  0  0  0  0  0  0  0  0  0
   32.1530   30.3440   36.9860 C   0  0  0  0  0  0  0  0  0  0  0  0
   32.7480   31.3590   37.4320 O   0  0  0  0  0  0  0  0  0  0  0  0
   30.8110   30.0950   38.4920 H   0  0  0  0  0  0  0  0  0  0  0  0
   37.4190   27.6190   31.6090 C   0  0  1  0  0  0  0  0  0  0  0  0
   38.5160   27.6960   31.7760 H   0  0  0  0  0  0  0  0  0  0  0  0
   36.9590   26.2210   31.5460 C   0  0  0  0  0  0  0  0  0  0  0  0
   35.6310   26.0930   31.0570 C   0  0  0  0  0  0  0  0  0  0  0  0
   34.9910   24.8870   30.9110 C   0  0  0  0  0  0  0  0  0  0  0  0
   35.6330   23.6860   31.2470 C   0  0  0  0  0  0  0  0  0  0  0  0
   36.9230   23.9010   31.7160 C   0  0  0  0  0  0  0  0  0  0  0  0
   37.5750   25.0630   31.8690 N   0  0  0  0  0  0  0  0  0  0  0  0
   34.9260   26.8720   30.7280 H   0  0  0  0  0  0  0  0  0  0  0  0
   33.9850   24.7240   30.5460 H   0  0  0  0  0  0  0  0  0  0  0  0
   35.2860   22.6810   31.1960 H   0  0  0  0  0  0  0  0  0  0  0  0
   37.5540   23.0620   32.0180 H   0  0  0  0  0  0  0  0  0  0  0  0
   36.9100   28.3900   30.0340 S   0  0  0  0  0  0  0  0  0  0  0  0
   38.2780   29.2380   29.2650 C   0  0  0  0  0  0  0  0  0  0  0  0
   38.2480   30.6110   29.4590 F   0  0  0  0  0  0  0  0  0  0  0  0
   39.4910   28.6950   29.6450 F   0  0  0  0  0  0  0  0  0  0  0  0
   38.1620   29.0030   27.8790 F   0  0  0  0  0  0  0  0  0  0  0  0
  1  2  2  0  0  0  0
  1  5  1  0  0  0  0
  3  9  1  0  0  0  0
  3  8  1  0  0  0  0
  4  3  2  0  0  0  0
  5  4  1  0  0  0  0
  5  6  2  0  0  0  0
  6  7  1  0  0  0  0
  7  8  2  0  0  0  0
  7 11  1  0  0  0  0
 10  4  1  0  0  0  0
 11 18  1  0  0  0  0
 12 11  1  0  0  0  0
 12 13  2  0  0  0  0
 13 15  1  0  0  0  0
 14 13  1  0  0  0  0
 15 17  1  0  0  0  0
 15 16  2  0  0  0  0
 17 20  1  0  0  0  0
 18 19  2  0  0  0  0
 18 17  1  0  0  0  0
 21 22  1  1  0  0  0
 21  2  1  0  0  0  0
 23 21  1  0  0  0  0
 23 28  1  0  0  0  0
 24 23  2  0  0  0  0
 25 24  1  0  0  0  0
 25 26  2  0  0  0  0
 26 27  1  0  0  0  0
 27 28  2  0  0  0  0
 27 32  1  0  0  0  0
 29 24  1  0  0  0  0
 30 25  1  0  0  0  0
 31 26  1  0  0  0  0
 33 21  1  0  0  0  0
 34 35  1  0  0  0  0
 34 36  1  0  0  0  0
 34 33  1  0  0  0  0
 37 34  1  0  0  0  0
M  END
>  <minimizedAffinity>
-5.77871895

$$$$

 OpenBabel03272502363D

 37 39  0  0  1  0  0  0  0  0999 V2000
   36.3610   28.3960   33.0010 C   0  0  0  0  0  3  0  0  0  0  0  0
   35.9100   29.0670   34.0130 C   0  0  0  0  0  3  0  0  0  0  0  0
   39.2990   26.2550   32.1980 C   0  0  0  0  0  0  0  0  0  0  0  0
   38.3000   27.2020   32.1380 C   0  0  0  0  0  0  0  0  0  0  0  0
   37.3830   27.3930   33.1370 C   0  0  0  0  0  0  0  0  0  0  0  0
   37.5070   26.5900   34.2120 N   0  0  0  0  0  0  0  0  0  0  0  0
   38.4620   25.6640   34.3020 C   0  0  0  0  0  0  0  0  0  0  0  0
   39.3580   25.4910   33.3030 N   0  0  0  0  0  0  0  0  0  0  0  0
   40.0360   26.0780   31.4310 H   0  0  0  0  0  0  0  0  0  0  0  0
   38.3470   27.7560   31.2110 H   0  0  0  0  0  0  0  0  0  0  0  0
   38.5920   24.8160   35.4370 N   0  0  0  0  0  0  0  0  0  0  0  0
   38.0180   25.3380   36.5370 C   0  0  0  0  0  3  0  0  0  0  0  0
   38.0280   24.6830   37.7490 C   0  0  0  0  0  0  0  0  0  0  0  0
   37.5750   25.0760   38.6490 H   0  0  0  0  0  0  0  0  0  0  0  0
   38.6560   23.4440   37.8120 C   0  0  0  0  0  0  0  0  0  0  0  0
   38.7060   22.7800   38.8940 O   0  0  0  0  0  0  0  0  0  0  0  0
   39.2180   22.9570   36.6940 N   0  0  0  0  0  0  0  0  0  0  0  0
   39.1960   23.6150   35.5240 C   0  0  0  0  0  0  0  0  0  0  0  0
   39.7010   23.2160   34.4420 O   0  0  0  0  0  0  0  0  0  0  0  0
   39.7010   22.0310   36.6940 H   0  0  0  0  0  0  0  0  0  0  0  0
   34.8500   30.0980   33.7500 C   0  0  1  0  0  0  0  0  0  0  0  0
   33.9700   29.6150   33.2730 H   0  0  0  0  0  0  0  0  0  0  0  0
   34.5020   30.7740   35.0120 C   0  0  0  0  0  0  0  0  0  0  0  0
   33.1500   30.5760   35.3970 C   0  0  0  0  0  0  0  0  0  0  0  0
   32.6000   31.1100   36.5370 C   0  0  0  0  0  0  0  0  0  0  0  0
   33.3690   31.9020   37.4030 C   0  0  0  0  0  0  0  0  0  0  0  0
   34.6750   32.0450   36.9540 C   0  0  0  0  0  0  0  0  0  0  0  0
   35.2400   31.5370   35.8490 N   0  0  0  0  0  0  0  0  0  0  0  0
   32.3550   30.0020   34.8960 H   0  0  0  0  0  0  0  0  0  0  0  0
   31.5810   30.9970   36.8830 H   0  0  0  0  0  0  0  0  0  0  0  0
   33.1020   32.3850   38.3140 H   0  0  0  0  0  0  0  0  0  0  0  0
   35.3990   32.6350   37.5210 H   0  0  0  0  0  0  0  0  0  0  0  0
   35.5960   31.3760   32.6820 S   0  0  0  0  0  0  0  0  0  0  0  0
   34.9060   31.3180   31.0380 C   0  0  0  0  0  0  0  0  0  0  0  0
   33.5720   30.9380   31.0180 F   0  0  0  0  0  0  0  0  0  0  0  0
   35.1090   32.5040   30.3590 F   0  0  0  0  0  0  0  0  0  0  0  0
   35.6370   30.3360   30.3350 F   0  0  0  0  0  0  0  0  0  0  0  0
  1  5  1  0  0  0  0
  1  2  2  0  0  0  0
  3  8  1  0  0  0  0
  4  3  2  0  0  0  0
  4  5  1  0  0  0  0
  5  6  2  0  0  0  0
  6  7  1  0  0  0  0
  7 11  1  0  0  0  0
  8  7  2  0  0  0  0
  9  3  1  0  0  0  0
 10  4  1  0  0  0  0
 11 18  1  0  0  0  0
 11 12  1  0  0  0  0
 12 13  2  0  0  0  0
 13 15  1  0  0  0  0
 13 14  1  0  0  0  0
 15 16  2  0  0  0  0
 17 20  1  0  0  0  0
 17 15  1  0  0  0  0
 18 17  1  0  0  0  0
 19 18  2  0  0  0  0
 21 22  1  6  0  0  0
 21  2  1  0  0  0  0
 21 23  1  0  0  0  0
 23 24  2  0  0  0  0
 23 28  1  0  0  0  0
 24 25  1  0  0  0  0
 25 30  1  0  0  0  0
 25 26  2  0  0  0  0
 26 31  1  0  0  0  0
 27 26  1  0  0  0  0
 27 32  1  0  0  0  0
 28 27  2  0  0  0  0
 29 24  1  0  0  0  0
 33 21  1  0  0  0  0
 34 33  1  0  0  0  0
 35 34  1  0  0  0  0
 36 34  1  0  0  0  0
 37 34  1  0  0  0  0
M  END
>  <minimizedAffinity>
-5.7465682

$$$$
