
 OpenBabel03272509433D

 39 41  0  0  1  0  0  0  0  0999 V2000
   37.0840   30.9480   49.0270 C   0  0  0  0  0  0  0  0  0  0  0  0
   36.8030   31.8690   50.0390 C   0  0  0  0  0  0  0  0  0  0  0  0
   37.4070   33.1120   50.0920 C   0  0  0  0  0  0  0  0  0  0  0  0
   38.3350   33.4640   49.1000 C   0  0  0  0  0  0  0  0  0  0  0  0
   38.6010   32.5520   48.1150 C   0  0  0  0  0  0  0  0  0  0  0  0
   37.9720   31.3150   48.0970 C   0  0  0  0  0  0  0  0  0  0  0  0
   36.0820   31.5830   50.7990 H   0  0  0  0  0  0  0  0  0  0  0  0
   37.1250   33.7430   50.9080 H   0  0  0  0  0  0  0  0  0  0  0  0
   38.7490   34.4380   49.2210 H   0  0  0  0  0  0  0  0  0  0  0  0
   39.3340   32.9670   47.4280 H   0  0  0  0  0  0  0  0  0  0  0  0
   36.4720   29.6380   48.9990 C   0  0  2  0  0  0  0  0  0  0  0  0
   37.0210   29.0660   48.1550 H   0  0  0  0  0  0  0  0  0  0  0  0
   33.6360   30.1620   46.7880 C   0  0  0  0  0  0  0  0  0  0  0  0
   32.9800   28.9460   46.7910 C   0  0  0  0  0  0  0  0  0  0  0  0
   33.4720   27.9390   47.6100 C   0  0  0  0  0  0  0  0  0  0  0  0
   34.5870   28.1860   48.3800 N   0  0  0  0  0  0  0  0  0  0  0  0
   35.1680   29.3670   48.3300 C   0  0  0  0  0  0  0  0  0  0  0  0
   34.7030   30.3560   47.5430 N   0  0  0  0  0  0  0  0  0  0  0  0
   33.2660   30.9510   46.1590 H   0  0  0  0  0  0  0  0  0  0  0  0
   32.1150   28.8440   46.1530 H   0  0  0  0  0  0  0  0  0  0  0  0
   32.9710   26.9950   47.6200 H   0  0  0  0  0  0  0  0  0  0  0  0
   36.8630   28.8890   49.9690 O   0  0  0  0  0  0  0  0  0  0  0  0
   36.4230   29.1190   50.8390 H   0  0  0  0  0  0  0  0  0  0  0  0
   38.3660   30.4410   47.0170 C   0  0  0  0  0  3  0  0  0  0  0  0
   38.8610   30.8760   45.8520 C   0  0  0  0  0  3  0  0  0  0  0  0
   39.3320   30.0740   44.6990 C   0  0  0  0  0  0  0  0  0  0  0  0
   38.6050   29.2270   44.5670 H   0  0  0  0  0  0  0  0  0  0  0  0
   40.3000   29.6110   44.8820 H   0  0  0  0  0  0  0  0  0  0  0  0
   39.2640   31.0680   43.2050 S   0  0  0  0  0  0  0  0  0  0  0  0
   35.0790   33.1600   44.1100 H   0  0  0  0  0  0  0  0  0  0  0  0
   35.6330   32.6090   43.4260 N   0  0  0  0  0  0  0  0  0  0  0  0
   36.9140   32.2250   43.6760 C   0  0  0  0  0  3  0  0  0  0  0  0
   37.6100   31.4890   42.7300 C   0  0  0  0  0  0  0  0  0  0  0  0
   36.9660   31.1700   41.5530 C   0  0  0  0  0  0  0  0  0  0  0  0
   37.6620   30.5030   40.7480 O   0  0  0  0  0  0  0  0  0  0  0  0
   35.7010   31.5460   41.2990 N   0  0  0  0  0  0  0  0  0  0  0  0
   35.0670   32.2610   42.2530 C   0  0  0  0  0  0  0  0  0  0  0  0
   33.8650   32.6340   42.0450 O   0  0  0  0  0  0  0  0  0  0  0  0
   35.2760   31.2720   40.3910 H   0  0  0  0  0  0  0  0  0  0  0  0
  1  2  1  0  0  0  0
  2  3  2  0  0  0  0
  2  7  1  0  0  0  0
  3  8  1  0  0  0  0
  4  9  1  0  0  0  0
  4  3  1  0  0  0  0
  5  4  2  0  0  0  0
  6  5  1  0  0  0  0
  6  1  2  0  0  0  0
 10  5  1  0  0  0  0
 11 12  1  6  0  0  0
 11  1  1  0  0  0  0
 11 22  1  0  0  0  0
 13 14  2  0  0  0  0
 13 18  1  0  0  0  0
 14 15  1  0  0  0  0
 15 21  1  0  0  0  0
 15 16  2  0  0  0  0
 17 16  1  0  0  0  0
 17 11  1  0  0  0  0
 18 17  2  0  0  0  0
 19 13  1  0  0  0  0
 20 14  1  0  0  0  0
 22 23  1  0  0  0  0
 24  6  1  0  0  0  0
 25 24  2  0  0  0  0
 26 28  1  0  0  0  0
 26 25  1  0  0  0  0
 27 26  1  0  0  0  0
 29 26  1  0  0  0  0
 31 32  1  0  0  0  0
 31 30  1  0  0  0  0
 33 29  1  0  0  0  0
 33 32  2  0  0  0  0
 34 33  1  0  0  0  0
 35 34  2  0  0  0  0
 36 34  1  0  0  0  0
 36 37  1  0  0  0  0
 37 31  1  0  0  0  0
 38 37  2  0  0  0  0
 39 36  1  0  0  0  0
M  END
>  <minimizedAffinity>
-5.91947079

>  <minimizedRMSD>
0.0819612816

$$$$
