
 OpenBabel03272508253D

 26 28  0  0  1  0  0  0  0  0999 V2000
   38.7620   24.7930   34.0590 C   0  0  1  0  0  0  0  0  0  0  0  0
   38.4400   23.9330   35.1900 C   0  0  1  0  0  0  0  0  0  0  0  0
   37.9540   23.5220   33.8250 C   0  0  0  0  0  0  0  0  0  0  0  0
   39.7460   24.8440   33.5260 H   0  0  0  0  0  0  0  0  0  0  0  0
   37.5990   24.3210   35.8390 H   0  0  0  0  0  0  0  0  0  0  0  0
   36.8790   23.6140   33.5660 H   0  0  0  0  0  0  0  0  0  0  0  0
   38.4840   22.6610   33.3770 H   0  0  0  0  0  0  0  0  0  0  0  0
   39.4020   23.1550   35.9030 N   0  0  0  0  0  0  0  0  0  0  0  0
   40.4730   22.5700   35.2960 C   0  0  0  0  0  3  0  0  0  0  0  0
   41.4170   21.8180   35.9400 C   0  0  0  0  0  0  0  0  0  0  0  0
   42.2400   21.3910   35.3540 H   0  0  0  0  0  0  0  0  0  0  0  0
   41.2740   21.6400   37.3040 C   0  0  0  0  0  0  0  0  0  0  0  0
   42.1260   20.9530   37.9240 O   0  0  0  0  0  0  0  0  0  0  0  0
   40.2100   22.2160   37.9360 N   0  0  0  0  0  0  0  0  0  0  0  0
   39.3160   22.9470   37.2300 C   0  0  0  0  0  0  0  0  0  0  0  0
   38.3930   23.4220   37.9030 O   0  0  0  0  0  0  0  0  0  0  0  0
   40.1810   22.0330   38.9440 H   0  0  0  0  0  0  0  0  0  0  0  0
   37.9710   26.0480   33.7840 C   0  0  0  0  0  0  0  0  0  0  0  0
   37.4880   26.7530   34.9020 C   0  0  0  0  0  0  0  0  0  0  0  0
   36.7440   27.8900   34.6380 C   0  0  0  0  0  0  0  0  0  0  0  0
   36.5210   28.2650   33.3500 N   0  0  0  0  0  0  0  0  0  0  0  0
   37.0060   27.5570   32.2820 C   0  0  0  0  0  0  0  0  0  0  0  0
   37.7410   26.4350   32.5300 N   0  0  0  0  0  0  0  0  0  0  0  0
   37.6620   26.4580   35.9260 H   0  0  0  0  0  0  0  0  0  0  0  0
   36.3210   28.5120   35.4290 H   0  0  0  0  0  0  0  0  0  0  0  0
   36.7950   27.9050   31.2810 H   0  0  0  0  0  0  0  0  0  0  0  0
  1  4  1  6  0  0  0
  1  2  1  0  0  0  0
  2  5  1  1  0  0  0
  2  8  1  0  0  0  0
  3  1  1  0  0  0  0
  3  2  1  0  0  0  0
  6  3  1  0  0  0  0
  7  3  1  0  0  0  0
  8 15  1  0  0  0  0
  9  8  1  0  0  0  0
  9 10  2  0  0  0  0
 10 12  1  0  0  0  0
 11 10  1  0  0  0  0
 12 13  2  0  0  0  0
 12 14  1  0  0  0  0
 14 17  1  0  0  0  0
 15 16  2  0  0  0  0
 15 14  1  0  0  0  0
 18  1  1  0  0  0  0
 18 19  1  0  0  0  0
 19 24  1  0  0  0  0
 20 19  2  0  0  0  0
 20 25  1  0  0  0  0
 21 20  1  0  0  0  0
 22 23  1  0  0  0  0
 22 21  2  0  0  0  0
 23 18  2  0  0  0  0
 26 22  1  0  0  0  0
M  END
>  <minimizedAffinity>
-4.72855949

$$$$

 OpenBabel03272508253D

 26 28  0  0  1  0  0  0  0  0999 V2000
   38.1230   26.2540   34.3120 C   0  0  1  0  0  0  0  0  0  0  0  0
   37.0680   26.3660   33.3120 C   0  0  1  0  0  0  0  0  0  0  0  0
   36.9300   27.1630   34.5830 C   0  0  0  0  0  0  0  0  0  0  0  0
   39.1200   26.7630   34.2800 H   0  0  0  0  0  0  0  0  0  0  0  0
   36.3610   25.4830   33.2890 H   0  0  0  0  0  0  0  0  0  0  0  0
   36.1920   26.8580   35.3550 H   0  0  0  0  0  0  0  0  0  0  0  0
   37.0880   28.2520   34.4740 H   0  0  0  0  0  0  0  0  0  0  0  0
   37.2290   27.0050   32.0460 N   0  0  0  0  0  0  0  0  0  0  0  0
   38.3640   27.6740   31.6980 C   0  0  0  0  0  3  0  0  0  0  0  0
   38.5610   28.3000   30.4980 C   0  0  0  0  0  0  0  0  0  0  0  0
   39.5150   28.8120   30.3210 H   0  0  0  0  0  0  0  0  0  0  0  0
   37.5350   28.2480   29.5720 C   0  0  0  0  0  0  0  0  0  0  0  0
   37.6860   28.8140   28.4590 O   0  0  0  0  0  0  0  0  0  0  0  0
   36.3870   27.5840   29.8960 N   0  0  0  0  0  0  0  0  0  0  0  0
   36.2670   26.9880   31.1060 C   0  0  0  0  0  0  0  0  0  0  0  0
   35.1860   26.4160   31.2930 O   0  0  0  0  0  0  0  0  0  0  0  0
   35.6810   27.5950   29.1540 H   0  0  0  0  0  0  0  0  0  0  0  0
   38.1860   25.0740   35.2510 C   0  0  0  0  0  0  0  0  0  0  0  0
   38.2660   23.7990   34.6640 C   0  0  0  0  0  0  0  0  0  0  0  0
   38.2990   22.7220   35.5330 C   0  0  0  0  0  0  0  0  0  0  0  0
   38.2560   22.9390   36.8750 N   0  0  0  0  0  0  0  0  0  0  0  0
   38.1800   24.1950   37.4160 C   0  0  0  0  0  0  0  0  0  0  0  0
   38.1450   25.2640   36.5690 N   0  0  0  0  0  0  0  0  0  0  0  0
   38.2990   23.6220   33.5980 H   0  0  0  0  0  0  0  0  0  0  0  0
   38.3610   21.6890   35.1870 H   0  0  0  0  0  0  0  0  0  0  0  0
   38.1480   24.3030   38.4910 H   0  0  0  0  0  0  0  0  0  0  0  0
  1  4  1  6  0  0  0
  1  3  1  0  0  0  0
  1 18  1  0  0  0  0
  2  5  1  6  0  0  0
  2  1  1  0  0  0  0
  2  3  1  0  0  0  0
  3  6  1  0  0  0  0
  7  3  1  0  0  0  0
  8  2  1  0  0  0  0
  9  8  1  0  0  0  0
 10  9  2  0  0  0  0
 11 10  1  0  0  0  0
 12 14  1  0  0  0  0
 12 10  1  0  0  0  0
 13 12  2  0  0  0  0
 14 15  1  0  0  0  0
 15 16  2  0  0  0  0
 15  8  1  0  0  0  0
 17 14  1  0  0  0  0
 18 23  1  0  0  0  0
 19 18  2  0  0  0  0
 19 20  1  0  0  0  0
 20 21  2  0  0  0  0
 21 22  1  0  0  0  0
 22 26  1  0  0  0  0
 23 22  2  0  0  0  0
 24 19  1  0  0  0  0
 25 20  1  0  0  0  0
M  END
>  <minimizedAffinity>
-4.71659899

$$$$

 OpenBabel03272508253D

 26 28  0  0  1  0  0  0  0  0999 V2000
   39.1740   25.3660   34.7170 C   0  0  1  0  0  0  0  0  0  0  0  0
   38.5930   26.7010   34.6560 C   0  0  1  0  0  0  0  0  0  0  0  0
   40.0800   26.5820   34.8710 C   0  0  0  0  0  0  0  0  0  0  0  0
   39.4010   24.7040   33.8420 H   0  0  0  0  0  0  0  0  0  0  0  0
   38.0530   27.0110   35.6010 H   0  0  0  0  0  0  0  0  0  0  0  0
   40.5170   26.7970   35.8690 H   0  0  0  0  0  0  0  0  0  0  0  0
   40.7040   26.8620   34.0030 H   0  0  0  0  0  0  0  0  0  0  0  0
   38.0570   27.2880   33.4710 N   0  0  0  0  0  0  0  0  0  0  0  0
   38.6840   27.2120   32.2630 C   0  0  0  0  0  3  0  0  0  0  0  0
   38.2070   27.7590   31.1030 C   0  0  0  0  0  0  0  0  0  0  0  0
   38.7930   27.6390   30.1840 H   0  0  0  0  0  0  0  0  0  0  0  0
   37.0020   28.4360   31.1620 C   0  0  0  0  0  0  0  0  0  0  0  0
   36.5370   28.9490   30.1120 O   0  0  0  0  0  0  0  0  0  0  0  0
   36.3540   28.5260   32.3600 N   0  0  0  0  0  0  0  0  0  0  0  0
   36.8900   27.9580   33.4660 C   0  0  0  0  0  0  0  0  0  0  0  0
   36.2190   28.1010   34.4950 O   0  0  0  0  0  0  0  0  0  0  0  0
   35.4710   29.0440   32.3130 H   0  0  0  0  0  0  0  0  0  0  0  0
   39.0900   24.5340   35.9730 C   0  0  0  0  0  0  0  0  0  0  0  0
   38.0640   24.8560   36.8800 C   0  0  0  0  0  0  0  0  0  0  0  0
   38.0100   24.1030   38.0400 C   0  0  0  0  0  0  0  0  0  0  0  0
   38.9230   23.1160   38.2450 N   0  0  0  0  0  0  0  0  0  0  0  0
   39.9100   22.8260   37.3420 C   0  0  0  0  0  0  0  0  0  0  0  0
   39.9740   23.5620   36.1940 N   0  0  0  0  0  0  0  0  0  0  0  0
   37.3380   25.6400   36.7220 H   0  0  0  0  0  0  0  0  0  0  0  0
   37.2560   24.2660   38.8130 H   0  0  0  0  0  0  0  0  0  0  0  0
   40.6070   22.0300   37.5600 H   0  0  0  0  0  0  0  0  0  0  0  0
  1  4  1  6  0  0  0
  1  3  1  0  0  0  0
  1 18  1  0  0  0  0
  2  1  1  0  0  0  0
  2  3  1  0  0  0  0
  2  5  1  1  0  0  0
  3  6  1  0  0  0  0
  7  3  1  0  0  0  0
  8  2  1  0  0  0  0
  9  8  1  0  0  0  0
 10 12  1  0  0  0  0
 10  9  2  0  0  0  0
 11 10  1  0  0  0  0
 12 14  1  0  0  0  0
 13 12  2  0  0  0  0
 14 15  1  0  0  0  0
 15  8  1  0  0  0  0
 15 16  2  0  0  0  0
 17 14  1  0  0  0  0
 18 23  2  0  0  0  0
 18 19  1  0  0  0  0
 19 20  2  0  0  0  0
 20 21  1  0  0  0  0
 20 25  1  0  0  0  0
 22 26  1  0  0  0  0
 22 21  2  0  0  0  0
 23 22  1  0  0  0  0
 24 19  1  0  0  0  0
M  END
>  <minimizedAffinity>
-4.66703987

$$$$

 OpenBabel03272508253D

 26 28  0  0  1  0  0  0  0  0999 V2000
   37.6590   26.4450   35.1920 C   0  0  1  0  0  0  0  0  0  0  0  0
   38.9800   25.8750   34.9600 C   0  0  1  0  0  0  0  0  0  0  0  0
   38.8950   27.2320   35.6090 C   0  0  0  0  0  0  0  0  0  0  0  0
   36.9580   26.1730   36.0220 H   0  0  0  0  0  0  0  0  0  0  0  0
   39.3270   25.9410   33.8850 H   0  0  0  0  0  0  0  0  0  0  0  0
   39.1670   28.1420   35.0340 H   0  0  0  0  0  0  0  0  0  0  0  0
   39.1430   27.2540   36.6860 H   0  0  0  0  0  0  0  0  0  0  0  0
   39.4990   24.7460   35.6610 N   0  0  0  0  0  0  0  0  0  0  0  0
   38.8250   24.1360   36.6780 C   0  0  0  0  0  3  0  0  0  0  0  0
   39.2840   23.0530   37.3760 C   0  0  0  0  0  0  0  0  0  0  0  0
   38.6600   22.6400   38.1780 H   0  0  0  0  0  0  0  0  0  0  0  0
   40.5200   22.5410   37.0250 C   0  0  0  0  0  0  0  0  0  0  0  0
   40.9680   21.5450   37.6480 O   0  0  0  0  0  0  0  0  0  0  0  0
   41.2150   23.1330   36.0100 N   0  0  0  0  0  0  0  0  0  0  0  0
   40.6940   24.2030   35.3650 C   0  0  0  0  0  0  0  0  0  0  0  0
   41.4080   24.6590   34.4640 O   0  0  0  0  0  0  0  0  0  0  0  0
   42.1180   22.6890   35.8160 H   0  0  0  0  0  0  0  0  0  0  0  0
   36.8890   27.1100   34.0780 C   0  0  0  0  0  0  0  0  0  0  0  0
   36.8930   26.4630   32.8290 C   0  0  0  0  0  0  0  0  0  0  0  0
   36.2040   27.0930   31.8070 C   0  0  0  0  0  0  0  0  0  0  0  0
   35.5720   28.2720   32.0480 N   0  0  0  0  0  0  0  0  0  0  0  0
   35.5860   28.8780   33.2770 C   0  0  0  0  0  0  0  0  0  0  0  0
   36.2630   28.2660   34.2920 N   0  0  0  0  0  0  0  0  0  0  0  0
   37.3940   25.5260   32.6320 H   0  0  0  0  0  0  0  0  0  0  0  0
   36.1410   26.6790   30.7980 H   0  0  0  0  0  0  0  0  0  0  0  0
   35.0650   29.8150   33.4070 H   0  0  0  0  0  0  0  0  0  0  0  0
  1  3  1  0  0  0  0
  1  4  1  1  0  0  0
  2  5  1  6  0  0  0
  2  1  1  0  0  0  0
  2  3  1  0  0  0  0
  2  8  1  0  0  0  0
  3  7  1  0  0  0  0
  6  3  1  0  0  0  0
  8  9  1  0  0  0  0
  9 10  2  0  0  0  0
 10 11  1  0  0  0  0
 12 10  1  0  0  0  0
 12 13  2  0  0  0  0
 14 12  1  0  0  0  0
 15  8  1  0  0  0  0
 15 14  1  0  0  0  0
 16 15  2  0  0  0  0
 17 14  1  0  0  0  0
 18 23  1  0  0  0  0
 18  1  1  0  0  0  0
 19 18  2  0  0  0  0
 20 21  2  0  0  0  0
 20 19  1  0  0  0  0
 21 22  1  0  0  0  0
 22 26  1  0  0  0  0
 22 23  2  0  0  0  0
 24 19  1  0  0  0  0
 25 20  1  0  0  0  0
M  END
>  <minimizedAffinity>
-4.62892437

$$$$

 OpenBabel03272508253D

 26 28  0  0  1  0  0  0  0  0999 V2000
   38.8550   26.2620   35.1790 C   0  0  1  0  0  0  0  0  0  0  0  0
   39.6500   25.1450   34.6850 C   0  0  1  0  0  0  0  0  0  0  0  0
   40.2780   26.5140   34.6980 C   0  0  0  0  0  0  0  0  0  0  0  0
   38.6590   26.5090   36.2540 H   0  0  0  0  0  0  0  0  0  0  0  0
   39.3780   24.8140   33.6380 H   0  0  0  0  0  0  0  0  0  0  0  0
   40.4290   27.0660   33.7460 H   0  0  0  0  0  0  0  0  0  0  0  0
   41.0550   26.6680   35.4700 H   0  0  0  0  0  0  0  0  0  0  0  0
   40.1470   24.0900   35.5080 N   0  0  0  0  0  0  0  0  0  0  0  0
   41.4780   23.8760   35.7070 C   0  0  0  0  0  3  0  0  0  0  0  0
   41.9980   22.8790   36.4860 C   0  0  0  0  0  0  0  0  0  0  0  0
   43.0880   22.7950   36.5780 H   0  0  0  0  0  0  0  0  0  0  0  0
   41.1070   22.0280   37.1170 C   0  0  0  0  0  0  0  0  0  0  0  0
   41.5550   21.1020   37.8410 O   0  0  0  0  0  0  0  0  0  0  0  0
   39.7690   22.2220   36.9340 N   0  0  0  0  0  0  0  0  0  0  0  0
   39.3300   23.2320   36.1470 C   0  0  0  0  0  0  0  0  0  0  0  0
   38.1000   23.3140   36.0520 O   0  0  0  0  0  0  0  0  0  0  0  0
   39.1830   21.5480   37.4370 H   0  0  0  0  0  0  0  0  0  0  0  0
   37.8160   26.9250   34.3090 C   0  0  0  0  0  0  0  0  0  0  0  0
   37.0650   27.9610   34.8940 C   0  0  0  0  0  0  0  0  0  0  0  0
   36.0980   28.5470   34.0960 C   0  0  0  0  0  0  0  0  0  0  0  0
   35.9230   28.1090   32.8200 N   0  0  0  0  0  0  0  0  0  0  0  0
   36.6710   27.0980   32.2790 C   0  0  0  0  0  0  0  0  0  0  0  0
   37.6270   26.5120   33.0570 N   0  0  0  0  0  0  0  0  0  0  0  0
   37.2000   28.3110   35.9070 H   0  0  0  0  0  0  0  0  0  0  0  0
   35.4590   29.3590   34.4470 H   0  0  0  0  0  0  0  0  0  0  0  0
   36.4850   26.7940   31.2590 H   0  0  0  0  0  0  0  0  0  0  0  0
  1  4  1  1  0  0  0
  2  5  1  6  0  0  0
  2  3  1  0  0  0  0
  2  1  1  0  0  0  0
  2  8  1  0  0  0  0
  3  1  1  0  0  0  0
  3  7  1  0  0  0  0
  6  3  1  0  0  0  0
  8  9  1  0  0  0  0
  8 15  1  0  0  0  0
  9 10  2  0  0  0  0
 10 11  1  0  0  0  0
 10 12  1  0  0  0  0
 12 13  2  0  0  0  0
 14 12  1  0  0  0  0
 14 17  1  0  0  0  0
 15 14  1  0  0  0  0
 16 15  2  0  0  0  0
 18 19  1  0  0  0  0
 18  1  1  0  0  0  0
 19 24  1  0  0  0  0
 20 25  1  0  0  0  0
 20 19  2  0  0  0  0
 21 20  1  0  0  0  0
 22 21  2  0  0  0  0
 22 23  1  0  0  0  0
 23 18  2  0  0  0  0
 26 22  1  0  0  0  0
M  END
>  <minimizedAffinity>
-4.58677673

$$$$

 OpenBabel03272508253D

 26 28  0  0  1  0  0  0  0  0999 V2000
   38.8550   22.1740   34.4400 C   0  0  1  0  0  0  0  0  0  0  0  0
   37.6590   22.3080   33.6180 C   0  0  1  0  0  0  0  0  0  0  0  0
   38.7320   23.3590   33.4890 C   0  0  0  0  0  0  0  0  0  0  0  0
   39.7180   21.4870   34.2440 H   0  0  0  0  0  0  0  0  0  0  0  0
   36.7560   22.6930   34.1790 H   0  0  0  0  0  0  0  0  0  0  0  0
   38.5740   24.3710   33.9160 H   0  0  0  0  0  0  0  0  0  0  0  0
   39.3170   23.3190   32.5520 H   0  0  0  0  0  0  0  0  0  0  0  0
   37.3320   21.4410   32.5330 N   0  0  0  0  0  0  0  0  0  0  0  0
   38.0950   20.3620   32.1960 C   0  0  0  0  0  3  0  0  0  0  0  0
   37.8190   19.5060   31.1660 C   0  0  0  0  0  0  0  0  0  0  0  0
   38.5010   18.6670   30.9810 H   0  0  0  0  0  0  0  0  0  0  0  0
   36.6860   19.7530   30.4120 C   0  0  0  0  0  0  0  0  0  0  0  0
   36.4060   18.9830   29.4580 O   0  0  0  0  0  0  0  0  0  0  0  0
   35.9050   20.8270   30.7290 N   0  0  0  0  0  0  0  0  0  0  0  0
   36.2440   21.6300   31.7650 C   0  0  0  0  0  0  0  0  0  0  0  0
   35.4660   22.5720   31.9610 O   0  0  0  0  0  0  0  0  0  0  0  0
   35.0870   20.9350   30.1210 H   0  0  0  0  0  0  0  0  0  0  0  0
   38.8540   22.5860   35.8910 C   0  0  0  0  0  0  0  0  0  0  0  0
   40.0630   22.4350   36.5950 C   0  0  0  0  0  0  0  0  0  0  0  0
   40.0460   22.7930   37.9320 C   0  0  0  0  0  0  0  0  0  0  0  0
   38.8970   23.2610   38.4890 N   0  0  0  0  0  0  0  0  0  0  0  0
   37.7350   23.3970   37.7760 C   0  0  0  0  0  0  0  0  0  0  0  0
   37.7400   23.0470   36.4570 N   0  0  0  0  0  0  0  0  0  0  0  0
   40.9780   22.0630   36.1570 H   0  0  0  0  0  0  0  0  0  0  0  0
   40.9270   22.7170   38.5720 H   0  0  0  0  0  0  0  0  0  0  0  0
   36.8530   23.7740   38.2740 H   0  0  0  0  0  0  0  0  0  0  0  0
  1  4  1  6  0  0  0
  1 18  1  0  0  0  0
  2  5  1  1  0  0  0
  2  1  1  0  0  0  0
  3  2  1  0  0  0  0
  3  6  1  0  0  0  0
  3  1  1  0  0  0  0
  7  3  1  0  0  0  0
  8  2  1  0  0  0  0
  9  8  1  0  0  0  0
 10  9  2  0  0  0  0
 11 10  1  0  0  0  0
 12 14  1  0  0  0  0
 12 10  1  0  0  0  0
 13 12  2  0  0  0  0
 14 15  1  0  0  0  0
 15 16  2  0  0  0  0
 15  8  1  0  0  0  0
 17 14  1  0  0  0  0
 18 23  2  0  0  0  0
 18 19  1  0  0  0  0
 19 20  2  0  0  0  0
 20 21  1  0  0  0  0
 20 25  1  0  0  0  0
 22 26  1  0  0  0  0
 22 21  2  0  0  0  0
 23 22  1  0  0  0  0
 24 19  1  0  0  0  0
M  END
>  <minimizedAffinity>
-4.34851313

$$$$

 OpenBabel03272508253D

 26 28  0  0  1  0  0  0  0  0999 V2000
   37.1160   22.6520   31.2630 C   0  0  1  0  0  0  0  0  0  0  0  0
   37.0940   23.8880   32.0360 C   0  0  1  0  0  0  0  0  0  0  0  0
   38.3640   23.0760   32.0280 C   0  0  0  0  0  0  0  0  0  0  0  0
   37.2370   22.5700   30.1520 H   0  0  0  0  0  0  0  0  0  0  0  0
   36.5450   23.8040   33.0220 H   0  0  0  0  0  0  0  0  0  0  0  0
   38.6600   22.4970   32.9280 H   0  0  0  0  0  0  0  0  0  0  0  0
   39.1950   23.5100   31.4420 H   0  0  0  0  0  0  0  0  0  0  0  0
   37.0410   25.1920   31.4600 N   0  0  0  0  0  0  0  0  0  0  0  0
   38.1440   25.9810   31.3190 C   0  0  0  0  0  3  0  0  0  0  0  0
   38.1390   27.2360   30.7730 C   0  0  0  0  0  0  0  0  0  0  0  0
   39.0850   27.7860   30.7080 H   0  0  0  0  0  0  0  0  0  0  0  0
   36.9270   27.7380   30.3330 C   0  0  0  0  0  0  0  0  0  0  0  0
   36.8910   28.8880   29.8260 O   0  0  0  0  0  0  0  0  0  0  0  0
   35.8080   26.9680   30.4630 N   0  0  0  0  0  0  0  0  0  0  0  0
   35.8930   25.7340   31.0150 C   0  0  0  0  0  0  0  0  0  0  0  0
   34.8180   25.1260   31.0830 O   0  0  0  0  0  0  0  0  0  0  0  0
   34.9560   27.4170   30.1120 H   0  0  0  0  0  0  0  0  0  0  0  0
   36.5010   21.3840   31.8010 C   0  0  0  0  0  0  0  0  0  0  0  0
   36.4250   20.2910   30.9190 C   0  0  0  0  0  0  0  0  0  0  0  0
   35.8380   19.1400   31.4140 C   0  0  0  0  0  0  0  0  0  0  0  0
   35.3750   19.1170   32.6930 N   0  0  0  0  0  0  0  0  0  0  0  0
   35.4640   20.1990   33.5280 C   0  0  0  0  0  0  0  0  0  0  0  0
   36.0410   21.3400   33.0510 N   0  0  0  0  0  0  0  0  0  0  0  0
   36.7910   20.3060   29.9020 H   0  0  0  0  0  0  0  0  0  0  0  0
   35.7270   18.2330   30.8170 H   0  0  0  0  0  0  0  0  0  0  0  0
   35.0780   20.1200   34.5340 H   0  0  0  0  0  0  0  0  0  0  0  0
  1  4  1  6  0  0  0
  1 18  1  0  0  0  0
  1  3  1  0  0  0  0
  1  2  1  0  0  0  0
  2  5  1  1  0  0  0
  3  2  1  0  0  0  0
  3  6  1  0  0  0  0
  7  3  1  0  0  0  0
  8  2  1  0  0  0  0
  9  8  1  0  0  0  0
 10  9  2  0  0  0  0
 11 10  1  0  0  0  0
 12 14  1  0  0  0  0
 12 10  1  0  0  0  0
 13 12  2  0  0  0  0
 14 15  1  0  0  0  0
 15 16  2  0  0  0  0
 15  8  1  0  0  0  0
 17 14  1  0  0  0  0
 18 23  1  0  0  0  0
 19 20  1  0  0  0  0
 19 18  2  0  0  0  0
 20 21  2  0  0  0  0
 21 22  1  0  0  0  0
 22 26  1  0  0  0  0
 23 22  2  0  0  0  0
 24 19  1  0  0  0  0
 25 20  1  0  0  0  0
M  END
>  <minimizedAffinity>
-4.3367548

$$$$

 OpenBabel03272508253D

 26 28  0  0  1  0  0  0  0  0999 V2000
   38.5200   26.0230   33.4210 C   0  0  1  0  0  0  0  0  0  0  0  0
   38.0800   24.6920   33.8200 C   0  0  1  0  0  0  0  0  0  0  0  0
   39.3650   24.8120   33.0430 C   0  0  0  0  0  0  0  0  0  0  0  0
   39.0240   26.7770   34.0780 H   0  0  0  0  0  0  0  0  0  0  0  0
   37.2400   24.2760   33.1860 H   0  0  0  0  0  0  0  0  0  0  0  0
   39.4030   24.5000   31.9780 H   0  0  0  0  0  0  0  0  0  0  0  0
   40.2860   24.6350   33.6290 H   0  0  0  0  0  0  0  0  0  0  0  0
   38.0650   24.2240   35.1680 N   0  0  0  0  0  0  0  0  0  0  0  0
   38.0970   25.0660   36.2400 C   0  0  0  0  0  3  0  0  0  0  0  0
   38.0850   24.6610   37.5470 C   0  0  0  0  0  0  0  0  0  0  0  0
   38.1130   25.4240   38.3350 H   0  0  0  0  0  0  0  0  0  0  0  0
   38.0370   23.3020   37.7970 C   0  0  0  0  0  0  0  0  0  0  0  0
   38.0240   22.8990   38.9880 O   0  0  0  0  0  0  0  0  0  0  0  0
   38.0050   22.4380   36.7400 N   0  0  0  0  0  0  0  0  0  0  0  0
   38.0200   22.9150   35.4730 C   0  0  0  0  0  0  0  0  0  0  0  0
   37.9870   22.0440   34.5950 O   0  0  0  0  0  0  0  0  0  0  0  0
   37.9700   21.4510   37.0160 H   0  0  0  0  0  0  0  0  0  0  0  0
   37.9210   26.7160   32.2220 C   0  0  0  0  0  0  0  0  0  0  0  0
   38.7660   27.5770   31.4980 C   0  0  0  0  0  0  0  0  0  0  0  0
   38.2000   28.2270   30.4150 C   0  0  0  0  0  0  0  0  0  0  0  0
   36.8930   28.0100   30.1070 N   0  0  0  0  0  0  0  0  0  0  0  0
   36.0960   27.1650   30.8320 C   0  0  0  0  0  0  0  0  0  0  0  0
   36.6420   26.5190   31.9030 N   0  0  0  0  0  0  0  0  0  0  0  0
   39.8040   27.7520   31.7400 H   0  0  0  0  0  0  0  0  0  0  0  0
   38.7630   28.9160   29.7830 H   0  0  0  0  0  0  0  0  0  0  0  0
   35.0640   27.0330   30.5390 H   0  0  0  0  0  0  0  0  0  0  0  0
  1  2  1  0  0  0  0
  1  4  1  1  0  0  0
  2  5  1  6  0  0  0
  2  8  1  0  0  0  0
  3  1  1  0  0  0  0
  3  7  1  0  0  0  0
  3  2  1  0  0  0  0
  6  3  1  0  0  0  0
  8 15  1  0  0  0  0
  8  9  1  0  0  0  0
  9 10  2  0  0  0  0
 10 12  1  0  0  0  0
 10 11  1  0  0  0  0
 12 13  2  0  0  0  0
 14 17  1  0  0  0  0
 14 12  1  0  0  0  0
 15 14  1  0  0  0  0
 16 15  2  0  0  0  0
 18  1  1  0  0  0  0
 19 24  1  0  0  0  0
 19 18  2  0  0  0  0
 20 19  1  0  0  0  0
 21 20  2  0  0  0  0
 21 22  1  0  0  0  0
 22 23  2  0  0  0  0
 23 18  1  0  0  0  0
 25 20  1  0  0  0  0
 26 22  1  0  0  0  0
M  END
>  <minimizedAffinity>
-4.31897068

$$$$

 OpenBabel03272508253D

 26 28  0  0  1  0  0  0  0  0999 V2000
   35.7440   30.9010   35.3300 C   0  0  1  0  0  0  0  0  0  0  0  0
   35.2700   30.0260   34.2650 C   0  0  1  0  0  0  0  0  0  0  0  0
   35.8400   31.3670   33.8830 C   0  0  0  0  0  0  0  0  0  0  0  0
   36.7190   30.8110   35.8730 H   0  0  0  0  0  0  0  0  0  0  0  0
   34.1440   29.9990   34.1590 H   0  0  0  0  0  0  0  0  0  0  0  0
   35.1670   32.1800   33.5390 H   0  0  0  0  0  0  0  0  0  0  0  0
   36.8360   31.3340   33.4040 H   0  0  0  0  0  0  0  0  0  0  0  0
   35.9100   28.8080   33.8840 N   0  0  0  0  0  0  0  0  0  0  0  0
   36.6590   28.0680   34.7490 C   0  0  0  0  0  3  0  0  0  0  0  0
   37.2900   26.8970   34.4280 C   0  0  0  0  0  0  0  0  0  0  0  0
   37.8690   26.3800   35.2020 H   0  0  0  0  0  0  0  0  0  0  0  0
   37.1560   26.4330   33.1310 C   0  0  0  0  0  0  0  0  0  0  0  0
   37.7230   25.3590   32.8050 O   0  0  0  0  0  0  0  0  0  0  0  0
   36.4100   27.1560   32.2450 N   0  0  0  0  0  0  0  0  0  0  0  0
   35.8160   28.3070   32.6400 C   0  0  0  0  0  0  0  0  0  0  0  0
   35.1670   28.8790   31.7560 O   0  0  0  0  0  0  0  0  0  0  0  0
   36.3650   26.7400   31.3100 H   0  0  0  0  0  0  0  0  0  0  0  0
   34.7820   31.7250   36.1490 C   0  0  0  0  0  0  0  0  0  0  0  0
   33.4720   31.2290   36.2810 C   0  0  0  0  0  0  0  0  0  0  0  0
   32.5910   32.0040   37.0140 C   0  0  0  0  0  0  0  0  0  0  0  0
   33.0180   33.1750   37.5590 N   0  0  0  0  0  0  0  0  0  0  0  0
   34.3010   33.6320   37.4130 C   0  0  0  0  0  0  0  0  0  0  0  0
   35.1780   32.8760   36.6920 N   0  0  0  0  0  0  0  0  0  0  0  0
   33.1290   30.2990   35.8500 H   0  0  0  0  0  0  0  0  0  0  0  0
   31.5520   31.7150   37.1810 H   0  0  0  0  0  0  0  0  0  0  0  0
   34.5810   34.5700   37.8690 H   0  0  0  0  0  0  0  0  0  0  0  0
  1  4  1  1  0  0  0
  1 18  1  0  0  0  0
  2  5  1  6  0  0  0
  2  1  1  0  0  0  0
  3  2  1  0  0  0  0
  3  1  1  0  0  0  0
  6  3  1  0  0  0  0
  7  3  1  0  0  0  0
  8  2  1  0  0  0  0
  8  9  1  0  0  0  0
 10  9  2  0  0  0  0
 10 11  1  0  0  0  0
 12 10  1  0  0  0  0
 13 12  2  0  0  0  0
 14 15  1  0  0  0  0
 14 12  1  0  0  0  0
 15  8  1  0  0  0  0
 16 15  2  0  0  0  0
 17 14  1  0  0  0  0
 18 19  2  0  0  0  0
 18 23  1  0  0  0  0
 19 20  1  0  0  0  0
 20 25  1  0  0  0  0
 20 21  2  0  0  0  0
 22 21  1  0  0  0  0
 22 26  1  0  0  0  0
 23 22  2  0  0  0  0
 24 19  1  0  0  0  0
M  END
>  <minimizedAffinity>
-4.2521987

$$$$
