
 OpenBabel03272507333D

 37 40  0  0  1  0  0  0  0  0999 V2000
   32.9600   27.7720   48.3940 C   0  0  0  0  0  0  0  0  0  0  0  0
   31.7620   27.7090   48.8300 O   0  0  0  0  0  0  0  0  0  0  0  0
   35.8890   29.2170   49.8480 C   0  0  0  0  0  0  0  0  0  0  0  0
   34.9480   29.7130   50.7280 C   0  0  0  0  0  0  0  0  0  0  0  0
   33.6950   29.2440   50.3110 C   0  0  0  0  0  0  0  0  0  0  0  0
   33.9560   28.4850   49.1930 C   0  0  0  0  0  0  0  0  0  0  0  0
   35.2510   28.4970   48.9590 O   0  0  0  0  0  0  0  0  0  0  0  0
   35.0950   30.3550   51.6040 H   0  0  0  0  0  0  0  0  0  0  0  0
   32.7560   29.4640   50.8020 H   0  0  0  0  0  0  0  0  0  0  0  0
   37.3050   29.5070   49.9830 C   0  0  0  0  0  0  0  0  0  0  0  0
   37.9850   28.8450   50.7800 O   0  0  0  0  0  0  0  0  0  0  0  0
   37.8360   30.5670   49.1660 C   0  0  0  0  0  0  0  0  0  0  0  0
   38.1790   31.7500   49.8050 C   0  0  0  0  0  0  0  0  0  0  0  0
   38.6950   32.7960   49.0360 C   0  0  0  0  0  0  0  0  0  0  0  0
   38.8320   32.5910   47.6800 N   0  0  0  0  0  0  0  0  0  0  0  0
   38.4930   31.4410   47.1010 C   0  0  0  0  0  0  0  0  0  0  0  0
   37.9960   30.4270   47.8290 N   0  0  0  0  0  0  0  0  0  0  0  0
   38.0590   31.8770   50.8660 H   0  0  0  0  0  0  0  0  0  0  0  0
   38.9620   33.7160   49.5330 H   0  0  0  0  0  0  0  0  0  0  0  0
   38.6320   31.3620   46.0330 H   0  0  0  0  0  0  0  0  0  0  0  0
   33.3400   27.1260   47.0940 C   0  0  1  0  0  0  0  0  0  0  0  0
   33.7530   25.6210   47.3480 C   0  0  0  0  0  0  0  0  0  0  0  0
   32.5630   26.0100   46.5570 C   0  0  2  0  0  0  0  0  0  0  0  0
   34.1710   27.6310   46.5600 H   0  0  0  0  0  0  0  0  0  0  0  0
   33.6550   25.2420   48.3620 H   0  0  0  0  0  0  0  0  0  0  0  0
   34.6310   25.2640   46.7900 H   0  0  0  0  0  0  0  0  0  0  0  0
   31.5960   25.8210   47.1120 H   0  0  0  0  0  0  0  0  0  0  0  0
   32.4640   25.8790   45.1400 N   0  0  0  0  0  0  0  0  0  0  0  0
   33.4810   25.3340   44.4060 C   0  0  0  0  0  3  0  0  0  0  0  0
   33.3940   25.2040   43.0350 C   0  0  0  0  0  0  0  0  0  0  0  0
   34.2720   24.7540   42.5770 H   0  0  0  0  0  0  0  0  0  0  0  0
   32.2760   25.6170   42.3390 C   0  0  0  0  0  0  0  0  0  0  0  0
   32.3410   25.4340   41.0960 O   0  0  0  0  0  0  0  0  0  0  0  0
   31.2810   26.1520   43.0700 N   0  0  0  0  0  0  0  0  0  0  0  0
   31.4080   26.2600   44.4030 C   0  0  0  0  0  0  0  0  0  0  0  0
   30.4160   26.7720   44.9620 O   0  0  0  0  0  0  0  0  0  0  0  0
   30.4530   26.4540   42.5210 H   0  0  0  0  0  0  0  0  0  0  0  0
  1  2  2  0  0  0  0
  1  6  1  0  0  0  0
  3 10  1  0  0  0  0
  3  4  2  0  0  0  0
  4  8  1  0  0  0  0
  5  4  1  0  0  0  0
  5  9  1  0  0  0  0
  6  5  2  0  0  0  0
  7  6  1  0  0  0  0
  7  3  1  0  0  0  0
 10 11  2  0  0  0  0
 12 13  1  0  0  0  0
 12 10  1  0  0  0  0
 13 18  1  0  0  0  0
 14 19  1  0  0  0  0
 14 13  2  0  0  0  0
 15 14  1  0  0  0  0
 16 15  2  0  0  0  0
 16 17  1  0  0  0  0
 17 12  2  0  0  0  0
 20 16  1  0  0  0  0
 21 24  1  6  0  0  0
 21 22  1  0  0  0  0
 21  1  1  0  0  0  0
 22 25  1  0  0  0  0
 23 21  1  0  0  0  0
 23 27  1  1  0  0  0
 23 22  1  0  0  0  0
 26 22  1  0  0  0  0
 28 23  1  0  0  0  0
 29 28  1  0  0  0  0
 30 29  2  0  0  0  0
 31 30  1  0  0  0  0
 32 30  1  0  0  0  0
 32 34  1  0  0  0  0
 33 32  2  0  0  0  0
 34 35  1  0  0  0  0
 35 36  2  0  0  0  0
 35 28  1  0  0  0  0
 37 34  1  0  0  0  0
M  END
>  <minimizedAffinity>
-4.8834343

>  <minimizedRMSD>
1.20538163

$$$$
