
 OpenBabel03272509433D

 39 41  0  0  1  0  0  0  0  0999 V2000
   37.0900   30.9400   49.0300 C   0  0  0  0  0  0  0  0  0  0  0  0
   36.8470   31.8630   50.0490 C   0  0  0  0  0  0  0  0  0  0  0  0
   37.4510   33.1070   50.0760 C   0  0  0  0  0  0  0  0  0  0  0  0
   38.3400   33.4570   49.0480 C   0  0  0  0  0  0  0  0  0  0  0  0
   38.5690   32.5430   48.0560 C   0  0  0  0  0  0  0  0  0  0  0  0
   37.9410   31.3050   48.0650 C   0  0  0  0  0  0  0  0  0  0  0  0
   36.1560   31.5780   50.8380 H   0  0  0  0  0  0  0  0  0  0  0  0
   37.2000   33.7390   50.9000 H   0  0  0  0  0  0  0  0  0  0  0  0
   38.7570   34.4320   49.1500 H   0  0  0  0  0  0  0  0  0  0  0  0
   39.2740   32.9570   47.3400 H   0  0  0  0  0  0  0  0  0  0  0  0
   36.4800   29.6280   49.0290 C   0  0  2  0  0  0  0  0  0  0  0  0
   36.9760   29.0640   48.1490 H   0  0  0  0  0  0  0  0  0  0  0  0
   33.6170   30.0240   46.8260 C   0  0  0  0  0  0  0  0  0  0  0  0
   32.8740   28.8780   47.0340 C   0  0  0  0  0  0  0  0  0  0  0  0
   33.3170   27.9750   47.9890 C   0  0  0  0  0  0  0  0  0  0  0  0
   34.4720   28.2500   48.6860 N   0  0  0  0  0  0  0  0  0  0  0  0
   35.1370   29.3600   48.4400 C   0  0  0  0  0  0  0  0  0  0  0  0
   34.7200   30.2490   47.5180 N   0  0  0  0  0  0  0  0  0  0  0  0
   33.2850   30.7330   46.0900 H   0  0  0  0  0  0  0  0  0  0  0  0
   31.9820   28.7470   46.4390 H   0  0  0  0  0  0  0  0  0  0  0  0
   32.7480   27.0860   48.1580 H   0  0  0  0  0  0  0  0  0  0  0  0
   36.9310   28.8720   49.9670 O   0  0  0  0  0  0  0  0  0  0  0  0
   36.5450   29.0940   50.8640 H   0  0  0  0  0  0  0  0  0  0  0  0
   38.2950   30.4280   46.9730 C   0  0  0  0  0  3  0  0  0  0  0  0
   38.8890   30.8450   45.8490 C   0  0  0  0  0  3  0  0  0  0  0  0
   39.3290   30.0350   44.6900 C   0  0  0  0  0  0  0  0  0  0  0  0
   38.5790   29.2090   44.5600 H   0  0  0  0  0  0  0  0  0  0  0  0
   40.2860   29.5450   44.8650 H   0  0  0  0  0  0  0  0  0  0  0  0
   39.2800   31.0350   43.1990 S   0  0  0  0  0  0  0  0  0  0  0  0
   34.5720   31.2970   43.8910 H   0  0  0  0  0  0  0  0  0  0  0  0
   35.4030   31.7450   43.4580 N   0  0  0  0  0  0  0  0  0  0  0  0
   36.6490   31.2140   43.5650 C   0  0  0  0  0  3  0  0  0  0  0  0
   37.7250   31.8530   42.9680 C   0  0  0  0  0  0  0  0  0  0  0  0
   37.4850   33.0220   42.2770 C   0  0  0  0  0  0  0  0  0  0  0  0
   38.5070   33.5380   41.7660 O   0  0  0  0  0  0  0  0  0  0  0  0
   36.2550   33.5520   42.1660 N   0  0  0  0  0  0  0  0  0  0  0  0
   35.2400   32.8910   42.7670 C   0  0  0  0  0  0  0  0  0  0  0  0
   34.0600   33.3680   42.6810 O   0  0  0  0  0  0  0  0  0  0  0  0
   36.1420   34.4360   41.6320 H   0  0  0  0  0  0  0  0  0  0  0  0
  1  2  1  0  0  0  0
  2  3  2  0  0  0  0
  2  7  1  0  0  0  0
  3  8  1  0  0  0  0
  4  9  1  0  0  0  0
  4  3  1  0  0  0  0
  5  6  1  0  0  0  0
  5  4  2  0  0  0  0
  6  1  2  0  0  0  0
 10  5  1  0  0  0  0
 11 12  1  6  0  0  0
 11  1  1  0  0  0  0
 11 22  1  0  0  0  0
 13 14  2  0  0  0  0
 13 18  1  0  0  0  0
 14 15  1  0  0  0  0
 15 21  1  0  0  0  0
 15 16  2  0  0  0  0
 17 16  1  0  0  0  0
 17 11  1  0  0  0  0
 18 17  2  0  0  0  0
 19 13  1  0  0  0  0
 20 14  1  0  0  0  0
 22 23  1  0  0  0  0
 24  6  1  0  0  0  0
 25 24  2  0  0  0  0
 26 28  1  0  0  0  0
 26 25  1  0  0  0  0
 27 26  1  0  0  0  0
 29 26  1  0  0  0  0
 31 32  1  0  0  0  0
 31 30  1  0  0  0  0
 33 29  1  0  0  0  0
 33 32  2  0  0  0  0
 34 33  1  0  0  0  0
 35 34  2  0  0  0  0
 36 34  1  0  0  0  0
 36 37  1  0  0  0  0
 37 31  1  0  0  0  0
 38 37  2  0  0  0  0
 39 36  1  0  0  0  0
M  END
>  <minimizedAffinity>
-6.17913628

>  <minimizedRMSD>
0.621119499

$$$$
