REMARK  Name = 
REMARK  7 active torsions:
REMARK  status: ('A' for Active; 'I' for Inactive)
REMARK    1  A    between atoms: C_1  and  C_7
REMARK    2  A    between atoms: C_6  and  C_15
REMARK    3  A    between atoms: C_7  and  O_8
REMARK    4  A    between atoms: C_7  and  C_13
REMARK    5  A    between atoms: C_16  and  C_17
REMARK    6  A    between atoms: C_17  and  S_18
REMARK    7  A    between atoms: S_18  and  C_35
REMARK                            x       y       z     vdW  Elec       q    Type
REMARK                         _______ _______ _______ _____ _____    ______ ____
ROOT
ATOM      1  C   UNL     1      37.080  30.949  49.027  0.00  0.00    +0.000 A 
ATOM      2  C   UNL     1      36.811  31.881  50.031  0.00  0.00    +0.000 A 
ATOM      3  C   UNL     1      37.420  33.123  50.066  0.00  0.00    +0.000 A 
ATOM      4  C   UNL     1      38.340  33.461  49.062  0.00  0.00    +0.000 A 
ATOM      5  C   UNL     1      38.594  32.538  48.084  0.00  0.00    +0.000 A 
ATOM      6  C   UNL     1      37.961  31.303  48.085  0.00  0.00    +0.000 A 
ATOM      7  H   UNL     1      36.096  31.606  50.801  0.00  0.00    +0.000 HD
ATOM      8  H   UNL     1      37.147  33.763  50.877  0.00  0.00    +0.000 HD
ATOM      9  H   UNL     1      38.758  34.435  49.169  0.00  0.00    +0.000 HD
ATOM     10  H   UNL     1      39.322  32.943  47.386  0.00  0.00    +0.000 HD
ENDROOT
BRANCH   1  11
ATOM     11  C   UNL     1      36.464  29.640  49.018  0.00  0.00    +0.000 C 
ATOM     12  H   UNL     1      37.005  29.057  48.177  0.00  0.00    +0.000 HD
BRANCH  11  17
ATOM     13  C   UNL     1      33.613  30.148  46.823  0.00  0.00    +0.000 A 
ATOM     14  C   UNL     1      32.954  28.934  46.844  0.00  0.00    +0.000 A 
ATOM     15  C   UNL     1      33.449  27.935  47.670  0.00  0.00    +0.000 A 
ATOM     16  N   UNL     1      34.570  28.187  48.429  0.00  0.00    +0.000 NA
ATOM     17  C   UNL     1      35.154  29.366  48.362  0.00  0.00    +0.000 A 
ATOM     18  N   UNL     1      34.686  30.347  47.568  0.00  0.00    +0.000 NA
ATOM     19  H   UNL     1      33.241  30.931  46.188  0.00  0.00    +0.000 HD
ATOM     20  H   UNL     1      32.084  28.828  46.214  0.00  0.00    +0.000 HD
ATOM     21  H   UNL     1      32.945  26.993  47.694  0.00  0.00    +0.000 HD
ENDBRANCH  11  17
BRANCH  11  22
ATOM     22  O   UNL     1      36.860  28.901  49.994  0.00  0.00    +0.000 OA
ATOM     23  H   UNL     1      36.427  29.142  50.864  0.00  0.00    +0.000 HD
ENDBRANCH  11  22
ENDBRANCH   1  11
BRANCH   6  24
ATOM     24  C   UNL     1      38.343  30.416  47.011  0.00  0.00    +0.000 C 
ATOM     25  C   UNL     1      38.823  30.837  45.835  0.00  0.00    +0.000 C 
BRANCH  25  26
ATOM     26  C   UNL     1      39.280  30.022  44.686  0.00  0.00    +0.000 C 
ATOM     27  H   UNL     1      38.554  29.172  44.574  0.00  0.00    +0.000 HD
ATOM     28  H   UNL     1      40.252  29.564  44.862  0.00  0.00    +0.000 HD
BRANCH  26  29
ATOM     29  S   UNL     1      39.190  30.997  43.180  0.00  0.00    +0.000 S 
BRANCH  29  33
ATOM     30  H   UNL     1      36.090  33.569  40.634  0.00  0.00    +0.000 HD
ATOM     31  N   UNL     1      36.205  32.818  41.342  0.00  0.00    +0.000 N 
ATOM     32  C   UNL     1      37.430  32.414  41.775  0.00  0.00    +0.000 A 
ATOM     33  C   UNL     1      37.529  31.407  42.721  0.00  0.00    +0.000 A 
ATOM     34  C   UNL     1      36.363  30.843  43.195  0.00  0.00    +0.000 A 
ATOM     35  O   UNL     1      36.536  29.939  44.048  0.00  0.00    +0.000 OA
ATOM     36  N   UNL     1      35.149  31.236  42.771  0.00  0.00    +0.000 N 
ATOM     37  C   UNL     1      35.107  32.222  41.848  0.00  0.00    +0.000 A 
ATOM     38  O   UNL     1      33.972  32.619  41.424  0.00  0.00    +0.000 OA
ATOM     39  H   UNL     1      34.310  30.770  43.169  0.00  0.00    +0.000 HD
ENDBRANCH  29  33
ENDBRANCH  26  29
ENDBRANCH  25  26
ENDBRANCH   6  24
TORSDOF 7
