
 OpenBabel03272510053D

 38 40  0  0  0  0  0  0  0  0999 V2000
   39.0130   26.3580   34.0370 C   0  0  0  0  0  0  0  0  0  0  0  0
   38.9030   26.0120   32.7280 C   0  0  0  0  0  0  0  0  0  0  0  0
   39.9740   26.2220   31.8660 C   0  0  0  0  0  0  0  0  0  0  0  0
   41.1650   26.7810   32.2940 C   0  0  0  0  0  0  0  0  0  0  0  0
   41.3060   27.1430   33.6010 C   0  0  0  0  0  0  0  0  0  0  0  0
   40.2330   26.9220   34.4230 C   0  0  0  0  0  0  0  0  0  0  0  0
   39.8570   25.9290   30.8110 H   0  0  0  0  0  0  0  0  0  0  0  0
   41.9250   26.8940   31.5400 H   0  0  0  0  0  0  0  0  0  0  0  0
   42.2420   27.5690   33.8670 H   0  0  0  0  0  0  0  0  0  0  0  0
   40.4680   27.2570   35.4420 H   0  0  0  0  0  0  0  0  0  0  0  0
   35.6130   25.8400   31.0970 C   0  0  0  0  0  0  0  0  0  0  0  0
   36.8040   26.3230   31.6180 C   0  0  0  0  0  0  0  0  0  0  0  0
   37.6970   25.4750   32.1940 C   0  0  0  0  0  0  0  0  0  0  0  0
   37.3690   24.1530   32.2260 N   0  0  0  0  0  0  0  0  0  0  0  0
   36.2240   23.6820   31.7220 C   0  0  0  0  0  0  0  0  0  0  0  0
   35.3530   24.5290   31.1620 N   0  0  0  0  0  0  0  0  0  0  0  0
   34.8050   26.3610   30.6160 H   0  0  0  0  0  0  0  0  0  0  0  0
   36.7740   27.3650   31.4050 H   0  0  0  0  0  0  0  0  0  0  0  0
   36.0260   22.2100   31.7610 C   0  0  0  0  0  0  0  0  0  0  0  0
   35.2050   21.8240   32.8020 F   0  0  0  0  0  0  0  0  0  0  0  0
   35.2580   21.8140   30.6010 F   0  0  0  0  0  0  0  0  0  0  0  0
   37.1010   21.4580   31.6870 F   0  0  0  0  0  0  0  0  0  0  0  0
   37.7720   26.1030   35.2070 S   0  0  0  0  0  0  0  0  0  0  0  0
   36.7050   27.1280   35.0780 O   0  0  0  0  0  0  0  0  0  0  0  0
   38.4720   26.7330   36.3920 O   0  0  0  0  0  0  0  0  0  0  0  0
   37.5100   24.7550   36.1830 C   0  0  0  0  0  0  0  0  0  0  0  0
   37.2580   25.1920   37.2330 H   0  0  0  0  0  0  0  0  0  0  0  0
   36.5560   24.2370   35.9800 H   0  0  0  0  0  0  0  0  0  0  0  0
   38.5830   23.8840   36.4940 N   0  0  0  0  0  0  0  0  0  0  0  0
   39.5190   23.4200   35.6310 C   0  0  0  0  0  3  0  0  0  0  0  0
   40.5490   22.5710   35.9820 C   0  0  0  0  0  0  0  0  0  0  0  0
   41.2640   22.2450   35.2120 H   0  0  0  0  0  0  0  0  0  0  0  0
   40.6130   22.1800   37.3090 C   0  0  0  0  0  0  0  0  0  0  0  0
   41.5470   21.4140   37.6150 O   0  0  0  0  0  0  0  0  0  0  0  0
   39.6840   22.6350   38.1900 N   0  0  0  0  0  0  0  0  0  0  0  0
   38.7250   23.4480   37.7760 C   0  0  0  0  0  0  0  0  0  0  0  0
   37.8960   23.8250   38.6710 O   0  0  0  0  0  0  0  0  0  0  0  0
   39.7800   22.3090   39.1770 H   0  0  0  0  0  0  0  0  0  0  0  0
  1  6  1  0  0  0  0
  1 23  1  0  0  0  0
  2  1  2  0  0  0  0
  3  4  2  0  0  0  0
  3  2  1  0  0  0  0
  4  5  1  0  0  0  0
  5  9  1  0  0  0  0
  5  6  2  0  0  0  0
  6 10  1  0  0  0  0
  7  3  1  0  0  0  0
  8  4  1  0  0  0  0
 11 16  2  0  0  0  0
 11 12  1  0  0  0  0
 12 13  2  0  0  0  0
 13 14  1  0  0  0  0
 13  2  1  0  0  0  0
 15 19  1  0  0  0  0
 15 14  2  0  0  0  0
 16 15  1  0  0  0  0
 17 11  1  0  0  0  0
 18 12  1  0  0  0  0
 19 20  1  0  0  0  0
 21 19  1  0  0  0  0
 22 19  1  0  0  0  0
 23 26  1  0  0  0  0
 23 25  2  0  0  0  0
 24 23  2  0  0  0  0
 26 29  1  0  0  0  0
 26 27  1  0  0  0  0
 28 26  1  0  0  0  0
 29 36  1  0  0  0  0
 30 31  2  0  0  0  0
 30 29  1  0  0  0  0
 31 33  1  0  0  0  0
 32 31  1  0  0  0  0
 33 34  2  0  0  0  0
 33 35  1  0  0  0  0
 35 38  1  0  0  0  0
 36 35  1  0  0  0  0
 36 37  2  0  0  0  0
M  END
>  <minimizedAffinity>
-6.95262909

$$$$

 OpenBabel03272510053D

 38 40  0  0  0  0  0  0  0  0999 V2000
   39.5110   26.8040   34.2030 C   0  0  0  0  0  0  0  0  0  0  0  0
   39.3700   27.0020   32.8670 C   0  0  0  0  0  0  0  0  0  0  0  0
   40.4980   27.1760   32.0720 C   0  0  0  0  0  0  0  0  0  0  0  0
   41.7780   27.1580   32.5960 C   0  0  0  0  0  0  0  0  0  0  0  0
   41.9530   26.9660   33.9350 C   0  0  0  0  0  0  0  0  0  0  0  0
   40.8230   26.7970   34.6890 C   0  0  0  0  0  0  0  0  0  0  0  0
   40.3520   27.3310   30.9920 H   0  0  0  0  0  0  0  0  0  0  0  0
   42.5740   27.3010   31.8870 H   0  0  0  0  0  0  0  0  0  0  0  0
   42.9590   26.9650   34.2760 H   0  0  0  0  0  0  0  0  0  0  0  0
   41.0950   26.6560   35.7430 H   0  0  0  0  0  0  0  0  0  0  0  0
   36.2930   25.9840   31.1330 C   0  0  0  0  0  0  0  0  0  0  0  0
   37.5350   25.9450   31.7480 C   0  0  0  0  0  0  0  0  0  0  0  0
   38.0880   27.0810   32.2530 C   0  0  0  0  0  0  0  0  0  0  0  0
   37.3690   28.2310   32.1270 N   0  0  0  0  0  0  0  0  0  0  0  0
   36.1700   28.2730   31.5370 C   0  0  0  0  0  0  0  0  0  0  0  0
   35.6420   27.1480   31.0420 N   0  0  0  0  0  0  0  0  0  0  0  0
   35.7180   25.1940   30.6830 H   0  0  0  0  0  0  0  0  0  0  0  0
   37.8050   24.9160   31.7180 H   0  0  0  0  0  0  0  0  0  0  0  0
   35.4670   29.5820   31.5330 C   0  0  0  0  0  0  0  0  0  0  0  0
   34.2040   29.4950   32.0830 F   0  0  0  0  0  0  0  0  0  0  0  0
   36.1420   30.4740   32.4510 F   0  0  0  0  0  0  0  0  0  0  0  0
   35.4580   30.2540   30.4040 F   0  0  0  0  0  0  0  0  0  0  0  0
   38.1920   26.5310   35.2800 S   0  0  0  0  0  0  0  0  0  0  0  0
   37.2800   27.7030   35.3070 O   0  0  0  0  0  0  0  0  0  0  0  0
   38.9120   26.8440   36.5740 O   0  0  0  0  0  0  0  0  0  0  0  0
   37.7040   25.0870   35.9970 C   0  0  0  0  0  0  0  0  0  0  0  0
   37.2590   25.4010   37.0270 H   0  0  0  0  0  0  0  0  0  0  0  0
   36.7960   24.6500   35.5450 H   0  0  0  0  0  0  0  0  0  0  0  0
   38.6690   24.1280   36.3910 N   0  0  0  0  0  0  0  0  0  0  0  0
   39.6310   23.5850   35.6070 C   0  0  0  0  0  3  0  0  0  0  0  0
   40.5530   22.6520   36.0380 C   0  0  0  0  0  0  0  0  0  0  0  0
   41.2990   22.2650   35.3280 H   0  0  0  0  0  0  0  0  0  0  0  0
   40.4720   22.2580   37.3630 C   0  0  0  0  0  0  0  0  0  0  0  0
   41.3080   21.4150   37.7410 O   0  0  0  0  0  0  0  0  0  0  0  0
   39.5140   22.7910   38.1660 N   0  0  0  0  0  0  0  0  0  0  0  0
   38.6650   23.6820   37.6780 C   0  0  0  0  0  0  0  0  0  0  0  0
   37.7990   24.1290   38.5030 O   0  0  0  0  0  0  0  0  0  0  0  0
   39.4980   22.4590   39.1560 H   0  0  0  0  0  0  0  0  0  0  0  0
  1  6  1  0  0  0  0
  1 23  1  0  0  0  0
  2  1  2  0  0  0  0
  3  4  2  0  0  0  0
  3  2  1  0  0  0  0
  4  5  1  0  0  0  0
  5  9  1  0  0  0  0
  5  6  2  0  0  0  0
  6 10  1  0  0  0  0
  7  3  1  0  0  0  0
  8  4  1  0  0  0  0
 11 12  1  0  0  0  0
 12 13  2  0  0  0  0
 13  2  1  0  0  0  0
 14 13  1  0  0  0  0
 15 14  2  0  0  0  0
 16 11  2  0  0  0  0
 16 15  1  0  0  0  0
 17 11  1  0  0  0  0
 18 12  1  0  0  0  0
 19 15  1  0  0  0  0
 19 20  1  0  0  0  0
 19 21  1  0  0  0  0
 22 19  1  0  0  0  0
 23 24  2  0  0  0  0
 23 26  1  0  0  0  0
 23 25  2  0  0  0  0
 26 29  1  0  0  0  0
 26 27  1  0  0  0  0
 28 26  1  0  0  0  0
 29 36  1  0  0  0  0
 30 31  2  0  0  0  0
 30 29  1  0  0  0  0
 31 33  1  0  0  0  0
 32 31  1  0  0  0  0
 33 34  2  0  0  0  0
 33 35  1  0  0  0  0
 35 38  1  0  0  0  0
 36 35  1  0  0  0  0
 36 37  2  0  0  0  0
M  END
>  <minimizedAffinity>
-6.40192556

$$$$

 OpenBabel03272510053D

 38 40  0  0  0  0  0  0  0  0999 V2000
   36.8480   25.8340   32.4260 C   0  0  0  0  0  0  0  0  0  0  0  0
   37.3490   26.2430   33.6190 C   0  0  0  0  0  0  0  0  0  0  0  0
   37.0410   27.5120   34.0990 C   0  0  0  0  0  0  0  0  0  0  0  0
   36.2340   28.3890   33.3980 C   0  0  0  0  0  0  0  0  0  0  0  0
   35.7180   28.0100   32.1930 C   0  0  0  0  0  0  0  0  0  0  0  0
   36.0390   26.7550   31.7510 C   0  0  0  0  0  0  0  0  0  0  0  0
   37.4610   27.8150   35.0710 H   0  0  0  0  0  0  0  0  0  0  0  0
   36.0620   29.3420   33.8660 H   0  0  0  0  0  0  0  0  0  0  0  0
   35.1080   28.7270   31.7030 H   0  0  0  0  0  0  0  0  0  0  0  0
   35.5690   26.5710   30.7760 H   0  0  0  0  0  0  0  0  0  0  0  0
   40.3470   24.3590   34.6060 C   0  0  0  0  0  0  0  0  0  0  0  0
   39.4690   25.1620   33.8960 C   0  0  0  0  0  0  0  0  0  0  0  0
   38.2260   25.4230   34.3840 C   0  0  0  0  0  0  0  0  0  0  0  0
   37.9020   24.8680   35.5850 N   0  0  0  0  0  0  0  0  0  0  0  0
   38.7460   24.0950   36.2750 C   0  0  0  0  0  0  0  0  0  0  0  0
   39.9630   23.8440   35.7790 N   0  0  0  0  0  0  0  0  0  0  0  0
   41.3510   24.0520   34.3700 H   0  0  0  0  0  0  0  0  0  0  0  0
   40.0270   25.4610   33.0400 H   0  0  0  0  0  0  0  0  0  0  0  0
   38.2870   23.6130   37.6030 C   0  0  0  0  0  0  0  0  0  0  0  0
   39.3140   23.0520   38.3360 F   0  0  0  0  0  0  0  0  0  0  0  0
   37.9220   24.7570   38.4110 F   0  0  0  0  0  0  0  0  0  0  0  0
   37.2080   22.8640   37.6290 F   0  0  0  0  0  0  0  0  0  0  0  0
   37.1210   24.2710   31.7520 S   0  0  0  0  0  0  0  0  0  0  0  0
   38.0070   24.3550   30.5630 O   0  0  0  0  0  0  0  0  0  0  0  0
   35.8210   24.1430   30.9880 O   0  0  0  0  0  0  0  0  0  0  0  0
   36.7800   22.7630   32.4240 C   0  0  0  0  0  0  0  0  0  0  0  0
   37.6630   22.5560   33.1550 H   0  0  0  0  0  0  0  0  0  0  0  0
   35.9530   22.7790   33.1550 H   0  0  0  0  0  0  0  0  0  0  0  0
   36.8120   21.6020   31.6130 N   0  0  0  0  0  0  0  0  0  0  0  0
   37.8330   21.2040   30.8160 C   0  0  0  0  0  3  0  0  0  0  0  0
   37.8170   20.0610   30.0430 C   0  0  0  0  0  0  0  0  0  0  0  0
   38.6940   19.8180   29.4240 H   0  0  0  0  0  0  0  0  0  0  0  0
   36.6730   19.2830   30.0990 C   0  0  0  0  0  0  0  0  0  0  0  0
   36.6690   18.2540   29.3970 O   0  0  0  0  0  0  0  0  0  0  0  0
   35.6380   19.6640   30.8930 N   0  0  0  0  0  0  0  0  0  0  0  0
   35.7290   20.7760   31.6060 C   0  0  0  0  0  0  0  0  0  0  0  0
   34.7100   21.0570   32.3220 O   0  0  0  0  0  0  0  0  0  0  0  0
   34.8010   19.0410   30.8980 H   0  0  0  0  0  0  0  0  0  0  0  0
  1  2  1  0  0  0  0
  2  3  2  0  0  0  0
  2 13  1  0  0  0  0
  3  7  1  0  0  0  0
  4  8  1  0  0  0  0
  4  3  1  0  0  0  0
  5  4  2  0  0  0  0
  6  5  1  0  0  0  0
  6  1  2  0  0  0  0
  9  5  1  0  0  0  0
 10  6  1  0  0  0  0
 11 16  1  0  0  0  0
 12 13  1  0  0  0  0
 12 11  2  0  0  0  0
 13 14  2  0  0  0  0
 14 15  1  0  0  0  0
 15 19  1  0  0  0  0
 16 15  2  0  0  0  0
 17 11  1  0  0  0  0
 18 12  1  0  0  0  0
 19 22  1  0  0  0  0
 19 20  1  0  0  0  0
 19 21  1  0  0  0  0
 23 26  1  0  0  0  0
 23  1  1  0  0  0  0
 24 23  2  0  0  0  0
 25 23  2  0  0  0  0
 26 27  1  0  0  0  0
 26 28  1  0  0  0  0
 29 26  1  0  0  0  0
 30 29  1  0  0  0  0
 31 33  1  0  0  0  0
 31 30  2  0  0  0  0
 32 31  1  0  0  0  0
 33 35  1  0  0  0  0
 34 33  2  0  0  0  0
 35 38  1  0  0  0  0
 35 36  1  0  0  0  0
 36 29  1  0  0  0  0
 36 37  2  0  0  0  0
M  END
>  <minimizedAffinity>
-6.31284046

$$$$

 OpenBabel03272510053D

 38 40  0  0  0  0  0  0  0  0999 V2000
   37.1280   26.9490   33.9360 C   0  0  0  0  0  0  0  0  0  0  0  0
   36.7860   26.7690   32.6340 C   0  0  0  0  0  0  0  0  0  0  0  0
   35.9550   27.6910   32.0050 C   0  0  0  0  0  0  0  0  0  0  0  0
   35.4530   28.7990   32.6630 C   0  0  0  0  0  0  0  0  0  0  0  0
   35.7730   29.0050   33.9730 C   0  0  0  0  0  0  0  0  0  0  0  0
   36.5940   28.0800   34.5620 C   0  0  0  0  0  0  0  0  0  0  0  0
   35.6980   27.5200   30.9480 H   0  0  0  0  0  0  0  0  0  0  0  0
   34.8220   29.4440   32.0770 H   0  0  0  0  0  0  0  0  0  0  0  0
   35.3550   29.8710   34.4230 H   0  0  0  0  0  0  0  0  0  0  0  0
   36.7740   28.3540   35.6090 H   0  0  0  0  0  0  0  0  0  0  0  0
   38.7780   24.6630   30.3740 C   0  0  0  0  0  0  0  0  0  0  0  0
   38.3300   25.7450   31.1170 C   0  0  0  0  0  0  0  0  0  0  0  0
   37.2210   25.6320   31.8950 C   0  0  0  0  0  0  0  0  0  0  0  0
   36.5900   24.4250   31.9090 N   0  0  0  0  0  0  0  0  0  0  0  0
   37.0200   23.3780   31.1970 C   0  0  0  0  0  0  0  0  0  0  0  0
   38.1100   23.5060   30.4330 N   0  0  0  0  0  0  0  0  0  0  0  0
   39.6230   24.5790   29.7130 H   0  0  0  0  0  0  0  0  0  0  0  0
   39.0470   26.5060   30.9210 H   0  0  0  0  0  0  0  0  0  0  0  0
   36.2770   22.1020   31.3600 C   0  0  0  0  0  0  0  0  0  0  0  0
   37.1120   21.0040   31.2970 F   0  0  0  0  0  0  0  0  0  0  0  0
   35.7740   22.0280   32.7140 F   0  0  0  0  0  0  0  0  0  0  0  0
   35.2010   21.9360   30.6240 F   0  0  0  0  0  0  0  0  0  0  0  0
   38.1860   25.9010   34.8060 S   0  0  0  0  0  0  0  0  0  0  0  0
   38.1340   26.1880   36.2620 O   0  0  0  0  0  0  0  0  0  0  0  0
   39.4800   26.6380   34.5330 O   0  0  0  0  0  0  0  0  0  0  0  0
   38.9610   24.5070   34.2660 C   0  0  0  0  0  0  0  0  0  0  0  0
   38.0990   23.7870   33.9560 H   0  0  0  0  0  0  0  0  0  0  0  0
   39.4500   24.6220   33.2820 H   0  0  0  0  0  0  0  0  0  0  0  0
   39.6840   23.6980   35.1770 N   0  0  0  0  0  0  0  0  0  0  0  0
   41.0030   23.7960   35.4690 C   0  0  0  0  0  3  0  0  0  0  0  0
   41.6640   22.9830   36.3680 C   0  0  0  0  0  0  0  0  0  0  0  0
   42.7400   23.1360   36.5420 H   0  0  0  0  0  0  0  0  0  0  0  0
   40.9120   22.0090   37.0020 C   0  0  0  0  0  0  0  0  0  0  0  0
   41.5180   21.2810   37.8110 O   0  0  0  0  0  0  0  0  0  0  0  0
   39.5870   21.8950   36.7230 N   0  0  0  0  0  0  0  0  0  0  0  0
   39.0240   22.7130   35.8480 C   0  0  0  0  0  0  0  0  0  0  0  0
   37.7760   22.5340   35.6470 O   0  0  0  0  0  0  0  0  0  0  0  0
   39.0670   21.1440   37.2290 H   0  0  0  0  0  0  0  0  0  0  0  0
  1  6  1  0  0  0  0
  1 23  1  0  0  0  0
  2  1  2  0  0  0  0
  3  2  1  0  0  0  0
  3  4  2  0  0  0  0
  4  5  1  0  0  0  0
  5  9  1  0  0  0  0
  5  6  2  0  0  0  0
  6 10  1  0  0  0  0
  7  3  1  0  0  0  0
  8  4  1  0  0  0  0
 11 16  2  0  0  0  0
 11 12  1  0  0  0  0
 12 13  2  0  0  0  0
 13 14  1  0  0  0  0
 13  2  1  0  0  0  0
 15 19  1  0  0  0  0
 15 14  2  0  0  0  0
 16 15  1  0  0  0  0
 17 11  1  0  0  0  0
 18 12  1  0  0  0  0
 19 21  1  0  0  0  0
 20 19  1  0  0  0  0
 22 19  1  0  0  0  0
 23 24  2  0  0  0  0
 25 23  2  0  0  0  0
 26 23  1  0  0  0  0
 26 29  1  0  0  0  0
 27 26  1  0  0  0  0
 28 26  1  0  0  0  0
 29 30  1  0  0  0  0
 29 36  1  0  0  0  0
 30 31  2  0  0  0  0
 31 32  1  0  0  0  0
 31 33  1  0  0  0  0
 33 34  2  0  0  0  0
 35 33  1  0  0  0  0
 35 38  1  0  0  0  0
 36 35  1  0  0  0  0
 37 36  2  0  0  0  0
M  END
>  <minimizedAffinity>
-6.25538492

$$$$

 OpenBabel03272510053D

 38 40  0  0  0  0  0  0  0  0999 V2000
   40.1890   23.2500   36.5440 C   0  0  0  0  0  0  0  0  0  0  0  0
   40.8280   23.7980   35.4790 C   0  0  0  0  0  0  0  0  0  0  0  0
   42.1330   23.4170   35.1850 C   0  0  0  0  0  0  0  0  0  0  0  0
   42.8190   22.4900   35.9490 C   0  0  0  0  0  0  0  0  0  0  0  0
   42.2070   21.9240   37.0290 C   0  0  0  0  0  0  0  0  0  0  0  0
   40.9230   22.3200   37.2890 C   0  0  0  0  0  0  0  0  0  0  0  0
   42.6240   23.8770   34.3130 H   0  0  0  0  0  0  0  0  0  0  0  0
   43.8220   22.2710   35.6270 H   0  0  0  0  0  0  0  0  0  0  0  0
   42.7860   21.2220   37.5760 H   0  0  0  0  0  0  0  0  0  0  0  0
   40.5440   21.8000   38.1790 H   0  0  0  0  0  0  0  0  0  0  0  0
   40.0280   27.0860   34.0430 C   0  0  0  0  0  0  0  0  0  0  0  0
   40.6110   26.0870   34.8070 C   0  0  0  0  0  0  0  0  0  0  0  0
   40.2120   24.7940   34.6680 C   0  0  0  0  0  0  0  0  0  0  0  0
   39.2350   24.5390   33.7540 N   0  0  0  0  0  0  0  0  0  0  0  0
   38.6720   25.4990   33.0130 C   0  0  0  0  0  0  0  0  0  0  0  0
   39.0720   26.7670   33.1650 N   0  0  0  0  0  0  0  0  0  0  0  0
   40.2170   28.1450   34.0270 H   0  0  0  0  0  0  0  0  0  0  0  0
   41.3480   26.5970   35.3800 H   0  0  0  0  0  0  0  0  0  0  0  0
   37.6670   25.0710   32.0050 C   0  0  0  0  0  0  0  0  0  0  0  0
   36.3760   25.1790   32.4820 F   0  0  0  0  0  0  0  0  0  0  0  0
   37.6720   26.0200   30.9130 F   0  0  0  0  0  0  0  0  0  0  0  0
   37.8690   23.9170   31.4100 F   0  0  0  0  0  0  0  0  0  0  0  0
   38.5590   23.6080   36.9780 S   0  0  0  0  0  0  0  0  0  0  0  0
   38.3480   25.0750   37.0760 O   0  0  0  0  0  0  0  0  0  0  0  0
   38.6790   23.3530   38.4650 O   0  0  0  0  0  0  0  0  0  0  0  0
   37.2250   22.5790   36.9920 C   0  0  0  0  0  0  0  0  0  0  0  0
   37.5360   21.6980   37.6880 H   0  0  0  0  0  0  0  0  0  0  0  0
   36.3710   22.9640   37.5750 H   0  0  0  0  0  0  0  0  0  0  0  0
   36.8530   21.8840   35.8140 N   0  0  0  0  0  0  0  0  0  0  0  0
   37.4430   21.9870   34.5990 C   0  0  0  0  0  3  0  0  0  0  0  0
   37.0430   21.2870   33.4780 C   0  0  0  0  0  0  0  0  0  0  0  0
   37.5820   21.4360   32.5300 H   0  0  0  0  0  0  0  0  0  0  0  0
   35.9660   20.4290   33.6260 C   0  0  0  0  0  0  0  0  0  0  0  0
   35.6130   19.8040   32.6080 O   0  0  0  0  0  0  0  0  0  0  0  0
   35.3610   20.3120   34.8370 N   0  0  0  0  0  0  0  0  0  0  0  0
   35.8030   21.0180   35.8660 C   0  0  0  0  0  0  0  0  0  0  0  0
   35.1760   20.8450   36.9650 O   0  0  0  0  0  0  0  0  0  0  0  0
   34.5550   19.6510   34.8940 H   0  0  0  0  0  0  0  0  0  0  0  0
  1 23  1  0  0  0  0
  1  6  1  0  0  0  0
  2  1  2  0  0  0  0
  3  2  1  0  0  0  0
  3  4  2  0  0  0  0
  4  5  1  0  0  0  0
  5  6  2  0  0  0  0
  5  9  1  0  0  0  0
  6 10  1  0  0  0  0
  7  3  1  0  0  0  0
  8  4  1  0  0  0  0
 11 12  1  0  0  0  0
 12 18  1  0  0  0  0
 13 12  2  0  0  0  0
 13  2  1  0  0  0  0
 14 13  1  0  0  0  0
 15 16  1  0  0  0  0
 15 14  2  0  0  0  0
 16 11  2  0  0  0  0
 17 11  1  0  0  0  0
 19 20  1  0  0  0  0
 19 15  1  0  0  0  0
 21 19  1  0  0  0  0
 22 19  1  0  0  0  0
 23 26  1  0  0  0  0
 23 24  2  0  0  0  0
 23 25  2  0  0  0  0
 26 28  1  0  0  0  0
 26 27  1  0  0  0  0
 29 36  1  0  0  0  0
 29 26  1  0  0  0  0
 30 29  1  0  0  0  0
 31 33  1  0  0  0  0
 31 30  2  0  0  0  0
 32 31  1  0  0  0  0
 33 35  1  0  0  0  0
 34 33  2  0  0  0  0
 35 38  1  0  0  0  0
 35 36  1  0  0  0  0
 36 37  2  0  0  0  0
M  END
>  <minimizedAffinity>
-6.08388376

$$$$

 OpenBabel03272510053D

 38 40  0  0  0  0  0  0  0  0999 V2000
   37.1360   24.4420   32.7530 C   0  0  0  0  0  0  0  0  0  0  0  0
   37.6060   23.2700   33.2500 C   0  0  0  0  0  0  0  0  0  0  0  0
   37.1810   22.0660   32.6990 C   0  0  0  0  0  0  0  0  0  0  0  0
   36.2810   22.0130   31.6500 C   0  0  0  0  0  0  0  0  0  0  0  0
   35.7860   23.1730   31.1300 C   0  0  0  0  0  0  0  0  0  0  0  0
   36.2260   24.3400   31.6940 C   0  0  0  0  0  0  0  0  0  0  0  0
   37.5820   21.1310   33.1220 H   0  0  0  0  0  0  0  0  0  0  0  0
   36.0260   21.0270   31.3030 H   0  0  0  0  0  0  0  0  0  0  0  0
   35.0980   23.0660   30.3280 H   0  0  0  0  0  0  0  0  0  0  0  0
   35.7560   25.1970   31.1940 H   0  0  0  0  0  0  0  0  0  0  0  0
   40.7180   22.9530   35.1810 C   0  0  0  0  0  0  0  0  0  0  0  0
   39.8200   23.0090   34.1260 C   0  0  0  0  0  0  0  0  0  0  0  0
   38.4980   23.2310   34.3590 C   0  0  0  0  0  0  0  0  0  0  0  0
   38.1150   23.3970   35.6550 N   0  0  0  0  0  0  0  0  0  0  0  0
   38.9780   23.3470   36.6760 C   0  0  0  0  0  0  0  0  0  0  0  0
   40.2740   23.1230   36.4310 N   0  0  0  0  0  0  0  0  0  0  0  0
   41.7810   22.7860   35.1780 H   0  0  0  0  0  0  0  0  0  0  0  0
   40.4290   22.8820   33.2620 H   0  0  0  0  0  0  0  0  0  0  0  0
   38.4330   23.6150   38.0320 C   0  0  0  0  0  0  0  0  0  0  0  0
   39.4040   23.5160   39.0100 F   0  0  0  0  0  0  0  0  0  0  0  0
   38.0560   25.0090   38.1130 F   0  0  0  0  0  0  0  0  0  0  0  0
   37.3350   22.9800   38.3740 F   0  0  0  0  0  0  0  0  0  0  0  0
   37.6250   25.9950   33.3220 S   0  0  0  0  0  0  0  0  0  0  0  0
   36.8950   26.3570   34.5630 O   0  0  0  0  0  0  0  0  0  0  0  0
   36.7890   26.8340   32.3800 O   0  0  0  0  0  0  0  0  0  0  0  0
   38.9480   26.9200   32.8410 C   0  0  0  0  0  0  0  0  0  0  0  0
   38.9750   26.8210   31.6800 H   0  0  0  0  0  0  0  0  0  0  0  0
   38.7810   28.0090   32.9150 H   0  0  0  0  0  0  0  0  0  0  0  0
   40.2610   26.5140   33.1850 N   0  0  0  0  0  0  0  0  0  0  0  0
   41.1850   25.9840   32.3480 C   0  0  0  0  0  3  0  0  0  0  0  0
   42.4550   25.6030   32.7310 C   0  0  0  0  0  0  0  0  0  0  0  0
   43.1390   25.1800   31.9800 H   0  0  0  0  0  0  0  0  0  0  0  0
   42.7870   25.7820   34.0630 C   0  0  0  0  0  0  0  0  0  0  0  0
   43.9360   25.4340   34.3990 O   0  0  0  0  0  0  0  0  0  0  0  0
   41.8750   26.3120   34.9190 N   0  0  0  0  0  0  0  0  0  0  0  0
   40.6750   26.6530   34.4750 C   0  0  0  0  0  0  0  0  0  0  0  0
   39.8820   27.1430   35.3470 O   0  0  0  0  0  0  0  0  0  0  0  0
   42.1770   26.4250   35.9120 H   0  0  0  0  0  0  0  0  0  0  0  0
  1  2  1  0  0  0  0
  1 23  1  0  0  0  0
  2 13  1  0  0  0  0
  3  7  1  0  0  0  0
  3  2  2  0  0  0  0
  4  3  1  0  0  0  0
  5  4  2  0  0  0  0
  5  6  1  0  0  0  0
  6  1  2  0  0  0  0
  8  4  1  0  0  0  0
  9  5  1  0  0  0  0
 10  6  1  0  0  0  0
 11 16  1  0  0  0  0
 12 13  1  0  0  0  0
 12 11  2  0  0  0  0
 13 14  2  0  0  0  0
 14 15  1  0  0  0  0
 15 19  1  0  0  0  0
 16 15  2  0  0  0  0
 17 11  1  0  0  0  0
 18 12  1  0  0  0  0
 19 21  1  0  0  0  0
 19 22  1  0  0  0  0
 19 20  1  0  0  0  0
 23 24  2  0  0  0  0
 25 23  2  0  0  0  0
 26 28  1  0  0  0  0
 26 29  1  0  0  0  0
 26 23  1  0  0  0  0
 27 26  1  0  0  0  0
 29 36  1  0  0  0  0
 30 31  2  0  0  0  0
 30 29  1  0  0  0  0
 31 33  1  0  0  0  0
 32 31  1  0  0  0  0
 33 34  2  0  0  0  0
 33 35  1  0  0  0  0
 35 38  1  0  0  0  0
 36 35  1  0  0  0  0
 36 37  2  0  0  0  0
M  END
>  <minimizedAffinity>
-5.98413897

$$$$

 OpenBabel03272510053D

 38 40  0  0  0  0  0  0  0  0999 V2000
   39.8260   24.3250   35.1070 C   0  0  0  0  0  0  0  0  0  0  0  0
   39.8450   25.1570   34.0350 C   0  0  0  0  0  0  0  0  0  0  0  0
   41.0610   25.5390   33.4780 C   0  0  0  0  0  0  0  0  0  0  0  0
   42.2720   25.1010   33.9820 C   0  0  0  0  0  0  0  0  0  0  0  0
   42.2880   24.2670   35.0620 C   0  0  0  0  0  0  0  0  0  0  0  0
   41.0750   23.9100   35.5850 C   0  0  0  0  0  0  0  0  0  0  0  0
   41.0440   26.2130   32.6070 H   0  0  0  0  0  0  0  0  0  0  0  0
   43.1480   25.4590   33.4700 H   0  0  0  0  0  0  0  0  0  0  0  0
   43.2480   23.9680   35.4030 H   0  0  0  0  0  0  0  0  0  0  0  0
   41.2200   23.2440   36.4460 H   0  0  0  0  0  0  0  0  0  0  0  0
   37.1160   27.5110   33.3100 C   0  0  0  0  0  0  0  0  0  0  0  0
   38.2810   26.9590   33.8200 C   0  0  0  0  0  0  0  0  0  0  0  0
   38.6470   25.6930   33.4810 C   0  0  0  0  0  0  0  0  0  0  0  0
   37.8280   25.0150   32.6300 N   0  0  0  0  0  0  0  0  0  0  0  0
   36.7050   25.5450   32.1340 C   0  0  0  0  0  0  0  0  0  0  0  0
   36.3560   26.7890   32.4800 N   0  0  0  0  0  0  0  0  0  0  0  0
   36.6810   28.4810   33.4720 H   0  0  0  0  0  0  0  0  0  0  0  0
   38.7020   27.7400   34.4070 H   0  0  0  0  0  0  0  0  0  0  0  0
   35.9430   24.7190   31.1620 C   0  0  0  0  0  0  0  0  0  0  0  0
   36.7690   23.9090   30.4090 F   0  0  0  0  0  0  0  0  0  0  0  0
   35.1510   23.7540   31.8940 F   0  0  0  0  0  0  0  0  0  0  0  0
   35.0580   25.3380   30.4140 F   0  0  0  0  0  0  0  0  0  0  0  0
   38.3830   23.7470   35.8520 S   0  0  0  0  0  0  0  0  0  0  0  0
   37.5350   24.8770   36.3090 O   0  0  0  0  0  0  0  0  0  0  0  0
   38.9680   23.4130   37.2080 O   0  0  0  0  0  0  0  0  0  0  0  0
   37.7440   22.1880   35.8350 C   0  0  0  0  0  0  0  0  0  0  0  0
   38.6570   21.4900   36.0240 H   0  0  0  0  0  0  0  0  0  0  0  0
   37.1510   21.9410   36.7330 H   0  0  0  0  0  0  0  0  0  0  0  0
   37.2240   21.6480   34.6330 N   0  0  0  0  0  0  0  0  0  0  0  0
   37.7880   21.7280   33.4040 C   0  0  0  0  0  3  0  0  0  0  0  0
   37.2420   21.1830   32.2590 C   0  0  0  0  0  0  0  0  0  0  0  0
   37.7730   21.2990   31.3030 H   0  0  0  0  0  0  0  0  0  0  0  0
   36.0380   20.5150   32.3980 C   0  0  0  0  0  0  0  0  0  0  0  0
   35.5530   20.0270   31.3580 O   0  0  0  0  0  0  0  0  0  0  0  0
   35.4550   20.4230   33.6220 N   0  0  0  0  0  0  0  0  0  0  0  0
   36.0410   20.9730   34.6740 C   0  0  0  0  0  0  0  0  0  0  0  0
   35.4240   20.8380   35.7830 O   0  0  0  0  0  0  0  0  0  0  0  0
   34.5480   19.9080   33.6690 H   0  0  0  0  0  0  0  0  0  0  0  0
  1  6  1  0  0  0  0
  1 23  1  0  0  0  0
  2  1  2  0  0  0  0
  3  4  2  0  0  0  0
  3  2  1  0  0  0  0
  4  5  1  0  0  0  0
  5  9  1  0  0  0  0
  5  6  2  0  0  0  0
  6 10  1  0  0  0  0
  7  3  1  0  0  0  0
  8  4  1  0  0  0  0
 11 17  1  0  0  0  0
 11 12  1  0  0  0  0
 12 18  1  0  0  0  0
 13 12  2  0  0  0  0
 13  2  1  0  0  0  0
 14 13  1  0  0  0  0
 15 16  1  0  0  0  0
 15 14  2  0  0  0  0
 16 11  2  0  0  0  0
 19 21  1  0  0  0  0
 19 15  1  0  0  0  0
 20 19  1  0  0  0  0
 22 19  1  0  0  0  0
 23 24  2  0  0  0  0
 23 25  2  0  0  0  0
 26 23  1  0  0  0  0
 26 27  1  0  0  0  0
 26 28  1  0  0  0  0
 29 36  1  0  0  0  0
 29 26  1  0  0  0  0
 30 29  1  0  0  0  0
 31 33  1  0  0  0  0
 31 30  2  0  0  0  0
 32 31  1  0  0  0  0
 33 35  1  0  0  0  0
 34 33  2  0  0  0  0
 35 38  1  0  0  0  0
 35 36  1  0  0  0  0
 36 37  2  0  0  0  0
M  END
>  <minimizedAffinity>
-5.90347147

$$$$

 OpenBabel03272510053D

 38 40  0  0  0  0  0  0  0  0999 V2000
   37.7110   25.8610   31.6710 C   0  0  0  0  0  0  0  0  0  0  0  0
   36.4740   26.4110   31.5590 C   0  0  0  0  0  0  0  0  0  0  0  0
   35.3950   25.6140   31.1900 C   0  0  0  0  0  0  0  0  0  0  0  0
   35.5330   24.2640   30.9260 C   0  0  0  0  0  0  0  0  0  0  0  0
   36.7630   23.6820   31.0260 C   0  0  0  0  0  0  0  0  0  0  0  0
   37.8030   24.4930   31.3910 C   0  0  0  0  0  0  0  0  0  0  0  0
   34.4040   26.0880   31.1110 H   0  0  0  0  0  0  0  0  0  0  0  0
   34.6300   23.7470   30.6520 H   0  0  0  0  0  0  0  0  0  0  0  0
   36.8050   22.6430   30.8080 H   0  0  0  0  0  0  0  0  0  0  0  0
   38.7340   23.9120   31.4330 H   0  0  0  0  0  0  0  0  0  0  0  0
   36.1880   30.0120   30.8770 C   0  0  0  0  0  0  0  0  0  0  0  0
   36.3860   28.6490   30.7120 C   0  0  0  0  0  0  0  0  0  0  0  0
   36.2510   27.8020   31.7670 C   0  0  0  0  0  0  0  0  0  0  0  0
   35.9140   28.3510   32.9670 N   0  0  0  0  0  0  0  0  0  0  0  0
   35.7190   29.6640   33.1300 C   0  0  0  0  0  0  0  0  0  0  0  0
   35.8590   30.4850   32.0840 N   0  0  0  0  0  0  0  0  0  0  0  0
   36.2550   30.8130   30.1630 H   0  0  0  0  0  0  0  0  0  0  0  0
   36.5940   28.5430   29.6740 H   0  0  0  0  0  0  0  0  0  0  0  0
   35.2860   30.1180   34.4770 C   0  0  0  0  0  0  0  0  0  0  0  0
   36.3350   30.1520   35.3750 F   0  0  0  0  0  0  0  0  0  0  0  0
   34.9070   31.5120   34.3970 F   0  0  0  0  0  0  0  0  0  0  0  0
   34.2250   29.5410   34.9930 F   0  0  0  0  0  0  0  0  0  0  0  0
   39.1120   26.7370   32.1650 S   0  0  0  0  0  0  0  0  0  0  0  0
   39.5180   27.7150   31.1240 O   0  0  0  0  0  0  0  0  0  0  0  0
   40.1460   25.6840   31.8230 O   0  0  0  0  0  0  0  0  0  0  0  0
   39.8170   26.8150   33.6930 C   0  0  0  0  0  0  0  0  0  0  0  0
   40.9010   26.4180   33.5420 H   0  0  0  0  0  0  0  0  0  0  0  0
   40.0560   27.8420   34.0210 H   0  0  0  0  0  0  0  0  0  0  0  0
   39.3540   25.9710   34.7320 N   0  0  0  0  0  0  0  0  0  0  0  0
   39.6570   24.6620   34.9010 C   0  0  0  0  0  3  0  0  0  0  0  0
   39.1800   23.8780   35.9330 C   0  0  0  0  0  0  0  0  0  0  0  0
   39.4800   22.8220   35.9900 H   0  0  0  0  0  0  0  0  0  0  0  0
   38.3370   24.4910   36.8450 C   0  0  0  0  0  0  0  0  0  0  0  0
   37.9120   23.7750   37.7720 O   0  0  0  0  0  0  0  0  0  0  0  0
   38.0210   25.8030   36.6940 N   0  0  0  0  0  0  0  0  0  0  0  0
   38.5190   26.4880   35.6770 C   0  0  0  0  0  0  0  0  0  0  0  0
   38.1690   27.7140   35.6120 O   0  0  0  0  0  0  0  0  0  0  0  0
   37.3820   26.2150   37.4100 H   0  0  0  0  0  0  0  0  0  0  0  0
  1 23  1  0  0  0  0
  2  1  1  0  0  0  0
  2 13  1  0  0  0  0
  3  2  2  0  0  0  0
  4  5  2  0  0  0  0
  4  3  1  0  0  0  0
  5  6  1  0  0  0  0
  6 10  1  0  0  0  0
  6  1  2  0  0  0  0
  7  3  1  0  0  0  0
  8  4  1  0  0  0  0
  9  5  1  0  0  0  0
 11 16  1  0  0  0  0
 12 11  2  0  0  0  0
 12 13  1  0  0  0  0
 13 14  2  0  0  0  0
 14 15  1  0  0  0  0
 15 19  1  0  0  0  0
 16 15  2  0  0  0  0
 17 11  1  0  0  0  0
 18 12  1  0  0  0  0
 19 22  1  0  0  0  0
 19 20  1  0  0  0  0
 21 19  1  0  0  0  0
 23 26  1  0  0  0  0
 24 23  2  0  0  0  0
 25 23  2  0  0  0  0
 26 28  1  0  0  0  0
 26 29  1  0  0  0  0
 27 26  1  0  0  0  0
 29 30  1  0  0  0  0
 29 36  1  0  0  0  0
 30 31  2  0  0  0  0
 31 32  1  0  0  0  0
 31 33  1  0  0  0  0
 33 34  2  0  0  0  0
 35 33  1  0  0  0  0
 35 38  1  0  0  0  0
 36 35  1  0  0  0  0
 37 36  2  0  0  0  0
M  END
>  <minimizedAffinity>
-5.86952305

$$$$

 OpenBabel03272510053D

 38 40  0  0  0  0  0  0  0  0999 V2000
   38.0850   24.9730   35.3550 C   0  0  0  0  0  0  0  0  0  0  0  0
   38.1840   23.6350   35.1490 C   0  0  0  0  0  0  0  0  0  0  0  0
   38.2680   22.7730   36.2380 C   0  0  0  0  0  0  0  0  0  0  0  0
   38.2560   23.2310   37.5430 C   0  0  0  0  0  0  0  0  0  0  0  0
   38.1620   24.5700   37.7840 C   0  0  0  0  0  0  0  0  0  0  0  0
   38.0810   25.3910   36.6910 C   0  0  0  0  0  0  0  0  0  0  0  0
   38.3450   21.6920   36.0400 H   0  0  0  0  0  0  0  0  0  0  0  0
   38.3240   22.4740   38.3040 H   0  0  0  0  0  0  0  0  0  0  0  0
   38.1610   24.8600   38.8060 H   0  0  0  0  0  0  0  0  0  0  0  0
   38.0130   26.4380   37.0140 H   0  0  0  0  0  0  0  0  0  0  0  0
   39.5740   22.4120   31.9730 C   0  0  0  0  0  0  0  0  0  0  0  0
   39.4690   22.9370   33.2520 C   0  0  0  0  0  0  0  0  0  0  0  0
   38.2510   23.0810   33.8390 C   0  0  0  0  0  0  0  0  0  0  0  0
   37.1630   22.6880   33.1190 N   0  0  0  0  0  0  0  0  0  0  0  0
   37.2590   22.1780   31.8870 C   0  0  0  0  0  0  0  0  0  0  0  0
   38.4650   22.0460   31.3220 N   0  0  0  0  0  0  0  0  0  0  0  0
   40.4440   22.2340   31.3670 H   0  0  0  0  0  0  0  0  0  0  0  0
   40.4780   23.1040   33.5460 H   0  0  0  0  0  0  0  0  0  0  0  0
   35.9980   21.7250   31.2450 C   0  0  0  0  0  0  0  0  0  0  0  0
   36.1900   20.6090   30.4550 F   0  0  0  0  0  0  0  0  0  0  0  0
   35.1100   21.2250   32.2720 F   0  0  0  0  0  0  0  0  0  0  0  0
   35.2760   22.6350   30.6320 F   0  0  0  0  0  0  0  0  0  0  0  0
   37.9290   26.1330   34.0890 S   0  0  0  0  0  0  0  0  0  0  0  0
   39.1760   26.9250   33.9410 O   0  0  0  0  0  0  0  0  0  0  0  0
   37.1520   27.1790   34.8600 O   0  0  0  0  0  0  0  0  0  0  0  0
   36.7370   26.2390   32.9030 C   0  0  0  0  0  0  0  0  0  0  0  0
   36.7340   25.1940   32.3890 H   0  0  0  0  0  0  0  0  0  0  0  0
   35.7080   26.2340   33.3050 H   0  0  0  0  0  0  0  0  0  0  0  0
   36.9170   27.0970   31.7900 N   0  0  0  0  0  0  0  0  0  0  0  0
   36.4340   28.3550   31.6570 C   0  0  0  0  0  3  0  0  0  0  0  0
   36.6380   29.1550   30.5510 C   0  0  0  0  0  0  0  0  0  0  0  0
   36.2060   30.1660   30.5300 H   0  0  0  0  0  0  0  0  0  0  0  0
   37.3880   28.6160   29.5190 C   0  0  0  0  0  0  0  0  0  0  0  0
   37.5650   29.3450   28.5240 O   0  0  0  0  0  0  0  0  0  0  0  0
   37.8820   27.3550   29.6330 N   0  0  0  0  0  0  0  0  0  0  0  0
   37.6430   26.6500   30.7280 C   0  0  0  0  0  0  0  0  0  0  0  0
   38.1440   25.4760   30.7490 O   0  0  0  0  0  0  0  0  0  0  0  0
   38.4400   26.9980   28.8260 H   0  0  0  0  0  0  0  0  0  0  0  0
  1  6  1  0  0  0  0
  2  1  2  0  0  0  0
  2  3  1  0  0  0  0
  3  4  2  0  0  0  0
  4  5  1  0  0  0  0
  4  8  1  0  0  0  0
  5  9  1  0  0  0  0
  6 10  1  0  0  0  0
  6  5  2  0  0  0  0
  7  3  1  0  0  0  0
 11 12  1  0  0  0  0
 12 18  1  0  0  0  0
 12 13  2  0  0  0  0
 13  2  1  0  0  0  0
 14 13  1  0  0  0  0
 15 14  2  0  0  0  0
 16 15  1  0  0  0  0
 16 11  2  0  0  0  0
 17 11  1  0  0  0  0
 19 15  1  0  0  0  0
 19 21  1  0  0  0  0
 20 19  1  0  0  0  0
 22 19  1  0  0  0  0
 23 25  2  0  0  0  0
 23  1  1  0  0  0  0
 24 23  2  0  0  0  0
 26 28  1  0  0  0  0
 26 23  1  0  0  0  0
 27 26  1  0  0  0  0
 29 26  1  0  0  0  0
 30 29  1  0  0  0  0
 31 30  2  0  0  0  0
 32 31  1  0  0  0  0
 33 35  1  0  0  0  0
 33 31  1  0  0  0  0
 34 33  2  0  0  0  0
 35 36  1  0  0  0  0
 36 37  2  0  0  0  0
 36 29  1  0  0  0  0
 38 35  1  0  0  0  0
M  END
>  <minimizedAffinity>
-5.82896709

$$$$
