
 OpenBabel03272509433D

 39 41  0  0  1  0  0  0  0  0999 V2000
   37.1380   30.9390   49.0370 C   0  0  0  0  0  0  0  0  0  0  0  0
   36.8930   31.8840   50.0350 C   0  0  0  0  0  0  0  0  0  0  0  0
   37.4730   33.1400   50.0190 C   0  0  0  0  0  0  0  0  0  0  0  0
   38.3390   33.4790   48.9680 C   0  0  0  0  0  0  0  0  0  0  0  0
   38.5700   32.5430   47.9970 C   0  0  0  0  0  0  0  0  0  0  0  0
   37.9670   31.2940   48.0500 C   0  0  0  0  0  0  0  0  0  0  0  0
   36.2200   31.6080   50.8420 H   0  0  0  0  0  0  0  0  0  0  0  0
   37.2220   33.7900   50.8300 H   0  0  0  0  0  0  0  0  0  0  0  0
   38.7380   34.4640   49.0380 H   0  0  0  0  0  0  0  0  0  0  0  0
   39.2560   32.9510   47.2590 H   0  0  0  0  0  0  0  0  0  0  0  0
   36.5530   29.6170   49.0810 C   0  0  2  0  0  0  0  0  0  0  0  0
   37.0490   29.0380   48.2100 H   0  0  0  0  0  0  0  0  0  0  0  0
   33.5800   30.0020   47.0280 C   0  0  0  0  0  0  0  0  0  0  0  0
   32.9260   28.7910   47.1550 C   0  0  0  0  0  0  0  0  0  0  0  0
   33.4700   27.8400   48.0050 C   0  0  0  0  0  0  0  0  0  0  0  0
   34.6320   28.1340   48.6840 N   0  0  0  0  0  0  0  0  0  0  0  0
   35.2080   29.3070   48.5170 C   0  0  0  0  0  0  0  0  0  0  0  0
   34.6930   30.2420   47.6980 N   0  0  0  0  0  0  0  0  0  0  0  0
   33.1700   30.7480   46.3720 H   0  0  0  0  0  0  0  0  0  0  0  0
   32.0220   28.6510   46.5820 H   0  0  0  0  0  0  0  0  0  0  0  0
   32.9710   26.9010   48.1110 H   0  0  0  0  0  0  0  0  0  0  0  0
   37.0310   28.8960   50.0340 O   0  0  0  0  0  0  0  0  0  0  0  0
   36.6520   29.1360   50.9290 H   0  0  0  0  0  0  0  0  0  0  0  0
   38.3210   30.3950   46.9760 C   0  0  0  0  0  3  0  0  0  0  0  0
   38.8960   30.7910   45.8340 C   0  0  0  0  0  3  0  0  0  0  0  0
   39.3340   29.9580   44.6910 C   0  0  0  0  0  0  0  0  0  0  0  0
   38.9200   28.9270   44.8550 H   0  0  0  0  0  0  0  0  0  0  0  0
   40.4160   29.8430   44.6520 H   0  0  0  0  0  0  0  0  0  0  0  0
   38.6070   30.5850   43.1730 S   0  0  0  0  0  0  0  0  0  0  0  0
   34.2170   28.8870   43.9110 H   0  0  0  0  0  0  0  0  0  0  0  0
   34.7880   29.7280   43.6980 N   0  0  0  0  0  0  0  0  0  0  0  0
   36.1410   29.6720   43.5800 C   0  0  0  0  0  3  0  0  0  0  0  0
   36.8560   30.8240   43.2930 C   0  0  0  0  0  0  0  0  0  0  0  0
   36.1560   32.0020   43.1360 C   0  0  0  0  0  0  0  0  0  0  0  0
   36.8740   32.9990   42.8790 O   0  0  0  0  0  0  0  0  0  0  0  0
   34.8180   32.0650   43.2510 N   0  0  0  0  0  0  0  0  0  0  0  0
   34.1680   30.9130   43.5310 C   0  0  0  0  0  0  0  0  0  0  0  0
   32.8990   30.9380   43.6460 O   0  0  0  0  0  0  0  0  0  0  0  0
   34.3530   32.9840   43.1210 H   0  0  0  0  0  0  0  0  0  0  0  0
  1 11  1  0  0  0  0
  1  2  1  0  0  0  0
  2  7  1  0  0  0  0
  3  2  2  0  0  0  0
  3  8  1  0  0  0  0
  4  9  1  0  0  0  0
  4  3  1  0  0  0  0
  5  6  1  0  0  0  0
  5  4  2  0  0  0  0
  6  1  2  0  0  0  0
 10  5  1  0  0  0  0
 11 12  1  6  0  0  0
 11 22  1  0  0  0  0
 13 14  2  0  0  0  0
 13 18  1  0  0  0  0
 14 15  1  0  0  0  0
 15 21  1  0  0  0  0
 15 16  2  0  0  0  0
 17 16  1  0  0  0  0
 17 11  1  0  0  0  0
 18 17  2  0  0  0  0
 19 13  1  0  0  0  0
 20 14  1  0  0  0  0
 22 23  1  0  0  0  0
 24  6  1  0  0  0  0
 25 24  2  0  0  0  0
 26 27  1  0  0  0  0
 26 25  1  0  0  0  0
 28 26  1  0  0  0  0
 29 33  1  0  0  0  0
 29 26  1  0  0  0  0
 31 30  1  0  0  0  0
 32 31  1  0  0  0  0
 33 32  2  0  0  0  0
 34 36  1  0  0  0  0
 34 33  1  0  0  0  0
 35 34  2  0  0  0  0
 36 37  1  0  0  0  0
 37 38  2  0  0  0  0
 37 31  1  0  0  0  0
 39 36  1  0  0  0  0
M  END
>  <minimizedAffinity>
-5.8155055

>  <minimizedRMSD>
0.956629395

$$$$
