
 OpenBabel03262520123D

 43 45  0  0  0  0  0  0  0  0999 V2000
   35.2880   30.3840   49.3890 C   0  0  0  0  0  0  0  0  0  0  0  0
   35.0440   31.4230   49.7470 H   0  0  0  0  0  0  0  0  0  0  0  0
   36.1710   30.0760   50.0140 H   0  0  0  0  0  0  0  0  0  0  0  0
   38.1880   31.5680   48.9420 Br  0  0  0  0  0  0  0  0  0  0  0  0
   36.9650   30.9340   47.5990 C   0  0  0  0  0  0  0  0  0  0  0  0
   37.3160   30.9650   46.2740 C   0  0  0  0  0  0  0  0  0  0  0  0
   36.4030   30.5110   45.3600 C   0  0  0  0  0  0  0  0  0  0  0  0
   35.1550   30.0270   45.7270 C   0  0  0  0  0  0  0  0  0  0  0  0
   34.8360   30.0120   47.0920 C   0  0  0  0  0  0  0  0  0  0  0  0
   35.7460   30.4650   48.0070 C   0  0  0  0  0  0  0  0  0  0  0  0
   36.7340   30.5560   44.3090 H   0  0  0  0  0  0  0  0  0  0  0  0
   34.5550   29.7080   44.8910 H   0  0  0  0  0  0  0  0  0  0  0  0
   33.8500   29.6270   47.1620 H   0  0  0  0  0  0  0  0  0  0  0  0
   39.8520   33.2740   45.0310 C   0  0  0  0  0  0  0  0  0  0  0  0
   41.0420   32.4930   45.0120 C   0  0  0  0  0  0  0  0  0  0  0  0
   40.9360   31.1820   45.4320 C   0  0  0  0  0  0  0  0  0  0  0  0
   39.7200   30.6830   45.8440 N   0  0  0  0  0  0  0  0  0  0  0  0
   38.6240   31.4700   45.8410 C   0  0  0  0  0  0  0  0  0  0  0  0
   38.7040   32.7460   45.4370 N   0  0  0  0  0  0  0  0  0  0  0  0
   39.9610   34.2870   44.7000 H   0  0  0  0  0  0  0  0  0  0  0  0
   41.9890   32.9120   44.6820 H   0  0  0  0  0  0  0  0  0  0  0  0
   41.8180   30.5540   45.4330 H   0  0  0  0  0  0  0  0  0  0  0  0
   34.1780   29.4430   49.6840 C   0  0  0  0  0  0  0  0  0  0  0  0
   33.2180   29.7640   49.3270 H   0  0  0  0  0  0  0  0  0  0  0  0
   34.0670   29.5190   50.8230 H   0  0  0  0  0  0  0  0  0  0  0  0
   34.6250   28.1150   49.4720 N   0  0  0  0  0  0  0  0  0  0  0  0
   35.0370   27.6310   50.2890 H   0  0  0  0  0  0  0  0  0  0  0  0
   33.8210   27.2720   48.6680 C   0  0  0  0  0  0  0  0  0  0  0  0
   34.1870   27.2570   47.6180 H   0  0  0  0  0  0  0  0  0  0  0  0
   33.9250   26.2370   49.0350 H   0  0  0  0  0  0  0  0  0  0  0  0
   32.4120   27.7720   48.7090 C   0  0  0  0  0  0  0  0  0  0  0  0
   31.8300   27.3510   49.5580 H   0  0  0  0  0  0  0  0  0  0  0  0
   32.2040   28.8020   48.4910 H   0  0  0  0  0  0  0  0  0  0  0  0
   31.7770   27.0860   47.5360 N   0  0  0  0  0  0  0  0  0  0  0  0
   31.6610   25.7250   47.5260 C   0  0  0  0  0  3  0  0  0  0  0  0
   31.0790   25.0760   46.4570 C   0  0  0  0  0  0  0  0  0  0  0  0
   30.9860   24.0070   46.4440 H   0  0  0  0  0  0  0  0  0  0  0  0
   30.6080   25.8030   45.3850 C   0  0  0  0  0  0  0  0  0  0  0  0
   30.0670   25.2860   44.3770 O   0  0  0  0  0  0  0  0  0  0  0  0
   30.7440   27.1380   45.4400 N   0  0  0  0  0  0  0  0  0  0  0  0
   31.3060   27.7950   46.4700 C   0  0  0  0  0  0  0  0  0  0  0  0
   31.4530   29.0280   46.5630 O   0  0  0  0  0  0  0  0  0  0  0  0
   30.4240   27.7990   44.6840 H   0  0  0  0  0  0  0  0  0  0  0  0
  1 23  1  0  0  0  0
  1  2  1  0  0  0  0
  1  3  1  0  0  0  0
  5 10  1  0  0  0  0
  5  4  1  0  0  0  0
  6  5  2  0  0  0  0
  7  8  2  0  0  0  0
  7  6  1  0  0  0  0
  8  9  1  0  0  0  0
  9 13  1  0  0  0  0
  9 10  2  0  0  0  0
 10  1  1  0  0  0  0
 11  7  1  0  0  0  0
 12  8  1  0  0  0  0
 14 19  1  0  0  0  0
 15 14  2  0  0  0  0
 15 16  1  0  0  0  0
 16 22  1  0  0  0  0
 16 17  2  0  0  0  0
 18 17  1  0  0  0  0
 18  6  1  0  0  0  0
 19 18  2  0  0  0  0
 20 14  1  0  0  0  0
 21 15  1  0  0  0  0
 23 25  1  0  0  0  0
 24 23  1  0  0  0  0
 26 23  1  0  0  0  0
 26 27  1  0  0  0  0
 28 31  1  0  0  0  0
 28 30  1  0  0  0  0
 28 26  1  0  0  0  0
 29 28  1  0  0  0  0
 31 32  1  0  0  0  0
 33 31  1  0  0  0  0
 34 31  1  0  0  0  0
 35 34  1  0  0  0  0
 36 35  2  0  0  0  0
 37 36  1  0  0  0  0
 38 40  1  0  0  0  0
 38 36  1  0  0  0  0
 39 38  2  0  0  0  0
 40 41  1  0  0  0  0
 41 42  2  0  0  0  0
 41 34  1  0  0  0  0
 43 40  1  0  0  0  0
M  END
>  <minimizedAffinity>
-5.23800945

>  <minimizedRMSD>
1.01344633

$$$$
