
 OpenBabel03272507333D

 37 40  0  0  1  0  0  0  0  0999 V2000
   33.1410   27.4770   48.2030 C   0  0  0  0  0  0  0  0  0  0  0  0
   31.9040   27.4160   48.5090 O   0  0  0  0  0  0  0  0  0  0  0  0
   35.8580   29.1530   49.8120 C   0  0  0  0  0  0  0  0  0  0  0  0
   34.8210   29.6460   50.5780 C   0  0  0  0  0  0  0  0  0  0  0  0
   33.6340   29.0890   50.0840 C   0  0  0  0  0  0  0  0  0  0  0  0
   34.0290   28.2840   49.0390 C   0  0  0  0  0  0  0  0  0  0  0  0
   35.3370   28.3520   48.9170 O   0  0  0  0  0  0  0  0  0  0  0  0
   34.8590   30.3420   51.4230 H   0  0  0  0  0  0  0  0  0  0  0  0
   32.6450   29.2860   50.4800 H   0  0  0  0  0  0  0  0  0  0  0  0
   37.2420   29.5250   50.0500 C   0  0  0  0  0  0  0  0  0  0  0  0
   37.8810   28.9410   50.9370 O   0  0  0  0  0  0  0  0  0  0  0  0
   37.7890   30.5670   49.2220 C   0  0  0  0  0  0  0  0  0  0  0  0
   38.1280   31.7600   49.8460 C   0  0  0  0  0  0  0  0  0  0  0  0
   38.6590   32.7900   49.0680 C   0  0  0  0  0  0  0  0  0  0  0  0
   38.8170   32.5620   47.7180 N   0  0  0  0  0  0  0  0  0  0  0  0
   38.4810   31.4030   47.1540 C   0  0  0  0  0  0  0  0  0  0  0  0
   37.9690   30.4040   47.8910 N   0  0  0  0  0  0  0  0  0  0  0  0
   37.9930   31.9060   50.9030 H   0  0  0  0  0  0  0  0  0  0  0  0
   38.9230   33.7180   49.5530 H   0  0  0  0  0  0  0  0  0  0  0  0
   38.6360   31.3060   46.0900 H   0  0  0  0  0  0  0  0  0  0  0  0
   33.6770   26.7330   47.0150 C   0  0  1  0  0  0  0  0  0  0  0  0
   33.7650   25.1900   47.3470 C   0  0  0  0  0  0  0  0  0  0  0  0
   32.8560   25.7440   46.3180 C   0  0  2  0  0  0  0  0  0  0  0  0
   34.6760   27.0740   46.6750 H   0  0  0  0  0  0  0  0  0  0  0  0
   33.3880   24.8660   48.3140 H   0  0  0  0  0  0  0  0  0  0  0  0
   34.6680   24.6730   46.9930 H   0  0  0  0  0  0  0  0  0  0  0  0
   31.7750   25.7370   46.6490 H   0  0  0  0  0  0  0  0  0  0  0  0
   33.0430   25.5840   44.9120 N   0  0  0  0  0  0  0  0  0  0  0  0
   34.2340   25.8950   44.3160 C   0  0  0  0  0  0  0  0  0  0  0  0
   34.4230   25.7430   42.9570 C   0  0  0  0  0  0  0  0  0  0  0  0
   35.4160   26.0280   42.6150 H   0  0  0  0  0  0  0  0  0  0  0  0
   33.4210   25.2710   42.1370 C   0  0  0  0  0  0  0  0  0  0  0  0
   33.7380   25.1870   40.9220 O   0  0  0  0  0  0  0  0  0  0  0  0
   32.2530   24.9670   42.7320 N   0  0  0  0  0  0  0  0  0  0  0  0
   32.1110   25.1300   44.0580 C   0  0  0  0  0  0  0  0  0  0  0  0
   30.9830   24.8130   44.4850 O   0  0  0  0  0  0  0  0  0  0  0  0
   31.5160   24.6150   42.0910 H   0  0  0  0  0  0  0  0  0  0  0  0
  1  2  2  0  0  0  0
  1  6  1  0  0  0  0
  3 10  1  0  0  0  0
  3  4  2  0  0  0  0
  4  8  1  0  0  0  0
  5  9  1  0  0  0  0
  5  4  1  0  0  0  0
  6  5  2  0  0  0  0
  7  6  1  0  0  0  0
  7  3  1  0  0  0  0
 10 11  2  0  0  0  0
 12 13  1  0  0  0  0
 12 10  1  0  0  0  0
 13 18  1  0  0  0  0
 14 19  1  0  0  0  0
 14 13  2  0  0  0  0
 15 14  1  0  0  0  0
 16 15  2  0  0  0  0
 16 17  1  0  0  0  0
 17 12  2  0  0  0  0
 20 16  1  0  0  0  0
 21 24  1  6  0  0  0
 21 22  1  0  0  0  0
 21  1  1  0  0  0  0
 22 25  1  0  0  0  0
 23 27  1  1  0  0  0
 23 21  1  0  0  0  0
 23 22  1  0  0  0  0
 26 22  1  0  0  0  0
 28 23  1  0  0  0  0
 29 28  1  0  0  0  0
 30 29  2  0  0  0  0
 31 30  1  0  0  0  0
 32 34  1  0  0  0  0
 32 30  1  0  0  0  0
 33 32  2  0  0  0  0
 34 35  1  0  0  0  0
 35 36  2  0  0  0  0
 35 28  1  0  0  0  0
 37 34  1  0  0  0  0
M  END
>  <minimizedAffinity>
-4.91632938

>  <minimizedRMSD>
1.00755787

$$$$
