REMARK  Name = 
REMARK  1 active torsions:
REMARK  status: ('A' for Active; 'I' for Inactive)
REMARK    1  A    between atoms: C_1  and  O_7
REMARK                            x       y       z     vdW  Elec       q    Type
REMARK                         _______ _______ _______ _____ _____    ______ ____
ROOT
ATOM      1  C   UNL     1      37.306  29.992  51.187  0.00  0.00    +0.000 A 
ATOM      2  C   UNL     1      37.952  30.912  50.360  0.00  0.00    +0.000 A 
ATOM      3  C   UNL     1      37.271  31.390  49.227  0.00  0.00    +0.000 A 
ATOM      4  N   UNL     1      36.011  30.930  48.992  0.00  0.00    +0.000 NA
ATOM      5  C   UNL     1      35.409  30.032  49.816  0.00  0.00    +0.000 A 
ATOM      6  N   UNL     1      36.058  29.580  50.892  0.00  0.00    +0.000 NA
ATOM      7  H   UNL     1      38.967  31.296  50.533  0.00  0.00    +0.000 HD
ATOM      8  H   UNL     1      37.733  32.100  48.566  0.00  0.00    +0.000 HD
ATOM      9  N   UNL     1      34.092  29.547  49.575  0.00  0.00    +0.000 N 
ATOM     10  C   UNL     1      33.710  29.032  48.395  0.00  0.00    +0.000 A 
ATOM     11  C   UNL     1      32.394  28.587  48.270  0.00  0.00    +0.000 A 
ATOM     12  H   UNL     1      32.121  28.178  47.303  0.00  0.00    +0.000 HD
ATOM     13  C   UNL     1      31.537  28.681  49.325  0.00  0.00    +0.000 A 
ATOM     14  O   UNL     1      30.355  28.287  49.227  0.00  0.00    +0.000 OA
ATOM     15  N   UNL     1      31.975  29.209  50.491  0.00  0.00    +0.000 N 
ATOM     16  C   UNL     1      33.257  29.648  50.631  0.00  0.00    +0.000 A 
ATOM     17  O   UNL     1      33.551  30.118  51.757  0.00  0.00    +0.000 OA
ATOM     18  H   UNL     1      31.275  29.259  51.276  0.00  0.00    +0.000 HD
ENDROOT
BRANCH   1  19
ATOM     19  O   UNL     1      38.087  29.608  52.258  0.00  0.00    +0.000 OA
ATOM     20  H   UNL     1      37.573  29.313  53.097  0.00  0.00    +0.000 HD
ENDBRANCH   1  19
TORSDOF 1
