
 OpenBabel03262520123D

 43 45  0  0  0  0  0  0  0  0999 V2000
   35.3310   30.4660   49.4470 C   0  0  0  0  0  0  0  0  0  0  0  0
   35.1490   31.5150   49.8100 H   0  0  0  0  0  0  0  0  0  0  0  0
   36.1950   30.1030   50.0710 H   0  0  0  0  0  0  0  0  0  0  0  0
   38.2380   31.6290   48.9900 Br  0  0  0  0  0  0  0  0  0  0  0  0
   37.0150   30.9830   47.6540 C   0  0  0  0  0  0  0  0  0  0  0  0
   37.3680   30.9940   46.3290 C   0  0  0  0  0  0  0  0  0  0  0  0
   36.4560   30.5320   45.4190 C   0  0  0  0  0  0  0  0  0  0  0  0
   35.2040   30.0600   45.7900 C   0  0  0  0  0  0  0  0  0  0  0  0
   34.8830   30.0650   47.1540 C   0  0  0  0  0  0  0  0  0  0  0  0
   35.7930   30.5260   48.0650 C   0  0  0  0  0  0  0  0  0  0  0  0
   36.7880   30.5620   44.3690 H   0  0  0  0  0  0  0  0  0  0  0  0
   34.6040   29.7330   44.9570 H   0  0  0  0  0  0  0  0  0  0  0  0
   33.8940   29.6860   47.2270 H   0  0  0  0  0  0  0  0  0  0  0  0
   39.9260   33.2840   45.0930 C   0  0  0  0  0  0  0  0  0  0  0  0
   41.1050   32.4880   45.0570 C   0  0  0  0  0  0  0  0  0  0  0  0
   40.9860   31.1740   45.4640 C   0  0  0  0  0  0  0  0  0  0  0  0
   39.7660   30.6860   45.8790 N   0  0  0  0  0  0  0  0  0  0  0  0
   38.6800   31.4870   45.8920 C   0  0  0  0  0  0  0  0  0  0  0  0
   38.7740   32.7660   45.5020 N   0  0  0  0  0  0  0  0  0  0  0  0
   40.0460   34.2990   44.7720 H   0  0  0  0  0  0  0  0  0  0  0  0
   42.0550   32.8980   44.7250 H   0  0  0  0  0  0  0  0  0  0  0  0
   41.8590   30.5340   45.4510 H   0  0  0  0  0  0  0  0  0  0  0  0
   34.1680   29.5900   49.7390 C   0  0  0  0  0  0  0  0  0  0  0  0
   33.2360   29.9450   49.3420 H   0  0  0  0  0  0  0  0  0  0  0  0
   34.0280   29.7110   50.8700 H   0  0  0  0  0  0  0  0  0  0  0  0
   34.5540   28.2350   49.5840 N   0  0  0  0  0  0  0  0  0  0  0  0
   34.8270   27.7330   50.4470 H   0  0  0  0  0  0  0  0  0  0  0  0
   33.8090   27.4390   48.6830 C   0  0  0  0  0  0  0  0  0  0  0  0
   34.1280   27.6210   47.6340 H   0  0  0  0  0  0  0  0  0  0  0  0
   34.0370   26.3780   48.8850 H   0  0  0  0  0  0  0  0  0  0  0  0
   32.3580   27.7690   48.8380 C   0  0  0  0  0  0  0  0  0  0  0  0
   31.7980   26.9950   49.4080 H   0  0  0  0  0  0  0  0  0  0  0  0
   32.0600   28.7790   49.0440 H   0  0  0  0  0  0  0  0  0  0  0  0
   31.8190   27.5750   47.4530 N   0  0  0  0  0  0  0  0  0  0  0  0
   31.7530   28.6340   46.5930 C   0  0  0  0  0  3  0  0  0  0  0  0
   31.2590   28.4740   45.3160 C   0  0  0  0  0  0  0  0  0  0  0  0
   31.2050   29.3030   44.6360 H   0  0  0  0  0  0  0  0  0  0  0  0
   30.8260   27.2350   44.8950 C   0  0  0  0  0  0  0  0  0  0  0  0
   30.3650   27.0090   43.7490 O   0  0  0  0  0  0  0  0  0  0  0  0
   30.9100   26.2230   45.7770 N   0  0  0  0  0  0  0  0  0  0  0  0
   31.3860   26.3520   47.0260 C   0  0  0  0  0  0  0  0  0  0  0  0
   31.4830   25.4460   47.8740 O   0  0  0  0  0  0  0  0  0  0  0  0
   30.6120   25.2340   45.5720 H   0  0  0  0  0  0  0  0  0  0  0  0
  1 23  1  0  0  0  0
  1  2  1  0  0  0  0
  1  3  1  0  0  0  0
  5 10  1  0  0  0  0
  5  4  1  0  0  0  0
  6  5  2  0  0  0  0
  7  8  2  0  0  0  0
  7  6  1  0  0  0  0
  8  9  1  0  0  0  0
  9 13  1  0  0  0  0
  9 10  2  0  0  0  0
 10  1  1  0  0  0  0
 11  7  1  0  0  0  0
 12  8  1  0  0  0  0
 14 19  1  0  0  0  0
 15 14  2  0  0  0  0
 15 16  1  0  0  0  0
 16 17  2  0  0  0  0
 17 18  1  0  0  0  0
 18  6  1  0  0  0  0
 19 18  2  0  0  0  0
 20 14  1  0  0  0  0
 21 15  1  0  0  0  0
 22 16  1  0  0  0  0
 23 25  1  0  0  0  0
 24 23  1  0  0  0  0
 26 23  1  0  0  0  0
 26 27  1  0  0  0  0
 28 31  1  0  0  0  0
 28 30  1  0  0  0  0
 28 26  1  0  0  0  0
 29 28  1  0  0  0  0
 31 33  1  0  0  0  0
 31 32  1  0  0  0  0
 34 31  1  0  0  0  0
 35 34  1  0  0  0  0
 36 35  2  0  0  0  0
 37 36  1  0  0  0  0
 38 36  1  0  0  0  0
 38 40  1  0  0  0  0
 39 38  2  0  0  0  0
 40 41  1  0  0  0  0
 41 34  1  0  0  0  0
 41 42  2  0  0  0  0
 43 40  1  0  0  0  0
M  END
>  <minimizedAffinity>
-5.17662907

>  <minimizedRMSD>
1.27511609

$$$$
