
 OpenBabel03272502003D

 43 47  0  0  0  0  0  0  0  0999 V2000
   34.6100   28.3920   47.9270 C   0  0  0  0  0  0  0  0  0  0  0  0
   35.0350   29.3460   47.5590 H   0  0  0  0  0  0  0  0  0  0  0  0
   35.1090   27.5590   47.3890 H   0  0  0  0  0  0  0  0  0  0  0  0
   33.1300   28.4150   47.6460 C   0  0  0  0  0  0  0  0  0  0  0  0
   32.1690   27.5860   48.1890 C   0  0  0  0  0  0  0  0  0  0  0  0
   30.9320   27.9390   47.6680 C   0  0  0  0  0  0  0  0  0  0  0  0
   31.1910   28.9790   46.8210 N   0  0  0  0  0  0  0  0  0  0  0  0
   32.4800   29.2490   46.8160 N   0  0  0  0  0  0  0  0  0  0  0  0
   28.7670   29.2960   46.2390 N   0  0  0  0  0  0  0  0  0  0  0  0
   30.0890   29.5580   46.1290 C   0  0  0  0  0  0  0  0  0  0  0  0
   30.2190   30.5280   45.1930 N   0  0  0  0  0  0  0  0  0  0  0  0
   29.0160   30.8780   44.7150 C   0  0  0  0  0  0  0  0  0  0  0  0
   28.6440   31.8010   43.7670 C   0  0  0  0  0  0  0  0  0  0  0  0
   27.3380   31.9460   43.4800 N   0  0  0  0  0  0  0  0  0  0  0  0
   26.4190   31.1880   44.1220 C   0  0  0  0  0  0  0  0  0  0  0  0
   26.7910   30.2770   45.0570 N   0  0  0  0  0  0  0  0  0  0  0  0
   28.0880   30.1030   45.3720 C   0  0  0  0  0  0  0  0  0  0  0  0
   32.3890   26.7950   48.9070 H   0  0  0  0  0  0  0  0  0  0  0  0
   30.0250   27.4490   47.9280 H   0  0  0  0  0  0  0  0  0  0  0  0
   28.3460   28.6000   46.8750 H   0  0  0  0  0  0  0  0  0  0  0  0
   29.4440   32.3790   43.2900 H   0  0  0  0  0  0  0  0  0  0  0  0
   25.3760   31.3260   43.8690 H   0  0  0  0  0  0  0  0  0  0  0  0
   34.7410   28.3030   49.4250 C   0  0  0  0  0  0  0  0  0  0  0  0
   35.0370   27.2550   49.6710 H   0  0  0  0  0  0  0  0  0  0  0  0
   33.8080   28.5240   49.9670 H   0  0  0  0  0  0  0  0  0  0  0  0
   37.2000   30.0820   51.5630 C   0  0  0  0  0  0  0  0  0  0  0  0
   37.9300   30.8080   50.6150 C   0  0  0  0  0  0  0  0  0  0  0  0
   37.5790   30.6860   49.2590 C   0  0  0  0  0  0  0  0  0  0  0  0
   36.5480   29.8670   48.9480 N   0  0  0  0  0  0  0  0  0  0  0  0
   35.8650   29.1810   49.8850 C   0  0  0  0  0  0  0  0  0  0  0  0
   36.1980   29.2990   51.1500 N   0  0  0  0  0  0  0  0  0  0  0  0
   37.4900   30.1920   52.6040 H   0  0  0  0  0  0  0  0  0  0  0  0
   38.7500   31.4640   50.8380 H   0  0  0  0  0  0  0  0  0  0  0  0
   38.2360   31.3660   48.1960 N   0  0  0  0  0  0  0  0  0  0  0  0
   38.3320   30.6760   47.0330 C   0  0  0  0  0  0  0  0  0  0  0  0
   38.9720   31.3250   45.9780 C   0  0  0  0  0  0  0  0  0  0  0  0
   39.0810   30.8260   45.0220 H   0  0  0  0  0  0  0  0  0  0  0  0
   39.4630   32.6120   46.1780 C   0  0  0  0  0  0  0  0  0  0  0  0
   40.0480   33.2130   45.2300 O   0  0  0  0  0  0  0  0  0  0  0  0
   39.3340   33.2480   47.3740 N   0  0  0  0  0  0  0  0  0  0  0  0
   38.7130   32.6110   48.3860 C   0  0  0  0  0  0  0  0  0  0  0  0
   38.5580   33.1410   49.5180 O   0  0  0  0  0  0  0  0  0  0  0  0
   39.7090   34.2240   47.5190 H   0  0  0  0  0  0  0  0  0  0  0  0
  1 23  1  0  0  0  0
  2  1  1  0  0  0  0
  3  1  1  0  0  0  0
  4  1  1  0  0  0  0
  4  5  1  0  0  0  0
  5 18  1  0  0  0  0
  6 19  1  0  0  0  0
  6  5  2  0  0  0  0
  7  6  1  0  0  0  0
  8  7  1  0  0  0  0
  8  4  2  0  0  0  0
  9 20  1  0  0  0  0
 10  9  1  0  0  0  0
 10  7  1  0  0  0  0
 11 10  2  0  0  0  0
 12 11  1  0  0  0  0
 12 17  1  0  0  0  0
 13 12  2  0  0  0  0
 14 13  1  0  0  0  0
 14 15  2  0  0  0  0
 15 16  1  0  0  0  0
 16 17  2  0  0  0  0
 17  9  1  0  0  0  0
 21 13  1  0  0  0  0
 22 15  1  0  0  0  0
 23 24  1  0  0  0  0
 23 30  1  0  0  0  0
 23 25  1  0  0  0  0
 26 32  1  0  0  0  0
 27 33  1  0  0  0  0
 27 26  2  0  0  0  0
 28 27  1  0  0  0  0
 29 28  2  0  0  0  0
 29 30  1  0  0  0  0
 30 31  2  0  0  0  0
 31 26  1  0  0  0  0
 34 41  1  0  0  0  0
 34 28  1  0  0  0  0
 35 34  1  0  0  0  0
 36 38  1  0  0  0  0
 36 35  2  0  0  0  0
 37 36  1  0  0  0  0
 38 40  1  0  0  0  0
 39 38  2  0  0  0  0
 40 43  1  0  0  0  0
 40 41  1  0  0  0  0
 41 42  2  0  0  0  0
M  END
>  <minimizedAffinity>
-8.04616737

>  <minimizedRMSD>
0.598018408

$$$$
