
 OpenBabel03262520123D

 43 45  0  0  0  0  0  0  0  0999 V2000
   35.2960   30.3700   49.3850 C   0  0  0  0  0  0  0  0  0  0  0  0
   35.0660   31.4080   49.7510 H   0  0  0  0  0  0  0  0  0  0  0  0
   36.1770   30.0460   50.0050 H   0  0  0  0  0  0  0  0  0  0  0  0
   38.1920   31.5630   48.9340 Br  0  0  0  0  0  0  0  0  0  0  0  0
   36.9690   30.9280   47.5930 C   0  0  0  0  0  0  0  0  0  0  0  0
   37.3170   30.9630   46.2680 C   0  0  0  0  0  0  0  0  0  0  0  0
   36.4040   30.5080   45.3540 C   0  0  0  0  0  0  0  0  0  0  0  0
   35.1580   30.0210   45.7220 C   0  0  0  0  0  0  0  0  0  0  0  0
   34.8420   30.0020   47.0880 C   0  0  0  0  0  0  0  0  0  0  0  0
   35.7520   30.4550   48.0020 C   0  0  0  0  0  0  0  0  0  0  0  0
   36.7320   30.5570   44.3020 H   0  0  0  0  0  0  0  0  0  0  0  0
   34.5560   29.7020   44.8860 H   0  0  0  0  0  0  0  0  0  0  0  0
   33.8560   29.6140   47.1590 H   0  0  0  0  0  0  0  0  0  0  0  0
   39.8430   33.2800   45.0180 C   0  0  0  0  0  0  0  0  0  0  0  0
   41.0360   32.5040   45.0020 C   0  0  0  0  0  0  0  0  0  0  0  0
   40.9360   31.1940   45.4250 C   0  0  0  0  0  0  0  0  0  0  0  0
   39.7220   30.6910   45.8380 N   0  0  0  0  0  0  0  0  0  0  0  0
   38.6230   31.4730   45.8320 C   0  0  0  0  0  0  0  0  0  0  0  0
   38.6970   32.7480   45.4260 N   0  0  0  0  0  0  0  0  0  0  0  0
   39.9470   34.2930   44.6850 H   0  0  0  0  0  0  0  0  0  0  0  0
   41.9810   32.9260   44.6700 H   0  0  0  0  0  0  0  0  0  0  0  0
   41.8210   30.5700   45.4270 H   0  0  0  0  0  0  0  0  0  0  0  0
   34.1760   29.4390   49.6760 C   0  0  0  0  0  0  0  0  0  0  0  0
   33.2220   29.7670   49.3100 H   0  0  0  0  0  0  0  0  0  0  0  0
   34.0580   29.5220   50.8140 H   0  0  0  0  0  0  0  0  0  0  0  0
   34.6130   28.1060   49.4740 N   0  0  0  0  0  0  0  0  0  0  0  0
   35.0110   27.6220   50.2980 H   0  0  0  0  0  0  0  0  0  0  0  0
   33.8110   27.2680   48.6640 C   0  0  0  0  0  0  0  0  0  0  0  0
   34.1780   27.2590   47.6150 H   0  0  0  0  0  0  0  0  0  0  0  0
   33.9150   26.2310   49.0260 H   0  0  0  0  0  0  0  0  0  0  0  0
   32.4010   27.7670   48.7060 C   0  0  0  0  0  0  0  0  0  0  0  0
   31.8190   27.3430   49.5540 H   0  0  0  0  0  0  0  0  0  0  0  0
   32.1930   28.7980   48.4920 H   0  0  0  0  0  0  0  0  0  0  0  0
   31.7670   27.0850   47.5310 N   0  0  0  0  0  0  0  0  0  0  0  0
   31.6480   25.7250   47.5180 C   0  0  0  0  0  3  0  0  0  0  0  0
   31.0660   25.0800   46.4460 C   0  0  0  0  0  0  0  0  0  0  0  0
   30.9700   24.0110   46.4310 H   0  0  0  0  0  0  0  0  0  0  0  0
   30.5980   25.8090   45.3750 C   0  0  0  0  0  0  0  0  0  0  0  0
   30.0580   25.2970   44.3650 O   0  0  0  0  0  0  0  0  0  0  0  0
   30.7370   27.1450   45.4330 N   0  0  0  0  0  0  0  0  0  0  0  0
   31.3000   27.7980   46.4650 C   0  0  0  0  0  0  0  0  0  0  0  0
   31.4490   29.0300   46.5620 O   0  0  0  0  0  0  0  0  0  0  0  0
   30.4200   27.8070   44.6780 H   0  0  0  0  0  0  0  0  0  0  0  0
  1 23  1  0  0  0  0
  1  2  1  0  0  0  0
  1  3  1  0  0  0  0
  5 10  1  0  0  0  0
  5  4  1  0  0  0  0
  6  5  2  0  0  0  0
  7  8  2  0  0  0  0
  7  6  1  0  0  0  0
  8  9  1  0  0  0  0
  9 13  1  0  0  0  0
  9 10  2  0  0  0  0
 10  1  1  0  0  0  0
 11  7  1  0  0  0  0
 12  8  1  0  0  0  0
 14 19  1  0  0  0  0
 15 14  2  0  0  0  0
 15 16  1  0  0  0  0
 16 22  1  0  0  0  0
 16 17  2  0  0  0  0
 18 17  1  0  0  0  0
 18  6  1  0  0  0  0
 19 18  2  0  0  0  0
 20 14  1  0  0  0  0
 21 15  1  0  0  0  0
 23 25  1  0  0  0  0
 24 23  1  0  0  0  0
 26 23  1  0  0  0  0
 26 27  1  0  0  0  0
 28 31  1  0  0  0  0
 28 30  1  0  0  0  0
 28 26  1  0  0  0  0
 29 28  1  0  0  0  0
 31 32  1  0  0  0  0
 33 31  1  0  0  0  0
 34 31  1  0  0  0  0
 35 34  1  0  0  0  0
 36 35  2  0  0  0  0
 37 36  1  0  0  0  0
 38 40  1  0  0  0  0
 38 36  1  0  0  0  0
 39 38  2  0  0  0  0
 40 41  1  0  0  0  0
 41 42  2  0  0  0  0
 41 34  1  0  0  0  0
 43 40  1  0  0  0  0
M  END
>  <minimizedAffinity>
-5.22991228

>  <minimizedRMSD>
0.720022082

$$$$
