
     RDKit          3D

 42 44  0  0  0  0  0  0  0  0999 V2000
   35.2912   30.6238   48.9607 C   0  0  1  0  0  0  0  0  0  0  0  0
   34.7907   30.1759   50.2407 C   0  0  0  0  0  0  0  0  0  0  0  0
   35.6301   29.1597   50.9903 C   0  0  0  0  0  0  0  0  0  0  0  0
   37.1055   29.3395   50.8823 C   0  0  0  0  0  0  0  0  0  0  0  0
   37.6443   29.8349   49.5893 C   0  0  0  0  0  0  0  0  0  0  0  0
   36.7825   30.8721   48.9710 C   0  0  2  0  0  0  0  0  0  0  0  0
   33.9907   28.7347   47.8290 C   0  0  0  0  0  0  0  0  0  0  0  0
   34.8785   29.8535   47.7744 C   0  0  0  0  0  0  0  0  0  0  0  0
   35.3470   30.1801   46.5125 C   0  0  0  0  0  0  0  0  0  0  0  0
   34.9525   29.4450   45.4229 N   0  0  0  0  0  0  0  0  0  0  0  0
   34.1124   28.4008   45.5421 C   0  0  0  0  0  0  0  0  0  0  0  0
   33.6276   28.0445   46.7633 N   0  0  0  0  0  0  0  0  0  0  0  0
   36.9528   32.1158   49.8819 C   0  0  0  0  0  0  0  0  0  0  0  0
   38.0471   33.0239   49.3369 C   0  0  0  0  0  0  0  0  0  0  0  0
   34.8833   31.6602   48.7433 H   0  0  0  0  0  0  0  0  0  0  0  0
   33.7641   29.8281   50.3042 H   0  0  0  0  0  0  0  0  0  0  0  0
   34.8167   31.0709   50.9281 H   0  0  0  0  0  0  0  0  0  0  0  0
   35.3549   29.1906   52.0681 H   0  0  0  0  0  0  0  0  0  0  0  0
   35.3093   28.1514   50.6254 H   0  0  0  0  0  0  0  0  0  0  0  0
   37.5481   28.3164   51.0312 H   0  0  0  0  0  0  0  0  0  0  0  0
   37.5232   29.9330   51.7226 H   0  0  0  0  0  0  0  0  0  0  0  0
   37.7427   28.9726   48.8705 H   0  0  0  0  0  0  0  0  0  0  0  0
   38.6242   30.2903   49.7806 H   0  0  0  0  0  0  0  0  0  0  0  0
   37.1872   31.1982   47.9995 H   0  0  0  0  0  0  0  0  0  0  0  0
   33.6094   28.4573   48.8032 H   0  0  0  0  0  0  0  0  0  0  0  0
   36.0164   30.9956   46.3398 H   0  0  0  0  0  0  0  0  0  0  0  0
   33.8282   27.8496   44.6563 H   0  0  0  0  0  0  0  0  0  0  0  0
   37.2282   31.8243   50.9017 H   0  0  0  0  0  0  0  0  0  0  0  0
   36.0293   32.7292   49.8935 H   0  0  0  0  0  0  0  0  0  0  0  0
   38.9948   32.4632   49.3175 H   0  0  0  0  0  0  0  0  0  0  0  0
   37.7221   33.4033   48.3459 H   0  0  0  0  0  0  0  0  0  0  0  0
   38.1487   34.1712   50.2463 N   0  0  0  0  0  0  0  0  0  0  0  0
   38.8081   35.3037   49.8995 C   0  0  0  0  0  0  0  0  0  0  0  0
   38.8199   36.3083   50.8674 C   0  0  0  0  0  0  0  0  0  0  0  0
   39.3494   37.2242   50.5955 H   0  0  0  0  0  0  0  0  0  0  0  0
   38.2061   36.1666   52.0935 C   0  0  0  0  0  0  0  0  0  0  0  0
   38.2935   37.1450   52.8674 O   0  0  0  0  0  0  0  0  0  0  0  0
   37.5568   35.0177   52.4017 N   0  0  0  0  0  0  0  0  0  0  0  0
   37.5644   34.0776   51.4541 C   0  0  0  0  0  0  0  0  0  0  0  0
   36.9568   33.0057   51.7458 O   0  0  0  0  0  0  0  0  0  0  0  0
   39.2739   35.3838   48.9421 H   0  0  0  0  0  0  0  0  0  0  0  0
   37.1011   34.9229   53.3219 H   0  0  0  0  0  0  0  0  0  0  0  0
  1  6  1  0
  1  2  1  0
  2  3  1  0
  4  3  1  0
  5  4  1  0
  6  5  1  0
  6 13  1  0
  8  7  2  0
  8  1  1  0
  9  8  1  0
 10 11  1  0
 10  9  2  0
 11 12  2  0
 12  7  1  0
 14 13  1  0
  1 15  1  6
  2 16  1  0
  2 17  1  0
  3 18  1  0
  3 19  1  0
  4 20  1  0
  4 21  1  0
  5 22  1  0
  5 23  1  0
  6 24  1  6
  7 25  1  0
  9 26  1  0
 11 27  1  0
 13 28  1  0
 13 29  1  0
 14 30  1  0
 14 31  1  0
 32 33  1  0
 33 34  2  0
 34 35  1  0
 34 36  1  0
 36 37  2  0
 36 38  1  0
 38 39  1  0
 39 40  2  0
 39 32  1  0
 33 41  1  0
 38 42  1  0
 14 32  1  0
M  ISO  8  15  13  16  13  17  13  18  13  19  13  20  13  21  13  22  13
M  ISO  8  23  13  24  13  25  14  26  14  27  14  28   8  29   8  30   8
M  ISO  2  31   8  35  16
M  END
>  <DihAtoms>  (1) 
12,13,31,32

>  <DihDeg>  (1) 
89.99946900421273

$$$$
