
 OpenBabel03272508483D

 41 45  0  0  0  0  0  0  0  0999 V2000
   35.4850   29.5930   49.4250 C   0  0  0  0  0  0  0  0  0  0  0  0
   36.6140   29.2640   50.1450 C   0  0  0  0  0  0  0  0  0  0  0  0
   37.6470   29.8600   49.4300 C   0  0  0  0  0  0  0  0  0  0  0  0
   37.1210   30.5050   48.3430 C   0  0  0  0  0  0  0  0  0  0  0  0
   35.8070   30.3270   48.3650 O   0  0  0  0  0  0  0  0  0  0  0  0
   36.7280   28.6870   51.0490 H   0  0  0  0  0  0  0  0  0  0  0  0
   38.6950   29.8550   49.6370 H   0  0  0  0  0  0  0  0  0  0  0  0
   38.9030   32.0640   47.7060 C   0  0  0  0  0  0  0  0  0  0  0  0
   37.8470   31.2600   47.3260 C   0  0  0  0  0  0  0  0  0  0  0  0
   37.4520   31.1450   45.9940 C   0  0  0  0  0  0  0  0  0  0  0  0
   38.1250   31.8520   45.0130 C   0  0  0  0  0  0  0  0  0  0  0  0
   37.9970   31.9570   43.6720 N   0  0  0  0  0  0  0  0  0  0  0  0
   38.9450   32.8010   43.2540 N   0  0  0  0  0  0  0  0  0  0  0  0
   39.6700   33.2300   44.2940 C   0  0  0  0  0  0  0  0  0  0  0  0
   39.1730   32.6410   45.4430 C   0  0  0  0  0  0  0  0  0  0  0  0
   39.6020   32.7910   46.7330 C   0  0  0  0  0  0  0  0  0  0  0  0
   39.2180   32.1600   48.7330 H   0  0  0  0  0  0  0  0  0  0  0  0
   36.6140   30.5060   45.6940 H   0  0  0  0  0  0  0  0  0  0  0  0
   37.2550   31.4350   43.1260 H   0  0  0  0  0  0  0  0  0  0  0  0
   40.4910   33.9230   44.1600 H   0  0  0  0  0  0  0  0  0  0  0  0
   40.4340   33.4300   46.9990 H   0  0  0  0  0  0  0  0  0  0  0  0
   34.1240   29.1880   49.7850 C   0  0  0  0  0  0  0  0  0  0  0  0
   33.6020   29.7200   50.7850 O   0  0  0  0  0  0  0  0  0  0  0  0
   31.4190   27.1450   48.4420 C   0  0  0  0  0  0  0  0  0  0  0  0
   32.0560   26.3450   47.5070 C   0  0  0  0  0  0  0  0  0  0  0  0
   33.4110   26.4930   47.3250 C   0  0  0  0  0  0  0  0  0  0  0  0
   34.0650   27.4170   48.0690 N   0  0  0  0  0  0  0  0  0  0  0  0
   33.4300   28.1900   48.9780 C   0  0  0  0  0  0  0  0  0  0  0  0
   32.1070   28.0470   49.1580 N   0  0  0  0  0  0  0  0  0  0  0  0
   30.3460   27.0240   48.5830 H   0  0  0  0  0  0  0  0  0  0  0  0
   31.4650   25.6220   46.9430 H   0  0  0  0  0  0  0  0  0  0  0  0
   34.0720   25.6740   46.3650 N   0  0  0  0  0  0  0  0  0  0  0  0
   34.4990   24.4310   46.6790 C   0  0  0  0  0  3  0  0  0  0  0  0
   35.1490   23.6270   45.7360 C   0  0  0  0  0  0  0  0  0  0  0  0
   35.4900   22.6310   45.9880 H   0  0  0  0  0  0  0  0  0  0  0  0
   35.3200   24.1820   44.4770 C   0  0  0  0  0  0  0  0  0  0  0  0
   35.9070   23.4860   43.5820 O   0  0  0  0  0  0  0  0  0  0  0  0
   34.8750   25.4410   44.1940 N   0  0  0  0  0  0  0  0  0  0  0  0
   34.2570   26.1790   45.1310 C   0  0  0  0  0  0  0  0  0  0  0  0
   33.8940   27.3210   44.7520 O   0  0  0  0  0  0  0  0  0  0  0  0
   35.0440   25.7970   43.2060 H   0  0  0  0  0  0  0  0  0  0  0  0
  1 22  1  0  0  0  0
  1  2  2  0  0  0  0
  2  6  1  0  0  0  0
  3  7  1  0  0  0  0
  3  2  1  0  0  0  0
  4  5  1  0  0  0  0
  4  3  2  0  0  0  0
  5  1  1  0  0  0  0
  8 17  1  0  0  0  0
  9  8  1  0  0  0  0
  9  4  1  0  0  0  0
 10  9  2  0  0  0  0
 11 15  2  0  0  0  0
 11 10  1  0  0  0  0
 12 11  1  0  0  0  0
 13 12  1  0  0  0  0
 13 14  2  0  0  0  0
 14 15  1  0  0  0  0
 15 16  1  0  0  0  0
 16 21  1  0  0  0  0
 16  8  2  0  0  0  0
 18 10  1  0  0  0  0
 19 12  1  0  0  0  0
 20 14  1  0  0  0  0
 22 23  2  0  0  0  0
 24 30  1  0  0  0  0
 24 29  1  0  0  0  0
 25 24  2  0  0  0  0
 26 25  1  0  0  0  0
 26 27  2  0  0  0  0
 27 28  1  0  0  0  0
 28 29  2  0  0  0  0
 28 22  1  0  0  0  0
 31 25  1  0  0  0  0
 32 33  1  0  0  0  0
 32 26  1  0  0  0  0
 34 35  1  0  0  0  0
 34 33  2  0  0  0  0
 36 34  1  0  0  0  0
 37 36  2  0  0  0  0
 38 36  1  0  0  0  0
 38 39  1  0  0  0  0
 39 32  1  0  0  0  0
 40 39  2  0  0  0  0
 41 38  1  0  0  0  0
M  END
>  <minimizedAffinity>
-6.57083654

>  <minimizedRMSD>
1.20693994

$$$$
