
 OpenBabel03272510173D

 29 31  0  0  0  0  0  0  0  0999 V2000
   37.1990   29.3210   50.9740 Br  0  0  0  0  0  0  0  0  0  0  0  0
   35.9150   29.3340   49.5640 C   0  0  0  0  0  0  0  0  0  0  0  0
   35.9890   30.2600   48.5460 C   0  0  0  0  0  0  0  0  0  0  0  0
   35.0170   30.2020   47.5600 C   0  0  0  0  0  0  0  0  0  0  0  0
   33.9920   29.2620   47.5630 C   0  0  0  0  0  0  0  0  0  0  0  0
   33.9600   28.3640   48.5970 C   0  0  0  0  0  0  0  0  0  0  0  0
   34.9170   28.4040   49.5860 C   0  0  0  0  0  0  0  0  0  0  0  0
   35.1230   30.9600   46.7750 H   0  0  0  0  0  0  0  0  0  0  0  0
   33.1460   27.6580   48.5530 H   0  0  0  0  0  0  0  0  0  0  0  0
   34.8170   27.6550   50.3680 H   0  0  0  0  0  0  0  0  0  0  0  0
   33.0990   29.3750   46.4600 N   0  0  0  0  0  0  0  0  0  0  0  0
   32.2160   30.3510   46.1920 C   0  0  0  0  0  3  0  0  0  0  0  0
   31.4480   30.2450   45.0520 C   0  0  0  0  0  0  0  0  0  0  0  0
   30.7430   31.0540   44.8660 H   0  0  0  0  0  0  0  0  0  0  0  0
   31.5780   29.1580   44.1930 C   0  0  0  0  0  0  0  0  0  0  0  0
   30.8540   29.0920   43.1500 O   0  0  0  0  0  0  0  0  0  0  0  0
   32.4790   28.2030   44.5050 N   0  0  0  0  0  0  0  0  0  0  0  0
   33.2320   28.3070   45.6230 C   0  0  0  0  0  0  0  0  0  0  0  0
   34.0190   27.3400   45.7700 O   0  0  0  0  0  0  0  0  0  0  0  0
   32.5380   27.4070   43.8280 H   0  0  0  0  0  0  0  0  0  0  0  0
   38.0090   33.1560   49.4410 C   0  0  0  0  0  0  0  0  0  0  0  0
   39.0430   33.1540   48.4850 C   0  0  0  0  0  0  0  0  0  0  0  0
   39.0340   32.1470   47.5330 C   0  0  0  0  0  0  0  0  0  0  0  0
   38.0320   31.2140   47.5690 N   0  0  0  0  0  0  0  0  0  0  0  0
   37.0500   31.2550   48.5150 C   0  0  0  0  0  0  0  0  0  0  0  0
   37.0490   32.2240   49.4400 N   0  0  0  0  0  0  0  0  0  0  0  0
   38.0720   33.9650   50.1540 H   0  0  0  0  0  0  0  0  0  0  0  0
   39.8490   33.8360   48.3900 H   0  0  0  0  0  0  0  0  0  0  0  0
   39.7260   31.9690   46.7230 H   0  0  0  0  0  0  0  0  0  0  0  0
  2  7  1  0  0  0  0
  2  1  1  0  0  0  0
  3  2  2  0  0  0  0
  4  5  2  0  0  0  0
  4  3  1  0  0  0  0
  5  6  1  0  0  0  0
  6  7  2  0  0  0  0
  7 10  1  0  0  0  0
  8  4  1  0  0  0  0
  9  6  1  0  0  0  0
 11  5  1  0  0  0  0
 12 11  1  0  0  0  0
 13 12  2  0  0  0  0
 14 13  1  0  0  0  0
 15 17  1  0  0  0  0
 15 13  1  0  0  0  0
 16 15  2  0  0  0  0
 17 18  1  0  0  0  0
 18 19  2  0  0  0  0
 18 11  1  0  0  0  0
 20 17  1  0  0  0  0
 21 27  1  0  0  0  0
 22 21  2  0  0  0  0
 23 24  2  0  0  0  0
 23 22  1  0  0  0  0
 24 25  1  0  0  0  0
 25  3  1  0  0  0  0
 25 26  2  0  0  0  0
 26 21  1  0  0  0  0
 28 22  1  0  0  0  0
 29 23  1  0  0  0  0
M  END
>  <minimizedAffinity>
-5.82128572

>  <minimizedRMSD>
1.24041176

$$$$
