
 OpenBabel03272508473D

 41 45  0  0  0  0  0  0  0  0999 V2000
   35.5230   29.5590   49.6610 C   0  0  0  0  0  0  0  0  0  0  0  0
   36.5480   29.2220   50.5190 C   0  0  0  0  0  0  0  0  0  0  0  0
   37.6820   29.7320   49.8950 C   0  0  0  0  0  0  0  0  0  0  0  0
   37.3110   30.3360   48.7240 C   0  0  0  0  0  0  0  0  0  0  0  0
   35.9960   30.2160   48.6070 O   0  0  0  0  0  0  0  0  0  0  0  0
   36.5340   28.6940   51.4590 H   0  0  0  0  0  0  0  0  0  0  0  0
   38.7000   29.6940   50.2190 H   0  0  0  0  0  0  0  0  0  0  0  0
   38.6160   32.2850   48.0080 C   0  0  0  0  0  0  0  0  0  0  0  0
   38.1810   30.9990   47.7570 C   0  0  0  0  0  0  0  0  0  0  0  0
   38.5490   30.3110   46.6020 C   0  0  0  0  0  0  0  0  0  0  0  0
   39.3730   30.9190   45.6710 C   0  0  0  0  0  0  0  0  0  0  0  0
   39.8990   30.5380   44.4860 N   0  0  0  0  0  0  0  0  0  0  0  0
   40.6280   31.5620   44.0340 N   0  0  0  0  0  0  0  0  0  0  0  0
   40.5790   32.5810   44.9020 C   0  0  0  0  0  0  0  0  0  0  0  0
   39.7810   32.2040   45.9680 C   0  0  0  0  0  0  0  0  0  0  0  0
   39.4510   32.9250   47.0820 C   0  0  0  0  0  0  0  0  0  0  0  0
   38.3370   32.8270   48.8980 H   0  0  0  0  0  0  0  0  0  0  0  0
   38.2040   29.2900   46.4040 H   0  0  0  0  0  0  0  0  0  0  0  0
   39.7180   29.5850   44.0600 H   0  0  0  0  0  0  0  0  0  0  0  0
   41.1090   33.5050   44.7140 H   0  0  0  0  0  0  0  0  0  0  0  0
   39.8080   33.9320   47.2510 H   0  0  0  0  0  0  0  0  0  0  0  0
   34.1130   29.2340   49.8860 C   0  0  0  0  0  0  0  0  0  0  0  0
   33.5410   29.7610   50.8600 O   0  0  0  0  0  0  0  0  0  0  0  0
   31.4490   27.2400   48.3950 C   0  0  0  0  0  0  0  0  0  0  0  0
   32.0760   26.6120   47.3300 C   0  0  0  0  0  0  0  0  0  0  0  0
   33.4100   26.8620   47.1110 C   0  0  0  0  0  0  0  0  0  0  0  0
   34.0540   27.7120   47.9460 N   0  0  0  0  0  0  0  0  0  0  0  0
   33.4290   28.3160   48.9800 C   0  0  0  0  0  0  0  0  0  0  0  0
   32.1260   28.0750   49.1980 N   0  0  0  0  0  0  0  0  0  0  0  0
   30.3920   27.0400   48.5660 H   0  0  0  0  0  0  0  0  0  0  0  0
   31.4930   25.9400   46.6990 H   0  0  0  0  0  0  0  0  0  0  0  0
   34.0600   26.2190   46.0180 N   0  0  0  0  0  0  0  0  0  0  0  0
   34.2330   26.8500   44.8350 C   0  0  0  0  0  3  0  0  0  0  0  0
   34.8710   26.2180   43.7620 C   0  0  0  0  0  0  0  0  0  0  0  0
   35.0090   26.7240   42.8140 H   0  0  0  0  0  0  0  0  0  0  0  0
   35.3080   24.9230   43.9910 C   0  0  0  0  0  0  0  0  0  0  0  0
   35.8970   24.3040   43.0420 O   0  0  0  0  0  0  0  0  0  0  0  0
   35.1180   24.3150   45.1990 N   0  0  0  0  0  0  0  0  0  0  0  0
   34.4990   24.9600   46.2020 C   0  0  0  0  0  0  0  0  0  0  0  0
   34.3810   24.2980   47.2640 O   0  0  0  0  0  0  0  0  0  0  0  0
   35.4810   23.3200   45.2960 H   0  0  0  0  0  0  0  0  0  0  0  0
  1 22  1  0  0  0  0
  1  2  2  0  0  0  0
  2  6  1  0  0  0  0
  3  7  1  0  0  0  0
  3  2  1  0  0  0  0
  4  3  2  0  0  0  0
  5  4  1  0  0  0  0
  5  1  1  0  0  0  0
  8 17  1  0  0  0  0
  9  8  1  0  0  0  0
  9  4  1  0  0  0  0
 10  9  2  0  0  0  0
 11 15  2  0  0  0  0
 11 10  1  0  0  0  0
 12 11  1  0  0  0  0
 13 12  1  0  0  0  0
 13 14  2  0  0  0  0
 14 15  1  0  0  0  0
 15 16  1  0  0  0  0
 16 21  1  0  0  0  0
 16  8  2  0  0  0  0
 18 10  1  0  0  0  0
 19 12  1  0  0  0  0
 20 14  1  0  0  0  0
 22 23  2  0  0  0  0
 24 30  1  0  0  0  0
 24 29  1  0  0  0  0
 25 24  2  0  0  0  0
 26 25  1  0  0  0  0
 26 27  2  0  0  0  0
 27 28  1  0  0  0  0
 28 29  2  0  0  0  0
 28 22  1  0  0  0  0
 31 25  1  0  0  0  0
 32 39  1  0  0  0  0
 32 26  1  0  0  0  0
 33 32  1  0  0  0  0
 34 36  1  0  0  0  0
 34 33  2  0  0  0  0
 35 34  1  0  0  0  0
 36 38  1  0  0  0  0
 37 36  2  0  0  0  0
 38 41  1  0  0  0  0
 38 39  1  0  0  0  0
 39 40  2  0  0  0  0
M  END
>  <minimizedAffinity>
-6.65384626

>  <minimizedRMSD>
0.933853447

$$$$
