
 OpenBabel03272506143D

 25 26  0  0  0  0  0  0  0  0999 V2000
   37.1690   30.6910   48.9680 C   0  0  0  0  0  0  0  0  0  0  0  0
   37.5080   30.8260   47.6210 C   0  0  0  0  0  0  0  0  0  0  0  0
   38.3480   31.8590   47.2470 C   0  0  0  0  0  0  0  0  0  0  0  0
   38.8170   32.7110   48.2070 N   0  0  0  0  0  0  0  0  0  0  0  0
   38.4740   32.5600   49.5100 C   0  0  0  0  0  0  0  0  0  0  0  0
   37.6470   31.5490   49.8970 N   0  0  0  0  0  0  0  0  0  0  0  0
   37.0840   30.1020   46.9470 H   0  0  0  0  0  0  0  0  0  0  0  0
   38.8620   33.2530   50.2480 H   0  0  0  0  0  0  0  0  0  0  0  0
   38.6570   31.9480   45.8730 N   0  0  0  0  0  0  0  0  0  0  0  0
   39.4350   32.9840   45.4520 C   0  0  0  0  0  0  0  0  0  0  0  0
   39.8120   33.1830   44.1240 C   0  0  0  0  0  0  0  0  0  0  0  0
   40.4300   34.0430   43.9250 H   0  0  0  0  0  0  0  0  0  0  0  0
   39.3610   32.2720   43.2080 C   0  0  0  0  0  0  0  0  0  0  0  0
   39.7070   32.4650   42.0140 O   0  0  0  0  0  0  0  0  0  0  0  0
   38.5870   31.2440   43.6270 N   0  0  0  0  0  0  0  0  0  0  0  0
   38.2460   31.0890   44.9260 C   0  0  0  0  0  0  0  0  0  0  0  0
   37.5230   30.1190   45.2880 O   0  0  0  0  0  0  0  0  0  0  0  0
   38.2670   30.5750   42.8930 H   0  0  0  0  0  0  0  0  0  0  0  0
   36.3400   29.7110   49.5000 O   0  0  0  0  0  0  0  0  0  0  0  0
   34.3250   30.5210   47.9100 O   0  0  0  0  0  0  0  0  0  0  0  0
   34.7030   29.5270   48.9980 P   0  0  0  0  0  0  0  0  0  0  0  0
   34.5590   27.9290   48.4580 O   0  0  0  0  0  0  0  0  0  0  0  0
   34.6660   27.3710   49.2700 H   0  0  0  0  0  0  0  0  0  0  0  0
   33.6770   29.8210   50.3040 O   0  0  0  0  0  0  0  0  0  0  0  0
   32.7940   29.3930   50.0660 H   0  0  0  0  0  0  0  0  0  0  0  0
  1 19  1  0  0  0  0
  1  6  1  0  0  0  0
  2  1  2  0  0  0  0
  3  2  1  0  0  0  0
  3  4  2  0  0  0  0
  4  5  1  0  0  0  0
  5  6  2  0  0  0  0
  5  8  1  0  0  0  0
  7  2  1  0  0  0  0
  9  3  1  0  0  0  0
 10  9  1  0  0  0  0
 11 10  2  0  0  0  0
 12 11  1  0  0  0  0
 13 15  1  0  0  0  0
 13 11  1  0  0  0  0
 14 13  2  0  0  0  0
 15 16  1  0  0  0  0
 16 17  2  0  0  0  0
 16  9  1  0  0  0  0
 18 15  1  0  0  0  0
 20 21  2  0  0  0  0
 21 19  1  0  0  0  0
 21 24  1  0  0  0  0
 22 21  1  0  0  0  0
 22 23  1  0  0  0  0
 25 24  1  0  0  0  0
M  END
>  <minimizedAffinity>
-5.57111597

>  <minimizedRMSD>
7.06831026

$$$$
