
 OpenBabel03272502343D

 37 39  0  0  1  0  0  0  0  0999 V2000
   35.6660   29.6730   48.1480 C   0  0  0  0  0  0  0  0  0  0  0  0
   36.6340   30.4480   47.7770 C   0  0  0  0  0  0  0  0  0  0  0  0
   33.5700   29.3610   45.0860 C   0  0  0  0  0  0  0  0  0  0  0  0
   34.6170   29.5950   45.9510 C   0  0  0  0  0  0  0  0  0  0  0  0
   34.5340   29.3990   47.3040 C   0  0  0  0  0  0  0  0  0  0  0  0
   33.3480   28.9520   47.7620 N   0  0  0  0  0  0  0  0  0  0  0  0
   32.3160   28.7150   46.9530 C   0  0  0  0  0  0  0  0  0  0  0  0
   32.4180   28.9170   45.6180 N   0  0  0  0  0  0  0  0  0  0  0  0
   33.6010   29.5060   44.0170 H   0  0  0  0  0  0  0  0  0  0  0  0
   35.4890   29.9480   45.4180 H   0  0  0  0  0  0  0  0  0  0  0  0
   31.0630   28.2440   47.4370 N   0  0  0  0  0  0  0  0  0  0  0  0
   31.1720   27.6290   48.6290 C   0  0  0  0  0  0  0  0  0  0  0  0
   30.0820   27.0970   49.2810 C   0  0  0  0  0  0  0  0  0  0  0  0
   30.1380   26.5970   50.2390 H   0  0  0  0  0  0  0  0  0  0  0  0
   28.8400   27.2100   48.6670 C   0  0  0  0  0  0  0  0  0  0  0  0
   27.7880   26.7430   49.2050 O   0  0  0  0  0  0  0  0  0  0  0  0
   28.7710   27.8300   47.4770 N   0  0  0  0  0  0  0  0  0  0  0  0
   29.8490   28.3410   46.8610 C   0  0  0  0  0  0  0  0  0  0  0  0
   29.8550   28.9320   45.7500 O   0  0  0  0  0  0  0  0  0  0  0  0
   27.8600   27.9380   46.9790 H   0  0  0  0  0  0  0  0  0  0  0  0
   37.7600   30.6710   48.7460 C   0  0  1  0  0  0  0  0  0  0  0  0
   38.3850   29.7540   48.8100 H   0  0  0  0  0  0  0  0  0  0  0  0
   38.5380   31.8510   48.3290 C   0  0  0  0  0  0  0  0  0  0  0  0
   38.6360   32.8400   49.3440 C   0  0  0  0  0  0  0  0  0  0  0  0
   39.3130   34.0250   49.1830 C   0  0  0  0  0  0  0  0  0  0  0  0
   39.9580   34.3270   47.9750 C   0  0  0  0  0  0  0  0  0  0  0  0
   39.8120   33.3100   47.0400 C   0  0  0  0  0  0  0  0  0  0  0  0
   39.1600   32.1450   47.1660 N   0  0  0  0  0  0  0  0  0  0  0  0
   38.2260   32.8420   50.3650 H   0  0  0  0  0  0  0  0  0  0  0  0
   39.4240   34.8150   49.9140 H   0  0  0  0  0  0  0  0  0  0  0  0
   40.5170   35.1860   47.6890 H   0  0  0  0  0  0  0  0  0  0  0  0
   40.2580   33.3960   46.0470 H   0  0  0  0  0  0  0  0  0  0  0  0
   37.0080   31.1040   50.3520 S   0  0  0  0  0  0  0  0  0  0  0  0
   36.9790   29.6950   51.4450 C   0  0  0  0  0  0  0  0  0  0  0  0
   37.6310   29.9220   52.6470 F   0  0  0  0  0  0  0  0  0  0  0  0
   35.6920   29.2310   51.6430 F   0  0  0  0  0  0  0  0  0  0  0  0
   37.6670   28.6600   50.7770 F   0  0  0  0  0  0  0  0  0  0  0  0
  2  1  2  0  0  0  0
  2 21  1  0  0  0  0
  3  8  2  0  0  0  0
  3  4  1  0  0  0  0
  4  5  2  0  0  0  0
  5  6  1  0  0  0  0
  5  1  1  0  0  0  0
  7 11  1  0  0  0  0
  7  6  2  0  0  0  0
  8  7  1  0  0  0  0
  9  3  1  0  0  0  0
 10  4  1  0  0  0  0
 11 12  1  0  0  0  0
 12 13  2  0  0  0  0
 13 14  1  0  0  0  0
 15 16  2  0  0  0  0
 15 13  1  0  0  0  0
 17 15  1  0  0  0  0
 18 11  1  0  0  0  0
 18 17  1  0  0  0  0
 19 18  2  0  0  0  0
 20 17  1  0  0  0  0
 21 22  1  1  0  0  0
 21 33  1  0  0  0  0
 23 21  1  0  0  0  0
 23 24  1  0  0  0  0
 24 29  1  0  0  0  0
 25 24  2  0  0  0  0
 25 30  1  0  0  0  0
 26 25  1  0  0  0  0
 27 28  1  0  0  0  0
 27 26  2  0  0  0  0
 28 23  2  0  0  0  0
 31 26  1  0  0  0  0
 32 27  1  0  0  0  0
 33 34  1  0  0  0  0
 34 36  1  0  0  0  0
 34 35  1  0  0  0  0
 37 34  1  0  0  0  0
M  END
>  <minimizedAffinity>
-7.26639748

>  <minimizedRMSD>
0.61022985

$$$$
