
 OpenBabel03272507193D

 31 33  0  0  1  0  0  0  0  0999 V2000
   36.6760   30.7000   48.7770 C   0  0  0  0  0  0  0  0  0  0  0  0
   38.0230   30.9400   48.9730 C   0  0  0  0  0  0  0  0  0  0  0  0
   38.7680   31.0730   47.7740 C   0  0  0  0  0  0  0  0  0  0  0  0
   38.1560   30.9640   46.5480 N   0  0  0  0  0  0  0  0  0  0  0  0
   36.8320   30.7270   46.4340 C   0  0  0  0  0  0  0  0  0  0  0  0
   36.0800   30.5930   47.5700 N   0  0  0  0  0  0  0  0  0  0  0  0
   38.4950   31.0240   49.9390 H   0  0  0  0  0  0  0  0  0  0  0  0
   39.8360   31.2630   47.8360 H   0  0  0  0  0  0  0  0  0  0  0  0
   36.2830   30.6290   45.1250 N   0  0  0  0  0  0  0  0  0  0  0  0
   36.8620   31.4020   44.1610 C   0  0  0  0  0  3  0  0  0  0  0  0
   36.3860   31.3610   42.8670 C   0  0  0  0  0  0  0  0  0  0  0  0
   36.8010   31.9460   42.0700 H   0  0  0  0  0  0  0  0  0  0  0  0
   35.3150   30.5380   42.5210 C   0  0  0  0  0  0  0  0  0  0  0  0
   34.8770   30.4990   41.3400 O   0  0  0  0  0  0  0  0  0  0  0  0
   34.7760   29.7920   43.5160 N   0  0  0  0  0  0  0  0  0  0  0  0
   35.2460   29.8400   44.7650 C   0  0  0  0  0  0  0  0  0  0  0  0
   34.7430   29.1420   45.6940 O   0  0  0  0  0  0  0  0  0  0  0  0
   33.9630   29.1620   43.2700 H   0  0  0  0  0  0  0  0  0  0  0  0
   35.8540   30.5930   50.0230 C   0  0  1  0  0  0  0  0  0  0  0  0
   35.1470   29.3660   50.3840 C   0  0  2  0  0  0  0  0  0  0  0  0
   36.4750   29.6100   51.0390 C   0  0  0  0  0  0  0  0  0  0  0  0
   35.5690   31.5760   50.4550 H   0  0  0  0  0  0  0  0  0  0  0  0
   34.1770   29.5740   50.9280 H   0  0  0  0  0  0  0  0  0  0  0  0
   37.3360   28.9920   50.7150 H   0  0  0  0  0  0  0  0  0  0  0  0
   36.4000   29.9330   52.0860 H   0  0  0  0  0  0  0  0  0  0  0  0
   35.0550   28.3830   49.4070 O   0  0  0  0  0  0  0  0  0  0  0  0
   33.9640   27.8440   48.8110 C   0  0  0  0  0  0  0  0  0  0  0  0
   34.0420   26.8710   48.0310 O   0  0  0  0  0  0  0  0  0  0  0  0
   32.8430   28.5610   49.2290 N   0  0  0  0  0  0  0  0  0  0  0  0
   31.9780   29.1390   49.1130 H   0  0  0  0  0  0  0  0  0  0  0  0
   32.5130   28.7180   50.2210 H   0  0  0  0  0  0  0  0  0  0  0  0
  1  2  1  0  0  0  0
  1 19  1  0  0  0  0
  2  7  1  0  0  0  0
  3  8  1  0  0  0  0
  3  2  2  0  0  0  0
  4  3  1  0  0  0  0
  5  4  2  0  0  0  0
  5  6  1  0  0  0  0
  6  1  2  0  0  0  0
  9  5  1  0  0  0  0
 10  9  1  0  0  0  0
 11 10  2  0  0  0  0
 12 11  1  0  0  0  0
 13 11  1  0  0  0  0
 13 15  1  0  0  0  0
 14 13  2  0  0  0  0
 15 16  1  0  0  0  0
 16  9  1  0  0  0  0
 16 17  2  0  0  0  0
 18 15  1  0  0  0  0
 19 20  1  0  0  0  0
 19 22  1  1  0  0  0
 19 21  1  0  0  0  0
 20 23  1  1  0  0  0
 20 21  1  0  0  0  0
 21 25  1  0  0  0  0
 24 21  1  0  0  0  0
 26 20  1  0  0  0  0
 27 29  1  0  0  0  0
 27 26  1  0  0  0  0
 28 27  2  0  0  0  0
 29 31  1  0  0  0  0
 30 29  1  0  0  0  0
M  END
>  <minimizedAffinity>
-4.95280838

>  <minimizedRMSD>
1.19812548

$$$$
