
 OpenBabel03272508573D

 41 44  0  0  1  0  0  0  0  0999 V2000
   39.1120   31.4920   43.4290 C   0  0  0  0  0  0  0  0  0  0  0  0
   40.1210   30.5830   43.5990 C   0  0  0  0  0  0  0  0  0  0  0  0
   40.8600   30.2420   42.4720 C   0  0  0  0  0  0  0  0  0  0  0  0
   40.5320   30.8340   41.2710 C   0  0  0  0  0  0  0  0  0  0  0  0
   39.5110   31.7480   41.1100 C   0  0  0  0  0  0  0  0  0  0  0  0
   38.8110   32.0590   42.2310 N   0  0  0  0  0  0  0  0  0  0  0  0
   40.3620   30.1300   44.5540 H   0  0  0  0  0  0  0  0  0  0  0  0
   41.6630   29.5400   42.5310 H   0  0  0  0  0  0  0  0  0  0  0  0
   41.1240   30.5480   40.4170 H   0  0  0  0  0  0  0  0  0  0  0  0
   38.3010   31.8940   44.6040 C   0  0  0  0  0  0  0  0  0  0  0  0
   37.1580   32.3510   44.4960 O   0  0  0  0  0  0  0  0  0  0  0  0
   38.9150   31.7280   45.9140 N   0  0  0  0  0  0  0  0  0  0  0  0
   39.9290   31.5570   46.0640 H   0  0  0  0  0  0  0  0  0  0  0  0
   38.4170   31.1630   48.2890 C   0  0  2  0  0  0  0  0  0  0  0  0
   38.6710   32.6270   48.2330 C   0  0  0  0  0  0  0  0  0  0  0  0
   38.0530   31.8080   47.0700 C   0  0  1  0  0  0  0  0  0  0  0  0
   39.3540   30.5710   48.3710 H   0  0  0  0  0  0  0  0  0  0  0  0
   37.9930   33.3200   48.7740 H   0  0  0  0  0  0  0  0  0  0  0  0
   39.6810   33.0130   48.1050 H   0  0  0  0  0  0  0  0  0  0  0  0
   36.9640   32.0550   46.8800 H   0  0  0  0  0  0  0  0  0  0  0  0
   35.0590   30.2120   49.5600 C   0  0  0  0  0  0  0  0  0  0  0  0
   35.3830   29.5830   50.7950 C   0  0  0  0  0  0  0  0  0  0  0  0
   36.7710   29.5030   51.1790 C   0  0  0  0  0  0  0  0  0  0  0  0
   37.7320   30.0300   50.3490 N   0  0  0  0  0  0  0  0  0  0  0  0
   37.3320   30.6160   49.1840 C   0  0  0  0  0  0  0  0  0  0  0  0
   36.0130   30.7250   48.7550 N   0  0  0  0  0  0  0  0  0  0  0  0
   34.0250   30.2620   49.2930 H   0  0  0  0  0  0  0  0  0  0  0  0
   34.6440   29.1740   51.4380 H   0  0  0  0  0  0  0  0  0  0  0  0
   37.0250   29.0260   52.1150 H   0  0  0  0  0  0  0  0  0  0  0  0
   39.2080   32.3280   39.8140 C   0  0  0  0  0  0  0  0  0  0  0  0
   38.8220   33.5110   39.7310 O   0  0  0  0  0  0  0  0  0  0  0  0
   41.4640   30.4650   36.3490 H   0  0  0  0  0  0  0  0  0  0  0  0
   40.5950   30.5090   36.9270 N   0  0  0  0  0  0  0  0  0  0  0  0
   40.5660   31.4040   37.9510 C   0  0  0  0  0  3  0  0  0  0  0  0
   39.3960   31.4250   38.6860 C   0  0  0  0  0  0  0  0  0  0  0  0
   38.3120   30.6090   38.4250 C   0  0  0  0  0  0  0  0  0  0  0  0
   37.2610   30.6260   39.0830 O   0  0  0  0  0  0  0  0  0  0  0  0
   38.3940   29.7280   37.3850 N   0  0  0  0  0  0  0  0  0  0  0  0
   39.5450   29.7070   36.6620 C   0  0  0  0  0  0  0  0  0  0  0  0
   39.5590   28.8760   35.7190 O   0  0  0  0  0  0  0  0  0  0  0  0
   37.5840   29.1120   37.1830 H   0  0  0  0  0  0  0  0  0  0  0  0
  1  2  1  0  0  0  0
  1 10  1  0  0  0  0
  2  7  1  0  0  0  0
  3  8  1  0  0  0  0
  3  2  2  0  0  0  0
  4  3  1  0  0  0  0
  5  4  2  0  0  0  0
  5  6  1  0  0  0  0
  6  1  2  0  0  0  0
  9  4  1  0  0  0  0
 10 12  1  0  0  0  0
 11 10  2  0  0  0  0
 12 13  1  0  0  0  0
 12 16  1  0  0  0  0
 14 17  1  6  0  0  0
 14 25  1  0  0  0  0
 15 14  1  0  0  0  0
 15 18  1  0  0  0  0
 16 20  1  6  0  0  0
 16 15  1  0  0  0  0
 16 14  1  0  0  0  0
 19 15  1  0  0  0  0
 21 22  1  0  0  0  0
 22 23  2  0  0  0  0
 22 28  1  0  0  0  0
 23 29  1  0  0  0  0
 24 23  1  0  0  0  0
 25 24  2  0  0  0  0
 26 25  1  0  0  0  0
 26 21  2  0  0  0  0
 27 21  1  0  0  0  0
 30  5  1  0  0  0  0
 31 30  2  0  0  0  0
 32 33  1  0  0  0  0
 33 34  1  0  0  0  0
 34 35  2  0  0  0  0
 35 30  1  0  0  0  0
 36 35  1  0  0  0  0
 36 37  2  0  0  0  0
 38 36  1  0  0  0  0
 39 33  1  0  0  0  0
 39 38  1  0  0  0  0
 40 39  2  0  0  0  0
 41 38  1  0  0  0  0
M  END
>  <minimizedAffinity>
-4.97232962

>  <minimizedRMSD>
0.571526945

$$$$
