
     RDKit          3D

 36 38  0  0  0  0  0  0  0  0999 V2000
   36.7762   31.2085   48.7185 C   0  0  0  0  0  0  0  0  0  0  0  0
   35.8716   30.4722   49.5043 C   0  0  0  0  0  0  0  0  0  0  0  0
   36.3243   30.0318   50.7325 C   0  0  0  0  0  0  0  0  0  0  0  0
   37.5903   30.3180   51.1239 N   0  0  0  0  0  0  0  0  0  0  0  0
   38.4316   31.0318   50.3345 C   0  0  0  0  0  0  0  0  0  0  0  0
   38.0114   31.4755   49.1249 N   0  0  0  0  0  0  0  0  0  0  0  0
   34.4882   30.1734   49.0539 C   0  0  1  0  0  0  0  0  0  0  0  0
   34.2313   30.3267   47.6180 C   0  0  0  0  0  0  0  0  0  0  0  0
   34.4248   29.1134   46.7726 C   0  0  0  0  0  0  0  0  0  0  0  0
   33.9867   27.8363   47.3435 C   0  0  1  0  0  0  0  0  0  0  0  0
   34.2520   27.6695   48.7966 C   0  0  0  0  0  0  0  0  0  0  0  0
   33.9575   28.8908   49.6089 C   0  0  0  0  0  0  0  0  0  0  0  0
   36.5251   31.5985   47.7466 H   0  0  0  0  0  0  0  0  0  0  0  0
   35.7724   29.4641   51.4591 H   0  0  0  0  0  0  0  0  0  0  0  0
   39.4323   31.2160   50.7280 H   0  0  0  0  0  0  0  0  0  0  0  0
   33.8798   30.9728   49.5941 H   0  0  0  0  0  0  0  0  0  0  0  0
   34.7091   31.1560   47.1096 H   0  0  0  0  0  0  0  0  0  0  0  0
   33.1257   30.5842   47.5326 H   0  0  0  0  0  0  0  0  0  0  0  0
   34.0030   29.2889   45.7687 H   0  0  0  0  0  0  0  0  0  0  0  0
   35.5269   29.0590   46.5872 H   0  0  0  0  0  0  0  0  0  0  0  0
   34.6515   27.0450   46.8526 H   0  0  0  0  0  0  0  0  0  0  0  0
   33.7326   26.8406   49.2660 H   0  0  0  0  0  0  0  0  0  0  0  0
   35.3499   27.4539   48.9425 H   0  0  0  0  0  0  0  0  0  0  0  0
   32.8217   28.9847   49.5830 H   0  0  0  0  0  0  0  0  0  0  0  0
   34.1745   28.6775   50.6481 H   0  0  0  0  0  0  0  0  0  0  0  0
   32.6645   27.3784   47.0410 N   0  0  0  0  0  0  0  0  0  0  0  0
   32.2695   26.4484   46.1926 C   0  0  0  0  0  0  0  0  0  0  0  0
   30.9839   26.0569   45.9514 C   0  0  0  0  0  0  0  0  0  0  0  0
   30.7330   25.2879   45.2419 H   0  0  0  0  0  0  0  0  0  0  0  0
   29.9632   26.6895   46.6624 C   0  0  0  0  0  0  0  0  0  0  0  0
   28.7671   26.3618   46.4729 O   0  0  0  0  0  0  0  0  0  0  0  0
   30.3633   27.6522   47.5421 N   0  0  0  0  0  0  0  0  0  0  0  0
   31.6509   27.9847   47.7266 C   0  0  0  0  0  0  0  0  0  0  0  0
   31.7542   28.9078   48.6003 O   0  0  0  0  0  0  0  0  0  0  0  0
   33.0093   25.9405   45.6366 H   0  0  0  0  0  0  0  0  0  0  0  0
   29.5411   28.0747   48.0317 H   0  0  0  0  0  0  0  0  0  0  0  0
  1  6  2  0
  1  2  1  0
  2  3  2  0
  3  4  1  0
  5  4  2  0
  6  5  1  0
  7  2  1  0
  7 12  1  0
  8  7  1  0
  9 10  1  0
  9  8  1  0
 10 11  1  0
 11 12  1  0
  1 13  1  0
  3 14  1  0
  5 15  1  0
  7 16  1  1
  8 17  1  0
  8 18  1  0
  9 19  1  0
  9 20  1  0
 10 21  1  6
 11 22  1  0
 11 23  1  0
 12 24  1  0
 12 25  1  0
 26 27  1  0
 27 28  2  0
 28 29  1  0
 28 30  1  0
 30 31  2  0
 30 32  1  0
 32 33  1  0
 33 34  2  0
 33 26  1  0
 27 35  1  0
 32 36  1  0
 10 26  1  0
M  ISO  8  13  14  14  14  15  14  16  13  17  13  18  13  19  13  20  13
M  ISO  6  21  13  22  13  23  13  24  13  25  13  29  16
M  END
>  <DihAtoms>  (1) 
8,9,25,26

>  <DihDeg>  (1) 
-17.07404480376826

$$$$
