
 OpenBabel03272510043D

 38 40  0  0  0  0  0  0  0  0999 V2000
   33.4680   30.2680   42.0320 C   0  0  0  0  0  0  0  0  0  0  0  0
   32.5380   30.1760   43.0170 C   0  0  0  0  0  0  0  0  0  0  0  0
   31.2060   30.4620   42.7380 C   0  0  0  0  0  0  0  0  0  0  0  0
   30.7830   30.8450   41.4780 C   0  0  0  0  0  0  0  0  0  0  0  0
   31.6930   30.9510   40.4670 C   0  0  0  0  0  0  0  0  0  0  0  0
   32.9950   30.6620   40.7750 C   0  0  0  0  0  0  0  0  0  0  0  0
   30.4740   30.3760   43.5560 H   0  0  0  0  0  0  0  0  0  0  0  0
   29.7290   31.0390   41.3780 H   0  0  0  0  0  0  0  0  0  0  0  0
   31.3070   31.2510   39.5240 H   0  0  0  0  0  0  0  0  0  0  0  0
   33.6260   30.7860   39.8850 H   0  0  0  0  0  0  0  0  0  0  0  0
   34.2180   30.2730   46.2850 C   0  0  0  0  0  0  0  0  0  0  0  0
   33.8370   30.5810   44.9880 C   0  0  0  0  0  0  0  0  0  0  0  0
   32.8930   29.8350   44.3530 C   0  0  0  0  0  0  0  0  0  0  0  0
   32.3520   28.7950   45.0460 N   0  0  0  0  0  0  0  0  0  0  0  0
   32.7130   28.4960   46.2990 C   0  0  0  0  0  0  0  0  0  0  0  0
   33.6450   29.2360   46.9080 N   0  0  0  0  0  0  0  0  0  0  0  0
   34.9390   30.7470   46.9270 H   0  0  0  0  0  0  0  0  0  0  0  0
   34.4050   31.4490   44.7520 H   0  0  0  0  0  0  0  0  0  0  0  0
   31.9900   27.3790   46.9600 C   0  0  0  0  0  0  0  0  0  0  0  0
   30.6220   27.5680   46.9510 F   0  0  0  0  0  0  0  0  0  0  0  0
   32.1410   26.1880   46.1530 F   0  0  0  0  0  0  0  0  0  0  0  0
   32.4200   27.0040   48.1440 F   0  0  0  0  0  0  0  0  0  0  0  0
   35.1370   29.8940   42.2460 S   0  0  0  0  0  0  0  0  0  0  0  0
   35.8870   30.0720   40.9770 O   0  0  0  0  0  0  0  0  0  0  0  0
   35.0250   28.3860   42.1680 O   0  0  0  0  0  0  0  0  0  0  0  0
   35.9880   29.6730   43.6840 C   0  0  0  0  0  0  0  0  0  0  0  0
   35.3340   30.1890   44.4990 H   0  0  0  0  0  0  0  0  0  0  0  0
   35.9530   28.6390   44.0680 H   0  0  0  0  0  0  0  0  0  0  0  0
   37.2340   30.3190   43.8770 N   0  0  0  0  0  0  0  0  0  0  0  0
   38.4300   29.7150   44.0840 C   0  0  0  0  0  3  0  0  0  0  0  0
   39.6210   30.3890   44.2670 C   0  0  0  0  0  0  0  0  0  0  0  0
   40.5440   29.8130   44.4290 H   0  0  0  0  0  0  0  0  0  0  0  0
   39.5680   31.7720   44.2360 C   0  0  0  0  0  0  0  0  0  0  0  0
   40.6480   32.3700   44.4030 O   0  0  0  0  0  0  0  0  0  0  0  0
   38.3790   32.3970   44.0310 N   0  0  0  0  0  0  0  0  0  0  0  0
   37.2790   31.6800   43.8630 C   0  0  0  0  0  0  0  0  0  0  0  0
   36.2080   32.3480   43.6750 O   0  0  0  0  0  0  0  0  0  0  0  0
   38.3980   33.4400   44.0160 H   0  0  0  0  0  0  0  0  0  0  0  0
  1 23  1  0  0  0  0
  1  2  1  0  0  0  0
  2 13  1  0  0  0  0
  3  2  2  0  0  0  0
  3  7  1  0  0  0  0
  4  3  1  0  0  0  0
  5  6  1  0  0  0  0
  5  4  2  0  0  0  0
  6  1  2  0  0  0  0
  8  4  1  0  0  0  0
  9  5  1  0  0  0  0
 10  6  1  0  0  0  0
 11 16  1  0  0  0  0
 11 17  1  0  0  0  0
 12 11  2  0  0  0  0
 13 12  1  0  0  0  0
 13 14  2  0  0  0  0
 14 15  1  0  0  0  0
 15 16  2  0  0  0  0
 15 19  1  0  0  0  0
 18 12  1  0  0  0  0
 19 22  1  0  0  0  0
 20 19  1  0  0  0  0
 21 19  1  0  0  0  0
 23 26  1  0  0  0  0
 24 23  2  0  0  0  0
 25 23  2  0  0  0  0
 26 29  1  0  0  0  0
 26 28  1  0  0  0  0
 26 27  1  0  0  0  0
 29 30  1  0  0  0  0
 30 31  2  0  0  0  0
 31 32  1  0  0  0  0
 33 31  1  0  0  0  0
 33 34  2  0  0  0  0
 35 33  1  0  0  0  0
 36 29  1  0  0  0  0
 36 35  1  0  0  0  0
 37 36  2  0  0  0  0
 38 35  1  0  0  0  0
M  END
>  <minimizedAffinity>
-2.89337945

>  <minimizedRMSD>
6.09598827

$$$$
