
 OpenBabel03272501243D

 41 44  0  0  0  0  0  0  0  0999 V2000
   37.9120   27.6620   32.6710 O   0  0  0  0  0  0  0  0  0  0  0  0
   39.6430   26.4660   34.8540 Cl  0  0  0  0  0  0  0  0  0  0  0  0
   38.5620   25.5560   33.8420 C   0  0  0  0  0  0  0  0  0  0  0  0
   37.8540   26.3030   32.8940 C   0  0  0  0  0  0  0  0  0  0  0  0
   36.9810   25.6100   32.0670 C   0  0  0  0  0  0  0  0  0  0  0  0
   36.7830   24.2500   32.1350 C   0  0  0  0  0  0  0  0  0  0  0  0
   37.4920   23.5210   33.0790 C   0  0  0  0  0  0  0  0  0  0  0  0
   38.3640   24.1800   33.9110 C   0  0  0  0  0  0  0  0  0  0  0  0
   36.3880   26.0970   31.3040 H   0  0  0  0  0  0  0  0  0  0  0  0
   36.1040   23.7110   31.4910 H   0  0  0  0  0  0  0  0  0  0  0  0
   37.4020   22.4620   33.2030 H   0  0  0  0  0  0  0  0  0  0  0  0
   39.1130   23.4740   34.8940 N   0  0  0  0  0  0  0  0  0  0  0  0
   40.3140   22.9110   34.5850 C   0  0  0  0  0  3  0  0  0  0  0  0
   41.0340   22.2220   35.5630 C   0  0  0  0  0  0  0  0  0  0  0  0
   41.9960   21.7670   35.3280 H   0  0  0  0  0  0  0  0  0  0  0  0
   40.5110   22.1190   36.8510 C   0  0  0  0  0  0  0  0  0  0  0  0
   41.1400   21.5000   37.7620 O   0  0  0  0  0  0  0  0  0  0  0  0
   39.3090   22.6870   37.1520 N   0  0  0  0  0  0  0  0  0  0  0  0
   38.6920   23.3220   36.1620 C   0  0  0  0  0  0  0  0  0  0  0  0
   37.5820   23.8430   36.4480 O   0  0  0  0  0  0  0  0  0  0  0  0
   38.9240   22.6100   38.1040 H   0  0  0  0  0  0  0  0  0  0  0  0
   36.0490   28.8860   33.5870 C   0  0  0  0  0  0  0  0  0  0  0  0
   34.9390   29.7230   33.5150 C   0  0  0  0  0  0  0  0  0  0  0  0
   34.6270   30.1770   32.2470 C   0  0  0  0  0  0  0  0  0  0  0  0
   35.4010   29.7980   31.1340 C   0  0  0  0  0  0  0  0  0  0  0  0
   36.4920   28.9590   31.2890 C   0  0  0  0  0  0  0  0  0  0  0  0
   36.8090   28.5060   32.5370 C   0  0  0  0  0  0  0  0  0  0  0  0
   33.7670   30.8300   32.1670 H   0  0  0  0  0  0  0  0  0  0  0  0
   35.0520   30.2190   30.2110 H   0  0  0  0  0  0  0  0  0  0  0  0
   37.0270   28.7230   30.3750 H   0  0  0  0  0  0  0  0  0  0  0  0
   33.0210   29.3980   35.0090 C   0  0  0  0  0  0  0  0  0  0  0  0
   34.1700   30.0940   34.6550 C   0  0  0  0  0  0  0  0  0  0  0  0
   34.5240   31.1770   35.4820 C   0  0  0  0  0  0  0  0  0  0  0  0
   33.7500   31.4850   36.5580 N   0  0  0  0  0  0  0  0  0  0  0  0
   32.6380   30.7570   36.8420 C   0  0  0  0  0  0  0  0  0  0  0  0
   32.2680   29.7150   36.0730 N   0  0  0  0  0  0  0  0  0  0  0  0
   32.6690   28.5510   34.4320 H   0  0  0  0  0  0  0  0  0  0  0  0
   35.4100   31.7410   35.2410 H   0  0  0  0  0  0  0  0  0  0  0  0
   32.1700   31.1620   37.7290 H   0  0  0  0  0  0  0  0  0  0  0  0
   36.4360   28.3790   34.8400 O   0  0  0  0  0  0  0  0  0  0  0  0
   36.9880   28.8750   35.5030 H   0  0  0  0  0  0  0  0  0  0  0  0
  1  4  1  0  0  0  0
  3  8  1  0  0  0  0
  3  2  1  0  0  0  0
  4  3  2  0  0  0  0
  5  6  2  0  0  0  0
  5  4  1  0  0  0  0
  6  7  1  0  0  0  0
  7 11  1  0  0  0  0
  7  8  2  0  0  0  0
  8 12  1  0  0  0  0
  9  5  1  0  0  0  0
 10  6  1  0  0  0  0
 12 19  1  0  0  0  0
 13 12  1  0  0  0  0
 13 14  2  0  0  0  0
 14 16  1  0  0  0  0
 15 14  1  0  0  0  0
 16 18  1  0  0  0  0
 16 17  2  0  0  0  0
 18 21  1  0  0  0  0
 19 20  2  0  0  0  0
 19 18  1  0  0  0  0
 22 40  1  0  0  0  0
 23 22  1  0  0  0  0
 23 32  1  0  0  0  0
 24 23  2  0  0  0  0
 25 26  2  0  0  0  0
 25 24  1  0  0  0  0
 26 27  1  0  0  0  0
 27  1  1  0  0  0  0
 27 22  2  0  0  0  0
 28 24  1  0  0  0  0
 29 25  1  0  0  0  0
 30 26  1  0  0  0  0
 31 36  1  0  0  0  0
 32 31  2  0  0  0  0
 32 33  1  0  0  0  0
 33 34  2  0  0  0  0
 34 35  1  0  0  0  0
 35 39  1  0  0  0  0
 36 35  2  0  0  0  0
 37 31  1  0  0  0  0
 38 33  1  0  0  0  0
 40 41  1  0  0  0  0
M  END
>  <minimizedAffinity>
-6.18329668

$$$$

 OpenBabel03272501243D

 41 44  0  0  0  0  0  0  0  0999 V2000
   36.8260   26.3970   32.3900 O   0  0  0  0  0  0  0  0  0  0  0  0
   38.3140   23.8760   33.1790 Cl  0  0  0  0  0  0  0  0  0  0  0  0
   38.1550   25.2830   34.1860 C   0  0  0  0  0  0  0  0  0  0  0  0
   37.4250   26.3410   33.6300 C   0  0  0  0  0  0  0  0  0  0  0  0
   37.2770   27.4820   34.4050 C   0  0  0  0  0  0  0  0  0  0  0  0
   37.8030   27.6200   35.6700 C   0  0  0  0  0  0  0  0  0  0  0  0
   38.5240   26.5640   36.2090 C   0  0  0  0  0  0  0  0  0  0  0  0
   38.6860   25.4210   35.4650 C   0  0  0  0  0  0  0  0  0  0  0  0
   36.7330   28.3530   34.0660 H   0  0  0  0  0  0  0  0  0  0  0  0
   37.6870   28.5090   36.2730 H   0  0  0  0  0  0  0  0  0  0  0  0
   38.9660   26.5820   37.1820 H   0  0  0  0  0  0  0  0  0  0  0  0
   39.4170   24.3120   35.9770 N   0  0  0  0  0  0  0  0  0  0  0  0
   40.7330   24.1420   35.6700 C   0  0  0  0  0  3  0  0  0  0  0  0
   41.4330   23.0480   36.1820 C   0  0  0  0  0  0  0  0  0  0  0  0
   42.4870   22.9010   35.9430 H   0  0  0  0  0  0  0  0  0  0  0  0
   40.7730   22.1380   37.0060 C   0  0  0  0  0  0  0  0  0  0  0  0
   41.3810   21.1340   37.4870 O   0  0  0  0  0  0  0  0  0  0  0  0
   39.4560   22.3170   37.3090 N   0  0  0  0  0  0  0  0  0  0  0  0
   38.8670   23.3830   36.7790 C   0  0  0  0  0  0  0  0  0  0  0  0
   37.6510   23.5410   37.0640 O   0  0  0  0  0  0  0  0  0  0  0  0
   38.9690   21.6450   37.9180 H   0  0  0  0  0  0  0  0  0  0  0  0
   38.0920   27.4240   30.6160 C   0  0  0  0  0  0  0  0  0  0  0  0
   38.3430   28.3970   29.6530 C   0  0  0  0  0  0  0  0  0  0  0  0
   37.3970   29.4010   29.5720 C   0  0  0  0  0  0  0  0  0  0  0  0
   36.2740   29.4050   30.4200 C   0  0  0  0  0  0  0  0  0  0  0  0
   36.0960   28.3980   31.3550 C   0  0  0  0  0  0  0  0  0  0  0  0
   37.0240   27.4010   31.4420 C   0  0  0  0  0  0  0  0  0  0  0  0
   37.5720   30.1700   28.8290 H   0  0  0  0  0  0  0  0  0  0  0  0
   35.6190   30.2380   30.2550 H   0  0  0  0  0  0  0  0  0  0  0  0
   35.2010   28.4840   31.9630 H   0  0  0  0  0  0  0  0  0  0  0  0
   39.4620   27.7240   27.5760 C   0  0  0  0  0  0  0  0  0  0  0  0
   39.4880   28.3740   28.8040 C   0  0  0  0  0  0  0  0  0  0  0  0
   40.6980   29.0010   29.1540 C   0  0  0  0  0  0  0  0  0  0  0  0
   41.7570   28.9450   28.3020 N   0  0  0  0  0  0  0  0  0  0  0  0
   41.6580   28.2890   27.1150 C   0  0  0  0  0  0  0  0  0  0  0  0
   40.5160   27.6780   26.7480 N   0  0  0  0  0  0  0  0  0  0  0  0
   38.5750   27.2120   27.2220 H   0  0  0  0  0  0  0  0  0  0  0  0
   40.7560   29.5160   30.0990 H   0  0  0  0  0  0  0  0  0  0  0  0
   42.6020   28.3640   26.5940 H   0  0  0  0  0  0  0  0  0  0  0  0
   39.0060   26.3640   30.7640 O   0  0  0  0  0  0  0  0  0  0  0  0
   39.0180   25.5470   30.1960 H   0  0  0  0  0  0  0  0  0  0  0  0
  1  4  1  0  0  0  0
  2  3  1  0  0  0  0
  3  8  1  0  0  0  0
  4  3  2  0  0  0  0
  4  5  1  0  0  0  0
  5  6  2  0  0  0  0
  6  7  1  0  0  0  0
  6 10  1  0  0  0  0
  7 11  1  0  0  0  0
  8 12  1  0  0  0  0
  8  7  2  0  0  0  0
  9  5  1  0  0  0  0
 12 19  1  0  0  0  0
 13 12  1  0  0  0  0
 13 14  2  0  0  0  0
 14 16  1  0  0  0  0
 15 14  1  0  0  0  0
 16 18  1  0  0  0  0
 16 17  2  0  0  0  0
 18 21  1  0  0  0  0
 19 20  2  0  0  0  0
 19 18  1  0  0  0  0
 22 40  1  0  0  0  0
 22 27  1  0  0  0  0
 23 22  2  0  0  0  0
 24 23  1  0  0  0  0
 24 25  2  0  0  0  0
 25 26  1  0  0  0  0
 26 27  2  0  0  0  0
 26 30  1  0  0  0  0
 27  1  1  0  0  0  0
 28 24  1  0  0  0  0
 29 25  1  0  0  0  0
 31 32  1  0  0  0  0
 32 33  2  0  0  0  0
 32 23  1  0  0  0  0
 33 38  1  0  0  0  0
 34 33  1  0  0  0  0
 35 34  2  0  0  0  0
 36 35  1  0  0  0  0
 36 31  2  0  0  0  0
 37 31  1  0  0  0  0
 39 35  1  0  0  0  0
 41 40  1  0  0  0  0
M  END
>  <minimizedAffinity>
-6.175879

$$$$

 OpenBabel03272501243D

 41 44  0  0  0  0  0  0  0  0999 V2000
   37.7450   26.1600   32.9770 O   0  0  0  0  0  0  0  0  0  0  0  0
   38.3570   23.4280   34.1400 Cl  0  0  0  0  0  0  0  0  0  0  0  0
   39.4410   24.7860   34.1870 C   0  0  0  0  0  0  0  0  0  0  0  0
   38.9620   25.9580   33.5900 C   0  0  0  0  0  0  0  0  0  0  0  0
   39.8000   27.0640   33.6090 C   0  0  0  0  0  0  0  0  0  0  0  0
   41.0560   27.0620   34.1750 C   0  0  0  0  0  0  0  0  0  0  0  0
   41.5180   25.8930   34.7620 C   0  0  0  0  0  0  0  0  0  0  0  0
   40.7090   24.7820   34.7590 C   0  0  0  0  0  0  0  0  0  0  0  0
   39.5230   28.0150   33.1740 H   0  0  0  0  0  0  0  0  0  0  0  0
   41.7070   27.9230   34.1880 H   0  0  0  0  0  0  0  0  0  0  0  0
   42.4770   25.8000   35.2250 H   0  0  0  0  0  0  0  0  0  0  0  0
   41.1410   23.5610   35.3510 N   0  0  0  0  0  0  0  0  0  0  0  0
   40.7900   23.2420   36.6270 C   0  0  0  0  0  3  0  0  0  0  0  0
   41.2240   22.0400   37.1910 C   0  0  0  0  0  0  0  0  0  0  0  0
   40.9500   21.7740   38.2120 H   0  0  0  0  0  0  0  0  0  0  0  0
   42.0140   21.1770   36.4350 C   0  0  0  0  0  0  0  0  0  0  0  0
   42.4240   20.0770   36.9160 O   0  0  0  0  0  0  0  0  0  0  0  0
   42.3600   21.5040   35.1560 N   0  0  0  0  0  0  0  0  0  0  0  0
   41.9050   22.6650   34.7010 C   0  0  0  0  0  0  0  0  0  0  0  0
   42.2280   22.9600   33.5200 O   0  0  0  0  0  0  0  0  0  0  0  0
   42.9430   20.8650   34.5990 H   0  0  0  0  0  0  0  0  0  0  0  0
   36.5200   28.1160   33.6700 C   0  0  0  0  0  0  0  0  0  0  0  0
   35.9240   29.3580   33.4760 C   0  0  0  0  0  0  0  0  0  0  0  0
   36.0260   29.8650   32.1940 C   0  0  0  0  0  0  0  0  0  0  0  0
   36.6930   29.1460   31.1850 C   0  0  0  0  0  0  0  0  0  0  0  0
   37.2610   27.9120   31.4590 C   0  0  0  0  0  0  0  0  0  0  0  0
   37.1660   27.4030   32.7220 C   0  0  0  0  0  0  0  0  0  0  0  0
   35.5690   30.8310   32.0190 H   0  0  0  0  0  0  0  0  0  0  0  0
   36.7000   29.6490   30.2380 H   0  0  0  0  0  0  0  0  0  0  0  0
   37.7540   27.4340   30.6190 H   0  0  0  0  0  0  0  0  0  0  0  0
   35.9460   30.9130   35.3730 C   0  0  0  0  0  0  0  0  0  0  0  0
   35.2540   30.0700   34.5130 C   0  0  0  0  0  0  0  0  0  0  0  0
   33.8660   29.9630   34.7240 C   0  0  0  0  0  0  0  0  0  0  0  0
   33.2810   30.6680   35.7310 N   0  0  0  0  0  0  0  0  0  0  0  0
   34.0250   31.4740   36.5350 C   0  0  0  0  0  0  0  0  0  0  0  0
   35.3540   31.6010   36.3620 N   0  0  0  0  0  0  0  0  0  0  0  0
   37.0170   31.0590   35.2880 H   0  0  0  0  0  0  0  0  0  0  0  0
   33.2950   29.3190   34.0770 H   0  0  0  0  0  0  0  0  0  0  0  0
   33.3750   31.9380   37.2630 H   0  0  0  0  0  0  0  0  0  0  0  0
   36.4630   27.5280   34.9470 O   0  0  0  0  0  0  0  0  0  0  0  0
   37.0820   27.7450   35.6960 H   0  0  0  0  0  0  0  0  0  0  0  0
  1  4  1  0  0  0  0
  2  3  1  0  0  0  0
  3  8  1  0  0  0  0
  4  5  1  0  0  0  0
  4  3  2  0  0  0  0
  5  6  2  0  0  0  0
  6 10  1  0  0  0  0
  6  7  1  0  0  0  0
  7 11  1  0  0  0  0
  8  7  2  0  0  0  0
  8 12  1  0  0  0  0
  9  5  1  0  0  0  0
 12 13  1  0  0  0  0
 13 14  2  0  0  0  0
 14 15  1  0  0  0  0
 16 17  2  0  0  0  0
 16 14  1  0  0  0  0
 18 16  1  0  0  0  0
 19 18  1  0  0  0  0
 19 12  1  0  0  0  0
 20 19  2  0  0  0  0
 21 18  1  0  0  0  0
 22 40  1  0  0  0  0
 23 22  1  0  0  0  0
 23 32  1  0  0  0  0
 24 23  2  0  0  0  0
 25 26  2  0  0  0  0
 25 24  1  0  0  0  0
 26 27  1  0  0  0  0
 27  1  1  0  0  0  0
 27 22  2  0  0  0  0
 28 24  1  0  0  0  0
 29 25  1  0  0  0  0
 30 26  1  0  0  0  0
 31 36  1  0  0  0  0
 32 33  1  0  0  0  0
 32 31  2  0  0  0  0
 33 34  2  0  0  0  0
 34 35  1  0  0  0  0
 35 39  1  0  0  0  0
 36 35  2  0  0  0  0
 37 31  1  0  0  0  0
 38 33  1  0  0  0  0
 40 41  1  0  0  0  0
M  END
>  <minimizedAffinity>
-6.01396942

$$$$

 OpenBabel03272501243D

 41 44  0  0  0  0  0  0  0  0999 V2000
   37.5040   27.4560   31.5080 O   0  0  0  0  0  0  0  0  0  0  0  0
   36.3980   28.0130   34.2760 Cl  0  0  0  0  0  0  0  0  0  0  0  0
   36.2450   29.0870   32.9170 C   0  0  0  0  0  0  0  0  0  0  0  0
   36.8290   28.6370   31.7270 C   0  0  0  0  0  0  0  0  0  0  0  0
   36.7260   29.4680   30.6200 C   0  0  0  0  0  0  0  0  0  0  0  0
   36.0900   30.6890   30.6380 C   0  0  0  0  0  0  0  0  0  0  0  0
   35.5160   31.1220   31.8240 C   0  0  0  0  0  0  0  0  0  0  0  0
   35.6010   30.3200   32.9360 C   0  0  0  0  0  0  0  0  0  0  0  0
   37.1440   29.2120   29.6560 H   0  0  0  0  0  0  0  0  0  0  0  0
   36.0110   31.3350   29.7760 H   0  0  0  0  0  0  0  0  0  0  0  0
   35.0020   32.0540   31.9300 H   0  0  0  0  0  0  0  0  0  0  0  0
   35.0260   30.7230   34.1750 N   0  0  0  0  0  0  0  0  0  0  0  0
   35.7480   31.4440   35.0770 C   0  0  0  0  0  3  0  0  0  0  0  0
   35.1670   31.8300   36.2870 C   0  0  0  0  0  0  0  0  0  0  0  0
   35.7350   32.4070   37.0170 H   0  0  0  0  0  0  0  0  0  0  0  0
   33.8480   31.4710   36.5570 C   0  0  0  0  0  0  0  0  0  0  0  0
   33.2910   31.8060   37.6460 O   0  0  0  0  0  0  0  0  0  0  0  0
   33.1320   30.7500   35.6470 N   0  0  0  0  0  0  0  0  0  0  0  0
   33.7620   30.4250   34.5250 C   0  0  0  0  0  0  0  0  0  0  0  0
   33.0950   29.7590   33.6900 O   0  0  0  0  0  0  0  0  0  0  0  0
   32.1580   30.4850   35.8480 H   0  0  0  0  0  0  0  0  0  0  0  0
   37.6070   25.0480   31.4810 C   0  0  0  0  0  0  0  0  0  0  0  0
   37.0710   23.7700   31.3570 C   0  0  0  0  0  0  0  0  0  0  0  0
   35.7130   23.7240   31.1010 C   0  0  0  0  0  0  0  0  0  0  0  0
   34.9610   24.9080   30.9830 C   0  0  0  0  0  0  0  0  0  0  0  0
   35.5700   26.1450   31.1200 C   0  0  0  0  0  0  0  0  0  0  0  0
   36.9110   26.2010   31.3730 C   0  0  0  0  0  0  0  0  0  0  0  0
   35.2740   22.7400   31.0000 H   0  0  0  0  0  0  0  0  0  0  0  0
   33.9210   24.7340   30.7840 H   0  0  0  0  0  0  0  0  0  0  0  0
   34.9100   27.0000   31.0140 H   0  0  0  0  0  0  0  0  0  0  0  0
   38.4640   22.0050   30.3760 C   0  0  0  0  0  0  0  0  0  0  0  0
   37.8510   22.5840   31.4810 C   0  0  0  0  0  0  0  0  0  0  0  0
   38.0450   21.9360   32.7150 C   0  0  0  0  0  0  0  0  0  0  0  0
   38.8010   20.8060   32.7720 N   0  0  0  0  0  0  0  0  0  0  0  0
   39.3700   20.2960   31.6470 C   0  0  0  0  0  0  0  0  0  0  0  0
   39.2050   20.8890   30.4490 N   0  0  0  0  0  0  0  0  0  0  0  0
   38.3710   22.4320   29.3850 H   0  0  0  0  0  0  0  0  0  0  0  0
   37.5860   22.3560   33.5950 H   0  0  0  0  0  0  0  0  0  0  0  0
   39.9230   19.4050   31.9070 H   0  0  0  0  0  0  0  0  0  0  0  0
   38.9820   25.1850   31.7430 O   0  0  0  0  0  0  0  0  0  0  0  0
   39.3940   25.1160   32.6460 H   0  0  0  0  0  0  0  0  0  0  0  0
  1  4  1  0  0  0  0
  3  8  1  0  0  0  0
  3  2  1  0  0  0  0
  4  3  2  0  0  0  0
  5  6  2  0  0  0  0
  5  4  1  0  0  0  0
  6  7  1  0  0  0  0
  7 11  1  0  0  0  0
  7  8  2  0  0  0  0
  8 12  1  0  0  0  0
  9  5  1  0  0  0  0
 10  6  1  0  0  0  0
 12 19  1  0  0  0  0
 12 13  1  0  0  0  0
 13 14  2  0  0  0  0
 14 16  1  0  0  0  0
 14 15  1  0  0  0  0
 16 17  2  0  0  0  0
 18 21  1  0  0  0  0
 18 16  1  0  0  0  0
 19 18  1  0  0  0  0
 20 19  2  0  0  0  0
 22 40  1  0  0  0  0
 23 22  2  0  0  0  0
 23 32  1  0  0  0  0
 24 23  1  0  0  0  0
 25 24  2  0  0  0  0
 25 26  1  0  0  0  0
 26 27  2  0  0  0  0
 27 22  1  0  0  0  0
 27  1  1  0  0  0  0
 28 24  1  0  0  0  0
 29 25  1  0  0  0  0
 30 26  1  0  0  0  0
 31 36  2  0  0  0  0
 31 32  1  0  0  0  0
 32 33  2  0  0  0  0
 33 34  1  0  0  0  0
 33 38  1  0  0  0  0
 35 39  1  0  0  0  0
 35 34  2  0  0  0  0
 36 35  1  0  0  0  0
 37 31  1  0  0  0  0
 40 41  1  0  0  0  0
M  END
>  <minimizedAffinity>
-5.94386673

$$$$

 OpenBabel03272501243D

 41 44  0  0  0  0  0  0  0  0999 V2000
   38.1970   27.2560   32.4180 O   0  0  0  0  0  0  0  0  0  0  0  0
   36.6880   27.9860   34.9440 Cl  0  0  0  0  0  0  0  0  0  0  0  0
   36.3570   28.6470   33.3710 C   0  0  0  0  0  0  0  0  0  0  0  0
   37.1730   28.1750   32.3360 C   0  0  0  0  0  0  0  0  0  0  0  0
   36.9380   28.6800   31.0660 C   0  0  0  0  0  0  0  0  0  0  0  0
   35.9600   29.6060   30.7810 C   0  0  0  0  0  0  0  0  0  0  0  0
   35.1580   30.0670   31.8160 C   0  0  0  0  0  0  0  0  0  0  0  0
   35.3680   29.5830   33.0840 C   0  0  0  0  0  0  0  0  0  0  0  0
   37.5140   28.3790   30.2010 H   0  0  0  0  0  0  0  0  0  0  0  0
   35.7780   29.9990   29.7920 H   0  0  0  0  0  0  0  0  0  0  0  0
   34.3750   30.7830   31.6870 H   0  0  0  0  0  0  0  0  0  0  0  0
   34.5690   30.0260   34.1770 N   0  0  0  0  0  0  0  0  0  0  0  0
   33.3960   29.4040   34.4810 C   0  0  0  0  0  3  0  0  0  0  0  0
   32.6270   29.8530   35.5560 C   0  0  0  0  0  0  0  0  0  0  0  0
   31.6850   29.3640   35.8090 H   0  0  0  0  0  0  0  0  0  0  0  0
   33.0720   30.9370   36.3100 C   0  0  0  0  0  0  0  0  0  0  0  0
   32.3970   31.3690   37.2930 O   0  0  0  0  0  0  0  0  0  0  0  0
   34.2480   31.5520   36.0000 N   0  0  0  0  0  0  0  0  0  0  0  0
   34.9150   31.0610   34.9620 C   0  0  0  0  0  0  0  0  0  0  0  0
   36.0010   31.6350   34.6820 O   0  0  0  0  0  0  0  0  0  0  0  0
   34.5770   32.3530   36.5570 H   0  0  0  0  0  0  0  0  0  0  0  0
   38.6930   25.3300   33.7780 C   0  0  0  0  0  0  0  0  0  0  0  0
   38.5850   23.9930   34.1500 C   0  0  0  0  0  0  0  0  0  0  0  0
   37.7360   23.2330   33.3670 C   0  0  0  0  0  0  0  0  0  0  0  0
   37.0490   23.8070   32.2800 C   0  0  0  0  0  0  0  0  0  0  0  0
   37.2120   25.1490   31.9750 C   0  0  0  0  0  0  0  0  0  0  0  0
   38.0480   25.9080   32.7430 C   0  0  0  0  0  0  0  0  0  0  0  0
   37.6350   22.1900   33.6370 H   0  0  0  0  0  0  0  0  0  0  0  0
   36.4250   23.1110   31.7550 H   0  0  0  0  0  0  0  0  0  0  0  0
   36.6420   25.5010   31.1220 H   0  0  0  0  0  0  0  0  0  0  0  0
   38.7600   23.4650   36.5380 C   0  0  0  0  0  0  0  0  0  0  0  0
   39.2890   23.4330   35.2540 C   0  0  0  0  0  0  0  0  0  0  0  0
   40.5480   22.8200   35.1110 C   0  0  0  0  0  0  0  0  0  0  0  0
   41.1730   22.3020   36.2040 N   0  0  0  0  0  0  0  0  0  0  0  0
   40.5930   22.3700   37.4310 C   0  0  0  0  0  0  0  0  0  0  0  0
   39.3900   22.9490   37.6050 N   0  0  0  0  0  0  0  0  0  0  0  0
   37.7960   23.9160   36.7460 H   0  0  0  0  0  0  0  0  0  0  0  0
   40.9910   22.7760   34.1300 H   0  0  0  0  0  0  0  0  0  0  0  0
   41.2480   21.9050   38.1550 H   0  0  0  0  0  0  0  0  0  0  0  0
   39.5370   26.1750   34.5240 O   0  0  0  0  0  0  0  0  0  0  0  0
   39.2800   26.6160   35.3780 H   0  0  0  0  0  0  0  0  0  0  0  0
  1 27  1  0  0  0  0
  3  2  1  0  0  0  0
  4  1  1  0  0  0  0
  4  3  2  0  0  0  0
  5  4  1  0  0  0  0
  6  5  2  0  0  0  0
  6  7  1  0  0  0  0
  7  8  2  0  0  0  0
  8  3  1  0  0  0  0
  8 12  1  0  0  0  0
  9  5  1  0  0  0  0
 10  6  1  0  0  0  0
 11  7  1  0  0  0  0
 12 13  1  0  0  0  0
 12 19  1  0  0  0  0
 13 14  2  0  0  0  0
 14 15  1  0  0  0  0
 14 16  1  0  0  0  0
 16 17  2  0  0  0  0
 18 16  1  0  0  0  0
 18 21  1  0  0  0  0
 19 18  1  0  0  0  0
 20 19  2  0  0  0  0
 22 23  1  0  0  0  0
 22 40  1  0  0  0  0
 23 32  1  0  0  0  0
 24 28  1  0  0  0  0
 24 23  2  0  0  0  0
 25 24  1  0  0  0  0
 26 25  2  0  0  0  0
 26 27  1  0  0  0  0
 27 22  2  0  0  0  0
 29 25  1  0  0  0  0
 30 26  1  0  0  0  0
 31 37  1  0  0  0  0
 31 36  1  0  0  0  0
 32 31  2  0  0  0  0
 33 32  1  0  0  0  0
 33 34  2  0  0  0  0
 34 35  1  0  0  0  0
 35 36  2  0  0  0  0
 35 39  1  0  0  0  0
 38 33  1  0  0  0  0
 40 41  1  0  0  0  0
M  END
>  <minimizedAffinity>
-5.93064928

$$$$

 OpenBabel03272501243D

 41 44  0  0  0  0  0  0  0  0999 V2000
   38.1340   26.6290   31.9720 O   0  0  0  0  0  0  0  0  0  0  0  0
   36.6170   27.4980   34.4490 Cl  0  0  0  0  0  0  0  0  0  0  0  0
   36.5840   28.3360   32.9270 C   0  0  0  0  0  0  0  0  0  0  0  0
   37.3570   27.7660   31.9090 C   0  0  0  0  0  0  0  0  0  0  0  0
   37.3550   28.4080   30.6800 C   0  0  0  0  0  0  0  0  0  0  0  0
   36.6430   29.5560   30.4190 C   0  0  0  0  0  0  0  0  0  0  0  0
   35.8800   30.1120   31.4360 C   0  0  0  0  0  0  0  0  0  0  0  0
   35.8630   29.4970   32.6650 C   0  0  0  0  0  0  0  0  0  0  0  0
   37.9200   28.0470   29.8300 H   0  0  0  0  0  0  0  0  0  0  0  0
   36.6420   30.0550   29.4610 H   0  0  0  0  0  0  0  0  0  0  0  0
   35.2960   31.0000   31.3240 H   0  0  0  0  0  0  0  0  0  0  0  0
   35.0940   30.0300   33.7390 N   0  0  0  0  0  0  0  0  0  0  0  0
   35.6650   30.8490   34.6650 C   0  0  0  0  0  3  0  0  0  0  0  0
   34.8960   31.3610   35.7110 C   0  0  0  0  0  0  0  0  0  0  0  0
   35.3410   32.0180   36.4600 H   0  0  0  0  0  0  0  0  0  0  0  0
   33.5450   31.0280   35.7950 C   0  0  0  0  0  0  0  0  0  0  0  0
   32.8190   31.4770   36.7320 O   0  0  0  0  0  0  0  0  0  0  0  0
   32.9820   30.2080   34.8610 N   0  0  0  0  0  0  0  0  0  0  0  0
   33.7860   29.7660   33.9020 C   0  0  0  0  0  0  0  0  0  0  0  0
   33.2580   29.0090   33.0450 O   0  0  0  0  0  0  0  0  0  0  0  0
   31.9840   29.9620   34.9230 H   0  0  0  0  0  0  0  0  0  0  0  0
   39.2710   25.4020   33.7070 C   0  0  0  0  0  0  0  0  0  0  0  0
   40.3150   25.1570   34.5930 C   0  0  0  0  0  0  0  0  0  0  0  0
   41.3530   26.0690   34.5460 C   0  0  0  0  0  0  0  0  0  0  0  0
   41.3180   27.1560   33.6510 C   0  0  0  0  0  0  0  0  0  0  0  0
   40.2390   27.3310   32.7990 C   0  0  0  0  0  0  0  0  0  0  0  0
   39.2100   26.4340   32.8380 C   0  0  0  0  0  0  0  0  0  0  0  0
   42.1770   25.8990   35.2270 H   0  0  0  0  0  0  0  0  0  0  0  0
   42.1820   27.7870   33.7150 H   0  0  0  0  0  0  0  0  0  0  0  0
   40.3020   28.1940   32.1460 H   0  0  0  0  0  0  0  0  0  0  0  0
   41.2430   23.0130   35.3410 C   0  0  0  0  0  0  0  0  0  0  0  0
   40.3310   24.0500   35.4900 C   0  0  0  0  0  0  0  0  0  0  0  0
   39.4330   23.9430   36.5690 C   0  0  0  0  0  0  0  0  0  0  0  0
   39.4950   22.8610   37.3930 N   0  0  0  0  0  0  0  0  0  0  0  0
   40.4170   21.8840   37.1840 C   0  0  0  0  0  0  0  0  0  0  0  0
   41.2910   21.9540   36.1630 N   0  0  0  0  0  0  0  0  0  0  0  0
   41.9730   23.0080   34.5400 H   0  0  0  0  0  0  0  0  0  0  0  0
   38.7100   24.7280   36.7170 H   0  0  0  0  0  0  0  0  0  0  0  0
   40.2990   21.1230   37.9430 H   0  0  0  0  0  0  0  0  0  0  0  0
   38.1750   24.5200   33.6890 O   0  0  0  0  0  0  0  0  0  0  0  0
   38.1540   23.6550   33.1970 H   0  0  0  0  0  0  0  0  0  0  0  0
  1 27  1  0  0  0  0
  3  2  1  0  0  0  0
  4  1  1  0  0  0  0
  4  3  2  0  0  0  0
  5  4  1  0  0  0  0
  6  5  2  0  0  0  0
  6  7  1  0  0  0  0
  7  8  2  0  0  0  0
  8  3  1  0  0  0  0
  8 12  1  0  0  0  0
  9  5  1  0  0  0  0
 10  6  1  0  0  0  0
 11  7  1  0  0  0  0
 12 19  1  0  0  0  0
 12 13  1  0  0  0  0
 13 14  2  0  0  0  0
 14 16  1  0  0  0  0
 14 15  1  0  0  0  0
 16 17  2  0  0  0  0
 18 21  1  0  0  0  0
 18 16  1  0  0  0  0
 19 18  1  0  0  0  0
 20 19  2  0  0  0  0
 22 23  1  0  0  0  0
 23 32  1  0  0  0  0
 24 23  2  0  0  0  0
 24 28  1  0  0  0  0
 25 29  1  0  0  0  0
 25 24  1  0  0  0  0
 26 27  1  0  0  0  0
 26 25  2  0  0  0  0
 27 22  2  0  0  0  0
 30 26  1  0  0  0  0
 31 32  2  0  0  0  0
 31 36  1  0  0  0  0
 32 33  1  0  0  0  0
 33 38  1  0  0  0  0
 33 34  2  0  0  0  0
 35 34  1  0  0  0  0
 35 39  1  0  0  0  0
 36 35  2  0  0  0  0
 37 31  1  0  0  0  0
 40 22  1  0  0  0  0
 41 40  1  0  0  0  0
M  END
>  <minimizedAffinity>
-5.91397905

$$$$

 OpenBabel03272501243D

 41 44  0  0  0  0  0  0  0  0999 V2000
   35.4550   28.0680   31.5780 O   0  0  0  0  0  0  0  0  0  0  0  0
   34.7600   25.2930   30.5730 Cl  0  0  0  0  0  0  0  0  0  0  0  0
   36.0640   25.6490   31.6660 C   0  0  0  0  0  0  0  0  0  0  0  0
   36.2130   26.9990   32.0050 C   0  0  0  0  0  0  0  0  0  0  0  0
   37.2440   27.3220   32.8750 C   0  0  0  0  0  0  0  0  0  0  0  0
   38.1100   26.3950   33.4100 C   0  0  0  0  0  0  0  0  0  0  0  0
   37.9510   25.0600   33.0660 C   0  0  0  0  0  0  0  0  0  0  0  0
   36.9380   24.7110   32.2070 C   0  0  0  0  0  0  0  0  0  0  0  0
   37.4420   28.3350   33.1970 H   0  0  0  0  0  0  0  0  0  0  0  0
   38.9120   26.6470   34.0880 H   0  0  0  0  0  0  0  0  0  0  0  0
   38.5750   24.2730   33.4330 H   0  0  0  0  0  0  0  0  0  0  0  0
   36.7370   23.3540   31.8260 N   0  0  0  0  0  0  0  0  0  0  0  0
   35.7430   22.6120   32.3880 C   0  0  0  0  0  3  0  0  0  0  0  0
   35.5610   21.2820   32.0020 C   0  0  0  0  0  0  0  0  0  0  0  0
   34.7700   20.6780   32.4460 H   0  0  0  0  0  0  0  0  0  0  0  0
   36.4030   20.7290   31.0390 C   0  0  0  0  0  0  0  0  0  0  0  0
   36.2640   19.5240   30.6660 O   0  0  0  0  0  0  0  0  0  0  0  0
   37.3940   21.4800   30.4800 N   0  0  0  0  0  0  0  0  0  0  0  0
   37.4960   22.7340   30.9060 C   0  0  0  0  0  0  0  0  0  0  0  0
   38.4140   23.4200   30.3850 O   0  0  0  0  0  0  0  0  0  0  0  0
   38.0150   21.0700   29.7690 H   0  0  0  0  0  0  0  0  0  0  0  0
   35.1500   29.9180   33.0920 C   0  0  0  0  0  0  0  0  0  0  0  0
   35.3140   31.2340   33.5150 C   0  0  0  0  0  0  0  0  0  0  0  0
   36.0570   32.0360   32.6700 C   0  0  0  0  0  0  0  0  0  0  0  0
   36.5930   31.5220   31.4740 C   0  0  0  0  0  0  0  0  0  0  0  0
   36.3850   30.1980   31.1220 C   0  0  0  0  0  0  0  0  0  0  0  0
   35.6530   29.3970   31.9510 C   0  0  0  0  0  0  0  0  0  0  0  0
   36.1970   33.0640   32.9790 H   0  0  0  0  0  0  0  0  0  0  0  0
   37.1470   32.2460   30.9100 H   0  0  0  0  0  0  0  0  0  0  0  0
   36.8360   29.8920   30.1840 H   0  0  0  0  0  0  0  0  0  0  0  0
   35.4860   31.7040   35.9170 C   0  0  0  0  0  0  0  0  0  0  0  0
   34.7630   31.7330   34.7310 C   0  0  0  0  0  0  0  0  0  0  0  0
   33.4680   32.2810   34.8010 C   0  0  0  0  0  0  0  0  0  0  0  0
   32.9950   32.7430   35.9910 N   0  0  0  0  0  0  0  0  0  0  0  0
   33.7620   32.6800   37.1120 C   0  0  0  0  0  0  0  0  0  0  0  0
   35.0040   32.1630   37.0820 N   0  0  0  0  0  0  0  0  0  0  0  0
   36.4910   31.3010   35.9600 H   0  0  0  0  0  0  0  0  0  0  0  0
   32.8760   32.3220   33.9020 H   0  0  0  0  0  0  0  0  0  0  0  0
   33.2050   33.0960   37.9400 H   0  0  0  0  0  0  0  0  0  0  0  0
   34.4080   29.0340   33.8950 O   0  0  0  0  0  0  0  0  0  0  0  0
   34.7710   28.5480   34.6840 H   0  0  0  0  0  0  0  0  0  0  0  0
  1 27  1  0  0  0  0
  1  4  1  0  0  0  0
  2  3  1  0  0  0  0
  3  4  2  0  0  0  0
  3  8  1  0  0  0  0
  4  5  1  0  0  0  0
  5  9  1  0  0  0  0
  5  6  2  0  0  0  0
  6 10  1  0  0  0  0
  7  6  1  0  0  0  0
  7 11  1  0  0  0  0
  8  7  2  0  0  0  0
 12  8  1  0  0  0  0
 12 13  1  0  0  0  0
 14 13  2  0  0  0  0
 14 15  1  0  0  0  0
 16 14  1  0  0  0  0
 17 16  2  0  0  0  0
 18 19  1  0  0  0  0
 18 16  1  0  0  0  0
 19 12  1  0  0  0  0
 20 19  2  0  0  0  0
 21 18  1  0  0  0  0
 22 23  1  0  0  0  0
 22 40  1  0  0  0  0
 23 32  1  0  0  0  0
 24 28  1  0  0  0  0
 24 23  2  0  0  0  0
 25 24  1  0  0  0  0
 26 25  2  0  0  0  0
 26 27  1  0  0  0  0
 27 22  2  0  0  0  0
 29 25  1  0  0  0  0
 30 26  1  0  0  0  0
 31 37  1  0  0  0  0
 31 36  1  0  0  0  0
 32 33  1  0  0  0  0
 32 31  2  0  0  0  0
 33 34  2  0  0  0  0
 34 35  1  0  0  0  0
 35 39  1  0  0  0  0
 36 35  2  0  0  0  0
 38 33  1  0  0  0  0
 40 41  1  0  0  0  0
M  END
>  <minimizedAffinity>
-5.90522861

$$$$

 OpenBabel03272501243D

 41 44  0  0  0  0  0  0  0  0999 V2000
   37.3780   27.3120   32.2340 O   0  0  0  0  0  0  0  0  0  0  0  0
   38.9800   24.7480   32.4700 Cl  0  0  0  0  0  0  0  0  0  0  0  0
   37.3730   24.8510   31.8150 C   0  0  0  0  0  0  0  0  0  0  0  0
   36.8120   26.1340   31.7970 C   0  0  0  0  0  0  0  0  0  0  0  0
   35.5300   26.2550   31.2810 C   0  0  0  0  0  0  0  0  0  0  0  0
   34.7990   25.1950   30.7950 C   0  0  0  0  0  0  0  0  0  0  0  0
   35.3670   23.9290   30.8190 C   0  0  0  0  0  0  0  0  0  0  0  0
   36.6350   23.7790   31.3230 C   0  0  0  0  0  0  0  0  0  0  0  0
   35.0100   27.2020   31.2240 H   0  0  0  0  0  0  0  0  0  0  0  0
   33.8010   25.2900   30.3930 H   0  0  0  0  0  0  0  0  0  0  0  0
   34.8730   23.0500   30.4620 H   0  0  0  0  0  0  0  0  0  0  0  0
   37.2590   22.5000   31.3670 N   0  0  0  0  0  0  0  0  0  0  0  0
   38.1550   22.1280   30.4120 C   0  0  0  0  0  3  0  0  0  0  0  0
   38.7560   20.8680   30.4710 C   0  0  0  0  0  0  0  0  0  0  0  0
   39.4740   20.5590   29.7110 H   0  0  0  0  0  0  0  0  0  0  0  0
   38.4300   20.0040   31.5140 C   0  0  0  0  0  0  0  0  0  0  0  0
   38.9580   18.8540   31.5970 O   0  0  0  0  0  0  0  0  0  0  0  0
   37.5330   20.3850   32.4670 N   0  0  0  0  0  0  0  0  0  0  0  0
   37.0090   21.5990   32.3330 C   0  0  0  0  0  0  0  0  0  0  0  0
   36.1820   21.9430   33.2180 O   0  0  0  0  0  0  0  0  0  0  0  0
   37.2930   19.7460   33.2380 H   0  0  0  0  0  0  0  0  0  0  0  0
   36.1710   29.0460   33.3930 C   0  0  0  0  0  0  0  0  0  0  0  0
   35.5190   30.2710   33.4910 C   0  0  0  0  0  0  0  0  0  0  0  0
   35.4700   31.0060   32.3220 C   0  0  0  0  0  0  0  0  0  0  0  0
   36.0500   30.5160   31.1360 C   0  0  0  0  0  0  0  0  0  0  0  0
   36.6830   29.2830   31.1210 C   0  0  0  0  0  0  0  0  0  0  0  0
   36.7370   28.5500   32.2720 C   0  0  0  0  0  0  0  0  0  0  0  0
   34.9670   31.9640   32.3740 H   0  0  0  0  0  0  0  0  0  0  0  0
   35.9430   31.1820   30.3030 H   0  0  0  0  0  0  0  0  0  0  0  0
   37.1000   28.9900   30.1640 H   0  0  0  0  0  0  0  0  0  0  0  0
   33.6050   30.5050   35.0080 C   0  0  0  0  0  0  0  0  0  0  0  0
   34.9380   30.7490   34.7020 C   0  0  0  0  0  0  0  0  0  0  0  0
   35.6720   31.4880   35.6490 C   0  0  0  0  0  0  0  0  0  0  0  0
   35.0630   31.9180   36.7870 N   0  0  0  0  0  0  0  0  0  0  0  0
   33.7530   31.6410   37.0190 C   0  0  0  0  0  0  0  0  0  0  0  0
   33.0200   30.9370   36.1350 N   0  0  0  0  0  0  0  0  0  0  0  0
   32.9610   29.9460   34.3390 H   0  0  0  0  0  0  0  0  0  0  0  0
   36.7100   31.6960   35.4470 H   0  0  0  0  0  0  0  0  0  0  0  0
   33.4670   32.0680   37.9700 H   0  0  0  0  0  0  0  0  0  0  0  0
   36.2660   28.2350   34.5390 O   0  0  0  0  0  0  0  0  0  0  0  0
   36.9530   28.3430   35.2510 H   0  0  0  0  0  0  0  0  0  0  0  0
  1 27  1  0  0  0  0
  3  2  1  0  0  0  0
  4  3  1  0  0  0  0
  4  1  1  0  0  0  0
  5  4  2  0  0  0  0
  6  7  2  0  0  0  0
  6  5  1  0  0  0  0
  7  8  1  0  0  0  0
  8 12  1  0  0  0  0
  8  3  2  0  0  0  0
  9  5  1  0  0  0  0
 10  6  1  0  0  0  0
 11  7  1  0  0  0  0
 12 19  1  0  0  0  0
 13 14  2  0  0  0  0
 13 12  1  0  0  0  0
 14 16  1  0  0  0  0
 15 14  1  0  0  0  0
 16 17  2  0  0  0  0
 16 18  1  0  0  0  0
 18 21  1  0  0  0  0
 19 18  1  0  0  0  0
 19 20  2  0  0  0  0
 22 23  1  0  0  0  0
 22 40  1  0  0  0  0
 23 32  1  0  0  0  0
 24 28  1  0  0  0  0
 24 23  2  0  0  0  0
 25 24  1  0  0  0  0
 26 25  2  0  0  0  0
 26 27  1  0  0  0  0
 27 22  2  0  0  0  0
 29 25  1  0  0  0  0
 30 26  1  0  0  0  0
 31 36  1  0  0  0  0
 32 31  2  0  0  0  0
 32 33  1  0  0  0  0
 33 34  2  0  0  0  0
 34 35  1  0  0  0  0
 35 39  1  0  0  0  0
 36 35  2  0  0  0  0
 37 31  1  0  0  0  0
 38 33  1  0  0  0  0
 40 41  1  0  0  0  0
M  END
>  <minimizedAffinity>
-5.90460491

$$$$

 OpenBabel03272501243D

 41 44  0  0  0  0  0  0  0  0999 V2000
   37.8110   26.2380   31.6400 O   0  0  0  0  0  0  0  0  0  0  0  0
   35.7540   24.0110   31.6080 Cl  0  0  0  0  0  0  0  0  0  0  0  0
   37.4300   23.8010   32.0200 C   0  0  0  0  0  0  0  0  0  0  0  0
   38.2110   24.9620   31.9720 C   0  0  0  0  0  0  0  0  0  0  0  0
   39.5540   24.8330   32.2950 C   0  0  0  0  0  0  0  0  0  0  0  0
   40.1430   23.6410   32.6530 C   0  0  0  0  0  0  0  0  0  0  0  0
   39.3570   22.4980   32.6960 C   0  0  0  0  0  0  0  0  0  0  0  0
   38.0230   22.5960   32.3820 C   0  0  0  0  0  0  0  0  0  0  0  0
   40.2400   25.6690   32.2880 H   0  0  0  0  0  0  0  0  0  0  0  0
   41.1880   23.5410   32.9040 H   0  0  0  0  0  0  0  0  0  0  0  0
   39.7280   21.5310   32.9630 H   0  0  0  0  0  0  0  0  0  0  0  0
   37.1780   21.4500   32.4130 N   0  0  0  0  0  0  0  0  0  0  0  0
   36.4590   21.1440   33.5280 C   0  0  0  0  0  3  0  0  0  0  0  0
   35.6360   20.0160   33.5400 C   0  0  0  0  0  0  0  0  0  0  0  0
   35.0550   19.7600   34.4260 H   0  0  0  0  0  0  0  0  0  0  0  0
   35.5600   19.2130   32.4030 C   0  0  0  0  0  0  0  0  0  0  0  0
   34.8220   18.1820   32.3810 O   0  0  0  0  0  0  0  0  0  0  0  0
   36.2830   19.5280   31.2900 N   0  0  0  0  0  0  0  0  0  0  0  0
   37.0400   20.6170   31.3670 C   0  0  0  0  0  0  0  0  0  0  0  0
   37.7040   20.9000   30.3360 O   0  0  0  0  0  0  0  0  0  0  0  0
   36.2270   18.9340   30.4520 H   0  0  0  0  0  0  0  0  0  0  0  0
   36.1930   27.9710   32.0720 C   0  0  0  0  0  0  0  0  0  0  0  0
   35.5090   28.8780   32.8760 C   0  0  0  0  0  0  0  0  0  0  0  0
   35.8820   28.8810   34.2070 C   0  0  0  0  0  0  0  0  0  0  0  0
   36.8860   28.0140   34.6780 C   0  0  0  0  0  0  0  0  0  0  0  0
   37.5210   27.1380   33.8110 C   0  0  0  0  0  0  0  0  0  0  0  0
   37.1590   27.1270   32.4950 C   0  0  0  0  0  0  0  0  0  0  0  0
   35.3630   29.5790   34.8520 H   0  0  0  0  0  0  0  0  0  0  0  0
   37.0800   28.1160   35.7270 H   0  0  0  0  0  0  0  0  0  0  0  0
   38.2800   26.5090   34.2640 H   0  0  0  0  0  0  0  0  0  0  0  0
   34.8020   30.8000   31.5260 C   0  0  0  0  0  0  0  0  0  0  0  0
   34.4950   29.7470   32.3790 C   0  0  0  0  0  0  0  0  0  0  0  0
   33.1380   29.5930   32.7200 C   0  0  0  0  0  0  0  0  0  0  0  0
   32.2140   30.4550   32.2140 N   0  0  0  0  0  0  0  0  0  0  0  0
   32.5900   31.4640   31.3830 C   0  0  0  0  0  0  0  0  0  0  0  0
   33.8790   31.6410   31.0360 N   0  0  0  0  0  0  0  0  0  0  0  0
   35.8190   30.9970   31.2080 H   0  0  0  0  0  0  0  0  0  0  0  0
   32.8610   28.7880   33.3790 H   0  0  0  0  0  0  0  0  0  0  0  0
   31.7130   32.0270   31.0970 H   0  0  0  0  0  0  0  0  0  0  0  0
   35.8740   27.9020   30.7040 O   0  0  0  0  0  0  0  0  0  0  0  0
   35.1090   27.3880   30.3280 H   0  0  0  0  0  0  0  0  0  0  0  0
  1  4  1  0  0  0  0
  1 27  1  0  0  0  0
  2  3  1  0  0  0  0
  3  8  1  0  0  0  0
  4  3  2  0  0  0  0
  4  5  1  0  0  0  0
  5  6  2  0  0  0  0
  6  7  1  0  0  0  0
  6 10  1  0  0  0  0
  7 11  1  0  0  0  0
  8 12  1  0  0  0  0
  8  7  2  0  0  0  0
  9  5  1  0  0  0  0
 12 13  1  0  0  0  0
 13 14  2  0  0  0  0
 14 15  1  0  0  0  0
 16 14  1  0  0  0  0
 17 16  2  0  0  0  0
 18 19  1  0  0  0  0
 18 16  1  0  0  0  0
 19 12  1  0  0  0  0
 20 19  2  0  0  0  0
 21 18  1  0  0  0  0
 22 27  2  0  0  0  0
 22 23  1  0  0  0  0
 23 24  2  0  0  0  0
 24 25  1  0  0  0  0
 24 28  1  0  0  0  0
 25 29  1  0  0  0  0
 26 30  1  0  0  0  0
 26 25  2  0  0  0  0
 27 26  1  0  0  0  0
 31 32  1  0  0  0  0
 32 33  2  0  0  0  0
 32 23  1  0  0  0  0
 33 38  1  0  0  0  0
 34 33  1  0  0  0  0
 35 34  2  0  0  0  0
 36 35  1  0  0  0  0
 36 31  2  0  0  0  0
 37 31  1  0  0  0  0
 39 35  1  0  0  0  0
 40 22  1  0  0  0  0
 41 40  1  0  0  0  0
M  END
>  <minimizedAffinity>
-5.88717127

$$$$
