
 OpenBabel03272507193D

 31 33  0  0  1  0  0  0  0  0999 V2000
   37.0020   31.0470   48.8350 C   0  0  0  0  0  0  0  0  0  0  0  0
   38.2920   31.5240   48.9660 C   0  0  0  0  0  0  0  0  0  0  0  0
   38.9640   31.7210   47.7340 C   0  0  0  0  0  0  0  0  0  0  0  0
   38.3420   31.4480   46.5390 N   0  0  0  0  0  0  0  0  0  0  0  0
   37.0760   30.9830   46.4890 C   0  0  0  0  0  0  0  0  0  0  0  0
   36.3950   30.7790   47.6590 N   0  0  0  0  0  0  0  0  0  0  0  0
   38.7740   31.7360   49.9090 H   0  0  0  0  0  0  0  0  0  0  0  0
   39.9850   32.0950   47.7450 H   0  0  0  0  0  0  0  0  0  0  0  0
   36.5110   30.7250   45.2090 N   0  0  0  0  0  0  0  0  0  0  0  0
   37.1310   31.3060   44.1400 C   0  0  0  0  0  3  0  0  0  0  0  0
   36.6430   31.1040   42.8670 C   0  0  0  0  0  0  0  0  0  0  0  0
   37.0890   31.5350   41.9910 H   0  0  0  0  0  0  0  0  0  0  0  0
   35.5180   30.3110   42.6460 C   0  0  0  0  0  0  0  0  0  0  0  0
   35.0680   30.1230   41.4830 O   0  0  0  0  0  0  0  0  0  0  0  0
   34.9390   29.7580   43.7400 N   0  0  0  0  0  0  0  0  0  0  0  0
   35.4230   29.9610   44.9690 C   0  0  0  0  0  0  0  0  0  0  0  0
   34.8820   29.4440   45.9910 O   0  0  0  0  0  0  0  0  0  0  0  0
   34.0840   29.1530   43.5900 H   0  0  0  0  0  0  0  0  0  0  0  0
   36.2510   30.8640   50.1170 C   0  0  1  0  0  0  0  0  0  0  0  0
   35.5380   29.6270   50.4290 C   0  0  2  0  0  0  0  0  0  0  0  0
   36.9060   29.7980   51.0210 C   0  0  0  0  0  0  0  0  0  0  0  0
   36.0120   31.8170   50.6350 H   0  0  0  0  0  0  0  0  0  0  0  0
   34.6060   29.8110   51.0430 H   0  0  0  0  0  0  0  0  0  0  0  0
   37.7340   29.1910   50.6030 H   0  0  0  0  0  0  0  0  0  0  0  0
   36.8990   30.0450   52.0910 H   0  0  0  0  0  0  0  0  0  0  0  0
   35.3690   28.7200   49.3910 O   0  0  0  0  0  0  0  0  0  0  0  0
   34.2530   28.0820   48.9630 C   0  0  0  0  0  0  0  0  0  0  0  0
   34.3020   27.0590   48.2460 O   0  0  0  0  0  0  0  0  0  0  0  0
   33.1440   28.7680   49.4590 N   0  0  0  0  0  0  0  0  0  0  0  0
   32.2380   29.2900   49.4060 H   0  0  0  0  0  0  0  0  0  0  0  0
   32.9180   28.9800   50.4700 H   0  0  0  0  0  0  0  0  0  0  0  0
  1  2  1  0  0  0  0
  1 19  1  0  0  0  0
  2  7  1  0  0  0  0
  3  8  1  0  0  0  0
  3  2  2  0  0  0  0
  4  3  1  0  0  0  0
  5  4  2  0  0  0  0
  5  6  1  0  0  0  0
  6  1  2  0  0  0  0
  9  5  1  0  0  0  0
 10  9  1  0  0  0  0
 11 10  2  0  0  0  0
 12 11  1  0  0  0  0
 13 11  1  0  0  0  0
 13 15  1  0  0  0  0
 14 13  2  0  0  0  0
 15 16  1  0  0  0  0
 16  9  1  0  0  0  0
 16 17  2  0  0  0  0
 18 15  1  0  0  0  0
 19 20  1  0  0  0  0
 19 22  1  1  0  0  0
 19 21  1  0  0  0  0
 20 21  1  0  0  0  0
 20 23  1  1  0  0  0
 21 25  1  0  0  0  0
 24 21  1  0  0  0  0
 26 20  1  0  0  0  0
 27 26  1  0  0  0  0
 27 29  1  0  0  0  0
 28 27  2  0  0  0  0
 29 31  1  0  0  0  0
 30 29  1  0  0  0  0
M  END
>  <minimizedAffinity>
-5.19985962

>  <minimizedRMSD>
0.830683708

$$$$
