REMARK  Name = 
REMARK  4 active torsions:
REMARK  status: ('A' for Active; 'I' for Inactive)
REMARK    1  A    between atoms: C_1  and  C_8
REMARK    2  A    between atoms: C_6  and  C_13
REMARK    3  A    between atoms: C_13  and  C_14
REMARK    4  A    between atoms: C_14  and  N_32
REMARK                            x       y       z     vdW  Elec       q    Type
REMARK                         _______ _______ _______ _____ _____    ______ ____
ROOT
ATOM      1  C   UNL     1      35.291  30.624  48.961  0.00  0.00    +0.000 C 
ATOM      2  C   UNL     1      34.791  30.176  50.241  0.00  0.00    +0.000 C 
ATOM      3  C   UNL     1      35.630  29.160  50.990  0.00  0.00    +0.000 C 
ATOM      4  C   UNL     1      37.105  29.340  50.882  0.00  0.00    +0.000 C 
ATOM      5  C   UNL     1      37.644  29.835  49.589  0.00  0.00    +0.000 C 
ATOM      6  C   UNL     1      36.782  30.872  48.971  0.00  0.00    +0.000 C 
ATOM      7  H   UNL     1      34.883  31.660  48.743  0.00  0.00    +0.000 HD
ATOM      8  H   UNL     1      33.764  29.828  50.304  0.00  0.00    +0.000 HD
ATOM      9  H   UNL     1      34.817  31.071  50.928  0.00  0.00    +0.000 HD
ATOM     10  H   UNL     1      35.355  29.191  52.068  0.00  0.00    +0.000 HD
ATOM     11  H   UNL     1      35.309  28.151  50.625  0.00  0.00    +0.000 HD
ATOM     12  H   UNL     1      37.548  28.316  51.031  0.00  0.00    +0.000 HD
ATOM     13  H   UNL     1      37.523  29.933  51.723  0.00  0.00    +0.000 HD
ATOM     14  H   UNL     1      37.743  28.973  48.870  0.00  0.00    +0.000 HD
ATOM     15  H   UNL     1      38.624  30.290  49.781  0.00  0.00    +0.000 HD
ATOM     16  H   UNL     1      37.187  31.198  47.999  0.00  0.00    +0.000 HD
ENDROOT
BRANCH   1  18
ATOM     17  C   UNL     1      33.991  28.735  47.829  0.00  0.00    +0.000 A 
ATOM     18  C   UNL     1      34.879  29.854  47.774  0.00  0.00    +0.000 A 
ATOM     19  C   UNL     1      35.347  30.180  46.513  0.00  0.00    +0.000 A 
ATOM     20  N   UNL     1      34.953  29.445  45.423  0.00  0.00    +0.000 NA
ATOM     21  C   UNL     1      34.112  28.401  45.542  0.00  0.00    +0.000 A 
ATOM     22  N   UNL     1      33.628  28.044  46.763  0.00  0.00    +0.000 NA
ATOM     23  H   UNL     1      33.609  28.457  48.803  0.00  0.00    +0.000 HD
ATOM     24  H   UNL     1      36.016  30.996  46.340  0.00  0.00    +0.000 HD
ATOM     25  H   UNL     1      33.828  27.850  44.656  0.00  0.00    +0.000 HD
ENDBRANCH   1  18
BRANCH   6  26
ATOM     26  C   UNL     1      36.953  32.116  49.882  0.00  0.00    +0.000 C 
ATOM     27  H   UNL     1      37.228  31.824  50.902  0.00  0.00    +0.000 HD
ATOM     28  H   UNL     1      36.029  32.729  49.894  0.00  0.00    +0.000 HD
BRANCH  26  29
ATOM     29  C   UNL     1      38.047  33.024  49.337  0.00  0.00    +0.000 C 
ATOM     30  H   UNL     1      38.995  32.463  49.318  0.00  0.00    +0.000 HD
ATOM     31  H   UNL     1      37.722  33.403  48.346  0.00  0.00    +0.000 HD
BRANCH  29  32
ATOM     32  N   UNL     1      38.149  34.171  50.246  0.00  0.00    +0.000 N 
ATOM     33  C   UNL     1      38.808  35.304  49.900  0.00  0.00    +0.000 A 
ATOM     34  C   UNL     1      38.820  36.308  50.867  0.00  0.00    +0.000 A 
ATOM     35  H   UNL     1      39.349  37.224  50.596  0.00  0.00    +0.000 HD
ATOM     36  C   UNL     1      38.206  36.167  52.093  0.00  0.00    +0.000 A 
ATOM     37  O   UNL     1      38.294  37.145  52.867  0.00  0.00    +0.000 OA
ATOM     38  N   UNL     1      37.557  35.018  52.402  0.00  0.00    +0.000 N 
ATOM     39  C   UNL     1      37.564  34.078  51.454  0.00  0.00    +0.000 A 
ATOM     40  O   UNL     1      36.957  33.006  51.746  0.00  0.00    +0.000 OA
ATOM     41  H   UNL     1      37.101  34.923  53.322  0.00  0.00    +0.000 HD
ENDBRANCH  29  32
ENDBRANCH  26  29
ENDBRANCH   6  26
TORSDOF 4
