
 OpenBabel03272508073D

 36 39  0  0  0  0  0  0  0  0999 V2000
   35.7020   29.3000   33.4140 C   0  0  0  0  0  0  0  0  0  0  0  0
   36.3320   29.2330   32.1790 C   0  0  0  0  0  0  0  0  0  0  0  0
   37.1830   28.1410   32.1300 C   0  0  0  0  0  0  0  0  0  0  0  0
   37.0350   27.5770   33.3640 N   0  0  0  0  0  0  0  0  0  0  0  0
   36.1780   28.2530   34.0960 N   0  0  0  0  0  0  0  0  0  0  0  0
   36.1910   29.9220   31.3610 H   0  0  0  0  0  0  0  0  0  0  0  0
   37.8270   27.7720   31.3550 H   0  0  0  0  0  0  0  0  0  0  0  0
   34.7440   30.2950   33.8400 C   0  0  0  0  0  0  0  0  0  0  0  0
   34.7250   30.6880   35.2070 C   0  0  0  0  0  0  0  0  0  0  0  0
   33.7960   31.6470   35.5870 C   0  0  0  0  0  0  0  0  0  0  0  0
   32.9620   32.1530   34.6460 N   0  0  0  0  0  0  0  0  0  0  0  0
   32.9960   31.7640   33.3460 C   0  0  0  0  0  0  0  0  0  0  0  0
   33.8920   30.8350   32.9570 N   0  0  0  0  0  0  0  0  0  0  0  0
   35.4260   30.2360   35.9040 H   0  0  0  0  0  0  0  0  0  0  0  0
   32.2890   32.2280   32.6700 H   0  0  0  0  0  0  0  0  0  0  0  0
   33.7650   32.0690   37.0210 C   0  0  0  0  0  0  0  0  0  0  0  0
   35.0730   32.0420   37.4430 F   0  0  0  0  0  0  0  0  0  0  0  0
   33.2740   33.3550   37.1800 F   0  0  0  0  0  0  0  0  0  0  0  0
   33.0390   31.1830   37.8090 F   0  0  0  0  0  0  0  0  0  0  0  0
   37.6920   26.3840   33.8840 C   0  0  0  0  0  0  0  0  0  0  0  0
   37.4650   25.1220   33.3030 C   0  0  0  0  0  0  0  0  0  0  0  0
   38.1260   24.0490   33.8320 C   0  0  0  0  0  0  0  0  0  0  0  0
   39.0100   24.2330   34.9430 C   0  0  0  0  0  0  0  0  0  0  0  0
   38.8770   26.0550   35.2330 S   0  0  0  0  0  0  0  0  0  0  0  0
   36.8030   24.9530   32.4640 H   0  0  0  0  0  0  0  0  0  0  0  0
   38.0780   23.0180   33.5190 H   0  0  0  0  0  0  0  0  0  0  0  0
   39.7820   23.4380   35.6790 N   0  0  0  0  0  0  0  0  0  0  0  0
   41.0250   23.1170   35.2680 C   0  0  0  0  0  3  0  0  0  0  0  0
   41.8310   22.2800   36.0460 C   0  0  0  0  0  0  0  0  0  0  0  0
   42.8310   21.9850   35.7780 H   0  0  0  0  0  0  0  0  0  0  0  0
   41.2900   21.8130   37.2320 C   0  0  0  0  0  0  0  0  0  0  0  0
   41.9150   21.0440   38.0340 O   0  0  0  0  0  0  0  0  0  0  0  0
   40.0440   22.1320   37.6470 N   0  0  0  0  0  0  0  0  0  0  0  0
   39.3080   22.9540   36.8410 C   0  0  0  0  0  0  0  0  0  0  0  0
   38.1520   23.2480   37.2300 O   0  0  0  0  0  0  0  0  0  0  0  0
   39.6270   21.7850   38.5400 H   0  0  0  0  0  0  0  0  0  0  0  0
  1  8  1  0  0  0  0
  1  5  2  0  0  0  0
  2  1  1  0  0  0  0
  3  2  2  0  0  0  0
  3  4  1  0  0  0  0
  4 20  1  0  0  0  0
  4  5  1  0  0  0  0
  6  2  1  0  0  0  0
  7  3  1  0  0  0  0
  8  9  1  0  0  0  0
  9 10  2  0  0  0  0
  9 14  1  0  0  0  0
 10 16  1  0  0  0  0
 11 10  1  0  0  0  0
 12 11  2  0  0  0  0
 13 12  1  0  0  0  0
 13  8  2  0  0  0  0
 15 12  1  0  0  0  0
 16 18  1  0  0  0  0
 16 17  1  0  0  0  0
 16 19  1  0  0  0  0
 20 24  1  0  0  0  0
 21 22  1  0  0  0  0
 21 20  2  0  0  0  0
 22 23  2  0  0  0  0
 23 24  1  0  0  0  0
 23 27  1  0  0  0  0
 25 21  1  0  0  0  0
 26 22  1  0  0  0  0
 27 34  1  0  0  0  0
 28 27  1  0  0  0  0
 28 29  2  0  0  0  0
 29 31  1  0  0  0  0
 30 29  1  0  0  0  0
 31 33  1  0  0  0  0
 31 32  2  0  0  0  0
 33 36  1  0  0  0  0
 34 35  2  0  0  0  0
 34 33  1  0  0  0  0
M  END
>  <minimizedAffinity>
-6.43492317

$$$$

 OpenBabel03272508073D

 36 39  0  0  0  0  0  0  0  0999 V2000
   34.7100   29.5430   33.4380 C   0  0  0  0  0  0  0  0  0  0  0  0
   35.1760   29.1980   32.1770 C   0  0  0  0  0  0  0  0  0  0  0  0
   36.1900   28.2590   32.2780 C   0  0  0  0  0  0  0  0  0  0  0  0
   36.3040   28.0690   33.6240 N   0  0  0  0  0  0  0  0  0  0  0  0
   35.4460   28.8140   34.2840 N   0  0  0  0  0  0  0  0  0  0  0  0
   34.8130   29.5920   31.2410 H   0  0  0  0  0  0  0  0  0  0  0  0
   36.7820   27.7650   31.5320 H   0  0  0  0  0  0  0  0  0  0  0  0
   33.6580   30.4880   33.7390 C   0  0  0  0  0  0  0  0  0  0  0  0
   33.3240   30.7310   35.1000 C   0  0  0  0  0  0  0  0  0  0  0  0
   32.3110   31.6450   35.3590 C   0  0  0  0  0  0  0  0  0  0  0  0
   31.6980   32.2500   34.3120 N   0  0  0  0  0  0  0  0  0  0  0  0
   32.0320   32.0040   33.0200 C   0  0  0  0  0  0  0  0  0  0  0  0
   33.0140   31.1210   32.7480 N   0  0  0  0  0  0  0  0  0  0  0  0
   33.8600   30.2060   35.8860 H   0  0  0  0  0  0  0  0  0  0  0  0
   31.4850   32.5390   32.2550 H   0  0  0  0  0  0  0  0  0  0  0  0
   31.9480   31.9100   36.7850 C   0  0  0  0  0  0  0  0  0  0  0  0
   30.7420   31.2810   36.9820 F   0  0  0  0  0  0  0  0  0  0  0  0
   32.8740   31.3830   37.6700 F   0  0  0  0  0  0  0  0  0  0  0  0
   31.7710   33.2670   37.0330 F   0  0  0  0  0  0  0  0  0  0  0  0
   37.2190   27.1760   34.3250 C   0  0  0  0  0  0  0  0  0  0  0  0
   37.8920   27.5990   35.4870 C   0  0  0  0  0  0  0  0  0  0  0  0
   38.7240   26.7050   36.1020 C   0  0  0  0  0  0  0  0  0  0  0  0
   38.8870   25.3910   35.5560 C   0  0  0  0  0  0  0  0  0  0  0  0
   37.7770   25.4560   34.0790 S   0  0  0  0  0  0  0  0  0  0  0  0
   37.7890   28.5840   35.9210 H   0  0  0  0  0  0  0  0  0  0  0  0
   39.3140   26.8510   36.9930 H   0  0  0  0  0  0  0  0  0  0  0  0
   39.5920   24.3120   35.8860 N   0  0  0  0  0  0  0  0  0  0  0  0
   40.8480   24.1470   35.4260 C   0  0  0  0  0  3  0  0  0  0  0  0
   41.5840   23.0090   35.7760 C   0  0  0  0  0  0  0  0  0  0  0  0
   42.5890   22.8160   35.4460 H   0  0  0  0  0  0  0  0  0  0  0  0
   40.9600   22.0890   36.6010 C   0  0  0  0  0  0  0  0  0  0  0  0
   41.5150   21.0120   36.9970 O   0  0  0  0  0  0  0  0  0  0  0  0
   39.7000   22.2520   37.0640 N   0  0  0  0  0  0  0  0  0  0  0  0
   39.0370   23.3840   36.6850 C   0  0  0  0  0  0  0  0  0  0  0  0
   37.8680   23.5310   37.1170 O   0  0  0  0  0  0  0  0  0  0  0  0
   39.2210   21.5630   37.6870 H   0  0  0  0  0  0  0  0  0  0  0  0
  1  8  1  0  0  0  0
  1  5  2  0  0  0  0
  2  3  2  0  0  0  0
  2  1  1  0  0  0  0
  3  4  1  0  0  0  0
  4  5  1  0  0  0  0
  4 20  1  0  0  0  0
  6  2  1  0  0  0  0
  7  3  1  0  0  0  0
  8  9  1  0  0  0  0
  9 10  2  0  0  0  0
  9 14  1  0  0  0  0
 10 16  1  0  0  0  0
 11 10  1  0  0  0  0
 12 11  2  0  0  0  0
 13 12  1  0  0  0  0
 13  8  2  0  0  0  0
 15 12  1  0  0  0  0
 16 17  1  0  0  0  0
 16 19  1  0  0  0  0
 16 18  1  0  0  0  0
 20 21  2  0  0  0  0
 21 25  1  0  0  0  0
 21 22  1  0  0  0  0
 22 26  1  0  0  0  0
 23 27  1  0  0  0  0
 23 22  2  0  0  0  0
 24 20  1  0  0  0  0
 24 23  1  0  0  0  0
 27 34  1  0  0  0  0
 28 29  2  0  0  0  0
 28 27  1  0  0  0  0
 29 31  1  0  0  0  0
 30 29  1  0  0  0  0
 31 32  2  0  0  0  0
 31 33  1  0  0  0  0
 33 36  1  0  0  0  0
 34 33  1  0  0  0  0
 34 35  2  0  0  0  0
M  END
>  <minimizedAffinity>
-6.21726179

$$$$

 OpenBabel03272508073D

 36 39  0  0  0  0  0  0  0  0999 V2000
   37.5090   26.5160   34.1530 C   0  0  0  0  0  0  0  0  0  0  0  0
   37.6600   26.9290   32.8360 C   0  0  0  0  0  0  0  0  0  0  0  0
   36.9090   28.0680   32.5990 C   0  0  0  0  0  0  0  0  0  0  0  0
   36.3180   28.3080   33.8050 N   0  0  0  0  0  0  0  0  0  0  0  0
   36.6700   27.4070   34.6940 N   0  0  0  0  0  0  0  0  0  0  0  0
   38.2700   26.4450   32.0910 H   0  0  0  0  0  0  0  0  0  0  0  0
   36.7770   28.6650   31.7160 H   0  0  0  0  0  0  0  0  0  0  0  0
   38.1340   25.3700   34.7740 C   0  0  0  0  0  0  0  0  0  0  0  0
   37.9560   25.1650   36.1700 C   0  0  0  0  0  0  0  0  0  0  0  0
   38.5670   24.0560   36.7400 C   0  0  0  0  0  0  0  0  0  0  0  0
   39.2940   23.2350   35.9430 N   0  0  0  0  0  0  0  0  0  0  0  0
   39.4520   23.4490   34.6130 C   0  0  0  0  0  0  0  0  0  0  0  0
   38.8660   24.5200   34.0420 N   0  0  0  0  0  0  0  0  0  0  0  0
   37.3570   25.8690   36.7440 H   0  0  0  0  0  0  0  0  0  0  0  0
   40.0510   22.7350   34.0630 H   0  0  0  0  0  0  0  0  0  0  0  0
   38.3890   23.8270   38.2070 C   0  0  0  0  0  0  0  0  0  0  0  0
   37.3330   22.9540   38.3190 F   0  0  0  0  0  0  0  0  0  0  0  0
   39.5060   23.2490   38.7880 F   0  0  0  0  0  0  0  0  0  0  0  0
   38.0530   24.9970   38.8790 F   0  0  0  0  0  0  0  0  0  0  0  0
   35.4100   29.3940   34.1540 C   0  0  0  0  0  0  0  0  0  0  0  0
   34.1000   29.4340   33.6410 C   0  0  0  0  0  0  0  0  0  0  0  0
   33.2980   30.4730   34.0220 C   0  0  0  0  0  0  0  0  0  0  0  0
   33.8030   31.4740   34.9130 C   0  0  0  0  0  0  0  0  0  0  0  0
   35.5270   30.8760   35.2130 S   0  0  0  0  0  0  0  0  0  0  0  0
   33.6920   28.6930   32.9670 H   0  0  0  0  0  0  0  0  0  0  0  0
   32.2760   30.6650   33.7340 H   0  0  0  0  0  0  0  0  0  0  0  0
   33.3140   32.5800   35.4660 N   0  0  0  0  0  0  0  0  0  0  0  0
   33.4040   33.7640   34.8290 C   0  0  0  0  0  3  0  0  0  0  0  0
   32.8880   34.9240   35.4160 C   0  0  0  0  0  0  0  0  0  0  0  0
   32.9260   35.8980   34.9630 H   0  0  0  0  0  0  0  0  0  0  0  0
   32.2950   34.7860   36.6600 C   0  0  0  0  0  0  0  0  0  0  0  0
   31.7840   35.7590   37.3060 O   0  0  0  0  0  0  0  0  0  0  0  0
   32.2020   33.6000   37.3030 N   0  0  0  0  0  0  0  0  0  0  0  0
   32.7260   32.5060   36.6750 C   0  0  0  0  0  0  0  0  0  0  0  0
   32.6380   31.4080   37.2740 O   0  0  0  0  0  0  0  0  0  0  0  0
   31.7570   33.4860   38.2410 H   0  0  0  0  0  0  0  0  0  0  0  0
  1  5  2  0  0  0  0
  1  8  1  0  0  0  0
  2  1  1  0  0  0  0
  3  2  2  0  0  0  0
  3  4  1  0  0  0  0
  4 20  1  0  0  0  0
  4  5  1  0  0  0  0
  6  2  1  0  0  0  0
  7  3  1  0  0  0  0
  8  9  1  0  0  0  0
  9 10  2  0  0  0  0
  9 14  1  0  0  0  0
 10 16  1  0  0  0  0
 11 10  1  0  0  0  0
 12 11  2  0  0  0  0
 13 12  1  0  0  0  0
 13  8  2  0  0  0  0
 15 12  1  0  0  0  0
 16 17  1  0  0  0  0
 16 18  1  0  0  0  0
 16 19  1  0  0  0  0
 20 24  1  0  0  0  0
 21 22  1  0  0  0  0
 21 20  2  0  0  0  0
 22 23  2  0  0  0  0
 23 24  1  0  0  0  0
 23 27  1  0  0  0  0
 25 21  1  0  0  0  0
 26 22  1  0  0  0  0
 27 34  1  0  0  0  0
 28 29  2  0  0  0  0
 28 27  1  0  0  0  0
 29 31  1  0  0  0  0
 30 29  1  0  0  0  0
 31 33  1  0  0  0  0
 31 32  2  0  0  0  0
 33 36  1  0  0  0  0
 34 35  2  0  0  0  0
 34 33  1  0  0  0  0
M  END
>  <minimizedAffinity>
-6.1880641

$$$$

 OpenBabel03272508073D

 36 39  0  0  0  0  0  0  0  0999 V2000
   37.6200   24.3790   31.3190 C   0  0  0  0  0  0  0  0  0  0  0  0
   38.5030   25.1530   30.5780 C   0  0  0  0  0  0  0  0  0  0  0  0
   38.3280   26.4950   30.8690 C   0  0  0  0  0  0  0  0  0  0  0  0
   37.3240   26.4850   31.7930 N   0  0  0  0  0  0  0  0  0  0  0  0
   36.9230   25.2590   32.0450 N   0  0  0  0  0  0  0  0  0  0  0  0
   39.2290   24.7800   29.8730 H   0  0  0  0  0  0  0  0  0  0  0  0
   38.8190   27.3760   30.5010 H   0  0  0  0  0  0  0  0  0  0  0  0
   37.5030   22.9380   31.2890 C   0  0  0  0  0  0  0  0  0  0  0  0
   36.4860   22.3160   32.0640 C   0  0  0  0  0  0  0  0  0  0  0  0
   36.3960   20.9320   32.0150 C   0  0  0  0  0  0  0  0  0  0  0  0
   37.2760   20.2510   31.2400 N   0  0  0  0  0  0  0  0  0  0  0  0
   38.2410   20.8630   30.5080 C   0  0  0  0  0  0  0  0  0  0  0  0
   38.3430   22.2070   30.5420 N   0  0  0  0  0  0  0  0  0  0  0  0
   35.8170   22.9300   32.6620 H   0  0  0  0  0  0  0  0  0  0  0  0
   38.8940   20.2320   29.9210 H   0  0  0  0  0  0  0  0  0  0  0  0
   35.3310   20.2640   32.8250 C   0  0  0  0  0  0  0  0  0  0  0  0
   35.7090   18.9450   32.9160 F   0  0  0  0  0  0  0  0  0  0  0  0
   35.2370   20.7880   34.1040 F   0  0  0  0  0  0  0  0  0  0  0  0
   34.0920   20.3150   32.1980 F   0  0  0  0  0  0  0  0  0  0  0  0
   36.7190   27.6270   32.4680 C   0  0  0  0  0  0  0  0  0  0  0  0
   36.2380   28.7280   31.7340 C   0  0  0  0  0  0  0  0  0  0  0  0
   35.6700   29.7580   32.4300 C   0  0  0  0  0  0  0  0  0  0  0  0
   35.5820   29.6910   33.8580 C   0  0  0  0  0  0  0  0  0  0  0  0
   36.3640   28.0520   34.2070 S   0  0  0  0  0  0  0  0  0  0  0  0
   36.2910   28.8060   30.6570 H   0  0  0  0  0  0  0  0  0  0  0  0
   35.2500   30.6720   32.0400 H   0  0  0  0  0  0  0  0  0  0  0  0
   35.1100   30.4860   34.8140 N   0  0  0  0  0  0  0  0  0  0  0  0
   35.9180   31.3660   35.4370 C   0  0  0  0  0  3  0  0  0  0  0  0
   35.4150   32.1990   36.4420 C   0  0  0  0  0  0  0  0  0  0  0  0
   36.0040   32.9220   36.9770 H   0  0  0  0  0  0  0  0  0  0  0  0
   34.0710   32.0680   36.7490 C   0  0  0  0  0  0  0  0  0  0  0  0
   33.4840   32.7640   37.6420 O   0  0  0  0  0  0  0  0  0  0  0  0
   33.2570   31.1870   36.1260 N   0  0  0  0  0  0  0  0  0  0  0  0
   33.8100   30.4030   35.1550 C   0  0  0  0  0  0  0  0  0  0  0  0
   33.0510   29.5860   34.5790 O   0  0  0  0  0  0  0  0  0  0  0  0
   32.2420   31.0810   36.3520 H   0  0  0  0  0  0  0  0  0  0  0  0
  1  5  2  0  0  0  0
  2  3  2  0  0  0  0
  2  1  1  0  0  0  0
  3  4  1  0  0  0  0
  4  5  1  0  0  0  0
  4 20  1  0  0  0  0
  6  2  1  0  0  0  0
  7  3  1  0  0  0  0
  8  1  1  0  0  0  0
  8  9  1  0  0  0  0
  9 14  1  0  0  0  0
 10  9  2  0  0  0  0
 10 16  1  0  0  0  0
 11 10  1  0  0  0  0
 12 13  1  0  0  0  0
 12 11  2  0  0  0  0
 13  8  2  0  0  0  0
 15 12  1  0  0  0  0
 16 17  1  0  0  0  0
 16 18  1  0  0  0  0
 19 16  1  0  0  0  0
 20 24  1  0  0  0  0
 21 22  1  0  0  0  0
 21 20  2  0  0  0  0
 22 23  2  0  0  0  0
 23 24  1  0  0  0  0
 23 27  1  0  0  0  0
 25 21  1  0  0  0  0
 26 22  1  0  0  0  0
 27 34  1  0  0  0  0
 27 28  1  0  0  0  0
 28 29  2  0  0  0  0
 29 31  1  0  0  0  0
 29 30  1  0  0  0  0
 31 32  2  0  0  0  0
 33 36  1  0  0  0  0
 33 31  1  0  0  0  0
 34 33  1  0  0  0  0
 35 34  2  0  0  0  0
M  END
>  <minimizedAffinity>
-6.13026237

$$$$

 OpenBabel03272508073D

 36 39  0  0  0  0  0  0  0  0999 V2000
   38.5370   25.2270   35.0110 C   0  0  0  0  0  0  0  0  0  0  0  0
   39.1250   25.2940   33.7560 C   0  0  0  0  0  0  0  0  0  0  0  0
   38.4930   26.2500   32.9780 C   0  0  0  0  0  0  0  0  0  0  0  0
   37.5250   26.7350   33.8070 N   0  0  0  0  0  0  0  0  0  0  0  0
   37.5590   26.1380   34.9780 N   0  0  0  0  0  0  0  0  0  0  0  0
   39.9570   24.6970   33.4170 H   0  0  0  0  0  0  0  0  0  0  0  0
   38.6650   26.5790   31.9700 H   0  0  0  0  0  0  0  0  0  0  0  0
   38.9210   24.3530   36.0970 C   0  0  0  0  0  0  0  0  0  0  0  0
   40.1080   23.5800   35.9680 C   0  0  0  0  0  0  0  0  0  0  0  0
   40.4520   22.7500   37.0270 C   0  0  0  0  0  0  0  0  0  0  0  0
   39.6470   22.7200   38.1170 N   0  0  0  0  0  0  0  0  0  0  0  0
   38.5180   23.4660   38.2200 C   0  0  0  0  0  0  0  0  0  0  0  0
   38.1670   24.2780   37.2030 N   0  0  0  0  0  0  0  0  0  0  0  0
   40.7030   23.6580   35.0610 H   0  0  0  0  0  0  0  0  0  0  0  0
   37.9420   23.3720   39.1320 H   0  0  0  0  0  0  0  0  0  0  0  0
   41.6970   21.9310   36.9050 C   0  0  0  0  0  0  0  0  0  0  0  0
   41.7250   21.1330   38.0240 F   0  0  0  0  0  0  0  0  0  0  0  0
   41.6860   21.1200   35.7820 F   0  0  0  0  0  0  0  0  0  0  0  0
   42.8420   22.7200   36.9110 F   0  0  0  0  0  0  0  0  0  0  0  0
   36.5440   27.7760   33.5230 C   0  0  0  0  0  0  0  0  0  0  0  0
   36.2450   28.7670   34.4770 C   0  0  0  0  0  0  0  0  0  0  0  0
   35.3270   29.7210   34.1370 C   0  0  0  0  0  0  0  0  0  0  0  0
   34.7050   29.6860   32.8480 C   0  0  0  0  0  0  0  0  0  0  0  0
   35.4930   28.1940   32.0910 S   0  0  0  0  0  0  0  0  0  0  0  0
   36.6980   28.8190   35.4570 H   0  0  0  0  0  0  0  0  0  0  0  0
   34.9780   30.5500   34.7330 H   0  0  0  0  0  0  0  0  0  0  0  0
   33.8020   30.4280   32.2140 N   0  0  0  0  0  0  0  0  0  0  0  0
   34.1860   31.4570   31.4320 C   0  0  0  0  0  3  0  0  0  0  0  0
   33.2310   32.2340   30.7680 C   0  0  0  0  0  0  0  0  0  0  0  0
   33.4680   33.0660   30.1300 H   0  0  0  0  0  0  0  0  0  0  0  0
   31.9030   31.8920   30.9570 C   0  0  0  0  0  0  0  0  0  0  0  0
   30.9330   32.5140   30.4120 O   0  0  0  0  0  0  0  0  0  0  0  0
   31.5130   30.8610   31.7410 N   0  0  0  0  0  0  0  0  0  0  0  0
   32.4950   30.1420   32.3610 C   0  0  0  0  0  0  0  0  0  0  0  0
   32.1300   29.1860   33.0870 O   0  0  0  0  0  0  0  0  0  0  0  0
   30.5140   30.5950   31.8900 H   0  0  0  0  0  0  0  0  0  0  0  0
  1  8  1  0  0  0  0
  2  1  1  0  0  0  0
  3  2  2  0  0  0  0
  3  4  1  0  0  0  0
  4  5  1  0  0  0  0
  5  1  2  0  0  0  0
  6  2  1  0  0  0  0
  7  3  1  0  0  0  0
  8 13  1  0  0  0  0
  9  8  2  0  0  0  0
  9 10  1  0  0  0  0
 10 11  2  0  0  0  0
 11 12  1  0  0  0  0
 12 15  1  0  0  0  0
 13 12  2  0  0  0  0
 14  9  1  0  0  0  0
 16 19  1  0  0  0  0
 16 10  1  0  0  0  0
 16 17  1  0  0  0  0
 18 16  1  0  0  0  0
 20  4  1  0  0  0  0
 20 21  2  0  0  0  0
 21 25  1  0  0  0  0
 22 21  1  0  0  0  0
 22 26  1  0  0  0  0
 23 22  2  0  0  0  0
 24 23  1  0  0  0  0
 24 20  1  0  0  0  0
 27 34  1  0  0  0  0
 27 23  1  0  0  0  0
 28 27  1  0  0  0  0
 29 31  1  0  0  0  0
 29 28  2  0  0  0  0
 30 29  1  0  0  0  0
 31 33  1  0  0  0  0
 32 31  2  0  0  0  0
 33 36  1  0  0  0  0
 33 34  1  0  0  0  0
 34 35  2  0  0  0  0
M  END
>  <minimizedAffinity>
-6.09463978

$$$$

 OpenBabel03272508073D

 36 39  0  0  0  0  0  0  0  0999 V2000
   37.8390   25.8520   34.0920 C   0  0  0  0  0  0  0  0  0  0  0  0
   37.0660   26.9420   34.4700 C   0  0  0  0  0  0  0  0  0  0  0  0
   36.9900   27.8610   33.4370 C   0  0  0  0  0  0  0  0  0  0  0  0
   37.7360   27.2830   32.4510 N   0  0  0  0  0  0  0  0  0  0  0  0
   38.2210   26.1250   32.8400 N   0  0  0  0  0  0  0  0  0  0  0  0
   36.5850   27.0710   35.4260 H   0  0  0  0  0  0  0  0  0  0  0  0
   36.4910   28.8080   33.3590 H   0  0  0  0  0  0  0  0  0  0  0  0
   38.1460   24.6920   34.8970 C   0  0  0  0  0  0  0  0  0  0  0  0
   38.0610   24.7980   36.3130 C   0  0  0  0  0  0  0  0  0  0  0  0
   38.3600   23.6670   37.0620 C   0  0  0  0  0  0  0  0  0  0  0  0
   38.7150   22.5330   36.4100 N   0  0  0  0  0  0  0  0  0  0  0  0
   38.7900   22.4520   35.0580 C   0  0  0  0  0  0  0  0  0  0  0  0
   38.5030   23.5390   34.3140 N   0  0  0  0  0  0  0  0  0  0  0  0
   37.7700   25.7440   36.7630 H   0  0  0  0  0  0  0  0  0  0  0  0
   39.0810   21.5000   34.6320 H   0  0  0  0  0  0  0  0  0  0  0  0
   38.2760   23.7640   38.5510 C   0  0  0  0  0  0  0  0  0  0  0  0
   37.3500   22.8210   38.9310 F   0  0  0  0  0  0  0  0  0  0  0  0
   39.4830   23.4740   39.1660 F   0  0  0  0  0  0  0  0  0  0  0  0
   37.8170   25.0090   38.9670 F   0  0  0  0  0  0  0  0  0  0  0  0
   38.0080   27.8030   31.1170 C   0  0  0  0  0  0  0  0  0  0  0  0
   36.9680   28.2970   30.3080 C   0  0  0  0  0  0  0  0  0  0  0  0
   37.2980   28.7830   29.0730 C   0  0  0  0  0  0  0  0  0  0  0  0
   38.6640   28.7730   28.6440 C   0  0  0  0  0  0  0  0  0  0  0  0
   39.5120   28.0230   30.1060 S   0  0  0  0  0  0  0  0  0  0  0  0
   35.9290   28.3160   30.6040 H   0  0  0  0  0  0  0  0  0  0  0  0
   36.6410   29.1990   28.3250 H   0  0  0  0  0  0  0  0  0  0  0  0
   39.3130   29.1530   27.5470 N   0  0  0  0  0  0  0  0  0  0  0  0
   39.4660   30.4600   27.2580 C   0  0  0  0  0  3  0  0  0  0  0  0
   40.1490   30.8530   26.1020 C   0  0  0  0  0  0  0  0  0  0  0  0
   40.3070   31.8760   25.8130 H   0  0  0  0  0  0  0  0  0  0  0  0
   40.6450   29.8440   25.2940 C   0  0  0  0  0  0  0  0  0  0  0  0
   41.2860   30.0600   24.2140 O   0  0  0  0  0  0  0  0  0  0  0  0
   40.4930   28.5310   25.5800 N   0  0  0  0  0  0  0  0  0  0  0  0
   39.8160   28.2150   26.7240 C   0  0  0  0  0  0  0  0  0  0  0  0
   39.6780   26.9960   26.9860 O   0  0  0  0  0  0  0  0  0  0  0  0
   40.8630   27.7630   24.9760 H   0  0  0  0  0  0  0  0  0  0  0  0
  1  2  1  0  0  0  0
  1  8  1  0  0  0  0
  2  6  1  0  0  0  0
  3  2  2  0  0  0  0
  4  5  1  0  0  0  0
  4  3  1  0  0  0  0
  5  1  2  0  0  0  0
  7  3  1  0  0  0  0
  8  9  1  0  0  0  0
  9 14  1  0  0  0  0
  9 10  2  0  0  0  0
 10 16  1  0  0  0  0
 11 10  1  0  0  0  0
 12 11  2  0  0  0  0
 13  8  2  0  0  0  0
 13 12  1  0  0  0  0
 15 12  1  0  0  0  0
 16 17  1  0  0  0  0
 16 19  1  0  0  0  0
 16 18  1  0  0  0  0
 20  4  1  0  0  0  0
 21 25  1  0  0  0  0
 21 20  2  0  0  0  0
 22 21  1  0  0  0  0
 23 22  2  0  0  0  0
 23 24  1  0  0  0  0
 24 20  1  0  0  0  0
 26 22  1  0  0  0  0
 27 23  1  0  0  0  0
 28 27  1  0  0  0  0
 29 28  2  0  0  0  0
 30 29  1  0  0  0  0
 31 33  1  0  0  0  0
 31 29  1  0  0  0  0
 32 31  2  0  0  0  0
 33 34  1  0  0  0  0
 34 35  2  0  0  0  0
 34 27  1  0  0  0  0
 36 33  1  0  0  0  0
M  END
>  <minimizedAffinity>
-6.06163931

$$$$

 OpenBabel03272508073D

 36 39  0  0  0  0  0  0  0  0999 V2000
   35.6430   28.6290   32.0680 C   0  0  0  0  0  0  0  0  0  0  0  0
   36.3800   28.1910   30.9760 C   0  0  0  0  0  0  0  0  0  0  0  0
   37.3590   27.2990   31.3820 C   0  0  0  0  0  0  0  0  0  0  0  0
   37.1750   27.2290   32.7320 N   0  0  0  0  0  0  0  0  0  0  0  0
   36.1830   28.0000   33.1170 N   0  0  0  0  0  0  0  0  0  0  0  0
   36.2270   28.4910   29.9520 H   0  0  0  0  0  0  0  0  0  0  0  0
   38.1070   26.7610   30.8310 H   0  0  0  0  0  0  0  0  0  0  0  0
   34.5380   29.5610   32.0440 C   0  0  0  0  0  0  0  0  0  0  0  0
   33.3570   29.2440   32.7710 C   0  0  0  0  0  0  0  0  0  0  0  0
   32.3130   30.1590   32.7310 C   0  0  0  0  0  0  0  0  0  0  0  0
   32.4720   31.2940   32.0070 N   0  0  0  0  0  0  0  0  0  0  0  0
   33.6070   31.5770   31.3200 C   0  0  0  0  0  0  0  0  0  0  0  0
   34.6320   30.7020   31.3470 N   0  0  0  0  0  0  0  0  0  0  0  0
   33.3050   28.3120   33.3280 H   0  0  0  0  0  0  0  0  0  0  0  0
   33.6360   32.5110   30.7730 H   0  0  0  0  0  0  0  0  0  0  0  0
   31.0650   29.8390   33.4900 C   0  0  0  0  0  0  0  0  0  0  0  0
   31.1320   30.5870   34.6420 F   0  0  0  0  0  0  0  0  0  0  0  0
   29.9210   30.1950   32.7950 F   0  0  0  0  0  0  0  0  0  0  0  0
   31.0050   28.4970   33.8510 F   0  0  0  0  0  0  0  0  0  0  0  0
   37.9250   26.4320   33.6950 C   0  0  0  0  0  0  0  0  0  0  0  0
   38.0850   26.8660   35.0240 C   0  0  0  0  0  0  0  0  0  0  0  0
   38.7870   26.0610   35.8770 C   0  0  0  0  0  0  0  0  0  0  0  0
   39.3320   24.8240   35.4040 C   0  0  0  0  0  0  0  0  0  0  0  0
   38.7980   24.8300   33.6340 S   0  0  0  0  0  0  0  0  0  0  0  0
   37.6860   27.7940   35.4090 H   0  0  0  0  0  0  0  0  0  0  0  0
   39.0070   26.2280   36.9200 H   0  0  0  0  0  0  0  0  0  0  0  0
   40.0430   23.8370   35.9420 N   0  0  0  0  0  0  0  0  0  0  0  0
   41.3870   23.8250   35.8410 C   0  0  0  0  0  3  0  0  0  0  0  0
   42.1280   22.7840   36.4090 C   0  0  0  0  0  0  0  0  0  0  0  0
   43.2010   22.7130   36.3660 H   0  0  0  0  0  0  0  0  0  0  0  0
   41.4180   21.7930   37.0650 C   0  0  0  0  0  0  0  0  0  0  0  0
   41.9670   20.7900   37.6270 O   0  0  0  0  0  0  0  0  0  0  0  0
   40.0690   21.8020   37.1690 N   0  0  0  0  0  0  0  0  0  0  0  0
   39.4050   22.8460   36.5920 C   0  0  0  0  0  0  0  0  0  0  0  0
   38.1540   22.8510   36.6910 O   0  0  0  0  0  0  0  0  0  0  0  0
   39.5240   21.0590   37.6610 H   0  0  0  0  0  0  0  0  0  0  0  0
  1  5  2  0  0  0  0
  2  3  2  0  0  0  0
  2  1  1  0  0  0  0
  3  4  1  0  0  0  0
  4  5  1  0  0  0  0
  4 20  1  0  0  0  0
  6  2  1  0  0  0  0
  7  3  1  0  0  0  0
  8  1  1  0  0  0  0
  8  9  1  0  0  0  0
  9 14  1  0  0  0  0
 10  9  2  0  0  0  0
 10 16  1  0  0  0  0
 11 10  1  0  0  0  0
 12 13  1  0  0  0  0
 12 11  2  0  0  0  0
 13  8  2  0  0  0  0
 15 12  1  0  0  0  0
 16 19  1  0  0  0  0
 16 17  1  0  0  0  0
 18 16  1  0  0  0  0
 20 21  2  0  0  0  0
 21 25  1  0  0  0  0
 21 22  1  0  0  0  0
 22 26  1  0  0  0  0
 23 22  2  0  0  0  0
 23 27  1  0  0  0  0
 24 20  1  0  0  0  0
 24 23  1  0  0  0  0
 27 34  1  0  0  0  0
 28 27  1  0  0  0  0
 28 29  2  0  0  0  0
 29 31  1  0  0  0  0
 30 29  1  0  0  0  0
 31 33  1  0  0  0  0
 31 32  2  0  0  0  0
 33 36  1  0  0  0  0
 34 35  2  0  0  0  0
 34 33  1  0  0  0  0
M  END
>  <minimizedAffinity>
-5.99152422

$$$$

 OpenBabel03272508073D

 36 39  0  0  0  0  0  0  0  0999 V2000
   37.7140   25.3770   33.8300 C   0  0  0  0  0  0  0  0  0  0  0  0
   37.6570   25.2820   32.4460 C   0  0  0  0  0  0  0  0  0  0  0  0
   37.1300   26.4430   31.9050 C   0  0  0  0  0  0  0  0  0  0  0  0
   36.8810   27.2130   33.0030 N   0  0  0  0  0  0  0  0  0  0  0  0
   37.2210   26.5880   34.1090 N   0  0  0  0  0  0  0  0  0  0  0  0
   37.9730   24.4350   31.8590 H   0  0  0  0  0  0  0  0  0  0  0  0
   36.9360   26.7330   30.8900 H   0  0  0  0  0  0  0  0  0  0  0  0
   38.2040   24.3690   34.7440 C   0  0  0  0  0  0  0  0  0  0  0  0
   38.0260   24.5650   36.1410 C   0  0  0  0  0  0  0  0  0  0  0  0
   38.5060   23.5810   36.9940 C   0  0  0  0  0  0  0  0  0  0  0  0
   39.1130   22.4950   36.4570 N   0  0  0  0  0  0  0  0  0  0  0  0
   39.2730   22.3260   35.1200 C   0  0  0  0  0  0  0  0  0  0  0  0
   38.8140   23.2710   34.2750 N   0  0  0  0  0  0  0  0  0  0  0  0
   37.5280   25.4640   36.4970 H   0  0  0  0  0  0  0  0  0  0  0  0
   39.7710   21.4240   34.7890 H   0  0  0  0  0  0  0  0  0  0  0  0
   38.3260   23.7740   38.4660 C   0  0  0  0  0  0  0  0  0  0  0  0
   37.3570   22.8740   38.8410 F   0  0  0  0  0  0  0  0  0  0  0  0
   39.4830   23.5000   39.1770 F   0  0  0  0  0  0  0  0  0  0  0  0
   37.8700   25.0510   38.7720 F   0  0  0  0  0  0  0  0  0  0  0  0
   36.3200   28.5580   33.0420 C   0  0  0  0  0  0  0  0  0  0  0  0
   36.3620   29.3910   31.9080 C   0  0  0  0  0  0  0  0  0  0  0  0
   35.8050   30.6350   32.0110 C   0  0  0  0  0  0  0  0  0  0  0  0
   35.2080   31.0490   33.2450 C   0  0  0  0  0  0  0  0  0  0  0  0
   35.4680   29.5590   34.3080 S   0  0  0  0  0  0  0  0  0  0  0  0
   36.8060   29.1060   30.9650 H   0  0  0  0  0  0  0  0  0  0  0  0
   35.7430   31.4010   31.2540 H   0  0  0  0  0  0  0  0  0  0  0  0
   34.5990   32.1500   33.6780 N   0  0  0  0  0  0  0  0  0  0  0  0
   33.2730   32.3140   33.5040 C   0  0  0  0  0  3  0  0  0  0  0  0
   32.6390   33.4750   33.9610 C   0  0  0  0  0  0  0  0  0  0  0  0
   31.5870   33.6690   33.8550 H   0  0  0  0  0  0  0  0  0  0  0  0
   33.4350   34.4190   34.5870 C   0  0  0  0  0  0  0  0  0  0  0  0
   32.9870   35.5180   35.0510 O   0  0  0  0  0  0  0  0  0  0  0  0
   34.7660   34.2570   34.7640 N   0  0  0  0  0  0  0  0  0  0  0  0
   35.3230   33.1020   34.2940 C   0  0  0  0  0  0  0  0  0  0  0  0
   36.5580   32.9560   34.4600 O   0  0  0  0  0  0  0  0  0  0  0  0
   35.3750   34.9640   35.2350 H   0  0  0  0  0  0  0  0  0  0  0  0
  1  5  2  0  0  0  0
  1  8  1  0  0  0  0
  2  1  1  0  0  0  0
  3  2  2  0  0  0  0
  3  4  1  0  0  0  0
  4 20  1  0  0  0  0
  4  5  1  0  0  0  0
  6  2  1  0  0  0  0
  7  3  1  0  0  0  0
  8  9  1  0  0  0  0
  9 14  1  0  0  0  0
  9 10  2  0  0  0  0
 10 16  1  0  0  0  0
 11 10  1  0  0  0  0
 12 11  2  0  0  0  0
 13  8  2  0  0  0  0
 13 12  1  0  0  0  0
 15 12  1  0  0  0  0
 16 19  1  0  0  0  0
 16 17  1  0  0  0  0
 16 18  1  0  0  0  0
 20 24  1  0  0  0  0
 21 22  1  0  0  0  0
 21 20  2  0  0  0  0
 22 23  2  0  0  0  0
 23 27  1  0  0  0  0
 23 24  1  0  0  0  0
 25 21  1  0  0  0  0
 26 22  1  0  0  0  0
 27 34  1  0  0  0  0
 28 27  1  0  0  0  0
 28 29  2  0  0  0  0
 29 31  1  0  0  0  0
 30 29  1  0  0  0  0
 31 33  1  0  0  0  0
 31 32  2  0  0  0  0
 33 36  1  0  0  0  0
 34 35  2  0  0  0  0
 34 33  1  0  0  0  0
M  END
>  <minimizedAffinity>
-5.9814806

$$$$

 OpenBabel03272508073D

 36 39  0  0  0  0  0  0  0  0999 V2000
   35.4800   28.9490   33.4780 C   0  0  0  0  0  0  0  0  0  0  0  0
   35.7530   28.5440   32.1790 C   0  0  0  0  0  0  0  0  0  0  0  0
   36.7570   27.5890   32.1730 C   0  0  0  0  0  0  0  0  0  0  0  0
   37.0610   27.4500   33.4960 N   0  0  0  0  0  0  0  0  0  0  0  0
   36.3190   28.2390   34.2400 N   0  0  0  0  0  0  0  0  0  0  0  0
   35.2640   28.9070   31.2890 H   0  0  0  0  0  0  0  0  0  0  0  0
   37.2270   27.0520   31.3710 H   0  0  0  0  0  0  0  0  0  0  0  0
   34.4970   29.9270   33.8860 C   0  0  0  0  0  0  0  0  0  0  0  0
   34.5580   30.4510   35.2070 C   0  0  0  0  0  0  0  0  0  0  0  0
   33.6020   31.3900   35.5720 C   0  0  0  0  0  0  0  0  0  0  0  0
   32.6690   31.7540   34.6590 N   0  0  0  0  0  0  0  0  0  0  0  0
   32.6270   31.2420   33.4030 C   0  0  0  0  0  0  0  0  0  0  0  0
   33.5470   30.3300   33.0300 N   0  0  0  0  0  0  0  0  0  0  0  0
   35.3380   30.1090   35.8840 H   0  0  0  0  0  0  0  0  0  0  0  0
   31.8430   31.5970   32.7470 H   0  0  0  0  0  0  0  0  0  0  0  0
   33.6540   31.9490   36.9580 C   0  0  0  0  0  0  0  0  0  0  0  0
   32.9850   31.0430   37.7460 F   0  0  0  0  0  0  0  0  0  0  0  0
   34.9520   32.0720   37.4270 F   0  0  0  0  0  0  0  0  0  0  0  0
   32.9960   33.1700   37.0510 F   0  0  0  0  0  0  0  0  0  0  0  0
   38.0550   26.5680   34.0950 C   0  0  0  0  0  0  0  0  0  0  0  0
   39.2830   27.0740   34.5620 C   0  0  0  0  0  0  0  0  0  0  0  0
   40.1620   26.1920   35.1270 C   0  0  0  0  0  0  0  0  0  0  0  0
   39.8180   24.8050   35.2230 C   0  0  0  0  0  0  0  0  0  0  0  0
   38.1350   24.7810   34.4570 S   0  0  0  0  0  0  0  0  0  0  0  0
   39.5700   28.1140   34.5030 H   0  0  0  0  0  0  0  0  0  0  0  0
   41.1380   26.3970   35.5370 H   0  0  0  0  0  0  0  0  0  0  0  0
   40.4140   23.7140   35.6950 N   0  0  0  0  0  0  0  0  0  0  0  0
   40.0650   23.2040   36.8920 C   0  0  0  0  0  3  0  0  0  0  0  0
   40.6970   22.0560   37.3820 C   0  0  0  0  0  0  0  0  0  0  0  0
   40.4660   21.5970   38.3270 H   0  0  0  0  0  0  0  0  0  0  0  0
   41.6770   21.4910   36.5840 C   0  0  0  0  0  0  0  0  0  0  0  0
   42.3300   20.4460   36.9090 O   0  0  0  0  0  0  0  0  0  0  0  0
   42.0310   22.0000   35.3830 N   0  0  0  0  0  0  0  0  0  0  0  0
   41.3750   23.1220   34.9620 C   0  0  0  0  0  0  0  0  0  0  0  0
   41.7060   23.5910   33.8460 O   0  0  0  0  0  0  0  0  0  0  0  0
   42.7690   21.5810   34.7740 H   0  0  0  0  0  0  0  0  0  0  0  0
  1  8  1  0  0  0  0
  1  5  2  0  0  0  0
  2  1  1  0  0  0  0
  3  2  2  0  0  0  0
  3  4  1  0  0  0  0
  4 20  1  0  0  0  0
  4  5  1  0  0  0  0
  6  2  1  0  0  0  0
  7  3  1  0  0  0  0
  8  9  1  0  0  0  0
  9 10  2  0  0  0  0
  9 14  1  0  0  0  0
 10 16  1  0  0  0  0
 11 10  1  0  0  0  0
 12 11  2  0  0  0  0
 13 12  1  0  0  0  0
 13  8  2  0  0  0  0
 15 12  1  0  0  0  0
 16 19  1  0  0  0  0
 16 18  1  0  0  0  0
 16 17  1  0  0  0  0
 20 24  1  0  0  0  0
 20 21  2  0  0  0  0
 21 22  1  0  0  0  0
 22 23  2  0  0  0  0
 22 26  1  0  0  0  0
 23 27  1  0  0  0  0
 24 23  1  0  0  0  0
 25 21  1  0  0  0  0
 27 28  1  0  0  0  0
 28 29  2  0  0  0  0
 29 30  1  0  0  0  0
 31 32  2  0  0  0  0
 31 29  1  0  0  0  0
 33 31  1  0  0  0  0
 34 33  1  0  0  0  0
 34 27  1  0  0  0  0
 35 34  2  0  0  0  0
 36 33  1  0  0  0  0
M  END
>  <minimizedAffinity>
-5.93440628

$$$$
