
 OpenBabel03272509043D

 34 36  0  0  0  0  0  0  0  0999 V2000
   37.2500   29.7660   51.7370 C   0  0  0  0  0  0  0  0  0  0  0  0
   38.0430   30.5180   50.8320 C   0  0  0  0  0  0  0  0  0  0  0  0
   37.4380   30.9290   49.6030 C   0  0  0  0  0  0  0  0  0  0  0  0
   36.1450   30.5630   49.3960 N   0  0  0  0  0  0  0  0  0  0  0  0
   35.4440   29.8540   50.2810 C   0  0  0  0  0  0  0  0  0  0  0  0
   35.9990   29.4610   51.4430 N   0  0  0  0  0  0  0  0  0  0  0  0
   37.7880   29.5100   52.6180 H   0  0  0  0  0  0  0  0  0  0  0  0
   39.0710   30.8100   50.9950 H   0  0  0  0  0  0  0  0  0  0  0  0
   38.1960   31.6860   48.6660 N   0  0  0  0  0  0  0  0  0  0  0  0
   38.6060   32.8670   49.1830 C   0  0  0  0  0  3  0  0  0  0  0  0
   39.3620   33.7170   48.3710 C   0  0  0  0  0  0  0  0  0  0  0  0
   39.7380   34.6780   48.6860 H   0  0  0  0  0  0  0  0  0  0  0  0
   39.6550   33.3240   47.0940 C   0  0  0  0  0  0  0  0  0  0  0  0
   40.3210   34.0060   46.2920 O   0  0  0  0  0  0  0  0  0  0  0  0
   39.2260   32.1340   46.6130 N   0  0  0  0  0  0  0  0  0  0  0  0
   38.4980   31.3230   47.4040 C   0  0  0  0  0  0  0  0  0  0  0  0
   38.0140   30.1920   47.1410 O   0  0  0  0  0  0  0  0  0  0  0  0
   39.4010   31.7590   45.6630 H   0  0  0  0  0  0  0  0  0  0  0  0
   34.0820   29.5460   49.9140 C   0  0  0  0  0  3  0  0  0  0  0  0
   33.8470   28.4910   49.2090 C   0  0  0  0  0  3  0  0  0  0  0  0
   32.5510   27.9910   48.7270 C   0  0  0  0  0  0  0  0  0  0  0  0
   32.1300   28.7540   48.0230 H   0  0  0  0  0  0  0  0  0  0  0  0
   31.7850   27.8800   49.5280 H   0  0  0  0  0  0  0  0  0  0  0  0
   32.6840   26.7160   47.9560 C   0  0  0  0  0  0  0  0  0  0  0  0
   31.7380   25.7250   47.8580 C   0  0  0  0  0  0  0  0  0  0  0  0
   31.9720   24.5890   47.1140 C   0  0  0  0  0  0  0  0  0  0  0  0
   33.1810   24.4050   46.4320 C   0  0  0  0  0  0  0  0  0  0  0  0
   34.1350   25.3780   46.5160 C   0  0  0  0  0  0  0  0  0  0  0  0
   33.8830   26.5120   47.2680 C   0  0  0  0  0  0  0  0  0  0  0  0
   30.8070   25.9010   48.4010 H   0  0  0  0  0  0  0  0  0  0  0  0
   31.1750   23.8510   47.0840 H   0  0  0  0  0  0  0  0  0  0  0  0
   33.3010   23.5050   45.8740 H   0  0  0  0  0  0  0  0  0  0  0  0
   35.0840   25.2710   46.0030 H   0  0  0  0  0  0  0  0  0  0  0  0
   34.6540   27.2530   47.3100 H   0  0  0  0  0  0  0  0  0  0  0  0
  1  7  1  0  0  0  0
  2  8  1  0  0  0  0
  2  1  2  0  0  0  0
  3  2  1  0  0  0  0
  4  3  2  0  0  0  0
  4  5  1  0  0  0  0
  5  6  2  0  0  0  0
  6  1  1  0  0  0  0
  9 10  1  0  0  0  0
  9  3  1  0  0  0  0
 11 12  1  0  0  0  0
 11 10  2  0  0  0  0
 13 11  1  0  0  0  0
 14 13  2  0  0  0  0
 15 13  1  0  0  0  0
 15 16  1  0  0  0  0
 16  9  1  0  0  0  0
 17 16  2  0  0  0  0
 18 15  1  0  0  0  0
 19  5  1  0  0  0  0
 20 19  2  0  0  0  0
 21 20  1  0  0  0  0
 21 23  1  0  0  0  0
 22 21  1  0  0  0  0
 24 21  1  0  0  0  0
 25 24  1  0  0  0  0
 25 30  1  0  0  0  0
 26 25  2  0  0  0  0
 27 28  2  0  0  0  0
 27 26  1  0  0  0  0
 28 29  1  0  0  0  0
 29 34  1  0  0  0  0
 29 24  2  0  0  0  0
 31 26  1  0  0  0  0
 32 27  1  0  0  0  0
 33 28  1  0  0  0  0
M  END
>  <minimizedAffinity>
-6.2840209

>  <minimizedRMSD>
1.54662979

$$$$
