
 OpenBabel03272509043D

 34 36  0  0  0  0  0  0  0  0999 V2000
   37.4260   30.1740   51.5510 C   0  0  0  0  0  0  0  0  0  0  0  0
   38.1260   30.9250   50.5720 C   0  0  0  0  0  0  0  0  0  0  0  0
   37.7100   30.7920   49.2100 C   0  0  0  0  0  0  0  0  0  0  0  0
   36.6710   29.9520   48.9590 N   0  0  0  0  0  0  0  0  0  0  0  0
   36.0460   29.2680   49.9180 C   0  0  0  0  0  0  0  0  0  0  0  0
   36.4260   29.3830   51.2050 N   0  0  0  0  0  0  0  0  0  0  0  0
   37.8100   30.3410   52.5290 H   0  0  0  0  0  0  0  0  0  0  0  0
   38.9530   31.5930   50.7700 H   0  0  0  0  0  0  0  0  0  0  0  0
   38.3840   31.5270   48.1950 N   0  0  0  0  0  0  0  0  0  0  0  0
   38.6750   30.7550   47.1220 C   0  0  0  0  0  3  0  0  0  0  0  0
   39.3400   31.3480   46.0440 C   0  0  0  0  0  0  0  0  0  0  0  0
   39.6170   30.8230   45.1430 H   0  0  0  0  0  0  0  0  0  0  0  0
   39.6670   32.6740   46.1150 C   0  0  0  0  0  0  0  0  0  0  0  0
   40.2560   33.2950   45.2110 O   0  0  0  0  0  0  0  0  0  0  0  0
   39.3570   33.4120   47.2060 N   0  0  0  0  0  0  0  0  0  0  0  0
   38.7170   32.8320   48.2400 C   0  0  0  0  0  0  0  0  0  0  0  0
   38.3480   33.3430   49.3270 O   0  0  0  0  0  0  0  0  0  0  0  0
   39.5660   34.4170   47.3450 H   0  0  0  0  0  0  0  0  0  0  0  0
   34.9610   28.4180   49.4890 C   0  0  0  0  0  3  0  0  0  0  0  0
   34.2770   28.7530   48.4490 C   0  0  0  0  0  3  0  0  0  0  0  0
   33.1420   28.0430   47.8400 C   0  0  0  0  0  0  0  0  0  0  0  0
   32.5960   28.7700   47.1860 H   0  0  0  0  0  0  0  0  0  0  0  0
   32.3850   27.6890   48.5760 H   0  0  0  0  0  0  0  0  0  0  0  0
   33.5800   26.9130   46.9630 C   0  0  0  0  0  0  0  0  0  0  0  0
   33.7650   25.6100   47.3520 C   0  0  0  0  0  0  0  0  0  0  0  0
   34.1730   24.6490   46.4510 C   0  0  0  0  0  0  0  0  0  0  0  0
   34.4110   24.9690   45.1090 C   0  0  0  0  0  0  0  0  0  0  0  0
   34.2320   26.2590   44.7010 C   0  0  0  0  0  0  0  0  0  0  0  0
   33.8230   27.2110   45.6190 C   0  0  0  0  0  0  0  0  0  0  0  0
   33.5710   25.3950   48.4040 H   0  0  0  0  0  0  0  0  0  0  0  0
   34.2970   23.6410   46.8340 H   0  0  0  0  0  0  0  0  0  0  0  0
   34.7230   24.1820   44.4620 H   0  0  0  0  0  0  0  0  0  0  0  0
   34.4070   26.5460   43.6700 H   0  0  0  0  0  0  0  0  0  0  0  0
   33.6930   28.2120   45.2630 H   0  0  0  0  0  0  0  0  0  0  0  0
  1  7  1  0  0  0  0
  2  8  1  0  0  0  0
  2  1  2  0  0  0  0
  3  2  1  0  0  0  0
  4  3  2  0  0  0  0
  4  5  1  0  0  0  0
  5  6  2  0  0  0  0
  6  1  1  0  0  0  0
  9 16  1  0  0  0  0
  9  3  1  0  0  0  0
 10  9  1  0  0  0  0
 11 13  1  0  0  0  0
 11 10  2  0  0  0  0
 12 11  1  0  0  0  0
 13 15  1  0  0  0  0
 14 13  2  0  0  0  0
 15 18  1  0  0  0  0
 15 16  1  0  0  0  0
 16 17  2  0  0  0  0
 19  5  1  0  0  0  0
 20 19  2  0  0  0  0
 21 20  1  0  0  0  0
 21 23  1  0  0  0  0
 22 21  1  0  0  0  0
 24 25  1  0  0  0  0
 24 21  1  0  0  0  0
 25 30  1  0  0  0  0
 26 31  1  0  0  0  0
 26 25  2  0  0  0  0
 27 26  1  0  0  0  0
 28 27  2  0  0  0  0
 28 29  1  0  0  0  0
 29 24  2  0  0  0  0
 32 27  1  0  0  0  0
 33 28  1  0  0  0  0
 34 29  1  0  0  0  0
M  END
>  <minimizedAffinity>
-7.21890497

>  <minimizedRMSD>
0.825830162

$$$$
