REMARK  Name = 
REMARK  5 active torsions:
REMARK  status: ('A' for Active; 'I' for Inactive)
REMARK    1  A    between atoms: C_1  and  C_6
REMARK    2  A    between atoms: C_4  and  C_14
REMARK    3  A    between atoms: C_6  and  C_8
REMARK    4  A    between atoms: C_14  and  C_16
REMARK    5  A    between atoms: C_18  and  N_28
REMARK                            x       y       z     vdW  Elec       q    Type
REMARK                         _______ _______ _______ _____ _____    ______ ____
ROOT
ATOM      1  C   UNL     1      33.062  27.499  48.227  0.00  0.00    +0.000 C 
ATOM      2  O   UNL     1      31.843  27.399  48.590  0.00  0.00    +0.000 OA
ENDROOT
BRANCH   1   6
ATOM      3  C   UNL     1      35.823  29.138  49.799  0.00  0.00    +0.000 A 
ATOM      4  C   UNL     1      34.801  29.666  50.561  0.00  0.00    +0.000 A 
ATOM      5  C   UNL     1      33.599  29.129  50.081  0.00  0.00    +0.000 A 
ATOM      6  C   UNL     1      33.971  28.299  49.047  0.00  0.00    +0.000 A 
ATOM      7  O   UNL     1      35.280  28.335  48.918  0.00  0.00    +0.000 OA
ATOM      8  H   UNL     1      34.858  30.375  51.395  0.00  0.00    +0.000 HD
ATOM      9  H   UNL     1      32.617  29.354  50.477  0.00  0.00    +0.000 HD
BRANCH   3  10
ATOM     10  C   UNL     1      37.216  29.482  50.025  0.00  0.00    +0.000 C 
ATOM     11  O   UNL     1      37.858  28.869  50.890  0.00  0.00    +0.000 OA
BRANCH  10  12
ATOM     12  C   UNL     1      37.769  30.534  49.213  0.00  0.00    +0.000 A 
ATOM     13  C   UNL     1      38.112  31.716  49.854  0.00  0.00    +0.000 A 
ATOM     14  C   UNL     1      38.649  32.755  49.091  0.00  0.00    +0.000 A 
ATOM     15  N   UNL     1      38.807  32.545  47.738  0.00  0.00    +0.000 NA
ATOM     16  C   UNL     1      38.467  31.396  47.157  0.00  0.00    +0.000 A 
ATOM     17  N   UNL     1      37.950  30.389  47.880  0.00  0.00    +0.000 NA
ATOM     18  H   UNL     1      37.976  31.848  50.913  0.00  0.00    +0.000 HD
ATOM     19  H   UNL     1      38.916  33.675  49.589  0.00  0.00    +0.000 HD
ATOM     20  H   UNL     1      38.623  31.313  46.092  0.00  0.00    +0.000 HD
ENDBRANCH  10  12
ENDBRANCH   3  10
ENDBRANCH   1   6
BRANCH   1  21
ATOM     21  C   UNL     1      33.556  26.807  46.990  0.00  0.00    +0.000 C 
ATOM     22  C   UNL     1      33.796  25.275  47.296  0.00  0.00    +0.000 C 
ATOM     23  C   UNL     1      32.763  25.758  46.352  0.00  0.00    +0.000 C 
ATOM     24  H   UNL     1      34.492  27.231  46.573  0.00  0.00    +0.000 HD
ATOM     25  H   UNL     1      33.529  24.917  48.287  0.00  0.00    +0.000 HD
ATOM     26  H   UNL     1      34.706  24.836  46.862  0.00  0.00    +0.000 HD
ATOM     27  H   UNL     1      31.717  25.660  46.771  0.00  0.00    +0.000 HD
BRANCH  23  28
ATOM     28  N   UNL     1      32.844  25.620  44.934  0.00  0.00    +0.000 N 
ATOM     29  C   UNL     1      31.816  26.018  44.124  0.00  0.00    +0.000 A 
ATOM     30  C   UNL     1      31.885  25.888  42.752  0.00  0.00    +0.000 A 
ATOM     31  H   UNL     1      31.000  26.243  42.229  0.00  0.00    +0.000 HD
ATOM     32  C   UNL     1      32.994  25.350  42.132  0.00  0.00    +0.000 A 
ATOM     33  O   UNL     1      32.913  25.295  40.878  0.00  0.00    +0.000 OA
ATOM     34  N   UNL     1      34.000  24.961  42.937  0.00  0.00    +0.000 N 
ATOM     35  C   UNL     1      33.891  25.107  44.269  0.00  0.00    +0.000 A 
ATOM     36  O   UNL     1      34.890  24.709  44.900  0.00  0.00    +0.000 OA
ATOM     37  H   UNL     1      34.821  24.561  42.445  0.00  0.00    +0.000 HD
ENDBRANCH  23  28
ENDBRANCH   1  21
TORSDOF 5
