
 OpenBabel03262520183D

 19 20  0  0  0  0  0  0  0  0999 V2000
   37.4110   25.9200   35.2680 C   0  0  0  0  0  0  0  0  0  0  0  0
   38.0830   24.7900   35.8060 C   0  0  0  0  0  0  0  0  0  0  0  0
   39.4680   24.7200   35.6890 C   0  0  0  0  0  0  0  0  0  0  0  0
   40.1060   25.7400   35.0630 N   0  0  0  0  0  0  0  0  0  0  0  0
   39.4510   26.8160   34.5500 C   0  0  0  0  0  0  0  0  0  0  0  0
   38.1120   26.8950   34.6580 N   0  0  0  0  0  0  0  0  0  0  0  0
   36.3290   25.9360   35.3800 H   0  0  0  0  0  0  0  0  0  0  0  0
   37.5450   24.0130   36.2890 H   0  0  0  0  0  0  0  0  0  0  0  0
   39.9970   27.6190   34.0540 H   0  0  0  0  0  0  0  0  0  0  0  0
   40.2220   23.6280   36.1980 N   0  0  0  0  0  0  0  0  0  0  0  0
   41.3490   23.2020   35.6300 C   0  0  0  0  0  3  0  0  0  0  0  0
   42.0580   22.1250   36.1650 C   0  0  0  0  0  0  0  0  0  0  0  0
   42.9830   21.7810   35.6920 H   0  0  0  0  0  0  0  0  0  0  0  0
   41.5670   21.4980   37.3080 C   0  0  0  0  0  0  0  0  0  0  0  0
   42.1690   20.5330   37.8180 O   0  0  0  0  0  0  0  0  0  0  0  0
   40.4250   21.9450   37.8670 N   0  0  0  0  0  0  0  0  0  0  0  0
   39.7980   22.9910   37.2920 C   0  0  0  0  0  0  0  0  0  0  0  0
   38.7250   23.3740   37.8570 O   0  0  0  0  0  0  0  0  0  0  0  0
   40.0390   21.4820   38.7320 H   0  0  0  0  0  0  0  0  0  0  0  0
  1  7  1  0  0  0  0
  1  2  1  0  0  0  0
  2  8  1  0  0  0  0
  3  2  2  0  0  0  0
  3 10  1  0  0  0  0
  4  3  1  0  0  0  0
  5  6  1  0  0  0  0
  5  4  2  0  0  0  0
  6  1  2  0  0  0  0
  9  5  1  0  0  0  0
 10 17  1  0  0  0  0
 11 12  2  0  0  0  0
 11 10  1  0  0  0  0
 12 14  1  0  0  0  0
 13 12  1  0  0  0  0
 14 15  2  0  0  0  0
 14 16  1  0  0  0  0
 16 19  1  0  0  0  0
 17 18  2  0  0  0  0
 17 16  1  0  0  0  0
M  END
>  <minimizedAffinity>
-4.44363737

$$$$

 OpenBabel03262520183D

 19 20  0  0  0  0  0  0  0  0999 V2000
   37.9240   23.4210   38.0530 C   0  0  0  0  0  0  0  0  0  0  0  0
   37.1720   22.7880   37.0270 C   0  0  0  0  0  0  0  0  0  0  0  0
   37.8550   22.2240   35.9530 C   0  0  0  0  0  0  0  0  0  0  0  0
   39.2080   22.3110   35.9420 N   0  0  0  0  0  0  0  0  0  0  0  0
   39.9160   22.9210   36.9300 C   0  0  0  0  0  0  0  0  0  0  0  0
   39.2680   23.4690   37.9740 N   0  0  0  0  0  0  0  0  0  0  0  0
   37.3530   23.8490   38.8750 H   0  0  0  0  0  0  0  0  0  0  0  0
   36.1140   22.7420   37.0740 H   0  0  0  0  0  0  0  0  0  0  0  0
   41.0050   22.9720   36.8890 H   0  0  0  0  0  0  0  0  0  0  0  0
   37.1860   21.5710   34.8830 N   0  0  0  0  0  0  0  0  0  0  0  0
   37.6490   21.5720   33.6340 C   0  0  0  0  0  3  0  0  0  0  0  0
   36.9580   20.9160   32.6130 C   0  0  0  0  0  0  0  0  0  0  0  0
   37.3460   20.9210   31.5900 H   0  0  0  0  0  0  0  0  0  0  0  0
   35.7700   20.2560   32.9210 C   0  0  0  0  0  0  0  0  0  0  0  0
   35.1220   19.6580   32.0400 O   0  0  0  0  0  0  0  0  0  0  0  0
   35.3190   20.2680   34.1920 N   0  0  0  0  0  0  0  0  0  0  0  0
   36.0430   20.9230   35.1220 C   0  0  0  0  0  0  0  0  0  0  0  0
   35.5750   20.9050   36.3040 O   0  0  0  0  0  0  0  0  0  0  0  0
   34.4220   19.7750   34.4420 H   0  0  0  0  0  0  0  0  0  0  0  0
  1  7  1  0  0  0  0
  2  8  1  0  0  0  0
  2  1  2  0  0  0  0
  3  2  1  0  0  0  0
  4  3  2  0  0  0  0
  4  5  1  0  0  0  0
  5  6  2  0  0  0  0
  6  1  1  0  0  0  0
  9  5  1  0  0  0  0
 10 17  1  0  0  0  0
 10  3  1  0  0  0  0
 11 10  1  0  0  0  0
 12 14  1  0  0  0  0
 12 11  2  0  0  0  0
 13 12  1  0  0  0  0
 14 16  1  0  0  0  0
 15 14  2  0  0  0  0
 16 19  1  0  0  0  0
 16 17  1  0  0  0  0
 17 18  2  0  0  0  0
M  END
>  <minimizedAffinity>
-4.3694272

$$$$

 OpenBabel03262520183D

 19 20  0  0  0  0  0  0  0  0999 V2000
   39.9330   22.8440   37.3510 C   0  0  0  0  0  0  0  0  0  0  0  0
   39.3680   22.2600   36.1860 C   0  0  0  0  0  0  0  0  0  0  0  0
   37.9830   22.2610   36.0450 C   0  0  0  0  0  0  0  0  0  0  0  0
   37.2430   22.8230   37.0330 N   0  0  0  0  0  0  0  0  0  0  0  0
   37.7960   23.3780   38.1440 C   0  0  0  0  0  0  0  0  0  0  0  0
   39.1340   23.3830   38.2920 N   0  0  0  0  0  0  0  0  0  0  0  0
   41.0190   22.8220   37.4230 H   0  0  0  0  0  0  0  0  0  0  0  0
   39.9830   21.8310   35.4360 H   0  0  0  0  0  0  0  0  0  0  0  0
   37.1710   23.8220   38.9190 H   0  0  0  0  0  0  0  0  0  0  0  0
   37.3320   21.7000   34.9140 N   0  0  0  0  0  0  0  0  0  0  0  0
   36.1270   21.1350   34.9810 C   0  0  0  0  0  3  0  0  0  0  0  0
   35.5240   20.5960   33.8430 C   0  0  0  0  0  0  0  0  0  0  0  0
   34.5340   20.1330   33.9070 H   0  0  0  0  0  0  0  0  0  0  0  0
   36.2040   20.6570   32.6280 C   0  0  0  0  0  0  0  0  0  0  0  0
   35.7020   20.1880   31.5880 O   0  0  0  0  0  0  0  0  0  0  0  0
   37.4220   21.2340   32.5830 N   0  0  0  0  0  0  0  0  0  0  0  0
   37.9380   21.7310   33.7240 C   0  0  0  0  0  0  0  0  0  0  0  0
   39.0890   22.2640   33.6280 O   0  0  0  0  0  0  0  0  0  0  0  0
   37.9500   21.2880   31.6720 H   0  0  0  0  0  0  0  0  0  0  0  0
  1  7  1  0  0  0  0
  1  6  1  0  0  0  0
  2  1  2  0  0  0  0
  3  2  1  0  0  0  0
  3  4  2  0  0  0  0
  4  5  1  0  0  0  0
  5  6  2  0  0  0  0
  5  9  1  0  0  0  0
  8  2  1  0  0  0  0
 10 11  1  0  0  0  0
 10  3  1  0  0  0  0
 12 13  1  0  0  0  0
 12 11  2  0  0  0  0
 14 12  1  0  0  0  0
 15 14  2  0  0  0  0
 16 14  1  0  0  0  0
 16 17  1  0  0  0  0
 17 10  1  0  0  0  0
 18 17  2  0  0  0  0
 19 16  1  0  0  0  0
M  END
>  <minimizedAffinity>
-4.16832972

$$$$

 OpenBabel03262520183D

 19 20  0  0  0  0  0  0  0  0999 V2000
   36.1830   22.9280   31.4140 C   0  0  0  0  0  0  0  0  0  0  0  0
   36.9380   22.5510   32.5580 C   0  0  0  0  0  0  0  0  0  0  0  0
   37.6360   23.5370   33.2490 C   0  0  0  0  0  0  0  0  0  0  0  0
   37.5600   24.8110   32.7910 N   0  0  0  0  0  0  0  0  0  0  0  0
   36.8350   25.1590   31.6940 C   0  0  0  0  0  0  0  0  0  0  0  0
   36.1550   24.2140   31.0180 N   0  0  0  0  0  0  0  0  0  0  0  0
   35.6520   22.1280   30.9030 H   0  0  0  0  0  0  0  0  0  0  0  0
   36.9710   21.5420   32.8830 H   0  0  0  0  0  0  0  0  0  0  0  0
   36.7950   26.1940   31.3540 H   0  0  0  0  0  0  0  0  0  0  0  0
   38.4160   23.2530   34.4020 N   0  0  0  0  0  0  0  0  0  0  0  0
   39.5170   23.9340   34.7160 C   0  0  0  0  0  3  0  0  0  0  0  0
   40.2520   23.6200   35.8610 C   0  0  0  0  0  0  0  0  0  0  0  0
   41.1560   24.1840   36.1110 H   0  0  0  0  0  0  0  0  0  0  0  0
   39.8160   22.5760   36.6750 C   0  0  0  0  0  0  0  0  0  0  0  0
   40.4430   22.2630   37.7060 O   0  0  0  0  0  0  0  0  0  0  0  0
   38.6990   21.9000   36.3390 N   0  0  0  0  0  0  0  0  0  0  0  0
   38.0440   22.2630   35.2180 C   0  0  0  0  0  0  0  0  0  0  0  0
   36.9970   21.5940   34.9460 O   0  0  0  0  0  0  0  0  0  0  0  0
   38.3550   21.1090   36.9440 H   0  0  0  0  0  0  0  0  0  0  0  0
  1  2  1  0  0  0  0
  2  8  1  0  0  0  0
  2  3  2  0  0  0  0
  3 10  1  0  0  0  0
  4  3  1  0  0  0  0
  5  4  2  0  0  0  0
  6  1  2  0  0  0  0
  6  5  1  0  0  0  0
  7  1  1  0  0  0  0
  9  5  1  0  0  0  0
 10 11  1  0  0  0  0
 10 17  1  0  0  0  0
 11 12  2  0  0  0  0
 12 13  1  0  0  0  0
 12 14  1  0  0  0  0
 14 15  2  0  0  0  0
 16 14  1  0  0  0  0
 16 19  1  0  0  0  0
 17 16  1  0  0  0  0
 18 17  2  0  0  0  0
M  END
>  <minimizedAffinity>
-4.16176605

$$$$

 OpenBabel03262520183D

 19 20  0  0  0  0  0  0  0  0999 V2000
   38.6500   24.1670   31.3220 C   0  0  0  0  0  0  0  0  0  0  0  0
   38.7770   23.7950   32.6870 C   0  0  0  0  0  0  0  0  0  0  0  0
   38.0460   24.4990   33.6400 C   0  0  0  0  0  0  0  0  0  0  0  0
   37.2470   25.5080   33.2120 N   0  0  0  0  0  0  0  0  0  0  0  0
   37.1350   25.8550   31.9020 C   0  0  0  0  0  0  0  0  0  0  0  0
   37.8360   25.1810   30.9710 N   0  0  0  0  0  0  0  0  0  0  0  0
   39.2380   23.5920   30.6090 H   0  0  0  0  0  0  0  0  0  0  0  0
   39.4140   22.9990   32.9790 H   0  0  0  0  0  0  0  0  0  0  0  0
   36.4820   26.6720   31.5930 H   0  0  0  0  0  0  0  0  0  0  0  0
   38.1110   24.1960   35.0270 N   0  0  0  0  0  0  0  0  0  0  0  0
   37.9700   25.1220   35.9750 C   0  0  0  0  0  3  0  0  0  0  0  0
   38.0410   24.7790   37.3270 C   0  0  0  0  0  0  0  0  0  0  0  0
   37.9240   25.5450   38.0990 H   0  0  0  0  0  0  0  0  0  0  0  0
   38.2630   23.4470   37.6720 C   0  0  0  0  0  0  0  0  0  0  0  0
   38.3330   23.0980   38.8670 O   0  0  0  0  0  0  0  0  0  0  0  0
   38.4030   22.5270   36.6960 N   0  0  0  0  0  0  0  0  0  0  0  0
   38.3220   22.9360   35.4140 C   0  0  0  0  0  0  0  0  0  0  0  0
   38.4610   22.0300   34.5330 O   0  0  0  0  0  0  0  0  0  0  0  0
   38.5720   21.5160   36.9400 H   0  0  0  0  0  0  0  0  0  0  0  0
  1  2  1  0  0  0  0
  2  8  1  0  0  0  0
  2  3  2  0  0  0  0
  3 10  1  0  0  0  0
  4  3  1  0  0  0  0
  5  4  2  0  0  0  0
  6  1  2  0  0  0  0
  6  5  1  0  0  0  0
  7  1  1  0  0  0  0
  9  5  1  0  0  0  0
 10 17  1  0  0  0  0
 10 11  1  0  0  0  0
 11 12  2  0  0  0  0
 12 14  1  0  0  0  0
 12 13  1  0  0  0  0
 14 15  2  0  0  0  0
 16 19  1  0  0  0  0
 16 14  1  0  0  0  0
 17 16  1  0  0  0  0
 18 17  2  0  0  0  0
M  END
>  <minimizedAffinity>
-4.02188158

$$$$

 OpenBabel03262520183D

 19 20  0  0  0  0  0  0  0  0999 V2000
   39.7300   22.8800   37.2120 C   0  0  0  0  0  0  0  0  0  0  0  0
   39.5940   23.6860   36.0490 C   0  0  0  0  0  0  0  0  0  0  0  0
   38.6820   24.7370   36.0710 C   0  0  0  0  0  0  0  0  0  0  0  0
   37.9680   24.9370   37.2070 N   0  0  0  0  0  0  0  0  0  0  0  0
   38.1070   24.1580   38.3130 C   0  0  0  0  0  0  0  0  0  0  0  0
   38.9860   23.1380   38.3040 N   0  0  0  0  0  0  0  0  0  0  0  0
   40.4530   22.0690   37.1530 H   0  0  0  0  0  0  0  0  0  0  0  0
   40.1720   23.4950   35.1810 H   0  0  0  0  0  0  0  0  0  0  0  0
   37.5160   24.3480   39.2100 H   0  0  0  0  0  0  0  0  0  0  0  0
   38.4800   25.5950   34.9570 N   0  0  0  0  0  0  0  0  0  0  0  0
   37.3040   26.1570   34.6820 C   0  0  0  0  0  3  0  0  0  0  0  0
   37.1510   26.9940   33.5750 C   0  0  0  0  0  0  0  0  0  0  0  0
   36.1810   27.4520   33.3560 H   0  0  0  0  0  0  0  0  0  0  0  0
   38.2520   27.2340   32.7550 C   0  0  0  0  0  0  0  0  0  0  0  0
   38.1590   27.9740   31.7570 O   0  0  0  0  0  0  0  0  0  0  0  0
   39.4330   26.6540   33.0520 N   0  0  0  0  0  0  0  0  0  0  0  0
   39.5010   25.8590   34.1380 C   0  0  0  0  0  0  0  0  0  0  0  0
   40.6370   25.3370   34.3740 O   0  0  0  0  0  0  0  0  0  0  0  0
   40.2760   26.8240   32.4430 H   0  0  0  0  0  0  0  0  0  0  0  0
  1  6  1  0  0  0  0
  2  3  1  0  0  0  0
  2  1  2  0  0  0  0
  3  4  2  0  0  0  0
  4  5  1  0  0  0  0
  5  9  1  0  0  0  0
  6  5  2  0  0  0  0
  7  1  1  0  0  0  0
  8  2  1  0  0  0  0
 10  3  1  0  0  0  0
 11 10  1  0  0  0  0
 12 11  2  0  0  0  0
 13 12  1  0  0  0  0
 14 16  1  0  0  0  0
 14 12  1  0  0  0  0
 15 14  2  0  0  0  0
 16 17  1  0  0  0  0
 17 18  2  0  0  0  0
 17 10  1  0  0  0  0
 19 16  1  0  0  0  0
M  END
>  <minimizedAffinity>
-3.99401045

$$$$

 OpenBabel03262520183D

 19 20  0  0  0  0  0  0  0  0999 V2000
   35.6960   21.6540   31.1290 C   0  0  0  0  0  0  0  0  0  0  0  0
   35.5470   23.0380   31.4100 C   0  0  0  0  0  0  0  0  0  0  0  0
   36.6510   23.7460   31.8770 C   0  0  0  0  0  0  0  0  0  0  0  0
   37.8170   23.0720   32.0390 N   0  0  0  0  0  0  0  0  0  0  0  0
   37.9460   21.7450   31.7670 C   0  0  0  0  0  0  0  0  0  0  0  0
   36.8860   21.0510   31.3150 N   0  0  0  0  0  0  0  0  0  0  0  0
   34.8090   21.1370   30.7670 H   0  0  0  0  0  0  0  0  0  0  0  0
   34.6170   23.5270   31.2690 H   0  0  0  0  0  0  0  0  0  0  0  0
   38.9000   21.2350   31.9090 H   0  0  0  0  0  0  0  0  0  0  0  0
   36.5950   25.1320   32.1830 N   0  0  0  0  0  0  0  0  0  0  0  0
   37.3330   25.6910   33.1400 C   0  0  0  0  0  3  0  0  0  0  0  0
   37.2460   27.0590   33.4070 C   0  0  0  0  0  0  0  0  0  0  0  0
   37.8560   27.5090   34.1950 H   0  0  0  0  0  0  0  0  0  0  0  0
   36.3680   27.8360   32.6530 C   0  0  0  0  0  0  0  0  0  0  0  0
   36.2590   29.0610   32.8580 O   0  0  0  0  0  0  0  0  0  0  0  0
   35.6300   27.2500   31.6890 N   0  0  0  0  0  0  0  0  0  0  0  0
   35.7710   25.9240   31.4920 C   0  0  0  0  0  0  0  0  0  0  0  0
   35.0520   25.4200   30.5710 O   0  0  0  0  0  0  0  0  0  0  0  0
   34.9610   27.8230   31.1100 H   0  0  0  0  0  0  0  0  0  0  0  0
  1  6  2  0  0  0  0
  1  2  1  0  0  0  0
  2  3  2  0  0  0  0
  3  4  1  0  0  0  0
  3 10  1  0  0  0  0
  5  9  1  0  0  0  0
  5  4  2  0  0  0  0
  6  5  1  0  0  0  0
  7  1  1  0  0  0  0
  8  2  1  0  0  0  0
 10 11  1  0  0  0  0
 11 12  2  0  0  0  0
 12 13  1  0  0  0  0
 14 15  2  0  0  0  0
 14 12  1  0  0  0  0
 16 14  1  0  0  0  0
 17 16  1  0  0  0  0
 17 10  1  0  0  0  0
 18 17  2  0  0  0  0
 19 16  1  0  0  0  0
M  END
>  <minimizedAffinity>
-3.94382787

$$$$

 OpenBabel03262520183D

 19 20  0  0  0  0  0  0  0  0999 V2000
   37.3590   27.2700   32.2620 C   0  0  0  0  0  0  0  0  0  0  0  0
   37.3610   26.6690   33.5500 C   0  0  0  0  0  0  0  0  0  0  0  0
   38.0320   25.4620   33.7210 C   0  0  0  0  0  0  0  0  0  0  0  0
   38.6510   24.9200   32.6430 N   0  0  0  0  0  0  0  0  0  0  0  0
   38.6410   25.5040   31.4140 C   0  0  0  0  0  0  0  0  0  0  0  0
   37.9960   26.6720   31.2370 N   0  0  0  0  0  0  0  0  0  0  0  0
   36.8230   28.2130   32.1720 H   0  0  0  0  0  0  0  0  0  0  0  0
   36.8640   27.1270   34.3670 H   0  0  0  0  0  0  0  0  0  0  0  0
   39.1500   25.0400   30.5690 H   0  0  0  0  0  0  0  0  0  0  0  0
   38.0870   24.7900   34.9710 N   0  0  0  0  0  0  0  0  0  0  0  0
   38.1430   23.4630   35.0770 C   0  0  0  0  0  3  0  0  0  0  0  0
   38.1960   22.8450   36.3280 C   0  0  0  0  0  0  0  0  0  0  0  0
   38.2420   21.7550   36.4050 H   0  0  0  0  0  0  0  0  0  0  0  0
   38.1890   23.6410   37.4720 C   0  0  0  0  0  0  0  0  0  0  0  0
   38.2360   23.1300   38.6080 O   0  0  0  0  0  0  0  0  0  0  0  0
   38.1320   24.9820   37.3420 N   0  0  0  0  0  0  0  0  0  0  0  0
   38.0830   25.5040   36.1000 C   0  0  0  0  0  0  0  0  0  0  0  0
   38.0300   26.7730   36.0320 O   0  0  0  0  0  0  0  0  0  0  0  0
   38.1260   25.5990   38.1970 H   0  0  0  0  0  0  0  0  0  0  0  0
  1  2  1  0  0  0  0
  2  3  2  0  0  0  0
  2  8  1  0  0  0  0
  3 10  1  0  0  0  0
  4  3  1  0  0  0  0
  5  4  2  0  0  0  0
  6  5  1  0  0  0  0
  6  1  2  0  0  0  0
  7  1  1  0  0  0  0
  9  5  1  0  0  0  0
 10 11  1  0  0  0  0
 10 17  1  0  0  0  0
 11 12  2  0  0  0  0
 12 13  1  0  0  0  0
 12 14  1  0  0  0  0
 14 15  2  0  0  0  0
 16 14  1  0  0  0  0
 16 19  1  0  0  0  0
 17 16  1  0  0  0  0
 18 17  2  0  0  0  0
M  END
>  <minimizedAffinity>
-3.87877536

$$$$

 OpenBabel03262520183D

 19 20  0  0  0  0  0  0  0  0999 V2000
   41.1010   21.6260   37.0970 C   0  0  0  0  0  0  0  0  0  0  0  0
   40.2880   22.7820   36.9480 C   0  0  0  0  0  0  0  0  0  0  0  0
   40.4450   23.5640   35.8070 C   0  0  0  0  0  0  0  0  0  0  0  0
   41.3700   23.1780   34.8940 N   0  0  0  0  0  0  0  0  0  0  0  0
   42.1430   22.0700   35.0490 C   0  0  0  0  0  0  0  0  0  0  0  0
   42.0000   21.3060   36.1480 N   0  0  0  0  0  0  0  0  0  0  0  0
   40.9470   21.0430   38.0030 H   0  0  0  0  0  0  0  0  0  0  0  0
   39.5760   23.0480   37.6880 H   0  0  0  0  0  0  0  0  0  0  0  0
   42.8780   21.7890   34.2930 H   0  0  0  0  0  0  0  0  0  0  0  0
   39.6760   24.7350   35.5740 N   0  0  0  0  0  0  0  0  0  0  0  0
   40.1470   25.7880   34.9070 C   0  0  0  0  0  3  0  0  0  0  0  0
   39.3550   26.9190   34.7020 C   0  0  0  0  0  0  0  0  0  0  0  0
   39.7500   27.7790   34.1520 H   0  0  0  0  0  0  0  0  0  0  0  0
   38.0570   26.9320   35.2080 C   0  0  0  0  0  0  0  0  0  0  0  0
   37.3160   27.9220   35.0460 O   0  0  0  0  0  0  0  0  0  0  0  0
   37.6000   25.8560   35.8800 N   0  0  0  0  0  0  0  0  0  0  0  0
   38.4250   24.8020   36.0370 C   0  0  0  0  0  0  0  0  0  0  0  0
   37.9460   23.8130   36.6780 O   0  0  0  0  0  0  0  0  0  0  0  0
   36.6210   25.8500   36.2690 H   0  0  0  0  0  0  0  0  0  0  0  0
  1  7  1  0  0  0  0
  2  1  1  0  0  0  0
  2  8  1  0  0  0  0
  3  2  2  0  0  0  0
  4  5  2  0  0  0  0
  4  3  1  0  0  0  0
  5  6  1  0  0  0  0
  6  1  2  0  0  0  0
  9  5  1  0  0  0  0
 10  3  1  0  0  0  0
 10 17  1  0  0  0  0
 11 10  1  0  0  0  0
 12 11  2  0  0  0  0
 12 14  1  0  0  0  0
 13 12  1  0  0  0  0
 14 16  1  0  0  0  0
 15 14  2  0  0  0  0
 16 17  1  0  0  0  0
 16 19  1  0  0  0  0
 17 18  2  0  0  0  0
M  END
>  <minimizedAffinity>
-3.86751294

$$$$
