REMARK  Name = 
REMARK  4 active torsions:
REMARK  status: ('A' for Active; 'I' for Inactive)
REMARK    1  A    between atoms: C_1  and  C_15
REMARK    2  A    between atoms: C_4  and  C_7
REMARK    3  A    between atoms: C_15  and  C_21
REMARK    4  A    between atoms: C_19  and  N_32
REMARK                            x       y       z     vdW  Elec       q    Type
REMARK                         _______ _______ _______ _____ _____    ______ ____
ROOT
ATOM      1  C   UNL     1      35.550  29.699  49.811  0.00  0.00    +0.000 A 
ATOM      2  C   UNL     1      36.542  29.531  50.754  0.00  0.00    +0.000 A 
ATOM      3  C   UNL     1      37.670  30.072  50.146  0.00  0.00    +0.000 A 
ATOM      4  C   UNL     1      37.328  30.530  48.902  0.00  0.00    +0.000 A 
ATOM      5  O   UNL     1      36.036  30.291  48.725  0.00  0.00    +0.000 OA
ATOM      6  H   UNL     1      36.509  29.094  51.739  0.00  0.00    +0.000 HD
ATOM      7  H   UNL     1      38.665  30.149  50.528  0.00  0.00    +0.000 HD
ENDROOT
BRANCH   4   9
ATOM      8  C   UNL     1      38.632  32.463  48.143  0.00  0.00    +0.000 A 
ATOM      9  C   UNL     1      38.204  31.169  47.924  0.00  0.00    +0.000 A 
ATOM     10  C   UNL     1      38.584  30.450  46.792  0.00  0.00    +0.000 A 
ATOM     11  C   UNL     1      39.413  31.035  45.851  0.00  0.00    +0.000 A 
ATOM     12  N   UNL     1      39.950  30.623  44.681  0.00  0.00    +0.000 N 
ATOM     13  N   UNL     1      40.679  31.637  44.207  0.00  0.00    +0.000 NA
ATOM     14  C   UNL     1      40.619  32.679  45.045  0.00  0.00    +0.000 A 
ATOM     15  C   UNL     1      39.814  32.329  46.115  0.00  0.00    +0.000 A 
ATOM     16  C   UNL     1      39.472  33.080  47.206  0.00  0.00    +0.000 A 
ATOM     17  H   UNL     1      38.344  33.029  49.015  0.00  0.00    +0.000 HD
ATOM     18  H   UNL     1      38.244  29.423  46.620  0.00  0.00    +0.000 HD
ATOM     19  H   UNL     1      39.776  29.658  44.281  0.00  0.00    +0.000 HD
ATOM     20  H   UNL     1      41.147  33.600  44.836  0.00  0.00    +0.000 HD
ATOM     21  H   UNL     1      39.824  34.093  47.349  0.00  0.00    +0.000 HD
ENDBRANCH   4   9
BRANCH   1  22
ATOM     22  C   UNL     1      34.158  29.281  49.989  0.00  0.00    +0.000 C 
ATOM     23  O   UNL     1      33.495  29.827  50.893  0.00  0.00    +0.000 OA
BRANCH  22  28
ATOM     24  C   UNL     1      31.693  27.153  48.348  0.00  0.00    +0.000 A 
ATOM     25  C   UNL     1      32.462  26.352  47.519  0.00  0.00    +0.000 A 
ATOM     26  C   UNL     1      33.826  26.529  47.511  0.00  0.00    +0.000 A 
ATOM     27  N   UNL     1      34.358  27.480  48.315  0.00  0.00    +0.000 NA
ATOM     28  C   UNL     1      33.595  28.253  49.119  0.00  0.00    +0.000 A 
ATOM     29  N   UNL     1      32.263  28.083  49.129  0.00  0.00    +0.000 NA
ATOM     30  H   UNL     1      30.613  27.010  48.352  0.00  0.00    +0.000 HD
ATOM     31  H   UNL     1      31.964  25.606  46.898  0.00  0.00    +0.000 HD
BRANCH  26  32
ATOM     32  N   UNL     1      34.622  25.709  46.661  0.00  0.00    +0.000 N 
ATOM     33  C   UNL     1      34.469  25.733  45.318  0.00  0.00    +0.000 A 
ATOM     34  C   UNL     1      35.252  24.927  44.484  0.00  0.00    +0.000 A 
ATOM     35  H   UNL     1      35.128  24.946  43.408  0.00  0.00    +0.000 HD
ATOM     36  C   UNL     1      36.180  24.116  45.118  0.00  0.00    +0.000 A 
ATOM     37  O   UNL     1      36.918  23.362  44.398  0.00  0.00    +0.000 OA
ATOM     38  N   UNL     1      36.309  24.117  46.477  0.00  0.00    +0.000 N 
ATOM     39  C   UNL     1      35.535  24.907  47.239  0.00  0.00    +0.000 A 
ATOM     40  O   UNL     1      35.746  24.821  48.476  0.00  0.00    +0.000 OA
ATOM     41  H   UNL     1      37.043  23.467  46.888  0.00  0.00    +0.000 HD
ENDBRANCH  26  32
ENDBRANCH  22  28
ENDBRANCH   1  22
TORSDOF 4
