
 OpenBabel03272508253D

 26 28  0  0  1  0  0  0  0  0999 V2000
   35.5750   30.4430   49.0250 C   0  0  1  0  0  0  0  0  0  0  0  0
   35.1660   29.3370   48.1680 C   0  0  1  0  0  0  0  0  0  0  0  0
   35.9190   29.0150   49.4320 C   0  0  0  0  0  0  0  0  0  0  0  0
   34.9180   31.0030   49.7390 H   0  0  0  0  0  0  0  0  0  0  0  0
   35.8100   29.2060   47.2470 H   0  0  0  0  0  0  0  0  0  0  0  0
   36.9790   28.6880   49.3810 H   0  0  0  0  0  0  0  0  0  0  0  0
   35.3130   28.5570   50.2360 H   0  0  0  0  0  0  0  0  0  0  0  0
   33.8120   28.9260   47.9820 N   0  0  0  0  0  0  0  0  0  0  0  0
   33.2060   28.0030   48.7840 C   0  0  0  0  0  3  0  0  0  0  0  0
   31.9130   27.5800   48.6430 C   0  0  0  0  0  0  0  0  0  0  0  0
   31.5240   26.8310   49.3440 H   0  0  0  0  0  0  0  0  0  0  0  0
   31.1680   28.1270   47.6150 C   0  0  0  0  0  0  0  0  0  0  0  0
   29.9750   27.7570   47.4600 O   0  0  0  0  0  0  0  0  0  0  0  0
   31.7510   29.0530   46.7990 N   0  0  0  0  0  0  0  0  0  0  0  0
   33.0370   29.4220   47.0010 C   0  0  0  0  0  0  0  0  0  0  0  0
   33.4630   30.2660   46.2040 O   0  0  0  0  0  0  0  0  0  0  0  0
   31.1270   29.4050   46.0650 H   0  0  0  0  0  0  0  0  0  0  0  0
   36.7940   31.2710   48.7030 C   0  0  0  0  0  0  0  0  0  0  0  0
   37.2400   32.1590   49.6980 C   0  0  0  0  0  0  0  0  0  0  0  0
   38.3450   32.9310   49.3840 C   0  0  0  0  0  0  0  0  0  0  0  0
   38.9320   32.8010   48.1640 N   0  0  0  0  0  0  0  0  0  0  0  0
   38.4740   31.9260   47.2160 C   0  0  0  0  0  0  0  0  0  0  0  0
   37.3850   31.1590   47.5140 N   0  0  0  0  0  0  0  0  0  0  0  0
   36.7760   32.2660   50.6680 H   0  0  0  0  0  0  0  0  0  0  0  0
   38.7760   33.6520   50.0810 H   0  0  0  0  0  0  0  0  0  0  0  0
   38.9830   31.8670   46.2640 H   0  0  0  0  0  0  0  0  0  0  0  0
  1  3  1  0  0  0  0
  1  4  1  1  0  0  0
  2  5  1  6  0  0  0
  2  1  1  0  0  0  0
  2  3  1  0  0  0  0
  3  7  1  0  0  0  0
  6  3  1  0  0  0  0
  8  2  1  0  0  0  0
  8  9  1  0  0  0  0
 10  9  2  0  0  0  0
 10 11  1  0  0  0  0
 12 10  1  0  0  0  0
 13 12  2  0  0  0  0
 14 15  1  0  0  0  0
 14 12  1  0  0  0  0
 15  8  1  0  0  0  0
 16 15  2  0  0  0  0
 17 14  1  0  0  0  0
 18  1  1  0  0  0  0
 18 19  1  0  0  0  0
 19 24  1  0  0  0  0
 20 19  2  0  0  0  0
 20 25  1  0  0  0  0
 21 20  1  0  0  0  0
 22 23  1  0  0  0  0
 22 21  2  0  0  0  0
 23 18  2  0  0  0  0
 26 22  1  0  0  0  0
M  END
>  <minimizedAffinity>
-5.20143414

>  <minimizedRMSD>
2.31684399

$$$$
