
 OpenBabel03272508583D

 41 44  0  0  1  0  0  0  0  0999 V2000
   39.1620   31.4490   43.3200 C   0  0  0  0  0  0  0  0  0  0  0  0
   40.1990   30.5720   43.4940 C   0  0  0  0  0  0  0  0  0  0  0  0
   40.9150   30.2100   42.3580 C   0  0  0  0  0  0  0  0  0  0  0  0
   40.5390   30.7510   41.1470 C   0  0  0  0  0  0  0  0  0  0  0  0
   39.4910   31.6340   40.9840 C   0  0  0  0  0  0  0  0  0  0  0  0
   38.8150   31.9660   42.1130 N   0  0  0  0  0  0  0  0  0  0  0  0
   40.4780   30.1580   44.4560 H   0  0  0  0  0  0  0  0  0  0  0  0
   41.7370   29.5310   42.4180 H   0  0  0  0  0  0  0  0  0  0  0  0
   41.1150   30.4510   40.2880 H   0  0  0  0  0  0  0  0  0  0  0  0
   38.3740   31.8720   44.5040 C   0  0  0  0  0  0  0  0  0  0  0  0
   37.2880   32.4520   44.4040 O   0  0  0  0  0  0  0  0  0  0  0  0
   38.9410   31.5730   45.8110 N   0  0  0  0  0  0  0  0  0  0  0  0
   39.9270   31.2880   45.9680 H   0  0  0  0  0  0  0  0  0  0  0  0
   38.4270   31.0820   48.2000 C   0  0  2  0  0  0  0  0  0  0  0  0
   38.6680   32.5450   48.0980 C   0  0  0  0  0  0  0  0  0  0  0  0
   38.0670   31.6830   46.9580 C   0  0  1  0  0  0  0  0  0  0  0  0
   39.3690   30.5020   48.3090 H   0  0  0  0  0  0  0  0  0  0  0  0
   37.9790   33.2490   48.6110 H   0  0  0  0  0  0  0  0  0  0  0  0
   39.6750   32.9370   47.9660 H   0  0  0  0  0  0  0  0  0  0  0  0
   36.9780   31.9120   46.7510 H   0  0  0  0  0  0  0  0  0  0  0  0
   35.0610   30.2280   49.5170 C   0  0  0  0  0  0  0  0  0  0  0  0
   35.3850   29.5550   50.7290 C   0  0  0  0  0  0  0  0  0  0  0  0
   36.7760   29.4110   51.0810 C   0  0  0  0  0  0  0  0  0  0  0  0
   37.7410   29.9220   50.2440 N   0  0  0  0  0  0  0  0  0  0  0  0
   37.3400   30.5530   49.1030 C   0  0  0  0  0  0  0  0  0  0  0  0
   36.0180   30.7250   48.7060 N   0  0  0  0  0  0  0  0  0  0  0  0
   34.0250   30.3250   49.2740 H   0  0  0  0  0  0  0  0  0  0  0  0
   34.6440   29.1580   51.3770 H   0  0  0  0  0  0  0  0  0  0  0  0
   37.0300   28.9000   51.9990 H   0  0  0  0  0  0  0  0  0  0  0  0
   39.1380   32.1610   39.6780 C   0  0  0  0  0  0  0  0  0  0  0  0
   39.0230   33.3910   39.5080 O   0  0  0  0  0  0  0  0  0  0  0  0
   40.3610   29.5440   36.1810 H   0  0  0  0  0  0  0  0  0  0  0  0
   39.6250   29.8370   36.8610 N   0  0  0  0  0  0  0  0  0  0  0  0
   39.9520   30.7970   37.7710 C   0  0  0  0  0  3  0  0  0  0  0  0
   38.9450   31.1490   38.6470 C   0  0  0  0  0  0  0  0  0  0  0  0
   37.6820   30.5880   38.6310 C   0  0  0  0  0  0  0  0  0  0  0  0
   36.7770   30.9030   39.4180 O   0  0  0  0  0  0  0  0  0  0  0  0
   37.4060   29.6290   37.7000 N   0  0  0  0  0  0  0  0  0  0  0  0
   38.3970   29.2820   36.8360 C   0  0  0  0  0  0  0  0  0  0  0  0
   38.0820   28.3950   36.0010 O   0  0  0  0  0  0  0  0  0  0  0  0
   36.4600   29.2030   37.6810 H   0  0  0  0  0  0  0  0  0  0  0  0
  1  2  1  0  0  0  0
  1 10  1  0  0  0  0
  2  7  1  0  0  0  0
  3  8  1  0  0  0  0
  3  2  2  0  0  0  0
  4  3  1  0  0  0  0
  5  4  2  0  0  0  0
  5  6  1  0  0  0  0
  6  1  2  0  0  0  0
  9  4  1  0  0  0  0
 10 12  1  0  0  0  0
 11 10  2  0  0  0  0
 12 13  1  0  0  0  0
 12 16  1  0  0  0  0
 14 17  1  6  0  0  0
 14 25  1  0  0  0  0
 15 14  1  0  0  0  0
 15 18  1  0  0  0  0
 16 20  1  6  0  0  0
 16 15  1  0  0  0  0
 16 14  1  0  0  0  0
 19 15  1  0  0  0  0
 21 22  1  0  0  0  0
 22 23  2  0  0  0  0
 22 28  1  0  0  0  0
 23 29  1  0  0  0  0
 24 23  1  0  0  0  0
 25 24  2  0  0  0  0
 26 25  1  0  0  0  0
 26 21  2  0  0  0  0
 27 21  1  0  0  0  0
 30  5  1  0  0  0  0
 31 30  2  0  0  0  0
 32 33  1  0  0  0  0
 33 34  1  0  0  0  0
 34 35  2  0  0  0  0
 35 30  1  0  0  0  0
 36 35  1  0  0  0  0
 36 37  2  0  0  0  0
 38 36  1  0  0  0  0
 39 33  1  0  0  0  0
 39 38  1  0  0  0  0
 40 39  2  0  0  0  0
 41 38  1  0  0  0  0
M  END
>  <minimizedAffinity>
-4.91029835

>  <minimizedRMSD>
0.87365979

$$$$
