
 OpenBabel03272506523D

 35 37  0  0  1  0  0  0  0  0999 V2000
   38.5030   26.8430   34.0080 C   0  0  1  0  0  0  0  0  0  0  0  0
   38.8710   27.0610   35.4110 C   0  0  0  0  0  0  0  0  0  0  0  0
   38.2690   26.1290   36.4090 C   0  0  0  0  0  0  0  0  0  0  0  0
   38.1550   24.7230   36.0140 C   0  0  1  0  0  0  0  0  0  0  0  0
   37.7740   24.4950   34.5940 C   0  0  0  0  0  0  0  0  0  0  0  0
   38.4730   25.3980   33.6280 C   0  0  0  0  0  0  0  0  0  0  0  0
   39.3440   27.2730   33.3680 H   0  0  0  0  0  0  0  0  0  0  0  0
   38.7730   28.0650   35.8040 H   0  0  0  0  0  0  0  0  0  0  0  0
   39.9930   26.8790   35.4630 H   0  0  0  0  0  0  0  0  0  0  0  0
   38.7760   26.2500   37.3820 H   0  0  0  0  0  0  0  0  0  0  0  0
   37.2410   26.5290   36.5990 H   0  0  0  0  0  0  0  0  0  0  0  0
   37.2640   24.3160   36.6030 H   0  0  0  0  0  0  0  0  0  0  0  0
   37.9120   23.4800   34.2400 H   0  0  0  0  0  0  0  0  0  0  0  0
   36.6720   24.7040   34.4760 H   0  0  0  0  0  0  0  0  0  0  0  0
   39.5580   25.0490   33.6430 H   0  0  0  0  0  0  0  0  0  0  0  0
   38.1390   25.1590   32.6260 H   0  0  0  0  0  0  0  0  0  0  0  0
   39.2150   23.8300   36.3750 N   0  0  0  0  0  0  0  0  0  0  0  0
   40.3400   23.5610   35.7420 C   0  0  0  0  0  3  0  0  0  0  0  0
   41.3160   22.6940   36.1450 C   0  0  0  0  0  0  0  0  0  0  0  0
   42.2130   22.5220   35.5750 H   0  0  0  0  0  0  0  0  0  0  0  0
   41.1270   22.0090   37.3460 C   0  0  0  0  0  0  0  0  0  0  0  0
   41.9980   21.2030   37.7540 O   0  0  0  0  0  0  0  0  0  0  0  0
   39.9660   22.2830   38.0070 N   0  0  0  0  0  0  0  0  0  0  0  0
   39.0500   23.1510   37.5490 C   0  0  0  0  0  0  0  0  0  0  0  0
   38.0610   23.2250   38.3510 O   0  0  0  0  0  0  0  0  0  0  0  0
   39.9030   21.7320   38.8940 H   0  0  0  0  0  0  0  0  0  0  0  0
   36.4880   28.3320   34.3840 C   0  0  0  0  0  0  0  0  0  0  0  0
   37.3190   27.5960   33.5200 C   0  0  0  0  0  0  0  0  0  0  0  0
   36.9910   27.6020   32.1780 C   0  0  0  0  0  0  0  0  0  0  0  0
   35.9070   28.2980   31.7560 N   0  0  0  0  0  0  0  0  0  0  0  0
   35.1300   28.9950   32.6230 C   0  0  0  0  0  0  0  0  0  0  0  0
   35.4320   29.0060   33.9440 N   0  0  0  0  0  0  0  0  0  0  0  0
   36.6550   28.3950   35.4450 H   0  0  0  0  0  0  0  0  0  0  0  0
   37.5130   27.1030   31.3830 H   0  0  0  0  0  0  0  0  0  0  0  0
   34.2780   29.5260   32.1960 H   0  0  0  0  0  0  0  0  0  0  0  0
  1  7  1  6  0  0  0
  1  2  1  0  0  0  0
  2  9  1  0  0  0  0
  2  8  1  0  0  0  0
  2  3  1  0  0  0  0
  3 11  1  0  0  0  0
  3 10  1  0  0  0  0
  4 17  1  0  0  0  0
  4  3  1  0  0  0  0
  4 12  1  1  0  0  0
  5  4  1  0  0  0  0
  6 15  1  0  0  0  0
  6  1  1  0  0  0  0
  6  5  1  0  0  0  0
 13  5  1  0  0  0  0
 14  5  1  0  0  0  0
 16  6  1  0  0  0  0
 17 24  1  0  0  0  0
 18 19  2  0  0  0  0
 18 17  1  0  0  0  0
 19 21  1  0  0  0  0
 20 19  1  0  0  0  0
 21 22  2  0  0  0  0
 21 23  1  0  0  0  0
 23 26  1  0  0  0  0
 24 23  1  0  0  0  0
 24 25  2  0  0  0  0
 27 33  1  0  0  0  0
 28  1  1  0  0  0  0
 28 27  2  0  0  0  0
 29 28  1  0  0  0  0
 30 29  2  0  0  0  0
 30 31  1  0  0  0  0
 31 32  2  0  0  0  0
 32 27  1  0  0  0  0
 34 29  1  0  0  0  0
 35 31  1  0  0  0  0
M  END
>  <minimizedAffinity>
-5.98348522

$$$$

 OpenBabel03272506523D

 35 37  0  0  1  0  0  0  0  0999 V2000
   39.4240   25.1940   34.7980 C   0  0  1  0  0  0  0  0  0  0  0  0
   39.1600   24.4330   33.5720 C   0  0  0  0  0  0  0  0  0  0  0  0
   37.8010   24.5840   32.9750 C   0  0  0  0  0  0  0  0  0  0  0  0
   37.2130   25.9260   33.0060 C   0  0  1  0  0  0  0  0  0  0  0  0
   37.4690   26.7000   34.2500 C   0  0  0  0  0  0  0  0  0  0  0  0
   38.8720   26.5820   34.7570 C   0  0  0  0  0  0  0  0  0  0  0  0
   40.5520   25.3540   34.8610 H   0  0  0  0  0  0  0  0  0  0  0  0
   39.3970   23.3760   33.5780 H   0  0  0  0  0  0  0  0  0  0  0  0
   39.8810   24.8480   32.7960 H   0  0  0  0  0  0  0  0  0  0  0  0
   37.7910   24.1470   31.9630 H   0  0  0  0  0  0  0  0  0  0  0  0
   37.1450   23.8950   33.5640 H   0  0  0  0  0  0  0  0  0  0  0  0
   36.0820   25.7580   33.0190 H   0  0  0  0  0  0  0  0  0  0  0  0
   37.2400   27.7580   34.1880 H   0  0  0  0  0  0  0  0  0  0  0  0
   36.8060   26.2990   35.0700 H   0  0  0  0  0  0  0  0  0  0  0  0
   39.5010   27.1460   33.9910 H   0  0  0  0  0  0  0  0  0  0  0  0
   38.9670   27.1770   35.6560 H   0  0  0  0  0  0  0  0  0  0  0  0
   37.3990   26.7740   31.8670 N   0  0  0  0  0  0  0  0  0  0  0  0
   38.4500   27.4900   31.5150 C   0  0  0  0  0  3  0  0  0  0  0  0
   38.5630   28.2820   30.4080 C   0  0  0  0  0  0  0  0  0  0  0  0
   39.4540   28.8420   30.1820 H   0  0  0  0  0  0  0  0  0  0  0  0
   37.4710   28.3580   29.5430 C   0  0  0  0  0  0  0  0  0  0  0  0
   37.5320   29.0720   28.5140 O   0  0  0  0  0  0  0  0  0  0  0  0
   36.3810   27.6180   29.9000 N   0  0  0  0  0  0  0  0  0  0  0  0
   36.3420   26.8610   31.0070 C   0  0  0  0  0  0  0  0  0  0  0  0
   35.2140   26.2740   31.1090 O   0  0  0  0  0  0  0  0  0  0  0  0
   35.6100   27.7300   29.2020 H   0  0  0  0  0  0  0  0  0  0  0  0
   38.1150   24.9110   36.9500 C   0  0  0  0  0  0  0  0  0  0  0  0
   39.1350   24.4920   36.0760 C   0  0  0  0  0  0  0  0  0  0  0  0
   39.8670   23.3830   36.4520 C   0  0  0  0  0  0  0  0  0  0  0  0
   39.5840   22.7570   37.6210 N   0  0  0  0  0  0  0  0  0  0  0  0
   38.5910   23.1950   38.4370 C   0  0  0  0  0  0  0  0  0  0  0  0
   37.8580   24.2800   38.0890 N   0  0  0  0  0  0  0  0  0  0  0  0
   37.4860   25.7610   36.7510 H   0  0  0  0  0  0  0  0  0  0  0  0
   40.6730   22.9260   35.9090 H   0  0  0  0  0  0  0  0  0  0  0  0
   38.4330   22.6310   39.3570 H   0  0  0  0  0  0  0  0  0  0  0  0
  1  7  1  1  0  0  0
  1 28  1  0  0  0  0
  2  8  1  0  0  0  0
  2  1  1  0  0  0  0
  3  4  1  0  0  0  0
  3 11  1  0  0  0  0
  3  2  1  0  0  0  0
  4 12  1  1  0  0  0
  4  5  1  0  0  0  0
  5  6  1  0  0  0  0
  5 14  1  0  0  0  0
  6  1  1  0  0  0  0
  6 16  1  0  0  0  0
  9  2  1  0  0  0  0
 10  3  1  0  0  0  0
 13  5  1  0  0  0  0
 15  6  1  0  0  0  0
 17  4  1  0  0  0  0
 18 17  1  0  0  0  0
 19 18  2  0  0  0  0
 20 19  1  0  0  0  0
 21 23  1  0  0  0  0
 21 19  1  0  0  0  0
 22 21  2  0  0  0  0
 23 24  1  0  0  0  0
 24 25  2  0  0  0  0
 24 17  1  0  0  0  0
 26 23  1  0  0  0  0
 27 32  1  0  0  0  0
 28 29  1  0  0  0  0
 28 27  2  0  0  0  0
 29 30  2  0  0  0  0
 30 31  1  0  0  0  0
 31 35  1  0  0  0  0
 32 31  2  0  0  0  0
 33 27  1  0  0  0  0
 34 29  1  0  0  0  0
M  END
>  <minimizedAffinity>
-5.58230209

$$$$

 OpenBabel03272506523D

 35 37  0  0  1  0  0  0  0  0999 V2000
   39.3310   25.2030   34.6030 C   0  0  1  0  0  0  0  0  0  0  0  0
   38.7810   24.5090   33.4330 C   0  0  0  0  0  0  0  0  0  0  0  0
   37.4120   24.9160   33.0020 C   0  0  0  0  0  0  0  0  0  0  0  0
   37.0940   26.3440   33.0760 C   0  0  1  0  0  0  0  0  0  0  0  0
   37.6410   27.0530   34.2640 C   0  0  0  0  0  0  0  0  0  0  0  0
   39.0490   26.6700   34.6000 C   0  0  0  0  0  0  0  0  0  0  0  0
   40.4680   25.1470   34.5250 H   0  0  0  0  0  0  0  0  0  0  0  0
   38.8130   23.4270   33.4320 H   0  0  0  0  0  0  0  0  0  0  0  0
   39.4670   24.7820   32.5680 H   0  0  0  0  0  0  0  0  0  0  0  0
   37.1950   24.4910   32.0070 H   0  0  0  0  0  0  0  0  0  0  0  0
   36.7150   24.3620   33.6790 H   0  0  0  0  0  0  0  0  0  0  0  0
   35.9620   26.3930   33.2290 H   0  0  0  0  0  0  0  0  0  0  0  0
   37.6090   28.1350   34.2080 H   0  0  0  0  0  0  0  0  0  0  0  0
   37.0200   26.7810   35.1660 H   0  0  0  0  0  0  0  0  0  0  0  0
   39.6740   27.1070   33.7520 H   0  0  0  0  0  0  0  0  0  0  0  0
   39.3630   27.2340   35.4690 H   0  0  0  0  0  0  0  0  0  0  0  0
   37.2950   27.1450   31.9050 N   0  0  0  0  0  0  0  0  0  0  0  0
   38.3680   27.2700   31.1480 C   0  0  0  0  0  3  0  0  0  0  0  0
   38.4940   28.0550   30.0370 C   0  0  0  0  0  0  0  0  0  0  0  0
   39.4030   28.1100   29.4630 H   0  0  0  0  0  0  0  0  0  0  0  0
   37.3900   28.8120   29.6420 C   0  0  0  0  0  0  0  0  0  0  0  0
   37.4620   29.5470   28.6270 O   0  0  0  0  0  0  0  0  0  0  0  0
   36.2770   28.6860   30.4200 N   0  0  0  0  0  0  0  0  0  0  0  0
   36.2270   27.8930   31.5010 C   0  0  0  0  0  0  0  0  0  0  0  0
   35.0770   27.9560   32.0500 O   0  0  0  0  0  0  0  0  0  0  0  0
   35.4990   29.2840   30.0570 H   0  0  0  0  0  0  0  0  0  0  0  0
   39.7510   23.4070   36.3400 C   0  0  0  0  0  0  0  0  0  0  0  0
   39.0730   24.5650   35.9200 C   0  0  0  0  0  0  0  0  0  0  0  0
   38.1460   25.1000   36.7920 C   0  0  0  0  0  0  0  0  0  0  0  0
   37.9280   24.5030   37.9900 N   0  0  0  0  0  0  0  0  0  0  0  0
   38.6040   23.3840   38.3570 C   0  0  0  0  0  0  0  0  0  0  0  0
   39.5200   22.8420   37.5190 N   0  0  0  0  0  0  0  0  0  0  0  0
   40.4940   22.9120   35.7390 H   0  0  0  0  0  0  0  0  0  0  0  0
   37.5440   25.9770   36.6380 H   0  0  0  0  0  0  0  0  0  0  0  0
   38.3660   22.9710   39.3380 H   0  0  0  0  0  0  0  0  0  0  0  0
  1  7  1  6  0  0  0
  1 28  1  0  0  0  0
  2  1  1  0  0  0  0
  3  4  1  0  0  0  0
  3  2  1  0  0  0  0
  3 11  1  0  0  0  0
  4 12  1  1  0  0  0
  4  5  1  0  0  0  0
  5  6  1  0  0  0  0
  5 14  1  0  0  0  0
  6  1  1  0  0  0  0
  6 16  1  0  0  0  0
  8  2  1  0  0  0  0
  9  2  1  0  0  0  0
 10  3  1  0  0  0  0
 13  5  1  0  0  0  0
 15  6  1  0  0  0  0
 17  4  1  0  0  0  0
 18 17  1  0  0  0  0
 19 18  2  0  0  0  0
 20 19  1  0  0  0  0
 21 19  1  0  0  0  0
 21 23  1  0  0  0  0
 22 21  2  0  0  0  0
 23 24  1  0  0  0  0
 24 17  1  0  0  0  0
 24 25  2  0  0  0  0
 26 23  1  0  0  0  0
 27 32  1  0  0  0  0
 28 27  2  0  0  0  0
 28 29  1  0  0  0  0
 29 30  2  0  0  0  0
 30 31  1  0  0  0  0
 31 35  1  0  0  0  0
 32 31  2  0  0  0  0
 33 27  1  0  0  0  0
 34 29  1  0  0  0  0
M  END
>  <minimizedAffinity>
-5.24953413

$$$$

 OpenBabel03272506523D

 35 37  0  0  1  0  0  0  0  0999 V2000
   35.1940   30.1660   33.0860 C   0  0  1  0  0  0  0  0  0  0  0  0
   35.6920   29.9050   31.7310 C   0  0  0  0  0  0  0  0  0  0  0  0
   36.9080   29.0480   31.6230 C   0  0  0  0  0  0  0  0  0  0  0  0
   36.9970   27.9100   32.5410 C   0  0  1  0  0  0  0  0  0  0  0  0
   36.5020   28.1690   33.9190 C   0  0  0  0  0  0  0  0  0  0  0  0
   35.2320   28.9590   33.9660 C   0  0  0  0  0  0  0  0  0  0  0  0
   34.0810   30.4020   32.9980 H   0  0  0  0  0  0  0  0  0  0  0  0
   35.8360   30.7570   31.0780 H   0  0  0  0  0  0  0  0  0  0  0  0
   34.8630   29.3260   31.2100 H   0  0  0  0  0  0  0  0  0  0  0  0
   37.0580   28.7500   30.5710 H   0  0  0  0  0  0  0  0  0  0  0  0
   37.7690   29.7340   31.8250 H   0  0  0  0  0  0  0  0  0  0  0  0
   38.1160   27.7260   32.6840 H   0  0  0  0  0  0  0  0  0  0  0  0
   36.3510   27.2850   34.5270 H   0  0  0  0  0  0  0  0  0  0  0  0
   37.2720   28.7830   34.4710 H   0  0  0  0  0  0  0  0  0  0  0  0
   34.4380   28.2500   33.5580 H   0  0  0  0  0  0  0  0  0  0  0  0
   34.9470   29.0960   35.0020 H   0  0  0  0  0  0  0  0  0  0  0  0
   36.5160   26.6380   32.0910 N   0  0  0  0  0  0  0  0  0  0  0  0
   35.4710   26.3520   31.3390 C   0  0  0  0  0  3  0  0  0  0  0  0
   35.0660   25.1090   30.9430 C   0  0  0  0  0  0  0  0  0  0  0  0
   34.1980   24.9490   30.3260 H   0  0  0  0  0  0  0  0  0  0  0  0
   35.8180   24.0120   31.3630 C   0  0  0  0  0  0  0  0  0  0  0  0
   35.4830   22.8520   31.0220 O   0  0  0  0  0  0  0  0  0  0  0  0
   36.9020   24.2990   32.1400 N   0  0  0  0  0  0  0  0  0  0  0  0
   37.2390   25.5500   32.4910 C   0  0  0  0  0  0  0  0  0  0  0  0
   38.2880   25.5440   33.2170 O   0  0  0  0  0  0  0  0  0  0  0  0
   37.4090   23.4250   32.4110 H   0  0  0  0  0  0  0  0  0  0  0  0
   35.7770   31.5160   35.1500 C   0  0  0  0  0  0  0  0  0  0  0  0
   35.7220   31.3860   33.7510 C   0  0  0  0  0  0  0  0  0  0  0  0
   36.1900   32.4490   33.0030 C   0  0  0  0  0  0  0  0  0  0  0  0
   36.6690   33.5510   33.6310 N   0  0  0  0  0  0  0  0  0  0  0  0
   36.7030   33.6380   34.9850 C   0  0  0  0  0  0  0  0  0  0  0  0
   36.2520   32.6070   35.7400 N   0  0  0  0  0  0  0  0  0  0  0  0
   35.4400   30.7480   35.8240 H   0  0  0  0  0  0  0  0  0  0  0  0
   36.2270   32.5190   31.9320 H   0  0  0  0  0  0  0  0  0  0  0  0
   37.1050   34.5600   35.4050 H   0  0  0  0  0  0  0  0  0  0  0  0
  1  7  1  6  0  0  0
  1 28  1  0  0  0  0
  1  6  1  0  0  0  0
  2  1  1  0  0  0  0
  3  2  1  0  0  0  0
  3 11  1  0  0  0  0
  3  4  1  0  0  0  0
  4 12  1  1  0  0  0
  4  5  1  0  0  0  0
  5  6  1  0  0  0  0
  5 14  1  0  0  0  0
  5 13  1  0  0  0  0
  6 16  1  0  0  0  0
  8  2  1  0  0  0  0
  9  2  1  0  0  0  0
 10  3  1  0  0  0  0
 15  6  1  0  0  0  0
 17 24  1  0  0  0  0
 17  4  1  0  0  0  0
 18 17  1  0  0  0  0
 19 18  2  0  0  0  0
 19 21  1  0  0  0  0
 20 19  1  0  0  0  0
 21 23  1  0  0  0  0
 22 21  2  0  0  0  0
 23 26  1  0  0  0  0
 23 24  1  0  0  0  0
 24 25  2  0  0  0  0
 27 32  1  0  0  0  0
 27 33  1  0  0  0  0
 28 27  2  0  0  0  0
 29 30  2  0  0  0  0
 29 28  1  0  0  0  0
 30 31  1  0  0  0  0
 31 35  1  0  0  0  0
 31 32  2  0  0  0  0
 34 29  1  0  0  0  0
M  END
>  <minimizedAffinity>
-5.11332798

$$$$

 OpenBabel03272506523D

 35 37  0  0  1  0  0  0  0  0999 V2000
   36.9020   26.7660   33.9370 C   0  0  1  0  0  0  0  0  0  0  0  0
   37.4480   25.6330   33.1820 C   0  0  0  0  0  0  0  0  0  0  0  0
   38.9340   25.4990   33.1630 C   0  0  0  0  0  0  0  0  0  0  0  0
   39.6390   25.8050   34.4110 C   0  0  1  0  0  0  0  0  0  0  0  0
   39.0960   26.9580   35.1780 C   0  0  0  0  0  0  0  0  0  0  0  0
   37.6010   26.9940   35.2370 C   0  0  0  0  0  0  0  0  0  0  0  0
   35.8400   26.4850   34.2460 H   0  0  0  0  0  0  0  0  0  0  0  0
   37.0970   25.4910   32.1670 H   0  0  0  0  0  0  0  0  0  0  0  0
   37.0650   24.7020   33.7120 H   0  0  0  0  0  0  0  0  0  0  0  0
   39.2120   24.5120   32.7570 H   0  0  0  0  0  0  0  0  0  0  0  0
   39.2820   26.2130   32.3750 H   0  0  0  0  0  0  0  0  0  0  0  0
   40.6780   26.1570   34.0900 H   0  0  0  0  0  0  0  0  0  0  0  0
   39.4590   27.0440   36.1950 H   0  0  0  0  0  0  0  0  0  0  0  0
   39.4110   27.9140   34.6670 H   0  0  0  0  0  0  0  0  0  0  0  0
   37.3200   26.1120   35.9020 H   0  0  0  0  0  0  0  0  0  0  0  0
   37.2980   27.8590   35.8140 H   0  0  0  0  0  0  0  0  0  0  0  0
   39.9270   24.7260   35.3080 N   0  0  0  0  0  0  0  0  0  0  0  0
   39.1320   24.1060   36.1590 C   0  0  0  0  0  3  0  0  0  0  0  0
   39.4730   23.0770   36.9900 C   0  0  0  0  0  0  0  0  0  0  0  0
   38.7700   22.6160   37.6630 H   0  0  0  0  0  0  0  0  0  0  0  0
   40.7890   22.6150   36.9550 C   0  0  0  0  0  0  0  0  0  0  0  0
   41.1440   21.6710   37.7010 O   0  0  0  0  0  0  0  0  0  0  0  0
   41.6160   23.2510   36.0760 N   0  0  0  0  0  0  0  0  0  0  0  0
   41.2100   24.2590   35.2890 C   0  0  0  0  0  0  0  0  0  0  0  0
   42.1730   24.6770   34.5640 O   0  0  0  0  0  0  0  0  0  0  0  0
   42.5800   22.8460   36.1120 H   0  0  0  0  0  0  0  0  0  0  0  0
   37.2310   28.2170   31.8860 C   0  0  0  0  0  0  0  0  0  0  0  0
   36.6850   28.0170   33.1660 C   0  0  0  0  0  0  0  0  0  0  0  0
   35.9220   29.0430   33.6890 C   0  0  0  0  0  0  0  0  0  0  0  0
   35.7350   30.1760   32.9680 N   0  0  0  0  0  0  0  0  0  0  0  0
   36.2820   30.3300   31.7350 C   0  0  0  0  0  0  0  0  0  0  0  0
   37.0330   29.3370   31.2000 N   0  0  0  0  0  0  0  0  0  0  0  0
   37.8380   27.4820   31.3870 H   0  0  0  0  0  0  0  0  0  0  0  0
   35.4290   29.0600   34.6440 H   0  0  0  0  0  0  0  0  0  0  0  0
   36.0800   31.2730   31.2260 H   0  0  0  0  0  0  0  0  0  0  0  0
  1  7  1  1  0  0  0
  1  6  1  0  0  0  0
  2  9  1  0  0  0  0
  2  1  1  0  0  0  0
  3  2  1  0  0  0  0
  3  4  1  0  0  0  0
  4 12  1  6  0  0  0
  4  5  1  0  0  0  0
  4 17  1  0  0  0  0
  5  6  1  0  0  0  0
  5 13  1  0  0  0  0
  6 16  1  0  0  0  0
  6 15  1  0  0  0  0
  8  2  1  0  0  0  0
 10  3  1  0  0  0  0
 11  3  1  0  0  0  0
 14  5  1  0  0  0  0
 17 18  1  0  0  0  0
 18 19  2  0  0  0  0
 19 20  1  0  0  0  0
 21 19  1  0  0  0  0
 21 22  2  0  0  0  0
 23 26  1  0  0  0  0
 23 21  1  0  0  0  0
 24 17  1  0  0  0  0
 24 23  1  0  0  0  0
 25 24  2  0  0  0  0
 27 28  1  0  0  0  0
 28 29  2  0  0  0  0
 28  1  1  0  0  0  0
 29 34  1  0  0  0  0
 30 29  1  0  0  0  0
 31 30  2  0  0  0  0
 32 31  1  0  0  0  0
 32 27  2  0  0  0  0
 33 27  1  0  0  0  0
 35 31  1  0  0  0  0
M  END
>  <minimizedAffinity>
-5.0074892

$$$$

 OpenBabel03272506523D

 35 37  0  0  1  0  0  0  0  0999 V2000
   37.9990   25.4510   35.3000 C   0  0  1  0  0  0  0  0  0  0  0  0
   38.5110   26.8260   35.3290 C   0  0  0  0  0  0  0  0  0  0  0  0
   39.5790   27.1590   34.3430 C   0  0  0  0  0  0  0  0  0  0  0  0
   39.4440   26.5810   33.0030 C   0  0  1  0  0  0  0  0  0  0  0  0
   38.9340   25.1850   32.9660 C   0  0  0  0  0  0  0  0  0  0  0  0
   37.8050   24.9280   33.9140 C   0  0  0  0  0  0  0  0  0  0  0  0
   36.9430   25.4740   35.7310 H   0  0  0  0  0  0  0  0  0  0  0  0
   38.8170   27.2250   36.2880 H   0  0  0  0  0  0  0  0  0  0  0  0
   37.6250   27.4850   35.0540 H   0  0  0  0  0  0  0  0  0  0  0  0
   39.7280   28.2520   34.3140 H   0  0  0  0  0  0  0  0  0  0  0  0
   40.5270   26.7790   34.7990 H   0  0  0  0  0  0  0  0  0  0  0  0
   40.5120   26.4920   32.6060 H   0  0  0  0  0  0  0  0  0  0  0  0
   38.6170   24.8370   31.9900 H   0  0  0  0  0  0  0  0  0  0  0  0
   39.7650   24.4870   33.2750 H   0  0  0  0  0  0  0  0  0  0  0  0
   36.9280   25.5140   33.4790 H   0  0  0  0  0  0  0  0  0  0  0  0
   37.4980   23.8940   33.8160 H   0  0  0  0  0  0  0  0  0  0  0  0
   38.7890   27.3580   31.9940 N   0  0  0  0  0  0  0  0  0  0  0  0
   37.5960   27.9210   32.0090 C   0  0  0  0  0  3  0  0  0  0  0  0
   37.0280   28.6540   31.0060 C   0  0  0  0  0  0  0  0  0  0  0  0
   36.0460   29.0870   31.0870 H   0  0  0  0  0  0  0  0  0  0  0  0
   37.7630   28.8410   29.8350 C   0  0  0  0  0  0  0  0  0  0  0  0
   37.2800   29.5080   28.8890 O   0  0  0  0  0  0  0  0  0  0  0  0
   38.9980   28.2620   29.8130 N   0  0  0  0  0  0  0  0  0  0  0  0
   39.4920   27.5530   30.8400 C   0  0  0  0  0  0  0  0  0  0  0  0
   40.6600   27.1210   30.5650 O   0  0  0  0  0  0  0  0  0  0  0  0
   39.4810   28.4490   28.9040 H   0  0  0  0  0  0  0  0  0  0  0  0
   38.1830   24.1500   37.4670 C   0  0  0  0  0  0  0  0  0  0  0  0
   38.6830   24.4820   36.1950 C   0  0  0  0  0  0  0  0  0  0  0  0
   39.8520   23.8610   35.8000 C   0  0  0  0  0  0  0  0  0  0  0  0
   40.4590   22.9800   36.6320 N   0  0  0  0  0  0  0  0  0  0  0  0
   39.9430   22.6870   37.8530 C   0  0  0  0  0  0  0  0  0  0  0  0
   38.7960   23.2820   38.2620 N   0  0  0  0  0  0  0  0  0  0  0  0
   37.2800   24.5740   37.8700 H   0  0  0  0  0  0  0  0  0  0  0  0
   40.3700   23.9920   34.8670 H   0  0  0  0  0  0  0  0  0  0  0  0
   40.4960   21.9660   38.4560 H   0  0  0  0  0  0  0  0  0  0  0  0
  1  2  1  0  0  0  0
  1  7  1  1  0  0  0
  1 28  1  0  0  0  0
  2  8  1  0  0  0  0
  3 11  1  0  0  0  0
  3  2  1  0  0  0  0
  4 12  1  6  0  0  0
  4  3  1  0  0  0  0
  5  4  1  0  0  0  0
  5 14  1  0  0  0  0
  5  6  1  0  0  0  0
  6  1  1  0  0  0  0
  9  2  1  0  0  0  0
 10  3  1  0  0  0  0
 13  5  1  0  0  0  0
 15  6  1  0  0  0  0
 16  6  1  0  0  0  0
 17 18  1  0  0  0  0
 17  4  1  0  0  0  0
 19 20  1  0  0  0  0
 19 18  2  0  0  0  0
 21 19  1  0  0  0  0
 22 21  2  0  0  0  0
 23 21  1  0  0  0  0
 23 24  1  0  0  0  0
 24 17  1  0  0  0  0
 25 24  2  0  0  0  0
 26 23  1  0  0  0  0
 27 33  1  0  0  0  0
 27 32  1  0  0  0  0
 28 27  2  0  0  0  0
 29 28  1  0  0  0  0
 29 30  2  0  0  0  0
 30 31  1  0  0  0  0
 31 32  2  0  0  0  0
 31 35  1  0  0  0  0
 34 29  1  0  0  0  0
M  END
>  <minimizedAffinity>
-4.92573118

$$$$

 OpenBabel03272506523D

 35 37  0  0  1  0  0  0  0  0999 V2000
   34.4240   30.7850   34.3200 C   0  0  1  0  0  0  0  0  0  0  0  0
   35.7750   30.2260   34.4440 C   0  0  0  0  0  0  0  0  0  0  0  0
   36.0040   28.8930   33.8150 C   0  0  0  0  0  0  0  0  0  0  0  0
   35.3550   28.6540   32.5230 C   0  0  1  0  0  0  0  0  0  0  0  0
   33.9820   29.2100   32.3930 C   0  0  0  0  0  0  0  0  0  0  0  0
   33.8310   30.5850   32.9640 C   0  0  0  0  0  0  0  0  0  0  0  0
   34.5180   31.9190   34.4090 H   0  0  0  0  0  0  0  0  0  0  0  0
   36.2160   30.1980   35.4330 H   0  0  0  0  0  0  0  0  0  0  0  0
   36.4550   30.9470   33.8860 H   0  0  0  0  0  0  0  0  0  0  0  0
   37.0850   28.6780   33.7860 H   0  0  0  0  0  0  0  0  0  0  0  0
   35.6100   28.1500   34.5530 H   0  0  0  0  0  0  0  0  0  0  0  0
   35.1960   27.5230   32.4720 H   0  0  0  0  0  0  0  0  0  0  0  0
   33.5930   29.2400   31.3810 H   0  0  0  0  0  0  0  0  0  0  0  0
   33.2680   28.5530   32.9680 H   0  0  0  0  0  0  0  0  0  0  0  0
   34.4270   31.2550   32.2590 H   0  0  0  0  0  0  0  0  0  0  0  0
   32.8070   30.9090   32.8210 H   0  0  0  0  0  0  0  0  0  0  0  0
   36.0990   28.9280   31.3310 N   0  0  0  0  0  0  0  0  0  0  0  0
   36.5960   30.0700   30.8940 C   0  0  0  0  0  3  0  0  0  0  0  0
   37.3020   30.2640   29.7410 C   0  0  0  0  0  0  0  0  0  0  0  0
   37.6790   31.2270   29.4450 H   0  0  0  0  0  0  0  0  0  0  0  0
   37.5340   29.1580   28.9220 C   0  0  0  0  0  0  0  0  0  0  0  0
   38.1780   29.2910   27.8530 O   0  0  0  0  0  0  0  0  0  0  0  0
   37.0240   27.9740   29.3680 N   0  0  0  0  0  0  0  0  0  0  0  0
   36.3380   27.8590   30.5150 C   0  0  0  0  0  0  0  0  0  0  0  0
   35.9730   26.6510   30.7000 O   0  0  0  0  0  0  0  0  0  0  0  0
   37.2410   27.1990   28.6990 H   0  0  0  0  0  0  0  0  0  0  0  0
   32.6500   29.3260   35.3880 C   0  0  0  0  0  0  0  0  0  0  0  0
   33.4810   30.4600   35.4200 C   0  0  0  0  0  0  0  0  0  0  0  0
   33.3890   31.2730   36.5340 C   0  0  0  0  0  0  0  0  0  0  0  0
   32.5220   30.9560   37.5260 N   0  0  0  0  0  0  0  0  0  0  0  0
   31.7360   29.8510   37.4560 C   0  0  0  0  0  0  0  0  0  0  0  0
   31.8100   29.0370   36.3750 N   0  0  0  0  0  0  0  0  0  0  0  0
   32.6440   28.6270   34.5700 H   0  0  0  0  0  0  0  0  0  0  0  0
   33.9470   32.1710   36.7260 H   0  0  0  0  0  0  0  0  0  0  0  0
   31.0690   29.6730   38.3000 H   0  0  0  0  0  0  0  0  0  0  0  0
  1  7  1  1  0  0  0
  1  2  1  0  0  0  0
  1 28  1  0  0  0  0
  2  8  1  0  0  0  0
  3  2  1  0  0  0  0
  3 11  1  0  0  0  0
  4 12  1  6  0  0  0
  4  3  1  0  0  0  0
  5  4  1  0  0  0  0
  5  6  1  0  0  0  0
  5 14  1  0  0  0  0
  6  1  1  0  0  0  0
  9  2  1  0  0  0  0
 10  3  1  0  0  0  0
 13  5  1  0  0  0  0
 15  6  1  0  0  0  0
 16  6  1  0  0  0  0
 17  4  1  0  0  0  0
 18 17  1  0  0  0  0
 19 18  2  0  0  0  0
 20 19  1  0  0  0  0
 21 23  1  0  0  0  0
 21 19  1  0  0  0  0
 22 21  2  0  0  0  0
 23 24  1  0  0  0  0
 24 25  2  0  0  0  0
 24 17  1  0  0  0  0
 26 23  1  0  0  0  0
 27 28  2  0  0  0  0
 27 32  1  0  0  0  0
 28 29  1  0  0  0  0
 29 34  1  0  0  0  0
 29 30  2  0  0  0  0
 31 30  1  0  0  0  0
 31 35  1  0  0  0  0
 32 31  2  0  0  0  0
 33 27  1  0  0  0  0
M  END
>  <minimizedAffinity>
-4.89660692

$$$$

 OpenBabel03272506523D

 35 37  0  0  1  0  0  0  0  0999 V2000
   38.6790   25.5730   33.9690 C   0  0  1  0  0  0  0  0  0  0  0  0
   38.0740   25.1170   32.7130 C   0  0  0  0  0  0  0  0  0  0  0  0
   36.7440   25.6970   32.3650 C   0  0  0  0  0  0  0  0  0  0  0  0
   36.5460   27.1180   32.6640 C   0  0  1  0  0  0  0  0  0  0  0  0
   37.1500   27.5860   33.9400 C   0  0  0  0  0  0  0  0  0  0  0  0
   38.5190   27.0410   34.1960 C   0  0  0  0  0  0  0  0  0  0  0  0
   39.8070   25.4360   33.8700 H   0  0  0  0  0  0  0  0  0  0  0  0
   38.0160   24.0480   32.5440 H   0  0  0  0  0  0  0  0  0  0  0  0
   38.7810   25.4630   31.8920 H   0  0  0  0  0  0  0  0  0  0  0  0
   36.4940   25.4510   31.3190 H   0  0  0  0  0  0  0  0  0  0  0  0
   36.0020   25.1040   32.9570 H   0  0  0  0  0  0  0  0  0  0  0  0
   35.4220   27.2350   32.8350 H   0  0  0  0  0  0  0  0  0  0  0  0
   37.2070   28.6620   34.0530 H   0  0  0  0  0  0  0  0  0  0  0  0
   36.5070   27.2300   34.7970 H   0  0  0  0  0  0  0  0  0  0  0  0
   39.1800   27.5510   33.4200 H   0  0  0  0  0  0  0  0  0  0  0  0
   38.8780   27.4350   35.1390 H   0  0  0  0  0  0  0  0  0  0  0  0
   36.8150   28.0710   31.6290 N   0  0  0  0  0  0  0  0  0  0  0  0
   37.8590   28.1700   30.8280 C   0  0  0  0  0  3  0  0  0  0  0  0
   38.0530   29.1090   29.8550 C   0  0  0  0  0  0  0  0  0  0  0  0
   38.9340   29.1300   29.2350 H   0  0  0  0  0  0  0  0  0  0  0  0
   37.0630   30.0730   29.6680 C   0  0  0  0  0  0  0  0  0  0  0  0
   37.2000   30.9540   28.7850 O   0  0  0  0  0  0  0  0  0  0  0  0
   35.9800   29.9760   30.4920 N   0  0  0  0  0  0  0  0  0  0  0  0
   35.8570   29.0240   31.4300 C   0  0  0  0  0  0  0  0  0  0  0  0
   34.7570   29.1560   32.0610 O   0  0  0  0  0  0  0  0  0  0  0  0
   35.2870   30.7330   30.2880 H   0  0  0  0  0  0  0  0  0  0  0  0
   38.2650   25.3290   36.4570 C   0  0  0  0  0  0  0  0  0  0  0  0
   38.3670   24.7620   35.1740 C   0  0  0  0  0  0  0  0  0  0  0  0
   38.1590   23.4000   35.0730 C   0  0  0  0  0  0  0  0  0  0  0  0
   37.8750   22.6800   36.1850 N   0  0  0  0  0  0  0  0  0  0  0  0
   37.7860   23.2660   37.4060 C   0  0  0  0  0  0  0  0  0  0  0  0
   37.9840   24.6010   37.5310 N   0  0  0  0  0  0  0  0  0  0  0  0
   38.4060   26.3790   36.6460 H   0  0  0  0  0  0  0  0  0  0  0  0
   38.1940   22.8060   34.1780 H   0  0  0  0  0  0  0  0  0  0  0  0
   37.5520   22.6110   38.2460 H   0  0  0  0  0  0  0  0  0  0  0  0
  1  7  1  6  0  0  0
  1  6  1  0  0  0  0
  1 28  1  0  0  0  0
  2  1  1  0  0  0  0
  3  4  1  0  0  0  0
  3  2  1  0  0  0  0
  3 11  1  0  0  0  0
  4 12  1  1  0  0  0
  4  5  1  0  0  0  0
  5 13  1  0  0  0  0
  5  6  1  0  0  0  0
  5 14  1  0  0  0  0
  6 16  1  0  0  0  0
  8  2  1  0  0  0  0
  9  2  1  0  0  0  0
 10  3  1  0  0  0  0
 15  6  1  0  0  0  0
 17  4  1  0  0  0  0
 18 17  1  0  0  0  0
 19 18  2  0  0  0  0
 20 19  1  0  0  0  0
 21 19  1  0  0  0  0
 21 23  1  0  0  0  0
 22 21  2  0  0  0  0
 23 24  1  0  0  0  0
 24 17  1  0  0  0  0
 24 25  2  0  0  0  0
 26 23  1  0  0  0  0
 27 33  1  0  0  0  0
 27 32  1  0  0  0  0
 28 27  2  0  0  0  0
 29 28  1  0  0  0  0
 29 30  2  0  0  0  0
 30 31  1  0  0  0  0
 31 32  2  0  0  0  0
 31 35  1  0  0  0  0
 34 29  1  0  0  0  0
M  END
>  <minimizedAffinity>
-4.89442968

$$$$

 OpenBabel03272506523D

 35 37  0  0  1  0  0  0  0  0999 V2000
   38.5000   26.4010   35.3090 C   0  0  1  0  0  0  0  0  0  0  0  0
   39.5020   27.1120   34.5090 C   0  0  0  0  0  0  0  0  0  0  0  0
   39.4590   26.8870   33.0350 C   0  0  0  0  0  0  0  0  0  0  0  0
   38.1320   26.7980   32.4200 C   0  0  1  0  0  0  0  0  0  0  0  0
   37.1120   26.0710   33.2220 C   0  0  0  0  0  0  0  0  0  0  0  0
   37.1440   26.3990   34.6810 C   0  0  0  0  0  0  0  0  0  0  0  0
   38.3510   26.9960   36.2710 H   0  0  0  0  0  0  0  0  0  0  0  0
   40.5380   27.0340   34.8190 H   0  0  0  0  0  0  0  0  0  0  0  0
   39.2790   28.2180   34.6550 H   0  0  0  0  0  0  0  0  0  0  0  0
   40.1050   27.6240   32.5280 H   0  0  0  0  0  0  0  0  0  0  0  0
   39.9920   25.9170   32.8710 H   0  0  0  0  0  0  0  0  0  0  0  0
   38.2720   26.1380   31.4970 H   0  0  0  0  0  0  0  0  0  0  0  0
   36.0890   26.1980   32.8880 H   0  0  0  0  0  0  0  0  0  0  0  0
   37.3140   24.9630   33.1470 H   0  0  0  0  0  0  0  0  0  0  0  0
   36.7710   27.4750   34.7400 H   0  0  0  0  0  0  0  0  0  0  0  0
   36.3700   25.8310   35.1820 H   0  0  0  0  0  0  0  0  0  0  0  0
   37.5540   27.9910   31.8790 N   0  0  0  0  0  0  0  0  0  0  0  0
   36.6910   28.8280   32.4210 C   0  0  0  0  0  3  0  0  0  0  0  0
   36.1790   29.9570   31.8470 C   0  0  0  0  0  0  0  0  0  0  0  0
   35.4750   30.5970   32.3500 H   0  0  0  0  0  0  0  0  0  0  0  0
   36.5930   30.2790   30.5540 C   0  0  0  0  0  0  0  0  0  0  0  0
   36.1470   31.3070   29.9890 O   0  0  0  0  0  0  0  0  0  0  0  0
   37.4860   29.4180   29.9870 N   0  0  0  0  0  0  0  0  0  0  0  0
   37.9480   28.3250   30.6140 C   0  0  0  0  0  0  0  0  0  0  0  0
   38.7670   27.6930   29.8680 O   0  0  0  0  0  0  0  0  0  0  0  0
   37.7440   29.7310   29.0230 H   0  0  0  0  0  0  0  0  0  0  0  0
   40.0700   24.4130   35.3870 C   0  0  0  0  0  0  0  0  0  0  0  0
   38.9030   25.0660   35.8230 C   0  0  0  0  0  0  0  0  0  0  0  0
   38.1340   24.4130   36.7660 C   0  0  0  0  0  0  0  0  0  0  0  0
   38.5210   23.1970   37.2220 N   0  0  0  0  0  0  0  0  0  0  0  0
   39.6550   22.6000   36.7740 C   0  0  0  0  0  0  0  0  0  0  0  0
   40.4270   23.2220   35.8510 N   0  0  0  0  0  0  0  0  0  0  0  0
   40.7390   24.8350   34.6580 H   0  0  0  0  0  0  0  0  0  0  0  0
   37.2200   24.7630   37.2100 H   0  0  0  0  0  0  0  0  0  0  0  0
   39.8910   21.6220   37.1960 H   0  0  0  0  0  0  0  0  0  0  0  0
  1 28  1  0  0  0  0
  1  7  1  1  0  0  0
  2  9  1  0  0  0  0
  2  8  1  0  0  0  0
  2  1  1  0  0  0  0
  3  2  1  0  0  0  0
  4 12  1  6  0  0  0
  4  3  1  0  0  0  0
  4  5  1  0  0  0  0
  5  6  1  0  0  0  0
  6 15  1  0  0  0  0
  6 16  1  0  0  0  0
  6  1  1  0  0  0  0
 10  3  1  0  0  0  0
 11  3  1  0  0  0  0
 13  5  1  0  0  0  0
 14  5  1  0  0  0  0
 17  4  1  0  0  0  0
 17 18  1  0  0  0  0
 19 20  1  0  0  0  0
 19 18  2  0  0  0  0
 21 19  1  0  0  0  0
 22 21  2  0  0  0  0
 23 21  1  0  0  0  0
 23 24  1  0  0  0  0
 24 17  1  0  0  0  0
 25 24  2  0  0  0  0
 26 23  1  0  0  0  0
 27 28  2  0  0  0  0
 27 32  1  0  0  0  0
 28 29  1  0  0  0  0
 29 34  1  0  0  0  0
 29 30  2  0  0  0  0
 31 35  1  0  0  0  0
 31 30  1  0  0  0  0
 32 31  2  0  0  0  0
 33 27  1  0  0  0  0
M  END
>  <minimizedAffinity>
-4.86912823

$$$$
