
 OpenBabel03272508253D

 26 28  0  0  1  0  0  0  0  0999 V2000
   35.6790   30.4980   49.0300 C   0  0  1  0  0  0  0  0  0  0  0  0
   35.2750   29.3920   48.1720 C   0  0  1  0  0  0  0  0  0  0  0  0
   36.0410   29.0730   49.4300 C   0  0  0  0  0  0  0  0  0  0  0  0
   35.0230   31.0490   49.7520 H   0  0  0  0  0  0  0  0  0  0  0  0
   35.9130   29.2710   47.2460 H   0  0  0  0  0  0  0  0  0  0  0  0
   37.1030   28.7560   49.3690 H   0  0  0  0  0  0  0  0  0  0  0  0
   35.4470   28.6060   50.2370 H   0  0  0  0  0  0  0  0  0  0  0  0
   33.9230   28.9680   47.9960 N   0  0  0  0  0  0  0  0  0  0  0  0
   33.3340   28.0350   48.7990 C   0  0  0  0  0  3  0  0  0  0  0  0
   32.0430   27.6000   48.6670 C   0  0  0  0  0  0  0  0  0  0  0  0
   31.6670   26.8460   49.3680 H   0  0  0  0  0  0  0  0  0  0  0  0
   31.2840   28.1440   47.6460 C   0  0  0  0  0  0  0  0  0  0  0  0
   30.0940   27.7640   47.4990 O   0  0  0  0  0  0  0  0  0  0  0  0
   31.8520   29.0790   46.8290 N   0  0  0  0  0  0  0  0  0  0  0  0
   33.1360   29.4600   47.0220 C   0  0  0  0  0  0  0  0  0  0  0  0
   33.5470   30.3110   46.2250 O   0  0  0  0  0  0  0  0  0  0  0  0
   31.2200   29.4270   46.1010 H   0  0  0  0  0  0  0  0  0  0  0  0
   36.8880   31.3390   48.7010 C   0  0  0  0  0  0  0  0  0  0  0  0
   37.3430   32.2160   49.7020 C   0  0  0  0  0  0  0  0  0  0  0  0
   38.4370   33.0010   49.3820 C   0  0  0  0  0  0  0  0  0  0  0  0
   39.0070   32.8920   48.1520 N   0  0  0  0  0  0  0  0  0  0  0  0
   38.5400   32.0270   47.1980 C   0  0  0  0  0  0  0  0  0  0  0  0
   37.4620   31.2490   47.5020 N   0  0  0  0  0  0  0  0  0  0  0  0
   36.8930   32.3070   50.6800 H   0  0  0  0  0  0  0  0  0  0  0  0
   38.8740   33.7150   50.0830 H   0  0  0  0  0  0  0  0  0  0  0  0
   39.0350   31.9850   46.2390 H   0  0  0  0  0  0  0  0  0  0  0  0
  1  3  1  0  0  0  0
  1  4  1  1  0  0  0
  2  5  1  6  0  0  0
  2  1  1  0  0  0  0
  2  3  1  0  0  0  0
  3  7  1  0  0  0  0
  6  3  1  0  0  0  0
  8  2  1  0  0  0  0
  8  9  1  0  0  0  0
 10  9  2  0  0  0  0
 10 11  1  0  0  0  0
 12 10  1  0  0  0  0
 13 12  2  0  0  0  0
 14 15  1  0  0  0  0
 14 12  1  0  0  0  0
 15  8  1  0  0  0  0
 16 15  2  0  0  0  0
 17 14  1  0  0  0  0
 18  1  1  0  0  0  0
 18 19  1  0  0  0  0
 19 24  1  0  0  0  0
 20 19  2  0  0  0  0
 20 25  1  0  0  0  0
 21 20  1  0  0  0  0
 22 23  1  0  0  0  0
 22 21  2  0  0  0  0
 23 18  2  0  0  0  0
 26 22  1  0  0  0  0
M  END
>  <minimizedAffinity>
-5.19907808

>  <minimizedRMSD>
2.4812479

$$$$
