
 OpenBabel03272508473D

 41 45  0  0  0  0  0  0  0  0999 V2000
   35.5350   29.5550   49.6540 C   0  0  0  0  0  0  0  0  0  0  0  0
   36.5840   29.1400   50.4470 C   0  0  0  0  0  0  0  0  0  0  0  0
   37.7020   29.6900   49.8300 C   0  0  0  0  0  0  0  0  0  0  0  0
   37.3000   30.3920   48.7250 C   0  0  0  0  0  0  0  0  0  0  0  0
   35.9800   30.2930   48.6430 O   0  0  0  0  0  0  0  0  0  0  0  0
   36.5940   28.5350   51.3400 H   0  0  0  0  0  0  0  0  0  0  0  0
   38.7290   29.6170   50.1160 H   0  0  0  0  0  0  0  0  0  0  0  0
   38.6490   32.3590   48.1540 C   0  0  0  0  0  0  0  0  0  0  0  0
   38.1460   31.1260   47.7890 C   0  0  0  0  0  0  0  0  0  0  0  0
   38.4220   30.5580   46.5460 C   0  0  0  0  0  0  0  0  0  0  0  0
   39.2210   31.2350   45.6410 C   0  0  0  0  0  0  0  0  0  0  0  0
   39.6660   30.9700   44.3930 N   0  0  0  0  0  0  0  0  0  0  0  0
   40.4140   32.0100   44.0150 N   0  0  0  0  0  0  0  0  0  0  0  0
   40.4550   32.9260   44.9900 C   0  0  0  0  0  0  0  0  0  0  0  0
   39.7000   32.4620   46.0530 C   0  0  0  0  0  0  0  0  0  0  0  0
   39.4600   33.0670   47.2570 C   0  0  0  0  0  0  0  0  0  0  0  0
   38.4420   32.8080   49.1120 H   0  0  0  0  0  0  0  0  0  0  0  0
   38.0230   29.5790   46.2580 H   0  0  0  0  0  0  0  0  0  0  0  0
   39.4220   30.0780   43.8770 H   0  0  0  0  0  0  0  0  0  0  0  0
   41.0140   33.8450   44.8750 H   0  0  0  0  0  0  0  0  0  0  0  0
   39.8690   34.0350   47.5140 H   0  0  0  0  0  0  0  0  0  0  0  0
   34.1300   29.2240   49.8980 C   0  0  0  0  0  0  0  0  0  0  0  0
   33.5590   29.7730   50.8610 O   0  0  0  0  0  0  0  0  0  0  0  0
   31.4580   27.2160   48.4390 C   0  0  0  0  0  0  0  0  0  0  0  0
   32.0980   26.5170   47.4280 C   0  0  0  0  0  0  0  0  0  0  0  0
   33.4440   26.7230   47.2330 C   0  0  0  0  0  0  0  0  0  0  0  0
   34.0850   27.6010   48.0400 N   0  0  0  0  0  0  0  0  0  0  0  0
   33.4480   28.2750   49.0230 C   0  0  0  0  0  0  0  0  0  0  0  0
   32.1340   28.0770   49.2150 N   0  0  0  0  0  0  0  0  0  0  0  0
   30.3920   27.0510   48.5910 H   0  0  0  0  0  0  0  0  0  0  0  0
   31.5160   25.8260   46.8170 H   0  0  0  0  0  0  0  0  0  0  0  0
   34.1070   26.0080   46.1960 N   0  0  0  0  0  0  0  0  0  0  0  0
   34.5670   24.7530   46.3920 C   0  0  0  0  0  3  0  0  0  0  0  0
   35.2190   24.0510   45.3710 C   0  0  0  0  0  0  0  0  0  0  0  0
   35.5880   23.0450   45.5300 H   0  0  0  0  0  0  0  0  0  0  0  0
   35.3590   24.7190   44.1660 C   0  0  0  0  0  0  0  0  0  0  0  0
   35.9470   24.1190   43.2040 O   0  0  0  0  0  0  0  0  0  0  0  0
   34.8820   25.9880   44.0010 N   0  0  0  0  0  0  0  0  0  0  0  0
   34.2620   26.6250   45.0090 C   0  0  0  0  0  0  0  0  0  0  0  0
   33.8660   27.7870   44.7390 O   0  0  0  0  0  0  0  0  0  0  0  0
   35.0270   26.4340   43.0480 H   0  0  0  0  0  0  0  0  0  0  0  0
  1 22  1  0  0  0  0
  1  2  2  0  0  0  0
  2  6  1  0  0  0  0
  3  7  1  0  0  0  0
  3  2  1  0  0  0  0
  4  3  2  0  0  0  0
  5  4  1  0  0  0  0
  5  1  1  0  0  0  0
  8 17  1  0  0  0  0
  9  8  1  0  0  0  0
  9  4  1  0  0  0  0
 10  9  2  0  0  0  0
 11 15  2  0  0  0  0
 11 10  1  0  0  0  0
 12 11  1  0  0  0  0
 13 12  1  0  0  0  0
 13 14  2  0  0  0  0
 14 15  1  0  0  0  0
 15 16  1  0  0  0  0
 16 21  1  0  0  0  0
 16  8  2  0  0  0  0
 18 10  1  0  0  0  0
 19 12  1  0  0  0  0
 20 14  1  0  0  0  0
 22 23  2  0  0  0  0
 24 30  1  0  0  0  0
 24 29  1  0  0  0  0
 25 24  2  0  0  0  0
 26 25  1  0  0  0  0
 26 27  2  0  0  0  0
 27 28  1  0  0  0  0
 28 29  2  0  0  0  0
 28 22  1  0  0  0  0
 31 25  1  0  0  0  0
 32 33  1  0  0  0  0
 32 26  1  0  0  0  0
 34 35  1  0  0  0  0
 34 33  2  0  0  0  0
 36 34  1  0  0  0  0
 37 36  2  0  0  0  0
 38 36  1  0  0  0  0
 38 39  1  0  0  0  0
 39 32  1  0  0  0  0
 40 39  2  0  0  0  0
 41 38  1  0  0  0  0
M  END
>  <minimizedAffinity>
-6.68393278

>  <minimizedRMSD>
0.864413977

$$$$
