
     RDKit          3D

 32 34  0  0  0  0  0  0  0  0999 V2000
   36.7616   30.7711   50.7138 C   0  0  1  0  0  0  0  0  0  0  0  0
   36.0251   29.5171   50.8578 C   0  0  2  0  0  0  0  0  0  0  0  0
   37.4736   29.5101   51.2488 C   0  0  0  0  0  0  0  0  0  0  0  0
   37.3259   31.2151   49.4009 C   0  0  0  0  0  0  0  0  0  0  0  0
   38.3162   32.1763   49.4748 C   0  0  0  0  0  0  0  0  0  0  0  0
   38.8043   32.6035   48.2137 C   0  0  0  0  0  0  0  0  0  0  0  0
   38.3023   32.0756   47.0476 N   0  0  0  0  0  0  0  0  0  0  0  0
   37.3330   31.1367   47.0540 C   0  0  0  0  0  0  0  0  0  0  0  0
   36.8373   30.6997   48.2526 N   0  0  0  0  0  0  0  0  0  0  0  0
   35.6471   28.8721   49.6877 O   0  0  0  0  0  0  0  0  0  0  0  0
   34.4384   28.3947   49.3056 C   0  0  0  0  0  0  0  0  0  0  0  0
   34.3183   27.3912   48.5712 O   0  0  0  0  0  0  0  0  0  0  0  0
   33.4538   29.2079   49.8677 N   0  0  0  0  0  0  0  0  0  0  0  0
   36.6639   31.5905   51.4582 H   0  0  0  0  0  0  0  0  0  0  0  0
   35.2080   29.5859   51.6368 H   0  0  0  0  0  0  0  0  0  0  0  0
   38.1895   28.9882   50.5842 H   0  0  0  0  0  0  0  0  0  0  0  0
   37.6404   29.5104   52.3348 H   0  0  0  0  0  0  0  0  0  0  0  0
   38.7047   32.5852   50.3953 H   0  0  0  0  0  0  0  0  0  0  0  0
   39.5852   33.3584   48.1802 H   0  0  0  0  0  0  0  0  0  0  0  0
   32.6234   29.8454   49.8683 H   0  0  0  0  0  0  0  0  0  0  0  0
   33.3063   29.4254   50.8924 H   0  0  0  0  0  0  0  0  0  0  0  0
   36.8735   30.6461   45.7995 N   0  0  0  0  0  0  0  0  0  0  0  0
   35.5911   30.1818   45.7581 C   0  0  0  0  0  0  0  0  0  0  0  0
   35.0740   29.6905   44.5785 C   0  0  0  0  0  0  0  0  0  0  0  0
   34.0736   29.3130   44.4876 H   0  0  0  0  0  0  0  0  0  0  0  0
   35.8424   29.6580   43.4160 C   0  0  0  0  0  0  0  0  0  0  0  0
   35.3723   29.2092   42.3354 O   0  0  0  0  0  0  0  0  0  0  0  0
   37.1092   30.1305   43.5100 N   0  0  0  0  0  0  0  0  0  0  0  0
   37.5980   30.6040   44.6591 C   0  0  0  0  0  0  0  0  0  0  0  0
   38.7815   31.0455   44.7476 O   0  0  0  0  0  0  0  0  0  0  0  0
   34.9165   30.1654   46.6070 H   0  0  0  0  0  0  0  0  0  0  0  0
   37.7052   30.1128   42.6368 H   0  0  0  0  0  0  0  0  0  0  0  0
  1  2  1  0
  1  3  1  0
  2  3  1  0
  4  5  2  0
  4  1  1  0
  6  5  1  0
  7  6  2  0
  8  7  1  0
  8  9  2  0
  9  4  1  0
 10  2  1  0
 11 10  1  0
 11 13  1  0
 12 11  2  0
  1 14  1  1
  2 15  1  1
  3 16  1  0
  3 17  1  0
  5 18  1  0
  6 19  1  0
 13 20  1  0
 13 21  1  0
 22 23  1  0
 23 24  2  0
 24 25  1  0
 24 26  1  0
 26 27  2  0
 26 28  1  0
 28 29  1  0
 29 30  2  0
 29 22  1  0
 23 31  1  0
 28 32  1  0
  8 22  1  0
M  ISO  7  14  13  15  13  16  13  17  13  18  14  19  14  25  16
M  END
>  <DihAtoms>  (1) 
6,7,21,22

>  <DihDeg>  (1) 
87.3076996088418

$$$$
