
 OpenBabel03272501153D

 36 39  0  0  1  0  0  0  0  0999 V2000
   35.2010   29.2570   50.7090 C   0  0  0  0  0  0  0  0  0  0  0  0
   34.6590   30.0520   51.2250 H   0  0  0  0  0  0  0  0  0  0  0  0
   35.2690   28.3870   51.4080 H   0  0  0  0  0  0  0  0  0  0  0  0
   34.3560   28.8090   49.5660 C   0  0  0  0  0  0  0  0  0  0  0  0
   34.7890   28.8370   48.2620 C   0  0  0  0  0  0  0  0  0  0  0  0
   33.8540   28.3890   47.4120 N   0  0  0  0  0  0  0  0  0  0  0  0
   32.8000   28.0710   48.2120 C   0  0  0  0  0  0  0  0  0  0  0  0
   33.1030   28.3230   49.5010 N   0  0  0  0  0  0  0  0  0  0  0  0
   35.7690   29.1760   47.9140 H   0  0  0  0  0  0  0  0  0  0  0  0
   33.9010   28.2970   46.3670 H   0  0  0  0  0  0  0  0  0  0  0  0
   31.5590   27.5460   47.7460 N   0  0  0  0  0  0  0  0  0  0  0  0
   30.5880   27.5800   48.7040 C   0  0  0  0  0  0  0  0  0  0  0  0
   29.3260   27.1180   48.4440 C   0  0  0  0  0  0  0  0  0  0  0  0
   28.5120   27.1260   49.1840 H   0  0  0  0  0  0  0  0  0  0  0  0
   29.0510   26.6160   47.1880 C   0  0  0  0  0  0  0  0  0  0  0  0
   27.9150   26.1800   46.8900 O   0  0  0  0  0  0  0  0  0  0  0  0
   30.0250   26.5970   46.2740 N   0  0  0  0  0  0  0  0  0  0  0  0
   31.2670   27.0510   46.5280 C   0  0  0  0  0  0  0  0  0  0  0  0
   32.2350   27.0660   45.7200 O   0  0  0  0  0  0  0  0  0  0  0  0
   29.8520   26.2210   45.3040 H   0  0  0  0  0  0  0  0  0  0  0  0
   36.8070   31.1500   50.2160 C   0  0  1  0  0  0  0  0  0  0  0  0
   36.5450   29.7470   50.2700 C   0  0  1  0  0  0  0  0  0  0  0  0
   37.5530   30.2860   51.2480 C   0  0  0  0  0  0  0  0  0  0  0  0
   36.1050   31.8930   50.6280 H   0  0  0  0  0  0  0  0  0  0  0  0
   37.0420   29.1230   49.4640 H   0  0  0  0  0  0  0  0  0  0  0  0
   37.1440   30.3940   52.2670 H   0  0  0  0  0  0  0  0  0  0  0  0
   38.6270   30.0990   51.1120 H   0  0  0  0  0  0  0  0  0  0  0  0
   37.7600   31.7410   49.1900 C   0  0  0  0  0  0  0  0  0  0  0  0
   38.2480   33.0020   49.4800 C   0  0  0  0  0  0  0  0  0  0  0  0
   39.1100   33.5360   48.4940 C   0  0  0  0  0  0  0  0  0  0  0  0
   39.4040   32.8370   47.3790 N   0  0  0  0  0  0  0  0  0  0  0  0
   38.8930   31.5930   47.1420 C   0  0  0  0  0  0  0  0  0  0  0  0
   38.0510   31.0330   48.0710 N   0  0  0  0  0  0  0  0  0  0  0  0
   37.9720   33.4980   50.3850 H   0  0  0  0  0  0  0  0  0  0  0  0
   39.5160   34.5030   48.6640 H   0  0  0  0  0  0  0  0  0  0  0  0
   39.1090   31.0090   46.2600 H   0  0  0  0  0  0  0  0  0  0  0  0
  1  2  1  0  0  0  0
  1  3  1  0  0  0  0
  4  1  1  0  0  0  0
  5  4  2  0  0  0  0
  6  7  1  0  0  0  0
  6  5  1  0  0  0  0
  7  8  2  0  0  0  0
  8  4  1  0  0  0  0
  9  5  1  0  0  0  0
 10  6  1  0  0  0  0
 11  7  1  0  0  0  0
 11 12  1  0  0  0  0
 13 12  2  0  0  0  0
 13 14  1  0  0  0  0
 15 13  1  0  0  0  0
 16 15  2  0  0  0  0
 17 18  1  0  0  0  0
 17 15  1  0  0  0  0
 18 11  1  0  0  0  0
 19 18  2  0  0  0  0
 20 17  1  0  0  0  0
 21 22  1  0  0  0  0
 21 24  1  1  0  0  0
 21 23  1  0  0  0  0
 22 25  1  6  0  0  0
 22  1  1  0  0  0  0
 22 23  1  0  0  0  0
 23 26  1  0  0  0  0
 27 23  1  0  0  0  0
 28 29  1  0  0  0  0
 28 21  1  0  0  0  0
 29 34  1  0  0  0  0
 30 35  1  0  0  0  0
 30 29  2  0  0  0  0
 31 30  1  0  0  0  0
 32 31  2  0  0  0  0
 32 33  1  0  0  0  0
 33 28  2  0  0  0  0
 36 32  1  0  0  0  0
M  END
>  <minimizedAffinity>
-6.38809586

>  <minimizedRMSD>
0.888946533

$$$$
