
 OpenBabel03262523493D

 22 23  0  0  0  0  0  0  0  0999 V2000
   36.7850   30.4560   50.8930 C   0  0  0  0  0  0  0  0  0  0  0  0
   36.8370   31.2720   51.6620 H   0  0  0  0  0  0  0  0  0  0  0  0
   35.7120   30.2050   50.8160 H   0  0  0  0  0  0  0  0  0  0  0  0
   37.5460   29.3290   51.3470 N   0  0  0  0  0  0  0  0  0  0  0  0
   37.9440   28.3700   50.4950 C   0  0  0  0  0  3  0  0  0  0  0  0
   38.6690   27.3020   50.9480 C   0  0  0  0  0  0  0  0  0  0  0  0
   39.0430   26.4760   50.3570 H   0  0  0  0  0  0  0  0  0  0  0  0
   38.9660   27.2570   52.2950 C   0  0  0  0  0  0  0  0  0  0  0  0
   39.6330   26.3100   52.8210 O   0  0  0  0  0  0  0  0  0  0  0  0
   38.5760   28.2140   53.1870 N   0  0  0  0  0  0  0  0  0  0  0  0
   37.8620   29.2330   52.6420 C   0  0  0  0  0  0  0  0  0  0  0  0
   37.4790   30.1410   53.4250 O   0  0  0  0  0  0  0  0  0  0  0  0
   38.8130   28.1580   54.2020 H   0  0  0  0  0  0  0  0  0  0  0  0
   37.2410   30.9590   49.5750 C   0  0  0  0  0  0  0  0  0  0  0  0
   38.3010   31.8810   49.5520 C   0  0  0  0  0  0  0  0  0  0  0  0
   38.7240   32.3490   48.3020 C   0  0  0  0  0  0  0  0  0  0  0  0
   38.0960   31.8950   47.1750 N   0  0  0  0  0  0  0  0  0  0  0  0
   37.0810   31.0090   47.2560 C   0  0  0  0  0  0  0  0  0  0  0  0
   36.6530   30.5420   48.4340 N   0  0  0  0  0  0  0  0  0  0  0  0
   38.7890   32.2310   50.4500 H   0  0  0  0  0  0  0  0  0  0  0  0
   39.5360   33.0560   48.2800 H   0  0  0  0  0  0  0  0  0  0  0  0
   36.6260   30.6900   46.3280 H   0  0  0  0  0  0  0  0  0  0  0  0
  1  4  1  0  0  0  0
  1  2  1  0  0  0  0
  3  1  1  0  0  0  0
  4 11  1  0  0  0  0
  5  6  2  0  0  0  0
  5  4  1  0  0  0  0
  6  8  1  0  0  0  0
  7  6  1  0  0  0  0
  8  9  2  0  0  0  0
  8 10  1  0  0  0  0
 10 13  1  0  0  0  0
 11 10  1  0  0  0  0
 11 12  2  0  0  0  0
 14  1  1  0  0  0  0
 15 14  1  0  0  0  0
 15 20  1  0  0  0  0
 16 15  2  0  0  0  0
 17 18  2  0  0  0  0
 17 16  1  0  0  0  0
 18 19  1  0  0  0  0
 19 14  2  0  0  0  0
 21 16  1  0  0  0  0
 22 18  1  0  0  0  0
M  END
>  <minimizedAffinity>
0.116957918

>  <minimizedRMSD>
1.47017741

$$$$
