
 OpenBabel03272507193D

 31 33  0  0  1  0  0  0  0  0999 V2000
   37.1580   31.1490   49.2700 C   0  0  0  0  0  0  0  0  0  0  0  0
   38.2730   31.9240   49.5260 C   0  0  0  0  0  0  0  0  0  0  0  0
   38.9310   32.3950   48.3620 C   0  0  0  0  0  0  0  0  0  0  0  0
   38.4590   32.0800   47.1100 N   0  0  0  0  0  0  0  0  0  0  0  0
   37.3610   31.3150   46.9370 C   0  0  0  0  0  0  0  0  0  0  0  0
   36.6990   30.8420   48.0380 N   0  0  0  0  0  0  0  0  0  0  0  0
   38.6360   32.1670   50.5130 H   0  0  0  0  0  0  0  0  0  0  0  0
   39.8180   33.0120   48.4720 H   0  0  0  0  0  0  0  0  0  0  0  0
   36.9450   31.0380   45.6050 N   0  0  0  0  0  0  0  0  0  0  0  0
   36.0880   29.9900   45.4370 C   0  0  0  0  0  3  0  0  0  0  0  0
   35.6400   29.6600   44.1760 C   0  0  0  0  0  0  0  0  0  0  0  0
   34.9660   28.8460   43.9850 H   0  0  0  0  0  0  0  0  0  0  0  0
   36.0500   30.3830   43.0570 C   0  0  0  0  0  0  0  0  0  0  0  0
   35.6420   30.0840   41.9010 O   0  0  0  0  0  0  0  0  0  0  0  0
   36.9010   31.4140   43.2760 N   0  0  0  0  0  0  0  0  0  0  0  0
   37.3280   31.7240   44.5030 C   0  0  0  0  0  0  0  0  0  0  0  0
   38.1230   32.6870   44.7090 O   0  0  0  0  0  0  0  0  0  0  0  0
   37.2210   31.9730   42.4370 H   0  0  0  0  0  0  0  0  0  0  0  0
   36.4180   30.6690   50.4790 C   0  0  1  0  0  0  0  0  0  0  0  0
   35.6800   29.4070   50.4870 C   0  0  2  0  0  0  0  0  0  0  0  0
   37.0590   29.3990   51.0790 C   0  0  0  0  0  0  0  0  0  0  0  0
   36.2070   31.4680   51.2210 H   0  0  0  0  0  0  0  0  0  0  0  0
   34.7600   29.4510   51.1440 H   0  0  0  0  0  0  0  0  0  0  0  0
   37.8670   28.8990   50.5100 H   0  0  0  0  0  0  0  0  0  0  0  0
   37.0690   29.3730   52.1770 H   0  0  0  0  0  0  0  0  0  0  0  0
   35.4780   28.7890   49.2600 O   0  0  0  0  0  0  0  0  0  0  0  0
   34.3460   28.2860   48.7120 C   0  0  0  0  0  0  0  0  0  0  0  0
   34.3660   27.4950   47.7450 O   0  0  0  0  0  0  0  0  0  0  0  0
   33.2570   28.8080   49.4110 N   0  0  0  0  0  0  0  0  0  0  0  0
   32.3520   29.3220   49.5290 H   0  0  0  0  0  0  0  0  0  0  0  0
   33.0650   28.7390   50.4480 H   0  0  0  0  0  0  0  0  0  0  0  0
  1  2  1  0  0  0  0
  1 19  1  0  0  0  0
  2  7  1  0  0  0  0
  3  8  1  0  0  0  0
  3  2  2  0  0  0  0
  4  3  1  0  0  0  0
  5  4  2  0  0  0  0
  5  6  1  0  0  0  0
  6  1  2  0  0  0  0
  9  5  1  0  0  0  0
 10  9  1  0  0  0  0
 11 10  2  0  0  0  0
 12 11  1  0  0  0  0
 13 15  1  0  0  0  0
 13 11  1  0  0  0  0
 14 13  2  0  0  0  0
 15 16  1  0  0  0  0
 16 17  2  0  0  0  0
 16  9  1  0  0  0  0
 18 15  1  0  0  0  0
 19 20  1  0  0  0  0
 19 21  1  0  0  0  0
 19 22  1  1  0  0  0
 20 21  1  0  0  0  0
 20 23  1  1  0  0  0
 21 25  1  0  0  0  0
 24 21  1  0  0  0  0
 26 20  1  0  0  0  0
 27 26  1  0  0  0  0
 27 29  1  0  0  0  0
 28 27  2  0  0  0  0
 29 30  1  0  0  0  0
 29 31  1  0  0  0  0
M  END
>  <minimizedAffinity>
-5.51813698

>  <minimizedRMSD>
0.591704488

$$$$
