
 OpenBabel03272510183D

 29 31  0  0  0  0  0  0  0  0999 V2000
   38.9000   26.9010   35.2630 Br  0  0  0  0  0  0  0  0  0  0  0  0
   38.5270   25.4210   34.1210 C   0  0  0  0  0  0  0  0  0  0  0  0
   38.4160   24.1430   34.6280 C   0  0  0  0  0  0  0  0  0  0  0  0
   38.1450   23.1230   33.7300 C   0  0  0  0  0  0  0  0  0  0  0  0
   37.9830   23.3390   32.3660 C   0  0  0  0  0  0  0  0  0  0  0  0
   38.1050   24.6250   31.9100 C   0  0  0  0  0  0  0  0  0  0  0  0
   38.3740   25.6530   32.7850 C   0  0  0  0  0  0  0  0  0  0  0  0
   38.0660   22.1290   34.1860 H   0  0  0  0  0  0  0  0  0  0  0  0
   37.9720   24.7380   30.8450 H   0  0  0  0  0  0  0  0  0  0  0  0
   38.4530   26.6420   32.3390 H   0  0  0  0  0  0  0  0  0  0  0  0
   37.7100   22.1570   31.6210 N   0  0  0  0  0  0  0  0  0  0  0  0
   38.5770   21.2770   31.0950 C   0  0  0  0  0  3  0  0  0  0  0  0
   38.0730   20.1930   30.4060 C   0  0  0  0  0  0  0  0  0  0  0  0
   38.8060   19.5000   29.9940 H   0  0  0  0  0  0  0  0  0  0  0  0
   36.7040   20.0080   30.2530 C   0  0  0  0  0  0  0  0  0  0  0  0
   36.2740   18.9990   29.6120 O   0  0  0  0  0  0  0  0  0  0  0  0
   35.8720   20.9210   30.8000 N   0  0  0  0  0  0  0  0  0  0  0  0
   36.3660   21.9820   31.4760 C   0  0  0  0  0  0  0  0  0  0  0  0
   35.4640   22.7350   31.9200 O   0  0  0  0  0  0  0  0  0  0  0  0
   34.8520   20.7360   30.6560 H   0  0  0  0  0  0  0  0  0  0  0  0
   39.8700   23.0090   37.7690 C   0  0  0  0  0  0  0  0  0  0  0  0
   38.9170   23.3840   38.7360 C   0  0  0  0  0  0  0  0  0  0  0  0
   37.7740   24.0290   38.2920 C   0  0  0  0  0  0  0  0  0  0  0  0
   37.6290   24.2680   36.9520 N   0  0  0  0  0  0  0  0  0  0  0  0
   38.5780   23.8870   36.0500 C   0  0  0  0  0  0  0  0  0  0  0  0
   39.6880   23.2620   36.4690 N   0  0  0  0  0  0  0  0  0  0  0  0
   40.7370   22.5110   38.1780 H   0  0  0  0  0  0  0  0  0  0  0  0
   38.9540   23.2370   39.7850 H   0  0  0  0  0  0  0  0  0  0  0  0
   36.9320   24.3940   38.8640 H   0  0  0  0  0  0  0  0  0  0  0  0
  2  3  1  0  0  0  0
  2  1  1  0  0  0  0
  3 25  1  0  0  0  0
  4  8  1  0  0  0  0
  4  3  2  0  0  0  0
  5  4  1  0  0  0  0
  6  5  2  0  0  0  0
  6  7  1  0  0  0  0
  7  2  2  0  0  0  0
  9  6  1  0  0  0  0
 10  7  1  0  0  0  0
 11  5  1  0  0  0  0
 12 11  1  0  0  0  0
 13 12  2  0  0  0  0
 14 13  1  0  0  0  0
 15 13  1  0  0  0  0
 15 17  1  0  0  0  0
 16 15  2  0  0  0  0
 17 18  1  0  0  0  0
 18 11  1  0  0  0  0
 18 19  2  0  0  0  0
 20 17  1  0  0  0  0
 21 27  1  0  0  0  0
 21 22  1  0  0  0  0
 22 28  1  0  0  0  0
 23 22  2  0  0  0  0
 23 29  1  0  0  0  0
 24 23  1  0  0  0  0
 25 26  1  0  0  0  0
 25 24  2  0  0  0  0
 26 21  2  0  0  0  0
M  END
>  <minimizedAffinity>
-5.28171921

$$$$

 OpenBabel03272510183D

 29 31  0  0  0  0  0  0  0  0999 V2000
   37.6040   26.2100   31.1550 Br  0  0  0  0  0  0  0  0  0  0  0  0
   36.8520   27.5040   32.3360 C   0  0  0  0  0  0  0  0  0  0  0  0
   37.1840   27.5220   33.6740 C   0  0  0  0  0  0  0  0  0  0  0  0
   36.5930   28.4940   34.4640 C   0  0  0  0  0  0  0  0  0  0  0  0
   35.6960   29.4330   33.9660 C   0  0  0  0  0  0  0  0  0  0  0  0
   35.3970   29.3740   32.6310 C   0  0  0  0  0  0  0  0  0  0  0  0
   35.9740   28.4160   31.8280 C   0  0  0  0  0  0  0  0  0  0  0  0
   36.8920   28.4620   35.5190 H   0  0  0  0  0  0  0  0  0  0  0  0
   34.6970   30.1220   32.2940 H   0  0  0  0  0  0  0  0  0  0  0  0
   35.6810   28.4420   30.7800 H   0  0  0  0  0  0  0  0  0  0  0  0
   35.2050   30.3420   34.9450 N   0  0  0  0  0  0  0  0  0  0  0  0
   35.8790   31.2700   35.6420 C   0  0  0  0  0  3  0  0  0  0  0  0
   35.1820   32.0450   36.5460 C   0  0  0  0  0  0  0  0  0  0  0  0
   35.7620   32.7870   37.0930 H   0  0  0  0  0  0  0  0  0  0  0  0
   33.8160   31.8760   36.7390 C   0  0  0  0  0  0  0  0  0  0  0  0
   33.2050   32.6060   37.5800 O   0  0  0  0  0  0  0  0  0  0  0  0
   33.1820   30.9280   36.0150 N   0  0  0  0  0  0  0  0  0  0  0  0
   33.8650   30.1700   35.1280 C   0  0  0  0  0  0  0  0  0  0  0  0
   33.1320   29.3380   34.5370 O   0  0  0  0  0  0  0  0  0  0  0  0
   32.1550   30.8410   36.1970 H   0  0  0  0  0  0  0  0  0  0  0  0
   40.2960   26.0370   34.8500 C   0  0  0  0  0  0  0  0  0  0  0  0
   39.9180   24.7450   35.2630 C   0  0  0  0  0  0  0  0  0  0  0  0
   38.5840   24.3950   35.1300 C   0  0  0  0  0  0  0  0  0  0  0  0
   37.7100   25.3120   34.6110 N   0  0  0  0  0  0  0  0  0  0  0  0
   38.1200   26.5530   34.2250 C   0  0  0  0  0  0  0  0  0  0  0  0
   39.4080   26.9020   34.3480 N   0  0  0  0  0  0  0  0  0  0  0  0
   41.3480   26.2490   34.9790 H   0  0  0  0  0  0  0  0  0  0  0  0
   40.5300   23.9820   35.6710 H   0  0  0  0  0  0  0  0  0  0  0  0
   38.0950   23.4640   35.3830 H   0  0  0  0  0  0  0  0  0  0  0  0
  1  2  1  0  0  0  0
  2  3  1  0  0  0  0
  3 25  1  0  0  0  0
  3  4  2  0  0  0  0
  4  8  1  0  0  0  0
  5  4  1  0  0  0  0
  5 11  1  0  0  0  0
  6  5  2  0  0  0  0
  7  2  2  0  0  0  0
  7  6  1  0  0  0  0
  9  6  1  0  0  0  0
 10  7  1  0  0  0  0
 11 18  1  0  0  0  0
 11 12  1  0  0  0  0
 12 13  2  0  0  0  0
 13 15  1  0  0  0  0
 13 14  1  0  0  0  0
 15 16  2  0  0  0  0
 17 20  1  0  0  0  0
 17 15  1  0  0  0  0
 18 17  1  0  0  0  0
 19 18  2  0  0  0  0
 21 27  1  0  0  0  0
 21 22  1  0  0  0  0
 22 28  1  0  0  0  0
 23 22  2  0  0  0  0
 23 29  1  0  0  0  0
 24 23  1  0  0  0  0
 25 26  1  0  0  0  0
 25 24  2  0  0  0  0
 26 21  2  0  0  0  0
M  END
>  <minimizedAffinity>
-5.25850248

$$$$

 OpenBabel03272510183D

 29 31  0  0  0  0  0  0  0  0999 V2000
   36.3920   28.1910   31.8550 Br  0  0  0  0  0  0  0  0  0  0  0  0
   36.2380   26.2910   31.7880 C   0  0  0  0  0  0  0  0  0  0  0  0
   36.9350   25.4910   32.6670 C   0  0  0  0  0  0  0  0  0  0  0  0
   36.7680   24.1200   32.5510 C   0  0  0  0  0  0  0  0  0  0  0  0
   35.9380   23.5370   31.5990 C   0  0  0  0  0  0  0  0  0  0  0  0
   35.2680   24.3740   30.7470 C   0  0  0  0  0  0  0  0  0  0  0  0
   35.4200   25.7380   30.8460 C   0  0  0  0  0  0  0  0  0  0  0  0
   37.3450   23.5320   33.2740 H   0  0  0  0  0  0  0  0  0  0  0  0
   34.6390   23.8730   30.0280 H   0  0  0  0  0  0  0  0  0  0  0  0
   34.8500   26.3280   30.1310 H   0  0  0  0  0  0  0  0  0  0  0  0
   35.9090   22.1140   31.6500 N   0  0  0  0  0  0  0  0  0  0  0  0
   34.9870   21.3130   32.2070 C   0  0  0  0  0  3  0  0  0  0  0  0
   35.1720   19.9490   32.1300 C   0  0  0  0  0  0  0  0  0  0  0  0
   34.4050   19.3300   32.5930 H   0  0  0  0  0  0  0  0  0  0  0  0
   36.2830   19.4060   31.4930 C   0  0  0  0  0  0  0  0  0  0  0  0
   36.4230   18.1440   31.4400 O   0  0  0  0  0  0  0  0  0  0  0  0
   37.1830   20.2530   30.9480 N   0  0  0  0  0  0  0  0  0  0  0  0
   37.0010   21.5900   31.0230 C   0  0  0  0  0  0  0  0  0  0  0  0
   37.9240   22.2370   30.4690 O   0  0  0  0  0  0  0  0  0  0  0  0
   38.0000   19.7950   30.4810 H   0  0  0  0  0  0  0  0  0  0  0  0
   38.0820   26.8690   35.8380 C   0  0  0  0  0  0  0  0  0  0  0  0
   39.4370   27.1710   35.6040 C   0  0  0  0  0  0  0  0  0  0  0  0
   39.9470   26.8950   34.3450 C   0  0  0  0  0  0  0  0  0  0  0  0
   39.1180   26.3480   33.4030 N   0  0  0  0  0  0  0  0  0  0  0  0
   37.8100   26.0710   33.6740 C   0  0  0  0  0  0  0  0  0  0  0  0
   37.3070   26.3350   34.8880 N   0  0  0  0  0  0  0  0  0  0  0  0
   37.7450   27.1080   36.8370 H   0  0  0  0  0  0  0  0  0  0  0  0
   40.1410   27.5930   36.2760 H   0  0  0  0  0  0  0  0  0  0  0  0
   40.9470   27.0500   33.9660 H   0  0  0  0  0  0  0  0  0  0  0  0
  2  1  1  0  0  0  0
  2  3  1  0  0  0  0
  3 25  1  0  0  0  0
  4  3  2  0  0  0  0
  4  8  1  0  0  0  0
  5 11  1  0  0  0  0
  5  4  1  0  0  0  0
  6  7  1  0  0  0  0
  6  5  2  0  0  0  0
  7  2  2  0  0  0  0
  9  6  1  0  0  0  0
 10  7  1  0  0  0  0
 11 12  1  0  0  0  0
 13 12  2  0  0  0  0
 13 14  1  0  0  0  0
 15 13  1  0  0  0  0
 16 15  2  0  0  0  0
 17 18  1  0  0  0  0
 17 15  1  0  0  0  0
 18 11  1  0  0  0  0
 19 18  2  0  0  0  0
 20 17  1  0  0  0  0
 21 27  1  0  0  0  0
 22 21  1  0  0  0  0
 22 28  1  0  0  0  0
 23 22  2  0  0  0  0
 24 25  2  0  0  0  0
 24 23  1  0  0  0  0
 25 26  1  0  0  0  0
 26 21  2  0  0  0  0
 29 23  1  0  0  0  0
M  END
>  <minimizedAffinity>
-5.14680958

$$$$

 OpenBabel03272510183D

 29 31  0  0  0  0  0  0  0  0999 V2000
   37.3780   28.6310   29.3190 Br  0  0  0  0  0  0  0  0  0  0  0  0
   36.6900   29.4240   30.9110 C   0  0  0  0  0  0  0  0  0  0  0  0
   36.2610   28.6450   31.9640 C   0  0  0  0  0  0  0  0  0  0  0  0
   35.7750   29.2990   33.0840 C   0  0  0  0  0  0  0  0  0  0  0  0
   35.7050   30.6850   33.1810 C   0  0  0  0  0  0  0  0  0  0  0  0
   36.1420   31.4160   32.1080 C   0  0  0  0  0  0  0  0  0  0  0  0
   36.6300   30.7850   30.9860 C   0  0  0  0  0  0  0  0  0  0  0  0
   35.4480   28.6320   33.8910 H   0  0  0  0  0  0  0  0  0  0  0  0
   36.0670   32.4850   32.2330 H   0  0  0  0  0  0  0  0  0  0  0  0
   36.9550   31.4410   30.1820 H   0  0  0  0  0  0  0  0  0  0  0  0
   35.1740   31.1540   34.4160 N   0  0  0  0  0  0  0  0  0  0  0  0
   35.8200   31.4120   35.5640 C   0  0  0  0  0  3  0  0  0  0  0  0
   35.0860   31.8650   36.6410 C   0  0  0  0  0  0  0  0  0  0  0  0
   35.6430   32.0640   37.5550 H   0  0  0  0  0  0  0  0  0  0  0  0
   33.7110   32.0510   36.5500 C   0  0  0  0  0  0  0  0  0  0  0  0
   33.0650   32.4680   37.5620 O   0  0  0  0  0  0  0  0  0  0  0  0
   33.1070   31.7770   35.3740 N   0  0  0  0  0  0  0  0  0  0  0  0
   33.8260   31.3340   34.3190 C   0  0  0  0  0  0  0  0  0  0  0  0
   33.1170   31.1260   33.3020 O   0  0  0  0  0  0  0  0  0  0  0  0
   32.0710   31.9330   35.3580 H   0  0  0  0  0  0  0  0  0  0  0  0
   37.4360   25.2290   32.4360 C   0  0  0  0  0  0  0  0  0  0  0  0
   36.4690   24.4460   31.7780 C   0  0  0  0  0  0  0  0  0  0  0  0
   35.4120   25.1080   31.1730 C   0  0  0  0  0  0  0  0  0  0  0  0
   35.3620   26.4740   31.2450 N   0  0  0  0  0  0  0  0  0  0  0  0
   36.3220   27.1930   31.8930 C   0  0  0  0  0  0  0  0  0  0  0  0
   37.3490   26.5630   32.4810 N   0  0  0  0  0  0  0  0  0  0  0  0
   38.2340   24.6550   32.8860 H   0  0  0  0  0  0  0  0  0  0  0  0
   36.4360   23.3910   31.6780 H   0  0  0  0  0  0  0  0  0  0  0  0
   34.5760   24.6980   30.6240 H   0  0  0  0  0  0  0  0  0  0  0  0
  1  2  1  0  0  0  0
  2  7  2  0  0  0  0
  2  3  1  0  0  0  0
  3  4  2  0  0  0  0
  4  5  1  0  0  0  0
  4  8  1  0  0  0  0
  5 11  1  0  0  0  0
  6  9  1  0  0  0  0
  6  5  2  0  0  0  0
  7  6  1  0  0  0  0
 10  7  1  0  0  0  0
 11 12  1  0  0  0  0
 12 13  2  0  0  0  0
 13 14  1  0  0  0  0
 15 13  1  0  0  0  0
 15 16  2  0  0  0  0
 17 15  1  0  0  0  0
 18 11  1  0  0  0  0
 18 17  1  0  0  0  0
 19 18  2  0  0  0  0
 20 17  1  0  0  0  0
 21 26  1  0  0  0  0
 21 27  1  0  0  0  0
 22 21  2  0  0  0  0
 23 24  2  0  0  0  0
 23 22  1  0  0  0  0
 24 25  1  0  0  0  0
 25  3  1  0  0  0  0
 25 26  2  0  0  0  0
 28 22  1  0  0  0  0
 29 23  1  0  0  0  0
M  END
>  <minimizedAffinity>
-5.12355852

$$$$

 OpenBabel03272510183D

 29 31  0  0  0  0  0  0  0  0999 V2000
   36.2600   32.4500   31.7510 Br  0  0  0  0  0  0  0  0  0  0  0  0
   36.2250   30.5450   31.6730 C   0  0  0  0  0  0  0  0  0  0  0  0
   35.7040   29.8020   32.7100 C   0  0  0  0  0  0  0  0  0  0  0  0
   35.7160   28.4230   32.5750 C   0  0  0  0  0  0  0  0  0  0  0  0
   36.2240   27.7770   31.4540 C   0  0  0  0  0  0  0  0  0  0  0  0
   36.7320   28.5580   30.4500 C   0  0  0  0  0  0  0  0  0  0  0  0
   36.7290   29.9300   30.5640 C   0  0  0  0  0  0  0  0  0  0  0  0
   35.2900   27.8820   33.4280 H   0  0  0  0  0  0  0  0  0  0  0  0
   37.1150   28.0100   29.6040 H   0  0  0  0  0  0  0  0  0  0  0  0
   37.1510   30.4730   29.7210 H   0  0  0  0  0  0  0  0  0  0  0  0
   36.1410   26.3570   31.5160 N   0  0  0  0  0  0  0  0  0  0  0  0
   35.1820   25.5500   31.0370 C   0  0  0  0  0  3  0  0  0  0  0  0
   35.3190   24.1890   31.2170 C   0  0  0  0  0  0  0  0  0  0  0  0
   34.5210   23.5660   30.8150 H   0  0  0  0  0  0  0  0  0  0  0  0
   36.4200   23.6560   31.8780 C   0  0  0  0  0  0  0  0  0  0  0  0
   36.5150   22.3980   32.0270 O   0  0  0  0  0  0  0  0  0  0  0  0
   37.3590   24.5090   32.3420 N   0  0  0  0  0  0  0  0  0  0  0  0
   37.2250   25.8420   32.1640 C   0  0  0  0  0  0  0  0  0  0  0  0
   38.1800   26.4950   32.6540 O   0  0  0  0  0  0  0  0  0  0  0  0
   38.1670   24.0580   32.8310 H   0  0  0  0  0  0  0  0  0  0  0  0
   33.3160   31.2860   35.0270 C   0  0  0  0  0  0  0  0  0  0  0  0
   34.1080   31.6730   36.1250 C   0  0  0  0  0  0  0  0  0  0  0  0
   35.4680   31.4170   36.0560 C   0  0  0  0  0  0  0  0  0  0  0  0
   35.9680   30.8070   34.9370 N   0  0  0  0  0  0  0  0  0  0  0  0
   35.1630   30.4490   33.8960 C   0  0  0  0  0  0  0  0  0  0  0  0
   33.8470   30.6930   33.9520 N   0  0  0  0  0  0  0  0  0  0  0  0
   32.2660   31.5140   35.1410 H   0  0  0  0  0  0  0  0  0  0  0  0
   33.7990   32.1470   37.0220 H   0  0  0  0  0  0  0  0  0  0  0  0
   36.2400   31.6320   36.7810 H   0  0  0  0  0  0  0  0  0  0  0  0
  2  1  1  0  0  0  0
  2  3  1  0  0  0  0
  3 25  1  0  0  0  0
  4  3  2  0  0  0  0
  4  8  1  0  0  0  0
  5 11  1  0  0  0  0
  5  4  1  0  0  0  0
  6  7  1  0  0  0  0
  6  5  2  0  0  0  0
  7  2  2  0  0  0  0
  9  6  1  0  0  0  0
 10  7  1  0  0  0  0
 11 18  1  0  0  0  0
 12 13  2  0  0  0  0
 12 11  1  0  0  0  0
 13 15  1  0  0  0  0
 14 13  1  0  0  0  0
 15 16  2  0  0  0  0
 15 17  1  0  0  0  0
 17 20  1  0  0  0  0
 18 17  1  0  0  0  0
 18 19  2  0  0  0  0
 21 27  1  0  0  0  0
 21 22  1  0  0  0  0
 22 28  1  0  0  0  0
 23 22  2  0  0  0  0
 23 29  1  0  0  0  0
 24 23  1  0  0  0  0
 25 26  1  0  0  0  0
 25 24  2  0  0  0  0
 26 21  2  0  0  0  0
M  END
>  <minimizedAffinity>
-5.1054635

$$$$

 OpenBabel03272510183D

 29 31  0  0  0  0  0  0  0  0999 V2000
   35.4700   32.3790   31.9980 Br  0  0  0  0  0  0  0  0  0  0  0  0
   35.9710   30.5450   32.1450 C   0  0  0  0  0  0  0  0  0  0  0  0
   35.7510   29.8400   33.3090 C   0  0  0  0  0  0  0  0  0  0  0  0
   36.1450   28.5120   33.3330 C   0  0  0  0  0  0  0  0  0  0  0  0
   36.7410   27.8790   32.2480 C   0  0  0  0  0  0  0  0  0  0  0  0
   36.9400   28.6210   31.1150 C   0  0  0  0  0  0  0  0  0  0  0  0
   36.5550   29.9420   31.0690 C   0  0  0  0  0  0  0  0  0  0  0  0
   35.9460   27.9990   34.2820 H   0  0  0  0  0  0  0  0  0  0  0  0
   37.4060   28.0850   30.3030 H   0  0  0  0  0  0  0  0  0  0  0  0
   36.7500   30.4570   30.1310 H   0  0  0  0  0  0  0  0  0  0  0  0
   37.0680   26.5130   32.4820 N   0  0  0  0  0  0  0  0  0  0  0  0
   38.0580   26.0030   33.2310 C   0  0  0  0  0  3  0  0  0  0  0  0
   38.1810   24.6320   33.3100 C   0  0  0  0  0  0  0  0  0  0  0  0
   38.9950   24.2540   33.9270 H   0  0  0  0  0  0  0  0  0  0  0  0
   37.3070   23.7890   32.6320 C   0  0  0  0  0  0  0  0  0  0  0  0
   37.4490   22.5300   32.7250 O   0  0  0  0  0  0  0  0  0  0  0  0
   36.3280   24.3490   31.8900 N   0  0  0  0  0  0  0  0  0  0  0  0
   36.2070   25.6930   31.8140 C   0  0  0  0  0  0  0  0  0  0  0  0
   35.2480   26.0530   31.0860 O   0  0  0  0  0  0  0  0  0  0  0  0
   35.6970   23.6720   31.4000 H   0  0  0  0  0  0  0  0  0  0  0  0
   35.3660   31.7380   36.3940 C   0  0  0  0  0  0  0  0  0  0  0  0
   33.9830   31.6850   36.6520 C   0  0  0  0  0  0  0  0  0  0  0  0
   33.1900   30.9900   35.7530 C   0  0  0  0  0  0  0  0  0  0  0  0
   33.7830   30.3970   34.6710 N   0  0  0  0  0  0  0  0  0  0  0  0
   35.1280   30.4740   34.4610 C   0  0  0  0  0  0  0  0  0  0  0  0
   35.9050   31.1430   35.3240 N   0  0  0  0  0  0  0  0  0  0  0  0
   35.9290   32.2930   37.1310 H   0  0  0  0  0  0  0  0  0  0  0  0
   33.4500   32.1150   37.4610 H   0  0  0  0  0  0  0  0  0  0  0  0
   32.1210   30.8310   35.7690 H   0  0  0  0  0  0  0  0  0  0  0  0
  1  2  1  0  0  0  0
  2  3  1  0  0  0  0
  3  4  2  0  0  0  0
  3 25  1  0  0  0  0
  4  8  1  0  0  0  0
  5 11  1  0  0  0  0
  5  4  1  0  0  0  0
  6  5  2  0  0  0  0
  7  6  1  0  0  0  0
  7  2  2  0  0  0  0
  9  6  1  0  0  0  0
 10  7  1  0  0  0  0
 11 12  1  0  0  0  0
 12 13  2  0  0  0  0
 13 14  1  0  0  0  0
 15 16  2  0  0  0  0
 15 13  1  0  0  0  0
 17 15  1  0  0  0  0
 18 17  1  0  0  0  0
 18 11  1  0  0  0  0
 19 18  2  0  0  0  0
 20 17  1  0  0  0  0
 21 22  1  0  0  0  0
 21 27  1  0  0  0  0
 22 28  1  0  0  0  0
 23 29  1  0  0  0  0
 23 22  2  0  0  0  0
 24 23  1  0  0  0  0
 25 24  2  0  0  0  0
 25 26  1  0  0  0  0
 26 21  2  0  0  0  0
M  END
>  <minimizedAffinity>
-4.9870472

$$$$

 OpenBabel03272510183D

 29 31  0  0  0  0  0  0  0  0999 V2000
   35.1790   30.9040   31.4930 Br  0  0  0  0  0  0  0  0  0  0  0  0
   36.1400   29.4180   32.2040 C   0  0  0  0  0  0  0  0  0  0  0  0
   35.9910   29.0420   33.5220 C   0  0  0  0  0  0  0  0  0  0  0  0
   36.7250   27.9510   33.9590 C   0  0  0  0  0  0  0  0  0  0  0  0
   37.5870   27.2380   33.1330 C   0  0  0  0  0  0  0  0  0  0  0  0
   37.7020   27.6510   31.8320 C   0  0  0  0  0  0  0  0  0  0  0  0
   36.9810   28.7320   31.3770 C   0  0  0  0  0  0  0  0  0  0  0  0
   36.5690   27.6960   35.0140 H   0  0  0  0  0  0  0  0  0  0  0  0
   38.3830   27.0670   31.2340 H   0  0  0  0  0  0  0  0  0  0  0  0
   37.1310   28.9910   30.3310 H   0  0  0  0  0  0  0  0  0  0  0  0
   38.2450   26.1540   33.7800 N   0  0  0  0  0  0  0  0  0  0  0  0
   39.2510   26.1910   34.6670 C   0  0  0  0  0  3  0  0  0  0  0  0
   39.7310   24.9970   35.1640 C   0  0  0  0  0  0  0  0  0  0  0  0
   40.5480   25.0660   35.8810 H   0  0  0  0  0  0  0  0  0  0  0  0
   39.1930   23.7790   34.7620 C   0  0  0  0  0  0  0  0  0  0  0  0
   39.6590   22.6980   35.2390 O   0  0  0  0  0  0  0  0  0  0  0  0
   38.1820   23.7940   33.8660 N   0  0  0  0  0  0  0  0  0  0  0  0
   37.7110   24.9640   33.3800 C   0  0  0  0  0  0  0  0  0  0  0  0
   36.7730   24.8050   32.5600 O   0  0  0  0  0  0  0  0  0  0  0  0
   37.8120   22.8520   33.5970 H   0  0  0  0  0  0  0  0  0  0  0  0
   34.8020   31.4560   35.9760 C   0  0  0  0  0  0  0  0  0  0  0  0
   33.4310   31.1610   36.1030 C   0  0  0  0  0  0  0  0  0  0  0  0
   32.9260   30.1230   35.3350 C   0  0  0  0  0  0  0  0  0  0  0  0
   33.7740   29.4460   34.5010 N   0  0  0  0  0  0  0  0  0  0  0  0
   35.0960   29.7670   34.4100 C   0  0  0  0  0  0  0  0  0  0  0  0
   35.5960   30.7680   35.1490 N   0  0  0  0  0  0  0  0  0  0  0  0
   35.1340   32.2740   36.6010 H   0  0  0  0  0  0  0  0  0  0  0  0
   32.7120   31.6340   36.7220 H   0  0  0  0  0  0  0  0  0  0  0  0
   31.9160   29.7420   35.2860 H   0  0  0  0  0  0  0  0  0  0  0  0
  1  2  1  0  0  0  0
  2  3  1  0  0  0  0
  3  4  2  0  0  0  0
  3 25  1  0  0  0  0
  4  8  1  0  0  0  0
  5 11  1  0  0  0  0
  5  4  1  0  0  0  0
  6  5  2  0  0  0  0
  7  6  1  0  0  0  0
  7  2  2  0  0  0  0
  9  6  1  0  0  0  0
 10  7  1  0  0  0  0
 11 12  1  0  0  0  0
 12 13  2  0  0  0  0
 13 14  1  0  0  0  0
 15 13  1  0  0  0  0
 15 16  2  0  0  0  0
 17 15  1  0  0  0  0
 18 11  1  0  0  0  0
 18 17  1  0  0  0  0
 19 18  2  0  0  0  0
 20 17  1  0  0  0  0
 21 22  1  0  0  0  0
 21 27  1  0  0  0  0
 22 28  1  0  0  0  0
 23 22  2  0  0  0  0
 24 23  1  0  0  0  0
 25 24  2  0  0  0  0
 25 26  1  0  0  0  0
 26 21  2  0  0  0  0
 29 23  1  0  0  0  0
M  END
>  <minimizedAffinity>
-4.96368885

$$$$

 OpenBabel03272510183D

 29 31  0  0  0  0  0  0  0  0999 V2000
   35.9710   31.8170   31.4040 Br  0  0  0  0  0  0  0  0  0  0  0  0
   36.1750   29.9250   31.5340 C   0  0  0  0  0  0  0  0  0  0  0  0
   35.7550   29.2420   32.6550 C   0  0  0  0  0  0  0  0  0  0  0  0
   35.9400   27.8690   32.6710 C   0  0  0  0  0  0  0  0  0  0  0  0
   36.5220   27.1710   31.6180 C   0  0  0  0  0  0  0  0  0  0  0  0
   36.9250   27.8950   30.5270 C   0  0  0  0  0  0  0  0  0  0  0  0
   36.7490   29.2600   30.4910 C   0  0  0  0  0  0  0  0  0  0  0  0
   35.5890   27.3760   33.5860 H   0  0  0  0  0  0  0  0  0  0  0  0
   37.3700   27.3080   29.7390 H   0  0  0  0  0  0  0  0  0  0  0  0
   37.0960   29.7550   29.5870 H   0  0  0  0  0  0  0  0  0  0  0  0
   36.6190   25.7680   31.8360 N   0  0  0  0  0  0  0  0  0  0  0  0
   37.5160   25.0920   32.5710 C   0  0  0  0  0  3  0  0  0  0  0  0
   37.4090   23.7180   32.6350 C   0  0  0  0  0  0  0  0  0  0  0  0
   38.1550   23.2040   33.2410 H   0  0  0  0  0  0  0  0  0  0  0  0
   36.4010   23.0400   31.9590 C   0  0  0  0  0  0  0  0  0  0  0  0
   36.3320   21.7750   32.0390 O   0  0  0  0  0  0  0  0  0  0  0  0
   35.5230   23.7640   31.2320 N   0  0  0  0  0  0  0  0  0  0  0  0
   35.6270   25.1110   31.1700 C   0  0  0  0  0  0  0  0  0  0  0  0
   34.7360   25.6330   30.4540 O   0  0  0  0  0  0  0  0  0  0  0  0
   34.7840   23.2070   30.7420 H   0  0  0  0  0  0  0  0  0  0  0  0
   33.2070   30.5970   34.8790 C   0  0  0  0  0  0  0  0  0  0  0  0
   33.9470   31.2620   35.8740 C   0  0  0  0  0  0  0  0  0  0  0  0
   35.3290   31.2370   35.7690 C   0  0  0  0  0  0  0  0  0  0  0  0
   35.8990   30.5750   34.7150 N   0  0  0  0  0  0  0  0  0  0  0  0
   35.1420   29.9430   33.7730 C   0  0  0  0  0  0  0  0  0  0  0  0
   33.8050   29.9610   33.8650 N   0  0  0  0  0  0  0  0  0  0  0  0
   32.1360   30.6530   35.0170 H   0  0  0  0  0  0  0  0  0  0  0  0
   33.5840   31.7950   36.7160 H   0  0  0  0  0  0  0  0  0  0  0  0
   36.0700   31.6810   36.4190 H   0  0  0  0  0  0  0  0  0  0  0  0
  1  2  1  0  0  0  0
  2  3  1  0  0  0  0
  3  4  2  0  0  0  0
  3 25  1  0  0  0  0
  4  8  1  0  0  0  0
  5 11  1  0  0  0  0
  5  4  1  0  0  0  0
  6  5  2  0  0  0  0
  7  6  1  0  0  0  0
  7  2  2  0  0  0  0
  9  6  1  0  0  0  0
 10  7  1  0  0  0  0
 11 12  1  0  0  0  0
 12 13  2  0  0  0  0
 13 14  1  0  0  0  0
 15 16  2  0  0  0  0
 15 13  1  0  0  0  0
 17 15  1  0  0  0  0
 18 17  1  0  0  0  0
 18 11  1  0  0  0  0
 19 18  2  0  0  0  0
 20 17  1  0  0  0  0
 21 27  1  0  0  0  0
 21 22  1  0  0  0  0
 22 28  1  0  0  0  0
 23 22  2  0  0  0  0
 23 29  1  0  0  0  0
 24 23  1  0  0  0  0
 25 26  1  0  0  0  0
 25 24  2  0  0  0  0
 26 21  2  0  0  0  0
M  END
>  <minimizedAffinity>
-4.95709324

$$$$

 OpenBabel03272510183D

 29 31  0  0  0  0  0  0  0  0999 V2000
   37.0860   22.3070   32.2350 Br  0  0  0  0  0  0  0  0  0  0  0  0
   36.6430   24.1510   32.0300 C   0  0  0  0  0  0  0  0  0  0  0  0
   37.3110   25.1240   32.7410 C   0  0  0  0  0  0  0  0  0  0  0  0
   36.9280   26.4400   32.5350 C   0  0  0  0  0  0  0  0  0  0  0  0
   35.9160   26.8040   31.6540 C   0  0  0  0  0  0  0  0  0  0  0  0
   35.2810   25.8010   30.9710 C   0  0  0  0  0  0  0  0  0  0  0  0
   35.6460   24.4870   31.1610 C   0  0  0  0  0  0  0  0  0  0  0  0
   37.4910   27.1720   33.1260 H   0  0  0  0  0  0  0  0  0  0  0  0
   34.5030   26.1350   30.3020 H   0  0  0  0  0  0  0  0  0  0  0  0
   35.0910   23.7550   30.5790 H   0  0  0  0  0  0  0  0  0  0  0  0
   35.6790   28.2060   31.5910 N   0  0  0  0  0  0  0  0  0  0  0  0
   34.9450   28.9720   32.4130 C   0  0  0  0  0  3  0  0  0  0  0  0
   34.8610   30.3230   32.1500 C   0  0  0  0  0  0  0  0  0  0  0  0
   34.2570   30.9130   32.8380 H   0  0  0  0  0  0  0  0  0  0  0  0
   35.5160   30.8890   31.0610 C   0  0  0  0  0  0  0  0  0  0  0  0
   35.4170   32.1370   30.8470 O   0  0  0  0  0  0  0  0  0  0  0  0
   36.2420   30.0770   30.2620 N   0  0  0  0  0  0  0  0  0  0  0  0
   36.3250   28.7530   30.5210 C   0  0  0  0  0  0  0  0  0  0  0  0
   37.0360   28.1390   29.6860 O   0  0  0  0  0  0  0  0  0  0  0  0
   36.7150   30.5510   29.4570 H   0  0  0  0  0  0  0  0  0  0  0  0
   40.6370   24.4010   34.0380 C   0  0  0  0  0  0  0  0  0  0  0  0
   40.4140   24.1150   35.3990 C   0  0  0  0  0  0  0  0  0  0  0  0
   39.1080   24.1750   35.8600 C   0  0  0  0  0  0  0  0  0  0  0  0
   38.1120   24.5050   34.9800 N   0  0  0  0  0  0  0  0  0  0  0  0
   38.3750   24.7750   33.6700 C   0  0  0  0  0  0  0  0  0  0  0  0
   39.6340   24.7190   33.2130 N   0  0  0  0  0  0  0  0  0  0  0  0
   41.6740   24.3370   33.7410 H   0  0  0  0  0  0  0  0  0  0  0  0
   41.1250   23.8530   36.1400 H   0  0  0  0  0  0  0  0  0  0  0  0
   38.7280   23.9930   36.8550 H   0  0  0  0  0  0  0  0  0  0  0  0
  2  1  1  0  0  0  0
  2  3  1  0  0  0  0
  3 25  1  0  0  0  0
  4  3  2  0  0  0  0
  4  8  1  0  0  0  0
  5  4  1  0  0  0  0
  6  7  1  0  0  0  0
  6  5  2  0  0  0  0
  7  2  2  0  0  0  0
  9  6  1  0  0  0  0
 10  7  1  0  0  0  0
 11  5  1  0  0  0  0
 11 12  1  0  0  0  0
 13 12  2  0  0  0  0
 13 14  1  0  0  0  0
 15 13  1  0  0  0  0
 16 15  2  0  0  0  0
 17 18  1  0  0  0  0
 17 15  1  0  0  0  0
 18 11  1  0  0  0  0
 19 18  2  0  0  0  0
 20 17  1  0  0  0  0
 21 22  1  0  0  0  0
 22 23  2  0  0  0  0
 22 28  1  0  0  0  0
 23 29  1  0  0  0  0
 24 23  1  0  0  0  0
 25 24  2  0  0  0  0
 26 25  1  0  0  0  0
 26 21  2  0  0  0  0
 27 21  1  0  0  0  0
M  END
>  <minimizedAffinity>
-4.86904192

$$$$
