
 OpenBabel03262520123D

 43 45  0  0  0  0  0  0  0  0999 V2000
   35.2970   30.3710   49.3870 C   0  0  0  0  0  0  0  0  0  0  0  0
   35.0680   31.4100   49.7530 H   0  0  0  0  0  0  0  0  0  0  0  0
   36.1780   30.0470   50.0070 H   0  0  0  0  0  0  0  0  0  0  0  0
   38.1930   31.5640   48.9350 Br  0  0  0  0  0  0  0  0  0  0  0  0
   36.9690   30.9290   47.5950 C   0  0  0  0  0  0  0  0  0  0  0  0
   37.3160   30.9630   46.2690 C   0  0  0  0  0  0  0  0  0  0  0  0
   36.4030   30.5090   45.3550 C   0  0  0  0  0  0  0  0  0  0  0  0
   35.1570   30.0220   45.7240 C   0  0  0  0  0  0  0  0  0  0  0  0
   34.8410   30.0030   47.0900 C   0  0  0  0  0  0  0  0  0  0  0  0
   35.7520   30.4560   48.0030 C   0  0  0  0  0  0  0  0  0  0  0  0
   36.7310   30.5570   44.3040 H   0  0  0  0  0  0  0  0  0  0  0  0
   34.5550   29.7030   44.8890 H   0  0  0  0  0  0  0  0  0  0  0  0
   33.8560   29.6150   47.1610 H   0  0  0  0  0  0  0  0  0  0  0  0
   39.8430   33.2800   45.0170 C   0  0  0  0  0  0  0  0  0  0  0  0
   41.0360   32.5040   45.0010 C   0  0  0  0  0  0  0  0  0  0  0  0
   40.9360   31.1940   45.4250 C   0  0  0  0  0  0  0  0  0  0  0  0
   39.7220   30.6910   45.8380 N   0  0  0  0  0  0  0  0  0  0  0  0
   38.6230   31.4730   45.8330 C   0  0  0  0  0  0  0  0  0  0  0  0
   38.6970   32.7480   45.4260 N   0  0  0  0  0  0  0  0  0  0  0  0
   39.9470   34.2920   44.6840 H   0  0  0  0  0  0  0  0  0  0  0  0
   41.9810   32.9250   44.6690 H   0  0  0  0  0  0  0  0  0  0  0  0
   41.8210   30.5690   45.4270 H   0  0  0  0  0  0  0  0  0  0  0  0
   34.1760   29.4420   49.6790 C   0  0  0  0  0  0  0  0  0  0  0  0
   33.2230   29.7700   49.3120 H   0  0  0  0  0  0  0  0  0  0  0  0
   34.0570   29.5260   50.8160 H   0  0  0  0  0  0  0  0  0  0  0  0
   34.6120   28.1080   49.4780 N   0  0  0  0  0  0  0  0  0  0  0  0
   35.0070   27.6240   50.3030 H   0  0  0  0  0  0  0  0  0  0  0  0
   33.8120   27.2720   48.6650 C   0  0  0  0  0  0  0  0  0  0  0  0
   34.1800   27.2660   47.6160 H   0  0  0  0  0  0  0  0  0  0  0  0
   33.9170   26.2330   49.0240 H   0  0  0  0  0  0  0  0  0  0  0  0
   32.4020   27.7690   48.7070 C   0  0  0  0  0  0  0  0  0  0  0  0
   31.8200   27.3430   49.5550 H   0  0  0  0  0  0  0  0  0  0  0  0
   32.1920   28.7990   48.4930 H   0  0  0  0  0  0  0  0  0  0  0  0
   31.7680   27.0850   47.5320 N   0  0  0  0  0  0  0  0  0  0  0  0
   31.6500   25.7240   47.5190 C   0  0  0  0  0  3  0  0  0  0  0  0
   31.0690   25.0790   46.4490 C   0  0  0  0  0  0  0  0  0  0  0  0
   30.9750   24.0100   46.4340 H   0  0  0  0  0  0  0  0  0  0  0  0
   30.6020   25.8080   45.3760 C   0  0  0  0  0  0  0  0  0  0  0  0
   30.0620   25.2940   44.3660 O   0  0  0  0  0  0  0  0  0  0  0  0
   30.7400   27.1430   45.4340 N   0  0  0  0  0  0  0  0  0  0  0  0
   31.3010   27.7980   46.4660 C   0  0  0  0  0  0  0  0  0  0  0  0
   31.4490   29.0300   46.5620 O   0  0  0  0  0  0  0  0  0  0  0  0
   30.4220   27.8040   44.6780 H   0  0  0  0  0  0  0  0  0  0  0  0
  1 23  1  0  0  0  0
  1  2  1  0  0  0  0
  1  3  1  0  0  0  0
  5 10  1  0  0  0  0
  5  4  1  0  0  0  0
  6  5  2  0  0  0  0
  7  8  2  0  0  0  0
  7  6  1  0  0  0  0
  8  9  1  0  0  0  0
  9 13  1  0  0  0  0
  9 10  2  0  0  0  0
 10  1  1  0  0  0  0
 11  7  1  0  0  0  0
 12  8  1  0  0  0  0
 14 19  1  0  0  0  0
 15 14  2  0  0  0  0
 15 16  1  0  0  0  0
 16 22  1  0  0  0  0
 16 17  2  0  0  0  0
 18 17  1  0  0  0  0
 18  6  1  0  0  0  0
 19 18  2  0  0  0  0
 20 14  1  0  0  0  0
 21 15  1  0  0  0  0
 23 25  1  0  0  0  0
 24 23  1  0  0  0  0
 26 23  1  0  0  0  0
 26 27  1  0  0  0  0
 28 31  1  0  0  0  0
 28 30  1  0  0  0  0
 28 26  1  0  0  0  0
 29 28  1  0  0  0  0
 31 32  1  0  0  0  0
 33 31  1  0  0  0  0
 34 31  1  0  0  0  0
 35 34  1  0  0  0  0
 36 35  2  0  0  0  0
 37 36  1  0  0  0  0
 38 40  1  0  0  0  0
 38 36  1  0  0  0  0
 39 38  2  0  0  0  0
 40 41  1  0  0  0  0
 41 42  2  0  0  0  0
 41 34  1  0  0  0  0
 43 40  1  0  0  0  0
M  END
>  <minimizedAffinity>
-5.23056173

>  <minimizedRMSD>
0.910422146

$$$$
