
 OpenBabel03272507333D

 37 40  0  0  1  0  0  0  0  0999 V2000
   33.0690   27.6770   48.3010 C   0  0  0  0  0  0  0  0  0  0  0  0
   31.8500   27.6250   48.6750 O   0  0  0  0  0  0  0  0  0  0  0  0
   35.9120   29.2040   49.8380 C   0  0  0  0  0  0  0  0  0  0  0  0
   34.9340   29.6690   50.6930 C   0  0  0  0  0  0  0  0  0  0  0  0
   33.7070   29.1640   50.2410 C   0  0  0  0  0  0  0  0  0  0  0  0
   34.0220   28.4170   49.1280 C   0  0  0  0  0  0  0  0  0  0  0  0
   35.3210   28.4680   48.9300 O   0  0  0  0  0  0  0  0  0  0  0  0
   35.0370   30.3130   51.5740 H   0  0  0  0  0  0  0  0  0  0  0  0
   32.7490   29.3550   50.7060 H   0  0  0  0  0  0  0  0  0  0  0  0
   37.3160   29.5360   50.0130 C   0  0  0  0  0  0  0  0  0  0  0  0
   37.9860   28.9120   50.8480 O   0  0  0  0  0  0  0  0  0  0  0  0
   37.8450   30.5890   49.1870 C   0  0  0  0  0  0  0  0  0  0  0  0
   38.1820   31.7800   49.8150 C   0  0  0  0  0  0  0  0  0  0  0  0
   38.6960   32.8200   49.0390 C   0  0  0  0  0  0  0  0  0  0  0  0
   38.8390   32.6030   47.6850 N   0  0  0  0  0  0  0  0  0  0  0  0
   38.5060   31.4460   47.1160 C   0  0  0  0  0  0  0  0  0  0  0  0
   38.0110   30.4370   47.8520 N   0  0  0  0  0  0  0  0  0  0  0  0
   38.0580   31.9170   50.8750 H   0  0  0  0  0  0  0  0  0  0  0  0
   38.9580   33.7460   49.5270 H   0  0  0  0  0  0  0  0  0  0  0  0
   38.6500   31.3580   46.0500 H   0  0  0  0  0  0  0  0  0  0  0  0
   33.5180   26.9900   47.0440 C   0  0  1  0  0  0  0  0  0  0  0  0
   33.7430   25.4520   47.3290 C   0  0  0  0  0  0  0  0  0  0  0  0
   32.6920   25.9600   46.4180 C   0  0  2  0  0  0  0  0  0  0  0  0
   34.4490   27.4040   46.6060 H   0  0  0  0  0  0  0  0  0  0  0  0
   33.4970   25.0880   48.3240 H   0  0  0  0  0  0  0  0  0  0  0  0
   34.6340   25.0030   46.8660 H   0  0  0  0  0  0  0  0  0  0  0  0
   31.6560   25.8730   46.8650 H   0  0  0  0  0  0  0  0  0  0  0  0
   32.7320   25.8350   44.9970 N   0  0  0  0  0  0  0  0  0  0  0  0
   33.5940   26.5840   44.2450 C   0  0  0  0  0  3  0  0  0  0  0  0
   33.6400   26.4710   42.8710 C   0  0  0  0  0  0  0  0  0  0  0  0
   34.3690   27.1250   42.3960 H   0  0  0  0  0  0  0  0  0  0  0  0
   32.8180   25.5960   42.1900 C   0  0  0  0  0  0  0  0  0  0  0  0
   32.9720   25.6030   40.9420 O   0  0  0  0  0  0  0  0  0  0  0  0
   31.9740   24.8630   42.9380 N   0  0  0  0  0  0  0  0  0  0  0  0
   31.9630   25.0050   44.2750 C   0  0  0  0  0  0  0  0  0  0  0  0
   31.1370   24.2690   44.8510 O   0  0  0  0  0  0  0  0  0  0  0  0
   31.3690   24.2130   42.4020 H   0  0  0  0  0  0  0  0  0  0  0  0
  1  2  2  0  0  0  0
  1  6  1  0  0  0  0
  3 10  1  0  0  0  0
  3  4  2  0  0  0  0
  4  8  1  0  0  0  0
  5  4  1  0  0  0  0
  5  9  1  0  0  0  0
  6  5  2  0  0  0  0
  7  6  1  0  0  0  0
  7  3  1  0  0  0  0
 10 11  2  0  0  0  0
 12 13  1  0  0  0  0
 12 10  1  0  0  0  0
 13 18  1  0  0  0  0
 14 19  1  0  0  0  0
 14 13  2  0  0  0  0
 15 14  1  0  0  0  0
 16 15  2  0  0  0  0
 16 17  1  0  0  0  0
 17 12  2  0  0  0  0
 20 16  1  0  0  0  0
 21 24  1  6  0  0  0
 21 22  1  0  0  0  0
 21  1  1  0  0  0  0
 22 25  1  0  0  0  0
 23 27  1  1  0  0  0
 23 21  1  0  0  0  0
 23 22  1  0  0  0  0
 26 22  1  0  0  0  0
 28 23  1  0  0  0  0
 29 28  1  0  0  0  0
 30 29  2  0  0  0  0
 31 30  1  0  0  0  0
 32 30  1  0  0  0  0
 32 34  1  0  0  0  0
 33 32  2  0  0  0  0
 34 35  1  0  0  0  0
 35 36  2  0  0  0  0
 35 28  1  0  0  0  0
 37 34  1  0  0  0  0
M  END
>  <minimizedAffinity>
-4.87286425

>  <minimizedRMSD>
0.468365997

$$$$
