
 OpenBabel03272508583D

 41 44  0  0  1  0  0  0  0  0999 V2000
   39.2200   31.3240   43.4280 C   0  0  0  0  0  0  0  0  0  0  0  0
   40.2540   30.4500   43.6350 C   0  0  0  0  0  0  0  0  0  0  0  0
   40.9880   30.0650   42.5190 C   0  0  0  0  0  0  0  0  0  0  0  0
   40.6310   30.5820   41.2910 C   0  0  0  0  0  0  0  0  0  0  0  0
   39.5860   31.4620   41.0940 C   0  0  0  0  0  0  0  0  0  0  0  0
   38.8930   31.8170   42.2050 N   0  0  0  0  0  0  0  0  0  0  0  0
   40.5170   30.0560   44.6100 H   0  0  0  0  0  0  0  0  0  0  0  0
   41.8070   29.3870   42.6050 H   0  0  0  0  0  0  0  0  0  0  0  0
   41.2200   30.2640   40.4470 H   0  0  0  0  0  0  0  0  0  0  0  0
   38.4140   31.7710   44.5900 C   0  0  0  0  0  0  0  0  0  0  0  0
   37.4020   32.4690   44.4650 O   0  0  0  0  0  0  0  0  0  0  0  0
   38.8690   31.3480   45.9070 N   0  0  0  0  0  0  0  0  0  0  0  0
   39.8100   30.9510   46.0990 H   0  0  0  0  0  0  0  0  0  0  0  0
   38.1020   30.7080   48.1890 C   0  0  2  0  0  0  0  0  0  0  0  0
   38.6080   32.1030   48.2750 C   0  0  0  0  0  0  0  0  0  0  0  0
   37.9480   31.4960   47.0100 C   0  0  1  0  0  0  0  0  0  0  0  0
   38.9130   29.9540   48.2790 H   0  0  0  0  0  0  0  0  0  0  0  0
   38.0190   32.8640   48.8310 H   0  0  0  0  0  0  0  0  0  0  0  0
   39.6760   32.3120   48.2440 H   0  0  0  0  0  0  0  0  0  0  0  0
   36.9350   31.9450   46.7750 H   0  0  0  0  0  0  0  0  0  0  0  0
   34.5490   30.0490   49.0510 C   0  0  0  0  0  0  0  0  0  0  0  0
   34.6640   29.5120   50.3650 C   0  0  0  0  0  0  0  0  0  0  0  0
   35.9790   29.3920   50.9440 C   0  0  0  0  0  0  0  0  0  0  0  0
   37.0760   29.7940   50.2160 N   0  0  0  0  0  0  0  0  0  0  0  0
   36.8740   30.2970   48.9650 C   0  0  0  0  0  0  0  0  0  0  0  0
   35.6340   30.4400   48.3500 N   0  0  0  0  0  0  0  0  0  0  0  0
   33.5660   30.1300   48.6410 H   0  0  0  0  0  0  0  0  0  0  0  0
   33.8200   29.2000   50.9290 H   0  0  0  0  0  0  0  0  0  0  0  0
   36.0740   28.9850   51.9400 H   0  0  0  0  0  0  0  0  0  0  0  0
   39.2550   31.9630   39.7720 C   0  0  0  0  0  0  0  0  0  0  0  0
   39.0400   33.1790   39.5980 O   0  0  0  0  0  0  0  0  0  0  0  0
   37.4770   28.4570   37.5100 H   0  0  0  0  0  0  0  0  0  0  0  0
   38.2500   29.1520   37.6130 N   0  0  0  0  0  0  0  0  0  0  0  0
   38.1610   30.0460   38.6370 C   0  0  0  0  0  3  0  0  0  0  0  0
   39.2040   30.9440   38.7320 C   0  0  0  0  0  0  0  0  0  0  0  0
   40.2810   30.9620   37.8660 C   0  0  0  0  0  0  0  0  0  0  0  0
   41.2200   31.7690   37.9490 O   0  0  0  0  0  0  0  0  0  0  0  0
   40.3230   30.0450   36.8560 N   0  0  0  0  0  0  0  0  0  0  0  0
   39.2960   29.1600   36.7620 C   0  0  0  0  0  0  0  0  0  0  0  0
   39.3910   28.3400   35.8130 O   0  0  0  0  0  0  0  0  0  0  0  0
   41.1290   30.0520   36.2020 H   0  0  0  0  0  0  0  0  0  0  0  0
  1  2  1  0  0  0  0
  1 10  1  0  0  0  0
  2  7  1  0  0  0  0
  3  8  1  0  0  0  0
  3  2  2  0  0  0  0
  4  3  1  0  0  0  0
  5  4  2  0  0  0  0
  5  6  1  0  0  0  0
  6  1  2  0  0  0  0
  9  4  1  0  0  0  0
 10 12  1  0  0  0  0
 11 10  2  0  0  0  0
 12 13  1  0  0  0  0
 12 16  1  0  0  0  0
 14 15  1  0  0  0  0
 14 17  1  6  0  0  0
 14 25  1  0  0  0  0
 15 18  1  0  0  0  0
 16 20  1  6  0  0  0
 16 14  1  0  0  0  0
 16 15  1  0  0  0  0
 19 15  1  0  0  0  0
 21 22  1  0  0  0  0
 22 28  1  0  0  0  0
 22 23  2  0  0  0  0
 23 29  1  0  0  0  0
 24 23  1  0  0  0  0
 25 24  2  0  0  0  0
 26 25  1  0  0  0  0
 26 21  2  0  0  0  0
 27 21  1  0  0  0  0
 30  5  1  0  0  0  0
 31 30  2  0  0  0  0
 32 33  1  0  0  0  0
 33 34  1  0  0  0  0
 34 35  2  0  0  0  0
 35 30  1  0  0  0  0
 36 37  2  0  0  0  0
 36 35  1  0  0  0  0
 38 36  1  0  0  0  0
 39 38  1  0  0  0  0
 39 33  1  0  0  0  0
 40 39  2  0  0  0  0
 41 38  1  0  0  0  0
M  END
>  <minimizedAffinity>
-4.99448442

>  <minimizedRMSD>
1.00156128

$$$$
