
 OpenBabel03272510163D

 29 31  0  0  0  0  0  0  0  0999 V2000
   37.2730   29.4620   51.1720 Br  0  0  0  0  0  0  0  0  0  0  0  0
   36.0440   29.2840   49.7250 C   0  0  0  0  0  0  0  0  0  0  0  0
   36.1050   30.1260   48.6350 C   0  0  0  0  0  0  0  0  0  0  0  0
   35.1750   29.9300   47.6260 C   0  0  0  0  0  0  0  0  0  0  0  0
   34.2050   28.9350   47.6740 C   0  0  0  0  0  0  0  0  0  0  0  0
   34.1840   28.1250   48.7780 C   0  0  0  0  0  0  0  0  0  0  0  0
   35.0990   28.3020   49.7910 C   0  0  0  0  0  0  0  0  0  0  0  0
   35.2690   30.6270   46.7850 H   0  0  0  0  0  0  0  0  0  0  0  0
   33.4130   27.3700   48.7670 H   0  0  0  0  0  0  0  0  0  0  0  0
   35.0120   27.6150   50.6290 H   0  0  0  0  0  0  0  0  0  0  0  0
   33.3490   28.9050   46.5360 N   0  0  0  0  0  0  0  0  0  0  0  0
   33.6370   29.2130   45.2610 C   0  0  0  0  0  3  0  0  0  0  0  0
   32.6340   29.1070   44.3210 C   0  0  0  0  0  0  0  0  0  0  0  0
   32.9020   29.3650   43.2970 H   0  0  0  0  0  0  0  0  0  0  0  0
   31.3540   28.6910   44.6730 C   0  0  0  0  0  0  0  0  0  0  0  0
   30.4550   28.6040   43.7790 O   0  0  0  0  0  0  0  0  0  0  0  0
   31.1140   28.3920   45.9680 N   0  0  0  0  0  0  0  0  0  0  0  0
   32.0970   28.4970   46.8900 C   0  0  0  0  0  0  0  0  0  0  0  0
   31.7130   28.1830   48.0440 O   0  0  0  0  0  0  0  0  0  0  0  0
   30.1370   28.0850   46.1800 H   0  0  0  0  0  0  0  0  0  0  0  0
   37.9640   33.1650   49.3960 C   0  0  0  0  0  0  0  0  0  0  0  0
   38.9930   33.1800   48.4350 C   0  0  0  0  0  0  0  0  0  0  0  0
   39.0360   32.1340   47.5260 C   0  0  0  0  0  0  0  0  0  0  0  0
   38.0880   31.1500   47.6070 N   0  0  0  0  0  0  0  0  0  0  0  0
   37.1090   31.1760   48.5560 C   0  0  0  0  0  0  0  0  0  0  0  0
   37.0580   32.1820   49.4390 N   0  0  0  0  0  0  0  0  0  0  0  0
   37.9850   34.0060   50.0740 H   0  0  0  0  0  0  0  0  0  0  0  0
   39.7600   33.9000   48.3060 H   0  0  0  0  0  0  0  0  0  0  0  0
   39.7350   31.9610   46.7200 H   0  0  0  0  0  0  0  0  0  0  0  0
  2  7  1  0  0  0  0
  2  1  1  0  0  0  0
  3  2  2  0  0  0  0
  4  5  2  0  0  0  0
  4  3  1  0  0  0  0
  5  6  1  0  0  0  0
  6  7  2  0  0  0  0
  7 10  1  0  0  0  0
  8  4  1  0  0  0  0
  9  6  1  0  0  0  0
 11 18  1  0  0  0  0
 11  5  1  0  0  0  0
 12 11  1  0  0  0  0
 13 15  1  0  0  0  0
 13 12  2  0  0  0  0
 14 13  1  0  0  0  0
 15 17  1  0  0  0  0
 16 15  2  0  0  0  0
 17 20  1  0  0  0  0
 17 18  1  0  0  0  0
 18 19  2  0  0  0  0
 21 26  1  0  0  0  0
 21 27  1  0  0  0  0
 22 21  2  0  0  0  0
 23 24  2  0  0  0  0
 23 22  1  0  0  0  0
 24 25  1  0  0  0  0
 25  3  1  0  0  0  0
 25 26  2  0  0  0  0
 28 22  1  0  0  0  0
 29 23  1  0  0  0  0
M  END
>  <minimizedAffinity>
-5.94124842

>  <minimizedRMSD>
0.42552954

$$$$
