
     RDKit          3D

 21 22  0  0  0  0  0  0  0  0999 V2000
   37.3062   29.9916   51.1868 C   0  0  0  0  0  0  0  0  0  0  0  0
   37.9516   30.9124   50.3599 C   0  0  0  0  0  0  0  0  0  0  0  0
   37.2712   31.3905   49.2269 C   0  0  0  0  0  0  0  0  0  0  0  0
   36.0115   30.9299   48.9916 N   0  0  0  0  0  0  0  0  0  0  0  0
   35.4086   30.0318   49.8165 C   0  0  0  0  0  0  0  0  0  0  0  0
   36.0577   29.5798   50.8917 N   0  0  0  0  0  0  0  0  0  0  0  0
   38.0871   29.6080   52.2585 O   0  0  0  0  0  0  0  0  0  0  0  0
   38.9674   31.2962   50.5327 H   0  0  0  0  0  0  0  0  0  0  0  0
   37.7329   32.0996   48.5657 H   0  0  0  0  0  0  0  0  0  0  0  0
   37.5728   29.3130   53.0969 H   0  0  0  0  0  0  0  0  0  0  0  0
   34.0923   29.5475   49.5747 N   0  0  0  0  0  0  0  0  0  0  0  0
   33.7097   29.0325   48.3951 C   0  0  0  0  0  0  0  0  0  0  0  0
   32.3942   28.5875   48.2696 C   0  0  0  0  0  0  0  0  0  0  0  0
   32.1207   28.1777   47.3027 H   0  0  0  0  0  0  0  0  0  0  0  0
   31.5365   28.6813   49.3253 C   0  0  0  0  0  0  0  0  0  0  0  0
   30.3555   28.2867   49.2270 O   0  0  0  0  0  0  0  0  0  0  0  0
   31.9754   29.2088   50.4910 N   0  0  0  0  0  0  0  0  0  0  0  0
   33.2572   29.6483   50.6309 C   0  0  0  0  0  0  0  0  0  0  0  0
   33.5513   30.1181   51.7571 O   0  0  0  0  0  0  0  0  0  0  0  0
   34.4448   28.9902   47.6032 H   0  0  0  0  0  0  0  0  0  0  0  0
   31.2753   29.2593   51.2757 H   0  0  0  0  0  0  0  0  0  0  0  0
  1  7  1  0
  2  1  2  0
  3  2  1  0
  4  3  2  0
  4  5  1  0
  5  6  2  0
  6  1  1  0
  2  8  1  0
  3  9  1  0
  7 10  1  0
 11 12  1  0
 12 13  2  0
 13 14  1  0
 13 15  1  0
 15 16  2  0
 15 17  1  0
 17 18  1  0
 18 19  2  0
 18 11  1  0
 12 20  1  0
 17 21  1  0
  5 11  1  0
M  ISO  4   8  14   9  14  10   3  14  16
M  END
>  <DihAtoms>  (1) 
3,4,10,11

>  <DihDeg>  (1) 
81.57669720374714

$$$$
