
     RDKit          3D

 35 37  0  0  0  0  0  0  0  0999 V2000
   37.9920   31.3959   47.6398 C   0  0  0  0  0  0  0  0  0  0  0  0
   37.0757   31.3297   48.6775 C   0  0  0  0  0  0  0  0  0  0  0  0
   37.1977   32.3513   49.6223 C   0  0  0  0  0  0  0  0  0  0  0  0
   38.1790   33.3477   49.5007 C   0  0  0  0  0  0  0  0  0  0  0  0
   39.0544   33.3204   48.4119 C   0  0  0  0  0  0  0  0  0  0  0  0
   38.9571   32.3248   47.4646 C   0  0  0  0  0  0  0  0  0  0  0  0
   34.9372   30.3469   47.9861 C   0  0  0  0  0  0  0  0  0  0  0  0
   36.0768   30.3100   48.7955 C   0  0  0  0  0  0  0  0  0  0  0  0
   36.2007   29.2599   49.7062 C   0  0  0  0  0  0  0  0  0  0  0  0
   35.1980   28.3338   49.7478 N   0  0  0  0  0  0  0  0  0  0  0  0
   34.1108   28.4071   48.9457 C   0  0  0  0  0  0  0  0  0  0  0  0
   33.9779   29.4129   48.0637 N   0  0  0  0  0  0  0  0  0  0  0  0
   37.3741   29.1637   50.5852 C   0  0  0  0  0  0  0  0  0  0  0  0
   37.9416   30.3940   46.6341 O   0  0  0  0  0  0  0  0  0  0  0  0
   39.8431   32.3457   46.4161 O   0  0  0  0  0  0  0  0  0  0  0  0
   36.5141   32.3525   50.4505 H   0  0  0  0  0  0  0  0  0  0  0  0
   38.2586   34.1300   50.2412 H   0  0  0  0  0  0  0  0  0  0  0  0
   39.8035   34.0905   48.3292 H   0  0  0  0  0  0  0  0  0  0  0  0
   34.8514   31.1681   47.2815 H   0  0  0  0  0  0  0  0  0  0  0  0
   33.3659   27.6319   49.0452 H   0  0  0  0  0  0  0  0  0  0  0  0
   37.2357   29.6859   51.5616 H   0  0  0  0  0  0  0  0  0  0  0  0
   37.7205   28.1319   50.7808 H   0  0  0  0  0  0  0  0  0  0  0  0
   38.2241   29.6968   50.0901 H   0  0  0  0  0  0  0  0  0  0  0  0
   37.0638   30.1473   46.1921 H   0  0  0  0  0  0  0  0  0  0  0  0
   38.9272   34.1988   42.3939 H   0  0  0  0  0  0  0  0  0  0  0  0
   38.8524   33.3413   43.0008 N   0  0  0  0  0  0  0  0  0  0  0  0
   39.3988   33.5134   44.2127 C   0  0  0  0  0  0  0  0  0  0  0  0
   39.3835   32.4877   45.1257 C   0  0  0  0  0  0  0  0  0  0  0  0
   38.7846   31.2934   44.7286 C   0  0  0  0  0  0  0  0  0  0  0  0
   38.6517   30.2262   45.3838 O   0  0  0  0  0  0  0  0  0  0  0  0
   38.2351   31.1442   43.4873 N   0  0  0  0  0  0  0  0  0  0  0  0
   38.2769   32.1950   42.6185 C   0  0  0  0  0  0  0  0  0  0  0  0
   37.8239   32.2241   41.4545 O   0  0  0  0  0  0  0  0  0  0  0  0
   39.8888   34.3895   44.6100 H   0  0  0  0  0  0  0  0  0  0  0  0
   37.7772   30.3137   43.1072 H   0  0  0  0  0  0  0  0  0  0  0  0
  1  2  2  0
  2  8  1  0
  2  3  1  0
  4  3  2  0
  5  4  1  0
  6  1  1  0
  6  5  2  0
  7 12  2  0
  7  8  1  0
  8  9  2  0
  9 10  1  0
  9 13  1  0
 11 10  2  0
 12 11  1  0
 14  1  1  0
 15  6  1  0
  3 16  1  0
  4 17  1  0
  5 18  1  0
  7 19  1  0
 11 20  1  0
 13 21  1  0
 13 22  1  0
 13 23  1  0
 14 24  1  0
 25 26  1  0
 26 27  1  0
 27 28  2  0
 28 29  1  0
 29 30  2  0
 29 31  1  0
 31 32  1  0
 32 33  2  0
 32 26  1  0
 27 34  1  0
 31 35  1  0
 15 28  1  0
M  ISO  8  16  14  17  14  18  14  19  14  20  14  21   8  22   8  23   8
M  ISO  2  24   3  25   9
M  END
>  <DihAtoms>  (1) 
5,14,27,26

>  <DihDeg>  (1) 
1.5551334582796514

$$$$
