
 OpenBabel03272503063D

 33 35  0  0  0  0  0  0  0  0999 V2000
   38.4310   30.4140   47.3710 F   0  0  0  0  0  0  0  0  0  0  0  0
   38.7260   31.6410   47.8360 C   0  0  0  0  0  0  0  0  0  0  0  0
   38.2140   32.0490   49.0370 C   0  0  0  0  0  0  0  0  0  0  0  0
   38.5530   33.3150   49.4610 C   0  0  0  0  0  0  0  0  0  0  0  0
   39.3700   34.1550   48.7320 C   0  0  0  0  0  0  0  0  0  0  0  0
   39.8790   33.7270   47.5220 C   0  0  0  0  0  0  0  0  0  0  0  0
   39.5460   32.4640   47.0870 C   0  0  0  0  0  0  0  0  0  0  0  0
   38.1480   33.6450   50.4160 H   0  0  0  0  0  0  0  0  0  0  0  0
   39.6300   35.1490   49.0770 H   0  0  0  0  0  0  0  0  0  0  0  0
   40.5180   34.3300   46.9090 H   0  0  0  0  0  0  0  0  0  0  0  0
   36.9260   29.5860   51.5950 C   0  0  0  0  0  0  0  0  0  0  0  0
   37.7840   30.4650   50.9130 C   0  0  0  0  0  0  0  0  0  0  0  0
   37.3580   31.1320   49.7720 C   0  0  0  0  0  0  0  0  0  0  0  0
   36.0720   30.8950   49.3470 N   0  0  0  0  0  0  0  0  0  0  0  0
   35.2640   30.0500   50.0140 C   0  0  0  0  0  0  0  0  0  0  0  0
   35.6760   29.4100   51.1110 N   0  0  0  0  0  0  0  0  0  0  0  0
   37.2760   29.0750   52.4830 H   0  0  0  0  0  0  0  0  0  0  0  0
   38.7720   30.6150   51.2810 H   0  0  0  0  0  0  0  0  0  0  0  0
   34.2820   29.9610   49.5680 H   0  0  0  0  0  0  0  0  0  0  0  0
   39.1310   32.0250   44.7410 C   0  0  0  0  0  0  0  0  0  0  0  0
   37.9920   32.5210   45.0750 O   0  0  0  0  0  0  0  0  0  0  0  0
   40.0450   31.9700   45.8270 N   0  0  0  0  0  0  0  0  0  0  0  0
   40.9850   31.5950   45.6710 H   0  0  0  0  0  0  0  0  0  0  0  0
   39.9000   28.6720   41.8740 H   0  0  0  0  0  0  0  0  0  0  0  0
   39.7770   29.7010   41.9700 N   0  0  0  0  0  0  0  0  0  0  0  0
   39.5470   30.2170   43.1870 C   0  0  0  0  0  3  0  0  0  0  0  0
   39.3730   31.5930   43.3840 C   0  0  0  0  0  0  0  0  0  0  0  0
   39.4630   32.3250   42.2210 C   0  0  0  0  0  0  0  0  0  0  0  0
   39.3170   33.5440   42.3420 O   0  0  0  0  0  0  0  0  0  0  0  0
   39.6940   31.7960   41.0090 N   0  0  0  0  0  0  0  0  0  0  0  0
   39.8550   30.4700   40.8680 C   0  0  0  0  0  0  0  0  0  0  0  0
   40.0700   29.9250   39.7710 O   0  0  0  0  0  0  0  0  0  0  0  0
   39.7450   32.4330   40.1900 H   0  0  0  0  0  0  0  0  0  0  0  0
  1  2  1  0  0  0  0
  2  3  1  0  0  0  0
  3  4  2  0  0  0  0
  3 13  1  0  0  0  0
  4  8  1  0  0  0  0
  5  9  1  0  0  0  0
  5  4  1  0  0  0  0
  6  5  2  0  0  0  0
  7  6  1  0  0  0  0
  7  2  2  0  0  0  0
 10  6  1  0  0  0  0
 11 17  1  0  0  0  0
 12 18  1  0  0  0  0
 12 11  2  0  0  0  0
 13 12  1  0  0  0  0
 14 13  2  0  0  0  0
 14 15  1  0  0  0  0
 15 16  2  0  0  0  0
 16 11  1  0  0  0  0
 19 15  1  0  0  0  0
 20 21  2  0  0  0  0
 20 22  1  0  0  0  0
 22  7  1  0  0  0  0
 23 22  1  0  0  0  0
 24 25  1  0  0  0  0
 25 26  1  0  0  0  0
 26 27  2  0  0  0  0
 27 20  1  0  0  0  0
 28 29  2  0  0  0  0
 28 27  1  0  0  0  0
 30 28  1  0  0  0  0
 31 30  1  0  0  0  0
 31 25  1  0  0  0  0
 32 31  2  0  0  0  0
 33 30  1  0  0  0  0
M  END
>  <minimizedAffinity>
-6.74812126

>  <minimizedRMSD>
0.203219101

$$$$
