
     RDKit          3D

 34 36  0  0  0  0  0  0  0  0999 V2000
   38.4544   30.4434   47.3131 F   0  0  0  0  0  0  0  0  0  0  0  0
   38.7503   31.6656   47.7883 C   0  0  0  0  0  0  0  0  0  0  0  0
   38.2347   32.0671   48.9888 C   0  0  0  0  0  0  0  0  0  0  0  0
   38.5751   33.3293   49.4232 C   0  0  0  0  0  0  0  0  0  0  0  0
   39.3964   34.1731   48.7025 C   0  0  0  0  0  0  0  0  0  0  0  0
   39.9088   33.7525   47.4920 C   0  0  0  0  0  0  0  0  0  0  0  0
   39.5751   32.4923   47.0475 C   0  0  0  0  0  0  0  0  0  0  0  0
   36.9277   29.5994   51.5330 C   0  0  0  0  0  0  0  0  0  0  0  0
   37.7911   30.4811   50.8599 C   0  0  0  0  0  0  0  0  0  0  0  0
   37.3741   31.1473   49.7149 C   0  0  0  0  0  0  0  0  0  0  0  0
   36.0927   30.9061   49.2773 N   0  0  0  0  0  0  0  0  0  0  0  0
   35.2807   30.0585   49.9351 C   0  0  0  0  0  0  0  0  0  0  0  0
   35.6845   29.4194   51.0357 N   0  0  0  0  0  0  0  0  0  0  0  0
   39.2000   32.1521   44.6782 C   0  0  0  0  0  0  0  0  0  0  0  0
   38.0850   32.7100   44.9970 O   0  0  0  0  0  0  0  0  0  0  0  0
   40.0772   32.0058   45.7855 N   0  0  0  0  0  0  0  0  0  0  0  0
   38.1669   33.6537   50.3788 H   0  0  0  0  0  0  0  0  0  0  0  0
   39.6575   35.1645   49.0547 H   0  0  0  0  0  0  0  0  0  0  0  0
   40.5508   34.3570   46.8847 H   0  0  0  0  0  0  0  0  0  0  0  0
   37.2710   29.0888   52.4247 H   0  0  0  0  0  0  0  0  0  0  0  0
   38.7737   30.6341   51.2385 H   0  0  0  0  0  0  0  0  0  0  0  0
   34.3038   29.9656   49.4790 H   0  0  0  0  0  0  0  0  0  0  0  0
   40.9954   31.5761   45.6424 H   0  0  0  0  0  0  0  0  0  0  0  0
   39.5246   28.8538   41.6665 H   0  0  0  0  0  0  0  0  0  0  0  0
   39.5921   29.8822   41.8156 N   0  0  0  0  0  0  0  0  0  0  0  0
   39.3767   30.3740   43.0463 C   0  0  0  0  0  0  0  0  0  0  0  0
   39.4523   31.7474   43.3145 C   0  0  0  0  0  0  0  0  0  0  0  0
   39.7623   32.5021   42.2055 C   0  0  0  0  0  0  0  0  0  0  0  0
   39.8404   33.7195   42.3908 O   0  0  0  0  0  0  0  0  0  0  0  0
   39.9751   31.9971   40.9804 N   0  0  0  0  0  0  0  0  0  0  0  0
   39.8919   30.6727   40.7703 C   0  0  0  0  0  0  0  0  0  0  0  0
   40.0793   30.1495   39.6567 O   0  0  0  0  0  0  0  0  0  0  0  0
   39.1385   29.6574   43.8373 H   0  0  0  0  0  0  0  0  0  0  0  0
   40.2036   32.6496   40.2065 H   0  0  0  0  0  0  0  0  0  0  0  0
  1  2  1  0
  2  3  2  0
  3  4  1  0
  3 10  1  0
  5  4  2  0
  6  5  1  0
  7  6  2  0
  7  2  1  0
  9  8  2  0
 10  9  1  0
 11 10  2  0
 11 12  1  0
 12 13  2  0
 13  8  1  0
 14 15  2  0
 14 16  1  0
 16  7  1  0
  4 17  1  0
  5 18  1  0
  6 19  1  0
  8 20  1  0
  9 21  1  0
 12 22  1  0
 16 23  1  0
 24 25  1  0
 25 26  1  0
 26 27  2  0
 27 28  1  0
 28 29  2  0
 28 30  1  0
 30 31  1  0
 31 32  2  0
 31 25  1  0
 26 33  1  0
 30 34  1  0
 14 27  1  0
M  ISO  7  17  14  18  14  19  14  20  14  21  14  22  14  24   9
M  END
>  <DihAtoms>  (1) 
14,13,26,25

>  <DihDeg>  (1) 
0.0026947564585745377

$$$$
