
 OpenBabel03272504203D

 28 29  0  0  0  0  0  0  0  0999 V2000
   36.6790   27.2850   34.9780 O   0  0  0  0  0  0  0  0  0  0  0  0
   37.9620   26.5280   35.2770 P   0  0  2  0  0  0  0  0  0  0  0  0
   38.8750   27.5450   36.3020 O   0  0  0  0  0  0  0  0  0  0  0  0
   38.2670   28.0040   36.9470 H   0  0  0  0  0  0  0  0  0  0  0  0
   38.8160   26.2460   33.8470 O   0  0  0  0  0  0  0  0  0  0  0  0
   37.9790   26.5260   32.7940 C   0  0  0  0  0  0  0  0  0  0  0  0
   37.1950   27.2890   33.0570 H   0  0  0  0  0  0  0  0  0  0  0  0
   38.5870   27.0240   32.0030 H   0  0  0  0  0  0  0  0  0  0  0  0
   37.2450   25.3360   32.2920 C   0  0  0  0  0  0  0  0  0  0  0  0
   36.0390   25.5490   31.6290 C   0  0  0  0  0  0  0  0  0  0  0  0
   35.3250   24.4590   31.1450 C   0  0  0  0  0  0  0  0  0  0  0  0
   35.8650   23.2210   31.3550 N   0  0  0  0  0  0  0  0  0  0  0  0
   37.0310   23.0420   31.9980 C   0  0  0  0  0  0  0  0  0  0  0  0
   37.7200   24.0950   32.4650 N   0  0  0  0  0  0  0  0  0  0  0  0
   35.6460   26.5360   31.4830 H   0  0  0  0  0  0  0  0  0  0  0  0
   34.3800   24.5590   30.6210 H   0  0  0  0  0  0  0  0  0  0  0  0
   37.3910   22.0170   32.1230 H   0  0  0  0  0  0  0  0  0  0  0  0
   37.5530   25.1010   36.0670 O   0  0  0  0  0  0  0  0  0  0  0  0
   40.9770   22.3810   35.4350 H   0  0  0  0  0  0  0  0  0  0  0  0
   40.2800   22.7940   36.0700 N   0  0  0  0  0  0  0  0  0  0  0  0
   39.3400   23.6870   35.7180 C   0  0  0  0  0  3  0  0  0  0  0  0
   38.4210   24.2090   36.6340 C   0  0  0  0  0  0  0  0  0  0  0  0
   38.5260   23.7570   37.9370 C   0  0  0  0  0  0  0  0  0  0  0  0
   37.6610   24.2740   38.7030 O   0  0  0  0  0  0  0  0  0  0  0  0
   39.4710   22.8620   38.2790 N   0  0  0  0  0  0  0  0  0  0  0  0
   40.3350   22.3850   37.3670 C   0  0  0  0  0  0  0  0  0  0  0  0
   41.1960   21.5520   37.7480 O   0  0  0  0  0  0  0  0  0  0  0  0
   39.4800   22.5710   39.2940 H   0  0  0  0  0  0  0  0  0  0  0  0
  2  1  2  6  0  0  0
  2 18  1  0  0  0  0
  2  3  1  0  0  0  0
  3  4  1  0  0  0  0
  5  2  1  0  0  0  0
  6  7  1  0  0  0  0
  6  5  1  0  0  0  0
  8  6  1  0  0  0  0
  9 14  1  0  0  0  0
  9  6  1  0  0  0  0
 10  9  2  0  0  0  0
 11 12  2  0  0  0  0
 11 10  1  0  0  0  0
 12 13  1  0  0  0  0
 13 17  1  0  0  0  0
 13 14  2  0  0  0  0
 15 10  1  0  0  0  0
 16 11  1  0  0  0  0
 18 22  1  0  0  0  0
 19 20  1  0  0  0  0
 20 26  1  0  0  0  0
 21 20  1  0  0  0  0
 21 22  2  0  0  0  0
 22 23  1  0  0  0  0
 23 25  1  0  0  0  0
 23 24  2  0  0  0  0
 25 28  1  0  0  0  0
 26 27  2  0  0  0  0
 26 25  1  0  0  0  0
M  END
>  <minimizedAffinity>
-5.51651287

$$$$

 OpenBabel03272504203D

 28 29  0  0  0  0  0  0  0  0999 V2000
   36.7040   27.2820   34.9670 O   0  0  0  0  0  0  0  0  0  0  0  0
   38.0000   26.5610   35.2980 P   0  0  2  0  0  0  0  0  0  0  0  0
   38.7730   27.5140   36.4870 O   0  0  0  0  0  0  0  0  0  0  0  0
   38.0920   27.8770   37.1200 H   0  0  0  0  0  0  0  0  0  0  0  0
   38.9770   26.4630   33.9230 O   0  0  0  0  0  0  0  0  0  0  0  0
   38.2370   25.8880   32.9200 C   0  0  0  0  0  0  0  0  0  0  0  0
   38.7240   24.9670   32.4960 H   0  0  0  0  0  0  0  0  0  0  0  0
   37.2900   25.5090   33.3740 H   0  0  0  0  0  0  0  0  0  0  0  0
   37.9990   26.7960   31.7690 C   0  0  0  0  0  0  0  0  0  0  0  0
   39.0940   27.1530   30.9860 C   0  0  0  0  0  0  0  0  0  0  0  0
   38.9080   28.0010   29.9000 C   0  0  0  0  0  0  0  0  0  0  0  0
   37.6350   28.4390   29.6660 N   0  0  0  0  0  0  0  0  0  0  0  0
   36.5950   28.0800   30.4360 C   0  0  0  0  0  0  0  0  0  0  0  0
   36.7750   27.2610   31.4840 N   0  0  0  0  0  0  0  0  0  0  0  0
   40.0800   26.7900   31.2010 H   0  0  0  0  0  0  0  0  0  0  0  0
   39.7200   28.3160   29.2530 H   0  0  0  0  0  0  0  0  0  0  0  0
   35.6090   28.4760   30.1770 H   0  0  0  0  0  0  0  0  0  0  0  0
   37.6110   25.0450   35.9120 O   0  0  0  0  0  0  0  0  0  0  0  0
   41.0800   22.3540   35.4110 H   0  0  0  0  0  0  0  0  0  0  0  0
   40.3600   22.7650   36.0200 N   0  0  0  0  0  0  0  0  0  0  0  0
   39.4220   23.6450   35.6310 C   0  0  0  0  0  3  0  0  0  0  0  0
   38.4710   24.1670   36.5140 C   0  0  0  0  0  0  0  0  0  0  0  0
   38.5420   23.7290   37.8240 C   0  0  0  0  0  0  0  0  0  0  0  0
   37.6490   24.2450   38.5580 O   0  0  0  0  0  0  0  0  0  0  0  0
   39.4840   22.8470   38.2030 N   0  0  0  0  0  0  0  0  0  0  0  0
   40.3800   22.3700   37.3220 C   0  0  0  0  0  0  0  0  0  0  0  0
   41.2370   21.5490   37.7370 O   0  0  0  0  0  0  0  0  0  0  0  0
   39.4660   22.5670   39.2200 H   0  0  0  0  0  0  0  0  0  0  0  0
  2  1  2  6  0  0  0
  2 18  1  0  0  0  0
  2  3  1  0  0  0  0
  3  4  1  0  0  0  0
  5  2  1  0  0  0  0
  6  8  1  0  0  0  0
  6  5  1  0  0  0  0
  7  6  1  0  0  0  0
  9  6  1  0  0  0  0
 10 15  1  0  0  0  0
 10  9  2  0  0  0  0
 11 10  1  0  0  0  0
 12 11  2  0  0  0  0
 12 13  1  0  0  0  0
 13 14  2  0  0  0  0
 14  9  1  0  0  0  0
 16 11  1  0  0  0  0
 17 13  1  0  0  0  0
 18 22  1  0  0  0  0
 19 20  1  0  0  0  0
 20 26  1  0  0  0  0
 21 20  1  0  0  0  0
 21 22  2  0  0  0  0
 22 23  1  0  0  0  0
 23 25  1  0  0  0  0
 23 24  2  0  0  0  0
 25 28  1  0  0  0  0
 26 27  2  0  0  0  0
 26 25  1  0  0  0  0
M  END
>  <minimizedAffinity>
-5.11694336

$$$$

 OpenBabel03272504203D

 28 29  0  0  0  0  0  0  0  0999 V2000
   36.6870   26.9890   34.9080 O   0  0  0  0  0  0  0  0  0  0  0  0
   37.9930   26.3740   35.3820 P   0  0  2  0  0  0  0  0  0  0  0  0
   38.5170   27.3420   36.6880 O   0  0  0  0  0  0  0  0  0  0  0  0
   37.7300   27.6150   37.2390 H   0  0  0  0  0  0  0  0  0  0  0  0
   39.1400   26.4220   34.1420 O   0  0  0  0  0  0  0  0  0  0  0  0
   40.2680   27.0290   34.6360 C   0  0  0  0  0  0  0  0  0  0  0  0
   40.3120   28.1260   34.3900 H   0  0  0  0  0  0  0  0  0  0  0  0
   40.2050   27.0040   35.7500 H   0  0  0  0  0  0  0  0  0  0  0  0
   41.5290   26.4390   34.1190 C   0  0  0  0  0  0  0  0  0  0  0  0
   42.2360   25.5790   34.9560 C   0  0  0  0  0  0  0  0  0  0  0  0
   43.4200   25.0080   34.5050 C   0  0  0  0  0  0  0  0  0  0  0  0
   43.8240   25.3340   33.2400 N   0  0  0  0  0  0  0  0  0  0  0  0
   43.1240   26.1670   32.4520 C   0  0  0  0  0  0  0  0  0  0  0  0
   41.9810   26.7170   32.8880 N   0  0  0  0  0  0  0  0  0  0  0  0
   41.8880   25.3460   35.9440 H   0  0  0  0  0  0  0  0  0  0  0  0
   44.0160   24.3310   35.1080 H   0  0  0  0  0  0  0  0  0  0  0  0
   43.5190   26.3730   31.4530 H   0  0  0  0  0  0  0  0  0  0  0  0
   37.6750   24.8050   35.8950 O   0  0  0  0  0  0  0  0  0  0  0  0
   41.1330   22.1020   35.3880 H   0  0  0  0  0  0  0  0  0  0  0  0
   40.4330   22.5370   36.0040 N   0  0  0  0  0  0  0  0  0  0  0  0
   39.4800   23.3980   35.6100 C   0  0  0  0  0  3  0  0  0  0  0  0
   38.5570   23.9540   36.5030 C   0  0  0  0  0  0  0  0  0  0  0  0
   38.6730   23.5710   37.8270 C   0  0  0  0  0  0  0  0  0  0  0  0
   37.8040   24.1160   38.5690 O   0  0  0  0  0  0  0  0  0  0  0  0
   39.6310   22.7080   38.2100 N   0  0  0  0  0  0  0  0  0  0  0  0
   40.4980   22.1960   37.3200 C   0  0  0  0  0  0  0  0  0  0  0  0
   41.3720   21.3940   37.7390 O   0  0  0  0  0  0  0  0  0  0  0  0
   39.6480   22.4690   39.2380 H   0  0  0  0  0  0  0  0  0  0  0  0
  2  1  2  6  0  0  0
  2 18  1  0  0  0  0
  2  3  1  0  0  0  0
  3  4  1  0  0  0  0
  5  6  1  0  0  0  0
  5  2  1  0  0  0  0
  6  8  1  0  0  0  0
  7  6  1  0  0  0  0
  9  6  1  0  0  0  0
  9 10  1  0  0  0  0
 10 15  1  0  0  0  0
 11 10  2  0  0  0  0
 11 16  1  0  0  0  0
 12 11  1  0  0  0  0
 13 14  1  0  0  0  0
 13 12  2  0  0  0  0
 14  9  2  0  0  0  0
 17 13  1  0  0  0  0
 18 22  1  0  0  0  0
 19 20  1  0  0  0  0
 20 26  1  0  0  0  0
 21 20  1  0  0  0  0
 21 22  2  0  0  0  0
 22 23  1  0  0  0  0
 23 25  1  0  0  0  0
 23 24  2  0  0  0  0
 25 28  1  0  0  0  0
 26 27  2  0  0  0  0
 26 25  1  0  0  0  0
M  END
>  <minimizedAffinity>
-4.78874874

$$$$

 OpenBabel03272504203D

 28 29  0  0  0  0  0  0  0  0999 V2000
   39.7520   26.2050   34.7990 O   0  0  0  0  0  0  0  0  0  0  0  0
   38.4020   26.3670   35.4760 P   0  0  2  0  0  0  0  0  0  0  0  0
   38.3720   27.9660   36.0770 O   0  0  0  0  0  0  0  0  0  0  0  0
   38.8090   28.5790   35.4220 H   0  0  0  0  0  0  0  0  0  0  0  0
   38.2590   25.2740   36.7560 O   0  0  0  0  0  0  0  0  0  0  0  0
   38.0490   24.0260   36.2230 C   0  0  0  0  0  0  0  0  0  0  0  0
   37.2490   23.4530   36.7680 H   0  0  0  0  0  0  0  0  0  0  0  0
   37.6320   24.1630   35.1970 H   0  0  0  0  0  0  0  0  0  0  0  0
   39.2590   23.1660   36.2410 C   0  0  0  0  0  0  0  0  0  0  0  0
   39.7720   22.7940   37.4810 C   0  0  0  0  0  0  0  0  0  0  0  0
   40.9050   21.9890   37.5370 C   0  0  0  0  0  0  0  0  0  0  0  0
   41.4520   21.6050   36.3450 N   0  0  0  0  0  0  0  0  0  0  0  0
   40.9380   21.9780   35.1610 C   0  0  0  0  0  0  0  0  0  0  0  0
   39.8450   22.7550   35.1090 N   0  0  0  0  0  0  0  0  0  0  0  0
   39.3160   23.1150   38.3970 H   0  0  0  0  0  0  0  0  0  0  0  0
   41.3530   21.6650   38.4710 H   0  0  0  0  0  0  0  0  0  0  0  0
   41.4390   21.6260   34.2560 H   0  0  0  0  0  0  0  0  0  0  0  0
   37.2070   26.1460   34.3140 O   0  0  0  0  0  0  0  0  0  0  0  0
   37.7030   26.1660   29.9230 H   0  0  0  0  0  0  0  0  0  0  0  0
   37.4130   26.6510   30.7830 N   0  0  0  0  0  0  0  0  0  0  0  0
   37.4730   26.1370   32.0230 C   0  0  0  0  0  3  0  0  0  0  0  0
   37.0620   26.8550   33.1520 C   0  0  0  0  0  0  0  0  0  0  0  0
   36.5850   28.1330   32.9290 C   0  0  0  0  0  0  0  0  0  0  0  0
   36.2340   28.7150   33.9980 O   0  0  0  0  0  0  0  0  0  0  0  0
   36.5300   28.6380   31.6840 N   0  0  0  0  0  0  0  0  0  0  0  0
   36.9350   27.9160   30.6250 C   0  0  0  0  0  0  0  0  0  0  0  0
   36.8590   28.4420   29.4860 O   0  0  0  0  0  0  0  0  0  0  0  0
   36.1530   29.6210   31.6040 H   0  0  0  0  0  0  0  0  0  0  0  0
  2  1  2  6  0  0  0
  2  3  1  0  0  0  0
  2  5  1  0  0  0  0
  4  3  1  0  0  0  0
  6  9  1  0  0  0  0
  6  5  1  0  0  0  0
  6  7  1  0  0  0  0
  8  6  1  0  0  0  0
  9 10  1  0  0  0  0
 10 11  2  0  0  0  0
 10 15  1  0  0  0  0
 11 16  1  0  0  0  0
 12 11  1  0  0  0  0
 13 12  2  0  0  0  0
 14 13  1  0  0  0  0
 14  9  2  0  0  0  0
 17 13  1  0  0  0  0
 18  2  1  0  0  0  0
 19 20  1  0  0  0  0
 20 21  1  0  0  0  0
 21 22  2  0  0  0  0
 22 18  1  0  0  0  0
 23 22  1  0  0  0  0
 23 24  2  0  0  0  0
 25 23  1  0  0  0  0
 26 20  1  0  0  0  0
 26 25  1  0  0  0  0
 27 26  2  0  0  0  0
 28 25  1  0  0  0  0
M  END
>  <minimizedAffinity>
-4.72016621

$$$$

 OpenBabel03272504203D

 28 29  0  0  0  0  0  0  0  0999 V2000
   38.3130   26.8520   36.7380 O   0  0  0  0  0  0  0  0  0  0  0  0
   38.1890   26.1400   35.4020 P   0  0  2  0  0  0  0  0  0  0  0  0
   39.6410   26.4680   34.5630 O   0  0  0  0  0  0  0  0  0  0  0  0
   40.4080   26.4500   35.2010 H   0  0  0  0  0  0  0  0  0  0  0  0
   36.8780   26.7580   34.5330 O   0  0  0  0  0  0  0  0  0  0  0  0
   37.0520   26.4210   33.2130 C   0  0  0  0  0  0  0  0  0  0  0  0
   38.1100   26.1180   32.9790 H   0  0  0  0  0  0  0  0  0  0  0  0
   36.4570   25.4970   33.0190 H   0  0  0  0  0  0  0  0  0  0  0  0
   36.7220   27.5250   32.2760 C   0  0  0  0  0  0  0  0  0  0  0  0
   37.4370   27.6000   31.0830 C   0  0  0  0  0  0  0  0  0  0  0  0
   37.1550   28.6200   30.1820 C   0  0  0  0  0  0  0  0  0  0  0  0
   36.1710   29.5020   30.5310 N   0  0  0  0  0  0  0  0  0  0  0  0
   35.4950   29.4080   31.6880 C   0  0  0  0  0  0  0  0  0  0  0  0
   35.7680   28.4230   32.5580 N   0  0  0  0  0  0  0  0  0  0  0  0
   38.2040   26.8890   30.8430 H   0  0  0  0  0  0  0  0  0  0  0  0
   37.6770   28.7330   29.2370 H   0  0  0  0  0  0  0  0  0  0  0  0
   34.7240   30.1560   31.8880 H   0  0  0  0  0  0  0  0  0  0  0  0
   38.0350   24.4920   35.7010 O   0  0  0  0  0  0  0  0  0  0  0  0
   39.7660   22.1920   39.0540 H   0  0  0  0  0  0  0  0  0  0  0  0
   39.7990   22.4770   38.0650 N   0  0  0  0  0  0  0  0  0  0  0  0
   38.9240   23.2990   37.4630 C   0  0  0  0  0  3  0  0  0  0  0  0
   39.0280   23.6440   36.1110 C   0  0  0  0  0  0  0  0  0  0  0  0
   40.0870   23.0930   35.4140 C   0  0  0  0  0  0  0  0  0  0  0  0
   40.1130   23.4530   34.2010 O   0  0  0  0  0  0  0  0  0  0  0  0
   40.9580   22.2710   36.0270 N   0  0  0  0  0  0  0  0  0  0  0  0
   40.8220   21.9640   37.3290 C   0  0  0  0  0  0  0  0  0  0  0  0
   41.6680   21.1900   37.8450 O   0  0  0  0  0  0  0  0  0  0  0  0
   41.7370   21.8950   35.4220 H   0  0  0  0  0  0  0  0  0  0  0  0
  2 18  1  0  0  0  0
  2  1  2  1  0  0  0
  3  4  1  0  0  0  0
  3  2  1  0  0  0  0
  5  2  1  0  0  0  0
  6  5  1  0  0  0  0
  7  6  1  0  0  0  0
  8  6  1  0  0  0  0
  9 14  1  0  0  0  0
  9  6  1  0  0  0  0
 10  9  2  0  0  0  0
 11 12  2  0  0  0  0
 11 10  1  0  0  0  0
 12 13  1  0  0  0  0
 13 17  1  0  0  0  0
 13 14  2  0  0  0  0
 15 10  1  0  0  0  0
 16 11  1  0  0  0  0
 18 22  1  0  0  0  0
 20 19  1  0  0  0  0
 21 20  1  0  0  0  0
 22 21  2  0  0  0  0
 23 25  1  0  0  0  0
 23 22  1  0  0  0  0
 24 23  2  0  0  0  0
 25 26  1  0  0  0  0
 26 27  2  0  0  0  0
 26 20  1  0  0  0  0
 28 25  1  0  0  0  0
M  END
>  <minimizedAffinity>
-4.71036196

$$$$

 OpenBabel03272504203D

 28 29  0  0  0  0  0  0  0  0999 V2000
   37.2000   26.4260   33.0170 O   0  0  0  0  0  0  0  0  0  0  0  0
   37.7710   25.1050   32.5320 P   0  0  2  0  0  0  0  0  0  0  0  0
   38.6250   25.4650   31.0960 O   0  0  0  0  0  0  0  0  0  0  0  0
   39.0970   26.3380   31.1980 H   0  0  0  0  0  0  0  0  0  0  0  0
   36.5200   24.0210   32.1920 O   0  0  0  0  0  0  0  0  0  0  0  0
   36.9650   23.1540   31.2250 C   0  0  0  0  0  0  0  0  0  0  0  0
   36.7190   23.5030   30.1850 H   0  0  0  0  0  0  0  0  0  0  0  0
   38.0800   23.1580   31.2550 H   0  0  0  0  0  0  0  0  0  0  0  0
   36.3920   21.7890   31.3490 C   0  0  0  0  0  0  0  0  0  0  0  0
   35.3360   21.6060   32.2380 C   0  0  0  0  0  0  0  0  0  0  0  0
   34.7740   20.3420   32.3800 C   0  0  0  0  0  0  0  0  0  0  0  0
   35.3060   19.3380   31.6200 N   0  0  0  0  0  0  0  0  0  0  0  0
   36.3260   19.5410   30.7690 C   0  0  0  0  0  0  0  0  0  0  0  0
   36.8670   20.7610   30.6330 N   0  0  0  0  0  0  0  0  0  0  0  0
   34.9440   22.4190   32.8190 H   0  0  0  0  0  0  0  0  0  0  0  0
   33.9500   20.1360   33.0550 H   0  0  0  0  0  0  0  0  0  0  0  0
   36.6900   18.6820   30.2000 H   0  0  0  0  0  0  0  0  0  0  0  0
   38.8140   24.5220   33.7150 O   0  0  0  0  0  0  0  0  0  0  0  0
   37.9880   25.3180   37.9820 H   0  0  0  0  0  0  0  0  0  0  0  0
   38.0540   24.6490   37.2030 N   0  0  0  0  0  0  0  0  0  0  0  0
   38.3870   24.9570   35.9380 C   0  0  0  0  0  3  0  0  0  0  0  0
   38.4570   23.9940   34.9250 C   0  0  0  0  0  0  0  0  0  0  0  0
   38.1630   22.6940   35.2900 C   0  0  0  0  0  0  0  0  0  0  0  0
   38.2490   21.8840   34.3210 O   0  0  0  0  0  0  0  0  0  0  0  0
   37.8310   22.3950   36.5590 N   0  0  0  0  0  0  0  0  0  0  0  0
   37.7760   23.3500   37.5030 C   0  0  0  0  0  0  0  0  0  0  0  0
   37.4580   23.0100   38.6710 O   0  0  0  0  0  0  0  0  0  0  0  0
   37.6230   21.3780   36.7510 H   0  0  0  0  0  0  0  0  0  0  0  0
  2  1  2  1  0  0  0
  2 18  1  0  0  0  0
  3  4  1  0  0  0  0
  3  2  1  0  0  0  0
  5  2  1  0  0  0  0
  6  8  1  0  0  0  0
  6  9  1  0  0  0  0
  6  5  1  0  0  0  0
  7  6  1  0  0  0  0
  9 10  1  0  0  0  0
 10 11  2  0  0  0  0
 10 15  1  0  0  0  0
 11 16  1  0  0  0  0
 12 11  1  0  0  0  0
 13 12  2  0  0  0  0
 14 13  1  0  0  0  0
 14  9  2  0  0  0  0
 17 13  1  0  0  0  0
 18 22  1  0  0  0  0
 20 26  1  0  0  0  0
 20 19  1  0  0  0  0
 21 20  1  0  0  0  0
 22 23  1  0  0  0  0
 22 21  2  0  0  0  0
 23 25  1  0  0  0  0
 24 23  2  0  0  0  0
 25 28  1  0  0  0  0
 25 26  1  0  0  0  0
 26 27  2  0  0  0  0
M  END
>  <minimizedAffinity>
-4.57455063

$$$$

 OpenBabel03272504203D

 28 29  0  0  0  0  0  0  0  0999 V2000
   38.4840   27.1740   36.5590 O   0  0  0  0  0  0  0  0  0  0  0  0
   38.7940   26.4740   35.2470 P   0  0  2  0  0  0  0  0  0  0  0  0
   40.4550   26.7480   34.9540 O   0  0  0  0  0  0  0  0  0  0  0  0
   40.9600   26.6960   35.8130 H   0  0  0  0  0  0  0  0  0  0  0  0
   37.8770   27.1470   33.9990 O   0  0  0  0  0  0  0  0  0  0  0  0
   38.4690   26.8030   32.8080 C   0  0  0  0  0  0  0  0  0  0  0  0
   38.4900   27.6540   32.0730 H   0  0  0  0  0  0  0  0  0  0  0  0
   39.5460   26.5970   33.0140 H   0  0  0  0  0  0  0  0  0  0  0  0
   37.7900   25.6760   32.1170 C   0  0  0  0  0  0  0  0  0  0  0  0
   38.5890   24.7270   31.4840 C   0  0  0  0  0  0  0  0  0  0  0  0
   37.9880   23.6590   30.8280 C   0  0  0  0  0  0  0  0  0  0  0  0
   36.6220   23.6080   30.8460 N   0  0  0  0  0  0  0  0  0  0  0  0
   35.8740   24.5370   31.4640 C   0  0  0  0  0  0  0  0  0  0  0  0
   36.4550   25.5680   32.0980 N   0  0  0  0  0  0  0  0  0  0  0  0
   39.6590   24.8000   31.4900 H   0  0  0  0  0  0  0  0  0  0  0  0
   38.5540   22.8880   30.3160 H   0  0  0  0  0  0  0  0  0  0  0  0
   34.7880   24.4200   31.4310 H   0  0  0  0  0  0  0  0  0  0  0  0
   38.4890   24.8320   35.4480 O   0  0  0  0  0  0  0  0  0  0  0  0
   39.5600   22.1830   38.8190 H   0  0  0  0  0  0  0  0  0  0  0  0
   39.7600   22.5390   37.8740 N   0  0  0  0  0  0  0  0  0  0  0  0
   39.0320   23.4570   37.2170 C   0  0  0  0  0  3  0  0  0  0  0  0
   39.3630   23.8960   35.9310 C   0  0  0  0  0  0  0  0  0  0  0  0
   40.4890   23.3340   35.3590 C   0  0  0  0  0  0  0  0  0  0  0  0
   40.7210   23.7830   34.1980 O   0  0  0  0  0  0  0  0  0  0  0  0
   41.2120   22.4160   36.0260 N   0  0  0  0  0  0  0  0  0  0  0  0
   40.8600   22.0210   37.2610 C   0  0  0  0  0  0  0  0  0  0  0  0
   41.5750   21.1600   37.8330 O   0  0  0  0  0  0  0  0  0  0  0  0
   42.0570   22.0400   35.5160 H   0  0  0  0  0  0  0  0  0  0  0  0
  2 18  1  0  0  0  0
  2  1  2  1  0  0  0
  3  2  1  0  0  0  0
  3  4  1  0  0  0  0
  5  2  1  0  0  0  0
  6  8  1  0  0  0  0
  6  5  1  0  0  0  0
  7  6  1  0  0  0  0
  9  6  1  0  0  0  0
 10 15  1  0  0  0  0
 10  9  2  0  0  0  0
 11 12  2  0  0  0  0
 11 10  1  0  0  0  0
 12 13  1  0  0  0  0
 13 14  2  0  0  0  0
 14  9  1  0  0  0  0
 16 11  1  0  0  0  0
 17 13  1  0  0  0  0
 18 22  1  0  0  0  0
 20 19  1  0  0  0  0
 21 20  1  0  0  0  0
 22 21  2  0  0  0  0
 23 22  1  0  0  0  0
 23 25  1  0  0  0  0
 24 23  2  0  0  0  0
 25 26  1  0  0  0  0
 26 27  2  0  0  0  0
 26 20  1  0  0  0  0
 28 25  1  0  0  0  0
M  END
>  <minimizedAffinity>
-4.5080843

$$$$

 OpenBabel03272504203D

 28 29  0  0  0  0  0  0  0  0999 V2000
   36.9970   21.8220   31.7760 O   0  0  0  0  0  0  0  0  0  0  0  0
   37.8410   22.9700   32.3030 P   0  0  2  0  0  0  0  0  0  0  0  0
   38.9100   23.3810   31.0360 O   0  0  0  0  0  0  0  0  0  0  0  0
   38.4330   23.3200   30.1610 H   0  0  0  0  0  0  0  0  0  0  0  0
   38.7240   22.4690   33.6530 O   0  0  0  0  0  0  0  0  0  0  0  0
   37.8310   22.1650   34.6510 C   0  0  0  0  0  0  0  0  0  0  0  0
   36.8410   22.6810   34.5170 H   0  0  0  0  0  0  0  0  0  0  0  0
   37.5850   21.0800   34.5640 H   0  0  0  0  0  0  0  0  0  0  0  0
   38.3120   22.5380   36.0060 C   0  0  0  0  0  0  0  0  0  0  0  0
   39.6390   22.2610   36.3230 C   0  0  0  0  0  0  0  0  0  0  0  0
   40.1240   22.5970   37.5820 C   0  0  0  0  0  0  0  0  0  0  0  0
   39.2470   23.1910   38.4460 N   0  0  0  0  0  0  0  0  0  0  0  0
   37.9710   23.4480   38.1150 C   0  0  0  0  0  0  0  0  0  0  0  0
   37.5040   23.1230   36.9000 N   0  0  0  0  0  0  0  0  0  0  0  0
   40.2990   21.7920   35.6190 H   0  0  0  0  0  0  0  0  0  0  0  0
   41.1480   22.4070   37.8900 H   0  0  0  0  0  0  0  0  0  0  0  0
   37.3380   23.9270   38.8670 H   0  0  0  0  0  0  0  0  0  0  0  0
   36.8140   24.2540   32.6540 O   0  0  0  0  0  0  0  0  0  0  0  0
   35.2700   26.9320   29.4970 H   0  0  0  0  0  0  0  0  0  0  0  0
   35.8840   26.7830   30.3080 N   0  0  0  0  0  0  0  0  0  0  0  0
   35.9960   25.6370   31.0000 C   0  0  0  0  0  3  0  0  0  0  0  0
   36.8540   25.5030   32.0970 C   0  0  0  0  0  0  0  0  0  0  0  0
   37.5910   26.6210   32.4420 C   0  0  0  0  0  0  0  0  0  0  0  0
   38.3410   26.4200   33.4420 O   0  0  0  0  0  0  0  0  0  0  0  0
   37.4710   27.7640   31.7430 N   0  0  0  0  0  0  0  0  0  0  0  0
   36.6360   27.8510   30.6940 C   0  0  0  0  0  0  0  0  0  0  0  0
   36.5670   28.9460   30.0810 O   0  0  0  0  0  0  0  0  0  0  0  0
   38.0710   28.5680   32.0740 H   0  0  0  0  0  0  0  0  0  0  0  0
  2  1  2  6  0  0  0
  2 18  1  0  0  0  0
  2  5  1  0  0  0  0
  3  2  1  0  0  0  0
  4  3  1  0  0  0  0
  5  6  1  0  0  0  0
  6  9  1  0  0  0  0
  7  6  1  0  0  0  0
  8  6  1  0  0  0  0
  9 10  2  0  0  0  0
  9 14  1  0  0  0  0
 10 11  1  0  0  0  0
 11 16  1  0  0  0  0
 11 12  2  0  0  0  0
 13 12  1  0  0  0  0
 13 17  1  0  0  0  0
 14 13  2  0  0  0  0
 15 10  1  0  0  0  0
 19 20  1  0  0  0  0
 20 26  1  0  0  0  0
 20 21  1  0  0  0  0
 21 22  2  0  0  0  0
 22 23  1  0  0  0  0
 22 18  1  0  0  0  0
 23 24  2  0  0  0  0
 25 28  1  0  0  0  0
 25 23  1  0  0  0  0
 26 25  1  0  0  0  0
 27 26  2  0  0  0  0
M  END
>  <minimizedAffinity>
-4.49397039

$$$$

 OpenBabel03272504203D

 28 29  0  0  0  0  0  0  0  0999 V2000
   40.0500   26.1140   32.0460 O   0  0  0  0  0  0  0  0  0  0  0  0
   39.1340   25.8540   33.2300 P   0  0  2  0  0  0  0  0  0  0  0  0
   39.5410   27.0310   34.4000 O   0  0  0  0  0  0  0  0  0  0  0  0
   39.7300   27.9000   33.9490 H   0  0  0  0  0  0  0  0  0  0  0  0
   39.4170   24.3090   33.8550 O   0  0  0  0  0  0  0  0  0  0  0  0
   38.2860   23.9140   34.5280 C   0  0  0  0  0  0  0  0  0  0  0  0
   37.4410   24.6490   34.4210 H   0  0  0  0  0  0  0  0  0  0  0  0
   37.9050   22.9890   34.0340 H   0  0  0  0  0  0  0  0  0  0  0  0
   38.5010   23.7410   35.9870 C   0  0  0  0  0  0  0  0  0  0  0  0
   39.5960   22.9840   36.3970 C   0  0  0  0  0  0  0  0  0  0  0  0
   39.8280   22.8010   37.7560 C   0  0  0  0  0  0  0  0  0  0  0  0
   38.9470   23.3890   38.6200 N   0  0  0  0  0  0  0  0  0  0  0  0
   37.8980   24.1150   38.1990 C   0  0  0  0  0  0  0  0  0  0  0  0
   37.6750   24.2910   36.8880 N   0  0  0  0  0  0  0  0  0  0  0  0
   40.2660   22.5370   35.6890 H   0  0  0  0  0  0  0  0  0  0  0  0
   40.6620   22.2230   38.1390 H   0  0  0  0  0  0  0  0  0  0  0  0
   37.2430   24.5500   38.9590 H   0  0  0  0  0  0  0  0  0  0  0  0
   37.5460   26.0520   32.7150 O   0  0  0  0  0  0  0  0  0  0  0  0
   36.1460   28.6780   29.4490 H   0  0  0  0  0  0  0  0  0  0  0  0
   36.2580   28.5020   30.4560 N   0  0  0  0  0  0  0  0  0  0  0  0
   36.8220   27.4090   30.9970 C   0  0  0  0  0  3  0  0  0  0  0  0
   36.9410   27.2320   32.3800 C   0  0  0  0  0  0  0  0  0  0  0  0
   36.4440   28.2480   33.1750 C   0  0  0  0  0  0  0  0  0  0  0  0
   36.5890   28.0150   34.4110 O   0  0  0  0  0  0  0  0  0  0  0  0
   35.8810   29.3390   32.6240 N   0  0  0  0  0  0  0  0  0  0  0  0
   35.7870   29.4700   31.2900 C   0  0  0  0  0  0  0  0  0  0  0  0
   35.2490   30.5110   30.8340 O   0  0  0  0  0  0  0  0  0  0  0  0
   35.5290   30.0650   33.3040 H   0  0  0  0  0  0  0  0  0  0  0  0
  2  1  2  6  0  0  0
  2  5  1  0  0  0  0
  2  3  1  0  0  0  0
  4  3  1  0  0  0  0
  5  6  1  0  0  0  0
  6  9  1  0  0  0  0
  7  6  1  0  0  0  0
  8  6  1  0  0  0  0
  9 10  2  0  0  0  0
  9 14  1  0  0  0  0
 10 11  1  0  0  0  0
 11 16  1  0  0  0  0
 11 12  2  0  0  0  0
 13 12  1  0  0  0  0
 13 17  1  0  0  0  0
 14 13  2  0  0  0  0
 15 10  1  0  0  0  0
 18  2  1  0  0  0  0
 19 20  1  0  0  0  0
 20 21  1  0  0  0  0
 20 26  1  0  0  0  0
 21 22  2  0  0  0  0
 22 18  1  0  0  0  0
 22 23  1  0  0  0  0
 23 24  2  0  0  0  0
 25 23  1  0  0  0  0
 25 28  1  0  0  0  0
 26 25  1  0  0  0  0
 27 26  2  0  0  0  0
M  END
>  <minimizedAffinity>
-4.43347168

$$$$
