
 OpenBabel03272508283D

 39 42  0  0  1  0  0  0  0  0999 V2000
   33.7690   28.9060   47.2480 C   0  0  2  0  0  0  0  0  0  0  0  0
   34.5220   28.1130   48.3090 C   0  0  2  0  0  0  0  0  0  0  0  0
   33.6280   27.9280   49.3300 O   0  0  0  0  0  0  0  0  0  0  0  0
   32.3440   28.0110   48.8730 C   0  0  0  0  0  0  0  0  0  0  0  0
   32.3930   28.2380   47.3740 C   0  0  1  0  0  0  0  0  0  0  0  0
   33.6200   29.9590   47.5120 H   0  0  0  0  0  0  0  0  0  0  0  0
   34.8100   27.1660   47.8160 H   0  0  0  0  0  0  0  0  0  0  0  0
   31.8500   28.8590   49.4010 H   0  0  0  0  0  0  0  0  0  0  0  0
   31.8450   27.0420   49.1130 H   0  0  0  0  0  0  0  0  0  0  0  0
   32.4680   27.2530   46.8970 H   0  0  0  0  0  0  0  0  0  0  0  0
   35.5970   30.3610   49.0140 C   0  0  1  0  0  0  0  0  0  0  0  0
   35.6860   28.9460   48.7390 C   0  0  1  0  0  0  0  0  0  0  0  0
   35.8660   29.3700   50.1600 C   0  0  0  0  0  0  0  0  0  0  0  0
   34.6950   30.9640   49.2130 H   0  0  0  0  0  0  0  0  0  0  0  0
   36.6460   28.6150   48.2450 H   0  0  0  0  0  0  0  0  0  0  0  0
   36.8640   29.3550   50.6260 H   0  0  0  0  0  0  0  0  0  0  0  0
   35.0180   29.1460   50.8340 H   0  0  0  0  0  0  0  0  0  0  0  0
   36.7890   31.2770   48.7710 C   0  0  0  0  0  0  0  0  0  0  0  0
   37.0310   32.2680   49.7260 C   0  0  0  0  0  0  0  0  0  0  0  0
   38.1140   33.0900   49.4470 C   0  0  0  0  0  0  0  0  0  0  0  0
   38.8650   32.9170   48.3150 N   0  0  0  0  0  0  0  0  0  0  0  0
   38.5860   31.9380   47.4180 C   0  0  0  0  0  0  0  0  0  0  0  0
   37.5360   31.1080   47.6480 N   0  0  0  0  0  0  0  0  0  0  0  0
   36.4100   32.3510   50.5880 H   0  0  0  0  0  0  0  0  0  0  0  0
   38.3470   33.8750   50.1540 H   0  0  0  0  0  0  0  0  0  0  0  0
   39.2080   31.8490   46.5490 H   0  0  0  0  0  0  0  0  0  0  0  0
   34.2790   28.7700   45.9790 O   0  0  0  0  0  0  0  0  0  0  0  0
   34.8910   28.0030   45.8470 H   0  0  0  0  0  0  0  0  0  0  0  0
   31.3910   29.0240   46.8970 O   0  0  0  0  0  0  0  0  0  0  0  0
   29.1220   27.1720   43.4620 H   0  0  0  0  0  0  0  0  0  0  0  0
   29.0380   27.5530   44.4480 N   0  0  0  0  0  0  0  0  0  0  0  0
   30.2340   27.9770   44.8910 C   0  0  0  0  0  3  0  0  0  0  0  0
   30.3430   28.5110   46.1570 C   0  0  0  0  0  0  0  0  0  0  0  0
   29.1760   28.5850   46.9310 C   0  0  0  0  0  0  0  0  0  0  0  0
   29.0410   29.0310   48.1010 O   0  0  0  0  0  0  0  0  0  0  0  0
   27.9850   28.1430   46.4360 N   0  0  0  0  0  0  0  0  0  0  0  0
   27.9210   27.6280   45.1950 C   0  0  0  0  0  0  0  0  0  0  0  0
   26.8870   27.1870   44.6290 O   0  0  0  0  0  0  0  0  0  0  0  0
   27.0780   28.1620   46.9430 H   0  0  0  0  0  0  0  0  0  0  0  0
  1  5  1  0  0  0  0
  1  6  1  1  0  0  0
  1  2  1  0  0  0  0
  2  7  1  6  0  0  0
  2 12  1  0  0  0  0
  2  3  1  0  0  0  0
  4  9  1  0  0  0  0
  4  3  1  0  0  0  0
  4  8  1  0  0  0  0
  5 10  1  6  0  0  0
  5  4  1  0  0  0  0
 11 14  1  6  0  0  0
 11 13  1  0  0  0  0
 12 15  1  6  0  0  0
 12 11  1  0  0  0  0
 12 13  1  0  0  0  0
 13 16  1  0  0  0  0
 13 17  1  0  0  0  0
 18 11  1  0  0  0  0
 18 19  1  0  0  0  0
 19 24  1  0  0  0  0
 20 19  2  0  0  0  0
 20 25  1  0  0  0  0
 21 20  1  0  0  0  0
 22 23  1  0  0  0  0
 22 21  2  0  0  0  0
 23 18  2  0  0  0  0
 26 22  1  0  0  0  0
 27  1  1  0  0  0  0
 28 27  1  0  0  0  0
 29  5  1  0  0  0  0
 30 31  1  0  0  0  0
 31 32  1  0  0  0  0
 31 37  1  0  0  0  0
 32 33  2  0  0  0  0
 33 29  1  0  0  0  0
 33 34  1  0  0  0  0
 34 35  2  0  0  0  0
 36 34  1  0  0  0  0
 36 39  1  0  0  0  0
 37 36  1  0  0  0  0
 38 37  2  0  0  0  0
M  END
>  <minimizedAffinity>
-5.35721111

>  <minimizedRMSD>
0.848788798

$$$$
