
 OpenBabel03272506443D

 33 35  0  0  1  0  0  0  0  0999 V2000
   32.3930   28.4140   47.5150 C   0  0  2  0  0  0  0  0  0  0  0  0
   33.6410   28.4540   48.3840 C   0  0  1  0  0  0  0  0  0  0  0  0
   34.1520   27.1920   48.4450 O   0  0  0  0  0  0  0  0  0  0  0  0
   33.4870   26.3900   47.5460 C   0  0  0  0  0  0  0  0  0  0  0  0
   32.8190   27.3330   46.5310 C   0  0  1  0  0  0  0  0  0  0  0  0
   31.5360   28.0760   48.1140 H   0  0  0  0  0  0  0  0  0  0  0  0
   33.4040   28.9150   49.3530 H   0  0  0  0  0  0  0  0  0  0  0  0
   34.1480   25.6560   47.0650 H   0  0  0  0  0  0  0  0  0  0  0  0
   32.6450   25.9100   48.1010 H   0  0  0  0  0  0  0  0  0  0  0  0
   33.6230   27.7140   45.9060 H   0  0  0  0  0  0  0  0  0  0  0  0
   32.1770   29.6380   46.8890 O   0  0  0  0  0  0  0  0  0  0  0  0
   32.8610   29.7370   46.1800 H   0  0  0  0  0  0  0  0  0  0  0  0
   34.8470   29.5170   47.5030 S   0  0  0  0  0  0  0  0  0  0  0  0
   37.4700   29.4980   50.4780 C   0  0  0  0  0  0  0  0  0  0  0  0
   38.0340   30.7770   50.4670 C   0  0  0  0  0  0  0  0  0  0  0  0
   37.5780   31.6880   49.4900 C   0  0  0  0  0  0  0  0  0  0  0  0
   36.6270   31.2730   48.6250 N   0  0  0  0  0  0  0  0  0  0  0  0
   36.1030   30.0290   48.6620 C   0  0  0  0  0  0  0  0  0  0  0  0
   36.5170   29.1440   49.5800 N   0  0  0  0  0  0  0  0  0  0  0  0
   37.7840   28.7630   51.2060 H   0  0  0  0  0  0  0  0  0  0  0  0
   38.7810   31.0530   51.1720 H   0  0  0  0  0  0  0  0  0  0  0  0
   37.9870   32.6910   49.4430 H   0  0  0  0  0  0  0  0  0  0  0  0
   31.7600   26.7000   45.9340 O   0  0  0  0  0  0  0  0  0  0  0  0
   31.4580   22.1920   45.9640 H   0  0  0  0  0  0  0  0  0  0  0  0
   31.7040   23.0490   45.4410 N   0  0  0  0  0  0  0  0  0  0  0  0
   31.5330   24.1960   46.1120 C   0  0  0  0  0  3  0  0  0  0  0  0
   31.8360   25.3880   45.4920 C   0  0  0  0  0  0  0  0  0  0  0  0
   32.3140   25.3680   44.1800 C   0  0  0  0  0  0  0  0  0  0  0  0
   32.6410   26.3500   43.4580 O   0  0  0  0  0  0  0  0  0  0  0  0
   32.4810   24.1900   43.5120 N   0  0  0  0  0  0  0  0  0  0  0  0
   32.1690   23.0320   44.1630 C   0  0  0  0  0  0  0  0  0  0  0  0
   32.2970   21.9100   43.6150 O   0  0  0  0  0  0  0  0  0  0  0  0
   32.8260   24.0880   42.5500 H   0  0  0  0  0  0  0  0  0  0  0  0
  1  6  1  1  0  0  0
  1  2  1  0  0  0  0
  2  3  1  0  0  0  0
  2  7  1  1  0  0  0
  4  9  1  0  0  0  0
  4  3  1  0  0  0  0
  5 10  1  6  0  0  0
  5  1  1  0  0  0  0
  5  4  1  0  0  0  0
  8  4  1  0  0  0  0
 11  1  1  0  0  0  0
 12 11  1  0  0  0  0
 13  2  1  0  0  0  0
 13 18  1  0  0  0  0
 14 20  1  0  0  0  0
 15 14  1  0  0  0  0
 15 21  1  0  0  0  0
 16 15  2  0  0  0  0
 17 18  2  0  0  0  0
 17 16  1  0  0  0  0
 18 19  1  0  0  0  0
 19 14  2  0  0  0  0
 22 16  1  0  0  0  0
 23  5  1  0  0  0  0
 25 24  1  0  0  0  0
 25 26  1  0  0  0  0
 27 23  1  0  0  0  0
 27 26  2  0  0  0  0
 28 27  1  0  0  0  0
 29 28  2  0  0  0  0
 30 31  1  0  0  0  0
 30 28  1  0  0  0  0
 31 25  1  0  0  0  0
 32 31  2  0  0  0  0
 33 30  1  0  0  0  0
M  END
>  <minimizedAffinity>
-3.86948085

>  <minimizedRMSD>
2.29790568

$$$$
