
 OpenBabel03272506443D

 33 35  0  0  1  0  0  0  0  0999 V2000
   32.2250   28.1650   47.5920 C   0  0  2  0  0  0  0  0  0  0  0  0
   33.5250   28.1280   48.3800 C   0  0  1  0  0  0  0  0  0  0  0  0
   34.0720   26.8880   48.2340 O   0  0  0  0  0  0  0  0  0  0  0  0
   33.3700   26.1940   47.2740 C   0  0  0  0  0  0  0  0  0  0  0  0
   32.6130   27.2450   46.4430 C   0  0  1  0  0  0  0  0  0  0  0  0
   31.4180   27.7180   48.1900 H   0  0  0  0  0  0  0  0  0  0  0  0
   33.3410   28.4430   49.4160 H   0  0  0  0  0  0  0  0  0  0  0  0
   34.0160   25.5570   46.6560 H   0  0  0  0  0  0  0  0  0  0  0  0
   32.5790   25.6150   47.8070 H   0  0  0  0  0  0  0  0  0  0  0  0
   33.3640   27.7350   45.8290 H   0  0  0  0  0  0  0  0  0  0  0  0
   31.9380   29.4560   47.1580 O   0  0  0  0  0  0  0  0  0  0  0  0
   32.5710   29.6740   46.4280 H   0  0  0  0  0  0  0  0  0  0  0  0
   34.6440   29.3420   47.5840 S   0  0  0  0  0  0  0  0  0  0  0  0
   37.2570   29.3090   50.5670 C   0  0  0  0  0  0  0  0  0  0  0  0
   37.7330   30.6210   50.6410 C   0  0  0  0  0  0  0  0  0  0  0  0
   37.2190   31.5610   49.7220 C   0  0  0  0  0  0  0  0  0  0  0  0
   36.2990   31.1380   48.8260 N   0  0  0  0  0  0  0  0  0  0  0  0
   35.8600   29.8630   48.7810 C   0  0  0  0  0  0  0  0  0  0  0  0
   36.3310   28.9510   49.6420 N   0  0  0  0  0  0  0  0  0  0  0  0
   37.6180   28.5520   51.2490 H   0  0  0  0  0  0  0  0  0  0  0  0
   38.4590   30.9010   51.3670 H   0  0  0  0  0  0  0  0  0  0  0  0
   37.5590   32.5890   49.7410 H   0  0  0  0  0  0  0  0  0  0  0  0
   31.5340   26.6630   45.8300 O   0  0  0  0  0  0  0  0  0  0  0  0
   31.4640   26.9170   41.3190 H   0  0  0  0  0  0  0  0  0  0  0  0
   31.0350   27.1940   42.2170 N   0  0  0  0  0  0  0  0  0  0  0  0
   31.6340   26.7030   43.3110 C   0  0  0  0  0  3  0  0  0  0  0  0
   31.1270   27.0200   44.5530 C   0  0  0  0  0  0  0  0  0  0  0  0
   30.0040   27.8430   44.6370 C   0  0  0  0  0  0  0  0  0  0  0  0
   29.4050   28.2370   45.6770 O   0  0  0  0  0  0  0  0  0  0  0  0
   29.4070   28.3340   43.5120 N   0  0  0  0  0  0  0  0  0  0  0  0
   29.9390   27.9960   42.3030 C   0  0  0  0  0  0  0  0  0  0  0  0
   29.4470   28.4070   41.2250 O   0  0  0  0  0  0  0  0  0  0  0  0
   28.5800   28.9430   43.4880 H   0  0  0  0  0  0  0  0  0  0  0  0
  1  6  1  1  0  0  0
  1  2  1  0  0  0  0
  2  7  1  1  0  0  0
  3  2  1  0  0  0  0
  4  9  1  0  0  0  0
  4  3  1  0  0  0  0
  5 10  1  6  0  0  0
  5  4  1  0  0  0  0
  5  1  1  0  0  0  0
  8  4  1  0  0  0  0
 11  1  1  0  0  0  0
 12 11  1  0  0  0  0
 13  2  1  0  0  0  0
 13 18  1  0  0  0  0
 14 15  1  0  0  0  0
 14 20  1  0  0  0  0
 15 21  1  0  0  0  0
 16 22  1  0  0  0  0
 16 15  2  0  0  0  0
 17 16  1  0  0  0  0
 18 17  2  0  0  0  0
 18 19  1  0  0  0  0
 19 14  2  0  0  0  0
 23  5  1  0  0  0  0
 24 25  1  0  0  0  0
 25 31  1  0  0  0  0
 25 26  1  0  0  0  0
 26 27  2  0  0  0  0
 27 28  1  0  0  0  0
 27 23  1  0  0  0  0
 28 29  2  0  0  0  0
 30 28  1  0  0  0  0
 31 30  1  0  0  0  0
 32 31  2  0  0  0  0
 33 30  1  0  0  0  0
M  END
>  <minimizedAffinity>
-3.83196926

>  <minimizedRMSD>
1.10488141

$$$$
