REMARK  Name = 
REMARK  3 active torsions:
REMARK  status: ('A' for Active; 'I' for Inactive)
REMARK    1  A    between atoms: C_3  and  C_12
REMARK    2  A    between atoms: C_7  and  S_14
REMARK    3  A    between atoms: S_14  and  C_24
REMARK                            x       y       z     vdW  Elec       q    Type
REMARK                         _______ _______ _______ _____ _____    ______ ____
ROOT
ATOM      1 CL   UNL     1      36.369  30.481  46.389  0.00  0.00    +0.000 Cl
ATOM      2  C   UNL     1      36.803  30.541  48.080  0.00  0.00    +0.000 A 
ATOM      3  C   UNL     1      38.021  31.081  48.386  0.00  0.00    +0.000 A 
ATOM      4  C   UNL     1      38.391  31.139  49.733  0.00  0.00    +0.000 A 
ATOM      5  C   UNL     1      37.533  30.660  50.693  0.00  0.00    +0.000 A 
ATOM      6  C   UNL     1      36.315  30.128  50.303  0.00  0.00    +0.000 A 
ATOM      7  C   UNL     1      35.894  30.042  48.997  0.00  0.00    +0.000 A 
ATOM      8  H   UNL     1      39.349  31.561  50.002  0.00  0.00    +0.000 HD
ATOM      9  H   UNL     1      37.812  30.702  51.737  0.00  0.00    +0.000 HD
ATOM     10  H   UNL     1      35.646  29.752  51.079  0.00  0.00    +0.000 HD
ENDROOT
BRANCH   3  15
ATOM     11  C   UNL     1      39.997  33.422  46.388  0.00  0.00    +0.000 A 
ATOM     12  C   UNL     1      40.567  32.622  45.386  0.00  0.00    +0.000 A 
ATOM     13  C   UNL     1      40.253  31.268  45.420  0.00  0.00    +0.000 A 
ATOM     14  N   UNL     1      39.428  30.788  46.399  0.00  0.00    +0.000 NA
ATOM     15  C   UNL     1      38.910  31.582  47.329  0.00  0.00    +0.000 A 
ATOM     16  N   UNL     1      39.199  32.897  47.316  0.00  0.00    +0.000 NA
ATOM     17  H   UNL     1      40.180  34.483  46.445  0.00  0.00    +0.000 HD
ATOM     18  H   UNL     1      41.210  33.087  44.650  0.00  0.00    +0.000 HD
ATOM     19  H   UNL     1      40.671  30.633  44.672  0.00  0.00    +0.000 HD
ENDBRANCH   3  15
BRANCH   7  20
ATOM     20  S   UNL     1      34.339  29.370  48.484  0.00  0.00    +0.000 S 
BRANCH  20  24
ATOM     21  H   UNL     1      36.101  25.151  46.797  0.00  0.00    +0.000 HD
ATOM     22  N   UNL     1      35.333  25.607  47.334  0.00  0.00    +0.000 N 
ATOM     23  C   UNL     1      35.450  26.943  47.453  0.00  0.00    +0.000 A 
ATOM     24  C   UNL     1      34.447  27.604  48.165  0.00  0.00    +0.000 A 
ATOM     25  C   UNL     1      33.391  26.871  48.711  0.00  0.00    +0.000 A 
ATOM     26  O   UNL     1      32.450  27.384  49.363  0.00  0.00    +0.000 OA
ATOM     27  N   UNL     1      33.327  25.532  48.559  0.00  0.00    +0.000 N 
ATOM     28  C   UNL     1      34.309  24.929  47.868  0.00  0.00    +0.000 A 
ATOM     29  O   UNL     1      34.327  23.699  47.682  0.00  0.00    +0.000 OA
ATOM     30  H   UNL     1      32.544  24.952  48.958  0.00  0.00    +0.000 HD
ENDBRANCH  20  24
ENDBRANCH   7  20
TORSDOF 3
