
 OpenBabel03272508283D

 39 42  0  0  1  0  0  0  0  0999 V2000
   33.7700   28.9060   47.2490 C   0  0  2  0  0  0  0  0  0  0  0  0
   34.5240   28.1140   48.3100 C   0  0  2  0  0  0  0  0  0  0  0  0
   33.6300   27.9300   49.3310 O   0  0  0  0  0  0  0  0  0  0  0  0
   32.3460   28.0120   48.8740 C   0  0  0  0  0  0  0  0  0  0  0  0
   32.3950   28.2380   47.3740 C   0  0  1  0  0  0  0  0  0  0  0  0
   33.6210   29.9600   47.5120 H   0  0  0  0  0  0  0  0  0  0  0  0
   34.8120   27.1670   47.8160 H   0  0  0  0  0  0  0  0  0  0  0  0
   31.8510   28.8600   49.4020 H   0  0  0  0  0  0  0  0  0  0  0  0
   31.8470   27.0430   49.1140 H   0  0  0  0  0  0  0  0  0  0  0  0
   32.4700   27.2540   46.8980 H   0  0  0  0  0  0  0  0  0  0  0  0
   35.5980   30.3620   49.0140 C   0  0  1  0  0  0  0  0  0  0  0  0
   35.6870   28.9470   48.7400 C   0  0  1  0  0  0  0  0  0  0  0  0
   35.8670   29.3720   50.1600 C   0  0  0  0  0  0  0  0  0  0  0  0
   34.6960   30.9650   49.2130 H   0  0  0  0  0  0  0  0  0  0  0  0
   36.6480   28.6170   48.2450 H   0  0  0  0  0  0  0  0  0  0  0  0
   36.8660   29.3560   50.6260 H   0  0  0  0  0  0  0  0  0  0  0  0
   35.0190   29.1470   50.8340 H   0  0  0  0  0  0  0  0  0  0  0  0
   36.7900   31.2790   48.7710 C   0  0  0  0  0  0  0  0  0  0  0  0
   37.0330   32.2690   49.7270 C   0  0  0  0  0  0  0  0  0  0  0  0
   38.1160   33.0910   49.4470 C   0  0  0  0  0  0  0  0  0  0  0  0
   38.8650   32.9190   48.3150 N   0  0  0  0  0  0  0  0  0  0  0  0
   38.5860   31.9410   47.4170 C   0  0  0  0  0  0  0  0  0  0  0  0
   37.5360   31.1100   47.6480 N   0  0  0  0  0  0  0  0  0  0  0  0
   36.4130   32.3510   50.5900 H   0  0  0  0  0  0  0  0  0  0  0  0
   38.3500   33.8750   50.1560 H   0  0  0  0  0  0  0  0  0  0  0  0
   39.2070   31.8530   46.5470 H   0  0  0  0  0  0  0  0  0  0  0  0
   34.2810   28.7700   45.9790 O   0  0  0  0  0  0  0  0  0  0  0  0
   34.8920   28.0040   45.8480 H   0  0  0  0  0  0  0  0  0  0  0  0
   31.3930   29.0240   46.8970 O   0  0  0  0  0  0  0  0  0  0  0  0
   29.1230   27.1720   43.4630 H   0  0  0  0  0  0  0  0  0  0  0  0
   29.0390   27.5540   44.4490 N   0  0  0  0  0  0  0  0  0  0  0  0
   30.2350   27.9770   44.8920 C   0  0  0  0  0  3  0  0  0  0  0  0
   30.3440   28.5110   46.1570 C   0  0  0  0  0  0  0  0  0  0  0  0
   29.1780   28.5850   46.9310 C   0  0  0  0  0  0  0  0  0  0  0  0
   29.0430   29.0310   48.1020 O   0  0  0  0  0  0  0  0  0  0  0  0
   27.9860   28.1420   46.4370 N   0  0  0  0  0  0  0  0  0  0  0  0
   27.9230   27.6270   45.1960 C   0  0  0  0  0  0  0  0  0  0  0  0
   26.8890   27.1860   44.6300 O   0  0  0  0  0  0  0  0  0  0  0  0
   27.0800   28.1610   46.9440 H   0  0  0  0  0  0  0  0  0  0  0  0
  1  5  1  0  0  0  0
  1  6  1  1  0  0  0
  1  2  1  0  0  0  0
  2  7  1  6  0  0  0
  2 12  1  0  0  0  0
  2  3  1  0  0  0  0
  4  9  1  0  0  0  0
  4  3  1  0  0  0  0
  4  8  1  0  0  0  0
  5 10  1  6  0  0  0
  5  4  1  0  0  0  0
 11 14  1  6  0  0  0
 11 13  1  0  0  0  0
 12 15  1  6  0  0  0
 12 11  1  0  0  0  0
 12 13  1  0  0  0  0
 13 16  1  0  0  0  0
 13 17  1  0  0  0  0
 18 11  1  0  0  0  0
 18 19  1  0  0  0  0
 19 24  1  0  0  0  0
 20 19  2  0  0  0  0
 20 25  1  0  0  0  0
 21 20  1  0  0  0  0
 22 23  1  0  0  0  0
 22 21  2  0  0  0  0
 23 18  2  0  0  0  0
 26 22  1  0  0  0  0
 27  1  1  0  0  0  0
 28 27  1  0  0  0  0
 29  5  1  0  0  0  0
 30 31  1  0  0  0  0
 31 32  1  0  0  0  0
 31 37  1  0  0  0  0
 32 33  2  0  0  0  0
 33 29  1  0  0  0  0
 33 34  1  0  0  0  0
 34 35  2  0  0  0  0
 36 34  1  0  0  0  0
 36 39  1  0  0  0  0
 37 36  1  0  0  0  0
 38 37  2  0  0  0  0
M  END
>  <minimizedAffinity>
-5.35988617

>  <minimizedRMSD>
0.708968759

$$$$
