
 OpenBabel03272503063D

 33 35  0  0  0  0  0  0  0  0999 V2000
   38.5290   30.4290   47.3620 F   0  0  0  0  0  0  0  0  0  0  0  0
   38.7710   31.6650   47.8330 C   0  0  0  0  0  0  0  0  0  0  0  0
   38.1700   32.0770   48.9900 C   0  0  0  0  0  0  0  0  0  0  0  0
   38.4580   33.3520   49.4220 C   0  0  0  0  0  0  0  0  0  0  0  0
   39.3110   34.1990   48.7440 C   0  0  0  0  0  0  0  0  0  0  0  0
   39.9110   33.7670   47.5780 C   0  0  0  0  0  0  0  0  0  0  0  0
   39.6300   32.4930   47.1340 C   0  0  0  0  0  0  0  0  0  0  0  0
   37.9810   33.6860   50.3430 H   0  0  0  0  0  0  0  0  0  0  0  0
   39.5300   35.2000   49.0950 H   0  0  0  0  0  0  0  0  0  0  0  0
   40.5820   34.3730   47.0040 H   0  0  0  0  0  0  0  0  0  0  0  0
   36.7570   29.5870   51.4550 C   0  0  0  0  0  0  0  0  0  0  0  0
   37.6490   30.4720   50.8240 C   0  0  0  0  0  0  0  0  0  0  0  0
   37.2780   31.1540   49.6730 C   0  0  0  0  0  0  0  0  0  0  0  0
   36.0120   30.9250   49.1860 N   0  0  0  0  0  0  0  0  0  0  0  0
   35.1720   30.0740   49.8040 C   0  0  0  0  0  0  0  0  0  0  0  0
   35.5310   29.4200   50.9110 N   0  0  0  0  0  0  0  0  0  0  0  0
   37.0640   29.0650   52.3530 H   0  0  0  0  0  0  0  0  0  0  0  0
   38.6180   30.6150   51.2410 H   0  0  0  0  0  0  0  0  0  0  0  0
   34.2120   29.9930   49.3110 H   0  0  0  0  0  0  0  0  0  0  0  0
   39.4140   32.0900   44.7560 C   0  0  0  0  0  0  0  0  0  0  0  0
   38.2650   32.6200   44.9920 O   0  0  0  0  0  0  0  0  0  0  0  0
   40.2240   31.9950   45.9180 N   0  0  0  0  0  0  0  0  0  0  0  0
   41.1610   31.5910   45.8420 H   0  0  0  0  0  0  0  0  0  0  0  0
   41.3900   29.0740   42.0980 H   0  0  0  0  0  0  0  0  0  0  0  0
   40.8570   29.9690   42.1250 N   0  0  0  0  0  0  0  0  0  0  0  0
   40.4800   30.4630   43.3150 C   0  0  0  0  0  3  0  0  0  0  0  0
   39.7630   31.6620   43.4210 C   0  0  0  0  0  0  0  0  0  0  0  0
   39.5030   32.2500   42.2020 C   0  0  0  0  0  0  0  0  0  0  0  0
   38.8710   33.3100   42.2430 O   0  0  0  0  0  0  0  0  0  0  0  0
   39.8870   31.7450   41.0200 N   0  0  0  0  0  0  0  0  0  0  0  0
   40.5730   30.5900   40.9680 C   0  0  0  0  0  0  0  0  0  0  0  0
   40.9540   30.0770   39.9010 O   0  0  0  0  0  0  0  0  0  0  0  0
   39.6420   32.2630   40.1550 H   0  0  0  0  0  0  0  0  0  0  0  0
  1  2  1  0  0  0  0
  2  3  1  0  0  0  0
  3  4  2  0  0  0  0
  3 13  1  0  0  0  0
  4  8  1  0  0  0  0
  5  9  1  0  0  0  0
  5  4  1  0  0  0  0
  6  5  2  0  0  0  0
  7  6  1  0  0  0  0
  7  2  2  0  0  0  0
 10  6  1  0  0  0  0
 11 17  1  0  0  0  0
 12 18  1  0  0  0  0
 12 11  2  0  0  0  0
 13 12  1  0  0  0  0
 14 13  2  0  0  0  0
 14 15  1  0  0  0  0
 15 16  2  0  0  0  0
 16 11  1  0  0  0  0
 19 15  1  0  0  0  0
 20 21  2  0  0  0  0
 20 22  1  0  0  0  0
 22  7  1  0  0  0  0
 23 22  1  0  0  0  0
 24 25  1  0  0  0  0
 25 26  1  0  0  0  0
 26 27  2  0  0  0  0
 27 20  1  0  0  0  0
 28 29  2  0  0  0  0
 28 27  1  0  0  0  0
 30 28  1  0  0  0  0
 31 30  1  0  0  0  0
 31 25  1  0  0  0  0
 32 31  2  0  0  0  0
 33 30  1  0  0  0  0
M  END
>  <minimizedAffinity>
-6.94479609

>  <minimizedRMSD>
0.64249891

$$$$
