
 OpenBabel03272508283D

 39 42  0  0  1  0  0  0  0  0999 V2000
   33.7540   28.9260   47.1390 C   0  0  2  0  0  0  0  0  0  0  0  0
   34.4100   28.1320   48.2610 C   0  0  2  0  0  0  0  0  0  0  0  0
   33.4760   28.0740   49.2610 O   0  0  0  0  0  0  0  0  0  0  0  0
   32.2170   28.2380   48.7610 C   0  0  0  0  0  0  0  0  0  0  0  0
   32.3250   28.3800   47.2540 C   0  0  1  0  0  0  0  0  0  0  0  0
   33.6860   30.0010   47.3450 H   0  0  0  0  0  0  0  0  0  0  0  0
   34.6320   27.1400   47.8240 H   0  0  0  0  0  0  0  0  0  0  0  0
   31.7810   29.1490   49.2300 H   0  0  0  0  0  0  0  0  0  0  0  0
   31.6330   27.3270   49.0330 H   0  0  0  0  0  0  0  0  0  0  0  0
   32.3310   27.3700   46.8300 H   0  0  0  0  0  0  0  0  0  0  0  0
   35.6090   30.2810   49.0650 C   0  0  1  0  0  0  0  0  0  0  0  0
   35.6270   28.8880   48.6850 C   0  0  1  0  0  0  0  0  0  0  0  0
   35.8980   29.1990   50.1200 C   0  0  0  0  0  0  0  0  0  0  0  0
   34.7430   30.9000   49.3560 H   0  0  0  0  0  0  0  0  0  0  0  0
   36.5460   28.5610   48.1160 H   0  0  0  0  0  0  0  0  0  0  0  0
   36.9180   29.1130   50.5280 H   0  0  0  0  0  0  0  0  0  0  0  0
   35.0780   28.9560   50.8220 H   0  0  0  0  0  0  0  0  0  0  0  0
   36.8230   31.1690   48.8240 C   0  0  0  0  0  0  0  0  0  0  0  0
   37.0290   32.2180   49.7240 C   0  0  0  0  0  0  0  0  0  0  0  0
   38.1340   33.0110   49.4460 C   0  0  0  0  0  0  0  0  0  0  0  0
   38.9370   32.7580   48.3670 N   0  0  0  0  0  0  0  0  0  0  0  0
   38.6920   31.7250   47.5220 C   0  0  0  0  0  0  0  0  0  0  0  0
   37.6220   30.9210   47.7520 N   0  0  0  0  0  0  0  0  0  0  0  0
   36.3670   32.3620   50.5460 H   0  0  0  0  0  0  0  0  0  0  0  0
   38.3410   33.8380   50.1130 H   0  0  0  0  0  0  0  0  0  0  0  0
   39.3540   31.5750   46.6920 H   0  0  0  0  0  0  0  0  0  0  0  0
   34.2850   28.6830   45.8940 O   0  0  0  0  0  0  0  0  0  0  0  0
   34.8340   27.8630   45.8200 H   0  0  0  0  0  0  0  0  0  0  0  0
   31.4050   29.2200   46.7080 O   0  0  0  0  0  0  0  0  0  0  0  0
   27.1700   28.4710   48.0770 H   0  0  0  0  0  0  0  0  0  0  0  0
   27.8160   28.4860   47.2360 N   0  0  0  0  0  0  0  0  0  0  0  0
   29.0610   28.8280   47.6080 C   0  0  0  0  0  3  0  0  0  0  0  0
   30.0590   28.9070   46.6620 C   0  0  0  0  0  0  0  0  0  0  0  0
   29.7150   28.6200   45.3330 C   0  0  0  0  0  0  0  0  0  0  0  0
   30.4560   28.6290   44.3140 O   0  0  0  0  0  0  0  0  0  0  0  0
   28.4370   28.2780   45.0050 N   0  0  0  0  0  0  0  0  0  0  0  0
   27.4910   28.2120   45.9610 C   0  0  0  0  0  0  0  0  0  0  0  0
   26.2820   27.9100   45.7840 O   0  0  0  0  0  0  0  0  0  0  0  0
   28.1010   28.0510   44.0480 H   0  0  0  0  0  0  0  0  0  0  0  0
  1  5  1  0  0  0  0
  1  6  1  1  0  0  0
  1  2  1  0  0  0  0
  2  7  1  6  0  0  0
  2 12  1  0  0  0  0
  2  3  1  0  0  0  0
  4  9  1  0  0  0  0
  4  8  1  0  0  0  0
  4  3  1  0  0  0  0
  5 10  1  6  0  0  0
  5  4  1  0  0  0  0
 11 14  1  1  0  0  0
 11 13  1  0  0  0  0
 12 15  1  6  0  0  0
 12 11  1  0  0  0  0
 12 13  1  0  0  0  0
 13 16  1  0  0  0  0
 13 17  1  0  0  0  0
 18 11  1  0  0  0  0
 18 19  1  0  0  0  0
 19 24  1  0  0  0  0
 20 19  2  0  0  0  0
 20 25  1  0  0  0  0
 21 20  1  0  0  0  0
 22 23  1  0  0  0  0
 22 21  2  0  0  0  0
 23 18  2  0  0  0  0
 26 22  1  0  0  0  0
 27  1  1  0  0  0  0
 28 27  1  0  0  0  0
 29  5  1  0  0  0  0
 31 32  1  0  0  0  0
 31 30  1  0  0  0  0
 33 29  1  0  0  0  0
 33 32  2  0  0  0  0
 34 33  1  0  0  0  0
 35 34  2  0  0  0  0
 36 34  1  0  0  0  0
 36 37  1  0  0  0  0
 37 31  1  0  0  0  0
 38 37  2  0  0  0  0
 39 36  1  0  0  0  0
M  END
>  <minimizedAffinity>
-5.42998934

>  <minimizedRMSD>
1.53971899

$$$$
