
 OpenBabel03272508283D

 39 42  0  0  1  0  0  0  0  0999 V2000
   33.7170   28.9050   47.1910 C   0  0  2  0  0  0  0  0  0  0  0  0
   34.4460   28.1030   48.2620 C   0  0  2  0  0  0  0  0  0  0  0  0
   33.5360   27.9330   49.2720 O   0  0  0  0  0  0  0  0  0  0  0  0
   32.2600   28.0340   48.7990 C   0  0  0  0  0  0  0  0  0  0  0  0
   32.3310   28.2580   47.3000 C   0  0  1  0  0  0  0  0  0  0  0  0
   33.5810   29.9610   47.4520 H   0  0  0  0  0  0  0  0  0  0  0  0
   34.7260   27.1510   47.7730 H   0  0  0  0  0  0  0  0  0  0  0  0
   31.7720   28.8900   49.3200 H   0  0  0  0  0  0  0  0  0  0  0  0
   31.7430   27.0730   49.0340 H   0  0  0  0  0  0  0  0  0  0  0  0
   32.3970   27.2720   46.8260 H   0  0  0  0  0  0  0  0  0  0  0  0
   35.5460   30.3350   48.9770 C   0  0  1  0  0  0  0  0  0  0  0  0
   35.6160   28.9190   48.7060 C   0  0  1  0  0  0  0  0  0  0  0  0
   35.7850   29.3420   50.1280 C   0  0  0  0  0  0  0  0  0  0  0  0
   34.6510   30.9520   49.1630 H   0  0  0  0  0  0  0  0  0  0  0  0
   36.5780   28.5720   48.2240 H   0  0  0  0  0  0  0  0  0  0  0  0
   36.7770   29.3120   50.6070 H   0  0  0  0  0  0  0  0  0  0  0  0
   34.9250   29.1320   50.7910 H   0  0  0  0  0  0  0  0  0  0  0  0
   36.7550   31.2330   48.7480 C   0  0  0  0  0  0  0  0  0  0  0  0
   37.0090   32.2110   49.7120 C   0  0  0  0  0  0  0  0  0  0  0  0
   38.1070   33.0170   49.4450 C   0  0  0  0  0  0  0  0  0  0  0  0
   38.8600   32.8400   48.3160 N   0  0  0  0  0  0  0  0  0  0  0  0
   38.5700   31.8730   47.4100 C   0  0  0  0  0  0  0  0  0  0  0  0
   37.5050   31.0600   47.6280 N   0  0  0  0  0  0  0  0  0  0  0  0
   36.3840   32.2980   50.5720 H   0  0  0  0  0  0  0  0  0  0  0  0
   38.3500   33.7920   50.1610 H   0  0  0  0  0  0  0  0  0  0  0  0
   39.1950   31.7810   46.5430 H   0  0  0  0  0  0  0  0  0  0  0  0
   34.2420   28.7600   45.9280 O   0  0  0  0  0  0  0  0  0  0  0  0
   34.8430   27.9840   45.8050 H   0  0  0  0  0  0  0  0  0  0  0  0
   31.3470   29.0580   46.8100 O   0  0  0  0  0  0  0  0  0  0  0  0
   29.0790   27.1480   43.4060 H   0  0  0  0  0  0  0  0  0  0  0  0
   28.9880   27.5810   44.3700 N   0  0  0  0  0  0  0  0  0  0  0  0
   30.1910   27.9690   44.8250 C   0  0  0  0  0  3  0  0  0  0  0  0
   30.2940   28.5590   46.0670 C   0  0  0  0  0  0  0  0  0  0  0  0
   29.1130   28.7250   46.8040 C   0  0  0  0  0  0  0  0  0  0  0  0
   28.9700   29.2320   47.9480 O   0  0  0  0  0  0  0  0  0  0  0  0
   27.9150   28.3130   46.2980 N   0  0  0  0  0  0  0  0  0  0  0  0
   27.8580   27.7430   45.0820 C   0  0  0  0  0  0  0  0  0  0  0  0
   26.8190   27.3240   44.5080 O   0  0  0  0  0  0  0  0  0  0  0  0
   26.9970   28.4000   46.7780 H   0  0  0  0  0  0  0  0  0  0  0  0
  1  5  1  0  0  0  0
  1  6  1  1  0  0  0
  1  2  1  0  0  0  0
  2  7  1  6  0  0  0
  2 12  1  0  0  0  0
  2  3  1  0  0  0  0
  4  9  1  0  0  0  0
  4  3  1  0  0  0  0
  4  8  1  0  0  0  0
  5 10  1  6  0  0  0
  5  4  1  0  0  0  0
 11 14  1  6  0  0  0
 11 13  1  0  0  0  0
 12 15  1  6  0  0  0
 12 11  1  0  0  0  0
 12 13  1  0  0  0  0
 13 16  1  0  0  0  0
 13 17  1  0  0  0  0
 18 11  1  0  0  0  0
 18 19  1  0  0  0  0
 19 24  1  0  0  0  0
 20 19  2  0  0  0  0
 20 25  1  0  0  0  0
 21 20  1  0  0  0  0
 22 23  1  0  0  0  0
 22 21  2  0  0  0  0
 23 18  2  0  0  0  0
 26 22  1  0  0  0  0
 27  1  1  0  0  0  0
 28 27  1  0  0  0  0
 29  5  1  0  0  0  0
 30 31  1  0  0  0  0
 31 32  1  0  0  0  0
 31 37  1  0  0  0  0
 32 33  2  0  0  0  0
 33 34  1  0  0  0  0
 33 29  1  0  0  0  0
 34 35  2  0  0  0  0
 36 39  1  0  0  0  0
 36 34  1  0  0  0  0
 37 36  1  0  0  0  0
 38 37  2  0  0  0  0
M  END
>  <minimizedAffinity>
-5.34132338

>  <minimizedRMSD>
0.580040157

$$$$
