
 OpenBabel03272504423D

 46 48  0  0  0  0  0  0  0  0999 V2000
   34.4640   29.2740   48.8450 C   0  0  0  0  0  0  0  0  0  0  0  0
   35.3400   29.2730   49.5380 H   0  0  0  0  0  0  0  0  0  0  0  0
   33.8260   30.1140   49.2520 H   0  0  0  0  0  0  0  0  0  0  0  0
   37.2270   30.3660   48.7150 Cl  0  0  0  0  0  0  0  0  0  0  0  0
   36.1640   30.2040   47.3120 C   0  0  0  0  0  0  0  0  0  0  0  0
   36.6030   30.5920   46.0960 C   0  0  0  0  0  0  0  0  0  0  0  0
   35.7810   30.4690   44.9980 C   0  0  0  0  0  0  0  0  0  0  0  0
   34.5080   29.9430   45.1710 C   0  0  0  0  0  0  0  0  0  0  0  0
   34.1180   29.5590   46.4680 C   0  0  0  0  0  0  0  0  0  0  0  0
   34.9100   29.6740   47.5450 C   0  0  0  0  0  0  0  0  0  0  0  0
   36.1590   30.7910   44.0190 H   0  0  0  0  0  0  0  0  0  0  0  0
   33.9460   29.8900   44.2510 H   0  0  0  0  0  0  0  0  0  0  0  0
   33.1530   29.2040   46.3810 H   0  0  0  0  0  0  0  0  0  0  0  0
   39.5870   32.7400   46.4170 C   0  0  0  0  0  0  0  0  0  0  0  0
   40.4820   32.0850   45.5070 C   0  0  0  0  0  0  0  0  0  0  0  0
   40.0210   30.9380   44.8260 C   0  0  0  0  0  0  0  0  0  0  0  0
   38.7560   30.5040   45.0600 N   0  0  0  0  0  0  0  0  0  0  0  0
   37.9370   31.1460   45.9250 C   0  0  0  0  0  0  0  0  0  0  0  0
   38.3570   32.2400   46.5830 N   0  0  0  0  0  0  0  0  0  0  0  0
   39.9800   33.6090   46.9130 H   0  0  0  0  0  0  0  0  0  0  0  0
   41.4780   32.4700   45.3580 H   0  0  0  0  0  0  0  0  0  0  0  0
   40.9230   30.3260   43.9470 N   0  0  0  0  0  0  0  0  0  0  0  0
   41.8740   29.9850   44.1800 H   0  0  0  0  0  0  0  0  0  0  0  0
   40.4430   30.2890   43.0180 H   0  0  0  0  0  0  0  0  0  0  0  0
   33.7500   28.0140   49.0270 C   0  0  0  0  0  0  0  0  0  0  0  0
   34.1330   27.3860   49.8810 H   0  0  0  0  0  0  0  0  0  0  0  0
   33.9000   27.3660   48.1220 H   0  0  0  0  0  0  0  0  0  0  0  0
   32.4120   28.2100   49.2400 O   0  0  0  0  0  0  0  0  0  0  0  0
   32.3340   26.1280   47.6420 O   0  0  0  0  0  0  0  0  0  0  0  0
   31.5050   27.2360   48.2410 P   0  0  2  0  0  0  0  0  0  0  0  0
   30.9160   28.2660   46.9780 O   0  0  0  0  0  0  0  0  0  0  0  0
   26.9050   30.0170   46.4340 H   0  0  0  0  0  0  0  0  0  0  0  0
   27.5620   29.2260   46.2200 N   0  0  0  0  0  0  0  0  0  0  0  0
   28.8320   29.2080   46.7140 C   0  0  0  0  0  3  0  0  0  0  0  0
   29.6760   28.1360   46.4060 C   0  0  0  0  0  0  0  0  0  0  0  0
   29.1730   27.1470   45.6120 C   0  0  0  0  0  0  0  0  0  0  0  0
   29.9820   26.2150   45.3750 O   0  0  0  0  0  0  0  0  0  0  0  0
   27.9240   27.1670   45.1280 N   0  0  0  0  0  0  0  0  0  0  0  0
   27.1150   28.2140   45.4350 C   0  0  0  0  0  0  0  0  0  0  0  0
   25.9500   28.1980   44.9620 O   0  0  0  0  0  0  0  0  0  0  0  0
   27.5870   26.3840   44.5230 H   0  0  0  0  0  0  0  0  0  0  0  0
   30.1650   26.6010   48.9720 O   0  0  0  0  0  0  0  0  0  0  0  0
   29.6950   27.4420   49.9560 C   0  0  0  0  0  0  0  0  0  0  0  0
   29.3630   26.7590   51.1250 F   0  0  0  0  0  0  0  0  0  0  0  0
   30.6430   28.3700   50.3300 F   0  0  0  0  0  0  0  0  0  0  0  0
   28.5550   28.0990   49.5010 F   0  0  0  0  0  0  0  0  0  0  0  0
  1 25  1  0  0  0  0
  1  3  1  0  0  0  0
  1  2  1  0  0  0  0
  5 10  1  0  0  0  0
  5  4  1  0  0  0  0
  6  5  2  0  0  0  0
  7  8  2  0  0  0  0
  7  6  1  0  0  0  0
  8  9  1  0  0  0  0
  9 10  2  0  0  0  0
 10  1  1  0  0  0  0
 11  7  1  0  0  0  0
 12  8  1  0  0  0  0
 13  9  1  0  0  0  0
 14 19  1  0  0  0  0
 14 20  1  0  0  0  0
 15 14  2  0  0  0  0
 16 17  2  0  0  0  0
 16 15  1  0  0  0  0
 17 18  1  0  0  0  0
 18  6  1  0  0  0  0
 18 19  2  0  0  0  0
 21 15  1  0  0  0  0
 22 23  1  0  0  0  0
 22 16  1  0  0  0  0
 24 22  1  0  0  0  0
 25 28  1  0  0  0  0
 25 26  1  0  0  0  0
 27 25  1  0  0  0  0
 30 29  2  6  0  0  0
 30 42  1  0  0  0  0
 30 28  1  0  0  0  0
 31 30  1  0  0  0  0
 33 32  1  0  0  0  0
 33 34  1  0  0  0  0
 35 34  2  0  0  0  0
 35 31  1  0  0  0  0
 36 35  1  0  0  0  0
 37 36  2  0  0  0  0
 38 39  1  0  0  0  0
 38 36  1  0  0  0  0
 39 33  1  0  0  0  0
 40 39  2  0  0  0  0
 41 38  1  0  0  0  0
 42 43  1  0  0  0  0
 43 45  1  0  0  0  0
 43 44  1  0  0  0  0
 46 43  1  0  0  0  0
M  END
>  <minimizedAffinity>
-6.13404751

>  <minimizedRMSD>
0.700699091

$$$$
