REMARK  Name = 
REMARK  2 active torsions:
REMARK  status: ('A' for Active; 'I' for Inactive)
REMARK    1  A    between atoms: C_5  and  S_7
REMARK    2  A    between atoms: S_7  and  C_14
REMARK                            x       y       z     vdW  Elec       q    Type
REMARK                         _______ _______ _______ _____ _____    ______ ____
ROOT
ATOM      1  S   UNL     1      34.544  28.247  49.278  0.00  0.00    +0.000 S 
ENDROOT
BRANCH   1   5
ATOM      2  H   UNL     1      37.226  24.508  50.567  0.00  0.00    +0.000 HD
ATOM      3  N   UNL     1      36.450  24.865  49.966  0.00  0.00    +0.000 N 
ATOM      4  C   UNL     1      36.001  26.150  49.958  0.00  0.00    +0.000 A 
ATOM      5  C   UNL     1      34.958  26.516  49.117  0.00  0.00    +0.000 A 
ATOM      6  C   UNL     1      34.373  25.578  48.287  0.00  0.00    +0.000 A 
ATOM      7  O   UNL     1      33.437  26.042  47.576  0.00  0.00    +0.000 OA
ATOM      8  N   UNL     1      34.837  24.314  48.317  0.00  0.00    +0.000 N 
ATOM      9  C   UNL     1      35.838  23.982  49.130  0.00  0.00    +0.000 A 
ATOM     10  O   UNL     1      36.251  22.782  49.131  0.00  0.00    +0.000 OA
ATOM     11  H   UNL     1      34.357  23.653  47.670  0.00  0.00    +0.000 HD
ENDBRANCH   1   5
BRANCH   1  16
ATOM     12  C   UNL     1      37.271  30.183  51.417  0.00  0.00    +0.000 A 
ATOM     13  C   UNL     1      38.118  30.759  50.473  0.00  0.00    +0.000 A 
ATOM     14  C   UNL     1      37.846  30.548  49.116  0.00  0.00    +0.000 A 
ATOM     15  N   UNL     1      36.755  29.783  48.780  0.00  0.00    +0.000 NA
ATOM     16  C   UNL     1      35.956  29.240  49.731  0.00  0.00    +0.000 A 
ATOM     17  N   UNL     1      36.212  29.439  51.039  0.00  0.00    +0.000 NA
ATOM     18  H   UNL     1      37.506  30.362  52.459  0.00  0.00    +0.000 HD
ATOM     19  H   UNL     1      38.974  31.360  50.716  0.00  0.00    +0.000 HD
ATOM     20  H   UNL     1      38.446  30.954  48.289  0.00  0.00    +0.000 HD
ENDBRANCH   1  16
TORSDOF 2
