
 OpenBabel03272502263D

 31 33  0  0  0  0  0  0  0  0999 V2000
   35.5740   21.0220   32.7800 C   0  0  0  0  0  0  0  0  0  0  0  0
   36.4390   21.1300   33.8820 C   0  0  0  0  0  0  0  0  0  0  0  0
   37.3850   22.1440   33.8610 C   0  0  0  0  0  0  0  0  0  0  0  0
   37.4120   22.9530   32.7890 N   0  0  0  0  0  0  0  0  0  0  0  0
   36.5810   22.8380   31.7440 C   0  0  0  0  0  0  0  0  0  0  0  0
   35.6560   21.8660   31.7390 N   0  0  0  0  0  0  0  0  0  0  0  0
   34.8550   20.2210   32.8380 H   0  0  0  0  0  0  0  0  0  0  0  0
   36.4170   20.4910   34.7270 H   0  0  0  0  0  0  0  0  0  0  0  0
   38.3130   22.3790   34.9500 C   0  0  0  0  0  0  0  0  0  0  0  0
   39.6680   22.1410   34.7930 C   0  0  0  0  0  0  0  0  0  0  0  0
   40.5880   22.3710   35.7880 C   0  0  0  0  0  0  0  0  0  0  0  0
   40.1600   22.8550   36.9820 N   0  0  0  0  0  0  0  0  0  0  0  0
   38.8440   23.0790   37.1150 C   0  0  0  0  0  0  0  0  0  0  0  0
   37.9270   22.8600   36.1550 N   0  0  0  0  0  0  0  0  0  0  0  0
   40.0470   21.7510   33.8440 H   0  0  0  0  0  0  0  0  0  0  0  0
   41.6340   22.1630   35.5980 H   0  0  0  0  0  0  0  0  0  0  0  0
   38.3460   23.6090   38.4120 C   0  0  0  0  0  0  0  0  0  0  0  0
   37.9560   24.9410   38.2000 F   0  0  0  0  0  0  0  0  0  0  0  0
   37.3040   22.8570   38.8880 F   0  0  0  0  0  0  0  0  0  0  0  0
   39.3430   23.6680   39.3590 F   0  0  0  0  0  0  0  0  0  0  0  0
   36.7480   23.7590   30.7220 O   0  0  0  0  0  0  0  0  0  0  0  0
   38.9050   27.6340   31.5970 H   0  0  0  0  0  0  0  0  0  0  0  0
   38.0100   27.1390   31.4670 N   0  0  0  0  0  0  0  0  0  0  0  0
   38.0800   25.8240   31.1930 C   0  0  0  0  0  3  0  0  0  0  0  0
   36.9200   25.1010   31.0090 C   0  0  0  0  0  0  0  0  0  0  0  0
   35.7000   25.7720   31.1140 C   0  0  0  0  0  0  0  0  0  0  0  0
   34.5270   25.3240   30.9860 O   0  0  0  0  0  0  0  0  0  0  0  0
   35.6820   27.1000   31.3930 N   0  0  0  0  0  0  0  0  0  0  0  0
   36.8340   27.7820   31.5680 C   0  0  0  0  0  0  0  0  0  0  0  0
   36.8670   29.0210   31.8300 O   0  0  0  0  0  0  0  0  0  0  0  0
   34.8360   27.6970   31.4930 H   0  0  0  0  0  0  0  0  0  0  0  0
  1  7  1  0  0  0  0
  1  2  1  0  0  0  0
  2  8  1  0  0  0  0
  3  2  2  0  0  0  0
  3  9  1  0  0  0  0
  4  3  1  0  0  0  0
  5  4  2  0  0  0  0
  6  5  1  0  0  0  0
  6  1  2  0  0  0  0
  9 14  1  0  0  0  0
 10  9  2  0  0  0  0
 10 11  1  0  0  0  0
 11 12  2  0  0  0  0
 12 13  1  0  0  0  0
 13 17  1  0  0  0  0
 14 13  2  0  0  0  0
 15 10  1  0  0  0  0
 16 11  1  0  0  0  0
 17 19  1  0  0  0  0
 17 20  1  0  0  0  0
 18 17  1  0  0  0  0
 21 25  1  0  0  0  0
 21  5  1  0  0  0  0
 23 29  1  0  0  0  0
 23 22  1  0  0  0  0
 24 23  1  0  0  0  0
 25 26  1  0  0  0  0
 25 24  2  0  0  0  0
 26 28  1  0  0  0  0
 27 26  2  0  0  0  0
 28 31  1  0  0  0  0
 28 29  1  0  0  0  0
 29 30  2  0  0  0  0
M  END
>  <minimizedAffinity>
-6.25698566

$$$$

 OpenBabel03272502263D

 31 33  0  0  0  0  0  0  0  0999 V2000
   35.4560   20.6190   33.6200 C   0  0  0  0  0  0  0  0  0  0  0  0
   36.2330   20.8990   34.7560 C   0  0  0  0  0  0  0  0  0  0  0  0
   37.2370   21.8480   34.6320 C   0  0  0  0  0  0  0  0  0  0  0  0
   37.4000   22.4330   33.4340 N   0  0  0  0  0  0  0  0  0  0  0  0
   36.6520   22.1550   32.3570 C   0  0  0  0  0  0  0  0  0  0  0  0
   35.6730   21.2430   32.4500 N   0  0  0  0  0  0  0  0  0  0  0  0
   34.6870   19.8760   33.7610 H   0  0  0  0  0  0  0  0  0  0  0  0
   36.1030   20.4360   35.7000 H   0  0  0  0  0  0  0  0  0  0  0  0
   38.0850   22.2470   35.7370 C   0  0  0  0  0  0  0  0  0  0  0  0
   37.5830   23.0020   36.7830 C   0  0  0  0  0  0  0  0  0  0  0  0
   38.3430   23.3830   37.8640 C   0  0  0  0  0  0  0  0  0  0  0  0
   39.6470   23.0090   37.9170 N   0  0  0  0  0  0  0  0  0  0  0  0
   40.1150   22.2790   36.8930 C   0  0  0  0  0  0  0  0  0  0  0  0
   39.3890   21.8950   35.8280 N   0  0  0  0  0  0  0  0  0  0  0  0
   36.5360   23.3210   36.7720 H   0  0  0  0  0  0  0  0  0  0  0  0
   37.8860   23.9740   38.6480 H   0  0  0  0  0  0  0  0  0  0  0  0
   41.5400   21.8530   36.9250 C   0  0  0  0  0  0  0  0  0  0  0  0
   41.7230   21.0800   38.0830 F   0  0  0  0  0  0  0  0  0  0  0  0
   41.8720   21.1460   35.8000 F   0  0  0  0  0  0  0  0  0  0  0  0
   42.3930   22.9240   37.0650 F   0  0  0  0  0  0  0  0  0  0  0  0
   36.9570   22.8540   31.2000 O   0  0  0  0  0  0  0  0  0  0  0  0
   34.4200   26.5960   31.2190 H   0  0  0  0  0  0  0  0  0  0  0  0
   35.3480   26.1670   31.0880 N   0  0  0  0  0  0  0  0  0  0  0  0
   35.4270   24.8340   31.2480 C   0  0  0  0  0  3  0  0  0  0  0  0
   36.6390   24.1960   31.0870 C   0  0  0  0  0  0  0  0  0  0  0  0
   37.7540   24.9690   30.7580 C   0  0  0  0  0  0  0  0  0  0  0  0
   38.9480   24.6090   30.5640 O   0  0  0  0  0  0  0  0  0  0  0  0
   37.6230   26.3120   30.6070 N   0  0  0  0  0  0  0  0  0  0  0  0
   36.4240   26.9090   30.7710 C   0  0  0  0  0  0  0  0  0  0  0  0
   36.2530   28.1570   30.6400 O   0  0  0  0  0  0  0  0  0  0  0  0
   38.3820   26.9810   30.3650 H   0  0  0  0  0  0  0  0  0  0  0  0
  1  7  1  0  0  0  0
  1  2  1  0  0  0  0
  2  8  1  0  0  0  0
  3  2  2  0  0  0  0
  3  9  1  0  0  0  0
  4  3  1  0  0  0  0
  5  6  1  0  0  0  0
  5  4  2  0  0  0  0
  6  1  2  0  0  0  0
  9 14  2  0  0  0  0
  9 10  1  0  0  0  0
 10 11  2  0  0  0  0
 11 12  1  0  0  0  0
 11 16  1  0  0  0  0
 13 17  1  0  0  0  0
 13 12  2  0  0  0  0
 14 13  1  0  0  0  0
 15 10  1  0  0  0  0
 17 20  1  0  0  0  0
 17 18  1  0  0  0  0
 19 17  1  0  0  0  0
 21  5  1  0  0  0  0
 23 22  1  0  0  0  0
 23 24  1  0  0  0  0
 25 21  1  0  0  0  0
 25 24  2  0  0  0  0
 26 25  1  0  0  0  0
 27 26  2  0  0  0  0
 28 26  1  0  0  0  0
 28 29  1  0  0  0  0
 29 23  1  0  0  0  0
 30 29  2  0  0  0  0
 31 28  1  0  0  0  0
M  END
>  <minimizedAffinity>
-6.07445431

$$$$

 OpenBabel03272502263D

 31 33  0  0  0  0  0  0  0  0999 V2000
   37.4890   23.7160   32.8580 C   0  0  0  0  0  0  0  0  0  0  0  0
   36.9930   24.9640   32.4470 C   0  0  0  0  0  0  0  0  0  0  0  0
   37.1730   26.0410   33.3010 C   0  0  0  0  0  0  0  0  0  0  0  0
   37.8070   25.8190   34.4640 N   0  0  0  0  0  0  0  0  0  0  0  0
   38.2750   24.6210   34.8440 C   0  0  0  0  0  0  0  0  0  0  0  0
   38.1150   23.5630   34.0360 N   0  0  0  0  0  0  0  0  0  0  0  0
   37.3280   22.9070   32.1630 H   0  0  0  0  0  0  0  0  0  0  0  0
   36.4930   25.1390   31.5290 H   0  0  0  0  0  0  0  0  0  0  0  0
   36.7350   27.3850   32.9790 C   0  0  0  0  0  0  0  0  0  0  0  0
   36.7460   27.8440   31.6730 C   0  0  0  0  0  0  0  0  0  0  0  0
   36.3180   29.1000   31.3160 C   0  0  0  0  0  0  0  0  0  0  0  0
   35.8610   29.9390   32.2820 N   0  0  0  0  0  0  0  0  0  0  0  0
   35.8590   29.4770   33.5420 C   0  0  0  0  0  0  0  0  0  0  0  0
   36.2730   28.2510   33.9110 N   0  0  0  0  0  0  0  0  0  0  0  0
   37.1080   27.1940   30.8700 H   0  0  0  0  0  0  0  0  0  0  0  0
   36.3540   29.3950   30.2750 H   0  0  0  0  0  0  0  0  0  0  0  0
   35.3640   30.3730   34.6200 C   0  0  0  0  0  0  0  0  0  0  0  0
   34.1570   29.8340   35.0950 F   0  0  0  0  0  0  0  0  0  0  0  0
   36.2840   30.4920   35.6280 F   0  0  0  0  0  0  0  0  0  0  0  0
   35.0390   31.6220   34.1410 F   0  0  0  0  0  0  0  0  0  0  0  0
   38.9050   24.5710   36.0770 O   0  0  0  0  0  0  0  0  0  0  0  0
   42.6000   22.0310   35.5030 H   0  0  0  0  0  0  0  0  0  0  0  0
   41.7730   22.2580   36.0740 N   0  0  0  0  0  0  0  0  0  0  0  0
   40.9790   23.2460   35.6250 C   0  0  0  0  0  3  0  0  0  0  0  0
   39.8550   23.6000   36.3400 C   0  0  0  0  0  0  0  0  0  0  0  0
   39.5790   22.9090   37.5220 C   0  0  0  0  0  0  0  0  0  0  0  0
   38.6220   23.0570   38.3310 O   0  0  0  0  0  0  0  0  0  0  0  0
   40.4110   21.9180   37.9340 N   0  0  0  0  0  0  0  0  0  0  0  0
   41.5050   21.5940   37.2120 C   0  0  0  0  0  0  0  0  0  0  0  0
   42.3090   20.6780   37.5560 O   0  0  0  0  0  0  0  0  0  0  0  0
   40.3040   21.3420   38.7930 H   0  0  0  0  0  0  0  0  0  0  0  0
  1  6  1  0  0  0  0
  2  1  2  0  0  0  0
  2  3  1  0  0  0  0
  3  4  2  0  0  0  0
  4  5  1  0  0  0  0
  5 21  1  0  0  0  0
  6  5  2  0  0  0  0
  7  1  1  0  0  0  0
  8  2  1  0  0  0  0
  9  3  1  0  0  0  0
  9 14  1  0  0  0  0
 10  9  2  0  0  0  0
 11 10  1  0  0  0  0
 11 12  2  0  0  0  0
 12 13  1  0  0  0  0
 13 14  2  0  0  0  0
 13 17  1  0  0  0  0
 15 10  1  0  0  0  0
 16 11  1  0  0  0  0
 17 18  1  0  0  0  0
 17 19  1  0  0  0  0
 20 17  1  0  0  0  0
 21 25  1  0  0  0  0
 22 23  1  0  0  0  0
 23 29  1  0  0  0  0
 24 23  1  0  0  0  0
 24 25  2  0  0  0  0
 25 26  1  0  0  0  0
 26 28  1  0  0  0  0
 26 27  2  0  0  0  0
 28 31  1  0  0  0  0
 29 30  2  0  0  0  0
 29 28  1  0  0  0  0
M  END
>  <minimizedAffinity>
-6.05750418

$$$$

 OpenBabel03272502263D

 31 33  0  0  0  0  0  0  0  0999 V2000
   37.0360   27.3490   34.0990 C   0  0  0  0  0  0  0  0  0  0  0  0
   37.4580   26.6500   35.2420 C   0  0  0  0  0  0  0  0  0  0  0  0
   37.9780   25.3780   35.0630 C   0  0  0  0  0  0  0  0  0  0  0  0
   38.0420   24.8980   33.8100 N   0  0  0  0  0  0  0  0  0  0  0  0
   37.6350   25.5760   32.7270 C   0  0  0  0  0  0  0  0  0  0  0  0
   37.1290   26.8100   32.8730 N   0  0  0  0  0  0  0  0  0  0  0  0
   36.6380   28.3350   34.2840 H   0  0  0  0  0  0  0  0  0  0  0  0
   37.4060   27.0290   36.2300 H   0  0  0  0  0  0  0  0  0  0  0  0
   38.4750   24.5670   36.1570 C   0  0  0  0  0  0  0  0  0  0  0  0
   37.8050   24.5180   37.3670 C   0  0  0  0  0  0  0  0  0  0  0  0
   38.2240   23.7460   38.4250 C   0  0  0  0  0  0  0  0  0  0  0  0
   39.3460   22.9940   38.2870 N   0  0  0  0  0  0  0  0  0  0  0  0
   39.9820   23.0560   37.1070 C   0  0  0  0  0  0  0  0  0  0  0  0
   39.5890   23.8040   36.0610 N   0  0  0  0  0  0  0  0  0  0  0  0
   36.8970   25.1120   37.5130 H   0  0  0  0  0  0  0  0  0  0  0  0
   37.6520   23.7550   39.3440 H   0  0  0  0  0  0  0  0  0  0  0  0
   41.2140   22.2420   36.9270 C   0  0  0  0  0  0  0  0  0  0  0  0
   42.3030   23.1290   36.8900 F   0  0  0  0  0  0  0  0  0  0  0  0
   41.3560   21.3260   37.9370 F   0  0  0  0  0  0  0  0  0  0  0  0
   41.2300   21.5960   35.7130 F   0  0  0  0  0  0  0  0  0  0  0  0
   37.7740   24.9310   31.5090 O   0  0  0  0  0  0  0  0  0  0  0  0
   38.2610   20.4440   31.2530 H   0  0  0  0  0  0  0  0  0  0  0  0
   37.6310   21.2590   31.2360 N   0  0  0  0  0  0  0  0  0  0  0  0
   38.2010   22.4680   31.3870 C   0  0  0  0  0  3  0  0  0  0  0  0
   37.4150   23.6020   31.3750 C   0  0  0  0  0  0  0  0  0  0  0  0
   36.0380   23.4490   31.2040 C   0  0  0  0  0  0  0  0  0  0  0  0
   35.1340   24.3290   31.1620 O   0  0  0  0  0  0  0  0  0  0  0  0
   35.5100   22.2070   31.0570 N   0  0  0  0  0  0  0  0  0  0  0  0
   36.3040   21.1150   31.0730 C   0  0  0  0  0  0  0  0  0  0  0  0
   35.8570   19.9380   30.9380 O   0  0  0  0  0  0  0  0  0  0  0  0
   34.5040   21.9770   30.9250 H   0  0  0  0  0  0  0  0  0  0  0  0
  1  7  1  0  0  0  0
  1  2  1  0  0  0  0
  2  8  1  0  0  0  0
  3  2  2  0  0  0  0
  3  9  1  0  0  0  0
  4  3  1  0  0  0  0
  5  6  1  0  0  0  0
  5  4  2  0  0  0  0
  6  1  2  0  0  0  0
  9 10  1  0  0  0  0
 10 15  1  0  0  0  0
 10 11  2  0  0  0  0
 11 16  1  0  0  0  0
 12 11  1  0  0  0  0
 13 12  2  0  0  0  0
 14  9  2  0  0  0  0
 14 13  1  0  0  0  0
 17 13  1  0  0  0  0
 17 19  1  0  0  0  0
 18 17  1  0  0  0  0
 20 17  1  0  0  0  0
 21  5  1  0  0  0  0
 23 22  1  0  0  0  0
 23 24  1  0  0  0  0
 25 24  2  0  0  0  0
 25 21  1  0  0  0  0
 26 25  1  0  0  0  0
 27 26  2  0  0  0  0
 28 29  1  0  0  0  0
 28 26  1  0  0  0  0
 29 23  1  0  0  0  0
 30 29  2  0  0  0  0
 31 28  1  0  0  0  0
M  END
>  <minimizedAffinity>
-6.01370668

$$$$

 OpenBabel03272502263D

 31 33  0  0  0  0  0  0  0  0999 V2000
   35.7100   24.5100   31.1020 C   0  0  0  0  0  0  0  0  0  0  0  0
   35.4410   25.8870   31.1580 C   0  0  0  0  0  0  0  0  0  0  0  0
   36.2140   26.6600   32.0110 C   0  0  0  0  0  0  0  0  0  0  0  0
   37.1660   26.0400   32.7270 N   0  0  0  0  0  0  0  0  0  0  0  0
   37.4120   24.7230   32.6640 C   0  0  0  0  0  0  0  0  0  0  0  0
   36.6790   23.9530   31.8460 N   0  0  0  0  0  0  0  0  0  0  0  0
   35.0850   23.9470   30.4260 H   0  0  0  0  0  0  0  0  0  0  0  0
   34.6890   26.3760   30.5930 H   0  0  0  0  0  0  0  0  0  0  0  0
   36.0560   28.0950   32.1370 C   0  0  0  0  0  0  0  0  0  0  0  0
   36.1550   28.9220   31.0300 C   0  0  0  0  0  0  0  0  0  0  0  0
   35.9890   30.2850   31.0960 C   0  0  0  0  0  0  0  0  0  0  0  0
   35.7150   30.8580   32.2960 N   0  0  0  0  0  0  0  0  0  0  0  0
   35.6230   30.0410   33.3560 C   0  0  0  0  0  0  0  0  0  0  0  0
   35.7820   28.7050   33.3130 N   0  0  0  0  0  0  0  0  0  0  0  0
   36.3750   28.4930   30.0480 H   0  0  0  0  0  0  0  0  0  0  0  0
   36.0800   30.8720   30.1910 H   0  0  0  0  0  0  0  0  0  0  0  0
   35.3230   30.6400   34.6840 C   0  0  0  0  0  0  0  0  0  0  0  0
   35.2560   32.0320   34.5110 F   0  0  0  0  0  0  0  0  0  0  0  0
   34.1520   30.1480   35.1970 F   0  0  0  0  0  0  0  0  0  0  0  0
   36.3440   30.4340   35.5830 F   0  0  0  0  0  0  0  0  0  0  0  0
   38.4330   24.2490   33.4720 O   0  0  0  0  0  0  0  0  0  0  0  0
   38.0020   25.3350   37.8390 H   0  0  0  0  0  0  0  0  0  0  0  0
   38.0000   24.6030   37.1130 N   0  0  0  0  0  0  0  0  0  0  0  0
   38.2200   25.0030   35.8490 C   0  0  0  0  0  3  0  0  0  0  0  0
   38.2310   24.0740   34.8290 C   0  0  0  0  0  0  0  0  0  0  0  0
   38.0080   22.7340   35.1540 C   0  0  0  0  0  0  0  0  0  0  0  0
   37.9710   21.7240   34.3990 O   0  0  0  0  0  0  0  0  0  0  0  0
   37.7890   22.3800   36.4460 N   0  0  0  0  0  0  0  0  0  0  0  0
   37.7850   23.3120   37.4230 C   0  0  0  0  0  0  0  0  0  0  0  0
   37.5870   23.0290   38.6420 O   0  0  0  0  0  0  0  0  0  0  0  0
   37.6130   21.4180   36.8000 H   0  0  0  0  0  0  0  0  0  0  0  0
  1  2  2  0  0  0  0
  1  6  1  0  0  0  0
  2  3  1  0  0  0  0
  3  9  1  0  0  0  0
  3  4  2  0  0  0  0
  5  4  1  0  0  0  0
  5 21  1  0  0  0  0
  6  5  2  0  0  0  0
  7  1  1  0  0  0  0
  8  2  1  0  0  0  0
  9 14  1  0  0  0  0
 10 11  1  0  0  0  0
 10  9  2  0  0  0  0
 11 12  2  0  0  0  0
 12 13  1  0  0  0  0
 13 17  1  0  0  0  0
 14 13  2  0  0  0  0
 15 10  1  0  0  0  0
 16 11  1  0  0  0  0
 17 19  1  0  0  0  0
 17 20  1  0  0  0  0
 18 17  1  0  0  0  0
 21 25  1  0  0  0  0
 23 29  1  0  0  0  0
 23 22  1  0  0  0  0
 24 23  1  0  0  0  0
 25 26  1  0  0  0  0
 25 24  2  0  0  0  0
 26 28  1  0  0  0  0
 27 26  2  0  0  0  0
 28 31  1  0  0  0  0
 28 29  1  0  0  0  0
 29 30  2  0  0  0  0
M  END
>  <minimizedAffinity>
-6.01317263

$$$$

 OpenBabel03272502263D

 31 33  0  0  0  0  0  0  0  0999 V2000
   35.5150   23.9000   31.2610 C   0  0  0  0  0  0  0  0  0  0  0  0
   35.3080   25.2570   30.9650 C   0  0  0  0  0  0  0  0  0  0  0  0
   36.1810   26.1780   31.5260 C   0  0  0  0  0  0  0  0  0  0  0  0
   37.1620   25.7110   32.3140 N   0  0  0  0  0  0  0  0  0  0  0  0
   37.3470   24.4120   32.5890 C   0  0  0  0  0  0  0  0  0  0  0  0
   36.5180   23.5000   32.0590 N   0  0  0  0  0  0  0  0  0  0  0  0
   34.8140   23.2190   30.8050 H   0  0  0  0  0  0  0  0  0  0  0  0
   34.5330   25.6250   30.3440 H   0  0  0  0  0  0  0  0  0  0  0  0
   36.0930   27.6030   31.2730 C   0  0  0  0  0  0  0  0  0  0  0  0
   35.3090   28.4190   32.0710 C   0  0  0  0  0  0  0  0  0  0  0  0
   35.2130   29.7780   31.8850 C   0  0  0  0  0  0  0  0  0  0  0  0
   35.9150   30.3560   30.8770 N   0  0  0  0  0  0  0  0  0  0  0  0
   36.6680   29.5480   30.1150 C   0  0  0  0  0  0  0  0  0  0  0  0
   36.7750   28.2170   30.2790 N   0  0  0  0  0  0  0  0  0  0  0  0
   34.7300   27.9860   32.8920 H   0  0  0  0  0  0  0  0  0  0  0  0
   34.5810   30.3580   32.5460 H   0  0  0  0  0  0  0  0  0  0  0  0
   37.4470   30.1540   29.0030 C   0  0  0  0  0  0  0  0  0  0  0  0
   38.6610   30.6120   29.5400 F   0  0  0  0  0  0  0  0  0  0  0  0
   37.6620   29.2490   27.9960 F   0  0  0  0  0  0  0  0  0  0  0  0
   36.8310   31.2730   28.4920 F   0  0  0  0  0  0  0  0  0  0  0  0
   38.4110   24.1050   33.4220 O   0  0  0  0  0  0  0  0  0  0  0  0
   37.9140   25.4230   37.7180 H   0  0  0  0  0  0  0  0  0  0  0  0
   37.9620   24.6490   37.0380 N   0  0  0  0  0  0  0  0  0  0  0  0
   38.1510   24.9860   35.7500 C   0  0  0  0  0  3  0  0  0  0  0  0
   38.2250   23.9990   34.7880 C   0  0  0  0  0  0  0  0  0  0  0  0
   38.0980   22.6690   35.1960 C   0  0  0  0  0  0  0  0  0  0  0  0
   38.1310   21.6140   34.5040 O   0  0  0  0  0  0  0  0  0  0  0  0
   37.9080   22.3810   36.5080 N   0  0  0  0  0  0  0  0  0  0  0  0
   37.8400   23.3680   37.4270 C   0  0  0  0  0  0  0  0  0  0  0  0
   37.6650   23.1470   38.6620 O   0  0  0  0  0  0  0  0  0  0  0  0
   37.8010   21.4320   36.9210 H   0  0  0  0  0  0  0  0  0  0  0  0
  1  6  1  0  0  0  0
  2  1  2  0  0  0  0
  2  3  1  0  0  0  0
  3  4  2  0  0  0  0
  4  5  1  0  0  0  0
  5 21  1  0  0  0  0
  6  5  2  0  0  0  0
  7  1  1  0  0  0  0
  8  2  1  0  0  0  0
  9  3  1  0  0  0  0
  9 10  1  0  0  0  0
 10 15  1  0  0  0  0
 11 10  2  0  0  0  0
 11 16  1  0  0  0  0
 12 11  1  0  0  0  0
 13 14  1  0  0  0  0
 13 12  2  0  0  0  0
 14  9  2  0  0  0  0
 17 18  1  0  0  0  0
 17 13  1  0  0  0  0
 19 17  1  0  0  0  0
 20 17  1  0  0  0  0
 21 25  1  0  0  0  0
 23 29  1  0  0  0  0
 23 22  1  0  0  0  0
 24 23  1  0  0  0  0
 25 26  1  0  0  0  0
 25 24  2  0  0  0  0
 26 28  1  0  0  0  0
 27 26  2  0  0  0  0
 28 31  1  0  0  0  0
 28 29  1  0  0  0  0
 29 30  2  0  0  0  0
M  END
>  <minimizedAffinity>
-5.88001251

$$$$

 OpenBabel03272502263D

 31 33  0  0  0  0  0  0  0  0999 V2000
   36.1620   23.2900   31.3690 C   0  0  0  0  0  0  0  0  0  0  0  0
   36.8490   22.8330   32.5050 C   0  0  0  0  0  0  0  0  0  0  0  0
   37.7910   23.6790   33.0720 C   0  0  0  0  0  0  0  0  0  0  0  0
   37.9840   24.8770   32.4950 N   0  0  0  0  0  0  0  0  0  0  0  0
   37.3210   25.3000   31.4090 C   0  0  0  0  0  0  0  0  0  0  0  0
   36.4030   24.5010   30.8430 N   0  0  0  0  0  0  0  0  0  0  0  0
   35.4390   22.6010   30.9620 H   0  0  0  0  0  0  0  0  0  0  0  0
   36.6970   21.8880   32.9590 H   0  0  0  0  0  0  0  0  0  0  0  0
   38.5440   23.3370   34.2620 C   0  0  0  0  0  0  0  0  0  0  0  0
   39.7700   22.7000   34.1700 C   0  0  0  0  0  0  0  0  0  0  0  0
   40.5310   22.3780   35.2680 C   0  0  0  0  0  0  0  0  0  0  0  0
   40.0690   22.6930   36.5060 N   0  0  0  0  0  0  0  0  0  0  0  0
   38.8790   23.3100   36.5740 C   0  0  0  0  0  0  0  0  0  0  0  0
   38.1190   23.6340   35.5120 N   0  0  0  0  0  0  0  0  0  0  0  0
   40.1720   22.4310   33.1890 H   0  0  0  0  0  0  0  0  0  0  0  0
   41.4810   21.8800   35.1250 H   0  0  0  0  0  0  0  0  0  0  0  0
   38.3470   23.6680   37.9160 C   0  0  0  0  0  0  0  0  0  0  0  0
   38.0910   25.0490   37.9120 F   0  0  0  0  0  0  0  0  0  0  0  0
   37.2140   22.9550   38.2080 F   0  0  0  0  0  0  0  0  0  0  0  0
   39.2820   23.4750   38.9080 F   0  0  0  0  0  0  0  0  0  0  0  0
   37.6440   26.5650   30.9460 O   0  0  0  0  0  0  0  0  0  0  0  0
   34.7440   29.1940   33.2080 H   0  0  0  0  0  0  0  0  0  0  0  0
   35.3030   29.0360   32.3560 N   0  0  0  0  0  0  0  0  0  0  0  0
   36.0430   27.9140   32.3170 C   0  0  0  0  0  3  0  0  0  0  0  0
   36.8140   27.6410   31.2070 C   0  0  0  0  0  0  0  0  0  0  0  0
   36.7960   28.5530   30.1500 C   0  0  0  0  0  0  0  0  0  0  0  0
   37.4120   28.5140   29.0490 O   0  0  0  0  0  0  0  0  0  0  0  0
   36.0320   29.6720   30.2360 N   0  0  0  0  0  0  0  0  0  0  0  0
   35.2870   29.9130   31.3370 C   0  0  0  0  0  0  0  0  0  0  0  0
   34.5600   30.9410   31.4630 O   0  0  0  0  0  0  0  0  0  0  0  0
   35.9440   30.4150   29.5140 H   0  0  0  0  0  0  0  0  0  0  0  0
  1  2  1  0  0  0  0
  2  8  1  0  0  0  0
  2  3  2  0  0  0  0
  3  9  1  0  0  0  0
  4  3  1  0  0  0  0
  5  4  2  0  0  0  0
  6  1  2  0  0  0  0
  6  5  1  0  0  0  0
  7  1  1  0  0  0  0
  9 14  1  0  0  0  0
 10  9  2  0  0  0  0
 10 11  1  0  0  0  0
 11 12  2  0  0  0  0
 12 13  1  0  0  0  0
 13 17  1  0  0  0  0
 14 13  2  0  0  0  0
 15 10  1  0  0  0  0
 16 11  1  0  0  0  0
 17 19  1  0  0  0  0
 17 20  1  0  0  0  0
 18 17  1  0  0  0  0
 21 25  1  0  0  0  0
 21  5  1  0  0  0  0
 23 22  1  0  0  0  0
 24 23  1  0  0  0  0
 25 24  2  0  0  0  0
 26 28  1  0  0  0  0
 26 25  1  0  0  0  0
 27 26  2  0  0  0  0
 28 29  1  0  0  0  0
 29 30  2  0  0  0  0
 29 23  1  0  0  0  0
 31 28  1  0  0  0  0
M  END
>  <minimizedAffinity>
-5.83731031

$$$$

 OpenBabel03272502263D

 31 33  0  0  0  0  0  0  0  0999 V2000
   36.0060   25.6940   31.4900 C   0  0  0  0  0  0  0  0  0  0  0  0
   36.8460   24.9360   32.3230 C   0  0  0  0  0  0  0  0  0  0  0  0
   37.4420   25.5820   33.3950 C   0  0  0  0  0  0  0  0  0  0  0  0
   37.1790   26.8880   33.5640 N   0  0  0  0  0  0  0  0  0  0  0  0
   36.3770   27.6000   32.7600 C   0  0  0  0  0  0  0  0  0  0  0  0
   35.7860   26.9980   31.7160 N   0  0  0  0  0  0  0  0  0  0  0  0
   35.5640   25.1510   30.6690 H   0  0  0  0  0  0  0  0  0  0  0  0
   37.0530   23.9050   32.1890 H   0  0  0  0  0  0  0  0  0  0  0  0
   38.3040   24.9050   34.3440 C   0  0  0  0  0  0  0  0  0  0  0  0
   39.5740   24.4900   33.9820 C   0  0  0  0  0  0  0  0  0  0  0  0
   40.4350   23.8660   34.8530 C   0  0  0  0  0  0  0  0  0  0  0  0
   40.0320   23.6410   36.1300 N   0  0  0  0  0  0  0  0  0  0  0  0
   38.7970   24.0500   36.4620 C   0  0  0  0  0  0  0  0  0  0  0  0
   37.9400   24.6610   35.6250 N   0  0  0  0  0  0  0  0  0  0  0  0
   39.9310   24.6560   32.9610 H   0  0  0  0  0  0  0  0  0  0  0  0
   41.4160   23.5680   34.5040 H   0  0  0  0  0  0  0  0  0  0  0  0
   38.3280   23.8170   37.8540 C   0  0  0  0  0  0  0  0  0  0  0  0
   39.3480   23.1300   38.5320 F   0  0  0  0  0  0  0  0  0  0  0  0
   38.0260   24.9980   38.4800 F   0  0  0  0  0  0  0  0  0  0  0  0
   37.2360   22.9800   37.8950 F   0  0  0  0  0  0  0  0  0  0  0  0
   36.2150   28.9380   33.0810 O   0  0  0  0  0  0  0  0  0  0  0  0
   34.6720   31.5840   29.7560 H   0  0  0  0  0  0  0  0  0  0  0  0
   34.4930   31.1100   30.6540 N   0  0  0  0  0  0  0  0  0  0  0  0
   35.5030   30.3880   31.1690 C   0  0  0  0  0  3  0  0  0  0  0  0
   35.3310   29.7290   32.3680 C   0  0  0  0  0  0  0  0  0  0  0  0
   34.0960   29.8370   33.0100 C   0  0  0  0  0  0  0  0  0  0  0  0
   33.7130   29.3270   34.1000 O   0  0  0  0  0  0  0  0  0  0  0  0
   33.1060   30.5770   32.4490 N   0  0  0  0  0  0  0  0  0  0  0  0
   33.3040   31.2120   31.2740 C   0  0  0  0  0  0  0  0  0  0  0  0
   32.4120   31.9150   30.7130 O   0  0  0  0  0  0  0  0  0  0  0  0
   32.1520   30.7260   32.8360 H   0  0  0  0  0  0  0  0  0  0  0  0
  1  6  2  0  0  0  0
  1  2  1  0  0  0  0
  2  3  2  0  0  0  0
  3  4  1  0  0  0  0
  3  9  1  0  0  0  0
  5 21  1  0  0  0  0
  5  4  2  0  0  0  0
  6  5  1  0  0  0  0
  7  1  1  0  0  0  0
  8  2  1  0  0  0  0
  9 14  1  0  0  0  0
 10  9  2  0  0  0  0
 10 11  1  0  0  0  0
 11 12  2  0  0  0  0
 12 13  1  0  0  0  0
 13 17  1  0  0  0  0
 14 13  2  0  0  0  0
 15 10  1  0  0  0  0
 16 11  1  0  0  0  0
 17 20  1  0  0  0  0
 17 19  1  0  0  0  0
 17 18  1  0  0  0  0
 22 23  1  0  0  0  0
 23 24  1  0  0  0  0
 23 29  1  0  0  0  0
 24 25  2  0  0  0  0
 25 26  1  0  0  0  0
 25 21  1  0  0  0  0
 26 27  2  0  0  0  0
 28 31  1  0  0  0  0
 28 26  1  0  0  0  0
 29 28  1  0  0  0  0
 30 29  2  0  0  0  0
M  END
>  <minimizedAffinity>
-5.82840395

$$$$

 OpenBabel03272502263D

 31 33  0  0  0  0  0  0  0  0999 V2000
   36.5340   27.1430   32.0810 C   0  0  0  0  0  0  0  0  0  0  0  0
   37.1860   26.0860   32.7370 C   0  0  0  0  0  0  0  0  0  0  0  0
   37.3870   26.2020   34.1040 C   0  0  0  0  0  0  0  0  0  0  0  0
   36.9470   27.3180   34.7090 N   0  0  0  0  0  0  0  0  0  0  0  0
   36.3270   28.3200   34.0700 C   0  0  0  0  0  0  0  0  0  0  0  0
   36.1190   28.2320   32.7480 N   0  0  0  0  0  0  0  0  0  0  0  0
   36.3990   27.0110   31.0200 H   0  0  0  0  0  0  0  0  0  0  0  0
   37.5340   25.2070   32.2590 H   0  0  0  0  0  0  0  0  0  0  0  0
   38.0190   25.1680   34.8990 C   0  0  0  0  0  0  0  0  0  0  0  0
   38.8810   24.2520   34.3200 C   0  0  0  0  0  0  0  0  0  0  0  0
   39.5210   23.2690   35.0370 C   0  0  0  0  0  0  0  0  0  0  0  0
   39.3070   23.1840   36.3750 N   0  0  0  0  0  0  0  0  0  0  0  0
   38.4680   24.0800   36.9180 C   0  0  0  0  0  0  0  0  0  0  0  0
   37.8320   25.0490   36.2340 N   0  0  0  0  0  0  0  0  0  0  0  0
   39.0760   24.2920   33.2440 H   0  0  0  0  0  0  0  0  0  0  0  0
   40.1830   22.5850   34.5200 H   0  0  0  0  0  0  0  0  0  0  0  0
   38.2140   24.0110   38.3810 C   0  0  0  0  0  0  0  0  0  0  0  0
   39.3830   23.5240   38.9890 F   0  0  0  0  0  0  0  0  0  0  0  0
   37.8700   25.2390   38.8840 F   0  0  0  0  0  0  0  0  0  0  0  0
   37.2350   23.0950   38.6910 F   0  0  0  0  0  0  0  0  0  0  0  0
   35.9380   29.3980   34.8500 O   0  0  0  0  0  0  0  0  0  0  0  0
   31.4520   29.9010   34.5980 H   0  0  0  0  0  0  0  0  0  0  0  0
   32.3890   30.3180   34.4880 N   0  0  0  0  0  0  0  0  0  0  0  0
   33.4400   29.5240   34.7570 C   0  0  0  0  0  3  0  0  0  0  0  0
   34.7220   30.0190   34.6310 C   0  0  0  0  0  0  0  0  0  0  0  0
   34.8800   31.3450   34.2220 C   0  0  0  0  0  0  0  0  0  0  0  0
   35.9400   32.0050   34.0410 O   0  0  0  0  0  0  0  0  0  0  0  0
   33.7860   32.1060   33.9630 N   0  0  0  0  0  0  0  0  0  0  0  0
   32.5440   31.5940   34.0960 C   0  0  0  0  0  0  0  0  0  0  0  0
   31.4950   32.2660   33.8640 O   0  0  0  0  0  0  0  0  0  0  0  0
   33.7860   33.1000   33.6550 H   0  0  0  0  0  0  0  0  0  0  0  0
  1  2  2  0  0  0  0
  1  6  1  0  0  0  0
  2  3  1  0  0  0  0
  3  4  2  0  0  0  0
  3  9  1  0  0  0  0
  5  4  1  0  0  0  0
  5 21  1  0  0  0  0
  6  5  2  0  0  0  0
  7  1  1  0  0  0  0
  8  2  1  0  0  0  0
  9 14  1  0  0  0  0
 10  9  2  0  0  0  0
 10 11  1  0  0  0  0
 11 12  2  0  0  0  0
 12 13  1  0  0  0  0
 13 17  1  0  0  0  0
 14 13  2  0  0  0  0
 15 10  1  0  0  0  0
 16 11  1  0  0  0  0
 17 20  1  0  0  0  0
 17 19  1  0  0  0  0
 17 18  1  0  0  0  0
 23 22  1  0  0  0  0
 23 24  1  0  0  0  0
 25 24  2  0  0  0  0
 25 21  1  0  0  0  0
 26 25  1  0  0  0  0
 27 26  2  0  0  0  0
 28 29  1  0  0  0  0
 28 26  1  0  0  0  0
 29 23  1  0  0  0  0
 30 29  2  0  0  0  0
 31 28  1  0  0  0  0
M  END
>  <minimizedAffinity>
-5.73767471

$$$$
