
 OpenBabel03272503073D

 33 35  0  0  0  0  0  0  0  0999 V2000
   36.2790   27.0880   35.2550 F   0  0  0  0  0  0  0  0  0  0  0  0
   36.7100   27.3720   34.0130 C   0  0  0  0  0  0  0  0  0  0  0  0
   36.3460   28.5500   33.4240 C   0  0  0  0  0  0  0  0  0  0  0  0
   36.8200   28.7840   32.1520 C   0  0  0  0  0  0  0  0  0  0  0  0
   37.6270   27.8910   31.4780 C   0  0  0  0  0  0  0  0  0  0  0  0
   37.9870   26.7050   32.0880 C   0  0  0  0  0  0  0  0  0  0  0  0
   37.5180   26.4600   33.3590 C   0  0  0  0  0  0  0  0  0  0  0  0
   36.5320   29.7210   31.6780 H   0  0  0  0  0  0  0  0  0  0  0  0
   37.9940   28.0860   30.4770 H   0  0  0  0  0  0  0  0  0  0  0  0
   38.6100   25.9710   31.6200 H   0  0  0  0  0  0  0  0  0  0  0  0
   35.1470   31.3130   35.7050 C   0  0  0  0  0  0  0  0  0  0  0  0
   36.0050   30.4510   35.0000 C   0  0  0  0  0  0  0  0  0  0  0  0
   35.4940   29.4630   34.1700 C   0  0  0  0  0  0  0  0  0  0  0  0
   34.1250   29.3700   34.0700 N   0  0  0  0  0  0  0  0  0  0  0  0
   33.3200   30.2050   34.7520 C   0  0  0  0  0  0  0  0  0  0  0  0
   33.8140   31.1540   35.5500 N   0  0  0  0  0  0  0  0  0  0  0  0
   35.5650   32.0780   36.3470 H   0  0  0  0  0  0  0  0  0  0  0  0
   37.0580   30.5630   35.1110 H   0  0  0  0  0  0  0  0  0  0  0  0
   32.2680   30.0170   34.5770 H   0  0  0  0  0  0  0  0  0  0  0  0
   38.9890   25.2970   34.8930 C   0  0  0  0  0  0  0  0  0  0  0  0
   39.5280   26.4660   34.9180 O   0  0  0  0  0  0  0  0  0  0  0  0
   37.8570   25.2330   34.0390 N   0  0  0  0  0  0  0  0  0  0  0  0
   37.3490   24.3490   33.9470 H   0  0  0  0  0  0  0  0  0  0  0  0
   42.5460   22.8210   36.0220 H   0  0  0  0  0  0  0  0  0  0  0  0
   41.5290   22.9770   36.1850 N   0  0  0  0  0  0  0  0  0  0  0  0
   40.9070   23.9560   35.5070 C   0  0  0  0  0  3  0  0  0  0  0  0
   39.5420   24.2200   35.6800 C   0  0  0  0  0  0  0  0  0  0  0  0
   38.9380   23.3850   36.5930 C   0  0  0  0  0  0  0  0  0  0  0  0
   37.7330   23.5770   36.7800 O   0  0  0  0  0  0  0  0  0  0  0  0
   39.5720   22.4100   37.2640 N   0  0  0  0  0  0  0  0  0  0  0  0
   40.8830   22.1940   37.0670 C   0  0  0  0  0  0  0  0  0  0  0  0
   41.5210   21.3060   37.6600 O   0  0  0  0  0  0  0  0  0  0  0  0
   39.0280   21.8320   37.9340 H   0  0  0  0  0  0  0  0  0  0  0  0
  2  1  1  0  0  0  0
  3  2  1  0  0  0  0
  3 13  1  0  0  0  0
  4  3  2  0  0  0  0
  5  6  2  0  0  0  0
  5  4  1  0  0  0  0
  6  7  1  0  0  0  0
  7  2  2  0  0  0  0
  7 22  1  0  0  0  0
  8  4  1  0  0  0  0
  9  5  1  0  0  0  0
 10  6  1  0  0  0  0
 11 17  1  0  0  0  0
 12 18  1  0  0  0  0
 12 11  2  0  0  0  0
 13 12  1  0  0  0  0
 14 13  2  0  0  0  0
 14 15  1  0  0  0  0
 15 16  2  0  0  0  0
 16 11  1  0  0  0  0
 19 15  1  0  0  0  0
 20 21  2  0  0  0  0
 20 27  1  0  0  0  0
 22 20  1  0  0  0  0
 23 22  1  0  0  0  0
 24 25  1  0  0  0  0
 25 31  1  0  0  0  0
 26 27  2  0  0  0  0
 26 25  1  0  0  0  0
 27 28  1  0  0  0  0
 28 29  2  0  0  0  0
 28 30  1  0  0  0  0
 30 33  1  0  0  0  0
 31 30  1  0  0  0  0
 31 32  2  0  0  0  0
M  END
>  <minimizedAffinity>
-5.8006568

$$$$

 OpenBabel03272503073D

 33 35  0  0  0  0  0  0  0  0999 V2000
   40.2080   23.8020   34.7680 F   0  0  0  0  0  0  0  0  0  0  0  0
   39.6160   23.7030   35.9710 C   0  0  0  0  0  0  0  0  0  0  0  0
   40.2620   23.0630   36.9920 C   0  0  0  0  0  0  0  0  0  0  0  0
   39.6050   22.9960   38.2010 C   0  0  0  0  0  0  0  0  0  0  0  0
   38.3530   23.5400   38.4050 C   0  0  0  0  0  0  0  0  0  0  0  0
   37.7150   24.1840   37.3630 C   0  0  0  0  0  0  0  0  0  0  0  0
   38.3610   24.2570   36.1490 C   0  0  0  0  0  0  0  0  0  0  0  0
   40.1150   22.4870   39.0170 H   0  0  0  0  0  0  0  0  0  0  0  0
   37.8470   23.4810   39.3610 H   0  0  0  0  0  0  0  0  0  0  0  0
   36.7440   24.6270   37.4550 H   0  0  0  0  0  0  0  0  0  0  0  0
   43.1100   20.6360   36.4770 C   0  0  0  0  0  0  0  0  0  0  0  0
   41.8220   21.1370   36.7300 C   0  0  0  0  0  0  0  0  0  0  0  0
   41.5790   22.5040   36.7340 C   0  0  0  0  0  0  0  0  0  0  0  0
   42.6460   23.3340   36.4820 N   0  0  0  0  0  0  0  0  0  0  0  0
   43.8730   22.8360   36.2410 C   0  0  0  0  0  0  0  0  0  0  0  0
   44.1040   21.5210   36.2370 N   0  0  0  0  0  0  0  0  0  0  0  0
   43.2800   19.5660   36.4770 H   0  0  0  0  0  0  0  0  0  0  0  0
   41.0280   20.4530   36.9200 H   0  0  0  0  0  0  0  0  0  0  0  0
   44.6140   23.6030   36.0580 H   0  0  0  0  0  0  0  0  0  0  0  0
   37.8350   26.3270   35.0070 C   0  0  0  0  0  0  0  0  0  0  0  0
   38.4860   26.7940   36.0150 O   0  0  0  0  0  0  0  0  0  0  0  0
   37.7350   24.9110   35.0260 N   0  0  0  0  0  0  0  0  0  0  0  0
   37.2390   24.4350   34.2680 H   0  0  0  0  0  0  0  0  0  0  0  0
   35.2390   29.8390   34.0180 H   0  0  0  0  0  0  0  0  0  0  0  0
   35.8720   29.1100   33.6280 N   0  0  0  0  0  0  0  0  0  0  0  0
   36.4330   28.2240   34.4670 C   0  0  0  0  0  3  0  0  0  0  0  0
   37.2960   27.2190   34.0080 C   0  0  0  0  0  0  0  0  0  0  0  0
   37.4890   27.2490   32.6450 C   0  0  0  0  0  0  0  0  0  0  0  0
   38.2420   26.3830   32.1910 O   0  0  0  0  0  0  0  0  0  0  0  0
   36.9220   28.1420   31.8180 N   0  0  0  0  0  0  0  0  0  0  0  0
   36.1020   29.0890   32.3030 C   0  0  0  0  0  0  0  0  0  0  0  0
   35.5480   29.9410   31.5850 O   0  0  0  0  0  0  0  0  0  0  0  0
   37.1310   28.0820   30.8030 H   0  0  0  0  0  0  0  0  0  0  0  0
  1  2  1  0  0  0  0
  2  7  2  0  0  0  0
  2  3  1  0  0  0  0
  3  4  2  0  0  0  0
  4  5  1  0  0  0  0
  4  8  1  0  0  0  0
  5  9  1  0  0  0  0
  6 10  1  0  0  0  0
  6  5  2  0  0  0  0
  7  6  1  0  0  0  0
 11 12  1  0  0  0  0
 12 13  2  0  0  0  0
 12 18  1  0  0  0  0
 13  3  1  0  0  0  0
 14 13  1  0  0  0  0
 15 14  2  0  0  0  0
 16 15  1  0  0  0  0
 16 11  2  0  0  0  0
 17 11  1  0  0  0  0
 19 15  1  0  0  0  0
 20 22  1  0  0  0  0
 20 21  2  0  0  0  0
 22  7  1  0  0  0  0
 23 22  1  0  0  0  0
 25 24  1  0  0  0  0
 25 26  1  0  0  0  0
 27 26  2  0  0  0  0
 27 20  1  0  0  0  0
 28 27  1  0  0  0  0
 29 28  2  0  0  0  0
 30 31  1  0  0  0  0
 30 28  1  0  0  0  0
 31 25  1  0  0  0  0
 32 31  2  0  0  0  0
 33 30  1  0  0  0  0
M  END
>  <minimizedAffinity>
-5.76501656

$$$$

 OpenBabel03272503073D

 33 35  0  0  0  0  0  0  0  0999 V2000
   38.8130   25.3550   32.2090 F   0  0  0  0  0  0  0  0  0  0  0  0
   38.0690   26.2410   32.8940 C   0  0  0  0  0  0  0  0  0  0  0  0
   37.6900   27.4100   32.2960 C   0  0  0  0  0  0  0  0  0  0  0  0
   36.9290   28.2770   33.0490 C   0  0  0  0  0  0  0  0  0  0  0  0
   36.5500   28.0070   34.3480 C   0  0  0  0  0  0  0  0  0  0  0  0
   36.9410   26.8210   34.9370 C   0  0  0  0  0  0  0  0  0  0  0  0
   37.7030   25.9460   34.1950 C   0  0  0  0  0  0  0  0  0  0  0  0
   36.6240   29.2100   32.5770 H   0  0  0  0  0  0  0  0  0  0  0  0
   35.9500   28.6960   34.9300 H   0  0  0  0  0  0  0  0  0  0  0  0
   36.6800   26.5500   35.9400 H   0  0  0  0  0  0  0  0  0  0  0  0
   39.7460   27.5750   29.1310 C   0  0  0  0  0  0  0  0  0  0  0  0
   39.3770   27.3210   30.4640 C   0  0  0  0  0  0  0  0  0  0  0  0
   38.1110   27.6560   30.9260 C   0  0  0  0  0  0  0  0  0  0  0  0
   37.2470   28.2400   30.0300 N   0  0  0  0  0  0  0  0  0  0  0  0
   37.6180   28.4750   28.7580 C   0  0  0  0  0  0  0  0  0  0  0  0
   38.8360   28.1520   28.3160 N   0  0  0  0  0  0  0  0  0  0  0  0
   40.7380   27.3060   28.7890 H   0  0  0  0  0  0  0  0  0  0  0  0
   40.0820   26.8660   31.1190 H   0  0  0  0  0  0  0  0  0  0  0  0
   36.8380   28.9370   28.1670 H   0  0  0  0  0  0  0  0  0  0  0  0
   39.3890   24.7390   35.4470 C   0  0  0  0  0  0  0  0  0  0  0  0
   39.9180   25.9120   35.4440 O   0  0  0  0  0  0  0  0  0  0  0  0
   38.1450   24.6970   34.7650 N   0  0  0  0  0  0  0  0  0  0  0  0
   37.6350   23.8110   34.7090 H   0  0  0  0  0  0  0  0  0  0  0  0
   42.9520   22.0380   35.6990 H   0  0  0  0  0  0  0  0  0  0  0  0
   42.0240   22.2670   36.1130 N   0  0  0  0  0  0  0  0  0  0  0  0
   41.3120   23.2770   35.5880 C   0  0  0  0  0  3  0  0  0  0  0  0
   40.0570   23.6370   36.0980 C   0  0  0  0  0  0  0  0  0  0  0  0
   39.6590   22.8590   37.1620 C   0  0  0  0  0  0  0  0  0  0  0  0
   38.5590   23.1370   37.6470 O   0  0  0  0  0  0  0  0  0  0  0  0
   40.3820   21.8520   37.6770 N   0  0  0  0  0  0  0  0  0  0  0  0
   41.5810   21.5430   37.1560 C   0  0  0  0  0  0  0  0  0  0  0  0
   42.2930   20.6210   37.5920 O   0  0  0  0  0  0  0  0  0  0  0  0
   39.9950   21.3230   38.4830 H   0  0  0  0  0  0  0  0  0  0  0  0
  1  2  1  0  0  0  0
  2  7  1  0  0  0  0
  3  2  2  0  0  0  0
  3  4  1  0  0  0  0
  4  5  2  0  0  0  0
  5  9  1  0  0  0  0
  5  6  1  0  0  0  0
  6 10  1  0  0  0  0
  7 22  1  0  0  0  0
  7  6  2  0  0  0  0
  8  4  1  0  0  0  0
 11 12  1  0  0  0  0
 12 13  2  0  0  0  0
 12 18  1  0  0  0  0
 13  3  1  0  0  0  0
 14 13  1  0  0  0  0
 15 14  2  0  0  0  0
 16 15  1  0  0  0  0
 16 11  2  0  0  0  0
 17 11  1  0  0  0  0
 19 15  1  0  0  0  0
 20 27  1  0  0  0  0
 21 20  2  0  0  0  0
 22 20  1  0  0  0  0
 23 22  1  0  0  0  0
 24 25  1  0  0  0  0
 25 31  1  0  0  0  0
 26 27  2  0  0  0  0
 26 25  1  0  0  0  0
 27 28  1  0  0  0  0
 28 29  2  0  0  0  0
 28 30  1  0  0  0  0
 30 33  1  0  0  0  0
 31 32  2  0  0  0  0
 31 30  1  0  0  0  0
M  END
>  <minimizedAffinity>
-5.75522375

$$$$

 OpenBabel03272503073D

 33 35  0  0  0  0  0  0  0  0999 V2000
   35.9570   28.1170   34.6740 F   0  0  0  0  0  0  0  0  0  0  0  0
   36.0990   28.8540   33.5580 C   0  0  0  0  0  0  0  0  0  0  0  0
   35.6340   30.1390   33.5330 C   0  0  0  0  0  0  0  0  0  0  0  0
   35.8090   30.8440   32.3630 C   0  0  0  0  0  0  0  0  0  0  0  0
   36.4220   30.3060   31.2500 C   0  0  0  0  0  0  0  0  0  0  0  0
   36.8880   29.0070   31.2910 C   0  0  0  0  0  0  0  0  0  0  0  0
   36.7170   28.2920   32.4560 C   0  0  0  0  0  0  0  0  0  0  0  0
   35.4390   31.8680   32.3380 H   0  0  0  0  0  0  0  0  0  0  0  0
   36.5550   30.8700   30.3340 H   0  0  0  0  0  0  0  0  0  0  0  0
   37.3730   28.5310   30.4640 H   0  0  0  0  0  0  0  0  0  0  0  0
   35.0110   31.9480   36.7910 C   0  0  0  0  0  0  0  0  0  0  0  0
   35.6670   31.4580   35.6480 C   0  0  0  0  0  0  0  0  0  0  0  0
   34.9930   30.6660   34.7280 C   0  0  0  0  0  0  0  0  0  0  0  0
   33.6710   30.3890   34.9840 N   0  0  0  0  0  0  0  0  0  0  0  0
   33.0600   30.8670   36.0840 C   0  0  0  0  0  0  0  0  0  0  0  0
   33.7100   31.6280   36.9670 N   0  0  0  0  0  0  0  0  0  0  0  0
   35.5540   32.5640   37.4980 H   0  0  0  0  0  0  0  0  0  0  0  0
   36.6920   31.7010   35.4950 H   0  0  0  0  0  0  0  0  0  0  0  0
   32.0220   30.5700   36.1560 H   0  0  0  0  0  0  0  0  0  0  0  0
   36.3310   25.9520   31.9620 C   0  0  0  0  0  0  0  0  0  0  0  0
   35.2770   26.4640   31.4300 O   0  0  0  0  0  0  0  0  0  0  0  0
   37.1780   26.9280   32.5510 N   0  0  0  0  0  0  0  0  0  0  0  0
   38.0480   26.6290   33.0010 H   0  0  0  0  0  0  0  0  0  0  0  0
   34.9840   21.9110   30.5800 H   0  0  0  0  0  0  0  0  0  0  0  0
   35.7110   22.4310   31.1150 N   0  0  0  0  0  0  0  0  0  0  0  0
   35.6080   23.7660   31.2180 C   0  0  0  0  0  3  0  0  0  0  0  0
   36.5520   24.5250   31.9220 C   0  0  0  0  0  0  0  0  0  0  0  0
   37.5590   23.7650   32.4740 C   0  0  0  0  0  0  0  0  0  0  0  0
   38.4160   24.3890   33.1050 O   0  0  0  0  0  0  0  0  0  0  0  0
   37.6500   22.4310   32.3620 N   0  0  0  0  0  0  0  0  0  0  0  0
   36.7210   21.7440   31.6760 C   0  0  0  0  0  0  0  0  0  0  0  0
   36.7540   20.5080   31.5400 O   0  0  0  0  0  0  0  0  0  0  0  0
   38.4490   21.9470   32.8150 H   0  0  0  0  0  0  0  0  0  0  0  0
  2  1  1  0  0  0  0
  3  2  1  0  0  0  0
  3 13  1  0  0  0  0
  4  3  2  0  0  0  0
  5  6  2  0  0  0  0
  5  4  1  0  0  0  0
  6  7  1  0  0  0  0
  7 22  1  0  0  0  0
  7  2  2  0  0  0  0
  8  4  1  0  0  0  0
  9  5  1  0  0  0  0
 10  6  1  0  0  0  0
 11 16  1  0  0  0  0
 11 17  1  0  0  0  0
 12 11  2  0  0  0  0
 13 14  2  0  0  0  0
 13 12  1  0  0  0  0
 14 15  1  0  0  0  0
 15 19  1  0  0  0  0
 15 16  2  0  0  0  0
 18 12  1  0  0  0  0
 20 22  1  0  0  0  0
 21 20  2  0  0  0  0
 22 23  1  0  0  0  0
 24 25  1  0  0  0  0
 25 26  1  0  0  0  0
 25 31  1  0  0  0  0
 26 27  2  0  0  0  0
 27 20  1  0  0  0  0
 27 28  1  0  0  0  0
 28 29  2  0  0  0  0
 30 28  1  0  0  0  0
 30 33  1  0  0  0  0
 31 30  1  0  0  0  0
 32 31  2  0  0  0  0
M  END
>  <minimizedAffinity>
-5.72584581

$$$$

 OpenBabel03272503073D

 33 35  0  0  0  0  0  0  0  0999 V2000
   37.3410   28.1480   35.6590 F   0  0  0  0  0  0  0  0  0  0  0  0
   37.2110   28.0570   34.3230 C   0  0  0  0  0  0  0  0  0  0  0  0
   36.2420   28.7820   33.6880 C   0  0  0  0  0  0  0  0  0  0  0  0
   36.1590   28.6480   32.3200 C   0  0  0  0  0  0  0  0  0  0  0  0
   37.0010   27.8290   31.5950 C   0  0  0  0  0  0  0  0  0  0  0  0
   37.9760   27.1040   32.2520 C   0  0  0  0  0  0  0  0  0  0  0  0
   38.0670   27.2290   33.6210 C   0  0  0  0  0  0  0  0  0  0  0  0
   35.3890   29.2230   31.8080 H   0  0  0  0  0  0  0  0  0  0  0  0
   36.9270   27.7320   30.5180 H   0  0  0  0  0  0  0  0  0  0  0  0
   38.6600   26.4510   31.7500 H   0  0  0  0  0  0  0  0  0  0  0  0
   34.9820   31.5280   35.9560 C   0  0  0  0  0  0  0  0  0  0  0  0
   35.8520   30.7310   35.1920 C   0  0  0  0  0  0  0  0  0  0  0  0
   35.3760   29.6320   34.4890 C   0  0  0  0  0  0  0  0  0  0  0  0
   34.0300   29.3650   34.5750 N   0  0  0  0  0  0  0  0  0  0  0  0
   33.2120   30.1390   35.3110 C   0  0  0  0  0  0  0  0  0  0  0  0
   33.6720   31.1960   35.9860 N   0  0  0  0  0  0  0  0  0  0  0  0
   35.3720   32.3810   36.4970 H   0  0  0  0  0  0  0  0  0  0  0  0
   36.8870   30.9790   35.1580 H   0  0  0  0  0  0  0  0  0  0  0  0
   32.1810   29.8120   35.2860 H   0  0  0  0  0  0  0  0  0  0  0  0
   38.6880   25.1730   34.7410 C   0  0  0  0  0  0  0  0  0  0  0  0
   37.5010   24.8600   34.3540 O   0  0  0  0  0  0  0  0  0  0  0  0
   39.0620   26.4880   34.3570 N   0  0  0  0  0  0  0  0  0  0  0  0
   39.9890   26.8380   34.6130 H   0  0  0  0  0  0  0  0  0  0  0  0
   38.8850   21.8710   37.7600 H   0  0  0  0  0  0  0  0  0  0  0  0
   39.4410   22.4720   37.1160 N   0  0  0  0  0  0  0  0  0  0  0  0
   38.8010   23.3890   36.3720 C   0  0  0  0  0  3  0  0  0  0  0  0
   39.4880   24.2280   35.4850 C   0  0  0  0  0  0  0  0  0  0  0  0
   40.8470   24.0080   35.4700 C   0  0  0  0  0  0  0  0  0  0  0  0
   41.4970   24.7240   34.7040 O   0  0  0  0  0  0  0  0  0  0  0  0
   41.4740   23.0870   36.2200 N   0  0  0  0  0  0  0  0  0  0  0  0
   40.7740   22.3040   37.0560 C   0  0  0  0  0  0  0  0  0  0  0  0
   41.3010   21.4350   37.7740 O   0  0  0  0  0  0  0  0  0  0  0  0
   42.5050   22.9970   36.1370 H   0  0  0  0  0  0  0  0  0  0  0  0
  2  1  1  0  0  0  0
  3  2  1  0  0  0  0
  3 13  1  0  0  0  0
  4  3  2  0  0  0  0
  5  6  2  0  0  0  0
  5  4  1  0  0  0  0
  6  7  1  0  0  0  0
  7  2  2  0  0  0  0
  7 22  1  0  0  0  0
  8  4  1  0  0  0  0
  9  5  1  0  0  0  0
 10  6  1  0  0  0  0
 11 16  1  0  0  0  0
 11 17  1  0  0  0  0
 12 11  2  0  0  0  0
 13 14  2  0  0  0  0
 13 12  1  0  0  0  0
 14 15  1  0  0  0  0
 15 16  2  0  0  0  0
 18 12  1  0  0  0  0
 19 15  1  0  0  0  0
 20 27  1  0  0  0  0
 21 20  2  0  0  0  0
 22 23  1  0  0  0  0
 22 20  1  0  0  0  0
 25 24  1  0  0  0  0
 26 25  1  0  0  0  0
 27 26  2  0  0  0  0
 28 27  1  0  0  0  0
 28 30  1  0  0  0  0
 29 28  2  0  0  0  0
 30 31  1  0  0  0  0
 31 25  1  0  0  0  0
 31 32  2  0  0  0  0
 33 30  1  0  0  0  0
M  END
>  <minimizedAffinity>
-5.66542482

$$$$

 OpenBabel03272503073D

 33 35  0  0  0  0  0  0  0  0999 V2000
   34.5550   29.0020   33.8610 F   0  0  0  0  0  0  0  0  0  0  0  0
   35.2390   29.7760   33.0000 C   0  0  0  0  0  0  0  0  0  0  0  0
   35.4320   31.0990   33.2870 C   0  0  0  0  0  0  0  0  0  0  0  0
   36.1410   31.8390   32.3670 C   0  0  0  0  0  0  0  0  0  0  0  0
   36.6470   31.3010   31.2020 C   0  0  0  0  0  0  0  0  0  0  0  0
   36.4440   29.9630   30.9270 C   0  0  0  0  0  0  0  0  0  0  0  0
   35.7350   29.2120   31.8390 C   0  0  0  0  0  0  0  0  0  0  0  0
   36.2980   32.8940   32.5910 H   0  0  0  0  0  0  0  0  0  0  0  0
   37.2040   31.8930   30.4860 H   0  0  0  0  0  0  0  0  0  0  0  0
   36.8100   29.4840   30.0420 H   0  0  0  0  0  0  0  0  0  0  0  0
   35.0130   32.1130   36.9020 C   0  0  0  0  0  0  0  0  0  0  0  0
   35.5800   31.5930   35.7260 C   0  0  0  0  0  0  0  0  0  0  0  0
   34.8820   31.6260   34.5260 C   0  0  0  0  0  0  0  0  0  0  0  0
   33.6260   32.1850   34.5420 N   0  0  0  0  0  0  0  0  0  0  0  0
   33.0990   32.6780   35.6790 C   0  0  0  0  0  0  0  0  0  0  0  0
   33.7730   32.6450   36.8310 N   0  0  0  0  0  0  0  0  0  0  0  0
   35.5730   32.0780   37.8280 H   0  0  0  0  0  0  0  0  0  0  0  0
   36.5570   31.1700   35.7640 H   0  0  0  0  0  0  0  0  0  0  0  0
   32.1070   33.0870   35.5440 H   0  0  0  0  0  0  0  0  0  0  0  0
   36.4470   26.9160   32.1400 C   0  0  0  0  0  0  0  0  0  0  0  0
   37.3900   27.5210   32.7720 O   0  0  0  0  0  0  0  0  0  0  0  0
   35.4880   27.8120   31.5970 N   0  0  0  0  0  0  0  0  0  0  0  0
   34.6910   27.4350   31.0760 H   0  0  0  0  0  0  0  0  0  0  0  0
   38.2670   22.9930   33.3010 H   0  0  0  0  0  0  0  0  0  0  0  0
   37.5170   23.4530   32.7440 N   0  0  0  0  0  0  0  0  0  0  0  0
   37.4270   24.7940   32.7630 C   0  0  0  0  0  3  0  0  0  0  0  0
   36.4400   25.4760   32.0390 C   0  0  0  0  0  0  0  0  0  0  0  0
   35.6070   24.6370   31.3320 C   0  0  0  0  0  0  0  0  0  0  0  0
   34.7200   25.1920   30.6770 O   0  0  0  0  0  0  0  0  0  0  0  0
   35.7090   23.2990   31.3230 N   0  0  0  0  0  0  0  0  0  0  0  0
   36.6700   22.6880   32.0340 C   0  0  0  0  0  0  0  0  0  0  0  0
   36.8120   21.4520   32.0620 O   0  0  0  0  0  0  0  0  0  0  0  0
   35.0300   22.7520   30.7570 H   0  0  0  0  0  0  0  0  0  0  0  0
  2  3  1  0  0  0  0
  2  1  1  0  0  0  0
  3 13  1  0  0  0  0
  4  8  1  0  0  0  0
  4  3  2  0  0  0  0
  5  4  1  0  0  0  0
  6  5  2  0  0  0  0
  6  7  1  0  0  0  0
  7  2  2  0  0  0  0
  9  5  1  0  0  0  0
 10  6  1  0  0  0  0
 11 17  1  0  0  0  0
 12 18  1  0  0  0  0
 12 11  2  0  0  0  0
 13 14  2  0  0  0  0
 13 12  1  0  0  0  0
 14 15  1  0  0  0  0
 15 16  2  0  0  0  0
 16 11  1  0  0  0  0
 19 15  1  0  0  0  0
 20 21  2  0  0  0  0
 22  7  1  0  0  0  0
 22 20  1  0  0  0  0
 23 22  1  0  0  0  0
 25 26  1  0  0  0  0
 25 24  1  0  0  0  0
 27 20  1  0  0  0  0
 27 26  2  0  0  0  0
 28 27  1  0  0  0  0
 29 28  2  0  0  0  0
 30 28  1  0  0  0  0
 30 31  1  0  0  0  0
 31 32  2  0  0  0  0
 31 25  1  0  0  0  0
 33 30  1  0  0  0  0
M  END
>  <minimizedAffinity>
-5.48534203

$$$$

 OpenBabel03272503073D

 33 35  0  0  0  0  0  0  0  0999 V2000
   38.9350   25.1490   34.3290 F   0  0  0  0  0  0  0  0  0  0  0  0
   38.3210   24.0570   33.8380 C   0  0  0  0  0  0  0  0  0  0  0  0
   38.0220   23.0180   34.6740 C   0  0  0  0  0  0  0  0  0  0  0  0
   37.3920   21.9290   34.1140 C   0  0  0  0  0  0  0  0  0  0  0  0
   37.0630   21.8600   32.7750 C   0  0  0  0  0  0  0  0  0  0  0  0
   37.3710   22.9200   31.9450 C   0  0  0  0  0  0  0  0  0  0  0  0
   38.0020   24.0140   32.4940 C   0  0  0  0  0  0  0  0  0  0  0  0
   37.1520   21.0970   34.7750 H   0  0  0  0  0  0  0  0  0  0  0  0
   36.5670   20.9980   32.3460 H   0  0  0  0  0  0  0  0  0  0  0  0
   37.1430   22.9300   30.8990 H   0  0  0  0  0  0  0  0  0  0  0  0
   37.9300   23.7810   38.3730 C   0  0  0  0  0  0  0  0  0  0  0  0
   37.5400   23.6900   37.0260 C   0  0  0  0  0  0  0  0  0  0  0  0
   38.3870   23.1310   36.0770 C   0  0  0  0  0  0  0  0  0  0  0  0
   39.6090   22.6760   36.5140 N   0  0  0  0  0  0  0  0  0  0  0  0
   39.9650   22.7720   37.8080 C   0  0  0  0  0  0  0  0  0  0  0  0
   39.1490   23.3090   38.7180 N   0  0  0  0  0  0  0  0  0  0  0  0
   37.2560   24.2190   39.0980 H   0  0  0  0  0  0  0  0  0  0  0  0
   36.5830   24.0560   36.7370 H   0  0  0  0  0  0  0  0  0  0  0  0
   40.9510   22.3740   38.0080 H   0  0  0  0  0  0  0  0  0  0  0  0
   37.3800   26.1750   31.5930 C   0  0  0  0  0  0  0  0  0  0  0  0
   36.3300   25.9200   32.2920 O   0  0  0  0  0  0  0  0  0  0  0  0
   38.3530   25.1450   31.6690 N   0  0  0  0  0  0  0  0  0  0  0  0
   39.2310   25.2470   31.1520 H   0  0  0  0  0  0  0  0  0  0  0  0
   35.3770   29.8460   29.9910 H   0  0  0  0  0  0  0  0  0  0  0  0
   36.2740   29.3190   30.0460 N   0  0  0  0  0  0  0  0  0  0  0  0
   36.3030   28.1600   30.7240 C   0  0  0  0  0  3  0  0  0  0  0  0
   37.4770   27.4030   30.8390 C   0  0  0  0  0  0  0  0  0  0  0  0
   38.5540   27.9690   30.1950 C   0  0  0  0  0  0  0  0  0  0  0  0
   39.6120   27.3380   30.2670 O   0  0  0  0  0  0  0  0  0  0  0  0
   38.5110   29.1290   29.5210 N   0  0  0  0  0  0  0  0  0  0  0  0
   37.3630   29.8220   29.4390 C   0  0  0  0  0  0  0  0  0  0  0  0
   37.2640   30.9010   28.8280 O   0  0  0  0  0  0  0  0  0  0  0  0
   39.3790   29.4740   29.0680 H   0  0  0  0  0  0  0  0  0  0  0  0
  2  1  1  0  0  0  0
  2  3  1  0  0  0  0
  3 13  1  0  0  0  0
  4  3  2  0  0  0  0
  4  8  1  0  0  0  0
  5  4  1  0  0  0  0
  6  7  1  0  0  0  0
  6  5  2  0  0  0  0
  7  2  2  0  0  0  0
  9  5  1  0  0  0  0
 10  6  1  0  0  0  0
 11 16  1  0  0  0  0
 11 17  1  0  0  0  0
 12 11  2  0  0  0  0
 13 14  2  0  0  0  0
 13 12  1  0  0  0  0
 14 15  1  0  0  0  0
 15 19  1  0  0  0  0
 15 16  2  0  0  0  0
 18 12  1  0  0  0  0
 20 22  1  0  0  0  0
 20 21  2  0  0  0  0
 22  7  1  0  0  0  0
 23 22  1  0  0  0  0
 24 25  1  0  0  0  0
 25 26  1  0  0  0  0
 26 27  2  0  0  0  0
 27 20  1  0  0  0  0
 28 29  2  0  0  0  0
 28 27  1  0  0  0  0
 30 28  1  0  0  0  0
 31 30  1  0  0  0  0
 31 25  1  0  0  0  0
 32 31  2  0  0  0  0
 33 30  1  0  0  0  0
M  END
>  <minimizedAffinity>
-5.34388113

$$$$

 OpenBabel03272503073D

 33 35  0  0  0  0  0  0  0  0999 V2000
   36.1060   27.7020   35.0290 F   0  0  0  0  0  0  0  0  0  0  0  0
   36.2750   28.2250   33.8010 C   0  0  0  0  0  0  0  0  0  0  0  0
   35.8430   29.4960   33.5430 C   0  0  0  0  0  0  0  0  0  0  0  0
   36.0450   29.9760   32.2680 C   0  0  0  0  0  0  0  0  0  0  0  0
   36.6530   29.2340   31.2760 C   0  0  0  0  0  0  0  0  0  0  0  0
   37.0850   27.9520   31.5540 C   0  0  0  0  0  0  0  0  0  0  0  0
   36.8870   27.4600   32.8250 C   0  0  0  0  0  0  0  0  0  0  0  0
   35.7020   30.9870   32.0560 H   0  0  0  0  0  0  0  0  0  0  0  0
   36.8070   29.6220   30.2760 H   0  0  0  0  0  0  0  0  0  0  0  0
   37.5630   27.3240   30.8300 H   0  0  0  0  0  0  0  0  0  0  0  0
   35.2650   31.7890   36.4880 C   0  0  0  0  0  0  0  0  0  0  0  0
   35.9170   31.0850   35.4620 C   0  0  0  0  0  0  0  0  0  0  0  0
   35.2070   30.2420   34.6160 C   0  0  0  0  0  0  0  0  0  0  0  0
   33.8530   30.1320   34.8280 N   0  0  0  0  0  0  0  0  0  0  0  0
   33.2460   30.8150   35.8170 C   0  0  0  0  0  0  0  0  0  0  0  0
   33.9310   31.6250   36.6280 N   0  0  0  0  0  0  0  0  0  0  0  0
   35.8360   32.4420   37.1370 H   0  0  0  0  0  0  0  0  0  0  0  0
   36.9680   31.2040   35.3380 H   0  0  0  0  0  0  0  0  0  0  0  0
   32.1800   30.6330   35.8660 H   0  0  0  0  0  0  0  0  0  0  0  0
   38.5990   26.0210   33.7560 C   0  0  0  0  0  0  0  0  0  0  0  0
   39.1770   27.1630   33.8930 O   0  0  0  0  0  0  0  0  0  0  0  0
   37.3120   26.1250   33.1660 N   0  0  0  0  0  0  0  0  0  0  0  0
   36.7620   25.2740   33.0140 H   0  0  0  0  0  0  0  0  0  0  0  0
   42.1580   24.0740   35.6520 H   0  0  0  0  0  0  0  0  0  0  0  0
   41.2280   23.9090   35.2150 N   0  0  0  0  0  0  0  0  0  0  0  0
   40.5200   24.9640   34.7800 C   0  0  0  0  0  3  0  0  0  0  0  0
   39.2610   24.8110   34.1840 C   0  0  0  0  0  0  0  0  0  0  0  0
   38.8540   23.4980   34.1010 C   0  0  0  0  0  0  0  0  0  0  0  0
   37.7500   23.3110   33.5820 O   0  0  0  0  0  0  0  0  0  0  0  0
   39.5720   22.4530   34.5410 N   0  0  0  0  0  0  0  0  0  0  0  0
   40.7750   22.6470   35.1070 C   0  0  0  0  0  0  0  0  0  0  0  0
   41.4830   21.7180   35.5320 O   0  0  0  0  0  0  0  0  0  0  0  0
   39.1780   21.4980   34.4340 H   0  0  0  0  0  0  0  0  0  0  0  0
  2  1  1  0  0  0  0
  3  2  1  0  0  0  0
  3 13  1  0  0  0  0
  4  3  2  0  0  0  0
  5  6  2  0  0  0  0
  5  4  1  0  0  0  0
  6  7  1  0  0  0  0
  7 22  1  0  0  0  0
  7  2  2  0  0  0  0
  8  4  1  0  0  0  0
  9  5  1  0  0  0  0
 10  6  1  0  0  0  0
 11 16  1  0  0  0  0
 11 17  1  0  0  0  0
 12 11  2  0  0  0  0
 13 14  2  0  0  0  0
 13 12  1  0  0  0  0
 14 15  1  0  0  0  0
 15 19  1  0  0  0  0
 15 16  2  0  0  0  0
 18 12  1  0  0  0  0
 20 21  2  0  0  0  0
 20 27  1  0  0  0  0
 22 20  1  0  0  0  0
 23 22  1  0  0  0  0
 25 24  1  0  0  0  0
 26 25  1  0  0  0  0
 27 26  2  0  0  0  0
 28 27  1  0  0  0  0
 28 30  1  0  0  0  0
 29 28  2  0  0  0  0
 30 31  1  0  0  0  0
 31 25  1  0  0  0  0
 31 32  2  0  0  0  0
 33 30  1  0  0  0  0
M  END
>  <minimizedAffinity>
-5.25145292

$$$$

 OpenBabel03272503073D

 33 35  0  0  0  0  0  0  0  0999 V2000
   38.4710   26.4340   32.4350 F   0  0  0  0  0  0  0  0  0  0  0  0
   37.4170   25.7090   32.0210 C   0  0  0  0  0  0  0  0  0  0  0  0
   36.3410   26.3410   31.4610 C   0  0  0  0  0  0  0  0  0  0  0  0
   35.2930   25.5450   31.0550 C   0  0  0  0  0  0  0  0  0  0  0  0
   35.2970   24.1720   31.1920 C   0  0  0  0  0  0  0  0  0  0  0  0
   36.3920   23.5490   31.7580 C   0  0  0  0  0  0  0  0  0  0  0  0
   37.4470   24.3350   32.1690 C   0  0  0  0  0  0  0  0  0  0  0  0
   34.4330   26.0430   30.6090 H   0  0  0  0  0  0  0  0  0  0  0  0
   34.4660   23.5560   30.8690 H   0  0  0  0  0  0  0  0  0  0  0  0
   36.4590   22.4890   31.8930 H   0  0  0  0  0  0  0  0  0  0  0  0
   36.0250   30.0320   32.2000 C   0  0  0  0  0  0  0  0  0  0  0  0
   35.9760   28.6360   32.3600 C   0  0  0  0  0  0  0  0  0  0  0  0
   36.3770   27.7890   31.3360 C   0  0  0  0  0  0  0  0  0  0  0  0
   36.8200   28.3730   30.1720 N   0  0  0  0  0  0  0  0  0  0  0  0
   36.8600   29.7110   30.0370 C   0  0  0  0  0  0  0  0  0  0  0  0
   36.4740   30.5240   31.0240 N   0  0  0  0  0  0  0  0  0  0  0  0
   35.7080   30.6770   33.0100 H   0  0  0  0  0  0  0  0  0  0  0  0
   35.6250   28.2330   33.2810 H   0  0  0  0  0  0  0  0  0  0  0  0
   37.2300   30.0290   29.0710 H   0  0  0  0  0  0  0  0  0  0  0  0
   38.5880   23.6440   34.1910 C   0  0  0  0  0  0  0  0  0  0  0  0
   37.5060   24.1170   34.7030 O   0  0  0  0  0  0  0  0  0  0  0  0
   38.6110   23.7360   32.7740 N   0  0  0  0  0  0  0  0  0  0  0  0
   39.4260   23.3850   32.2640 H   0  0  0  0  0  0  0  0  0  0  0  0
   39.7100   21.0090   37.6340 H   0  0  0  0  0  0  0  0  0  0  0  0
   40.0720   21.6530   36.9000 N   0  0  0  0  0  0  0  0  0  0  0  0
   39.2000   22.2220   36.0500 C   0  0  0  0  0  3  0  0  0  0  0  0
   39.6210   23.0970   35.0400 C   0  0  0  0  0  0  0  0  0  0  0  0
   40.9830   23.2960   35.0240 C   0  0  0  0  0  0  0  0  0  0  0  0
   41.4030   24.0600   34.1510 O   0  0  0  0  0  0  0  0  0  0  0  0
   41.8430   22.7200   35.8790 N   0  0  0  0  0  0  0  0  0  0  0  0
   41.3940   21.8860   36.8330 C   0  0  0  0  0  0  0  0  0  0  0  0
   42.1440   21.3250   37.6510 O   0  0  0  0  0  0  0  0  0  0  0  0
   42.8550   22.9330   35.7860 H   0  0  0  0  0  0  0  0  0  0  0  0
  2  7  1  0  0  0  0
  2  1  1  0  0  0  0
  3  2  2  0  0  0  0
  4  5  2  0  0  0  0
  4  3  1  0  0  0  0
  5  6  1  0  0  0  0
  6 10  1  0  0  0  0
  6  7  2  0  0  0  0
  7 22  1  0  0  0  0
  8  4  1  0  0  0  0
  9  5  1  0  0  0  0
 11 12  1  0  0  0  0
 11 17  1  0  0  0  0
 12 18  1  0  0  0  0
 13  3  1  0  0  0  0
 13 12  2  0  0  0  0
 14 13  1  0  0  0  0
 15 14  2  0  0  0  0
 15 16  1  0  0  0  0
 16 11  2  0  0  0  0
 19 15  1  0  0  0  0
 20 21  2  0  0  0  0
 20 27  1  0  0  0  0
 22 20  1  0  0  0  0
 23 22  1  0  0  0  0
 25 24  1  0  0  0  0
 26 25  1  0  0  0  0
 27 26  2  0  0  0  0
 28 27  1  0  0  0  0
 28 30  1  0  0  0  0
 29 28  2  0  0  0  0
 30 31  1  0  0  0  0
 31 25  1  0  0  0  0
 31 32  2  0  0  0  0
 33 30  1  0  0  0  0
M  END
>  <minimizedAffinity>
-5.22929144

$$$$
