REMARK  Name = 
REMARK  3 active torsions:
REMARK  status: ('A' for Active; 'I' for Inactive)
REMARK    1  A    between atoms: C_3  and  C_10
REMARK    2  A    between atoms: C_7  and  N_16
REMARK    3  A    between atoms: C_14  and  C_27
REMARK                            x       y       z     vdW  Elec       q    Type
REMARK                         _______ _______ _______ _____ _____    ______ ____
ROOT
ATOM      1  F   UNL     1      38.454  30.443  47.313  0.00  0.00    +0.000 F 
ATOM      2  C   UNL     1      38.750  31.666  47.788  0.00  0.00    +0.000 A 
ATOM      3  C   UNL     1      38.235  32.067  48.989  0.00  0.00    +0.000 A 
ATOM      4  C   UNL     1      38.575  33.329  49.423  0.00  0.00    +0.000 A 
ATOM      5  C   UNL     1      39.396  34.173  48.703  0.00  0.00    +0.000 A 
ATOM      6  C   UNL     1      39.909  33.752  47.492  0.00  0.00    +0.000 A 
ATOM      7  C   UNL     1      39.575  32.492  47.047  0.00  0.00    +0.000 A 
ATOM      8  H   UNL     1      38.167  33.654  50.379  0.00  0.00    +0.000 HD
ATOM      9  H   UNL     1      39.657  35.164  49.055  0.00  0.00    +0.000 HD
ATOM     10  H   UNL     1      40.551  34.357  46.885  0.00  0.00    +0.000 HD
ENDROOT
BRANCH   3  13
ATOM     11  C   UNL     1      36.928  29.599  51.533  0.00  0.00    +0.000 A 
ATOM     12  C   UNL     1      37.791  30.481  50.860  0.00  0.00    +0.000 A 
ATOM     13  C   UNL     1      37.374  31.147  49.715  0.00  0.00    +0.000 A 
ATOM     14  N   UNL     1      36.093  30.906  49.277  0.00  0.00    +0.000 NA
ATOM     15  C   UNL     1      35.281  30.058  49.935  0.00  0.00    +0.000 A 
ATOM     16  N   UNL     1      35.684  29.419  51.036  0.00  0.00    +0.000 NA
ATOM     17  H   UNL     1      37.271  29.089  52.425  0.00  0.00    +0.000 HD
ATOM     18  H   UNL     1      38.774  30.634  51.239  0.00  0.00    +0.000 HD
ATOM     19  H   UNL     1      34.304  29.966  49.479  0.00  0.00    +0.000 HD
ENDBRANCH   3  13
BRANCH   7  22
ATOM     20  C   UNL     1      39.200  32.152  44.678  0.00  0.00    +0.000 C 
ATOM     21  O   UNL     1      38.085  32.710  44.997  0.00  0.00    +0.000 OA
ATOM     22  N   UNL     1      40.077  32.006  45.785  0.00  0.00    +0.000 N 
ATOM     23  H   UNL     1      40.995  31.576  45.642  0.00  0.00    +0.000 HD
BRANCH  20  27
ATOM     24  H   UNL     1      38.949  28.986  41.520  0.00  0.00    +0.000 HD
ATOM     25  N   UNL     1      39.252  29.961  41.729  0.00  0.00    +0.000 N 
ATOM     26  C   UNL     1      39.067  30.445  42.968  0.00  0.00    +0.000 A 
ATOM     27  C   UNL     1      39.452  31.747  43.315  0.00  0.00    +0.000 A 
ATOM     28  C   UNL     1      40.022  32.442  42.271  0.00  0.00    +0.000 A 
ATOM     29  O   UNL     1      40.378  33.596  42.527  0.00  0.00    +0.000 OA
ATOM     30  N   UNL     1      40.201  31.945  41.038  0.00  0.00    +0.000 N 
ATOM     31  C   UNL     1      39.815  30.690  40.751  0.00  0.00    +0.000 A 
ATOM     32  O   UNL     1      39.957  30.178  39.626  0.00  0.00    +0.000 OA
ATOM     33  H   UNL     1      40.641  32.549  40.317  0.00  0.00    +0.000 HD
ENDBRANCH  20  27
ENDBRANCH   7  22
TORSDOF 3
