
 OpenBabel03272506443D

 33 35  0  0  1  0  0  0  0  0999 V2000
   32.3530   28.3070   47.5780 C   0  0  2  0  0  0  0  0  0  0  0  0
   33.6410   28.3220   48.3870 C   0  0  1  0  0  0  0  0  0  0  0  0
   34.1990   27.0800   48.3150 O   0  0  0  0  0  0  0  0  0  0  0  0
   33.5180   26.3310   47.3820 C   0  0  0  0  0  0  0  0  0  0  0  0
   32.7680   27.3300   46.4850 C   0  0  1  0  0  0  0  0  0  0  0  0
   31.5400   27.8850   48.1850 H   0  0  0  0  0  0  0  0  0  0  0  0
   33.4370   28.6900   49.4020 H   0  0  0  0  0  0  0  0  0  0  0  0
   34.1790   25.6670   46.8090 H   0  0  0  0  0  0  0  0  0  0  0  0
   32.7220   25.7740   47.9320 H   0  0  0  0  0  0  0  0  0  0  0  0
   33.5250   27.7930   45.8580 H   0  0  0  0  0  0  0  0  0  0  0  0
   32.0640   29.5700   47.0710 O   0  0  0  0  0  0  0  0  0  0  0  0
   32.7080   29.7550   46.3410 H   0  0  0  0  0  0  0  0  0  0  0  0
   34.7640   29.5010   47.5460 S   0  0  0  0  0  0  0  0  0  0  0  0
   37.3760   29.4670   50.5300 C   0  0  0  0  0  0  0  0  0  0  0  0
   37.9720   30.7310   50.4990 C   0  0  0  0  0  0  0  0  0  0  0  0
   37.5420   31.6370   49.5050 C   0  0  0  0  0  0  0  0  0  0  0  0
   36.5840   31.2310   48.6440 N   0  0  0  0  0  0  0  0  0  0  0  0
   36.0280   30.0020   48.7010 C   0  0  0  0  0  0  0  0  0  0  0  0
   36.4170   29.1230   49.6340 N   0  0  0  0  0  0  0  0  0  0  0  0
   37.6690   28.7370   51.2710 H   0  0  0  0  0  0  0  0  0  0  0  0
   38.7240   31.0010   51.2020 H   0  0  0  0  0  0  0  0  0  0  0  0
   37.9770   32.6280   49.4430 H   0  0  0  0  0  0  0  0  0  0  0  0
   31.7030   26.7080   45.8860 O   0  0  0  0  0  0  0  0  0  0  0  0
   29.7910   29.0770   42.5480 H   0  0  0  0  0  0  0  0  0  0  0  0
   30.2960   28.2230   42.8350 N   0  0  0  0  0  0  0  0  0  0  0  0
   30.5970   28.1500   44.1390 C   0  0  0  0  0  3  0  0  0  0  0  0
   31.2690   27.0460   44.6120 C   0  0  0  0  0  0  0  0  0  0  0  0
   31.6210   26.0320   43.7200 C   0  0  0  0  0  0  0  0  0  0  0  0
   32.2340   24.9560   43.9690 O   0  0  0  0  0  0  0  0  0  0  0  0
   31.3080   26.1220   42.3950 N   0  0  0  0  0  0  0  0  0  0  0  0
   30.6400   27.2330   41.9680 C   0  0  0  0  0  0  0  0  0  0  0  0
   30.3160   27.3880   40.7650 O   0  0  0  0  0  0  0  0  0  0  0  0
   31.5280   25.4230   41.6760 H   0  0  0  0  0  0  0  0  0  0  0  0
  1  6  1  1  0  0  0
  1  2  1  0  0  0  0
  2  7  1  1  0  0  0
  3  2  1  0  0  0  0
  4  9  1  0  0  0  0
  4  3  1  0  0  0  0
  5 10  1  6  0  0  0
  5  4  1  0  0  0  0
  5  1  1  0  0  0  0
  8  4  1  0  0  0  0
 11  1  1  0  0  0  0
 12 11  1  0  0  0  0
 13  2  1  0  0  0  0
 13 18  1  0  0  0  0
 14 20  1  0  0  0  0
 15 14  1  0  0  0  0
 15 21  1  0  0  0  0
 16 15  2  0  0  0  0
 17 18  2  0  0  0  0
 17 16  1  0  0  0  0
 18 19  1  0  0  0  0
 19 14  2  0  0  0  0
 22 16  1  0  0  0  0
 23  5  1  0  0  0  0
 24 25  1  0  0  0  0
 25 26  1  0  0  0  0
 26 27  2  0  0  0  0
 27 23  1  0  0  0  0
 28 29  2  0  0  0  0
 28 27  1  0  0  0  0
 30 28  1  0  0  0  0
 31 30  1  0  0  0  0
 31 25  1  0  0  0  0
 32 31  2  0  0  0  0
 33 30  1  0  0  0  0
M  END
>  <minimizedAffinity>
-3.73004889

>  <minimizedRMSD>
0.949280262

$$$$
