REMARK  Name = 
REMARK  8 active torsions:
REMARK  status: ('A' for Active; 'I' for Inactive)
REMARK    1  A    between atoms: P_2  and  O_3
REMARK    2  A    between atoms: P_2  and  O_4
REMARK    3  A    between atoms: P_2  and  O_12
REMARK    4  A    between atoms: O_4  and  C_5
REMARK    5  A    between atoms: C_5  and  C_6
REMARK    6  A    between atoms: O_12  and  C_14
REMARK    7  A    between atoms: C_13  and  O_18
REMARK    8  A    between atoms: O_18  and  C_34
REMARK                            x       y       z     vdW  Elec       q    Type
REMARK                         _______ _______ _______ _____ _____    ______ ____
ROOT
ATOM      1  C   UNL     1      38.858  32.468  47.809  0.00  0.00    +0.000 C 
ATOM      2  C   UNL     1      38.241  31.464  48.765  0.00  0.00    +0.000 C 
ATOM      3  C   UNL     1      38.831  32.011  50.067  0.00  0.00    +0.000 C 
ATOM      4  O   UNL     1      38.484  33.349  49.962  0.00  0.00    +0.000 OA
ATOM      5  C   UNL     1      38.673  33.743  48.653  0.00  0.00    +0.000 C 
ATOM      6  H   UNL     1      39.927  32.247  47.664  0.00  0.00    +0.000 HD
ATOM      7  H   UNL     1      38.565  30.428  48.576  0.00  0.00    +0.000 HD
ATOM      8  H   UNL     1      38.242  31.549  50.887  0.00  0.00    +0.000 HD
ATOM      9  H   UNL     1      39.910  31.826  50.110  0.00  0.00    +0.000 HD
ATOM     10  H   UNL     1      39.577  34.383  48.555  0.00  0.00    +0.000 HD
ATOM     11  H   UNL     1      37.746  34.235  48.276  0.00  0.00    +0.000 HD
ENDROOT
BRANCH   2  12
ATOM     12  O   UNL     1      36.881  31.650  48.750  0.00  0.00    +0.000 OA
BRANCH  12  14
ATOM     13  O   UNL     1      36.038  29.945  46.967  0.00  0.00    +0.000 OA
ATOM     14  P   UNL     1      36.027  30.228  48.442  0.00  0.00    +0.000 P 
BRANCH  14  15
ATOM     15  O   UNL     1      36.798  28.917  49.237  0.00  0.00    +0.000 OA
ATOM     16  H   UNL     1      37.262  29.302  50.016  0.00  0.00    +0.000 HD
ENDBRANCH  14  15
BRANCH  14  17
ATOM     17  O   UNL     1      34.436  30.372  49.017  0.00  0.00    +0.000 OA
BRANCH  17  18
ATOM     18  C   UNL     1      34.173  29.242  49.763  0.00  0.00    +0.000 C 
ATOM     19  H   UNL     1      35.092  28.735  50.111  0.00  0.00    +0.000 HD
ATOM     20  H   UNL     1      33.646  29.568  50.697  0.00  0.00    +0.000 HD
BRANCH  18  21
ATOM     21  C   UNL     1      33.314  28.259  49.066  0.00  0.00    +0.000 A 
ATOM     22  C   UNL     1      33.942  27.384  48.212  0.00  0.00    +0.000 A 
ATOM     23  C   UNL     1      33.185  26.432  47.524  0.00  0.00    +0.000 A 
ATOM     24  N   UNL     1      31.840  26.431  47.748  0.00  0.00    +0.000 NA
ATOM     25  C   UNL     1      31.247  27.302  48.592  0.00  0.00    +0.000 A 
ATOM     26  N   UNL     1      31.984  28.217  49.251  0.00  0.00    +0.000 NA
ATOM     27  H   UNL     1      34.985  27.307  47.972  0.00  0.00    +0.000 HD
ATOM     28  H   UNL     1      33.600  25.703  46.831  0.00  0.00    +0.000 HD
ATOM     29  H   UNL     1      30.174  27.256  48.732  0.00  0.00    +0.000 HD
ENDBRANCH  18  21
ENDBRANCH  17  18
ENDBRANCH  14  17
ENDBRANCH  12  14
ENDBRANCH   2  12
BRANCH   1  30
ATOM     30  O   UNL     1      38.091  32.494  46.670  0.00  0.00    +0.000 OA
BRANCH  30  34
ATOM     31  H   UNL     1      38.028  30.324  42.691  0.00  0.00    +0.000 HD
ATOM     32  N   UNL     1      38.420  31.091  43.278  0.00  0.00    +0.000 N 
ATOM     33  C   UNL     1      38.004  31.271  44.539  0.00  0.00    +0.000 A 
ATOM     34  C   UNL     1      38.495  32.278  45.364  0.00  0.00    +0.000 A 
ATOM     35  C   UNL     1      39.453  33.113  44.826  0.00  0.00    +0.000 A 
ATOM     36  O   UNL     1      39.996  34.076  45.452  0.00  0.00    +0.000 OA
ATOM     37  N   UNL     1      39.892  32.951  43.547  0.00  0.00    +0.000 N 
ATOM     38  C   UNL     1      39.360  31.950  42.825  0.00  0.00    +0.000 A 
ATOM     39  O   UNL     1      39.740  31.768  41.639  0.00  0.00    +0.000 OA
ATOM     40  H   UNL     1      40.610  33.575  43.141  0.00  0.00    +0.000 HD
ENDBRANCH  30  34
ENDBRANCH   1  30
TORSDOF 8
