
 OpenBabel03272508283D

 39 42  0  0  1  0  0  0  0  0999 V2000
   33.7690   28.9080   47.2470 C   0  0  2  0  0  0  0  0  0  0  0  0
   34.5230   28.1160   48.3080 C   0  0  2  0  0  0  0  0  0  0  0  0
   33.6290   27.9280   49.3280 O   0  0  0  0  0  0  0  0  0  0  0  0
   32.3450   28.0110   48.8700 C   0  0  0  0  0  0  0  0  0  0  0  0
   32.3950   28.2390   47.3710 C   0  0  1  0  0  0  0  0  0  0  0  0
   33.6190   29.9610   47.5130 H   0  0  0  0  0  0  0  0  0  0  0  0
   34.8130   27.1690   47.8130 H   0  0  0  0  0  0  0  0  0  0  0  0
   31.8490   28.8570   49.3990 H   0  0  0  0  0  0  0  0  0  0  0  0
   31.8470   27.0410   49.1080 H   0  0  0  0  0  0  0  0  0  0  0  0
   32.4710   27.2550   46.8930 H   0  0  0  0  0  0  0  0  0  0  0  0
   35.5960   30.3650   49.0100 C   0  0  1  0  0  0  0  0  0  0  0  0
   35.6850   28.9490   48.7390 C   0  0  1  0  0  0  0  0  0  0  0  0
   35.8600   29.3770   50.1600 C   0  0  0  0  0  0  0  0  0  0  0  0
   34.6940   30.9690   49.2030 H   0  0  0  0  0  0  0  0  0  0  0  0
   36.6480   28.6160   48.2500 H   0  0  0  0  0  0  0  0  0  0  0  0
   36.8570   29.3630   50.6300 H   0  0  0  0  0  0  0  0  0  0  0  0
   35.0100   29.1550   50.8310 H   0  0  0  0  0  0  0  0  0  0  0  0
   36.7900   31.2800   48.7680 C   0  0  0  0  0  0  0  0  0  0  0  0
   37.0360   32.2660   49.7270 C   0  0  0  0  0  0  0  0  0  0  0  0
   38.1200   33.0870   49.4490 C   0  0  0  0  0  0  0  0  0  0  0  0
   38.8680   32.9170   48.3160 N   0  0  0  0  0  0  0  0  0  0  0  0
   38.5870   31.9420   47.4150 C   0  0  0  0  0  0  0  0  0  0  0  0
   37.5350   31.1130   47.6440 N   0  0  0  0  0  0  0  0  0  0  0  0
   36.4160   32.3480   50.5900 H   0  0  0  0  0  0  0  0  0  0  0  0
   38.3550   33.8690   50.1590 H   0  0  0  0  0  0  0  0  0  0  0  0
   39.2070   31.8550   46.5440 H   0  0  0  0  0  0  0  0  0  0  0  0
   34.2810   28.7750   45.9780 O   0  0  0  0  0  0  0  0  0  0  0  0
   34.8930   28.0090   45.8460 H   0  0  0  0  0  0  0  0  0  0  0  0
   31.3920   29.0240   46.8950 O   0  0  0  0  0  0  0  0  0  0  0  0
   29.1210   27.1720   43.4620 H   0  0  0  0  0  0  0  0  0  0  0  0
   29.0370   27.5530   44.4470 N   0  0  0  0  0  0  0  0  0  0  0  0
   30.2330   27.9770   44.8890 C   0  0  0  0  0  3  0  0  0  0  0  0
   30.3430   28.5110   46.1550 C   0  0  0  0  0  0  0  0  0  0  0  0
   29.1770   28.5850   46.9300 C   0  0  0  0  0  0  0  0  0  0  0  0
   29.0430   29.0300   48.1000 O   0  0  0  0  0  0  0  0  0  0  0  0
   27.9860   28.1420   46.4360 N   0  0  0  0  0  0  0  0  0  0  0  0
   27.9210   27.6280   45.1950 C   0  0  0  0  0  0  0  0  0  0  0  0
   26.8870   27.1880   44.6290 O   0  0  0  0  0  0  0  0  0  0  0  0
   27.0790   28.1620   46.9430 H   0  0  0  0  0  0  0  0  0  0  0  0
  1  5  1  0  0  0  0
  1  6  1  1  0  0  0
  1  2  1  0  0  0  0
  2  7  1  6  0  0  0
  2 12  1  0  0  0  0
  2  3  1  0  0  0  0
  4  9  1  0  0  0  0
  4  3  1  0  0  0  0
  4  8  1  0  0  0  0
  5 10  1  6  0  0  0
  5  4  1  0  0  0  0
 11 14  1  6  0  0  0
 11 13  1  0  0  0  0
 12 15  1  6  0  0  0
 12 11  1  0  0  0  0
 12 13  1  0  0  0  0
 13 16  1  0  0  0  0
 13 17  1  0  0  0  0
 18 11  1  0  0  0  0
 18 19  1  0  0  0  0
 19 24  1  0  0  0  0
 20 19  2  0  0  0  0
 20 25  1  0  0  0  0
 21 20  1  0  0  0  0
 22 23  1  0  0  0  0
 22 21  2  0  0  0  0
 23 18  2  0  0  0  0
 26 22  1  0  0  0  0
 27  1  1  0  0  0  0
 28 27  1  0  0  0  0
 29  5  1  0  0  0  0
 30 31  1  0  0  0  0
 31 32  1  0  0  0  0
 31 37  1  0  0  0  0
 32 33  2  0  0  0  0
 33 29  1  0  0  0  0
 33 34  1  0  0  0  0
 34 35  2  0  0  0  0
 36 34  1  0  0  0  0
 36 39  1  0  0  0  0
 37 36  1  0  0  0  0
 38 37  2  0  0  0  0
M  END
>  <minimizedAffinity>
-5.36073828

>  <minimizedRMSD>
0.554118454

$$$$
