
 OpenBabel03272506443D

 33 35  0  0  1  0  0  0  0  0999 V2000
   32.3390   28.2330   47.6300 C   0  0  2  0  0  0  0  0  0  0  0  0
   33.6400   28.2560   48.4170 C   0  0  1  0  0  0  0  0  0  0  0  0
   34.2100   27.0210   48.3260 O   0  0  0  0  0  0  0  0  0  0  0  0
   33.5210   26.2720   47.4000 C   0  0  0  0  0  0  0  0  0  0  0  0
   32.7440   27.2690   46.5230 C   0  0  1  0  0  0  0  0  0  0  0  0
   31.5410   27.7990   48.2480 H   0  0  0  0  0  0  0  0  0  0  0  0
   33.4500   28.6140   49.4390 H   0  0  0  0  0  0  0  0  0  0  0  0
   34.1780   25.6190   46.8100 H   0  0  0  0  0  0  0  0  0  0  0  0
   32.7400   25.7020   47.9590 H   0  0  0  0  0  0  0  0  0  0  0  0
   33.4860   27.7450   45.8860 H   0  0  0  0  0  0  0  0  0  0  0  0
   32.0280   29.4970   47.1380 O   0  0  0  0  0  0  0  0  0  0  0  0
   32.6570   29.6940   46.3980 H   0  0  0  0  0  0  0  0  0  0  0  0
   34.7360   29.4540   47.5660 S   0  0  0  0  0  0  0  0  0  0  0  0
   37.3670   29.4600   50.5330 C   0  0  0  0  0  0  0  0  0  0  0  0
   37.9570   30.7270   50.4860 C   0  0  0  0  0  0  0  0  0  0  0  0
   37.5170   31.6210   49.4870 C   0  0  0  0  0  0  0  0  0  0  0  0
   36.5550   31.2020   48.6350 N   0  0  0  0  0  0  0  0  0  0  0  0
   36.0050   29.9710   48.7080 C   0  0  0  0  0  0  0  0  0  0  0  0
   36.4040   29.1030   49.6470 N   0  0  0  0  0  0  0  0  0  0  0  0
   37.6680   28.7390   51.2800 H   0  0  0  0  0  0  0  0  0  0  0  0
   38.7120   31.0060   51.1820 H   0  0  0  0  0  0  0  0  0  0  0  0
   37.9460   32.6130   49.4120 H   0  0  0  0  0  0  0  0  0  0  0  0
   31.6750   26.6410   45.9370 O   0  0  0  0  0  0  0  0  0  0  0  0
   31.7980   26.2100   41.4430 H   0  0  0  0  0  0  0  0  0  0  0  0
   31.3570   26.6510   42.2660 N   0  0  0  0  0  0  0  0  0  0  0  0
   31.8740   26.2900   43.4500 C   0  0  0  0  0  3  0  0  0  0  0  0
   31.3480   26.8280   44.6030 C   0  0  0  0  0  0  0  0  0  0  0  0
   30.2900   27.7360   44.5080 C   0  0  0  0  0  0  0  0  0  0  0  0
   29.6870   28.3250   45.4470 O   0  0  0  0  0  0  0  0  0  0  0  0
   29.7770   28.0910   43.2950 N   0  0  0  0  0  0  0  0  0  0  0  0
   30.3280   27.5350   42.1770 C   0  0  0  0  0  0  0  0  0  0  0  0
   29.9100   27.8120   41.0260 O   0  0  0  0  0  0  0  0  0  0  0  0
   29.0040   28.7490   43.1400 H   0  0  0  0  0  0  0  0  0  0  0  0
  1  6  1  1  0  0  0
  1  2  1  0  0  0  0
  2  7  1  1  0  0  0
  3  2  1  0  0  0  0
  4  9  1  0  0  0  0
  4  3  1  0  0  0  0
  5 10  1  6  0  0  0
  5  4  1  0  0  0  0
  5  1  1  0  0  0  0
  8  4  1  0  0  0  0
 11  1  1  0  0  0  0
 12 11  1  0  0  0  0
 13  2  1  0  0  0  0
 13 18  1  0  0  0  0
 14 20  1  0  0  0  0
 15 14  1  0  0  0  0
 15 21  1  0  0  0  0
 16 15  2  0  0  0  0
 17 18  2  0  0  0  0
 17 16  1  0  0  0  0
 18 19  1  0  0  0  0
 19 14  2  0  0  0  0
 22 16  1  0  0  0  0
 23  5  1  0  0  0  0
 24 25  1  0  0  0  0
 25 26  1  0  0  0  0
 26 27  2  0  0  0  0
 27 23  1  0  0  0  0
 28 27  1  0  0  0  0
 28 29  2  0  0  0  0
 30 28  1  0  0  0  0
 31 25  1  0  0  0  0
 31 30  1  0  0  0  0
 32 31  2  0  0  0  0
 33 30  1  0  0  0  0
M  END
>  <minimizedAffinity>
-3.80049968

>  <minimizedRMSD>
1.38665068

$$$$
