
 OpenBabel03272509193D

 34 36  0  0  0  0  0  0  0  0999 V2000
   38.1250   31.2750   47.9960 C   0  0  0  0  0  0  0  0  0  0  0  0
   37.2150   31.5500   49.0050 C   0  0  0  0  0  0  0  0  0  0  0  0
   37.4000   32.7840   49.6290 C   0  0  0  0  0  0  0  0  0  0  0  0
   38.4320   33.6540   49.2420 C   0  0  0  0  0  0  0  0  0  0  0  0
   39.2950   33.2780   48.2100 C   0  0  0  0  0  0  0  0  0  0  0  0
   39.1370   32.0660   47.5760 C   0  0  0  0  0  0  0  0  0  0  0  0
   36.7240   33.0520   50.4190 H   0  0  0  0  0  0  0  0  0  0  0  0
   38.5600   34.6050   49.7370 H   0  0  0  0  0  0  0  0  0  0  0  0
   40.0840   33.9530   47.9220 H   0  0  0  0  0  0  0  0  0  0  0  0
   35.0460   30.4880   48.5710 C   0  0  0  0  0  0  0  0  0  0  0  0
   36.1640   30.6580   49.3940 C   0  0  0  0  0  0  0  0  0  0  0  0
   36.2150   29.9370   50.5880 C   0  0  0  0  0  0  0  0  0  0  0  0
   35.1660   29.1120   50.8760 N   0  0  0  0  0  0  0  0  0  0  0  0
   34.1020   28.9770   50.0510 C   0  0  0  0  0  0  0  0  0  0  0  0
   34.0400   29.6650   48.8980 N   0  0  0  0  0  0  0  0  0  0  0  0
   35.0170   31.0540   47.6450 H   0  0  0  0  0  0  0  0  0  0  0  0
   33.3170   28.3020   50.3570 H   0  0  0  0  0  0  0  0  0  0  0  0
   37.3610   30.0710   51.4970 C   0  0  0  0  0  0  0  0  0  0  0  0
   37.2270   30.8750   52.2590 H   0  0  0  0  0  0  0  0  0  0  0  0
   37.6510   29.1370   52.0140 H   0  0  0  0  0  0  0  0  0  0  0  0
   38.2480   30.3890   50.8930 H   0  0  0  0  0  0  0  0  0  0  0  0
   38.0130   30.0370   47.3070 O   0  0  0  0  0  0  0  0  0  0  0  0
   37.1190   29.7250   46.9450 H   0  0  0  0  0  0  0  0  0  0  0  0
   40.0140   31.7460   46.5690 O   0  0  0  0  0  0  0  0  0  0  0  0
   39.7210   34.6440   43.1100 H   0  0  0  0  0  0  0  0  0  0  0  0
   39.6270   33.6440   43.4240 N   0  0  0  0  0  0  0  0  0  0  0  0
   39.8920   33.4820   44.7290 C   0  0  0  0  0  3  0  0  0  0  0  0
   39.8130   32.2350   45.2970 C   0  0  0  0  0  0  0  0  0  0  0  0
   39.4540   31.1790   44.4620 C   0  0  0  0  0  0  0  0  0  0  0  0
   39.3190   29.9600   44.7510 O   0  0  0  0  0  0  0  0  0  0  0  0
   39.1900   31.3700   43.1360 N   0  0  0  0  0  0  0  0  0  0  0  0
   39.2830   32.6300   42.6220 C   0  0  0  0  0  0  0  0  0  0  0  0
   39.0760   32.9740   41.4380 O   0  0  0  0  0  0  0  0  0  0  0  0
   38.9220   30.6630   42.4480 H   0  0  0  0  0  0  0  0  0  0  0  0
  1  2  1  0  0  0  0
  2 11  1  0  0  0  0
  2  3  2  0  0  0  0
  3  7  1  0  0  0  0
  4  3  1  0  0  0  0
  4  8  1  0  0  0  0
  5  4  2  0  0  0  0
  6  1  2  0  0  0  0
  6  5  1  0  0  0  0
  9  5  1  0  0  0  0
 10 15  2  0  0  0  0
 10 11  1  0  0  0  0
 11 12  2  0  0  0  0
 12 13  1  0  0  0  0
 12 18  1  0  0  0  0
 14 17  1  0  0  0  0
 14 13  2  0  0  0  0
 15 14  1  0  0  0  0
 16 10  1  0  0  0  0
 18 20  1  0  0  0  0
 18 19  1  0  0  0  0
 21 18  1  0  0  0  0
 22  1  1  0  0  0  0
 23 22  1  0  0  0  0
 24  6  1  0  0  0  0
 25 26  1  0  0  0  0
 26 27  1  0  0  0  0
 27 28  2  0  0  0  0
 28 24  1  0  0  0  0
 29 30  2  0  0  0  0
 29 28  1  0  0  0  0
 31 29  1  0  0  0  0
 32 31  1  0  0  0  0
 32 26  1  0  0  0  0
 33 32  2  0  0  0  0
 34 31  1  0  0  0  0
M  END
>  <minimizedAffinity>
-6.61797953

>  <minimizedRMSD>
1.15606296

$$$$
