
 OpenBabel03272509193D

 34 36  0  0  0  0  0  0  0  0999 V2000
   38.1010   31.2970   47.9040 C   0  0  0  0  0  0  0  0  0  0  0  0
   37.2570   31.5530   48.9730 C   0  0  0  0  0  0  0  0  0  0  0  0
   37.4770   32.7790   49.6030 C   0  0  0  0  0  0  0  0  0  0  0  0
   38.4810   33.6580   49.1670 C   0  0  0  0  0  0  0  0  0  0  0  0
   39.2790   33.3000   48.0760 C   0  0  0  0  0  0  0  0  0  0  0  0
   39.0830   32.0970   47.4340 C   0  0  0  0  0  0  0  0  0  0  0  0
   36.8520   33.0320   50.4390 H   0  0  0  0  0  0  0  0  0  0  0  0
   38.6380   34.6010   49.6670 H   0  0  0  0  0  0  0  0  0  0  0  0
   40.0460   33.9820   47.7500 H   0  0  0  0  0  0  0  0  0  0  0  0
   35.0900   30.4520   48.6320 C   0  0  0  0  0  0  0  0  0  0  0  0
   36.2340   30.6520   49.4120 C   0  0  0  0  0  0  0  0  0  0  0  0
   36.3370   29.9530   50.6160 C   0  0  0  0  0  0  0  0  0  0  0  0
   35.3120   29.1160   50.9540 N   0  0  0  0  0  0  0  0  0  0  0  0
   34.2230   28.9510   50.1690 C   0  0  0  0  0  0  0  0  0  0  0  0
   34.1090   29.6180   49.0070 N   0  0  0  0  0  0  0  0  0  0  0  0
   35.0210   31.0010   47.6990 H   0  0  0  0  0  0  0  0  0  0  0  0
   33.4600   28.2690   50.5130 H   0  0  0  0  0  0  0  0  0  0  0  0
   37.5120   30.1190   51.4810 C   0  0  0  0  0  0  0  0  0  0  0  0
   37.3930   30.9330   52.2350 H   0  0  0  0  0  0  0  0  0  0  0  0
   37.8350   29.1980   52.0030 H   0  0  0  0  0  0  0  0  0  0  0  0
   38.3720   30.4400   50.8420 H   0  0  0  0  0  0  0  0  0  0  0  0
   37.9490   30.0700   47.2040 O   0  0  0  0  0  0  0  0  0  0  0  0
   37.0350   29.7610   46.8940 H   0  0  0  0  0  0  0  0  0  0  0  0
   39.8960   31.7970   46.3690 O   0  0  0  0  0  0  0  0  0  0  0  0
   37.7720   30.3880   42.6340 H   0  0  0  0  0  0  0  0  0  0  0  0
   38.3110   31.1670   43.0940 N   0  0  0  0  0  0  0  0  0  0  0  0
   38.6730   30.8750   44.3520 C   0  0  0  0  0  3  0  0  0  0  0  0
   39.3850   31.7890   45.0910 C   0  0  0  0  0  0  0  0  0  0  0  0
   39.6960   33.0000   44.4750 C   0  0  0  0  0  0  0  0  0  0  0  0
   40.3300   33.9790   44.9460 O   0  0  0  0  0  0  0  0  0  0  0  0
   39.3130   33.2720   43.1920 N   0  0  0  0  0  0  0  0  0  0  0  0
   38.6090   32.3290   42.5020 C   0  0  0  0  0  0  0  0  0  0  0  0
   38.1860   32.4180   41.3290 O   0  0  0  0  0  0  0  0  0  0  0  0
   39.4930   34.1250   42.6590 H   0  0  0  0  0  0  0  0  0  0  0  0
  1  2  1  0  0  0  0
  2 11  1  0  0  0  0
  2  3  2  0  0  0  0
  3  7  1  0  0  0  0
  4  3  1  0  0  0  0
  4  8  1  0  0  0  0
  5  4  2  0  0  0  0
  6  1  2  0  0  0  0
  6  5  1  0  0  0  0
  9  5  1  0  0  0  0
 10 15  2  0  0  0  0
 10 11  1  0  0  0  0
 11 12  2  0  0  0  0
 12 13  1  0  0  0  0
 12 18  1  0  0  0  0
 14 17  1  0  0  0  0
 14 13  2  0  0  0  0
 15 14  1  0  0  0  0
 16 10  1  0  0  0  0
 18 20  1  0  0  0  0
 18 19  1  0  0  0  0
 21 18  1  0  0  0  0
 22  1  1  0  0  0  0
 23 22  1  0  0  0  0
 24  6  1  0  0  0  0
 25 26  1  0  0  0  0
 26 27  1  0  0  0  0
 27 28  2  0  0  0  0
 28 24  1  0  0  0  0
 29 30  2  0  0  0  0
 29 28  1  0  0  0  0
 31 29  1  0  0  0  0
 32 26  1  0  0  0  0
 32 31  1  0  0  0  0
 33 32  2  0  0  0  0
 34 31  1  0  0  0  0
M  END
>  <minimizedAffinity>
-6.58918953

>  <minimizedRMSD>
1.12727964

$$$$
