
 OpenBabel03272504423D

 46 48  0  0  0  0  0  0  0  0999 V2000
   34.4350   29.2990   48.8280 C   0  0  0  0  0  0  0  0  0  0  0  0
   35.3010   29.3280   49.5320 H   0  0  0  0  0  0  0  0  0  0  0  0
   33.7750   30.1310   49.2130 H   0  0  0  0  0  0  0  0  0  0  0  0
   37.2000   30.3860   48.7070 Cl  0  0  0  0  0  0  0  0  0  0  0  0
   36.1460   30.2150   47.2980 C   0  0  0  0  0  0  0  0  0  0  0  0
   36.5930   30.5940   46.0820 C   0  0  0  0  0  0  0  0  0  0  0  0
   35.7780   30.4630   44.9800 C   0  0  0  0  0  0  0  0  0  0  0  0
   34.5030   29.9400   45.1490 C   0  0  0  0  0  0  0  0  0  0  0  0
   34.1040   29.5660   46.4460 C   0  0  0  0  0  0  0  0  0  0  0  0
   34.8900   29.6890   47.5270 C   0  0  0  0  0  0  0  0  0  0  0  0
   36.1620   30.7770   44.0010 H   0  0  0  0  0  0  0  0  0  0  0  0
   33.9480   29.8800   44.2260 H   0  0  0  0  0  0  0  0  0  0  0  0
   33.1400   29.2110   46.3560 H   0  0  0  0  0  0  0  0  0  0  0  0
   39.5820   32.7340   46.4140 C   0  0  0  0  0  0  0  0  0  0  0  0
   40.4770   32.0780   45.5050 C   0  0  0  0  0  0  0  0  0  0  0  0
   40.0150   30.9330   44.8220 C   0  0  0  0  0  0  0  0  0  0  0  0
   38.7480   30.5020   45.0510 N   0  0  0  0  0  0  0  0  0  0  0  0
   37.9290   31.1440   45.9150 C   0  0  0  0  0  0  0  0  0  0  0  0
   38.3500   32.2360   46.5770 N   0  0  0  0  0  0  0  0  0  0  0  0
   39.9750   33.6010   46.9130 H   0  0  0  0  0  0  0  0  0  0  0  0
   41.4740   32.4620   45.3600 H   0  0  0  0  0  0  0  0  0  0  0  0
   40.9180   30.3210   43.9430 N   0  0  0  0  0  0  0  0  0  0  0  0
   41.8680   29.9770   44.1780 H   0  0  0  0  0  0  0  0  0  0  0  0
   40.4400   30.2870   43.0130 H   0  0  0  0  0  0  0  0  0  0  0  0
   33.7460   28.0260   49.0200 C   0  0  0  0  0  0  0  0  0  0  0  0
   34.1730   27.3920   49.8480 H   0  0  0  0  0  0  0  0  0  0  0  0
   33.8660   27.3940   48.1000 H   0  0  0  0  0  0  0  0  0  0  0  0
   32.4160   28.2010   49.2910 O   0  0  0  0  0  0  0  0  0  0  0  0
   32.3050   26.3680   47.4140 O   0  0  0  0  0  0  0  0  0  0  0  0
   31.4760   27.3270   48.2310 P   0  0  2  0  0  0  0  0  0  0  0  0
   30.7350   28.4900   47.1810 O   0  0  0  0  0  0  0  0  0  0  0  0
   28.9320   25.9560   44.0530 H   0  0  0  0  0  0  0  0  0  0  0  0
   28.8140   26.7630   44.7170 N   0  0  0  0  0  0  0  0  0  0  0  0
   29.8240   27.1490   45.5460 C   0  0  0  0  0  3  0  0  0  0  0  0
   29.6280   28.2270   46.4160 C   0  0  0  0  0  0  0  0  0  0  0  0
   28.4120   28.8460   46.3860 C   0  0  0  0  0  0  0  0  0  0  0  0
   28.3030   29.8050   47.1910 O   0  0  0  0  0  0  0  0  0  0  0  0
   27.4210   28.4640   45.5690 N   0  0  0  0  0  0  0  0  0  0  0  0
   27.6240   27.4160   44.7300 C   0  0  0  0  0  0  0  0  0  0  0  0
   26.6720   27.0870   43.9800 O   0  0  0  0  0  0  0  0  0  0  0  0
   26.5090   28.9720   45.5860 H   0  0  0  0  0  0  0  0  0  0  0  0
   30.2340   26.5150   48.9600 O   0  0  0  0  0  0  0  0  0  0  0  0
   29.6160   27.3040   49.9050 C   0  0  0  0  0  0  0  0  0  0  0  0
   29.3750   26.6180   51.0940 F   0  0  0  0  0  0  0  0  0  0  0  0
   30.3970   28.3850   50.2570 F   0  0  0  0  0  0  0  0  0  0  0  0
   28.3960   27.7540   49.4110 F   0  0  0  0  0  0  0  0  0  0  0  0
  1 25  1  0  0  0  0
  1  3  1  0  0  0  0
  1  2  1  0  0  0  0
  5 10  1  0  0  0  0
  5  4  1  0  0  0  0
  6  5  2  0  0  0  0
  7  8  2  0  0  0  0
  7  6  1  0  0  0  0
  8  9  1  0  0  0  0
  9 10  2  0  0  0  0
 10  1  1  0  0  0  0
 11  7  1  0  0  0  0
 12  8  1  0  0  0  0
 13  9  1  0  0  0  0
 14 19  1  0  0  0  0
 14 20  1  0  0  0  0
 15 14  2  0  0  0  0
 16 17  2  0  0  0  0
 16 15  1  0  0  0  0
 17 18  1  0  0  0  0
 18  6  1  0  0  0  0
 18 19  2  0  0  0  0
 21 15  1  0  0  0  0
 22 23  1  0  0  0  0
 22 16  1  0  0  0  0
 24 22  1  0  0  0  0
 25 28  1  0  0  0  0
 25 26  1  0  0  0  0
 27 25  1  0  0  0  0
 30 29  2  6  0  0  0
 30 42  1  0  0  0  0
 30 28  1  0  0  0  0
 31 30  1  0  0  0  0
 32 33  1  0  0  0  0
 33 39  1  0  0  0  0
 33 34  1  0  0  0  0
 34 35  2  0  0  0  0
 35 31  1  0  0  0  0
 36 35  1  0  0  0  0
 36 37  2  0  0  0  0
 38 41  1  0  0  0  0
 38 36  1  0  0  0  0
 39 38  1  0  0  0  0
 40 39  2  0  0  0  0
 42 43  1  0  0  0  0
 43 45  1  0  0  0  0
 43 44  1  0  0  0  0
 46 43  1  0  0  0  0
M  END
>  <minimizedAffinity>
-6.01872921

>  <minimizedRMSD>
0.663799942

$$$$
