
     RDKit          3D

 26 27  0  0  0  0  0  0  0  0999 V2000
   37.4407   30.3099   51.3719 C   0  0  0  0  0  0  0  0  0  0  0  0
   38.1326   30.8846   50.2694 C   0  0  0  0  0  0  0  0  0  0  0  0
   37.7198   30.4904   48.9938 C   0  0  0  0  0  0  0  0  0  0  0  0
   36.7066   29.6029   48.8740 N   0  0  0  0  0  0  0  0  0  0  0  0
   36.0693   29.0749   49.9407 C   0  0  0  0  0  0  0  0  0  0  0  0
   36.4394   29.4312   51.1953 N   0  0  0  0  0  0  0  0  0  0  0  0
   35.0618   28.1867   49.6020 O   0  0  0  0  0  0  0  0  0  0  0  0
   32.5206   28.0750   49.0525 O   0  0  0  0  0  0  0  0  0  0  0  0
   33.8470   28.5086   48.4469 P   0  0  2  0  0  0  0  0  0  0  0  0
   34.0739   27.5799   47.0541 O   0  0  0  0  0  0  0  0  0  0  0  0
   33.7333   30.1170   48.0413 O   0  0  0  0  0  0  0  0  0  0  0  0
   37.7014   30.5650   52.4114 H   0  0  0  0  0  0  0  0  0  0  0  0
   38.9196   31.5765   50.4588 H   0  0  0  0  0  0  0  0  0  0  0  0
   38.2283   30.9114   48.1347 H   0  0  0  0  0  0  0  0  0  0  0  0
   34.9944   27.2483   46.9971 H   0  0  0  0  0  0  0  0  0  0  0  0
   31.7699   29.6076   44.1327 H   0  0  0  0  0  0  0  0  0  0  0  0
   31.8597   30.1778   45.0002 N   0  0  0  0  0  0  0  0  0  0  0  0
   32.7120   29.8533   46.0098 C   0  0  0  0  0  0  0  0  0  0  0  0
   32.8093   30.6373   47.1593 C   0  0  0  0  0  0  0  0  0  0  0  0
   32.0310   31.7645   47.2841 C   0  0  0  0  0  0  0  0  0  0  0  0
   32.1838   32.4085   48.3499 O   0  0  0  0  0  0  0  0  0  0  0  0
   31.1906   32.0772   46.2797 N   0  0  0  0  0  0  0  0  0  0  0  0
   31.1135   31.3054   45.1791 C   0  0  0  0  0  0  0  0  0  0  0  0
   30.3089   31.6440   44.2668 O   0  0  0  0  0  0  0  0  0  0  0  0
   33.2816   28.9363   45.8025 H   0  0  0  0  0  0  0  0  0  0  0  0
   30.6143   32.9342   46.4001 H   0  0  0  0  0  0  0  0  0  0  0  0
  2  1  2  0
  3  2  1  0
  4  3  2  0
  4  5  1  0
  5  6  2  0
  6  1  1  0
  7  5  1  0
  9  8  2  0
  9  7  1  1
 10  9  1  0
 11  9  1  0
  1 12  1  0
  2 13  1  0
  3 14  1  0
 10 15  1  0
 16 17  1  0
 17 18  1  0
 18 19  2  0
 19 20  1  0
 20 21  2  0
 20 22  1  0
 22 23  1  0
 23 24  2  0
 23 17  1  0
 18 25  1  0
 22 26  1  0
 11 19  1  0
M  ISO  5  12  14  13  14  14  14  15   3  16   9
M  END
>  <DihAtoms>  (1) 
8,10,18,17

>  <DihDeg>  (1) 
179.9759227949233

$$$$
