
 OpenBabel03272509193D

 34 36  0  0  0  0  0  0  0  0999 V2000
   37.8600   25.4660   34.1490 C   0  0  0  0  0  0  0  0  0  0  0  0
   37.9150   26.8100   33.8130 C   0  0  0  0  0  0  0  0  0  0  0  0
   38.1580   27.6650   34.8900 C   0  0  0  0  0  0  0  0  0  0  0  0
   38.3290   27.1720   36.1930 C   0  0  0  0  0  0  0  0  0  0  0  0
   38.2550   25.7950   36.4210 C   0  0  0  0  0  0  0  0  0  0  0  0
   38.0160   24.9280   35.3780 C   0  0  0  0  0  0  0  0  0  0  0  0
   38.2110   28.7190   34.6900 H   0  0  0  0  0  0  0  0  0  0  0  0
   38.5170   27.8480   37.0140 H   0  0  0  0  0  0  0  0  0  0  0  0
   38.3880   25.4280   37.4250 H   0  0  0  0  0  0  0  0  0  0  0  0
   36.4650   27.6570   32.0240 C   0  0  0  0  0  0  0  0  0  0  0  0
   37.7390   27.3050   32.4810 C   0  0  0  0  0  0  0  0  0  0  0  0
   38.8150   27.4520   31.6030 C   0  0  0  0  0  0  0  0  0  0  0  0
   38.5520   27.9320   30.3520 N   0  0  0  0  0  0  0  0  0  0  0  0
   37.3030   28.2610   29.9500 C   0  0  0  0  0  0  0  0  0  0  0  0
   36.2580   28.1240   30.7840 N   0  0  0  0  0  0  0  0  0  0  0  0
   35.6370   27.5380   32.7140 H   0  0  0  0  0  0  0  0  0  0  0  0
   37.1860   28.6330   28.9430 H   0  0  0  0  0  0  0  0  0  0  0  0
   40.1780   27.1000   32.0220 C   0  0  0  0  0  0  0  0  0  0  0  0
   40.4460   26.0390   31.8020 H   0  0  0  0  0  0  0  0  0  0  0  0
   40.9700   27.7570   31.6150 H   0  0  0  0  0  0  0  0  0  0  0  0
   40.2330   27.1880   33.1360 H   0  0  0  0  0  0  0  0  0  0  0  0
   37.6140   24.5240   33.1140 O   0  0  0  0  0  0  0  0  0  0  0  0
   38.1400   24.5560   32.2490 H   0  0  0  0  0  0  0  0  0  0  0  0
   37.9530   23.5850   35.6590 O   0  0  0  0  0  0  0  0  0  0  0  0
   40.5890   22.0700   39.0060 H   0  0  0  0  0  0  0  0  0  0  0  0
   40.4420   22.1300   37.9650 N   0  0  0  0  0  0  0  0  0  0  0  0
   39.3290   22.7990   37.6340 C   0  0  0  0  0  3  0  0  0  0  0  0
   38.9940   22.9670   36.3140 C   0  0  0  0  0  0  0  0  0  0  0  0
   39.8550   22.4130   35.3660 C   0  0  0  0  0  0  0  0  0  0  0  0
   39.7580   22.4370   34.1110 O   0  0  0  0  0  0  0  0  0  0  0  0
   40.9830   21.7360   35.7300 N   0  0  0  0  0  0  0  0  0  0  0  0
   41.2690   21.5990   37.0570 C   0  0  0  0  0  0  0  0  0  0  0  0
   42.2540   21.0130   37.5550 O   0  0  0  0  0  0  0  0  0  0  0  0
   41.6710   21.2980   35.1130 H   0  0  0  0  0  0  0  0  0  0  0  0
  1  6  1  0  0  0  0
  2  1  2  0  0  0  0
  2  3  1  0  0  0  0
  3  4  2  0  0  0  0
  4  5  1  0  0  0  0
  4  8  1  0  0  0  0
  5  9  1  0  0  0  0
  6 24  1  0  0  0  0
  6  5  2  0  0  0  0
  7  3  1  0  0  0  0
 10 11  1  0  0  0  0
 10 16  1  0  0  0  0
 11  2  1  0  0  0  0
 12 18  1  0  0  0  0
 12 11  2  0  0  0  0
 13 12  1  0  0  0  0
 14 13  2  0  0  0  0
 14 15  1  0  0  0  0
 15 10  2  0  0  0  0
 17 14  1  0  0  0  0
 18 21  1  0  0  0  0
 19 18  1  0  0  0  0
 20 18  1  0  0  0  0
 22  1  1  0  0  0  0
 23 22  1  0  0  0  0
 24 28  1  0  0  0  0
 26 25  1  0  0  0  0
 27 26  1  0  0  0  0
 28 27  2  0  0  0  0
 29 31  1  0  0  0  0
 29 28  1  0  0  0  0
 30 29  2  0  0  0  0
 31 32  1  0  0  0  0
 32 33  2  0  0  0  0
 32 26  1  0  0  0  0
 34 31  1  0  0  0  0
M  END
>  <minimizedAffinity>
-5.90910816

$$$$

 OpenBabel03272509193D

 34 36  0  0  0  0  0  0  0  0999 V2000
   37.9290   25.4920   34.1340 C   0  0  0  0  0  0  0  0  0  0  0  0
   38.6830   25.5380   35.2960 C   0  0  0  0  0  0  0  0  0  0  0  0
   38.5930   26.7430   35.9960 C   0  0  0  0  0  0  0  0  0  0  0  0
   37.7970   27.8020   35.5320 C   0  0  0  0  0  0  0  0  0  0  0  0
   37.0770   27.6500   34.3450 C   0  0  0  0  0  0  0  0  0  0  0  0
   37.1450   26.4720   33.6340 C   0  0  0  0  0  0  0  0  0  0  0  0
   39.1560   26.8370   36.9060 H   0  0  0  0  0  0  0  0  0  0  0  0
   37.7410   28.7270   36.0860 H   0  0  0  0  0  0  0  0  0  0  0  0
   36.4690   28.4690   33.9980 H   0  0  0  0  0  0  0  0  0  0  0  0
   40.7980   24.2950   35.2890 C   0  0  0  0  0  0  0  0  0  0  0  0
   39.4920   24.4530   35.7640 C   0  0  0  0  0  0  0  0  0  0  0  0
   39.0160   23.5270   36.6930 C   0  0  0  0  0  0  0  0  0  0  0  0
   39.8600   22.5250   37.0800 N   0  0  0  0  0  0  0  0  0  0  0  0
   41.1180   22.4090   36.5960 C   0  0  0  0  0  0  0  0  0  0  0  0
   41.5890   23.2940   35.7000 N   0  0  0  0  0  0  0  0  0  0  0  0
   41.1580   25.0210   34.5670 H   0  0  0  0  0  0  0  0  0  0  0  0
   41.7170   21.5870   36.9570 H   0  0  0  0  0  0  0  0  0  0  0  0
   37.6540   23.6360   37.2300 C   0  0  0  0  0  0  0  0  0  0  0  0
   36.8980   23.0720   36.6320 H   0  0  0  0  0  0  0  0  0  0  0  0
   37.5510   23.3450   38.2930 H   0  0  0  0  0  0  0  0  0  0  0  0
   37.3370   24.7070   37.1610 H   0  0  0  0  0  0  0  0  0  0  0  0
   37.9630   24.3030   33.3570 O   0  0  0  0  0  0  0  0  0  0  0  0
   37.8290   23.3970   33.7910 H   0  0  0  0  0  0  0  0  0  0  0  0
   36.4170   26.3770   32.4740 O   0  0  0  0  0  0  0  0  0  0  0  0
   35.9870   30.0900   29.9280 H   0  0  0  0  0  0  0  0  0  0  0  0
   36.4800   29.1680   30.0570 N   0  0  0  0  0  0  0  0  0  0  0  0
   36.0690   28.5070   31.1480 C   0  0  0  0  0  3  0  0  0  0  0  0
   36.6140   27.2860   31.4580 C   0  0  0  0  0  0  0  0  0  0  0  0
   37.5930   26.7910   30.5970 C   0  0  0  0  0  0  0  0  0  0  0  0
   38.2290   25.7070   30.6740 O   0  0  0  0  0  0  0  0  0  0  0  0
   37.9940   27.4840   29.4920 N   0  0  0  0  0  0  0  0  0  0  0  0
   37.4190   28.6940   29.2290 C   0  0  0  0  0  0  0  0  0  0  0  0
   37.6700   29.4500   28.2670 O   0  0  0  0  0  0  0  0  0  0  0  0
   38.6980   27.2060   28.8050 H   0  0  0  0  0  0  0  0  0  0  0  0
  1  2  1  0  0  0  0
  2 11  1  0  0  0  0
  2  3  2  0  0  0  0
  3  7  1  0  0  0  0
  4  3  1  0  0  0  0
  4  8  1  0  0  0  0
  5  4  2  0  0  0  0
  6  1  2  0  0  0  0
  6  5  1  0  0  0  0
  9  5  1  0  0  0  0
 10 15  2  0  0  0  0
 10 11  1  0  0  0  0
 11 12  2  0  0  0  0
 12 13  1  0  0  0  0
 12 18  1  0  0  0  0
 14 17  1  0  0  0  0
 14 13  2  0  0  0  0
 15 14  1  0  0  0  0
 16 10  1  0  0  0  0
 18 20  1  0  0  0  0
 19 18  1  0  0  0  0
 21 18  1  0  0  0  0
 22 23  1  0  0  0  0
 22  1  1  0  0  0  0
 24  6  1  0  0  0  0
 25 26  1  0  0  0  0
 26 27  1  0  0  0  0
 27 28  2  0  0  0  0
 28 24  1  0  0  0  0
 29 30  2  0  0  0  0
 29 28  1  0  0  0  0
 31 29  1  0  0  0  0
 32 31  1  0  0  0  0
 32 26  1  0  0  0  0
 33 32  2  0  0  0  0
 34 31  1  0  0  0  0
M  END
>  <minimizedAffinity>
-5.83033657

$$$$

 OpenBabel03272509193D

 34 36  0  0  0  0  0  0  0  0999 V2000
   38.1730   25.5230   34.0060 C   0  0  0  0  0  0  0  0  0  0  0  0
   38.2830   26.8420   33.5950 C   0  0  0  0  0  0  0  0  0  0  0  0
   38.3420   27.7690   34.6380 C   0  0  0  0  0  0  0  0  0  0  0  0
   38.2920   27.3650   35.9810 C   0  0  0  0  0  0  0  0  0  0  0  0
   38.1800   26.0060   36.2840 C   0  0  0  0  0  0  0  0  0  0  0  0
   38.1200   25.0690   35.2770 C   0  0  0  0  0  0  0  0  0  0  0  0
   38.4290   28.8080   34.3800 H   0  0  0  0  0  0  0  0  0  0  0  0
   38.3390   28.0960   36.7750 H   0  0  0  0  0  0  0  0  0  0  0  0
   38.1430   25.7070   37.3190 H   0  0  0  0  0  0  0  0  0  0  0  0
   39.5560   27.2740   31.5420 C   0  0  0  0  0  0  0  0  0  0  0  0
   38.3340   27.2480   32.2220 C   0  0  0  0  0  0  0  0  0  0  0  0
   37.1870   27.6260   31.5230 C   0  0  0  0  0  0  0  0  0  0  0  0
   37.3330   27.9990   30.2180 N   0  0  0  0  0  0  0  0  0  0  0  0
   38.5350   28.0090   29.5970 C   0  0  0  0  0  0  0  0  0  0  0  0
   39.6480   27.6470   30.2580 N   0  0  0  0  0  0  0  0  0  0  0  0
   40.4410   26.9780   32.0960 H   0  0  0  0  0  0  0  0  0  0  0  0
   38.5590   28.3170   28.5630 H   0  0  0  0  0  0  0  0  0  0  0  0
   35.8730   27.6210   32.1800 C   0  0  0  0  0  0  0  0  0  0  0  0
   35.6180   28.5950   32.6620 H   0  0  0  0  0  0  0  0  0  0  0  0
   35.0320   27.3180   31.5280 H   0  0  0  0  0  0  0  0  0  0  0  0
   35.9070   26.8830   33.0200 H   0  0  0  0  0  0  0  0  0  0  0  0
   38.1030   24.5120   33.0100 O   0  0  0  0  0  0  0  0  0  0  0  0
   38.7670   24.4930   32.2440 H   0  0  0  0  0  0  0  0  0  0  0  0
   38.0100   23.7470   35.6320 O   0  0  0  0  0  0  0  0  0  0  0  0
   41.9000   21.4620   35.3260 H   0  0  0  0  0  0  0  0  0  0  0  0
   41.1490   21.8320   35.9650 N   0  0  0  0  0  0  0  0  0  0  0  0
   40.1840   22.4900   35.3080 C   0  0  0  0  0  3  0  0  0  0  0  0
   39.1300   23.0350   35.9980 C   0  0  0  0  0  0  0  0  0  0  0  0
   39.1250   22.8690   37.3820 C   0  0  0  0  0  0  0  0  0  0  0  0
   38.2740   23.2750   38.2170 O   0  0  0  0  0  0  0  0  0  0  0  0
   40.1200   22.1940   38.0280 N   0  0  0  0  0  0  0  0  0  0  0  0
   41.1450   21.6720   37.2940 C   0  0  0  0  0  0  0  0  0  0  0  0
   42.1270   21.0320   37.7260 O   0  0  0  0  0  0  0  0  0  0  0  0
   40.2040   22.0210   39.0320 H   0  0  0  0  0  0  0  0  0  0  0  0
  1  6  1  0  0  0  0
  2  1  2  0  0  0  0
  2  3  1  0  0  0  0
  3  4  2  0  0  0  0
  4  5  1  0  0  0  0
  4  8  1  0  0  0  0
  5  9  1  0  0  0  0
  6 24  1  0  0  0  0
  6  5  2  0  0  0  0
  7  3  1  0  0  0  0
 10 16  1  0  0  0  0
 10 11  1  0  0  0  0
 11  2  1  0  0  0  0
 12 18  1  0  0  0  0
 12 11  2  0  0  0  0
 13 12  1  0  0  0  0
 14 13  2  0  0  0  0
 14 15  1  0  0  0  0
 15 10  2  0  0  0  0
 17 14  1  0  0  0  0
 18 19  1  0  0  0  0
 18 21  1  0  0  0  0
 20 18  1  0  0  0  0
 22  1  1  0  0  0  0
 23 22  1  0  0  0  0
 24 28  1  0  0  0  0
 25 26  1  0  0  0  0
 26 32  1  0  0  0  0
 27 26  1  0  0  0  0
 27 28  2  0  0  0  0
 28 29  1  0  0  0  0
 29 31  1  0  0  0  0
 29 30  2  0  0  0  0
 31 34  1  0  0  0  0
 32 33  2  0  0  0  0
 32 31  1  0  0  0  0
M  END
>  <minimizedAffinity>
-5.80445385

$$$$

 OpenBabel03272509193D

 34 36  0  0  0  0  0  0  0  0999 V2000
   37.1920   26.2620   32.6110 C   0  0  0  0  0  0  0  0  0  0  0  0
   36.1840   26.7020   31.7680 C   0  0  0  0  0  0  0  0  0  0  0  0
   35.4930   25.6830   31.1110 C   0  0  0  0  0  0  0  0  0  0  0  0
   35.8170   24.3310   31.3100 C   0  0  0  0  0  0  0  0  0  0  0  0
   36.8540   23.9970   32.1850 C   0  0  0  0  0  0  0  0  0  0  0  0
   37.5530   24.9810   32.8470 C   0  0  0  0  0  0  0  0  0  0  0  0
   34.7000   25.9640   30.4440 H   0  0  0  0  0  0  0  0  0  0  0  0
   35.2720   23.5560   30.7940 H   0  0  0  0  0  0  0  0  0  0  0  0
   37.0940   22.9570   32.3300 H   0  0  0  0  0  0  0  0  0  0  0  0
   34.8970   28.7010   32.3760 C   0  0  0  0  0  0  0  0  0  0  0  0
   35.8590   28.0830   31.5700 C   0  0  0  0  0  0  0  0  0  0  0  0
   36.4770   28.8500   30.5810 C   0  0  0  0  0  0  0  0  0  0  0  0
   36.1020   30.1580   30.4650 N   0  0  0  0  0  0  0  0  0  0  0  0
   35.1670   30.7170   31.2670 C   0  0  0  0  0  0  0  0  0  0  0  0
   34.5620   29.9910   32.2230 N   0  0  0  0  0  0  0  0  0  0  0  0
   34.4230   28.0950   33.1400 H   0  0  0  0  0  0  0  0  0  0  0  0
   34.9310   31.7590   31.1070 H   0  0  0  0  0  0  0  0  0  0  0  0
   37.4950   28.2610   29.7010 C   0  0  0  0  0  0  0  0  0  0  0  0
   37.0690   27.8240   28.7670 H   0  0  0  0  0  0  0  0  0  0  0  0
   38.3210   28.9440   29.4280 H   0  0  0  0  0  0  0  0  0  0  0  0
   37.9610   27.3970   30.2380 H   0  0  0  0  0  0  0  0  0  0  0  0
   37.9500   27.2330   33.3190 O   0  0  0  0  0  0  0  0  0  0  0  0
   37.4900   27.9780   33.8290 H   0  0  0  0  0  0  0  0  0  0  0  0
   38.5630   24.5960   33.6940 O   0  0  0  0  0  0  0  0  0  0  0  0
   37.4260   21.4150   36.7010 H   0  0  0  0  0  0  0  0  0  0  0  0
   37.6810   22.4250   36.5480 N   0  0  0  0  0  0  0  0  0  0  0  0
   37.9190   22.7130   35.2610 C   0  0  0  0  0  3  0  0  0  0  0  0
   38.2640   23.9900   34.8940 C   0  0  0  0  0  0  0  0  0  0  0  0
   38.3500   24.9400   35.9100 C   0  0  0  0  0  0  0  0  0  0  0  0
   38.6440   26.1610   35.8200 O   0  0  0  0  0  0  0  0  0  0  0  0
   38.1010   24.6220   37.2140 N   0  0  0  0  0  0  0  0  0  0  0  0
   37.7620   23.3370   37.5250 C   0  0  0  0  0  0  0  0  0  0  0  0
   37.5050   22.8820   38.6590 O   0  0  0  0  0  0  0  0  0  0  0  0
   38.1380   25.2440   38.0240 H   0  0  0  0  0  0  0  0  0  0  0  0
  1  6  1  0  0  0  0
  1 22  1  0  0  0  0
  2  1  2  0  0  0  0
  3  4  2  0  0  0  0
  3  2  1  0  0  0  0
  4  5  1  0  0  0  0
  5  9  1  0  0  0  0
  5  6  2  0  0  0  0
  6 24  1  0  0  0  0
  7  3  1  0  0  0  0
  8  4  1  0  0  0  0
 10 16  1  0  0  0  0
 11  2  1  0  0  0  0
 11 10  2  0  0  0  0
 12 11  1  0  0  0  0
 13 12  2  0  0  0  0
 13 14  1  0  0  0  0
 14 15  2  0  0  0  0
 15 10  1  0  0  0  0
 17 14  1  0  0  0  0
 18 21  1  0  0  0  0
 18 12  1  0  0  0  0
 19 18  1  0  0  0  0
 20 18  1  0  0  0  0
 22 23  1  0  0  0  0
 24 28  1  0  0  0  0
 26 25  1  0  0  0  0
 26 32  1  0  0  0  0
 27 26  1  0  0  0  0
 28 27  2  0  0  0  0
 28 29  1  0  0  0  0
 29 31  1  0  0  0  0
 30 29  2  0  0  0  0
 31 32  1  0  0  0  0
 31 34  1  0  0  0  0
 32 33  2  0  0  0  0
M  END
>  <minimizedAffinity>
-5.77360582

$$$$

 OpenBabel03272509193D

 34 36  0  0  0  0  0  0  0  0999 V2000
   38.6080   25.4510   33.7770 C   0  0  0  0  0  0  0  0  0  0  0  0
   38.8840   26.6960   33.2350 C   0  0  0  0  0  0  0  0  0  0  0  0
   40.0760   27.2690   33.6810 C   0  0  0  0  0  0  0  0  0  0  0  0
   40.9060   26.6110   34.6030 C   0  0  0  0  0  0  0  0  0  0  0  0
   40.5320   25.3550   35.0870 C   0  0  0  0  0  0  0  0  0  0  0  0
   39.3610   24.7660   34.6650 C   0  0  0  0  0  0  0  0  0  0  0  0
   40.3430   28.2350   33.2950 H   0  0  0  0  0  0  0  0  0  0  0  0
   41.8250   27.0700   34.9370 H   0  0  0  0  0  0  0  0  0  0  0  0
   41.1760   24.8590   35.7940 H   0  0  0  0  0  0  0  0  0  0  0  0
   38.3170   27.3020   30.9260 C   0  0  0  0  0  0  0  0  0  0  0  0
   38.0330   27.3620   32.2940 C   0  0  0  0  0  0  0  0  0  0  0  0
   36.9100   28.0830   32.7000 C   0  0  0  0  0  0  0  0  0  0  0  0
   36.1580   28.6850   31.7320 N   0  0  0  0  0  0  0  0  0  0  0  0
   36.4680   28.6020   30.4180 C   0  0  0  0  0  0  0  0  0  0  0  0
   37.5480   27.9110   30.0120 N   0  0  0  0  0  0  0  0  0  0  0  0
   39.1940   26.7400   30.6220 H   0  0  0  0  0  0  0  0  0  0  0  0
   35.8190   29.1090   29.7200 H   0  0  0  0  0  0  0  0  0  0  0  0
   36.5570   28.1840   34.1230 C   0  0  0  0  0  0  0  0  0  0  0  0
   37.0170   29.0670   34.6280 H   0  0  0  0  0  0  0  0  0  0  0  0
   35.4700   28.1840   34.3300 H   0  0  0  0  0  0  0  0  0  0  0  0
   36.9820   27.2940   34.6510 H   0  0  0  0  0  0  0  0  0  0  0  0
   37.4120   24.7950   33.3810 O   0  0  0  0  0  0  0  0  0  0  0  0
   37.1660   24.7140   32.4010 H   0  0  0  0  0  0  0  0  0  0  0  0
   39.0420   23.5300   35.1730 O   0  0  0  0  0  0  0  0  0  0  0  0
   42.6950   20.8710   35.3540 H   0  0  0  0  0  0  0  0  0  0  0  0
   41.9090   21.3190   35.8940 N   0  0  0  0  0  0  0  0  0  0  0  0
   41.1060   22.0630   35.1220 C   0  0  0  0  0  3  0  0  0  0  0  0
   40.0310   22.7140   35.6750 C   0  0  0  0  0  0  0  0  0  0  0  0
   39.8330   22.5600   37.0460 C   0  0  0  0  0  0  0  0  0  0  0  0
   38.9270   23.0530   37.7690 O   0  0  0  0  0  0  0  0  0  0  0  0
   40.6670   21.7950   37.8110 N   0  0  0  0  0  0  0  0  0  0  0  0
   41.7210   21.1690   37.2100 C   0  0  0  0  0  0  0  0  0  0  0  0
   42.5710   20.4380   37.7610 O   0  0  0  0  0  0  0  0  0  0  0  0
   40.6050   21.6220   38.8160 H   0  0  0  0  0  0  0  0  0  0  0  0
  1  6  1  0  0  0  0
  2  3  1  0  0  0  0
  2  1  2  0  0  0  0
  3  4  2  0  0  0  0
  4  8  1  0  0  0  0
  4  5  1  0  0  0  0
  5  9  1  0  0  0  0
  6  5  2  0  0  0  0
  6 24  1  0  0  0  0
  7  3  1  0  0  0  0
 10 11  1  0  0  0  0
 11 12  2  0  0  0  0
 11  2  1  0  0  0  0
 12 18  1  0  0  0  0
 13 12  1  0  0  0  0
 14 13  2  0  0  0  0
 15 14  1  0  0  0  0
 15 10  2  0  0  0  0
 16 10  1  0  0  0  0
 17 14  1  0  0  0  0
 18 20  1  0  0  0  0
 18 19  1  0  0  0  0
 18 21  1  0  0  0  0
 22  1  1  0  0  0  0
 23 22  1  0  0  0  0
 24 28  1  0  0  0  0
 25 26  1  0  0  0  0
 26 32  1  0  0  0  0
 27 28  2  0  0  0  0
 27 26  1  0  0  0  0
 28 29  1  0  0  0  0
 29 30  2  0  0  0  0
 29 31  1  0  0  0  0
 31 34  1  0  0  0  0
 32 33  2  0  0  0  0
 32 31  1  0  0  0  0
M  END
>  <minimizedAffinity>
-5.71722937

$$$$

 OpenBabel03272509193D

 34 36  0  0  0  0  0  0  0  0999 V2000
   37.8960   25.4430   34.1350 C   0  0  0  0  0  0  0  0  0  0  0  0
   38.6320   25.4920   35.3080 C   0  0  0  0  0  0  0  0  0  0  0  0
   38.5420   26.7020   35.9980 C   0  0  0  0  0  0  0  0  0  0  0  0
   37.7600   27.7640   35.5160 C   0  0  0  0  0  0  0  0  0  0  0  0
   37.0550   27.6080   34.3190 C   0  0  0  0  0  0  0  0  0  0  0  0
   37.1260   26.4250   33.6180 C   0  0  0  0  0  0  0  0  0  0  0  0
   39.0920   26.7990   36.9150 H   0  0  0  0  0  0  0  0  0  0  0  0
   37.7020   28.6930   36.0620 H   0  0  0  0  0  0  0  0  0  0  0  0
   36.4580   28.4290   33.9580 H   0  0  0  0  0  0  0  0  0  0  0  0
   38.8970   23.5090   36.7290 C   0  0  0  0  0  0  0  0  0  0  0  0
   39.4280   24.4040   35.7950 C   0  0  0  0  0  0  0  0  0  0  0  0
   40.7390   24.2020   35.3630 C   0  0  0  0  0  0  0  0  0  0  0  0
   41.4220   23.1390   35.8830 N   0  0  0  0  0  0  0  0  0  0  0  0
   40.8700   22.2960   36.7860 C   0  0  0  0  0  0  0  0  0  0  0  0
   39.6080   22.4790   37.2110 N   0  0  0  0  0  0  0  0  0  0  0  0
   37.8770   23.6770   37.0580 H   0  0  0  0  0  0  0  0  0  0  0  0
   41.4810   21.4810   37.1440 H   0  0  0  0  0  0  0  0  0  0  0  0
   41.3550   25.1070   34.3840 C   0  0  0  0  0  0  0  0  0  0  0  0
   41.8900   25.9660   34.8540 H   0  0  0  0  0  0  0  0  0  0  0  0
   42.0380   24.6150   33.6660 H   0  0  0  0  0  0  0  0  0  0  0  0
   40.5380   25.5720   33.7780 H   0  0  0  0  0  0  0  0  0  0  0  0
   37.9320   24.2490   33.3670 O   0  0  0  0  0  0  0  0  0  0  0  0
   37.7850   23.3470   33.8050 H   0  0  0  0  0  0  0  0  0  0  0  0
   36.4130   26.3270   32.4480 O   0  0  0  0  0  0  0  0  0  0  0  0
   36.0080   30.0270   29.8790 H   0  0  0  0  0  0  0  0  0  0  0  0
   36.5050   29.1090   30.0220 N   0  0  0  0  0  0  0  0  0  0  0  0
   36.0760   28.4490   31.1070 C   0  0  0  0  0  3  0  0  0  0  0  0
   36.6240   27.2330   31.4330 C   0  0  0  0  0  0  0  0  0  0  0  0
   37.6230   26.7420   30.5930 C   0  0  0  0  0  0  0  0  0  0  0  0
   38.2660   25.6640   30.6860 O   0  0  0  0  0  0  0  0  0  0  0  0
   38.0420   27.4350   29.4930 N   0  0  0  0  0  0  0  0  0  0  0  0
   37.4630   28.6390   29.2150 C   0  0  0  0  0  0  0  0  0  0  0  0
   37.7280   29.3940   28.2550 O   0  0  0  0  0  0  0  0  0  0  0  0
   38.7620   27.1600   28.8220 H   0  0  0  0  0  0  0  0  0  0  0  0
  1  2  1  0  0  0  0
  2 11  1  0  0  0  0
  2  3  2  0  0  0  0
  3  7  1  0  0  0  0
  4  3  1  0  0  0  0
  4  8  1  0  0  0  0
  5  4  2  0  0  0  0
  6  1  2  0  0  0  0
  6  5  1  0  0  0  0
  9  5  1  0  0  0  0
 10 16  1  0  0  0  0
 10 15  1  0  0  0  0
 11 10  2  0  0  0  0
 12 11  1  0  0  0  0
 12 13  2  0  0  0  0
 13 14  1  0  0  0  0
 14 17  1  0  0  0  0
 14 15  2  0  0  0  0
 18 19  1  0  0  0  0
 18 12  1  0  0  0  0
 20 18  1  0  0  0  0
 21 18  1  0  0  0  0
 22 23  1  0  0  0  0
 22  1  1  0  0  0  0
 24  6  1  0  0  0  0
 25 26  1  0  0  0  0
 26 27  1  0  0  0  0
 27 28  2  0  0  0  0
 28 24  1  0  0  0  0
 29 30  2  0  0  0  0
 29 28  1  0  0  0  0
 31 29  1  0  0  0  0
 32 31  1  0  0  0  0
 32 26  1  0  0  0  0
 33 32  2  0  0  0  0
 34 31  1  0  0  0  0
M  END
>  <minimizedAffinity>
-5.66191673

$$$$

 OpenBabel03272509193D

 34 36  0  0  0  0  0  0  0  0999 V2000
   37.5610   26.0020   32.2270 C   0  0  0  0  0  0  0  0  0  0  0  0
   36.5940   26.5860   31.4240 C   0  0  0  0  0  0  0  0  0  0  0  0
   35.5780   25.7190   31.0200 C   0  0  0  0  0  0  0  0  0  0  0  0
   35.5660   24.3710   31.4110 C   0  0  0  0  0  0  0  0  0  0  0  0
   36.5930   23.8840   32.2240 C   0  0  0  0  0  0  0  0  0  0  0  0
   37.6080   24.7160   32.6390 C   0  0  0  0  0  0  0  0  0  0  0  0
   34.8000   26.1160   30.3960 H   0  0  0  0  0  0  0  0  0  0  0  0
   34.7720   23.7140   31.0890 H   0  0  0  0  0  0  0  0  0  0  0  0
   36.5730   22.8480   32.5190 H   0  0  0  0  0  0  0  0  0  0  0  0
   37.1340   28.3300   29.7840 C   0  0  0  0  0  0  0  0  0  0  0  0
   36.6130   27.9630   31.0290 C   0  0  0  0  0  0  0  0  0  0  0  0
   36.1210   28.9730   31.8570 C   0  0  0  0  0  0  0  0  0  0  0  0
   36.1810   30.2570   31.3960 N   0  0  0  0  0  0  0  0  0  0  0  0
   36.6940   30.5690   30.1840 C   0  0  0  0  0  0  0  0  0  0  0  0
   37.1710   29.6060   29.3760 N   0  0  0  0  0  0  0  0  0  0  0  0
   37.5140   27.5360   29.1490 H   0  0  0  0  0  0  0  0  0  0  0  0
   36.7020   31.6100   29.8990 H   0  0  0  0  0  0  0  0  0  0  0  0
   35.5610   28.6540   33.1770 C   0  0  0  0  0  0  0  0  0  0  0  0
   36.3200   28.6750   33.9940 H   0  0  0  0  0  0  0  0  0  0  0  0
   34.7000   29.2810   33.4770 H   0  0  0  0  0  0  0  0  0  0  0  0
   35.1920   27.5980   33.1520 H   0  0  0  0  0  0  0  0  0  0  0  0
   38.6360   26.8120   32.6830 O   0  0  0  0  0  0  0  0  0  0  0  0
   38.4600   27.7170   33.1030 H   0  0  0  0  0  0  0  0  0  0  0  0
   38.5920   24.1840   33.4360 O   0  0  0  0  0  0  0  0  0  0  0  0
   37.2760   21.4060   36.7520 H   0  0  0  0  0  0  0  0  0  0  0  0
   37.6200   22.3690   36.5000 N   0  0  0  0  0  0  0  0  0  0  0  0
   37.8340   22.5180   35.1860 C   0  0  0  0  0  3  0  0  0  0  0  0
   38.2840   23.7180   34.6940 C   0  0  0  0  0  0  0  0  0  0  0  0
   38.5000   24.7410   35.6170 C   0  0  0  0  0  0  0  0  0  0  0  0
   38.9060   25.9140   35.4070 O   0  0  0  0  0  0  0  0  0  0  0  0
   38.2740   24.5630   36.9520 N   0  0  0  0  0  0  0  0  0  0  0  0
   37.8260   23.3490   37.3880 C   0  0  0  0  0  0  0  0  0  0  0  0
   37.5720   23.0230   38.5660 O   0  0  0  0  0  0  0  0  0  0  0  0
   38.4010   25.2470   37.7000 H   0  0  0  0  0  0  0  0  0  0  0  0
  1  6  1  0  0  0  0
  1 22  1  0  0  0  0
  2  1  2  0  0  0  0
  3  4  2  0  0  0  0
  3  2  1  0  0  0  0
  4  5  1  0  0  0  0
  5  9  1  0  0  0  0
  5  6  2  0  0  0  0
  6 24  1  0  0  0  0
  7  3  1  0  0  0  0
  8  4  1  0  0  0  0
 10 11  1  0  0  0  0
 11  2  1  0  0  0  0
 11 12  2  0  0  0  0
 12 18  1  0  0  0  0
 13 12  1  0  0  0  0
 14 13  2  0  0  0  0
 15 10  2  0  0  0  0
 15 14  1  0  0  0  0
 16 10  1  0  0  0  0
 17 14  1  0  0  0  0
 18 20  1  0  0  0  0
 18 19  1  0  0  0  0
 21 18  1  0  0  0  0
 22 23  1  0  0  0  0
 24 28  1  0  0  0  0
 26 25  1  0  0  0  0
 26 32  1  0  0  0  0
 27 26  1  0  0  0  0
 28 27  2  0  0  0  0
 28 29  1  0  0  0  0
 29 31  1  0  0  0  0
 30 29  2  0  0  0  0
 31 32  1  0  0  0  0
 31 34  1  0  0  0  0
 32 33  2  0  0  0  0
M  END
>  <minimizedAffinity>
-5.59994173

$$$$

 OpenBabel03272509193D

 34 36  0  0  0  0  0  0  0  0999 V2000
   35.7410   29.2420   33.5690 C   0  0  0  0  0  0  0  0  0  0  0  0
   34.9290   30.3540   33.7310 C   0  0  0  0  0  0  0  0  0  0  0  0
   34.7730   31.1280   32.5800 C   0  0  0  0  0  0  0  0  0  0  0  0
   35.4010   30.7820   31.3730 C   0  0  0  0  0  0  0  0  0  0  0  0
   36.2000   29.6370   31.3200 C   0  0  0  0  0  0  0  0  0  0  0  0
   36.3720   28.8540   32.4390 C   0  0  0  0  0  0  0  0  0  0  0  0
   34.1530   32.0030   32.6450 H   0  0  0  0  0  0  0  0  0  0  0  0
   35.2690   31.3920   30.4920 H   0  0  0  0  0  0  0  0  0  0  0  0
   36.6770   29.3800   30.3880 H   0  0  0  0  0  0  0  0  0  0  0  0
   33.0140   30.2110   35.2590 C   0  0  0  0  0  0  0  0  0  0  0  0
   34.2910   30.7010   34.9660 C   0  0  0  0  0  0  0  0  0  0  0  0
   34.9080   31.5270   35.9060 C   0  0  0  0  0  0  0  0  0  0  0  0
   34.2230   31.8050   37.0540 N   0  0  0  0  0  0  0  0  0  0  0  0
   32.9890   31.3090   37.2990 C   0  0  0  0  0  0  0  0  0  0  0  0
   32.3820   30.5120   36.4020 N   0  0  0  0  0  0  0  0  0  0  0  0
   32.5440   29.5700   34.5210 H   0  0  0  0  0  0  0  0  0  0  0  0
   32.5190   31.5790   38.2330 H   0  0  0  0  0  0  0  0  0  0  0  0
   36.2490   32.0750   35.6580 C   0  0  0  0  0  0  0  0  0  0  0  0
   36.2310   33.0660   35.1430 H   0  0  0  0  0  0  0  0  0  0  0  0
   36.8890   32.1540   36.5570 H   0  0  0  0  0  0  0  0  0  0  0  0
   36.7780   31.3910   34.9490 H   0  0  0  0  0  0  0  0  0  0  0  0
   35.9580   28.3980   34.6910 O   0  0  0  0  0  0  0  0  0  0  0  0
   35.1790   28.0730   35.2530 H   0  0  0  0  0  0  0  0  0  0  0  0
   37.1690   27.7410   32.3300 O   0  0  0  0  0  0  0  0  0  0  0  0
   34.4970   24.7350   30.2630 H   0  0  0  0  0  0  0  0  0  0  0  0
   35.2990   24.8820   30.9290 N   0  0  0  0  0  0  0  0  0  0  0  0
   35.6000   26.1760   31.1030 C   0  0  0  0  0  3  0  0  0  0  0  0
   36.6240   26.5370   31.9440 C   0  0  0  0  0  0  0  0  0  0  0  0
   37.3120   25.5070   32.5840 C   0  0  0  0  0  0  0  0  0  0  0  0
   38.2750   25.5890   33.3910 O   0  0  0  0  0  0  0  0  0  0  0  0
   36.9840   24.1950   32.3900 N   0  0  0  0  0  0  0  0  0  0  0  0
   35.9570   23.8920   31.5440 C   0  0  0  0  0  0  0  0  0  0  0  0
   35.5340   22.7520   31.2580 O   0  0  0  0  0  0  0  0  0  0  0  0
   37.4260   23.3760   32.8120 H   0  0  0  0  0  0  0  0  0  0  0  0
  1  2  1  0  0  0  0
  1 22  1  0  0  0  0
  2 11  1  0  0  0  0
  3  7  1  0  0  0  0
  3  2  2  0  0  0  0
  4  3  1  0  0  0  0
  5  4  2  0  0  0  0
  5  6  1  0  0  0  0
  6  1  2  0  0  0  0
  8  4  1  0  0  0  0
  9  5  1  0  0  0  0
 10 15  1  0  0  0  0
 11 10  2  0  0  0  0
 11 12  1  0  0  0  0
 12 13  2  0  0  0  0
 13 14  1  0  0  0  0
 14 17  1  0  0  0  0
 15 14  2  0  0  0  0
 16 10  1  0  0  0  0
 18 12  1  0  0  0  0
 18 20  1  0  0  0  0
 19 18  1  0  0  0  0
 21 18  1  0  0  0  0
 22 23  1  0  0  0  0
 24  6  1  0  0  0  0
 25 26  1  0  0  0  0
 26 27  1  0  0  0  0
 26 32  1  0  0  0  0
 27 28  2  0  0  0  0
 28 24  1  0  0  0  0
 28 29  1  0  0  0  0
 29 30  2  0  0  0  0
 31 29  1  0  0  0  0
 31 34  1  0  0  0  0
 32 31  1  0  0  0  0
 33 32  2  0  0  0  0
M  END
>  <minimizedAffinity>
-5.58279991

$$$$

 OpenBabel03272509193D

 34 36  0  0  0  0  0  0  0  0999 V2000
   38.4520   25.2400   33.3440 C   0  0  0  0  0  0  0  0  0  0  0  0
   38.6330   26.6080   33.2090 C   0  0  0  0  0  0  0  0  0  0  0  0
   39.6980   27.1250   33.9480 C   0  0  0  0  0  0  0  0  0  0  0  0
   40.5020   26.3000   34.7520 C   0  0  0  0  0  0  0  0  0  0  0  0
   40.2310   24.9310   34.8150 C   0  0  0  0  0  0  0  0  0  0  0  0
   39.1860   24.3930   34.0970 C   0  0  0  0  0  0  0  0  0  0  0  0
   39.8880   28.1800   33.8830 H   0  0  0  0  0  0  0  0  0  0  0  0
   41.3210   26.7170   35.3170 H   0  0  0  0  0  0  0  0  0  0  0  0
   40.8530   24.3070   35.4350 H   0  0  0  0  0  0  0  0  0  0  0  0
   38.0670   27.5520   31.0170 C   0  0  0  0  0  0  0  0  0  0  0  0
   37.8090   27.4430   32.3870 C   0  0  0  0  0  0  0  0  0  0  0  0
   36.7390   28.1680   32.9130 C   0  0  0  0  0  0  0  0  0  0  0  0
   36.0100   28.9390   32.0530 N   0  0  0  0  0  0  0  0  0  0  0  0
   36.2930   29.0160   30.7320 C   0  0  0  0  0  0  0  0  0  0  0  0
   37.3210   28.3230   30.2120 N   0  0  0  0  0  0  0  0  0  0  0  0
   38.9010   26.9850   30.6190 H   0  0  0  0  0  0  0  0  0  0  0  0
   35.6650   29.6490   30.1250 H   0  0  0  0  0  0  0  0  0  0  0  0
   36.4170   28.0970   34.3450 C   0  0  0  0  0  0  0  0  0  0  0  0
   36.9390   28.8740   34.9520 H   0  0  0  0  0  0  0  0  0  0  0  0
   35.3360   28.1330   34.5770 H   0  0  0  0  0  0  0  0  0  0  0  0
   36.7950   27.1200   34.7380 H   0  0  0  0  0  0  0  0  0  0  0  0
   37.3870   24.6290   32.6280 O   0  0  0  0  0  0  0  0  0  0  0  0
   37.2530   24.8140   31.6410 H   0  0  0  0  0  0  0  0  0  0  0  0
   38.9650   23.0410   34.1970 O   0  0  0  0  0  0  0  0  0  0  0  0
   36.7190   22.2950   38.0500 H   0  0  0  0  0  0  0  0  0  0  0  0
   36.7780   22.0960   37.0180 N   0  0  0  0  0  0  0  0  0  0  0  0
   37.8080   22.7160   36.4270 C   0  0  0  0  0  3  0  0  0  0  0  0
   38.0250   22.5580   35.0800 C   0  0  0  0  0  0  0  0  0  0  0  0
   37.1350   21.7400   34.3860 C   0  0  0  0  0  0  0  0  0  0  0  0
   37.1300   21.4480   33.1610 O   0  0  0  0  0  0  0  0  0  0  0  0
   36.0930   21.1190   35.0120 N   0  0  0  0  0  0  0  0  0  0  0  0
   35.9230   21.3090   36.3530 C   0  0  0  0  0  0  0  0  0  0  0  0
   35.0280   20.8180   37.0720 O   0  0  0  0  0  0  0  0  0  0  0  0
   35.3930   20.5040   34.5920 H   0  0  0  0  0  0  0  0  0  0  0  0
  1  6  1  0  0  0  0
  2  1  2  0  0  0  0
  2  3  1  0  0  0  0
  3  4  2  0  0  0  0
  4  5  1  0  0  0  0
  4  8  1  0  0  0  0
  5  9  1  0  0  0  0
  6 24  1  0  0  0  0
  6  5  2  0  0  0  0
  7  3  1  0  0  0  0
 10 11  1  0  0  0  0
 11 12  2  0  0  0  0
 11  2  1  0  0  0  0
 12 18  1  0  0  0  0
 13 12  1  0  0  0  0
 14 13  2  0  0  0  0
 15 14  1  0  0  0  0
 15 10  2  0  0  0  0
 16 10  1  0  0  0  0
 17 14  1  0  0  0  0
 18 20  1  0  0  0  0
 18 21  1  0  0  0  0
 18 19  1  0  0  0  0
 22  1  1  0  0  0  0
 23 22  1  0  0  0  0
 24 28  1  0  0  0  0
 26 25  1  0  0  0  0
 27 26  1  0  0  0  0
 28 27  2  0  0  0  0
 29 31  1  0  0  0  0
 29 28  1  0  0  0  0
 30 29  2  0  0  0  0
 31 32  1  0  0  0  0
 32 26  1  0  0  0  0
 32 33  2  0  0  0  0
 34 31  1  0  0  0  0
M  END
>  <minimizedAffinity>
-5.56129599

$$$$
