
     RDKit          3D

 31 33  0  0  0  0  0  0  0  0999 V2000
   36.3687   30.4813   46.3888 Cl  0  0  0  0  0  0  0  0  0  0  0  0
   36.8026   30.5408   48.0799 C   0  0  0  0  0  0  0  0  0  0  0  0
   38.0214   31.0810   48.3864 C   0  0  0  0  0  0  0  0  0  0  0  0
   38.3906   31.1393   49.7328 C   0  0  0  0  0  0  0  0  0  0  0  0
   37.5332   30.6605   50.6927 C   0  0  0  0  0  0  0  0  0  0  0  0
   36.3149   30.1276   50.3033 C   0  0  0  0  0  0  0  0  0  0  0  0
   35.8935   30.0418   48.9966 C   0  0  0  0  0  0  0  0  0  0  0  0
   39.9966   33.4217   46.3878 C   0  0  0  0  0  0  0  0  0  0  0  0
   40.5670   32.6223   45.3857 C   0  0  0  0  0  0  0  0  0  0  0  0
   40.2533   31.2678   45.4200 C   0  0  0  0  0  0  0  0  0  0  0  0
   39.4278   30.7882   46.3990 N   0  0  0  0  0  0  0  0  0  0  0  0
   38.9096   31.5821   47.3288 C   0  0  0  0  0  0  0  0  0  0  0  0
   39.1986   32.8966   47.3164 N   0  0  0  0  0  0  0  0  0  0  0  0
   34.3390   29.3701   48.4837 S   0  0  0  0  0  0  0  0  0  0  0  0
   39.3485   31.5615   50.0021 H   0  0  0  0  0  0  0  0  0  0  0  0
   37.8116   30.7019   51.7374 H   0  0  0  0  0  0  0  0  0  0  0  0
   35.6463   29.7518   51.0788 H   0  0  0  0  0  0  0  0  0  0  0  0
   40.1801   34.4835   46.4454 H   0  0  0  0  0  0  0  0  0  0  0  0
   41.2096   33.0873   44.6501 H   0  0  0  0  0  0  0  0  0  0  0  0
   40.6707   30.6331   44.6723 H   0  0  0  0  0  0  0  0  0  0  0  0
   34.5687   25.2088   45.9571 H   0  0  0  0  0  0  0  0  0  0  0  0
   34.5546   25.6367   46.9080 N   0  0  0  0  0  0  0  0  0  0  0  0
   34.4692   26.9795   46.9157 C   0  0  0  0  0  0  0  0  0  0  0  0
   34.4469   27.6038   48.1652 C   0  0  0  0  0  0  0  0  0  0  0  0
   34.5122   26.8284   49.3249 C   0  0  0  0  0  0  0  0  0  0  0  0
   34.4980   27.3064   50.4845 O   0  0  0  0  0  0  0  0  0  0  0  0
   34.5968   25.4845   49.2549 N   0  0  0  0  0  0  0  0  0  0  0  0
   34.6159   24.9171   48.0364 C   0  0  0  0  0  0  0  0  0  0  0  0
   34.6922   23.6851   47.8819 O   0  0  0  0  0  0  0  0  0  0  0  0
   34.4143   27.6642   46.0961 H   0  0  0  0  0  0  0  0  0  0  0  0
   34.6475   24.8731   50.1102 H   0  0  0  0  0  0  0  0  0  0  0  0
  1  2  1  0
  2  3  2  0
  2  7  1  0
  3  4  1  0
  4  5  2  0
  6  5  1  0
  7  6  2  0
  8 13  2  0
  9 10  2  0
  9  8  1  0
 10 11  1  0
 11 12  2  0
 12  3  1  0
 13 12  1  0
 14  7  1  0
  4 15  1  0
  5 16  1  0
  6 17  1  0
  8 18  1  0
  9 19  1  0
 10 20  1  0
 21 22  1  0
 22 23  1  0
 23 24  2  0
 24 25  1  0
 25 26  2  0
 25 27  1  0
 27 28  1  0
 28 29  2  0
 28 22  1  0
 23 30  1  0
 27 31  1  0
 14 24  1  0
M  ISO  7  15  14  16  14  17  14  18  14  19  14  20  14  21   9
M  END
>  <DihAtoms>  (1) 
6,13,23,22

>  <DihDeg>  (1) 
-90.00139947796627

$$$$
