
 OpenBabel03272505093D

 30 32  0  0  0  0  0  0  0  0999 V2000
   36.3910   30.8950   45.6890 Cl  0  0  0  0  0  0  0  0  0  0  0  0
   36.6880   30.7930   47.4070 C   0  0  0  0  0  0  0  0  0  0  0  0
   37.9450   31.1160   47.8360 C   0  0  0  0  0  0  0  0  0  0  0  0
   38.2070   31.0410   49.2070 C   0  0  0  0  0  0  0  0  0  0  0  0
   37.2100   30.6510   50.0680 C   0  0  0  0  0  0  0  0  0  0  0  0
   35.9620   30.3400   49.5560 C   0  0  0  0  0  0  0  0  0  0  0  0
   35.6410   30.3930   48.2200 C   0  0  0  0  0  0  0  0  0  0  0  0
   39.1930   31.2910   49.5730 H   0  0  0  0  0  0  0  0  0  0  0  0
   37.4060   30.5910   51.1300 H   0  0  0  0  0  0  0  0  0  0  0  0
   35.1820   30.0310   50.2540 H   0  0  0  0  0  0  0  0  0  0  0  0
   40.2180   33.2850   45.9630 C   0  0  0  0  0  0  0  0  0  0  0  0
   40.9180   32.4050   45.1230 C   0  0  0  0  0  0  0  0  0  0  0  0
   40.5860   31.0590   45.2210 C   0  0  0  0  0  0  0  0  0  0  0  0
   39.6220   30.6610   46.1060 N   0  0  0  0  0  0  0  0  0  0  0  0
   38.9840   31.5290   46.8830 C   0  0  0  0  0  0  0  0  0  0  0  0
   39.2870   32.8380   46.8050 N   0  0  0  0  0  0  0  0  0  0  0  0
   40.4030   34.3470   45.9600 H   0  0  0  0  0  0  0  0  0  0  0  0
   41.6660   32.8080   44.4530 H   0  0  0  0  0  0  0  0  0  0  0  0
   41.1000   30.3640   44.5960 H   0  0  0  0  0  0  0  0  0  0  0  0
   34.0490   30.0040   47.5510 S   0  0  0  0  0  0  0  0  0  0  0  0
   34.0390   26.4980   44.1650 H   0  0  0  0  0  0  0  0  0  0  0  0
   34.0050   26.7060   45.1860 N   0  0  0  0  0  0  0  0  0  0  0  0
   34.0490   28.0160   45.4930 C   0  0  0  0  0  3  0  0  0  0  0  0
   34.0070   28.3500   46.8480 C   0  0  0  0  0  0  0  0  0  0  0  0
   33.9220   27.3360   47.8050 C   0  0  0  0  0  0  0  0  0  0  0  0
   33.8800   27.5460   49.0410 O   0  0  0  0  0  0  0  0  0  0  0  0
   33.8810   26.0400   47.4390 N   0  0  0  0  0  0  0  0  0  0  0  0
   33.9240   25.7540   46.1260 C   0  0  0  0  0  0  0  0  0  0  0  0
   33.8910   24.5860   45.7010 O   0  0  0  0  0  0  0  0  0  0  0  0
   33.8170   25.2540   48.1350 H   0  0  0  0  0  0  0  0  0  0  0  0
  1  2  1  0  0  0  0
  2  3  2  0  0  0  0
  2  7  1  0  0  0  0
  3  4  1  0  0  0  0
  4  8  1  0  0  0  0
  4  5  2  0  0  0  0
  5  9  1  0  0  0  0
  6  5  1  0  0  0  0
  6 10  1  0  0  0  0
  7  6  2  0  0  0  0
 11 16  1  0  0  0  0
 12 13  1  0  0  0  0
 12 11  2  0  0  0  0
 13 14  2  0  0  0  0
 14 15  1  0  0  0  0
 15  3  1  0  0  0  0
 16 15  2  0  0  0  0
 17 11  1  0  0  0  0
 18 12  1  0  0  0  0
 19 13  1  0  0  0  0
 20  7  1  0  0  0  0
 21 22  1  0  0  0  0
 22 23  1  0  0  0  0
 22 28  1  0  0  0  0
 23 24  2  0  0  0  0
 24 20  1  0  0  0  0
 24 25  1  0  0  0  0
 25 26  2  0  0  0  0
 27 25  1  0  0  0  0
 27 30  1  0  0  0  0
 28 27  1  0  0  0  0
 29 28  2  0  0  0  0
M  END
>  <minimizedAffinity>
-5.56177521

>  <minimizedRMSD>
1.2773807

$$$$
