REMARK  Name = 
REMARK  5 active torsions:
REMARK  status: ('A' for Active; 'I' for Inactive)
REMARK    1  A    between atoms: C_1  and  C_4
REMARK    2  A    between atoms: C_2  and  C_11
REMARK    3  A    between atoms: C_10  and  O_15
REMARK    4  A    between atoms: C_14  and  O_16
REMARK    5  A    between atoms: O_16  and  C_33
REMARK                            x       y       z     vdW  Elec       q    Type
REMARK                         _______ _______ _______ _____ _____    ______ ____
ROOT
ATOM      1  C   UNL     1      33.965  29.078  47.374  0.00  0.00    +0.000 C 
ATOM      2  C   UNL     1      34.748  28.281  48.410  0.00  0.00    +0.000 C 
ATOM      3  O   UNL     1      33.873  28.064  49.441  0.00  0.00    +0.000 OA
ATOM      4  C   UNL     1      32.581  28.133  49.005  0.00  0.00    +0.000 C 
ATOM      5  C   UNL     1      32.603  28.385  47.509  0.00  0.00    +0.000 C 
ATOM      6  H   UNL     1      33.803  30.124  47.658  0.00  0.00    +0.000 HD
ATOM      7  H   UNL     1      35.044  27.347  47.896  0.00  0.00    +0.000 HD
ATOM      8  H   UNL     1      32.081  28.963  49.555  0.00  0.00    +0.000 HD
ATOM      9  H   UNL     1      32.102  27.152  49.236  0.00  0.00    +0.000 HD
ATOM     10  H   UNL     1      32.687  27.410  47.015  0.00  0.00    +0.000 HD
ENDROOT
BRANCH   2  12
ATOM     11  C   UNL     1      35.811  30.548  49.068  0.00  0.00    +0.000 C 
ATOM     12  C   UNL     1      35.904  29.126  48.836  0.00  0.00    +0.000 C 
ATOM     13  C   UNL     1      36.059  29.591  50.247  0.00  0.00    +0.000 C 
ATOM     14  H   UNL     1      34.906  31.157  49.233  0.00  0.00    +0.000 HD
ATOM     15  H   UNL     1      36.873  28.781  48.369  0.00  0.00    +0.000 HD
ATOM     16  H   UNL     1      37.049  29.589  50.731  0.00  0.00    +0.000 HD
ATOM     17  H   UNL     1      35.199  29.386  50.912  0.00  0.00    +0.000 HD
BRANCH  11  18
ATOM     18  C   UNL     1      37.008  31.457  48.820  0.00  0.00    +0.000 A 
ATOM     19  C   UNL     1      37.179  32.532  49.696  0.00  0.00    +0.000 A 
ATOM     20  C   UNL     1      38.270  33.342  49.413  0.00  0.00    +0.000 A 
ATOM     21  N   UNL     1      39.093  33.081  48.351  0.00  0.00    +0.000 NA
ATOM     22  C   UNL     1      38.882  32.022  47.529  0.00  0.00    +0.000 A 
ATOM     23  N   UNL     1      37.827  31.200  47.766  0.00  0.00    +0.000 NA
ATOM     24  H   UNL     1      36.503  32.682  50.506  0.00  0.00    +0.000 HD
ATOM     25  H   UNL     1      38.450  34.190  50.061  0.00  0.00    +0.000 HD
ATOM     26  H   UNL     1      39.559  31.866  46.712  0.00  0.00    +0.000 HD
ENDBRANCH  11  18
ENDBRANCH   2  12
BRANCH   1  27
ATOM     27  O   UNL     1      34.458  28.972  46.095  0.00  0.00    +0.000 OA
ATOM     28  H   UNL     1      35.080  28.218  45.941  0.00  0.00    +0.000 HD
ENDBRANCH   1  27
BRANCH   5  29
ATOM     29  O   UNL     1      31.581  29.162  47.061  0.00  0.00    +0.000 OA
BRANCH  29  33
ATOM     30  H   UNL     1      29.365  29.069  43.130  0.00  0.00    +0.000 HD
ATOM     31  N   UNL     1      29.500  28.572  44.057  0.00  0.00    +0.000 N 
ATOM     32  C   UNL     1      30.401  29.226  44.811  0.00  0.00    +0.000 A 
ATOM     33  C   UNL     1      30.723  28.744  46.061  0.00  0.00    +0.000 A 
ATOM     34  C   UNL     1      30.081  27.573  46.489  0.00  0.00    +0.000 A 
ATOM     35  O   UNL     1      30.218  26.960  47.580  0.00  0.00    +0.000 OA
ATOM     36  N   UNL     1      29.173  26.946  45.686  0.00  0.00    +0.000 N 
ATOM     37  C   UNL     1      28.887  27.450  44.472  0.00  0.00    +0.000 A 
ATOM     38  O   UNL     1      28.073  26.966  43.644  0.00  0.00    +0.000 OA
ATOM     39  H   UNL     1      28.656  26.078  45.927  0.00  0.00    +0.000 HD
ENDBRANCH  29  33
ENDBRANCH   5  29
TORSDOF 5
