
 OpenBabel03272508093D

 25 26  0  0  0  0  0  0  0  0999 V2000
   35.7010   31.1200   49.4960 O   0  0  0  0  0  0  0  0  0  0  0  0
   35.8190   30.1480   48.3590 P   0  0  2  0  0  0  0  0  0  0  0  0
   34.9400   30.7210   47.0190 O   0  0  0  0  0  0  0  0  0  0  0  0
   34.6340   29.9560   46.4620 H   0  0  0  0  0  0  0  0  0  0  0  0
   35.3240   28.5870   48.7460 O   0  0  0  0  0  0  0  0  0  0  0  0
   31.7600   27.5740   48.7660 C   0  0  0  0  0  0  0  0  0  0  0  0
   32.8840   28.3530   49.0980 C   0  0  0  0  0  0  0  0  0  0  0  0
   34.1320   27.9940   48.5650 C   0  0  0  0  0  0  0  0  0  0  0  0
   34.1750   26.9030   47.7480 N   0  0  0  0  0  0  0  0  0  0  0  0
   33.0780   26.1890   47.4570 C   0  0  0  0  0  0  0  0  0  0  0  0
   31.8750   26.5170   47.9590 N   0  0  0  0  0  0  0  0  0  0  0  0
   30.8890   28.0000   49.2670 H   0  0  0  0  0  0  0  0  0  0  0  0
   32.9420   29.2130   49.7200 H   0  0  0  0  0  0  0  0  0  0  0  0
   33.0810   25.3150   46.8110 H   0  0  0  0  0  0  0  0  0  0  0  0
   37.4510   30.1310   47.9070 O   0  0  0  0  0  0  0  0  0  0  0  0
   39.9660   33.7240   47.5320 H   0  0  0  0  0  0  0  0  0  0  0  0
   39.4290   32.9720   47.0530 N   0  0  0  0  0  0  0  0  0  0  0  0
   38.7590   32.0000   47.7390 C   0  0  0  0  0  0  0  0  0  0  0  0
   38.0590   31.0190   47.0260 C   0  0  0  0  0  0  0  0  0  0  0  0
   38.0490   31.0400   45.6460 C   0  0  0  0  0  0  0  0  0  0  0  0
   37.3920   30.1150   45.1470 O   0  0  0  0  0  0  0  0  0  0  0  0
   38.7150   32.0070   44.9970 N   0  0  0  0  0  0  0  0  0  0  0  0
   39.3870   32.9460   45.7100 C   0  0  0  0  0  0  0  0  0  0  0  0
   39.9780   33.8060   44.9940 O   0  0  0  0  0  0  0  0  0  0  0  0
   38.6800   31.9840   43.9570 H   0  0  0  0  0  0  0  0  0  0  0  0
  2  5  1  0  0  0  0
  2  1  2  1  0  0  0
  3  2  1  0  0  0  0
  4  3  1  0  0  0  0
  6  7  1  0  0  0  0
  6 12  1  0  0  0  0
  7 13  1  0  0  0  0
  8  5  1  0  0  0  0
  8  7  2  0  0  0  0
  9  8  1  0  0  0  0
 10  9  2  0  0  0  0
 10 11  1  0  0  0  0
 11  6  2  0  0  0  0
 14 10  1  0  0  0  0
 15  2  1  0  0  0  0
 17 16  1  0  0  0  0
 17 18  1  0  0  0  0
 19 18  2  0  0  0  0
 19 15  1  0  0  0  0
 20 19  1  0  0  0  0
 21 20  2  0  0  0  0
 22 20  1  0  0  0  0
 22 23  1  0  0  0  0
 23 17  1  0  0  0  0
 24 23  2  0  0  0  0
 25 22  1  0  0  0  0
M  END
>  <minimizedAffinity>
-4.66934776

>  <minimizedRMSD>
4.20215082

$$$$
