
 OpenBabel03272508283D

 39 42  0  0  1  0  0  0  0  0999 V2000
   33.8570   28.9590   47.2750 C   0  0  2  0  0  0  0  0  0  0  0  0
   34.5970   28.1710   48.3480 C   0  0  2  0  0  0  0  0  0  0  0  0
   33.6990   28.0120   49.3690 O   0  0  0  0  0  0  0  0  0  0  0  0
   32.4170   28.1050   48.9080 C   0  0  0  0  0  0  0  0  0  0  0  0
   32.4720   28.3110   47.4060 C   0  0  1  0  0  0  0  0  0  0  0  0
   33.7210   30.0180   47.5250 H   0  0  0  0  0  0  0  0  0  0  0  0
   34.8740   27.2140   47.8680 H   0  0  0  0  0  0  0  0  0  0  0  0
   31.9330   28.9660   49.4240 H   0  0  0  0  0  0  0  0  0  0  0  0
   31.9050   27.1460   49.1600 H   0  0  0  0  0  0  0  0  0  0  0  0
   32.5350   27.3200   46.9430 H   0  0  0  0  0  0  0  0  0  0  0  0
   35.6920   30.4050   49.0660 C   0  0  1  0  0  0  0  0  0  0  0  0
   35.7710   28.9940   48.7700 C   0  0  1  0  0  0  0  0  0  0  0  0
   35.9770   29.3970   50.1930 C   0  0  0  0  0  0  0  0  0  0  0  0
   34.7950   31.0090   49.2890 H   0  0  0  0  0  0  0  0  0  0  0  0
   36.7220   28.6680   48.2550 H   0  0  0  0  0  0  0  0  0  0  0  0
   36.9830   29.3720   50.6420 H   0  0  0  0  0  0  0  0  0  0  0  0
   35.1400   29.1660   50.8780 H   0  0  0  0  0  0  0  0  0  0  0  0
   36.8830   31.3210   48.8160 C   0  0  0  0  0  0  0  0  0  0  0  0
   37.0790   32.3660   49.7220 C   0  0  0  0  0  0  0  0  0  0  0  0
   38.1630   33.1850   49.4360 C   0  0  0  0  0  0  0  0  0  0  0  0
   38.9560   32.9590   48.3440 N   0  0  0  0  0  0  0  0  0  0  0  0
   38.7210   31.9280   47.4930 C   0  0  0  0  0  0  0  0  0  0  0  0
   37.6720   31.0990   47.7320 N   0  0  0  0  0  0  0  0  0  0  0  0
   36.4260   32.4900   50.5550 H   0  0  0  0  0  0  0  0  0  0  0  0
   38.3620   34.0110   50.1070 H   0  0  0  0  0  0  0  0  0  0  0  0
   39.3760   31.7990   46.6530 H   0  0  0  0  0  0  0  0  0  0  0  0
   34.3680   28.8000   46.0090 O   0  0  0  0  0  0  0  0  0  0  0  0
   34.9700   28.0240   45.8890 H   0  0  0  0  0  0  0  0  0  0  0  0
   31.4820   29.1040   46.9170 O   0  0  0  0  0  0  0  0  0  0  0  0
   27.3990   27.2280   47.3450 H   0  0  0  0  0  0  0  0  0  0  0  0
   28.0930   27.6390   46.6560 N   0  0  0  0  0  0  0  0  0  0  0  0
   29.2060   28.0370   47.2950 C   0  0  0  0  0  3  0  0  0  0  0  0
   30.2390   28.6040   46.5790 C   0  0  0  0  0  0  0  0  0  0  0  0
   30.0680   28.7370   45.1930 C   0  0  0  0  0  0  0  0  0  0  0  0
   30.8690   29.2190   44.3500 O   0  0  0  0  0  0  0  0  0  0  0  0
   28.9180   28.3180   44.5910 N   0  0  0  0  0  0  0  0  0  0  0  0
   27.9340   27.7700   45.3280 C   0  0  0  0  0  0  0  0  0  0  0  0
   26.8320   27.3480   44.8920 O   0  0  0  0  0  0  0  0  0  0  0  0
   28.7140   28.3800   43.5750 H   0  0  0  0  0  0  0  0  0  0  0  0
  1  5  1  0  0  0  0
  1  6  1  1  0  0  0
  1  2  1  0  0  0  0
  2  7  1  6  0  0  0
  2 12  1  0  0  0  0
  2  3  1  0  0  0  0
  4  9  1  0  0  0  0
  4  3  1  0  0  0  0
  4  8  1  0  0  0  0
  5 10  1  6  0  0  0
  5  4  1  0  0  0  0
 11 14  1  6  0  0  0
 11 13  1  0  0  0  0
 12 15  1  6  0  0  0
 12 11  1  0  0  0  0
 12 13  1  0  0  0  0
 13 16  1  0  0  0  0
 13 17  1  0  0  0  0
 18 11  1  0  0  0  0
 18 19  1  0  0  0  0
 19 24  1  0  0  0  0
 20 19  2  0  0  0  0
 20 25  1  0  0  0  0
 21 20  1  0  0  0  0
 22 23  1  0  0  0  0
 22 21  2  0  0  0  0
 23 18  2  0  0  0  0
 26 22  1  0  0  0  0
 27  1  1  0  0  0  0
 28 27  1  0  0  0  0
 29  5  1  0  0  0  0
 31 32  1  0  0  0  0
 31 30  1  0  0  0  0
 33 29  1  0  0  0  0
 33 32  2  0  0  0  0
 34 33  1  0  0  0  0
 35 34  2  0  0  0  0
 36 34  1  0  0  0  0
 36 37  1  0  0  0  0
 37 31  1  0  0  0  0
 38 37  2  0  0  0  0
 39 36  1  0  0  0  0
M  END
>  <minimizedAffinity>
-5.2561326

>  <minimizedRMSD>
1.18805146

$$$$
