
     RDKit          3D

 31 32  0  0  0  0  0  0  0  0999 V2000
   38.2545   31.5712   47.8084 C   0  0  0  0  0  0  0  0  0  0  0  0
   38.2336   32.6040   48.6284 C   0  0  0  0  0  0  0  0  0  0  0  0
   40.5306   32.7643   45.1045 C   0  0  0  0  0  0  0  0  0  0  0  0
   39.7736   32.6988   46.2790 C   0  0  0  0  0  0  0  0  0  0  0  0
   39.0333   31.5747   46.6045 C   0  0  0  0  0  0  0  0  0  0  0  0
   39.0745   30.5298   45.7304 N   0  0  0  0  0  0  0  0  0  0  0  0
   39.8067   30.6023   44.6026 C   0  0  0  0  0  0  0  0  0  0  0  0
   40.5227   31.7047   44.2939 N   0  0  0  0  0  0  0  0  0  0  0  0
   37.3584   32.4824   49.8420 C   0  0  2  0  0  0  0  0  0  0  0  0
   36.3712   30.9593   49.6810 S   0  0  0  0  0  0  0  0  0  0  0  0
   36.7419   29.8218   51.0190 C   0  0  0  0  0  0  0  0  0  0  0  0
   37.5440   30.3535   52.0052 F   0  0  0  0  0  0  0  0  0  0  0  0
   35.5697   29.2656   51.5378 F   0  0  0  0  0  0  0  0  0  0  0  0
   37.4192   28.7196   50.4263 F   0  0  0  0  0  0  0  0  0  0  0  0
   37.6746   30.6511   47.9925 H   0  0  0  0  0  0  0  0  0  0  0  0
   38.7457   33.5107   48.5294 H   0  0  0  0  0  0  0  0  0  0  0  0
   41.0994   33.6764   44.8809 H   0  0  0  0  0  0  0  0  0  0  0  0
   39.8386   33.5939   46.8677 H   0  0  0  0  0  0  0  0  0  0  0  0
   39.8590   29.7820   43.8953 H   0  0  0  0  0  0  0  0  0  0  0  0
   38.0059   32.4742   50.7552 H   0  0  0  0  0  0  0  0  0  0  0  0
   36.5290   33.6806   49.9044 N   0  0  0  0  0  0  0  0  0  0  0  0
   37.0510   34.8551   49.5415 C   0  0  0  0  0  0  0  0  0  0  0  0
   36.1135   35.9053   49.5297 C   0  0  0  0  0  0  0  0  0  0  0  0
   36.4552   36.9081   49.2357 H   0  0  0  0  0  0  0  0  0  0  0  0
   34.7733   35.6462   49.8812 C   0  0  0  0  0  0  0  0  0  0  0  0
   33.9334   36.5608   49.8694 O   0  0  0  0  0  0  0  0  0  0  0  0
   34.3895   34.4224   50.2296 N   0  0  0  0  0  0  0  0  0  0  0  0
   35.2684   33.4237   50.2450 C   0  0  0  0  0  0  0  0  0  0  0  0
   34.8366   32.2727   50.5873 O   0  0  0  0  0  0  0  0  0  0  0  0
   38.0972   34.9764   49.2872 H   0  0  0  0  0  0  0  0  0  0  0  0
   33.3785   34.2184   50.4956 H   0  0  0  0  0  0  0  0  0  0  0  0
  1  2  2  0
  2  9  1  0
  3  4  2  0
  4  5  1  0
  5  1  1  0
  6  5  2  0
  7  6  1  0
  8  7  2  0
  8  3  1  0
 10  9  1  0
 10 11  1  0
 11 13  1  0
 11 12  1  0
 14 11  1  0
  1 15  1  0
  2 16  1  0
  3 17  1  0
  4 18  1  0
  7 19  1  0
  9 20  1  1
 21 22  1  0
 22 23  2  0
 23 24  1  0
 23 25  1  0
 25 26  2  0
 25 27  1  0
 27 28  1  0
 28 29  2  0
 28 21  1  0
 22 30  1  0
 27 31  1  0
  9 21  1  0
M  ISO  5  17  14  18  14  19  14  20   8  24  16
M  END
>  <DihAtoms>  (1) 
1,8,20,21

>  <DihDeg>  (1) 
-66.9669407696966

$$$$
