
 OpenBabel03272502313D

 28 29  0  0  1  0  0  0  0  0999 V2000
   38.3920   31.0150   49.0900 C   0  0  2  0  0  0  0  0  0  0  0  0
   39.3780   31.1890   49.5930 H   0  0  0  0  0  0  0  0  0  0  0  0
   37.5030   32.1030   49.4820 N   0  0  0  0  0  0  0  0  0  0  0  0
   36.2550   31.8180   49.8640 C   0  0  0  0  0  3  0  0  0  0  0  0
   35.5430   32.9380   50.3330 C   0  0  0  0  0  0  0  0  0  0  0  0
   34.5080   32.7950   50.6750 H   0  0  0  0  0  0  0  0  0  0  0  0
   36.1710   34.1990   50.3620 C   0  0  0  0  0  0  0  0  0  0  0  0
   35.5590   35.1970   50.7800 O   0  0  0  0  0  0  0  0  0  0  0  0
   37.4250   34.3410   49.9450 N   0  0  0  0  0  0  0  0  0  0  0  0
   38.1050   33.2890   49.4980 C   0  0  0  0  0  0  0  0  0  0  0  0
   39.3050   33.4910   49.1130 O   0  0  0  0  0  0  0  0  0  0  0  0
   37.9080   35.2900   49.9650 H   0  0  0  0  0  0  0  0  0  0  0  0
   37.6640   30.5340   46.8520 C   0  0  0  0  0  3  0  0  0  0  0  0
   38.5850   31.1060   47.6030 C   0  0  0  0  0  3  0  0  0  0  0  0
   38.9940   30.1920   43.3840 C   0  0  0  0  0  0  0  0  0  0  0  0
   38.8760   30.1520   44.7770 C   0  0  0  0  0  0  0  0  0  0  0  0
   37.7230   30.5730   45.4210 C   0  0  0  0  0  0  0  0  0  0  0  0
   36.7050   31.0270   44.6350 N   0  0  0  0  0  0  0  0  0  0  0  0
   36.8290   31.0600   43.2960 C   0  0  0  0  0  0  0  0  0  0  0  0
   37.9590   30.6510   42.6790 N   0  0  0  0  0  0  0  0  0  0  0  0
   39.9270   29.8550   42.9140 H   0  0  0  0  0  0  0  0  0  0  0  0
   39.7550   29.7710   45.2610 H   0  0  0  0  0  0  0  0  0  0  0  0
   36.0320   31.4130   42.6510 H   0  0  0  0  0  0  0  0  0  0  0  0
   37.7000   29.3740   49.4750 S   0  0  0  0  0  0  0  0  0  0  0  0
   37.3990   29.2130   51.2370 C   0  0  0  0  0  0  0  0  0  0  0  0
   37.9070   30.2480   51.9920 F   0  0  0  0  0  0  0  0  0  0  0  0
   36.0420   28.9940   51.4910 F   0  0  0  0  0  0  0  0  0  0  0  0
   38.0300   28.0030   51.6380 F   0  0  0  0  0  0  0  0  0  0  0  0
  1 24  1  0  0  0  0
  1  3  1  0  0  0  0
  1  2  1  1  0  0  0
  3 10  1  0  0  0  0
  3  4  1  0  0  0  0
  4  5  2  0  0  0  0
  5  7  1  0  0  0  0
  5  6  1  0  0  0  0
  7  8  2  0  0  0  0
  9 12  1  0  0  0  0
  9  7  1  0  0  0  0
 10  9  1  0  0  0  0
 11 10  2  0  0  0  0
 13 14  2  0  0  0  0
 14  1  1  0  0  0  0
 15 16  1  0  0  0  0
 16 22  1  0  0  0  0
 16 17  2  0  0  0  0
 17 13  1  0  0  0  0
 18 17  1  0  0  0  0
 19 18  2  0  0  0  0
 20 19  1  0  0  0  0
 20 15  2  0  0  0  0
 21 15  1  0  0  0  0
 23 19  1  0  0  0  0
 24 25  1  0  0  0  0
 25 27  1  0  0  0  0
 25 28  1  0  0  0  0
 25 26  1  0  0  0  0
M  END
>  <minimizedAffinity>
-0.218175188

>  <minimizedRMSD>
2.19071579

$$$$
