
 OpenBabel03272502313D

 28 29  0  0  1  0  0  0  0  0999 V2000
   38.2140   30.7730   48.9230 C   0  0  2  0  0  0  0  0  0  0  0  0
   39.2720   30.9620   49.2360 H   0  0  0  0  0  0  0  0  0  0  0  0
   37.4140   31.9050   49.3790 N   0  0  0  0  0  0  0  0  0  0  0  0
   36.1820   31.6870   49.8450 C   0  0  0  0  0  3  0  0  0  0  0  0
   35.5660   32.8410   50.3650 C   0  0  0  0  0  0  0  0  0  0  0  0
   34.5510   32.7530   50.7770 H   0  0  0  0  0  0  0  0  0  0  0  0
   36.2650   34.0670   50.3540 C   0  0  0  0  0  0  0  0  0  0  0  0
   35.7380   35.0930   50.8150 O   0  0  0  0  0  0  0  0  0  0  0  0
   37.4920   34.1420   49.8510 N   0  0  0  0  0  0  0  0  0  0  0  0
   38.0810   33.0570   49.3560 C   0  0  0  0  0  0  0  0  0  0  0  0
   39.2600   33.1940   48.8900 O   0  0  0  0  0  0  0  0  0  0  0  0
   38.0270   35.0640   49.8420 H   0  0  0  0  0  0  0  0  0  0  0  0
   36.9540   30.6070   46.8840 C   0  0  0  0  0  3  0  0  0  0  0  0
   38.1490   30.7530   47.4230 C   0  0  0  0  0  3  0  0  0  0  0  0
   37.6760   30.9410   43.2400 C   0  0  0  0  0  0  0  0  0  0  0  0
   37.8180   30.9140   44.6310 C   0  0  0  0  0  0  0  0  0  0  0  0
   36.7590   30.5950   45.4650 C   0  0  0  0  0  0  0  0  0  0  0  0
   35.5670   30.3050   44.8690 N   0  0  0  0  0  0  0  0  0  0  0  0
   35.4400   30.3330   43.5300 C   0  0  0  0  0  0  0  0  0  0  0  0
   36.4800   30.6490   42.7270 N   0  0  0  0  0  0  0  0  0  0  0  0
   38.5390   31.2060   42.6160 H   0  0  0  0  0  0  0  0  0  0  0  0
   38.8120   31.1630   44.9540 H   0  0  0  0  0  0  0  0  0  0  0  0
   34.5040   30.1020   43.0340 H   0  0  0  0  0  0  0  0  0  0  0  0
   37.5830   29.1800   49.5420 S   0  0  0  0  0  0  0  0  0  0  0  0
   37.4070   29.2210   51.3270 C   0  0  0  0  0  0  0  0  0  0  0  0
   37.9910   30.3160   51.9260 F   0  0  0  0  0  0  0  0  0  0  0  0
   36.0690   29.0690   51.6990 F   0  0  0  0  0  0  0  0  0  0  0  0
   38.0400   28.0430   51.8140 F   0  0  0  0  0  0  0  0  0  0  0  0
  1  2  1  1  0  0  0
  1  3  1  0  0  0  0
  1 24  1  0  0  0  0
  3  4  1  0  0  0  0
  4  5  2  0  0  0  0
  5  6  1  0  0  0  0
  7  5  1  0  0  0  0
  7  8  2  0  0  0  0
  9  7  1  0  0  0  0
 10  3  1  0  0  0  0
 10  9  1  0  0  0  0
 11 10  2  0  0  0  0
 12  9  1  0  0  0  0
 13 14  2  0  0  0  0
 14  1  1  0  0  0  0
 15 16  1  0  0  0  0
 16 22  1  0  0  0  0
 16 17  2  0  0  0  0
 17 13  1  0  0  0  0
 18 17  1  0  0  0  0
 19 18  2  0  0  0  0
 20 15  2  0  0  0  0
 20 19  1  0  0  0  0
 21 15  1  0  0  0  0
 23 19  1  0  0  0  0
 24 25  1  0  0  0  0
 25 27  1  0  0  0  0
 25 28  1  0  0  0  0
 25 26  1  0  0  0  0
M  END
>  <minimizedAffinity>
-0.395833969

>  <minimizedRMSD>
2.55227542

$$$$
