REMARK  Name = 
REMARK  6 active torsions:
REMARK  status: ('A' for Active; 'I' for Inactive)
REMARK    1  A    between atoms: C_1  and  O_8
REMARK    2  A    between atoms: C_5  and  C_7
REMARK    3  A    between atoms: O_8  and  C_10
REMARK    4  A    between atoms: C_13  and  S_15
REMARK    5  A    between atoms: S_15  and  C_16
REMARK    6  A    between atoms: C_16  and  N_27
REMARK                            x       y       z     vdW  Elec       q    Type
REMARK                         _______ _______ _______ _____ _____    ______ ____
ROOT
ATOM      1  C   UNL     1      38.096  30.368  49.421  0.00  0.00    +0.000 A 
ATOM      2  C   UNL     1      37.980  31.053  48.209  0.00  0.00    +0.000 A 
ATOM      3  C   UNL     1      36.812  30.877  47.466  0.00  0.00    +0.000 A 
ATOM      4  N   UNL     1      35.873  30.051  47.979  0.00  0.00    +0.000 NA
ATOM      5  C   UNL     1      36.019  29.426  49.120  0.00  0.00    +0.000 A 
ATOM      6  N   UNL     1      37.145  29.560  49.895  0.00  0.00    +0.000 NA
ATOM      7  H   UNL     1      38.957  30.422  50.091  0.00  0.00    +0.000 HD
ATOM      8  H   UNL     1      36.734  31.415  46.527  0.00  0.00    +0.000 HD
ENDROOT
BRANCH   2   9
ATOM      9  O   UNL     1      39.031  31.844  47.855  0.00  0.00    +0.000 OA
BRANCH   9  10
ATOM     10  C   UNL     1      39.481  31.797  46.534  0.00  0.00    +0.000 A 
ATOM     11  C   UNL     1      39.780  30.670  45.778  0.00  0.00    +0.000 A 
ATOM     12  C   UNL     1      40.206  30.828  44.502  0.00  0.00    +0.000 A 
ATOM     13  C   UNL     1      40.331  32.088  43.998  0.00  0.00    +0.000 A 
ATOM     14  C   UNL     1      40.031  33.204  44.757  0.00  0.00    +0.000 A 
ATOM     15  N   UNL     1      39.613  32.997  46.014  0.00  0.00    +0.000 NA
ATOM     16  H   UNL     1      39.630  29.735  46.322  0.00  0.00    +0.000 HD
ATOM     17  H   UNL     1      40.425  29.912  43.958  0.00  0.00    +0.000 HD
ATOM     18  H   UNL     1      40.672  32.218  42.978  0.00  0.00    +0.000 HD
BRANCH  14  19
ATOM     19  C   UNL     1      40.183  34.583  44.159  0.00  0.00    +0.000 C 
ATOM     20  H   UNL     1      40.428  35.303  44.958  0.00  0.00    +0.000 HD
ATOM     21  H   UNL     1      41.068  34.503  43.474  0.00  0.00    +0.000 HD
ATOM     22  H   UNL     1      39.297  34.858  43.569  0.00  0.00    +0.000 HD
ENDBRANCH  14  19
ENDBRANCH   9  10
ENDBRANCH   2   9
BRANCH   5  23
ATOM     23  S   UNL     1      34.575  28.407  49.500  0.00  0.00    +0.000 S 
BRANCH  23  24
ATOM     24  C   UNL     1      33.536  29.446  50.584  0.00  0.00    +0.000 C 
ATOM     25  H   UNL     1      34.113  29.810  51.455  0.00  0.00    +0.000 HD
ATOM     26  H   UNL     1      32.635  28.866  50.890  0.00  0.00    +0.000 HD
BRANCH  24  27
ATOM     27  N   UNL     1      33.080  30.562  49.778  0.00  0.00    +0.000 N 
ATOM     28  C   UNL     1      33.074  31.863  50.172  0.00  0.00    +0.000 A 
ATOM     29  C   UNL     1      32.613  32.830  49.305  0.00  0.00    +0.000 A 
ATOM     30  H   UNL     1      32.614  33.879  49.640  0.00  0.00    +0.000 HD
ATOM     31  C   UNL     1      32.148  32.558  48.038  0.00  0.00    +0.000 A 
ATOM     32  O   UNL     1      31.726  33.427  47.239  0.00  0.00    +0.000 OA
ATOM     33  N   UNL     1      32.163  31.267  47.670  0.00  0.00    +0.000 N 
ATOM     34  C   UNL     1      32.616  30.313  48.520  0.00  0.00    +0.000 A 
ATOM     35  O   UNL     1      32.612  29.107  48.128  0.00  0.00    +0.000 OA
ATOM     36  H   UNL     1      31.828  30.940  46.716  0.00  0.00    +0.000 HD
ENDBRANCH  24  27
ENDBRANCH  23  24
ENDBRANCH   5  23
TORSDOF 6
