
 OpenBabel03262522243D

 36 38  0  0  0  0  0  0  0  0999 V2000
   37.8910   30.8530   49.8360 C   0  0  0  0  0  0  0  0  0  0  0  0
   37.8640   31.3930   48.5470 C   0  0  0  0  0  0  0  0  0  0  0  0
   36.7780   31.0800   47.7290 C   0  0  0  0  0  0  0  0  0  0  0  0
   35.8260   30.2720   48.2480 N   0  0  0  0  0  0  0  0  0  0  0  0
   35.8880   29.7860   49.4620 C   0  0  0  0  0  0  0  0  0  0  0  0
   36.9310   30.0580   50.3130 N   0  0  0  0  0  0  0  0  0  0  0  0
   38.6830   31.0210   50.5690 H   0  0  0  0  0  0  0  0  0  0  0  0
   36.7680   31.5060   46.7310 H   0  0  0  0  0  0  0  0  0  0  0  0
   38.9130   32.1880   48.2000 O   0  0  0  0  0  0  0  0  0  0  0  0
   39.4380   32.0680   46.9110 C   0  0  0  0  0  0  0  0  0  0  0  0
   39.7250   30.8990   46.2160 C   0  0  0  0  0  0  0  0  0  0  0  0
   40.2330   30.9860   44.9640 C   0  0  0  0  0  0  0  0  0  0  0  0
   40.4520   32.2180   44.4240 C   0  0  0  0  0  0  0  0  0  0  0  0
   40.1640   33.3760   45.1220 C   0  0  0  0  0  0  0  0  0  0  0  0
   39.6620   33.2390   46.3580 N   0  0  0  0  0  0  0  0  0  0  0  0
   39.4950   29.9940   46.7830 H   0  0  0  0  0  0  0  0  0  0  0  0
   40.4380   30.0400   44.4680 H   0  0  0  0  0  0  0  0  0  0  0  0
   40.8590   32.2920   43.4220 H   0  0  0  0  0  0  0  0  0  0  0  0
   40.4210   34.7220   44.4850 C   0  0  0  0  0  0  0  0  0  0  0  0
   40.6540   35.4600   45.2710 H   0  0  0  0  0  0  0  0  0  0  0  0
   41.3400   34.5720   43.8590 H   0  0  0  0  0  0  0  0  0  0  0  0
   39.5870   35.0160   43.8320 H   0  0  0  0  0  0  0  0  0  0  0  0
   34.4530   28.7480   49.8270 S   0  0  0  0  0  0  0  0  0  0  0  0
   33.2640   29.0980   48.4860 C   0  0  0  0  0  0  0  0  0  0  0  0
   33.6310   29.9140   47.8340 H   0  0  0  0  0  0  0  0  0  0  0  0
   32.2700   29.3320   48.9320 H   0  0  0  0  0  0  0  0  0  0  0  0
   33.1210   27.8710   47.7260 N   0  0  0  0  0  0  0  0  0  0  0  0
   33.9330   27.4780   46.7090 C   0  0  0  0  0  3  0  0  0  0  0  0
   33.6850   26.2840   46.0680 C   0  0  0  0  0  0  0  0  0  0  0  0
   34.3520   25.9810   45.2450 H   0  0  0  0  0  0  0  0  0  0  0  0
   32.6460   25.4440   46.3980 C   0  0  0  0  0  0  0  0  0  0  0  0
   32.4080   24.3550   45.8240 O   0  0  0  0  0  0  0  0  0  0  0  0
   31.8570   25.8510   47.4050 N   0  0  0  0  0  0  0  0  0  0  0  0
   32.0980   27.0250   48.0390 C   0  0  0  0  0  0  0  0  0  0  0  0
   31.3250   27.3670   48.9840 O   0  0  0  0  0  0  0  0  0  0  0  0
   31.0250   25.2840   47.7460 H   0  0  0  0  0  0  0  0  0  0  0  0
  1  6  1  0  0  0  0
  1  7  1  0  0  0  0
  2  1  2  0  0  0  0
  3  4  2  0  0  0  0
  3  2  1  0  0  0  0
  4  5  1  0  0  0  0
  5 23  1  0  0  0  0
  5  6  2  0  0  0  0
  8  3  1  0  0  0  0
  9  2  1  0  0  0  0
 10  9  1  0  0  0  0
 11 16  1  0  0  0  0
 11 10  2  0  0  0  0
 12 11  1  0  0  0  0
 13 12  2  0  0  0  0
 13 14  1  0  0  0  0
 14 15  2  0  0  0  0
 15 10  1  0  0  0  0
 17 12  1  0  0  0  0
 18 13  1  0  0  0  0
 19 14  1  0  0  0  0
 19 20  1  0  0  0  0
 21 19  1  0  0  0  0
 22 19  1  0  0  0  0
 24 26  1  0  0  0  0
 24 23  1  0  0  0  0
 25 24  1  0  0  0  0
 27 34  1  0  0  0  0
 27 24  1  0  0  0  0
 28 27  1  0  0  0  0
 29 31  1  0  0  0  0
 29 28  2  0  0  0  0
 30 29  1  0  0  0  0
 31 33  1  0  0  0  0
 32 31  2  0  0  0  0
 33 36  1  0  0  0  0
 33 34  1  0  0  0  0
 34 35  2  0  0  0  0
M  END
>  <minimizedAffinity>
-4.30857134

>  <minimizedRMSD>
3.45788956

$$$$
