
 OpenBabel03272506403D

 38 40  0  0  1  0  0  0  0  0999 V2000
   37.2860   24.9730   33.2200 O   0  0  0  0  0  0  0  0  0  0  0  0
   37.5870   25.7480   34.1440 C   0  0  0  0  0  0  0  0  0  0  0  0
   37.7070   27.1720   33.9300 C   0  0  2  0  0  0  0  0  0  0  0  0
   37.8650   27.6770   35.4040 C   0  0  0  0  0  0  0  0  0  0  0  0
   38.4870   26.5020   36.0940 C   0  0  0  0  0  0  0  0  0  0  0  0
   37.8480   25.3380   35.5050 N   0  0  0  0  0  0  0  0  0  0  0  0
   38.6130   27.4910   33.3870 H   0  0  0  0  0  0  0  0  0  0  0  0
   38.5630   28.5340   35.3550 H   0  0  0  0  0  0  0  0  0  0  0  0
   36.8920   27.9680   35.8180 H   0  0  0  0  0  0  0  0  0  0  0  0
   38.1490   26.5130   37.1570 H   0  0  0  0  0  0  0  0  0  0  0  0
   39.5720   26.4850   36.0800 H   0  0  0  0  0  0  0  0  0  0  0  0
   37.5560   24.0910   36.1580 C   0  0  0  0  0  0  0  0  0  0  0  0
   36.8390   24.2360   36.9800 H   0  0  0  0  0  0  0  0  0  0  0  0
   37.0160   23.4280   35.4240 H   0  0  0  0  0  0  0  0  0  0  0  0
   38.6880   23.3560   36.6040 N   0  0  0  0  0  0  0  0  0  0  0  0
   39.4470   22.8240   35.6100 C   0  0  0  0  0  3  0  0  0  0  0  0
   40.5820   22.0790   35.8840 C   0  0  0  0  0  0  0  0  0  0  0  0
   41.1760   21.6630   35.0780 H   0  0  0  0  0  0  0  0  0  0  0  0
   40.9770   21.8560   37.1990 C   0  0  0  0  0  0  0  0  0  0  0  0
   41.9990   21.1850   37.4620 O   0  0  0  0  0  0  0  0  0  0  0  0
   40.1880   22.4050   38.1520 N   0  0  0  0  0  0  0  0  0  0  0  0
   39.0960   23.1200   37.8410 C   0  0  0  0  0  0  0  0  0  0  0  0
   38.3960   23.6110   38.7570 O   0  0  0  0  0  0  0  0  0  0  0  0
   40.4500   22.2610   39.1550 H   0  0  0  0  0  0  0  0  0  0  0  0
   36.5130   27.7910   33.4520 O   0  0  0  0  0  0  0  0  0  0  0  0
   36.5870   28.4800   32.2420 C   0  0  0  0  0  0  0  0  0  0  0  0
   36.0710   29.7640   32.2250 C   0  0  0  0  0  0  0  0  0  0  0  0
   36.1300   30.4750   31.0360 C   0  0  0  0  0  0  0  0  0  0  0  0
   36.6900   29.8850   29.9440 N   0  0  0  0  0  0  0  0  0  0  0  0
   37.1850   28.6390   29.9780 C   0  0  0  0  0  0  0  0  0  0  0  0
   37.1260   27.9660   31.1160 N   0  0  0  0  0  0  0  0  0  0  0  0
   39.1240   27.6830   29.0040 C   0  0  0  0  0  0  0  0  0  0  0  0
   39.8370   27.8180   30.0440 O   0  0  0  0  0  0  0  0  0  0  0  0
   37.7610   28.0530   28.8160 N   0  0  0  0  0  0  0  0  0  0  0  0
   35.6260   30.2490   33.0690 H   0  0  0  0  0  0  0  0  0  0  0  0
   35.7370   31.4770   30.9890 H   0  0  0  0  0  0  0  0  0  0  0  0
   39.6800   27.2220   28.1880 H   0  0  0  0  0  0  0  0  0  0  0  0
   37.2450   27.9090   27.9270 H   0  0  0  0  0  0  0  0  0  0  0  0
  1  2  2  0  0  0  0
  2  6  1  0  0  0  0
  3  7  1  6  0  0  0
  3  2  1  0  0  0  0
  3  4  1  0  0  0  0
  4  9  1  0  0  0  0
  4  5  1  0  0  0  0
  5 10  1  0  0  0  0
  6  5  1  0  0  0  0
  6 12  1  0  0  0  0
  8  4  1  0  0  0  0
 11  5  1  0  0  0  0
 12 15  1  0  0  0  0
 12 13  1  0  0  0  0
 14 12  1  0  0  0  0
 15 22  1  0  0  0  0
 16 17  2  0  0  0  0
 16 15  1  0  0  0  0
 17 19  1  0  0  0  0
 18 17  1  0  0  0  0
 19 20  2  0  0  0  0
 19 21  1  0  0  0  0
 21 24  1  0  0  0  0
 22 21  1  0  0  0  0
 22 23  2  0  0  0  0
 25  3  1  0  0  0  0
 26 25  1  0  0  0  0
 27 26  1  0  0  0  0
 27 35  1  0  0  0  0
 28 27  2  0  0  0  0
 29 30  2  0  0  0  0
 29 28  1  0  0  0  0
 30 31  1  0  0  0  0
 31 26  2  0  0  0  0
 32 33  2  0  0  0  0
 34 32  1  0  0  0  0
 34 30  1  0  0  0  0
 36 28  1  0  0  0  0
 37 32  1  0  0  0  0
 38 34  1  0  0  0  0
M  END
>  <minimizedAffinity>
-6.22848368

$$$$

 OpenBabel03272506403D

 38 40  0  0  1  0  0  0  0  0999 V2000
   37.3750   24.9020   33.3200 O   0  0  0  0  0  0  0  0  0  0  0  0
   37.6330   25.7290   34.2120 C   0  0  0  0  0  0  0  0  0  0  0  0
   37.7340   27.1420   33.9280 C   0  0  2  0  0  0  0  0  0  0  0  0
   37.8360   27.7260   35.3770 C   0  0  0  0  0  0  0  0  0  0  0  0
   38.4550   26.6000   36.1460 C   0  0  0  0  0  0  0  0  0  0  0  0
   37.8550   25.3950   35.6000 N   0  0  0  0  0  0  0  0  0  0  0  0
   38.6520   27.4500   33.3970 H   0  0  0  0  0  0  0  0  0  0  0  0
   38.5190   28.5920   35.3050 H   0  0  0  0  0  0  0  0  0  0  0  0
   36.8440   28.0190   35.7440 H   0  0  0  0  0  0  0  0  0  0  0  0
   38.0830   26.6590   37.1970 H   0  0  0  0  0  0  0  0  0  0  0  0
   39.5400   26.6030   36.1680 H   0  0  0  0  0  0  0  0  0  0  0  0
   37.5650   24.1780   36.3080 C   0  0  0  0  0  0  0  0  0  0  0  0
   36.9160   24.3730   37.1760 H   0  0  0  0  0  0  0  0  0  0  0  0
   36.9470   23.5190   35.6340 H   0  0  0  0  0  0  0  0  0  0  0  0
   38.6970   23.4090   36.6910 N   0  0  0  0  0  0  0  0  0  0  0  0
   39.4180   22.9050   35.6550 C   0  0  0  0  0  3  0  0  0  0  0  0
   40.5480   22.1330   35.8650 C   0  0  0  0  0  0  0  0  0  0  0  0
   41.1110   21.7390   35.0260 H   0  0  0  0  0  0  0  0  0  0  0  0
   40.9770   21.8520   37.1590 C   0  0  0  0  0  0  0  0  0  0  0  0
   41.9960   21.1560   37.3640 O   0  0  0  0  0  0  0  0  0  0  0  0
   40.2260   22.3750   38.1550 N   0  0  0  0  0  0  0  0  0  0  0  0
   39.1370   23.1190   37.9050 C   0  0  0  0  0  0  0  0  0  0  0  0
   38.4730   23.5840   38.8590 O   0  0  0  0  0  0  0  0  0  0  0  0
   40.5150   22.1880   39.1430 H   0  0  0  0  0  0  0  0  0  0  0  0
   36.5460   27.7120   33.3800 O   0  0  0  0  0  0  0  0  0  0  0  0
   36.6610   28.4010   32.1730 C   0  0  0  0  0  0  0  0  0  0  0  0
   37.2100   27.7070   31.1100 C   0  0  0  0  0  0  0  0  0  0  0  0
   37.3370   28.3650   29.8960 C   0  0  0  0  0  0  0  0  0  0  0  0
   36.9190   29.6580   29.8030 N   0  0  0  0  0  0  0  0  0  0  0  0
   36.3880   30.3170   30.8430 C   0  0  0  0  0  0  0  0  0  0  0  0
   36.2700   29.6820   31.9990 N   0  0  0  0  0  0  0  0  0  0  0  0
   34.5780   31.8400   30.9920 C   0  0  0  0  0  0  0  0  0  0  0  0
   33.7310   30.9590   31.3310 O   0  0  0  0  0  0  0  0  0  0  0  0
   35.9640   31.6690   30.7100 N   0  0  0  0  0  0  0  0  0  0  0  0
   37.5460   26.6910   31.1580 H   0  0  0  0  0  0  0  0  0  0  0  0
   37.7610   27.8530   29.0480 H   0  0  0  0  0  0  0  0  0  0  0  0
   34.1290   32.8320   30.9270 H   0  0  0  0  0  0  0  0  0  0  0  0
   36.5950   32.4460   30.4370 H   0  0  0  0  0  0  0  0  0  0  0  0
  1  2  2  0  0  0  0
  2  6  1  0  0  0  0
  3  7  1  6  0  0  0
  3  2  1  0  0  0  0
  3  4  1  0  0  0  0
  4  9  1  0  0  0  0
  4  5  1  0  0  0  0
  5 11  1  0  0  0  0
  5 10  1  0  0  0  0
  6  5  1  0  0  0  0
  6 12  1  0  0  0  0
  8  4  1  0  0  0  0
 12 15  1  0  0  0  0
 12 13  1  0  0  0  0
 14 12  1  0  0  0  0
 15 22  1  0  0  0  0
 16 17  2  0  0  0  0
 16 15  1  0  0  0  0
 17 19  1  0  0  0  0
 18 17  1  0  0  0  0
 19 20  2  0  0  0  0
 19 21  1  0  0  0  0
 21 24  1  0  0  0  0
 22 21  1  0  0  0  0
 22 23  2  0  0  0  0
 25  3  1  0  0  0  0
 26 25  1  0  0  0  0
 27 35  1  0  0  0  0
 27 26  2  0  0  0  0
 28 27  1  0  0  0  0
 29 28  2  0  0  0  0
 29 30  1  0  0  0  0
 30 31  2  0  0  0  0
 31 26  1  0  0  0  0
 32 33  2  0  0  0  0
 34 30  1  0  0  0  0
 34 32  1  0  0  0  0
 36 28  1  0  0  0  0
 37 32  1  0  0  0  0
 38 34  1  0  0  0  0
M  END
>  <minimizedAffinity>
-6.01521349

$$$$

 OpenBabel03272506403D

 38 40  0  0  1  0  0  0  0  0999 V2000
   39.3690   25.3620   32.8280 O   0  0  0  0  0  0  0  0  0  0  0  0
   38.9980   25.9970   33.8300 C   0  0  0  0  0  0  0  0  0  0  0  0
   38.3000   27.2580   33.7130 C   0  0  2  0  0  0  0  0  0  0  0  0
   37.8780   27.4990   35.2010 C   0  0  0  0  0  0  0  0  0  0  0  0
   38.9370   26.7700   35.9700 C   0  0  0  0  0  0  0  0  0  0  0  0
   39.2080   25.5720   35.1950 N   0  0  0  0  0  0  0  0  0  0  0  0
   38.9280   28.1160   33.4180 H   0  0  0  0  0  0  0  0  0  0  0  0
   37.9410   28.5920   35.3580 H   0  0  0  0  0  0  0  0  0  0  0  0
   36.8640   27.1210   35.3800 H   0  0  0  0  0  0  0  0  0  0  0  0
   38.4790   26.4060   36.9190 H   0  0  0  0  0  0  0  0  0  0  0  0
   39.8110   27.3640   36.2180 H   0  0  0  0  0  0  0  0  0  0  0  0
   39.5900   24.2830   35.7050 C   0  0  0  0  0  0  0  0  0  0  0  0
   40.3910   23.8390   35.0940 H   0  0  0  0  0  0  0  0  0  0  0  0
   40.0570   24.4320   36.7200 H   0  0  0  0  0  0  0  0  0  0  0  0
   38.5260   23.3580   35.8860 N   0  0  0  0  0  0  0  0  0  0  0  0
   38.2420   22.5990   34.7940 C   0  0  0  0  0  3  0  0  0  0  0  0
   37.2310   21.6530   34.8120 C   0  0  0  0  0  0  0  0  0  0  0  0
   37.0190   21.0570   33.9320 H   0  0  0  0  0  0  0  0  0  0  0  0
   36.4720   21.4560   35.9610 C   0  0  0  0  0  0  0  0  0  0  0  0
   35.5560   20.6060   35.9920 O   0  0  0  0  0  0  0  0  0  0  0  0
   36.7920   22.2360   37.0200 N   0  0  0  0  0  0  0  0  0  0  0  0
   37.7820   23.1420   36.9580 C   0  0  0  0  0  0  0  0  0  0  0  0
   38.0440   23.8410   37.9630 O   0  0  0  0  0  0  0  0  0  0  0  0
   36.2460   22.1190   37.9040 H   0  0  0  0  0  0  0  0  0  0  0  0
   37.0740   27.1780   32.9870 O   0  0  0  0  0  0  0  0  0  0  0  0
   36.8930   28.0710   31.9310 C   0  0  0  0  0  0  0  0  0  0  0  0
   36.2350   29.2530   32.2210 C   0  0  0  0  0  0  0  0  0  0  0  0
   36.0400   30.1610   31.1920 C   0  0  0  0  0  0  0  0  0  0  0  0
   36.5020   29.8540   29.9480 N   0  0  0  0  0  0  0  0  0  0  0  0
   37.1380   28.7040   29.6840 C   0  0  0  0  0  0  0  0  0  0  0  0
   37.3210   27.8420   30.6710 N   0  0  0  0  0  0  0  0  0  0  0  0
   39.0140   28.2140   28.3200 C   0  0  0  0  0  0  0  0  0  0  0  0
   39.8490   28.2640   29.2740 O   0  0  0  0  0  0  0  0  0  0  0  0
   37.6050   28.4150   28.3700 N   0  0  0  0  0  0  0  0  0  0  0  0
   35.8630   29.5170   33.1900 H   0  0  0  0  0  0  0  0  0  0  0  0
   35.5310   31.0910   31.3850 H   0  0  0  0  0  0  0  0  0  0  0  0
   39.4970   27.9840   27.3700 H   0  0  0  0  0  0  0  0  0  0  0  0
   36.9860   28.3570   27.5390 H   0  0  0  0  0  0  0  0  0  0  0  0
  1  2  2  0  0  0  0
  2  6  1  0  0  0  0
  3  7  1  6  0  0  0
  3  2  1  0  0  0  0
  3  4  1  0  0  0  0
  4  8  1  0  0  0  0
  4  9  1  0  0  0  0
  4  5  1  0  0  0  0
  5 11  1  0  0  0  0
  5 10  1  0  0  0  0
  6 12  1  0  0  0  0
  6  5  1  0  0  0  0
 12 15  1  0  0  0  0
 12 14  1  0  0  0  0
 13 12  1  0  0  0  0
 15 22  1  0  0  0  0
 16 17  2  0  0  0  0
 16 15  1  0  0  0  0
 17 19  1  0  0  0  0
 18 17  1  0  0  0  0
 19 20  2  0  0  0  0
 19 21  1  0  0  0  0
 21 24  1  0  0  0  0
 22 21  1  0  0  0  0
 22 23  2  0  0  0  0
 25  3  1  0  0  0  0
 26 27  1  0  0  0  0
 26 25  1  0  0  0  0
 27 35  1  0  0  0  0
 28 36  1  0  0  0  0
 28 27  2  0  0  0  0
 29 28  1  0  0  0  0
 30 29  2  0  0  0  0
 30 31  1  0  0  0  0
 31 26  2  0  0  0  0
 32 34  1  0  0  0  0
 32 33  2  0  0  0  0
 34 30  1  0  0  0  0
 37 32  1  0  0  0  0
 38 34  1  0  0  0  0
M  END
>  <minimizedAffinity>
-5.67810774

$$$$

 OpenBabel03272506403D

 38 40  0  0  1  0  0  0  0  0999 V2000
   36.9480   27.6500   34.4930 O   0  0  0  0  0  0  0  0  0  0  0  0
   38.1160   27.2310   34.4260 C   0  0  0  0  0  0  0  0  0  0  0  0
   38.8870   26.9410   35.6140 C   0  0  2  0  0  0  0  0  0  0  0  0
   40.1460   26.2530   34.9860 C   0  0  0  0  0  0  0  0  0  0  0  0
   40.2130   26.8640   33.6200 C   0  0  0  0  0  0  0  0  0  0  0  0
   38.8300   26.9870   33.1930 N   0  0  0  0  0  0  0  0  0  0  0  0
   39.2510   27.8260   36.1640 H   0  0  0  0  0  0  0  0  0  0  0  0
   41.0020   26.5640   35.6130 H   0  0  0  0  0  0  0  0  0  0  0  0
   40.0240   25.1630   34.9760 H   0  0  0  0  0  0  0  0  0  0  0  0
   40.6650   26.1120   32.9320 H   0  0  0  0  0  0  0  0  0  0  0  0
   40.7950   27.7780   33.5570 H   0  0  0  0  0  0  0  0  0  0  0  0
   38.3300   26.8800   31.8500 C   0  0  0  0  0  0  0  0  0  0  0  0
   37.8380   27.8140   31.5380 H   0  0  0  0  0  0  0  0  0  0  0  0
   39.2110   26.7770   31.1550 H   0  0  0  0  0  0  0  0  0  0  0  0
   37.4880   25.7620   31.5990 N   0  0  0  0  0  0  0  0  0  0  0  0
   38.1470   24.5890   31.4020 C   0  0  0  0  0  3  0  0  0  0  0  0
   37.4680   23.4100   31.1450 C   0  0  0  0  0  0  0  0  0  0  0  0
   38.0090   22.4840   30.9910 H   0  0  0  0  0  0  0  0  0  0  0  0
   36.0770   23.3990   31.0800 C   0  0  0  0  0  0  0  0  0  0  0  0
   35.4500   22.3430   30.8470 O   0  0  0  0  0  0  0  0  0  0  0  0
   35.4690   24.5910   31.2810 N   0  0  0  0  0  0  0  0  0  0  0  0
   36.1680   25.7100   31.5280 C   0  0  0  0  0  0  0  0  0  0  0  0
   35.5620   26.7910   31.7100 O   0  0  0  0  0  0  0  0  0  0  0  0
   34.4240   24.6260   31.2410 H   0  0  0  0  0  0  0  0  0  0  0  0
   38.3040   25.9490   36.4580 O   0  0  0  0  0  0  0  0  0  0  0  0
   38.5040   24.6130   36.1130 C   0  0  0  0  0  0  0  0  0  0  0  0
   37.7960   24.1380   35.0240 C   0  0  0  0  0  0  0  0  0  0  0  0
   37.9740   22.8130   34.6570 C   0  0  0  0  0  0  0  0  0  0  0  0
   38.8330   22.0410   35.3790 N   0  0  0  0  0  0  0  0  0  0  0  0
   39.5120   22.5170   36.4320 C   0  0  0  0  0  0  0  0  0  0  0  0
   39.3370   23.7830   36.7770 N   0  0  0  0  0  0  0  0  0  0  0  0
   41.7390   22.1660   37.1670 C   0  0  0  0  0  0  0  0  0  0  0  0
   42.1950   23.2110   36.6110 O   0  0  0  0  0  0  0  0  0  0  0  0
   40.4000   21.6800   37.1660 N   0  0  0  0  0  0  0  0  0  0  0  0
   37.1160   24.7250   34.4410 H   0  0  0  0  0  0  0  0  0  0  0  0
   37.4380   22.4120   33.8130 H   0  0  0  0  0  0  0  0  0  0  0  0
   42.5170   21.6150   37.6950 H   0  0  0  0  0  0  0  0  0  0  0  0
   40.1040   20.8090   37.6480 H   0  0  0  0  0  0  0  0  0  0  0  0
  2  1  2  0  0  0  0
  2  3  1  0  0  0  0
  3  7  1  1  0  0  0
  3 25  1  0  0  0  0
  4  8  1  0  0  0  0
  4  3  1  0  0  0  0
  5  4  1  0  0  0  0
  6  5  1  0  0  0  0
  6  2  1  0  0  0  0
  9  4  1  0  0  0  0
 10  5  1  0  0  0  0
 11  5  1  0  0  0  0
 12  6  1  0  0  0  0
 13 12  1  0  0  0  0
 14 12  1  0  0  0  0
 15 12  1  0  0  0  0
 16 15  1  0  0  0  0
 17 16  2  0  0  0  0
 18 17  1  0  0  0  0
 19 17  1  0  0  0  0
 19 21  1  0  0  0  0
 20 19  2  0  0  0  0
 21 22  1  0  0  0  0
 22 15  1  0  0  0  0
 22 23  2  0  0  0  0
 24 21  1  0  0  0  0
 26 25  1  0  0  0  0
 26 31  1  0  0  0  0
 27 26  2  0  0  0  0
 28 27  1  0  0  0  0
 28 29  2  0  0  0  0
 29 30  1  0  0  0  0
 30 31  2  0  0  0  0
 30 34  1  0  0  0  0
 32 37  1  0  0  0  0
 33 32  2  0  0  0  0
 34 32  1  0  0  0  0
 34 38  1  0  0  0  0
 35 27  1  0  0  0  0
 36 28  1  0  0  0  0
M  END
>  <minimizedAffinity>
-5.66168356

$$$$

 OpenBabel03272506403D

 38 40  0  0  1  0  0  0  0  0999 V2000
   37.3130   27.8770   35.2670 O   0  0  0  0  0  0  0  0  0  0  0  0
   37.0100   27.6630   34.0810 C   0  0  0  0  0  0  0  0  0  0  0  0
   37.6170   26.5900   33.3250 C   0  0  2  0  0  0  0  0  0  0  0  0
   36.7450   26.6170   32.0250 C   0  0  0  0  0  0  0  0  0  0  0  0
   36.3000   28.0450   31.9530 C   0  0  0  0  0  0  0  0  0  0  0  0
   36.0440   28.4310   33.3300 N   0  0  0  0  0  0  0  0  0  0  0  0
   38.6600   26.7680   33.0120 H   0  0  0  0  0  0  0  0  0  0  0  0
   37.4320   26.3630   31.1970 H   0  0  0  0  0  0  0  0  0  0  0  0
   35.9180   25.9000   32.1020 H   0  0  0  0  0  0  0  0  0  0  0  0
   35.3020   28.0670   31.4540 H   0  0  0  0  0  0  0  0  0  0  0  0
   36.9680   28.7050   31.4080 H   0  0  0  0  0  0  0  0  0  0  0  0
   35.0510   29.3600   33.7950 C   0  0  0  0  0  0  0  0  0  0  0  0
   34.2020   29.4120   33.0950 H   0  0  0  0  0  0  0  0  0  0  0  0
   34.6080   28.9520   34.7480 H   0  0  0  0  0  0  0  0  0  0  0  0
   35.5290   30.6630   34.1010 N   0  0  0  0  0  0  0  0  0  0  0  0
   35.7570   30.8880   35.4220 C   0  0  0  0  0  3  0  0  0  0  0  0
   36.2220   32.1100   35.8800 C   0  0  0  0  0  0  0  0  0  0  0  0
   36.3990   32.2710   36.9370 H   0  0  0  0  0  0  0  0  0  0  0  0
   36.4700   33.1480   34.9870 C   0  0  0  0  0  0  0  0  0  0  0  0
   36.8900   34.2560   35.3850 O   0  0  0  0  0  0  0  0  0  0  0  0
   36.2260   32.8750   33.6840 N   0  0  0  0  0  0  0  0  0  0  0  0
   35.7750   31.6750   33.2840 C   0  0  0  0  0  0  0  0  0  0  0  0
   35.5650   31.4670   32.0670 O   0  0  0  0  0  0  0  0  0  0  0  0
   36.4010   33.6290   32.9790 H   0  0  0  0  0  0  0  0  0  0  0  0
   37.4080   25.2940   33.8860 O   0  0  0  0  0  0  0  0  0  0  0  0
   38.4630   24.7240   34.5980 C   0  0  0  0  0  0  0  0  0  0  0  0
   39.7380   24.9550   34.1130 C   0  0  0  0  0  0  0  0  0  0  0  0
   40.8080   24.4010   34.7990 C   0  0  0  0  0  0  0  0  0  0  0  0
   40.5600   23.6590   35.9140 N   0  0  0  0  0  0  0  0  0  0  0  0
   39.3180   23.4450   36.3720 C   0  0  0  0  0  0  0  0  0  0  0  0
   38.3010   23.9770   35.7110 N   0  0  0  0  0  0  0  0  0  0  0  0
   38.4310   23.3880   38.5690 C   0  0  0  0  0  0  0  0  0  0  0  0
   38.0390   24.5940   38.5520 O   0  0  0  0  0  0  0  0  0  0  0  0
   39.0960   22.6620   37.5390 N   0  0  0  0  0  0  0  0  0  0  0  0
   39.9580   25.5340   33.2390 H   0  0  0  0  0  0  0  0  0  0  0  0
   41.8130   24.5620   34.4480 H   0  0  0  0  0  0  0  0  0  0  0  0
   38.2010   22.9000   39.5170 H   0  0  0  0  0  0  0  0  0  0  0  0
   39.3870   21.6700   37.6310 H   0  0  0  0  0  0  0  0  0  0  0  0
  2  1  2  0  0  0  0
  3  7  1  6  0  0  0
  3 25  1  0  0  0  0
  3  2  1  0  0  0  0
  4  9  1  0  0  0  0
  4  3  1  0  0  0  0
  5  4  1  0  0  0  0
  5  6  1  0  0  0  0
  6 12  1  0  0  0  0
  6  2  1  0  0  0  0
  8  4  1  0  0  0  0
 10  5  1  0  0  0  0
 11  5  1  0  0  0  0
 12 15  1  0  0  0  0
 12 14  1  0  0  0  0
 13 12  1  0  0  0  0
 15 16  1  0  0  0  0
 16 17  2  0  0  0  0
 17 18  1  0  0  0  0
 19 20  2  0  0  0  0
 19 17  1  0  0  0  0
 21 19  1  0  0  0  0
 22 21  1  0  0  0  0
 22 15  1  0  0  0  0
 23 22  2  0  0  0  0
 24 21  1  0  0  0  0
 25 26  1  0  0  0  0
 26 31  1  0  0  0  0
 27 26  2  0  0  0  0
 27 28  1  0  0  0  0
 28 29  2  0  0  0  0
 29 30  1  0  0  0  0
 30 34  1  0  0  0  0
 31 30  2  0  0  0  0
 32 37  1  0  0  0  0
 33 32  2  0  0  0  0
 34 38  1  0  0  0  0
 34 32  1  0  0  0  0
 35 27  1  0  0  0  0
 36 28  1  0  0  0  0
M  END
>  <minimizedAffinity>
-5.63503265

$$$$

 OpenBabel03272506403D

 38 40  0  0  1  0  0  0  0  0999 V2000
   36.0550   28.1770   34.4220 O   0  0  0  0  0  0  0  0  0  0  0  0
   35.9550   28.9860   33.4830 C   0  0  0  0  0  0  0  0  0  0  0  0
   35.2820   30.2550   33.6450 C   0  0  2  0  0  0  0  0  0  0  0  0
   35.6350   30.9490   32.2870 C   0  0  0  0  0  0  0  0  0  0  0  0
   35.8200   29.7880   31.3580 C   0  0  0  0  0  0  0  0  0  0  0  0
   36.4810   28.7690   32.1550 N   0  0  0  0  0  0  0  0  0  0  0  0
   34.1810   30.1990   33.6960 H   0  0  0  0  0  0  0  0  0  0  0  0
   34.7460   31.5480   32.0150 H   0  0  0  0  0  0  0  0  0  0  0  0
   36.5300   31.5740   32.3950 H   0  0  0  0  0  0  0  0  0  0  0  0
   36.5690   30.0850   30.5860 H   0  0  0  0  0  0  0  0  0  0  0  0
   34.9190   29.4600   30.8500 H   0  0  0  0  0  0  0  0  0  0  0  0
   37.4310   27.7950   31.6940 C   0  0  0  0  0  0  0  0  0  0  0  0
   37.8000   28.0500   30.6880 H   0  0  0  0  0  0  0  0  0  0  0  0
   38.3440   27.8550   32.3530 H   0  0  0  0  0  0  0  0  0  0  0  0
   36.9930   26.4440   31.7390 N   0  0  0  0  0  0  0  0  0  0  0  0
   35.8660   26.1880   31.0230 C   0  0  0  0  0  3  0  0  0  0  0  0
   35.3130   24.9200   30.9690 C   0  0  0  0  0  0  0  0  0  0  0  0
   34.4150   24.7340   30.3920 H   0  0  0  0  0  0  0  0  0  0  0  0
   35.9040   23.8640   31.6570 C   0  0  0  0  0  0  0  0  0  0  0  0
   35.4160   22.7140   31.6190 O   0  0  0  0  0  0  0  0  0  0  0  0
   37.0220   24.1700   32.3570 N   0  0  0  0  0  0  0  0  0  0  0  0
   37.5240   25.4150   32.3800 C   0  0  0  0  0  0  0  0  0  0  0  0
   38.5620   25.6510   33.0400 O   0  0  0  0  0  0  0  0  0  0  0  0
   37.4980   23.4040   32.8880 H   0  0  0  0  0  0  0  0  0  0  0  0
   35.8530   31.0920   34.6490 O   0  0  0  0  0  0  0  0  0  0  0  0
   35.0000   31.5870   35.6350 C   0  0  0  0  0  0  0  0  0  0  0  0
   35.3430   32.8010   36.2040 C   0  0  0  0  0  0  0  0  0  0  0  0
   34.5140   33.3180   37.1880 C   0  0  0  0  0  0  0  0  0  0  0  0
   33.4050   32.6150   37.5490 N   0  0  0  0  0  0  0  0  0  0  0  0
   33.0870   31.4400   36.9880 C   0  0  0  0  0  0  0  0  0  0  0  0
   33.8820   30.9520   36.0490 N   0  0  0  0  0  0  0  0  0  0  0  0
   31.0060   30.5200   36.3200 C   0  0  0  0  0  0  0  0  0  0  0  0
   31.1200   30.8800   35.1090 O   0  0  0  0  0  0  0  0  0  0  0  0
   31.9200   30.7320   37.3920 N   0  0  0  0  0  0  0  0  0  0  0  0
   36.2090   33.3710   35.9370 H   0  0  0  0  0  0  0  0  0  0  0  0
   34.7530   34.2610   37.6510 H   0  0  0  0  0  0  0  0  0  0  0  0
   30.0720   29.9870   36.4990 H   0  0  0  0  0  0  0  0  0  0  0  0
   31.7530   30.4040   38.3630 H   0  0  0  0  0  0  0  0  0  0  0  0
  2  3  1  0  0  0  0
  2  1  2  0  0  0  0
  3  7  1  1  0  0  0
  3 25  1  0  0  0  0
  4  9  1  0  0  0  0
  4  3  1  0  0  0  0
  5  6  1  0  0  0  0
  5  4  1  0  0  0  0
  6  2  1  0  0  0  0
  8  4  1  0  0  0  0
 10  5  1  0  0  0  0
 11  5  1  0  0  0  0
 12 15  1  0  0  0  0
 12  6  1  0  0  0  0
 12 14  1  0  0  0  0
 13 12  1  0  0  0  0
 15 22  1  0  0  0  0
 16 15  1  0  0  0  0
 17 16  2  0  0  0  0
 17 19  1  0  0  0  0
 18 17  1  0  0  0  0
 19 21  1  0  0  0  0
 20 19  2  0  0  0  0
 21 22  1  0  0  0  0
 21 24  1  0  0  0  0
 22 23  2  0  0  0  0
 25 26  1  0  0  0  0
 26 31  2  0  0  0  0
 26 27  1  0  0  0  0
 27 28  2  0  0  0  0
 28 29  1  0  0  0  0
 28 36  1  0  0  0  0
 30 34  1  0  0  0  0
 30 29  2  0  0  0  0
 31 30  1  0  0  0  0
 32 37  1  0  0  0  0
 32 34  1  0  0  0  0
 33 32  2  0  0  0  0
 34 38  1  0  0  0  0
 35 27  1  0  0  0  0
M  END
>  <minimizedAffinity>
-5.5635066

$$$$

 OpenBabel03272506403D

 38 40  0  0  1  0  0  0  0  0999 V2000
   35.8910   29.5480   31.1590 O   0  0  0  0  0  0  0  0  0  0  0  0
   36.2860   28.8500   32.1100 C   0  0  0  0  0  0  0  0  0  0  0  0
   36.0320   29.2260   33.4820 C   0  0  2  0  0  0  0  0  0  0  0  0
   36.5160   27.9390   34.2320 C   0  0  0  0  0  0  0  0  0  0  0  0
   37.5490   27.3810   33.3030 C   0  0  0  0  0  0  0  0  0  0  0  0
   37.0240   27.6160   31.9690 N   0  0  0  0  0  0  0  0  0  0  0  0
   36.6440   30.0630   33.8610 H   0  0  0  0  0  0  0  0  0  0  0  0
   36.9680   28.2940   35.1770 H   0  0  0  0  0  0  0  0  0  0  0  0
   35.6730   27.2610   34.4150 H   0  0  0  0  0  0  0  0  0  0  0  0
   37.5530   26.2720   33.4240 H   0  0  0  0  0  0  0  0  0  0  0  0
   38.5580   27.7460   33.4690 H   0  0  0  0  0  0  0  0  0  0  0  0
   37.2130   26.7880   30.8100 C   0  0  0  0  0  0  0  0  0  0  0  0
   36.6900   27.2080   29.9370 H   0  0  0  0  0  0  0  0  0  0  0  0
   38.3040   26.8190   30.5300 H   0  0  0  0  0  0  0  0  0  0  0  0
   36.8830   25.4160   30.9790 N   0  0  0  0  0  0  0  0  0  0  0  0
   37.9500   24.5740   31.0090 C   0  0  0  0  0  3  0  0  0  0  0  0
   37.7930   23.2080   31.1660 C   0  0  0  0  0  0  0  0  0  0  0  0
   38.6550   22.5520   31.1880 H   0  0  0  0  0  0  0  0  0  0  0  0
   36.5210   22.6560   31.2970 C   0  0  0  0  0  0  0  0  0  0  0  0
   36.3630   21.4240   31.4390 O   0  0  0  0  0  0  0  0  0  0  0  0
   35.4920   23.5340   31.2600 N   0  0  0  0  0  0  0  0  0  0  0  0
   35.6910   24.8530   31.1060 C   0  0  0  0  0  0  0  0  0  0  0  0
   34.7080   25.6290   31.0790 O   0  0  0  0  0  0  0  0  0  0  0  0
   34.5190   23.1610   31.3560 H   0  0  0  0  0  0  0  0  0  0  0  0
   34.6470   29.3460   33.8060 O   0  0  0  0  0  0  0  0  0  0  0  0
   34.3090   30.1460   34.8960 C   0  0  0  0  0  0  0  0  0  0  0  0
   35.2740   31.0320   35.3420 C   0  0  0  0  0  0  0  0  0  0  0  0
   34.9670   31.8410   36.4250 C   0  0  0  0  0  0  0  0  0  0  0  0
   33.7370   31.7310   37.0000 N   0  0  0  0  0  0  0  0  0  0  0  0
   32.8130   30.8670   36.5560 C   0  0  0  0  0  0  0  0  0  0  0  0
   33.1120   30.0980   35.5210 N   0  0  0  0  0  0  0  0  0  0  0  0
   30.4650   31.0630   36.2900 C   0  0  0  0  0  0  0  0  0  0  0  0
   30.5270   31.3730   35.0620 O   0  0  0  0  0  0  0  0  0  0  0  0
   31.5380   30.7780   37.1830 N   0  0  0  0  0  0  0  0  0  0  0  0
   36.2460   31.1360   34.9070 H   0  0  0  0  0  0  0  0  0  0  0  0
   35.6960   32.5410   36.7970 H   0  0  0  0  0  0  0  0  0  0  0  0
   29.4360   31.0280   36.6490 H   0  0  0  0  0  0  0  0  0  0  0  0
   31.4040   30.5310   38.1820 H   0  0  0  0  0  0  0  0  0  0  0  0
  1  2  2  0  0  0  0
  2  3  1  0  0  0  0
  3 25  1  0  0  0  0
  3  7  1  1  0  0  0
  3  4  1  0  0  0  0
  4  9  1  0  0  0  0
  4  8  1  0  0  0  0
  5 10  1  0  0  0  0
  5 11  1  0  0  0  0
  5  4  1  0  0  0  0
  6  2  1  0  0  0  0
  6  5  1  0  0  0  0
 12 15  1  0  0  0  0
 12  6  1  0  0  0  0
 13 12  1  0  0  0  0
 14 12  1  0  0  0  0
 15 16  1  0  0  0  0
 15 22  1  0  0  0  0
 16 17  2  0  0  0  0
 17 18  1  0  0  0  0
 17 19  1  0  0  0  0
 19 20  2  0  0  0  0
 21 19  1  0  0  0  0
 21 24  1  0  0  0  0
 22 21  1  0  0  0  0
 23 22  2  0  0  0  0
 25 26  1  0  0  0  0
 26 27  2  0  0  0  0
 26 31  1  0  0  0  0
 27 28  1  0  0  0  0
 28 36  1  0  0  0  0
 28 29  2  0  0  0  0
 30 29  1  0  0  0  0
 30 34  1  0  0  0  0
 31 30  2  0  0  0  0
 32 37  1  0  0  0  0
 32 34  1  0  0  0  0
 33 32  2  0  0  0  0
 34 38  1  0  0  0  0
 35 27  1  0  0  0  0
M  END
>  <minimizedAffinity>
-5.45848227

$$$$

 OpenBabel03272506403D

 38 40  0  0  1  0  0  0  0  0999 V2000
   36.9380   24.3320   32.3170 O   0  0  0  0  0  0  0  0  0  0  0  0
   37.1910   25.3570   32.9740 C   0  0  0  0  0  0  0  0  0  0  0  0
   37.9630   25.3040   34.1940 C   0  0  2  0  0  0  0  0  0  0  0  0
   38.1750   26.8300   34.4740 C   0  0  0  0  0  0  0  0  0  0  0  0
   36.9770   27.4560   33.8270 C   0  0  0  0  0  0  0  0  0  0  0  0
   36.7600   26.6880   32.6130 N   0  0  0  0  0  0  0  0  0  0  0  0
   37.4310   24.8920   35.0690 H   0  0  0  0  0  0  0  0  0  0  0  0
   38.1470   26.9410   35.5740 H   0  0  0  0  0  0  0  0  0  0  0  0
   39.1300   27.1690   34.0560 H   0  0  0  0  0  0  0  0  0  0  0  0
   37.2710   28.4740   33.4790 H   0  0  0  0  0  0  0  0  0  0  0  0
   36.1090   27.5520   34.4710 H   0  0  0  0  0  0  0  0  0  0  0  0
   36.2400   27.1770   31.3660 C   0  0  0  0  0  0  0  0  0  0  0  0
   35.9620   26.3440   30.7020 H   0  0  0  0  0  0  0  0  0  0  0  0
   35.2690   27.7100   31.5750 H   0  0  0  0  0  0  0  0  0  0  0  0
   37.0690   28.1070   30.6820 N   0  0  0  0  0  0  0  0  0  0  0  0
   38.3050   27.6400   30.3630 C   0  0  0  0  0  3  0  0  0  0  0  0
   39.2290   28.4280   29.6970 C   0  0  0  0  0  0  0  0  0  0  0  0
   40.2100   28.0380   29.4510 H   0  0  0  0  0  0  0  0  0  0  0  0
   38.9090   29.7330   29.3340 C   0  0  0  0  0  0  0  0  0  0  0  0
   39.7330   30.4560   28.7330 O   0  0  0  0  0  0  0  0  0  0  0  0
   37.6680   30.1520   29.6740 N   0  0  0  0  0  0  0  0  0  0  0  0
   36.8030   29.3530   30.3200 C   0  0  0  0  0  0  0  0  0  0  0  0
   35.6640   29.7820   30.6130 O   0  0  0  0  0  0  0  0  0  0  0  0
   37.3870   31.1270   29.4180 H   0  0  0  0  0  0  0  0  0  0  0  0
   39.2770   24.7710   34.0280 O   0  0  0  0  0  0  0  0  0  0  0  0
   39.8470   24.1150   35.1190 C   0  0  0  0  0  0  0  0  0  0  0  0
   41.2190   23.9390   35.0920 C   0  0  0  0  0  0  0  0  0  0  0  0
   41.8140   23.2890   36.1620 C   0  0  0  0  0  0  0  0  0  0  0  0
   41.0300   22.8570   37.1880 N   0  0  0  0  0  0  0  0  0  0  0  0
   39.7010   23.0350   37.1990 C   0  0  0  0  0  0  0  0  0  0  0  0
   39.1390   23.6560   36.1740 N   0  0  0  0  0  0  0  0  0  0  0  0
   38.1990   23.6140   38.9390 C   0  0  0  0  0  0  0  0  0  0  0  0
   38.1970   24.8520   38.6640 O   0  0  0  0  0  0  0  0  0  0  0  0
   38.9120   22.5670   38.2870 N   0  0  0  0  0  0  0  0  0  0  0  0
   41.8560   24.2700   34.2980 H   0  0  0  0  0  0  0  0  0  0  0  0
   42.8810   23.1360   36.1720 H   0  0  0  0  0  0  0  0  0  0  0  0
   37.5550   23.3860   39.7890 H   0  0  0  0  0  0  0  0  0  0  0  0
   38.8600   21.5710   38.5740 H   0  0  0  0  0  0  0  0  0  0  0  0
  1  2  2  0  0  0  0
  2  3  1  0  0  0  0
  3  4  1  0  0  0  0
  3  7  1  1  0  0  0
  4  8  1  0  0  0  0
  5 11  1  0  0  0  0
  5  4  1  0  0  0  0
  6  2  1  0  0  0  0
  6  5  1  0  0  0  0
  9  4  1  0  0  0  0
 10  5  1  0  0  0  0
 12 14  1  0  0  0  0
 12  6  1  0  0  0  0
 13 12  1  0  0  0  0
 15 12  1  0  0  0  0
 16 15  1  0  0  0  0
 17 16  2  0  0  0  0
 18 17  1  0  0  0  0
 19 21  1  0  0  0  0
 19 17  1  0  0  0  0
 20 19  2  0  0  0  0
 21 22  1  0  0  0  0
 22 23  2  0  0  0  0
 22 15  1  0  0  0  0
 24 21  1  0  0  0  0
 25  3  1  0  0  0  0
 25 26  1  0  0  0  0
 26 31  1  0  0  0  0
 27 26  2  0  0  0  0
 27 28  1  0  0  0  0
 28 36  1  0  0  0  0
 28 29  2  0  0  0  0
 29 30  1  0  0  0  0
 30 34  1  0  0  0  0
 31 30  2  0  0  0  0
 32 37  1  0  0  0  0
 33 32  2  0  0  0  0
 34 38  1  0  0  0  0
 34 32  1  0  0  0  0
 35 27  1  0  0  0  0
M  END
>  <minimizedAffinity>
-5.41096735

$$$$

 OpenBabel03272506403D

 38 40  0  0  1  0  0  0  0  0999 V2000
   36.8850   25.2220   32.9170 O   0  0  0  0  0  0  0  0  0  0  0  0
   37.6430   25.6970   33.7790 C   0  0  0  0  0  0  0  0  0  0  0  0
   37.8640   27.1210   33.8930 C   0  0  2  0  0  0  0  0  0  0  0  0
   38.6790   27.1870   35.2280 C   0  0  0  0  0  0  0  0  0  0  0  0
   39.3560   25.8510   35.2690 C   0  0  0  0  0  0  0  0  0  0  0  0
   38.3760   24.9150   34.7480 N   0  0  0  0  0  0  0  0  0  0  0  0
   38.5030   27.5610   33.1080 H   0  0  0  0  0  0  0  0  0  0  0  0
   39.4080   28.0080   35.0950 H   0  0  0  0  0  0  0  0  0  0  0  0
   38.0110   27.3700   36.0780 H   0  0  0  0  0  0  0  0  0  0  0  0
   39.4880   25.5690   36.3410 H   0  0  0  0  0  0  0  0  0  0  0  0
   40.3270   25.8160   34.7860 H   0  0  0  0  0  0  0  0  0  0  0  0
   38.2050   23.5410   35.1340 C   0  0  0  0  0  0  0  0  0  0  0  0
   37.3950   23.4370   35.8720 H   0  0  0  0  0  0  0  0  0  0  0  0
   37.8450   22.9650   34.2340 H   0  0  0  0  0  0  0  0  0  0  0  0
   39.3810   22.8830   35.5850 N   0  0  0  0  0  0  0  0  0  0  0  0
   39.5100   22.8150   36.9370 C   0  0  0  0  0  3  0  0  0  0  0  0
   40.6030   22.2060   37.5320 C   0  0  0  0  0  0  0  0  0  0  0  0
   40.6890   22.1600   38.6110 H   0  0  0  0  0  0  0  0  0  0  0  0
   41.6070   21.6430   36.7490 C   0  0  0  0  0  0  0  0  0  0  0  0
   42.5990   21.0900   37.2710 O   0  0  0  0  0  0  0  0  0  0  0  0
   41.4330   21.7370   35.4100 N   0  0  0  0  0  0  0  0  0  0  0  0
   40.3570   22.3370   34.8770 C   0  0  0  0  0  0  0  0  0  0  0  0
   40.2370   22.4000   33.6320 O   0  0  0  0  0  0  0  0  0  0  0  0
   42.1650   21.3260   34.7860 H   0  0  0  0  0  0  0  0  0  0  0  0
   36.6780   27.8750   34.1440 O   0  0  0  0  0  0  0  0  0  0  0  0
   36.1840   28.6620   33.1050 C   0  0  0  0  0  0  0  0  0  0  0  0
   36.8990   28.6500   31.9210 C   0  0  0  0  0  0  0  0  0  0  0  0
   36.4330   29.4230   30.8680 C   0  0  0  0  0  0  0  0  0  0  0  0
   35.2980   30.1540   31.0430 N   0  0  0  0  0  0  0  0  0  0  0  0
   34.6150   30.1540   32.1970 C   0  0  0  0  0  0  0  0  0  0  0  0
   35.0660   29.4150   33.1970 N   0  0  0  0  0  0  0  0  0  0  0  0
   32.2900   30.1440   32.6580 C   0  0  0  0  0  0  0  0  0  0  0  0
   32.2220   28.8860   32.8090 O   0  0  0  0  0  0  0  0  0  0  0  0
   33.4330   30.9340   32.3440 N   0  0  0  0  0  0  0  0  0  0  0  0
   37.7940   28.0840   31.7590 H   0  0  0  0  0  0  0  0  0  0  0  0
   36.9670   29.4360   29.9330 H   0  0  0  0  0  0  0  0  0  0  0  0
   31.3200   30.6230   32.7970 H   0  0  0  0  0  0  0  0  0  0  0  0
   33.4060   31.9660   32.2360 H   0  0  0  0  0  0  0  0  0  0  0  0
  1  2  2  0  0  0  0
  2  3  1  0  0  0  0
  2  6  1  0  0  0  0
  3  7  1  6  0  0  0
  3 25  1  0  0  0  0
  3  4  1  0  0  0  0
  4  5  1  0  0  0  0
  4  9  1  0  0  0  0
  5 10  1  0  0  0  0
  6 12  1  0  0  0  0
  6  5  1  0  0  0  0
  8  4  1  0  0  0  0
 11  5  1  0  0  0  0
 12 15  1  0  0  0  0
 12 13  1  0  0  0  0
 14 12  1  0  0  0  0
 15 16  1  0  0  0  0
 16 17  2  0  0  0  0
 17 18  1  0  0  0  0
 19 20  2  0  0  0  0
 19 17  1  0  0  0  0
 21 19  1  0  0  0  0
 22 21  1  0  0  0  0
 22 15  1  0  0  0  0
 23 22  2  0  0  0  0
 24 21  1  0  0  0  0
 26 31  1  0  0  0  0
 26 25  1  0  0  0  0
 27 26  2  0  0  0  0
 28 29  2  0  0  0  0
 28 27  1  0  0  0  0
 29 30  1  0  0  0  0
 30 34  1  0  0  0  0
 30 31  2  0  0  0  0
 32 37  1  0  0  0  0
 32 33  2  0  0  0  0
 34 32  1  0  0  0  0
 35 27  1  0  0  0  0
 36 28  1  0  0  0  0
 38 34  1  0  0  0  0
M  END
>  <minimizedAffinity>
-5.40385342

$$$$
