
     RDKit          3D

 39 41  0  0  0  0  0  0  0  0999 V2000
   37.3419   30.1164   48.2979 O   0  0  0  0  0  0  0  0  0  0  0  0
   38.0630   31.3068   48.2238 C   0  0  0  0  0  0  0  0  0  0  0  0
   38.2170   32.0164   49.4018 C   0  0  0  0  0  0  0  0  0  0  0  0
   38.9292   33.2046   49.3601 C   0  0  0  0  0  0  0  0  0  0  0  0
   39.4439   33.6212   48.1702 N   0  0  0  0  0  0  0  0  0  0  0  0
   39.2857   32.9216   47.0367 C   0  0  0  0  0  0  0  0  0  0  0  0
   38.6047   31.7879   47.0838 N   0  0  0  0  0  0  0  0  0  0  0  0
   40.7639   32.4712   45.2393 C   0  0  0  0  0  0  0  0  0  0  0  0
   41.1303   31.3431   45.6886 O   0  0  0  0  0  0  0  0  0  0  0  0
   39.8358   33.3894   45.8098 N   0  0  0  0  0  0  0  0  0  0  0  0
   35.4925   28.6724   50.0537 O   0  0  0  0  0  0  0  0  0  0  0  0
   35.2637   29.0498   48.8918 C   0  0  0  0  0  0  0  0  0  0  0  0
   35.9184   30.2105   48.3297 C   0  0  2  0  0  0  0  0  0  0  0  0
   35.4692   30.1039   46.8343 C   0  0  0  0  0  0  0  0  0  0  0  0
   34.1605   29.3817   46.9302 C   0  0  0  0  0  0  0  0  0  0  0  0
   34.3474   28.3996   47.9841 N   0  0  0  0  0  0  0  0  0  0  0  0
   33.7458   27.0966   48.0652 C   0  0  0  0  0  0  0  0  0  0  0  0
   37.8224   31.7102   50.3485 H   0  0  0  0  0  0  0  0  0  0  0  0
   39.0673   33.7809   50.2599 H   0  0  0  0  0  0  0  0  0  0  0  0
   41.2564   32.7114   44.2956 H   0  0  0  0  0  0  0  0  0  0  0  0
   39.5878   34.2993   45.3775 H   0  0  0  0  0  0  0  0  0  0  0  0
   35.5518   31.1821   48.7030 H   0  0  0  0  0  0  0  0  0  0  0  0
   35.3338   31.1454   46.4856 H   0  0  0  0  0  0  0  0  0  0  0  0
   36.2243   29.5723   46.2421 H   0  0  0  0  0  0  0  0  0  0  0  0
   34.0302   28.7858   45.9965 H   0  0  0  0  0  0  0  0  0  0  0  0
   33.2916   30.0234   47.0493 H   0  0  0  0  0  0  0  0  0  0  0  0
   33.6666   26.6371   47.0680 H   0  0  0  0  0  0  0  0  0  0  0  0
   34.4474   26.4217   48.6337 H   0  0  0  0  0  0  0  0  0  0  0  0
   32.4979   27.0405   48.7426 N   0  0  0  0  0  0  0  0  0  0  0  0
   32.0939   25.7886   49.0864 C   0  0  0  0  0  0  0  0  0  0  0  0
   30.8986   25.5694   49.7499 C   0  0  0  0  0  0  0  0  0  0  0  0
   30.5929   24.5638   50.0160 H   0  0  0  0  0  0  0  0  0  0  0  0
   30.0729   26.6382   50.0846 C   0  0  0  0  0  0  0  0  0  0  0  0
   28.9913   26.4546   50.6836 O   0  0  0  0  0  0  0  0  0  0  0  0
   30.5182   27.8634   49.7215 N   0  0  0  0  0  0  0  0  0  0  0  0
   31.6849   28.0303   49.0785 C   0  0  0  0  0  0  0  0  0  0  0  0
   32.0579   29.1827   48.7618 O   0  0  0  0  0  0  0  0  0  0  0  0
   32.6791   24.8919   48.8633 H   0  0  0  0  0  0  0  0  0  0  0  0
   29.9266   28.6935   49.9547 H   0  0  0  0  0  0  0  0  0  0  0  0
  2  1  1  0
  2  3  2  0
  4  3  1  0
  5  4  2  0
  6  7  2  0
  6  5  1  0
  7  2  1  0
  8  9  2  0
  8 10  1  0
 10  6  1  0
 12 11  2  0
 13  1  1  0
 13 12  1  0
 14 15  1  0
 14 13  1  0
 15 16  1  0
 16 17  1  0
 16 12  1  0
  3 18  1  0
  4 19  1  0
  8 20  1  0
 10 21  1  0
 13 22  1  1
 14 23  1  0
 14 24  1  0
 15 25  1  0
 15 26  1  0
 17 27  1  0
 17 28  1  0
 29 30  1  0
 30 31  2  0
 31 32  1  0
 31 33  1  0
 33 34  2  0
 33 35  1  0
 35 36  1  0
 36 37  2  0
 36 29  1  0
 30 38  1  0
 35 39  1  0
 17 29  1  0
M  ISO  8  18  14  19  14  20   6  22  13  23  13  24  13  25  13  26  13
M  ISO  3  27   8  28   8  32  16
M  END
>  <DihAtoms>  (1) 
15,16,28,29

>  <DihDeg>  (1) 
89.64872997693892

$$$$
