REMARK  Name = 
REMARK  5 active torsions:
REMARK  status: ('A' for Active; 'I' for Inactive)
REMARK    1  A    between atoms: C_1  and  C_16
REMARK    2  A    between atoms: C_3  and  C_4
REMARK    3  A    between atoms: C_18  and  C_20
REMARK    4  A    between atoms: C_20  and  C_21
REMARK    5  A    between atoms: C_21  and  N_39
REMARK                            x       y       z     vdW  Elec       q    Type
REMARK                         _______ _______ _______ _____ _____    ______ ____
ROOT
ATOM      1  C   UNL     1      36.948  31.389  47.392  0.00  0.00    +0.000 C 
ATOM      2  C   UNL     1      38.134  32.002  48.048  0.00  0.00    +0.000 C 
ATOM      3  C   UNL     1      38.445  30.897  47.166  0.00  0.00    +0.000 C 
ATOM      4  H   UNL     1      36.525  31.700  46.450  0.00  0.00    +0.000 HD
ATOM      5  H   UNL     1      38.122  33.076  47.885  0.00  0.00    +0.000 HD
ATOM      6  H   UNL     1      38.175  31.807  49.182  0.00  0.00    +0.000 HD
ATOM      7  H   UNL     1      38.473  29.833  47.349  0.00  0.00    +0.000 HD
ENDROOT
BRANCH   3   8
ATOM      8  C   UNL     1      39.122  31.373  45.913  0.00  0.00    +0.000 A 
ATOM      9  C   UNL     1      39.613  32.673  46.096  0.00  0.00    +0.000 A 
ATOM     10  C   UNL     1      40.359  33.268  45.111  0.00  0.00    +0.000 A 
ATOM     11  C   UNL     1      40.649  32.603  43.912  0.00  0.00    +0.000 A 
ATOM     12  C   UNL     1      40.146  31.317  43.768  0.00  0.00    +0.000 A 
ATOM     13  C   UNL     1      40.349  30.565  42.643  0.00  0.00    +0.000 A 
ATOM     14  C   UNL     1      39.850  29.293  42.480  0.00  0.00    +0.000 A 
ATOM     15  C   UNL     1      39.105  28.741  43.501  0.00  0.00    +0.000 A 
ATOM     16  C   UNL     1      38.898  29.495  44.637  0.00  0.00    +0.000 A 
ATOM     17  C   UNL     1      39.414  30.765  44.762  0.00  0.00    +0.000 A 
ATOM     18  H   UNL     1      39.586  33.415  46.867  0.00  0.00    +0.000 HD
ATOM     19  H   UNL     1      40.814  34.248  45.074  0.00  0.00    +0.000 HD
ATOM     20  H   UNL     1      41.219  32.948  43.060  0.00  0.00    +0.000 HD
ATOM     21  H   UNL     1      40.928  30.966  41.824  0.00  0.00    +0.000 HD
ATOM     22  H   UNL     1      40.046  28.747  41.562  0.00  0.00    +0.000 HD
ATOM     23  H   UNL     1      38.692  27.758  43.433  0.00  0.00    +0.000 HD
ATOM     24  H   UNL     1      38.299  29.035  45.444  0.00  0.00    +0.000 HD
ENDBRANCH   3   8
BRANCH   1  27
ATOM     25  C   UNL     1      34.428  28.765  48.377  0.00  0.00    +0.000 A 
ATOM     26  C   UNL     1      35.175  29.686  47.589  0.00  0.00    +0.000 A 
ATOM     27  C   UNL     1      36.161  30.413  48.189  0.00  0.00    +0.000 A 
ATOM     28  N   UNL     1      36.360  30.191  49.536  0.00  0.00    +0.000 NA
ATOM     29  C   UNL     1      35.655  29.324  50.270  0.00  0.00    +0.000 A 
ATOM     30  N   UNL     1      34.678  28.597  49.707  0.00  0.00    +0.000 NA
ATOM     31  H   UNL     1      33.652  28.203  47.875  0.00  0.00    +0.000 HD
ATOM     32  H   UNL     1      34.935  29.780  46.538  0.00  0.00    +0.000 HD
BRANCH  29  33
ATOM     33  C   UNL     1      35.999  29.184  51.719  0.00  0.00    +0.000 C 
ATOM     34  H   UNL     1      35.218  29.593  52.388  0.00  0.00    +0.000 HD
ATOM     35  H   UNL     1      36.186  28.101  51.870  0.00  0.00    +0.000 HD
BRANCH  33  36
ATOM     36  C   UNL     1      37.334  29.917  51.937  0.00  0.00    +0.000 C 
ATOM     37  H   UNL     1      38.057  29.404  51.249  0.00  0.00    +0.000 HD
ATOM     38  H   UNL     1      37.212  30.935  51.529  0.00  0.00    +0.000 HD
BRANCH  36  39
ATOM     39  N   UNL     1      37.772  29.852  53.301  0.00  0.00    +0.000 N 
ATOM     40  C   UNL     1      39.074  30.188  53.532  0.00  0.00    +0.000 A 
ATOM     41  C   UNL     1      39.555  30.142  54.845  0.00  0.00    +0.000 A 
ATOM     42  H   UNL     1      40.554  30.386  55.118  0.00  0.00    +0.000 HD
ATOM     43  C   UNL     1      38.623  29.749  55.783  0.00  0.00    +0.000 A 
ATOM     44  O   UNL     1      39.039  29.700  56.990  0.00  0.00    +0.000 OA
ATOM     45  N   UNL     1      37.335  29.414  55.580  0.00  0.00    +0.000 N 
ATOM     46  C   UNL     1      36.932  29.479  54.289  0.00  0.00    +0.000 A 
ATOM     47  O   UNL     1      35.739  29.178  54.032  0.00  0.00    +0.000 OA
ATOM     48  H   UNL     1      36.740  29.135  56.390  0.00  0.00    +0.000 HD
ENDBRANCH  36  39
ENDBRANCH  33  36
ENDBRANCH  29  33
ENDBRANCH   1  27
TORSDOF 5
