
     RDKit          3D

 30 32  0  0  0  0  0  0  0  0999 V2000
   37.9785   33.1748   49.4288 C   0  0  0  0  0  0  0  0  0  0  0  0
   39.0080   33.1606   48.4670 C   0  0  0  0  0  0  0  0  0  0  0  0
   39.0166   32.1130   47.5300 C   0  0  0  0  0  0  0  0  0  0  0  0
   38.0279   31.1761   47.6110 N   0  0  0  0  0  0  0  0  0  0  0  0
   37.0589   31.2274   48.5502 C   0  0  0  0  0  0  0  0  0  0  0  0
   37.0415   32.2212   49.4474 N   0  0  0  0  0  0  0  0  0  0  0  0
   37.2754   29.3593   51.0534 Br  0  0  0  0  0  0  0  0  0  0  0  0
   35.9523   29.3091   49.6611 C   0  0  0  0  0  0  0  0  0  0  0  0
   36.0066   30.2180   48.6267 C   0  0  0  0  0  0  0  0  0  0  0  0
   35.0114   30.1234   47.6607 C   0  0  0  0  0  0  0  0  0  0  0  0
   33.9975   29.1851   47.6892 C   0  0  0  0  0  0  0  0  0  0  0  0
   33.9956   28.3073   48.7426 C   0  0  0  0  0  0  0  0  0  0  0  0
   34.9676   28.3757   49.7148 C   0  0  0  0  0  0  0  0  0  0  0  0
   39.7761   33.8954   48.4103 H   0  0  0  0  0  0  0  0  0  0  0  0
   39.7461   32.0035   46.7602 H   0  0  0  0  0  0  0  0  0  0  0  0
   35.0197   30.8188   46.8333 H   0  0  0  0  0  0  0  0  0  0  0  0
   33.2458   29.1575   46.9070 H   0  0  0  0  0  0  0  0  0  0  0  0
   33.2063   27.5662   48.7775 H   0  0  0  0  0  0  0  0  0  0  0  0
   34.9126   27.6522   50.5246 H   0  0  0  0  0  0  0  0  0  0  0  0
   40.7703   34.2578   50.1215 Br  0  0  0  0  0  0  0  0  0  0  0  0
   39.0936   34.8437   50.8482 C   0  0  0  0  0  0  0  0  0  0  0  0
   37.9293   34.2407   50.4194 C   0  0  0  0  0  0  0  0  0  0  0  0
   36.7904   34.7411   51.0078 C   0  0  0  0  0  0  0  0  0  0  0  0
   35.8413   34.3163   50.7200 H   0  0  0  0  0  0  0  0  0  0  0  0
   36.8180   35.7553   51.9421 C   0  0  0  0  0  0  0  0  0  0  0  0
   35.8672   36.0895   52.3561 H   0  0  0  0  0  0  0  0  0  0  0  0
   38.0037   36.3240   52.3369 C   0  0  0  0  0  0  0  0  0  0  0  0
   39.1738   35.8574   51.7763 C   0  0  0  0  0  0  0  0  0  0  0  0
   37.9196   37.1112   53.0738 H   0  0  0  0  0  0  0  0  0  0  0  0
   40.0896   36.3106   52.0940 H   0  0  0  0  0  0  0  0  0  0  0  0
  1  6  1  0
  2  1  2  0
  3  4  2  0
  3  2  1  0
  4  5  1  0
  5  9  1  0
  5  6  2  0
  8 13  2  0
  8  7  1  0
  9  8  1  0
 10 11  1  0
 10  9  2  0
 11 12  2  0
 12 13  1  0
  2 14  1  0
  3 15  1  0
 10 16  1  0
 11 17  1  0
 12 18  1  0
 13 19  1  0
 20 21  1  0
 21 22  2  0
 22 23  1  0
 23 24  1  0
 23 25  2  0
 25 26  1  0
 25 27  1  0
 27 28  2  0
 28 21  1  0
 27 29  1  0
 28 30  1  0
  1 22  1  0
M  ISO  8  14  14  15  14  16  14  17  14  18  14  19  14  24  15  26  16
M  END
>  <DihAtoms>  (1) 
5,0,21,20

>  <DihDeg>  (1) 
0.006442170644976144

$$$$
