
 OpenBabel03272503493D

 37 39  0  0  1  0  0  0  0  0999 V2000
   33.2110   27.3250   45.8500 C   0  0  1  0  0  0  0  0  0  0  0  0
   33.9210   27.4610   47.2140 C   0  0  2  0  0  0  0  0  0  0  0  0
   33.7480   26.2420   47.7890 O   0  0  0  0  0  0  0  0  0  0  0  0
   34.0710   25.3450   46.7820 C   0  0  0  0  0  0  0  0  0  0  0  0
   33.6100   25.9220   45.4570 C   0  0  2  0  0  0  0  0  0  0  0  0
   33.6450   28.0810   45.1480 H   0  0  0  0  0  0  0  0  0  0  0  0
   34.9590   27.7680   46.9750 H   0  0  0  0  0  0  0  0  0  0  0  0
   33.4780   24.4260   46.9680 H   0  0  0  0  0  0  0  0  0  0  0  0
   35.1300   25.0610   46.7670 H   0  0  0  0  0  0  0  0  0  0  0  0
   32.6610   25.4330   45.1230 H   0  0  0  0  0  0  0  0  0  0  0  0
   31.8540   27.5280   45.9890 O   0  0  0  0  0  0  0  0  0  0  0  0
   31.5450   28.1330   45.2710 H   0  0  0  0  0  0  0  0  0  0  0  0
   33.2880   28.5190   47.8240 O   0  0  0  0  0  0  0  0  0  0  0  0
   35.3440   29.8140   46.7850 O   0  0  0  0  0  0  0  0  0  0  0  0
   34.0790   29.9900   47.6210 P   0  0  1  0  0  0  0  0  0  0  0  0
   33.1110   31.0540   46.7270 O   0  0  0  0  0  0  0  0  0  0  0  0
   32.2940   31.2080   47.2870 H   0  0  0  0  0  0  0  0  0  0  0  0
   34.3760   30.6150   49.1800 O   0  0  0  0  0  0  0  0  0  0  0  0
   35.6170   30.4920   49.7910 C   0  0  0  0  0  0  0  0  0  0  0  0
   35.9710   29.4760   50.7080 C   0  0  0  0  0  0  0  0  0  0  0  0
   37.2530   29.4860   51.2360 C   0  0  0  0  0  0  0  0  0  0  0  0
   38.1110   30.4730   50.8520 N   0  0  0  0  0  0  0  0  0  0  0  0
   37.7430   31.4340   49.9710 C   0  0  0  0  0  0  0  0  0  0  0  0
   36.4900   31.4460   49.4360 N   0  0  0  0  0  0  0  0  0  0  0  0
   35.2040   28.7720   50.9170 H   0  0  0  0  0  0  0  0  0  0  0  0
   37.5090   28.7050   51.9340 H   0  0  0  0  0  0  0  0  0  0  0  0
   38.4700   32.1950   49.7010 H   0  0  0  0  0  0  0  0  0  0  0  0
   34.6180   25.9400   44.5580 O   0  0  0  0  0  0  0  0  0  0  0  0
   35.8210   28.6660   43.3170 Br  0  0  0  0  0  0  0  0  0  0  0  0
   35.2680   27.0950   42.4400 C   0  0  0  0  0  0  0  0  0  0  0  0
   34.7960   26.0910   43.2400 C   0  0  0  0  0  0  0  0  0  0  0  0
   34.3870   24.9250   42.5740 C   0  0  0  0  0  0  0  0  0  0  0  0
   33.9810   24.0060   43.0090 H   0  0  0  0  0  0  0  0  0  0  0  0
   34.4610   24.8000   41.1800 C   0  0  0  0  0  0  0  0  0  0  0  0
   34.1610   23.9280   40.6220 H   0  0  0  0  0  0  0  0  0  0  0  0
   34.9530   25.8680   40.4580 C   0  0  0  0  0  3  0  0  0  0  0  0
   35.3670   27.0340   41.0670 C   0  0  0  0  0  3  0  0  0  0  0  0
  1  6  1  6  0  0  0
  1 11  1  0  0  0  0
  1  2  1  0  0  0  0
  2  7  1  6  0  0  0
  2  3  1  0  0  0  0
  2 13  1  0  0  0  0
  4  8  1  0  0  0  0
  4  3  1  0  0  0  0
  5 10  1  6  0  0  0
  5  1  1  0  0  0  0
  5  4  1  0  0  0  0
  9  4  1  0  0  0  0
 12 11  1  0  0  0  0
 15 14  2  6  0  0  0
 15 13  1  0  0  0  0
 15 18  1  0  0  0  0
 16 17  1  0  0  0  0
 16 15  1  0  0  0  0
 18 19  1  0  0  0  0
 19 20  1  0  0  0  0
 20 25  1  0  0  0  0
 20 21  2  0  0  0  0
 21 26  1  0  0  0  0
 22 21  1  0  0  0  0
 23 22  2  0  0  0  0
 24 19  2  0  0  0  0
 24 23  1  0  0  0  0
 27 23  1  0  0  0  0
 28  5  1  0  0  0  0
 30 31  1  0  0  0  0
 30 29  1  0  0  0  0
 31 28  1  0  0  0  0
 32 33  1  0  0  0  0
 32 31  2  0  0  0  0
 34 32  1  0  0  0  0
 35 34  1  0  0  0  0
 36 37  1  0  0  0  0
 36 34  2  0  0  0  0
 37 30  2  0  0  0  0
M  END
>  <minimizedAffinity>
-4.07313442

>  <minimizedRMSD>
0.648111761

$$$$
