
 OpenBabel03272503513D

 37 39  0  0  1  0  0  0  0  0999 V2000
   38.0140   24.6990   32.5790 C   0  0  1  0  0  0  0  0  0  0  0  0
   37.1260   25.8460   33.1050 C   0  0  2  0  0  0  0  0  0  0  0  0
   36.3140   26.1320   32.0540 O   0  0  0  0  0  0  0  0  0  0  0  0
   35.8770   24.8900   31.6180 C   0  0  0  0  0  0  0  0  0  0  0  0
   37.0070   23.8930   31.7920 C   0  0  2  0  0  0  0  0  0  0  0  0
   38.4000   24.1190   33.4550 H   0  0  0  0  0  0  0  0  0  0  0  0
   36.6480   25.4500   34.0240 H   0  0  0  0  0  0  0  0  0  0  0  0
   35.6800   24.9820   30.5290 H   0  0  0  0  0  0  0  0  0  0  0  0
   34.9490   24.5550   32.0970 H   0  0  0  0  0  0  0  0  0  0  0  0
   37.5040   23.6850   30.8110 H   0  0  0  0  0  0  0  0  0  0  0  0
   39.0650   25.2010   31.8400 O   0  0  0  0  0  0  0  0  0  0  0  0
   39.8970   24.7460   32.1170 H   0  0  0  0  0  0  0  0  0  0  0  0
   38.0180   26.8270   33.4720 O   0  0  0  0  0  0  0  0  0  0  0  0
   39.8370   26.9030   35.3870 O   0  0  0  0  0  0  0  0  0  0  0  0
   38.3350   26.8710   35.1240 P   0  0  1  0  0  0  0  0  0  0  0  0
   37.7440   28.3100   35.7930 O   0  0  0  0  0  0  0  0  0  0  0  0
   36.7510   28.2800   35.6610 H   0  0  0  0  0  0  0  0  0  0  0  0
   37.5520   25.5220   35.8160 O   0  0  0  0  0  0  0  0  0  0  0  0
   38.2400   24.5980   36.5920 C   0  0  0  0  0  0  0  0  0  0  0  0
   38.0280   24.3820   37.9720 C   0  0  0  0  0  0  0  0  0  0  0  0
   38.7960   23.4200   38.6120 C   0  0  0  0  0  0  0  0  0  0  0  0
   39.7200   22.7320   37.8840 N   0  0  0  0  0  0  0  0  0  0  0  0
   39.9000   22.9610   36.5610 C   0  0  0  0  0  0  0  0  0  0  0  0
   39.1580   23.8990   35.9090 N   0  0  0  0  0  0  0  0  0  0  0  0
   37.2770   24.9900   38.4120 H   0  0  0  0  0  0  0  0  0  0  0  0
   38.6230   23.2670   39.6650 H   0  0  0  0  0  0  0  0  0  0  0  0
   40.6520   22.3810   36.0330 H   0  0  0  0  0  0  0  0  0  0  0  0
   36.5980   22.8130   32.4920 O   0  0  0  0  0  0  0  0  0  0  0  0
   39.1160   20.8050   32.2490 Br  0  0  0  0  0  0  0  0  0  0  0  0
   37.2730   20.4260   32.1810 C   0  0  0  0  0  0  0  0  0  0  0  0
   36.4310   21.4970   32.3160 C   0  0  0  0  0  0  0  0  0  0  0  0
   35.0600   21.2010   32.2640 C   0  0  0  0  0  0  0  0  0  0  0  0
   34.2150   21.8930   32.3490 H   0  0  0  0  0  0  0  0  0  0  0  0
   34.5880   19.8940   32.0860 C   0  0  0  0  0  0  0  0  0  0  0  0
   33.5460   19.6150   32.0400 H   0  0  0  0  0  0  0  0  0  0  0  0
   35.5140   18.8800   31.9590 C   0  0  0  0  0  3  0  0  0  0  0  0
   36.8700   19.1210   32.0040 C   0  0  0  0  0  3  0  0  0  0  0  0
  1  2  1  0  0  0  0
  1  6  1  1  0  0  0
  2 13  1  0  0  0  0
  2  7  1  1  0  0  0
  3  2  1  0  0  0  0
  4  5  1  0  0  0  0
  4  3  1  0  0  0  0
  4  9  1  0  0  0  0
  5 10  1  6  0  0  0
  5 28  1  0  0  0  0
  5  1  1  0  0  0  0
  8  4  1  0  0  0  0
 11 12  1  0  0  0  0
 11  1  1  0  0  0  0
 13 15  1  0  0  0  0
 15 14  2  1  0  0  0
 15 16  1  0  0  0  0
 15 18  1  0  0  0  0
 17 16  1  0  0  0  0
 18 19  1  0  0  0  0
 19 20  1  0  0  0  0
 20 25  1  0  0  0  0
 20 21  2  0  0  0  0
 21 26  1  0  0  0  0
 22 21  1  0  0  0  0
 23 22  2  0  0  0  0
 24 23  1  0  0  0  0
 24 19  2  0  0  0  0
 27 23  1  0  0  0  0
 30 29  1  0  0  0  0
 30 31  1  0  0  0  0
 31 28  1  0  0  0  0
 32 31  2  0  0  0  0
 32 33  1  0  0  0  0
 34 32  1  0  0  0  0
 35 34  1  0  0  0  0
 36 37  1  0  0  0  0
 36 34  2  0  0  0  0
 37 30  2  0  0  0  0
M  END
>  <minimizedAffinity>
-5.87924528

$$$$

 OpenBabel03272503513D

 37 39  0  0  1  0  0  0  0  0999 V2000
   38.2150   26.2370   31.7130 C   0  0  1  0  0  0  0  0  0  0  0  0
   37.3310   26.5480   32.9380 C   0  0  2  0  0  0  0  0  0  0  0  0
   36.1690   26.9920   32.3920 O   0  0  0  0  0  0  0  0  0  0  0  0
   35.8920   26.0690   31.3940 C   0  0  0  0  0  0  0  0  0  0  0  0
   37.2020   25.6190   30.7770 C   0  0  2  0  0  0  0  0  0  0  0  0
   38.9930   25.4920   32.0160 H   0  0  0  0  0  0  0  0  0  0  0  0
   37.2930   25.6050   33.5200 H   0  0  0  0  0  0  0  0  0  0  0  0
   35.3220   26.6070   30.6090 H   0  0  0  0  0  0  0  0  0  0  0  0
   35.2790   25.2250   31.7320 H   0  0  0  0  0  0  0  0  0  0  0  0
   37.3690   26.1260   29.7930 H   0  0  0  0  0  0  0  0  0  0  0  0
   38.8160   27.3870   31.2450 O   0  0  0  0  0  0  0  0  0  0  0  0
   39.7710   27.2020   31.0700 H   0  0  0  0  0  0  0  0  0  0  0  0
   38.0570   27.4700   33.6580 O   0  0  0  0  0  0  0  0  0  0  0  0
   40.4500   26.9050   34.6270 O   0  0  0  0  0  0  0  0  0  0  0  0
   38.9550   26.7940   34.9100 P   0  0  1  0  0  0  0  0  0  0  0  0
   38.7160   27.6730   36.3380 O   0  0  0  0  0  0  0  0  0  0  0  0
   37.7430   27.5730   36.5550 H   0  0  0  0  0  0  0  0  0  0  0  0
   38.4170   25.1870   35.0980 O   0  0  0  0  0  0  0  0  0  0  0  0
   38.6710   24.4620   36.2550 C   0  0  0  0  0  0  0  0  0  0  0  0
   39.6370   23.4390   36.3740 C   0  0  0  0  0  0  0  0  0  0  0  0
   39.7750   22.8040   37.6000 C   0  0  0  0  0  0  0  0  0  0  0  0
   38.9720   23.1930   38.6300 N   0  0  0  0  0  0  0  0  0  0  0  0
   38.0540   24.1780   38.4860 C   0  0  0  0  0  0  0  0  0  0  0  0
   37.9000   24.8170   37.2930 N   0  0  0  0  0  0  0  0  0  0  0  0
   40.1920   23.2390   35.4910 H   0  0  0  0  0  0  0  0  0  0  0  0
   40.5160   22.0250   37.6750 H   0  0  0  0  0  0  0  0  0  0  0  0
   37.4430   24.4450   39.3430 H   0  0  0  0  0  0  0  0  0  0  0  0
   37.3030   24.2720   30.7770 O   0  0  0  0  0  0  0  0  0  0  0  0
   39.7150   23.0800   32.5620 Br  0  0  0  0  0  0  0  0  0  0  0  0
   37.9140   22.5400   32.4710 C   0  0  0  0  0  0  0  0  0  0  0  0
   37.1150   23.2440   31.6120 C   0  0  0  0  0  0  0  0  0  0  0  0
   35.7750   22.8320   31.5540 C   0  0  0  0  0  0  0  0  0  0  0  0
   34.9650   23.2460   30.9430 H   0  0  0  0  0  0  0  0  0  0  0  0
   35.2900   21.7680   32.3270 C   0  0  0  0  0  0  0  0  0  0  0  0
   34.2700   21.4140   32.3190 H   0  0  0  0  0  0  0  0  0  0  0  0
   36.1720   21.1190   33.1640 C   0  0  0  0  0  3  0  0  0  0  0  0
   37.4970   21.4870   33.2560 C   0  0  0  0  0  3  0  0  0  0  0  0
  1  6  1  1  0  0  0
  1  2  1  0  0  0  0
  2  7  1  1  0  0  0
  2 13  1  0  0  0  0
  3  2  1  0  0  0  0
  4  9  1  0  0  0  0
  4  3  1  0  0  0  0
  5 10  1  6  0  0  0
  5  4  1  0  0  0  0
  5  1  1  0  0  0  0
  8  4  1  0  0  0  0
 11  1  1  0  0  0  0
 12 11  1  0  0  0  0
 13 15  1  0  0  0  0
 15 14  2  6  0  0  0
 15 18  1  0  0  0  0
 15 16  1  0  0  0  0
 16 17  1  0  0  0  0
 18 19  1  0  0  0  0
 19 20  2  0  0  0  0
 19 24  1  0  0  0  0
 20 21  1  0  0  0  0
 21 26  1  0  0  0  0
 21 22  2  0  0  0  0
 23 22  1  0  0  0  0
 23 27  1  0  0  0  0
 24 23  2  0  0  0  0
 25 20  1  0  0  0  0
 28  5  1  0  0  0  0
 28 31  1  0  0  0  0
 30 29  1  0  0  0  0
 30 37  1  0  0  0  0
 31 30  2  0  0  0  0
 32 31  1  0  0  0  0
 32 34  2  0  0  0  0
 33 32  1  0  0  0  0
 34 36  1  0  0  0  0
 35 34  1  0  0  0  0
 36 37  2  0  0  0  0
M  END
>  <minimizedAffinity>
-5.68522739

$$$$

 OpenBabel03272503513D

 37 39  0  0  1  0  0  0  0  0999 V2000
   35.7950   27.3010   31.4500 C   0  0  1  0  0  0  0  0  0  0  0  0
   36.3980   25.9750   31.9570 C   0  0  2  0  0  0  0  0  0  0  0  0
   37.6320   26.3300   32.4000 O   0  0  0  0  0  0  0  0  0  0  0  0
   37.4020   27.4690   33.1580 C   0  0  0  0  0  0  0  0  0  0  0  0
   36.2840   28.2630   32.5090 C   0  0  2  0  0  0  0  0  0  0  0  0
   34.6790   27.2140   31.4670 H   0  0  0  0  0  0  0  0  0  0  0  0
   35.6780   25.5930   32.7090 H   0  0  0  0  0  0  0  0  0  0  0  0
   38.3240   28.0850   33.0990 H   0  0  0  0  0  0  0  0  0  0  0  0
   37.2060   27.2630   34.2160 H   0  0  0  0  0  0  0  0  0  0  0  0
   36.6960   29.1340   31.9410 H   0  0  0  0  0  0  0  0  0  0  0  0
   36.2310   27.5730   30.1700 O   0  0  0  0  0  0  0  0  0  0  0  0
   35.4590   27.8540   29.6210 H   0  0  0  0  0  0  0  0  0  0  0  0
   36.3590   25.1420   30.8620 O   0  0  0  0  0  0  0  0  0  0  0  0
   38.2110   23.3530   30.2700 O   0  0  0  0  0  0  0  0  0  0  0  0
   36.9940   23.6110   31.1530 P   0  0  1  0  0  0  0  0  0  0  0  0
   37.5780   23.5150   32.7400 O   0  0  0  0  0  0  0  0  0  0  0  0
   36.7770   23.6440   33.3280 H   0  0  0  0  0  0  0  0  0  0  0  0
   35.7290   22.4930   30.9100 O   0  0  0  0  0  0  0  0  0  0  0  0
   35.6950   21.2740   31.5740 C   0  0  0  0  0  0  0  0  0  0  0  0
   35.8310   20.0110   30.9540 C   0  0  0  0  0  0  0  0  0  0  0  0
   35.7750   18.8780   31.7540 C   0  0  0  0  0  0  0  0  0  0  0  0
   35.5910   19.0340   33.0950 N   0  0  0  0  0  0  0  0  0  0  0  0
   35.4640   20.2580   33.6600 C   0  0  0  0  0  0  0  0  0  0  0  0
   35.5160   21.3860   32.8980 N   0  0  0  0  0  0  0  0  0  0  0  0
   35.9690   20.0390   29.9020 H   0  0  0  0  0  0  0  0  0  0  0  0
   35.8800   17.9220   31.2670 H   0  0  0  0  0  0  0  0  0  0  0  0
   35.3190   20.3190   34.7350 H   0  0  0  0  0  0  0  0  0  0  0  0
   35.3060   28.5410   33.3980 O   0  0  0  0  0  0  0  0  0  0  0  0
   32.1950   29.3470   33.7220 Br  0  0  0  0  0  0  0  0  0  0  0  0
   33.7180   30.1030   34.5320 C   0  0  0  0  0  0  0  0  0  0  0  0
   34.9210   29.5420   34.1980 C   0  0  0  0  0  0  0  0  0  0  0  0
   36.0470   30.1140   34.8080 C   0  0  0  0  0  0  0  0  0  0  0  0
   37.0980   29.8300   34.6900 H   0  0  0  0  0  0  0  0  0  0  0  0
   35.9440   31.1890   35.7020 C   0  0  0  0  0  0  0  0  0  0  0  0
   36.7780   31.6630   36.1970 H   0  0  0  0  0  0  0  0  0  0  0  0
   34.6870   31.6860   35.9760 C   0  0  0  0  0  3  0  0  0  0  0  0
   33.5510   31.1580   35.4010 C   0  0  0  0  0  3  0  0  0  0  0  0
  1  6  1  1  0  0  0
  1  2  1  0  0  0  0
  1  5  1  0  0  0  0
  2  3  1  0  0  0  0
  2  7  1  1  0  0  0
  3  4  1  0  0  0  0
  4  9  1  0  0  0  0
  5 10  1  6  0  0  0
  5  4  1  0  0  0  0
  5 28  1  0  0  0  0
  8  4  1  0  0  0  0
 11  1  1  0  0  0  0
 12 11  1  0  0  0  0
 13 15  1  0  0  0  0
 13  2  1  0  0  0  0
 15 14  2  6  0  0  0
 15 16  1  0  0  0  0
 16 17  1  0  0  0  0
 18 15  1  0  0  0  0
 18 19  1  0  0  0  0
 19 24  1  0  0  0  0
 20 19  2  0  0  0  0
 20 21  1  0  0  0  0
 21 22  2  0  0  0  0
 22 23  1  0  0  0  0
 23 27  1  0  0  0  0
 24 23  2  0  0  0  0
 25 20  1  0  0  0  0
 26 21  1  0  0  0  0
 28 31  1  0  0  0  0
 29 30  1  0  0  0  0
 30 37  1  0  0  0  0
 31 30  2  0  0  0  0
 31 32  1  0  0  0  0
 32 34  2  0  0  0  0
 33 32  1  0  0  0  0
 34 36  1  0  0  0  0
 34 35  1  0  0  0  0
 37 36  2  0  0  0  0
M  END
>  <minimizedAffinity>
-5.48863506

$$$$

 OpenBabel03272503513D

 37 39  0  0  1  0  0  0  0  0999 V2000
   35.8790   26.4740   31.5320 C   0  0  1  0  0  0  0  0  0  0  0  0
   36.9750   26.0050   32.5110 C   0  0  2  0  0  0  0  0  0  0  0  0
   38.1030   26.5970   32.0380 O   0  0  0  0  0  0  0  0  0  0  0  0
   37.7210   27.9090   31.8030 C   0  0  0  0  0  0  0  0  0  0  0  0
   36.2860   27.9130   31.3130 C   0  0  2  0  0  0  0  0  0  0  0  0
   34.8890   26.4080   32.0500 H   0  0  0  0  0  0  0  0  0  0  0  0
   36.6220   26.3110   33.5160 H   0  0  0  0  0  0  0  0  0  0  0  0
   38.3560   28.2850   30.9740 H   0  0  0  0  0  0  0  0  0  0  0  0
   37.8690   28.5730   32.6620 H   0  0  0  0  0  0  0  0  0  0  0  0
   36.2480   28.0590   30.2040 H   0  0  0  0  0  0  0  0  0  0  0  0
   35.8750   25.6900   30.3970 O   0  0  0  0  0  0  0  0  0  0  0  0
   34.9430   25.4410   30.1820 H   0  0  0  0  0  0  0  0  0  0  0  0
   36.9320   24.6310   32.4390 O   0  0  0  0  0  0  0  0  0  0  0  0
   37.7800   22.3660   33.5040 O   0  0  0  0  0  0  0  0  0  0  0  0
   38.0530   23.8660   33.4320 P   0  0  1  0  0  0  0  0  0  0  0  0
   39.6050   23.9940   32.7650 O   0  0  0  0  0  0  0  0  0  0  0  0
   39.8110   24.9750   32.7510 H   0  0  0  0  0  0  0  0  0  0  0  0
   37.9870   24.6420   34.9490 O   0  0  0  0  0  0  0  0  0  0  0  0
   38.5310   24.0650   36.0890 C   0  0  0  0  0  0  0  0  0  0  0  0
   37.9190   24.0550   37.3630 C   0  0  0  0  0  0  0  0  0  0  0  0
   38.5890   23.4370   38.4090 C   0  0  0  0  0  0  0  0  0  0  0  0
   39.8040   22.8710   38.1620 N   0  0  0  0  0  0  0  0  0  0  0  0
   40.3660   22.8960   36.9290 C   0  0  0  0  0  0  0  0  0  0  0  0
   39.7280   23.4960   35.8860 N   0  0  0  0  0  0  0  0  0  0  0  0
   36.9730   24.5330   37.4110 H   0  0  0  0  0  0  0  0  0  0  0  0
   38.1100   23.4370   39.3740 H   0  0  0  0  0  0  0  0  0  0  0  0
   41.3370   22.4280   36.7930 H   0  0  0  0  0  0  0  0  0  0  0  0
   35.5220   28.7490   32.0490 O   0  0  0  0  0  0  0  0  0  0  0  0
   36.0410   31.5990   30.6210 Br  0  0  0  0  0  0  0  0  0  0  0  0
   35.8710   31.1910   32.4520 C   0  0  0  0  0  0  0  0  0  0  0  0
   35.6520   29.8760   32.7590 C   0  0  0  0  0  0  0  0  0  0  0  0
   35.5270   29.5850   34.1260 C   0  0  0  0  0  0  0  0  0  0  0  0
   35.3500   28.6130   34.5980 H   0  0  0  0  0  0  0  0  0  0  0  0
   35.6200   30.5800   35.1100 C   0  0  0  0  0  0  0  0  0  0  0  0
   35.5310   30.4080   36.1710 H   0  0  0  0  0  0  0  0  0  0  0  0
   35.8430   31.8780   34.7010 C   0  0  0  0  0  3  0  0  0  0  0  0
   35.9720   32.2120   33.3700 C   0  0  0  0  0  3  0  0  0  0  0  0
  1  6  1  1  0  0  0
  1  2  1  0  0  0  0
  2  7  1  1  0  0  0
  3  2  1  0  0  0  0
  4  3  1  0  0  0  0
  4  9  1  0  0  0  0
  5 10  1  6  0  0  0
  5  1  1  0  0  0  0
  5  4  1  0  0  0  0
  5 28  1  0  0  0  0
  8  4  1  0  0  0  0
 11  1  1  0  0  0  0
 12 11  1  0  0  0  0
 13  2  1  0  0  0  0
 13 15  1  0  0  0  0
 15 14  2  1  0  0  0
 15 18  1  0  0  0  0
 16 15  1  0  0  0  0
 17 16  1  0  0  0  0
 18 19  1  0  0  0  0
 19 20  1  0  0  0  0
 20 25  1  0  0  0  0
 20 21  2  0  0  0  0
 21 26  1  0  0  0  0
 22 21  1  0  0  0  0
 23 22  2  0  0  0  0
 24 19  2  0  0  0  0
 24 23  1  0  0  0  0
 27 23  1  0  0  0  0
 28 31  1  0  0  0  0
 29 30  1  0  0  0  0
 30 31  2  0  0  0  0
 30 37  1  0  0  0  0
 31 32  1  0  0  0  0
 32 33  1  0  0  0  0
 32 34  2  0  0  0  0
 34 35  1  0  0  0  0
 36 34  1  0  0  0  0
 37 36  2  0  0  0  0
M  END
>  <minimizedAffinity>
-5.39096594

$$$$

 OpenBabel03272503513D

 37 39  0  0  1  0  0  0  0  0999 V2000
   38.7340   26.1430   33.5620 C   0  0  1  0  0  0  0  0  0  0  0  0
   37.4970   26.4970   32.7120 C   0  0  2  0  0  0  0  0  0  0  0  0
   37.5570   25.6210   31.6750 O   0  0  0  0  0  0  0  0  0  0  0  0
   37.8130   24.4000   32.2810 C   0  0  0  0  0  0  0  0  0  0  0  0
   38.7230   24.6340   33.4730 C   0  0  2  0  0  0  0  0  0  0  0  0
   38.5530   26.4870   34.6120 H   0  0  0  0  0  0  0  0  0  0  0  0
   36.6320   26.4120   33.4010 H   0  0  0  0  0  0  0  0  0  0  0  0
   38.3790   23.7890   31.5470 H   0  0  0  0  0  0  0  0  0  0  0  0
   36.9090   23.8420   32.5520 H   0  0  0  0  0  0  0  0  0  0  0  0
   39.7770   24.3500   33.2270 H   0  0  0  0  0  0  0  0  0  0  0  0
   39.8620   26.7490   33.0510 O   0  0  0  0  0  0  0  0  0  0  0  0
   40.3720   27.1580   33.7920 H   0  0  0  0  0  0  0  0  0  0  0  0
   37.6670   27.8260   32.3970 O   0  0  0  0  0  0  0  0  0  0  0  0
   36.7520   29.8990   31.0390 O   0  0  0  0  0  0  0  0  0  0  0  0
   36.4550   28.4490   31.4110 P   0  0  1  0  0  0  0  0  0  0  0  0
   36.4190   27.6190   29.9360 O   0  0  0  0  0  0  0  0  0  0  0  0
   36.1850   26.6720   30.1670 H   0  0  0  0  0  0  0  0  0  0  0  0
   34.9820   28.2510   32.2480 O   0  0  0  0  0  0  0  0  0  0  0  0
   34.4140   29.2830   32.9820 C   0  0  0  0  0  0  0  0  0  0  0  0
   33.2450   29.9880   32.6170 C   0  0  0  0  0  0  0  0  0  0  0  0
   32.7990   30.9990   33.4560 C   0  0  0  0  0  0  0  0  0  0  0  0
   33.5070   31.2680   34.5890 N   0  0  0  0  0  0  0  0  0  0  0  0
   34.6250   30.5740   34.9120 C   0  0  0  0  0  0  0  0  0  0  0  0
   35.0830   29.5770   34.1060 N   0  0  0  0  0  0  0  0  0  0  0  0
   32.7950   29.6740   31.7080 H   0  0  0  0  0  0  0  0  0  0  0  0
   31.9060   31.5280   33.1650 H   0  0  0  0  0  0  0  0  0  0  0  0
   35.1480   30.8330   35.8290 H   0  0  0  0  0  0  0  0  0  0  0  0
   38.2060   24.0870   34.5940 O   0  0  0  0  0  0  0  0  0  0  0  0
   40.7640   22.1960   35.1520 Br  0  0  0  0  0  0  0  0  0  0  0  0
   39.5970   23.0220   36.3770 C   0  0  0  0  0  0  0  0  0  0  0  0
   38.5890   23.7760   35.8380 C   0  0  0  0  0  0  0  0  0  0  0  0
   37.7280   24.3860   36.7610 C   0  0  0  0  0  0  0  0  0  0  0  0
   36.8620   25.0270   36.5580 H   0  0  0  0  0  0  0  0  0  0  0  0
   37.8900   24.2330   38.1450 C   0  0  0  0  0  0  0  0  0  0  0  0
   37.2560   24.6810   38.8940 H   0  0  0  0  0  0  0  0  0  0  0  0
   38.9360   23.4540   38.5930 C   0  0  0  0  0  3  0  0  0  0  0  0
   39.8090   22.8340   37.7250 C   0  0  0  0  0  3  0  0  0  0  0  0
  1  6  1  1  0  0  0
  2  7  1  1  0  0  0
  2  1  1  0  0  0  0
  3  4  1  0  0  0  0
  3  2  1  0  0  0  0
  4  9  1  0  0  0  0
  4  5  1  0  0  0  0
  5 10  1  6  0  0  0
  5  1  1  0  0  0  0
  5 28  1  0  0  0  0
  8  4  1  0  0  0  0
 11  1  1  0  0  0  0
 11 12  1  0  0  0  0
 13  2  1  0  0  0  0
 15 14  2  6  0  0  0
 15 18  1  0  0  0  0
 15 13  1  0  0  0  0
 16 17  1  0  0  0  0
 16 15  1  0  0  0  0
 18 19  1  0  0  0  0
 19 24  1  0  0  0  0
 20 19  2  0  0  0  0
 20 21  1  0  0  0  0
 21 22  2  0  0  0  0
 22 23  1  0  0  0  0
 23 27  1  0  0  0  0
 24 23  2  0  0  0  0
 25 20  1  0  0  0  0
 26 21  1  0  0  0  0
 28 31  1  0  0  0  0
 29 30  1  0  0  0  0
 30 37  1  0  0  0  0
 31 30  2  0  0  0  0
 31 32  1  0  0  0  0
 32 34  2  0  0  0  0
 33 32  1  0  0  0  0
 34 36  1  0  0  0  0
 34 35  1  0  0  0  0
 37 36  2  0  0  0  0
M  END
>  <minimizedAffinity>
-5.3570056

$$$$

 OpenBabel03272503513D

 37 39  0  0  1  0  0  0  0  0999 V2000
   36.3230   27.1640   31.1080 C   0  0  1  0  0  0  0  0  0  0  0  0
   37.5420   27.1590   32.0550 C   0  0  2  0  0  0  0  0  0  0  0  0
   38.5880   27.4380   31.2340 O   0  0  0  0  0  0  0  0  0  0  0  0
   38.1440   28.5110   30.4760 C   0  0  0  0  0  0  0  0  0  0  0  0
   36.6600   28.3340   30.2120 C   0  0  2  0  0  0  0  0  0  0  0  0
   35.4050   27.3700   31.7130 H   0  0  0  0  0  0  0  0  0  0  0  0
   37.3030   27.8980   32.8450 H   0  0  0  0  0  0  0  0  0  0  0  0
   38.6650   28.4500   29.4970 H   0  0  0  0  0  0  0  0  0  0  0  0
   38.3740   29.4880   30.9160 H   0  0  0  0  0  0  0  0  0  0  0  0
   36.4860   27.9620   29.1710 H   0  0  0  0  0  0  0  0  0  0  0  0
   36.2070   25.9510   30.4630 O   0  0  0  0  0  0  0  0  0  0  0  0
   35.2630   25.6590   30.4970 H   0  0  0  0  0  0  0  0  0  0  0  0
   37.5290   25.9040   32.6210 O   0  0  0  0  0  0  0  0  0  0  0  0
   39.3090   26.6330   34.4330 O   0  0  0  0  0  0  0  0  0  0  0  0
   37.9920   25.8860   34.2380 P   0  0  1  0  0  0  0  0  0  0  0  0
   36.8670   26.7350   35.1760 O   0  0  0  0  0  0  0  0  0  0  0  0
   36.0070   26.2280   35.0870 H   0  0  0  0  0  0  0  0  0  0  0  0
   38.0620   24.2510   34.7180 O   0  0  0  0  0  0  0  0  0  0  0  0
   38.4460   23.8820   36.0000 C   0  0  0  0  0  0  0  0  0  0  0  0
   39.5710   23.0860   36.3110 C   0  0  0  0  0  0  0  0  0  0  0  0
   39.8260   22.8010   37.6440 C   0  0  0  0  0  0  0  0  0  0  0  0
   38.9820   23.2980   38.5910 N   0  0  0  0  0  0  0  0  0  0  0  0
   37.9110   24.0590   38.2630 C   0  0  0  0  0  0  0  0  0  0  0  0
   37.6390   24.3540   36.9610 N   0  0  0  0  0  0  0  0  0  0  0  0
   40.1410   22.7660   35.4740 H   0  0  0  0  0  0  0  0  0  0  0  0
   40.6880   22.1930   37.8660 H   0  0  0  0  0  0  0  0  0  0  0  0
   37.2730   24.4280   39.0610 H   0  0  0  0  0  0  0  0  0  0  0  0
   35.9680   29.4350   30.5740 O   0  0  0  0  0  0  0  0  0  0  0  0
   34.9640   29.6180   33.6380 Br  0  0  0  0  0  0  0  0  0  0  0  0
   35.8320   30.9140   32.5840 C   0  0  0  0  0  0  0  0  0  0  0  0
   36.1390   30.5440   31.3030 C   0  0  0  0  0  0  0  0  0  0  0  0
   36.7860   31.5190   30.5290 C   0  0  0  0  0  0  0  0  0  0  0  0
   37.1220   31.4440   29.4890 H   0  0  0  0  0  0  0  0  0  0  0  0
   37.0960   32.7880   31.0370 C   0  0  0  0  0  0  0  0  0  0  0  0
   37.5920   33.5700   30.4830 H   0  0  0  0  0  0  0  0  0  0  0  0
   36.7460   33.0680   32.3410 C   0  0  0  0  0  3  0  0  0  0  0  0
   36.1100   32.1430   33.1410 C   0  0  0  0  0  3  0  0  0  0  0  0
  1  6  1  1  0  0  0
  1  2  1  0  0  0  0
  2 13  1  0  0  0  0
  2  7  1  1  0  0  0
  3  2  1  0  0  0  0
  4  9  1  0  0  0  0
  4  3  1  0  0  0  0
  5 10  1  6  0  0  0
  5  4  1  0  0  0  0
  5 28  1  0  0  0  0
  5  1  1  0  0  0  0
  8  4  1  0  0  0  0
 11 12  1  0  0  0  0
 11  1  1  0  0  0  0
 13 15  1  0  0  0  0
 15 14  2  1  0  0  0
 15 18  1  0  0  0  0
 15 16  1  0  0  0  0
 17 16  1  0  0  0  0
 18 19  1  0  0  0  0
 19 20  2  0  0  0  0
 19 24  1  0  0  0  0
 20 21  1  0  0  0  0
 21 26  1  0  0  0  0
 21 22  2  0  0  0  0
 23 22  1  0  0  0  0
 23 27  1  0  0  0  0
 24 23  2  0  0  0  0
 25 20  1  0  0  0  0
 28 31  1  0  0  0  0
 30 37  1  0  0  0  0
 30 29  1  0  0  0  0
 31 30  2  0  0  0  0
 32 34  2  0  0  0  0
 32 31  1  0  0  0  0
 33 32  1  0  0  0  0
 34 36  1  0  0  0  0
 35 34  1  0  0  0  0
 36 37  2  0  0  0  0
M  END
>  <minimizedAffinity>
-5.3414588

$$$$

 OpenBabel03272503513D

 37 39  0  0  1  0  0  0  0  0999 V2000
   37.1490   25.1600   31.3240 C   0  0  1  0  0  0  0  0  0  0  0  0
   38.2460   24.0750   31.3000 C   0  0  2  0  0  0  0  0  0  0  0  0
   38.8810   24.2850   30.1180 O   0  0  0  0  0  0  0  0  0  0  0  0
   39.0840   25.6570   30.0840 C   0  0  0  0  0  0  0  0  0  0  0  0
   37.8960   26.3360   30.7380 C   0  0  2  0  0  0  0  0  0  0  0  0
   36.8630   25.3520   32.3890 H   0  0  0  0  0  0  0  0  0  0  0  0
   38.8330   24.2300   32.2280 H   0  0  0  0  0  0  0  0  0  0  0  0
   39.0900   25.9540   29.0150 H   0  0  0  0  0  0  0  0  0  0  0  0
   40.0370   25.9730   30.5230 H   0  0  0  0  0  0  0  0  0  0  0  0
   37.2080   26.7600   29.9640 H   0  0  0  0  0  0  0  0  0  0  0  0
   36.0480   24.7510   30.6020 O   0  0  0  0  0  0  0  0  0  0  0  0
   35.2320   24.9430   31.1250 H   0  0  0  0  0  0  0  0  0  0  0  0
   37.5560   22.8900   31.4200 O   0  0  0  0  0  0  0  0  0  0  0  0
   36.3220   21.4840   33.2870 O   0  0  0  0  0  0  0  0  0  0  0  0
   37.6170   22.2240   32.9640 P   0  0  1  0  0  0  0  0  0  0  0  0
   38.8260   21.0410   33.0410 O   0  0  0  0  0  0  0  0  0  0  0  0
   39.6870   21.5260   32.8700 H   0  0  0  0  0  0  0  0  0  0  0  0
   37.9570   23.5010   34.0430 O   0  0  0  0  0  0  0  0  0  0  0  0
   38.4980   23.2690   35.3010 C   0  0  0  0  0  0  0  0  0  0  0  0
   37.9410   23.7200   36.5180 C   0  0  0  0  0  0  0  0  0  0  0  0
   38.6000   23.4080   37.6980 C   0  0  0  0  0  0  0  0  0  0  0  0
   39.7530   22.6850   37.6300 N   0  0  0  0  0  0  0  0  0  0  0  0
   40.2640   22.2660   36.4480 C   0  0  0  0  0  0  0  0  0  0  0  0
   39.6350   22.5590   35.2750 N   0  0  0  0  0  0  0  0  0  0  0  0
   37.0390   24.2720   36.4220 H   0  0  0  0  0  0  0  0  0  0  0  0
   38.1630   23.7580   38.6190 H   0  0  0  0  0  0  0  0  0  0  0  0
   41.1870   21.6930   36.4560 H   0  0  0  0  0  0  0  0  0  0  0  0
   38.2960   27.1870   31.7080 O   0  0  0  0  0  0  0  0  0  0  0  0
   41.1880   26.4440   32.9380 Br  0  0  0  0  0  0  0  0  0  0  0  0
   39.5970   26.9220   33.8250 C   0  0  0  0  0  0  0  0  0  0  0  0
   38.5160   27.1850   33.0280 C   0  0  0  0  0  0  0  0  0  0  0  0
   37.3380   27.5400   33.7010 C   0  0  0  0  0  0  0  0  0  0  0  0
   36.3620   27.7910   33.2700 H   0  0  0  0  0  0  0  0  0  0  0  0
   37.2740   27.6200   35.0990 C   0  0  0  0  0  0  0  0  0  0  0  0
   36.3940   27.8880   35.6620 H   0  0  0  0  0  0  0  0  0  0  0  0
   38.4160   27.3360   35.8170 C   0  0  0  0  0  3  0  0  0  0  0  0
   39.5980   26.9830   35.2010 C   0  0  0  0  0  3  0  0  0  0  0  0
  1  6  1  1  0  0  0
  2  1  1  0  0  0  0
  2 13  1  0  0  0  0
  2  7  1  1  0  0  0
  3  2  1  0  0  0  0
  4  3  1  0  0  0  0
  4  9  1  0  0  0  0
  4  5  1  0  0  0  0
  5 10  1  6  0  0  0
  5  1  1  0  0  0  0
  5 28  1  0  0  0  0
  8  4  1  0  0  0  0
 11 12  1  0  0  0  0
 11  1  1  0  0  0  0
 13 15  1  0  0  0  0
 15 16  1  0  0  0  0
 15 14  2  1  0  0  0
 15 18  1  0  0  0  0
 17 16  1  0  0  0  0
 18 19  1  0  0  0  0
 19 20  1  0  0  0  0
 20 21  2  0  0  0  0
 21 26  1  0  0  0  0
 22 21  1  0  0  0  0
 23 27  1  0  0  0  0
 23 22  2  0  0  0  0
 24 19  2  0  0  0  0
 24 23  1  0  0  0  0
 25 20  1  0  0  0  0
 28 31  1  0  0  0  0
 29 30  1  0  0  0  0
 30 37  1  0  0  0  0
 31 32  1  0  0  0  0
 31 30  2  0  0  0  0
 32 34  2  0  0  0  0
 33 32  1  0  0  0  0
 34 35  1  0  0  0  0
 34 36  1  0  0  0  0
 37 36  2  0  0  0  0
M  END
>  <minimizedAffinity>
-5.25305176

$$$$

 OpenBabel03272503513D

 37 39  0  0  1  0  0  0  0  0999 V2000
   37.8610   27.3860   30.7060 C   0  0  1  0  0  0  0  0  0  0  0  0
   36.4870   27.8580   31.2260 C   0  0  2  0  0  0  0  0  0  0  0  0
   35.6870   26.7750   31.0490 O   0  0  0  0  0  0  0  0  0  0  0  0
   36.4330   25.7190   31.5500 C   0  0  0  0  0  0  0  0  0  0  0  0
   37.8950   25.9690   31.2320 C   0  0  2  0  0  0  0  0  0  0  0  0
   38.6560   28.0130   31.1830 H   0  0  0  0  0  0  0  0  0  0  0  0
   36.6670   28.1940   32.2670 H   0  0  0  0  0  0  0  0  0  0  0  0
   36.1220   24.8120   30.9910 H   0  0  0  0  0  0  0  0  0  0  0  0
   36.2670   25.5270   32.6160 H   0  0  0  0  0  0  0  0  0  0  0  0
   38.2220   25.3450   30.3620 H   0  0  0  0  0  0  0  0  0  0  0  0
   37.9250   27.5000   29.3340 O   0  0  0  0  0  0  0  0  0  0  0  0
   38.7860   27.9160   29.0860 H   0  0  0  0  0  0  0  0  0  0  0  0
   36.1950   28.9640   30.4610 O   0  0  0  0  0  0  0  0  0  0  0  0
   36.8440   31.4130   31.2140 O   0  0  0  0  0  0  0  0  0  0  0  0
   35.7860   30.3230   31.3640 P   0  0  1  0  0  0  0  0  0  0  0  0
   34.3610   31.0140   30.7650 O   0  0  0  0  0  0  0  0  0  0  0  0
   33.6500   30.3200   30.8960 H   0  0  0  0  0  0  0  0  0  0  0  0
   35.5700   29.8040   32.9740 O   0  0  0  0  0  0  0  0  0  0  0  0
   35.2540   30.6940   33.9920 C   0  0  0  0  0  0  0  0  0  0  0  0
   35.9070   30.7580   35.2440 C   0  0  0  0  0  0  0  0  0  0  0  0
   35.4760   31.7050   36.1620 C   0  0  0  0  0  0  0  0  0  0  0  0
   34.4450   32.5270   35.8170 N   0  0  0  0  0  0  0  0  0  0  0  0
   33.8390   32.4420   34.6090 C   0  0  0  0  0  0  0  0  0  0  0  0
   34.2430   31.5220   33.6900 N   0  0  0  0  0  0  0  0  0  0  0  0
   36.6930   30.0570   35.3770 H   0  0  0  0  0  0  0  0  0  0  0  0
   35.9840   31.7420   37.1120 H   0  0  0  0  0  0  0  0  0  0  0  0
   33.0220   33.1240   34.3910 H   0  0  0  0  0  0  0  0  0  0  0  0
   38.6560   25.8840   32.3440 O   0  0  0  0  0  0  0  0  0  0  0  0
   38.1090   23.0880   33.8650 Br  0  0  0  0  0  0  0  0  0  0  0  0
   38.2680   24.8250   34.5750 C   0  0  0  0  0  0  0  0  0  0  0  0
   38.5040   25.8260   33.6720 C   0  0  0  0  0  0  0  0  0  0  0  0
   38.6210   27.1160   34.2140 C   0  0  0  0  0  0  0  0  0  0  0  0
   38.8080   28.0570   33.6850 H   0  0  0  0  0  0  0  0  0  0  0  0
   38.5040   27.3590   35.5890 C   0  0  0  0  0  0  0  0  0  0  0  0
   38.5870   28.3290   36.0530 H   0  0  0  0  0  0  0  0  0  0  0  0
   38.2660   26.2840   36.4200 C   0  0  0  0  0  3  0  0  0  0  0  0
   38.1440   24.9990   35.9350 C   0  0  0  0  0  3  0  0  0  0  0  0
  1  6  1  1  0  0  0
  1  2  1  0  0  0  0
  1  5  1  0  0  0  0
  2  7  1  1  0  0  0
  3  2  1  0  0  0  0
  3  4  1  0  0  0  0
  4  9  1  0  0  0  0
  5 10  1  6  0  0  0
  5  4  1  0  0  0  0
  5 28  1  0  0  0  0
  8  4  1  0  0  0  0
 11  1  1  0  0  0  0
 12 11  1  0  0  0  0
 13  2  1  0  0  0  0
 13 15  1  0  0  0  0
 15 14  2  6  0  0  0
 15 18  1  0  0  0  0
 16 17  1  0  0  0  0
 16 15  1  0  0  0  0
 18 19  1  0  0  0  0
 19 20  1  0  0  0  0
 20 25  1  0  0  0  0
 20 21  2  0  0  0  0
 21 26  1  0  0  0  0
 22 21  1  0  0  0  0
 23 22  2  0  0  0  0
 24 19  2  0  0  0  0
 24 23  1  0  0  0  0
 27 23  1  0  0  0  0
 28 31  1  0  0  0  0
 29 30  1  0  0  0  0
 30 37  1  0  0  0  0
 31 32  1  0  0  0  0
 31 30  2  0  0  0  0
 32 34  2  0  0  0  0
 33 32  1  0  0  0  0
 34 35  1  0  0  0  0
 34 36  1  0  0  0  0
 37 36  2  0  0  0  0
M  END
>  <minimizedAffinity>
-5.25175905

$$$$

 OpenBabel03272503513D

 37 39  0  0  1  0  0  0  0  0999 V2000
   37.3460   25.1940   31.2810 C   0  0  1  0  0  0  0  0  0  0  0  0
   38.3900   24.0580   31.2950 C   0  0  2  0  0  0  0  0  0  0  0  0
   39.0870   24.2480   30.1440 O   0  0  0  0  0  0  0  0  0  0  0  0
   39.3560   25.6090   30.1340 C   0  0  0  0  0  0  0  0  0  0  0  0
   38.1730   26.3380   30.7420 C   0  0  2  0  0  0  0  0  0  0  0  0
   37.0220   25.3910   32.3340 H   0  0  0  0  0  0  0  0  0  0  0  0
   38.9410   24.1770   32.2490 H   0  0  0  0  0  0  0  0  0  0  0  0
   39.4240   25.9150   29.0690 H   0  0  0  0  0  0  0  0  0  0  0  0
   40.3030   25.8750   30.6180 H   0  0  0  0  0  0  0  0  0  0  0  0
   37.5420   26.8010   29.9420 H   0  0  0  0  0  0  0  0  0  0  0  0
   36.2600   24.8440   30.5060 O   0  0  0  0  0  0  0  0  0  0  0  0
   35.4310   25.0710   30.9950 H   0  0  0  0  0  0  0  0  0  0  0  0
   37.6400   22.9060   31.3700 O   0  0  0  0  0  0  0  0  0  0  0  0
   36.2630   21.5210   33.1500 O   0  0  0  0  0  0  0  0  0  0  0  0
   37.5920   22.2300   32.9100 P   0  0  1  0  0  0  0  0  0  0  0  0
   38.7650   21.0160   33.0500 O   0  0  0  0  0  0  0  0  0  0  0  0
   39.6460   21.4800   32.9340 H   0  0  0  0  0  0  0  0  0  0  0  0
   37.8990   23.4910   34.0170 O   0  0  0  0  0  0  0  0  0  0  0  0
   38.4910   23.2520   35.2500 C   0  0  0  0  0  0  0  0  0  0  0  0
   37.9410   23.6230   36.4980 C   0  0  0  0  0  0  0  0  0  0  0  0
   38.6540   23.3140   37.6480 C   0  0  0  0  0  0  0  0  0  0  0  0
   39.8500   22.6720   37.5220 N   0  0  0  0  0  0  0  0  0  0  0  0
   40.3510   22.3290   36.3120 C   0  0  0  0  0  0  0  0  0  0  0  0
   39.6710   22.6200   35.1680 N   0  0  0  0  0  0  0  0  0  0  0  0
   37.0040   24.1180   36.4470 H   0  0  0  0  0  0  0  0  0  0  0  0
   38.2220   23.6030   38.5920 H   0  0  0  0  0  0  0  0  0  0  0  0
   41.3090   21.8180   36.2740 H   0  0  0  0  0  0  0  0  0  0  0  0
   38.5690   27.1610   31.7380 O   0  0  0  0  0  0  0  0  0  0  0  0
   35.9500   28.4100   33.1560 Br  0  0  0  0  0  0  0  0  0  0  0  0
   37.5210   27.7250   33.9360 C   0  0  0  0  0  0  0  0  0  0  0  0
   38.4710   27.2570   33.0690 C   0  0  0  0  0  0  0  0  0  0  0  0
   39.6360   26.7490   33.6620 C   0  0  0  0  0  0  0  0  0  0  0  0
   40.5180   26.3270   33.1690 H   0  0  0  0  0  0  0  0  0  0  0  0
   39.8130   26.7230   35.0520 C   0  0  0  0  0  0  0  0  0  0  0  0
   40.6880   26.3430   35.5570 H   0  0  0  0  0  0  0  0  0  0  0  0
   38.7980   27.2180   35.8450 C   0  0  0  0  0  3  0  0  0  0  0  0
   37.6350   27.7270   35.3080 C   0  0  0  0  0  3  0  0  0  0  0  0
  1  2  1  0  0  0  0
  1  6  1  1  0  0  0
  2 13  1  0  0  0  0
  2  7  1  1  0  0  0
  3  2  1  0  0  0  0
  4  3  1  0  0  0  0
  4  9  1  0  0  0  0
  4  5  1  0  0  0  0
  5 10  1  6  0  0  0
  5  1  1  0  0  0  0
  5 28  1  0  0  0  0
  8  4  1  0  0  0  0
 11 12  1  0  0  0  0
 11  1  1  0  0  0  0
 13 15  1  0  0  0  0
 15 16  1  0  0  0  0
 15 14  2  1  0  0  0
 15 18  1  0  0  0  0
 17 16  1  0  0  0  0
 18 19  1  0  0  0  0
 19 20  1  0  0  0  0
 20 21  2  0  0  0  0
 21 26  1  0  0  0  0
 22 21  1  0  0  0  0
 23 22  2  0  0  0  0
 24 19  2  0  0  0  0
 24 23  1  0  0  0  0
 25 20  1  0  0  0  0
 27 23  1  0  0  0  0
 28 31  1  0  0  0  0
 29 30  1  0  0  0  0
 30 37  1  0  0  0  0
 31 32  1  0  0  0  0
 31 30  2  0  0  0  0
 32 34  2  0  0  0  0
 33 32  1  0  0  0  0
 34 35  1  0  0  0  0
 34 36  1  0  0  0  0
 37 36  2  0  0  0  0
M  END
>  <minimizedAffinity>
-5.21276045

$$$$
