
     RDKit          3D

 42 45  0  0  0  0  0  0  0  0999 V2000
   37.8216   30.3870   51.0946 C   0  0  0  0  0  0  0  0  0  0  0  0
   38.2193   30.9798   49.8806 C   0  0  0  0  0  0  0  0  0  0  0  0
   37.5834   30.5596   48.7289 C   0  0  0  0  0  0  0  0  0  0  0  0
   36.6347   29.6186   48.8506 N   0  0  0  0  0  0  0  0  0  0  0  0
   36.2622   29.0590   50.0139 C   0  0  0  0  0  0  0  0  0  0  0  0
   36.8656   29.4523   51.1396 N   0  0  0  0  0  0  0  0  0  0  0  0
   37.8944   31.0899   47.4248 C   0  0  0  0  0  0  0  0  0  0  0  0
   37.1070   30.7659   46.3228 C   0  0  0  0  0  0  0  0  0  0  0  0
   37.3549   31.2452   45.0531 C   0  0  0  0  0  0  0  0  0  0  0  0
   38.4118   32.0691   44.8654 N   0  0  0  0  0  0  0  0  0  0  0  0
   39.1561   32.3687   45.9357 C   0  0  0  0  0  0  0  0  0  0  0  0
   38.9355   31.9150   47.1814 N   0  0  0  0  0  0  0  0  0  0  0  0
   40.3242   33.2728   45.7559 C   0  0  0  0  0  0  0  0  0  0  0  0
   40.4355   34.0557   46.9260 F   0  0  0  0  0  0  0  0  0  0  0  0
   41.4706   32.5703   45.5106 F   0  0  0  0  0  0  0  0  0  0  0  0
   40.1080   34.1907   44.7439 F   0  0  0  0  0  0  0  0  0  0  0  0
   35.2626   28.1004   49.9530 O   0  0  0  0  0  0  0  0  0  0  0  0
   33.2900   27.1690   47.0068 N   0  0  0  0  0  0  0  0  0  0  0  0
   34.1720   27.0126   48.0026 C   0  0  0  0  0  0  0  0  0  0  0  0
   34.4092   28.0463   48.8746 C   0  0  0  0  0  0  0  0  0  0  0  0
   33.7125   29.2475   48.6932 C   0  0  0  0  0  0  0  0  0  0  0  0
   33.7690   30.3217   49.3663 O   0  0  0  0  0  0  0  0  0  0  0  0
   32.8329   29.3398   47.6643 N   0  0  0  0  0  0  0  0  0  0  0  0
   32.6232   28.3119   46.8292 C   0  0  0  0  0  0  0  0  0  0  0  0
   31.8060   28.3762   45.8612 O   0  0  0  0  0  0  0  0  0  0  0  0
   38.3055   30.7019   51.9994 H   0  0  0  0  0  0  0  0  0  0  0  0
   38.9846   31.7330   49.8160 H   0  0  0  0  0  0  0  0  0  0  0  0
   36.2562   30.1076   46.4524 H   0  0  0  0  0  0  0  0  0  0  0  0
   36.7197   30.9725   44.2128 H   0  0  0  0  0  0  0  0  0  0  0  0
   33.1845   26.3236   46.4025 H   0  0  0  0  0  0  0  0  0  0  0  0
   34.7399   26.1311   48.2054 H   0  0  0  0  0  0  0  0  0  0  0  0
   29.8099   28.9404   46.9518 Br  0  0  0  0  0  0  0  0  0  0  0  0
   30.7342   30.6072   47.0432 C   0  0  0  0  0  0  0  0  0  0  0  0
   32.0687   30.5066   47.3805 C   0  0  0  0  0  0  0  0  0  0  0  0
   32.8632   31.6515   47.4826 C   0  0  0  0  0  0  0  0  0  0  0  0
   33.9084   31.6926   47.7369 H   0  0  0  0  0  0  0  0  0  0  0  0
   32.3121   32.9144   47.2434 C   0  0  0  0  0  0  0  0  0  0  0  0
   32.8804   33.8300   47.3086 H   0  0  0  0  0  0  0  0  0  0  0  0
   30.9706   32.9795   46.9073 C   0  0  0  0  0  0  0  0  0  0  0  0
   30.1831   31.8503   46.8056 C   0  0  0  0  0  0  0  0  0  0  0  0
   30.5018   33.9501   46.7124 H   0  0  0  0  0  0  0  0  0  0  0  0
   29.1409   31.8537   46.5484 H   0  0  0  0  0  0  0  0  0  0  0  0
  1  6  2  0
  2  1  1  0
  3  4  1  0
  3  2  2  0
  4  5  2  0
  5  6  1  0
  7  3  1  0
  8  7  2  0
  9  8  1  0
 10  9  2  0
 10 11  1  0
 11 12  2  0
 12  7  1  0
 13 11  1  0
 13 14  1  0
 15 13  1  0
 16 13  1  0
 17  5  1  0
 18 19  1  0
 19 20  2  0
 20 17  1  0
 21 20  1  0
 21 22  2  0
 23 21  1  0
 24 18  1  0
 24 23  1  0
 25 24  2  0
  1 26  1  0
  2 27  1  0
  8 28  1  0
  9 29  1  0
 18 30  1  0
 19 31  1  0
 32 33  1  0
 33 34  2  0
 34 35  1  0
 35 36  1  0
 35 37  2  0
 37 38  1  0
 37 39  1  0
 39 40  2  0
 40 33  1  0
 39 41  1  0
 40 42  1  0
 23 34  1  0
M  ISO  8  26  14  27  14  28  14  29  14  30   9  31  14  36  15  38  16
M  END
>  <DihAtoms>  (1) 
20,22,33,32

>  <DihDeg>  (1) 
118.62219767830207

$$$$
