REMARK  Name = 
REMARK  3 active torsions:
REMARK  status: ('A' for Active; 'I' for Inactive)
REMARK    1  A    between atoms: C_1  and  N_9
REMARK    2  A    between atoms: C_2  and  N_10
REMARK    3  A    between atoms: N_15  and  C_26
REMARK                            x       y       z     vdW  Elec       q    Type
REMARK                         _______ _______ _______ _____ _____    ______ ____
ROOT
ATOM      1  N   UNL     1      36.715  31.329  48.961  0.00  0.00    +0.000 N 
ATOM      2  C   UNL     1      36.551  32.335  49.820  0.00  0.00    +0.000 A 
ATOM      3  C   UNL     1      37.530  33.319  49.928  0.00  0.00    +0.000 A 
ATOM      4  C   UNL     1      38.605  33.148  49.106  0.00  0.00    +0.000 A 
ATOM      5  O   UNL     1      39.493  34.051  49.211  0.00  0.00    +0.000 OA
ATOM      6  N   UNL     1      38.806  32.164  48.238  0.00  0.00    +0.000 N 
ATOM      7  C   UNL     1      37.823  31.234  48.174  0.00  0.00    +0.000 A 
ATOM      8  O   UNL     1      37.994  30.284  47.352  0.00  0.00    +0.000 OA
ATOM      9  H   UNL     1      35.654  32.379  50.432  0.00  0.00    +0.000 HD
ATOM     10  H   UNL     1      37.430  34.152  50.617  0.00  0.00    +0.000 HD
ENDROOT
BRANCH   6  13
ATOM     11 BR   UNL     1      39.774  34.736  46.735  0.00  0.00    +0.000 Br
ATOM     12  C   UNL     1      40.586  33.012  46.651  0.00  0.00    +0.000 A 
ATOM     13  C   UNL     1      39.954  32.052  47.414  0.00  0.00    +0.000 A 
ATOM     14  C   UNL     1      40.454  30.759  47.431  0.00  0.00    +0.000 A 
ATOM     15  H   UNL     1      40.046  29.905  47.995  0.00  0.00    +0.000 HD
ATOM     16  C   UNL     1      41.582  30.405  46.696  0.00  0.00    +0.000 A 
ATOM     17  H   UNL     1      41.997  29.402  46.690  0.00  0.00    +0.000 HD
ATOM     18  C   UNL     1      42.206  31.395  45.929  0.00  0.00    +0.000 A 
ATOM     19  C   UNL     1      41.704  32.680  45.915  0.00  0.00    +0.000 A 
ENDBRANCH   6  13
BRANCH   1  21
ATOM     20  C   UNL     1      35.645  29.335  49.840  0.00  0.00    +0.000 A 
ATOM     21  C   UNL     1      35.747  30.280  48.806  0.00  0.00    +0.000 A 
ATOM     22  C   UNL     1      34.914  30.159  47.688  0.00  0.00    +0.000 A 
ATOM     23  N   UNL     1      34.041  29.122  47.661  0.00  0.00    +0.000 NA
ATOM     24  C   UNL     1      33.947  28.232  48.635  0.00  0.00    +0.000 A 
ATOM     25  N   UNL     1      34.741  28.335  49.717  0.00  0.00    +0.000 NA
ATOM     26  H   UNL     1      35.013  30.909  46.897  0.00  0.00    +0.000 HD
ATOM     27  H   UNL     1      33.243  27.403  48.603  0.00  0.00    +0.000 HD
BRANCH  20  30
ATOM     28  C   UNL     1      37.659  30.037  51.333  0.00  0.00    +0.000 C 
ATOM     29  O   UNL     1      38.203  30.838  50.553  0.00  0.00    +0.000 OA
ATOM     30  N   UNL     1      36.428  29.372  51.014  0.00  0.00    +0.000 N 
ATOM     31  H   UNL     1      38.203  29.916  52.225  0.00  0.00    +0.000 HD
ATOM     32  H   UNL     1      36.099  28.827  51.861  0.00  0.00    +0.000 HD
ENDBRANCH  20  30
ENDBRANCH   1  21
TORSDOF 3
