REMARK  Name = 
REMARK  3 active torsions:
REMARK  status: ('A' for Active; 'I' for Inactive)
REMARK    1  A    between atoms: C_3  and  C_13
REMARK    2  A    between atoms: C_8  and  C_15
REMARK    3  A    between atoms: C_15  and  C_25
REMARK                            x       y       z     vdW  Elec       q    Type
REMARK                         _______ _______ _______ _____ _____    ______ ____
ROOT
ATOM      1 CL   UNL     1      38.473  30.808  49.855  0.00  0.00    +0.000 Cl
ATOM      2  C   UNL     1      37.094  30.358  48.890  0.00  0.00    +0.000 A 
ATOM      3  C   UNL     1      37.094  30.634  47.531  0.00  0.00    +0.000 A 
ATOM      4  C   UNL     1      36.027  30.301  46.727  0.00  0.00    +0.000 A 
ATOM      5  C   UNL     1      34.919  29.678  47.260  0.00  0.00    +0.000 A 
ATOM      6  C   UNL     1      34.882  29.390  48.601  0.00  0.00    +0.000 A 
ATOM      7 CL   UNL     1      33.534  28.613  49.409  0.00  0.00    +0.000 Cl
ATOM      8  C   UNL     1      35.973  29.736  49.383  0.00  0.00    +0.000 A 
ATOM      9  H   UNL     1      35.985  30.496  45.664  0.00  0.00    +0.000 HD
ATOM     10  H   UNL     1      34.063  29.402  46.660  0.00  0.00    +0.000 HD
ENDROOT
BRANCH   3  15
ATOM     11  C   UNL     1      39.593  33.163  46.643  0.00  0.00    +0.000 A 
ATOM     12  C   UNL     1      40.464  32.470  45.799  0.00  0.00    +0.000 A 
ATOM     13  C   UNL     1      40.172  31.119  45.543  0.00  0.00    +0.000 A 
ATOM     14  N   UNL     1      39.068  30.555  46.123  0.00  0.00    +0.000 NA
ATOM     15  C   UNL     1      38.252  31.286  46.942  0.00  0.00    +0.000 A 
ATOM     16  N   UNL     1      38.530  32.570  47.185  0.00  0.00    +0.000 NA
ATOM     17  H   UNL     1      39.871  34.195  46.799  0.00  0.00    +0.000 HD
ATOM     18  H   UNL     1      41.353  32.841  45.303  0.00  0.00    +0.000 HD
ATOM     19  H   UNL     1      40.748  30.442  44.913  0.00  0.00    +0.000 HD
ENDBRANCH   3  15
BRANCH   8  20
ATOM     20  C   UNL     1      35.974  29.429  50.860  0.00  0.00    +0.000 C 
ATOM     21  H   UNL     1      36.289  30.352  51.386  0.00  0.00    +0.000 HD
ATOM     22  H   UNL     1      34.941  29.148  51.117  0.00  0.00    +0.000 HD
BRANCH  20  25
ATOM     23 BR   UNL     1      35.670  27.316  48.675  0.00  0.00    +0.000 Br
ATOM     24  C   UNL     1      36.804  27.241  50.226  0.00  0.00    +0.000 A 
ATOM     25  C   UNL     1      36.862  28.272  51.143  0.00  0.00    +0.000 A 
ATOM     26  C   UNL     1      37.701  28.188  52.260  0.00  0.00    +0.000 A 
ATOM     27  H   UNL     1      37.708  29.026  52.950  0.00  0.00    +0.000 HD
ATOM     28  C   UNL     1      38.473  27.046  52.427  0.00  0.00    +0.000 A 
ATOM     29  H   UNL     1      39.127  26.991  53.310  0.00  0.00    +0.000 HD
ATOM     30  C   UNL     1      38.441  25.986  51.524  0.00  0.00    +0.000 A 
ATOM     31  C   UNL     1      37.593  26.100  50.418  0.00  0.00    +0.000 A 
ENDBRANCH  20  25
ENDBRANCH   8  20
TORSDOF 3
