
 OpenBabel03272504103D

 33 35  0  0  0  0  0  0  0  0999 V2000
   38.5350   26.1080   36.1600 C   0  0  0  0  0  0  0  0  0  0  0  0
   38.7660   24.9630   35.3840 C   0  0  0  0  0  0  0  0  0  0  0  0
   38.2010   24.8690   34.0910 C   0  0  0  0  0  0  0  0  0  0  0  0
   37.4510   25.9150   33.6640 N   0  0  0  0  0  0  0  0  0  0  0  0
   37.2510   27.0170   34.4540 C   0  0  0  0  0  0  0  0  0  0  0  0
   37.7930   27.1090   35.6960 N   0  0  0  0  0  0  0  0  0  0  0  0
   36.4450   28.0800   33.9240 N   0  0  0  0  0  0  0  0  0  0  0  0
   38.9680   26.1820   37.1490 H   0  0  0  0  0  0  0  0  0  0  0  0
   36.9070   29.0210   33.8640 H   0  0  0  0  0  0  0  0  0  0  0  0
   35.4620   28.0120   33.5930 H   0  0  0  0  0  0  0  0  0  0  0  0
   37.6760   23.0760   37.5120 Cl  0  0  0  0  0  0  0  0  0  0  0  0
   39.3130   22.9710   36.9330 C   0  0  0  0  0  0  0  0  0  0  0  0
   39.6130   23.8920   35.9760 C   0  0  0  0  0  0  0  0  0  0  0  0
   40.9080   23.8920   35.4360 C   0  0  0  0  0  0  0  0  0  0  0  0
   41.8670   23.0090   35.8340 C   0  0  0  0  0  0  0  0  0  0  0  0
   41.5240   22.0780   36.8180 C   0  0  0  0  0  0  0  0  0  0  0  0
   42.6970   20.9160   37.3650 Cl  0  0  0  0  0  0  0  0  0  0  0  0
   40.2600   22.0760   37.3470 C   0  0  0  0  0  0  0  0  0  0  0  0
   41.2740   24.5560   34.6660 H   0  0  0  0  0  0  0  0  0  0  0  0
   42.8770   22.9620   35.4620 H   0  0  0  0  0  0  0  0  0  0  0  0
   39.9180   21.3780   38.1110 H   0  0  0  0  0  0  0  0  0  0  0  0
   38.4530   23.6740   33.3110 C   0  0  0  0  0  0  0  0  0  0  0  0
   38.7840   24.0190   32.2860 H   0  0  0  0  0  0  0  0  0  0  0  0
   39.3580   23.1530   33.7460 H   0  0  0  0  0  0  0  0  0  0  0  0
   36.8880   24.0740   30.7190 Br  0  0  0  0  0  0  0  0  0  0  0  0
   36.5300   22.7630   32.0850 C   0  0  0  0  0  0  0  0  0  0  0  0
   37.3510   22.7140   33.2020 C   0  0  0  0  0  0  0  0  0  0  0  0
   37.1130   21.7710   34.1950 C   0  0  0  0  0  0  0  0  0  0  0  0
   37.7030   21.6900   35.0770 H   0  0  0  0  0  0  0  0  0  0  0  0
   36.0600   20.8720   34.0880 C   0  0  0  0  0  0  0  0  0  0  0  0
   35.8720   20.1280   34.8840 H   0  0  0  0  0  0  0  0  0  0  0  0
   35.2500   20.9310   32.9740 C   0  0  0  0  0  3  0  0  0  0  0  0
   35.4720   21.8700   31.9650 C   0  0  0  0  0  3  0  0  0  0  0  0
  1  8  1  0  0  0  0
  2 13  1  0  0  0  0
  2  1  2  0  0  0  0
  3  2  1  0  0  0  0
  4  3  2  0  0  0  0
  4  5  1  0  0  0  0
  5  6  2  0  0  0  0
  6  1  1  0  0  0  0
  7  5  1  0  0  0  0
  9  7  1  0  0  0  0
 10  7  1  0  0  0  0
 12 18  1  0  0  0  0
 12 11  1  0  0  0  0
 13 12  2  0  0  0  0
 14 15  2  0  0  0  0
 14 13  1  0  0  0  0
 15 16  1  0  0  0  0
 16 18  2  0  0  0  0
 16 17  1  0  0  0  0
 18 21  1  0  0  0  0
 19 14  1  0  0  0  0
 20 15  1  0  0  0  0
 22 24  1  0  0  0  0
 22  3  1  0  0  0  0
 23 22  1  0  0  0  0
 25 26  1  0  0  0  0
 26 27  1  0  0  0  0
 27 22  1  0  0  0  0
 27 28  2  0  0  0  0
 28 29  1  0  0  0  0
 30 28  1  0  0  0  0
 30 31  1  0  0  0  0
 32 30  2  0  0  0  0
 33 26  2  0  0  0  0
 33 32  1  0  0  0  0
M  END
>  <minimizedAffinity>
-5.82887745

$$$$

 OpenBabel03272504103D

 33 35  0  0  0  0  0  0  0  0999 V2000
   38.1830   25.5350   36.4350 C   0  0  0  0  0  0  0  0  0  0  0  0
   38.3490   24.9120   35.1900 C   0  0  0  0  0  0  0  0  0  0  0  0
   38.4790   23.5040   35.1240 C   0  0  0  0  0  0  0  0  0  0  0  0
   38.4350   22.8230   36.2950 N   0  0  0  0  0  0  0  0  0  0  0  0
   38.2700   23.4710   37.4920 C   0  0  0  0  0  0  0  0  0  0  0  0
   38.1450   24.8220   37.5560 N   0  0  0  0  0  0  0  0  0  0  0  0
   38.2320   22.6720   38.6840 N   0  0  0  0  0  0  0  0  0  0  0  0
   38.0820   26.6110   36.4860 H   0  0  0  0  0  0  0  0  0  0  0  0
   37.3640   22.7580   39.2670 H   0  0  0  0  0  0  0  0  0  0  0  0
   38.9690   22.0210   39.0210 H   0  0  0  0  0  0  0  0  0  0  0  0
   40.9750   25.9110   34.0140 Cl  0  0  0  0  0  0  0  0  0  0  0  0
   39.4340   26.3320   33.3270 C   0  0  0  0  0  0  0  0  0  0  0  0
   38.3750   25.7830   33.9830 C   0  0  0  0  0  0  0  0  0  0  0  0
   37.0830   26.0540   33.5080 C   0  0  0  0  0  0  0  0  0  0  0  0
   36.8550   26.8430   32.4200 C   0  0  0  0  0  0  0  0  0  0  0  0
   37.9650   27.3900   31.7700 C   0  0  0  0  0  0  0  0  0  0  0  0
   37.7460   28.3970   30.3690 Cl  0  0  0  0  0  0  0  0  0  0  0  0
   39.2280   27.1260   32.2330 C   0  0  0  0  0  0  0  0  0  0  0  0
   36.1610   25.6750   33.9240 H   0  0  0  0  0  0  0  0  0  0  0  0
   35.8900   27.0910   32.0100 H   0  0  0  0  0  0  0  0  0  0  0  0
   40.1390   27.5110   31.7760 H   0  0  0  0  0  0  0  0  0  0  0  0
   38.6510   22.8850   33.8260 C   0  0  0  0  0  0  0  0  0  0  0  0
   39.0390   23.6890   33.1320 H   0  0  0  0  0  0  0  0  0  0  0  0
   39.4970   22.1370   33.9010 H   0  0  0  0  0  0  0  0  0  0  0  0
   38.3180   23.6030   30.8760 Br  0  0  0  0  0  0  0  0  0  0  0  0
   37.1710   22.4540   31.9140 C   0  0  0  0  0  0  0  0  0  0  0  0
   37.4760   22.2260   33.2480 C   0  0  0  0  0  0  0  0  0  0  0  0
   36.6660   21.3950   34.0120 C   0  0  0  0  0  0  0  0  0  0  0  0
   36.8430   21.1890   35.0410 H   0  0  0  0  0  0  0  0  0  0  0  0
   35.5480   20.7840   33.4590 C   0  0  0  0  0  0  0  0  0  0  0  0
   34.9030   20.1280   34.0730 H   0  0  0  0  0  0  0  0  0  0  0  0
   35.2550   21.0170   32.1320 C   0  0  0  0  0  3  0  0  0  0  0  0
   36.0560   21.8490   31.3480 C   0  0  0  0  0  3  0  0  0  0  0  0
  1  8  1  0  0  0  0
  1  6  1  0  0  0  0
  2  1  2  0  0  0  0
  3  2  1  0  0  0  0
  3  4  2  0  0  0  0
  4  5  1  0  0  0  0
  5  6  2  0  0  0  0
  5  7  1  0  0  0  0
  7 10  1  0  0  0  0
  7  9  1  0  0  0  0
 12 13  1  0  0  0  0
 12 11  1  0  0  0  0
 13  2  1  0  0  0  0
 14 19  1  0  0  0  0
 14 13  2  0  0  0  0
 15 14  1  0  0  0  0
 16 18  1  0  0  0  0
 16 15  2  0  0  0  0
 17 16  1  0  0  0  0
 18 12  2  0  0  0  0
 20 15  1  0  0  0  0
 21 18  1  0  0  0  0
 22 24  1  0  0  0  0
 22  3  1  0  0  0  0
 23 22  1  0  0  0  0
 25 26  1  0  0  0  0
 26 27  1  0  0  0  0
 27 22  1  0  0  0  0
 27 28  2  0  0  0  0
 28 29  1  0  0  0  0
 30 28  1  0  0  0  0
 30 31  1  0  0  0  0
 32 30  2  0  0  0  0
 33 26  2  0  0  0  0
 33 32  1  0  0  0  0
M  END
>  <minimizedAffinity>
-5.82370377

$$$$

 OpenBabel03272504103D

 33 35  0  0  0  0  0  0  0  0999 V2000
   40.7670   27.2030   32.9710 C   0  0  0  0  0  0  0  0  0  0  0  0
   40.0140   26.0760   33.3310 C   0  0  0  0  0  0  0  0  0  0  0  0
   40.5730   25.1110   34.2010 C   0  0  0  0  0  0  0  0  0  0  0  0
   41.8330   25.3340   34.6480 N   0  0  0  0  0  0  0  0  0  0  0  0
   42.5350   26.4500   34.2720 C   0  0  0  0  0  0  0  0  0  0  0  0
   42.0000   27.3780   33.4370 N   0  0  0  0  0  0  0  0  0  0  0  0
   43.8630   26.6100   34.7930 N   0  0  0  0  0  0  0  0  0  0  0  0
   40.3400   27.9430   32.3070 H   0  0  0  0  0  0  0  0  0  0  0  0
   44.0390   27.4870   35.3410 H   0  0  0  0  0  0  0  0  0  0  0  0
   44.6580   25.9480   34.6860 H   0  0  0  0  0  0  0  0  0  0  0  0
   37.6410   27.4460   34.6590 Cl  0  0  0  0  0  0  0  0  0  0  0  0
   37.4670   26.4820   33.2220 C   0  0  0  0  0  0  0  0  0  0  0  0
   38.6400   25.9600   32.7700 C   0  0  0  0  0  0  0  0  0  0  0  0
   38.6140   25.1680   31.6120 C   0  0  0  0  0  0  0  0  0  0  0  0
   37.4630   24.9070   30.9310 C   0  0  0  0  0  0  0  0  0  0  0  0
   36.2780   25.4610   31.4220 C   0  0  0  0  0  0  0  0  0  0  0  0
   34.7740   25.1760   30.5940 Cl  0  0  0  0  0  0  0  0  0  0  0  0
   36.3000   26.2340   32.5530 C   0  0  0  0  0  0  0  0  0  0  0  0
   39.4690   24.7040   31.1410 H   0  0  0  0  0  0  0  0  0  0  0  0
   37.3770   24.3060   30.0410 H   0  0  0  0  0  0  0  0  0  0  0  0
   35.4200   26.7020   32.9910 H   0  0  0  0  0  0  0  0  0  0  0  0
   39.7740   23.9540   34.5560 C   0  0  0  0  0  0  0  0  0  0  0  0
   38.8670   23.9680   33.8820 H   0  0  0  0  0  0  0  0  0  0  0  0
   40.3450   23.0250   34.2530 H   0  0  0  0  0  0  0  0  0  0  0  0
   41.5230   21.9370   36.0390 Br  0  0  0  0  0  0  0  0  0  0  0  0
   40.0610   22.9510   36.7790 C   0  0  0  0  0  0  0  0  0  0  0  0
   39.3740   23.8360   35.9610 C   0  0  0  0  0  0  0  0  0  0  0  0
   38.3210   24.5820   36.4780 C   0  0  0  0  0  0  0  0  0  0  0  0
   37.7520   25.2690   35.8990 H   0  0  0  0  0  0  0  0  0  0  0  0
   37.9420   24.4540   37.8080 C   0  0  0  0  0  0  0  0  0  0  0  0
   37.1000   25.0450   38.2120 H   0  0  0  0  0  0  0  0  0  0  0  0
   38.6320   23.5710   38.6110 C   0  0  0  0  0  3  0  0  0  0  0  0
   39.6930   22.8140   38.1110 C   0  0  0  0  0  3  0  0  0  0  0  0
  1  2  2  0  0  0  0
  1  6  1  0  0  0  0
  2  3  1  0  0  0  0
  3 22  1  0  0  0  0
  3  4  2  0  0  0  0
  5  4  1  0  0  0  0
  5  7  1  0  0  0  0
  6  5  2  0  0  0  0
  7  9  1  0  0  0  0
  8  1  1  0  0  0  0
 10  7  1  0  0  0  0
 12 11  1  0  0  0  0
 13 12  1  0  0  0  0
 13  2  1  0  0  0  0
 14 13  2  0  0  0  0
 15 16  2  0  0  0  0
 15 14  1  0  0  0  0
 16 18  1  0  0  0  0
 17 16  1  0  0  0  0
 18 21  1  0  0  0  0
 18 12  2  0  0  0  0
 19 14  1  0  0  0  0
 20 15  1  0  0  0  0
 22 27  1  0  0  0  0
 23 22  1  0  0  0  0
 24 22  1  0  0  0  0
 25 26  1  0  0  0  0
 26 33  1  0  0  0  0
 27 28  1  0  0  0  0
 27 26  2  0  0  0  0
 28 30  2  0  0  0  0
 29 28  1  0  0  0  0
 30 31  1  0  0  0  0
 30 32  1  0  0  0  0
 33 32  2  0  0  0  0
M  END
>  <minimizedAffinity>
-5.79158831

$$$$

 OpenBabel03272504103D

 33 35  0  0  0  0  0  0  0  0999 V2000
   35.8290   22.6710   31.8010 C   0  0  0  0  0  0  0  0  0  0  0  0
   36.9330   23.3100   32.3830 C   0  0  0  0  0  0  0  0  0  0  0  0
   37.5580   22.7350   33.5150 C   0  0  0  0  0  0  0  0  0  0  0  0
   37.0420   21.5720   33.9840 N   0  0  0  0  0  0  0  0  0  0  0  0
   35.9610   20.9790   33.3840 C   0  0  0  0  0  0  0  0  0  0  0  0
   35.3610   21.5300   32.2970 N   0  0  0  0  0  0  0  0  0  0  0  0
   35.4800   19.7480   33.9440 N   0  0  0  0  0  0  0  0  0  0  0  0
   35.3520   23.1080   30.9340 H   0  0  0  0  0  0  0  0  0  0  0  0
   35.4620   18.9240   33.2950 H   0  0  0  0  0  0  0  0  0  0  0  0
   35.1540   19.5920   34.9190 H   0  0  0  0  0  0  0  0  0  0  0  0
   39.1250   23.3290   30.2700 Cl  0  0  0  0  0  0  0  0  0  0  0  0
   38.3620   24.7900   30.8230 C   0  0  0  0  0  0  0  0  0  0  0  0
   37.3980   24.5800   31.7620 C   0  0  0  0  0  0  0  0  0  0  0  0
   36.7140   25.6930   32.2740 C   0  0  0  0  0  0  0  0  0  0  0  0
   36.9790   26.9660   31.8650 C   0  0  0  0  0  0  0  0  0  0  0  0
   37.9730   27.1440   30.8990 C   0  0  0  0  0  0  0  0  0  0  0  0
   38.3550   28.7410   30.3250 Cl  0  0  0  0  0  0  0  0  0  0  0  0
   38.6430   26.0590   30.3980 C   0  0  0  0  0  0  0  0  0  0  0  0
   35.9240   25.6690   33.0100 H   0  0  0  0  0  0  0  0  0  0  0  0
   36.4930   27.8590   32.2220 H   0  0  0  0  0  0  0  0  0  0  0  0
   39.4240   26.1190   29.6400 H   0  0  0  0  0  0  0  0  0  0  0  0
   38.6950   23.4170   34.0990 C   0  0  0  0  0  0  0  0  0  0  0  0
   39.6200   22.9630   33.6330 H   0  0  0  0  0  0  0  0  0  0  0  0
   38.6870   24.4890   33.7380 H   0  0  0  0  0  0  0  0  0  0  0  0
   41.2340   21.9950   35.0240 Br  0  0  0  0  0  0  0  0  0  0  0  0
   39.8850   22.7840   36.1510 C   0  0  0  0  0  0  0  0  0  0  0  0
   38.7930   23.4020   35.5610 C   0  0  0  0  0  0  0  0  0  0  0  0
   37.8120   23.9830   36.3570 C   0  0  0  0  0  0  0  0  0  0  0  0
   36.9490   24.4640   35.9630 H   0  0  0  0  0  0  0  0  0  0  0  0
   37.9080   23.9550   37.7420 C   0  0  0  0  0  0  0  0  0  0  0  0
   37.1220   24.4140   38.3700 H   0  0  0  0  0  0  0  0  0  0  0  0
   38.9980   23.3380   38.3170 C   0  0  0  0  0  3  0  0  0  0  0  0
   39.9940   22.7480   37.5360 C   0  0  0  0  0  3  0  0  0  0  0  0
  1  6  2  0  0  0  0
  1  2  1  0  0  0  0
  2  3  2  0  0  0  0
  3  4  1  0  0  0  0
  3 22  1  0  0  0  0
  5  7  1  0  0  0  0
  5  4  2  0  0  0  0
  6  5  1  0  0  0  0
  7 10  1  0  0  0  0
  8  1  1  0  0  0  0
  9  7  1  0  0  0  0
 11 12  1  0  0  0  0
 12 13  1  0  0  0  0
 13 14  2  0  0  0  0
 13  2  1  0  0  0  0
 14 19  1  0  0  0  0
 15 20  1  0  0  0  0
 15 14  1  0  0  0  0
 16 15  2  0  0  0  0
 17 16  1  0  0  0  0
 18 12  2  0  0  0  0
 18 16  1  0  0  0  0
 21 18  1  0  0  0  0
 22 27  1  0  0  0  0
 23 22  1  0  0  0  0
 24 22  1  0  0  0  0
 25 26  1  0  0  0  0
 26 33  1  0  0  0  0
 27 26  2  0  0  0  0
 27 28  1  0  0  0  0
 28 30  2  0  0  0  0
 29 28  1  0  0  0  0
 30 32  1  0  0  0  0
 30 31  1  0  0  0  0
 33 32  2  0  0  0  0
M  END
>  <minimizedAffinity>
-5.60176706

$$$$

 OpenBabel03272504103D

 33 35  0  0  0  0  0  0  0  0999 V2000
   37.4190   25.5430   33.2770 C   0  0  0  0  0  0  0  0  0  0  0  0
   37.9030   24.2380   33.1060 C   0  0  0  0  0  0  0  0  0  0  0  0
   37.5080   23.4890   31.9730 C   0  0  0  0  0  0  0  0  0  0  0  0
   36.6640   24.0870   31.0970 N   0  0  0  0  0  0  0  0  0  0  0  0
   36.2140   25.3670   31.3020 C   0  0  0  0  0  0  0  0  0  0  0  0
   36.5930   26.0870   32.3890 N   0  0  0  0  0  0  0  0  0  0  0  0
   35.3240   25.9250   30.3240 N   0  0  0  0  0  0  0  0  0  0  0  0
   37.7220   26.1180   34.1420 H   0  0  0  0  0  0  0  0  0  0  0  0
   35.6450   26.8130   29.8650 H   0  0  0  0  0  0  0  0  0  0  0  0
   34.4060   25.5400   30.0250 H   0  0  0  0  0  0  0  0  0  0  0  0
   40.9250   24.3570   32.7430 Cl  0  0  0  0  0  0  0  0  0  0  0  0
   40.1900   23.6590   34.1570 C   0  0  0  0  0  0  0  0  0  0  0  0
   38.8290   23.7070   34.1430 C   0  0  0  0  0  0  0  0  0  0  0  0
   38.1340   23.1740   35.2400 C   0  0  0  0  0  0  0  0  0  0  0  0
   38.7700   22.6170   36.3080 C   0  0  0  0  0  0  0  0  0  0  0  0
   40.1670   22.5860   36.2890 C   0  0  0  0  0  0  0  0  0  0  0  0
   41.0430   21.8990   37.6250 Cl  0  0  0  0  0  0  0  0  0  0  0  0
   40.8480   23.1050   35.2190 C   0  0  0  0  0  0  0  0  0  0  0  0
   37.0600   23.1580   35.3630 H   0  0  0  0  0  0  0  0  0  0  0  0
   38.2940   22.1900   37.1750 H   0  0  0  0  0  0  0  0  0  0  0  0
   41.9340   23.1220   35.1360 H   0  0  0  0  0  0  0  0  0  0  0  0
   38.0210   22.1420   31.8200 C   0  0  0  0  0  0  0  0  0  0  0  0
   38.4560   22.0770   30.7780 H   0  0  0  0  0  0  0  0  0  0  0  0
   38.9100   22.0230   32.5110 H   0  0  0  0  0  0  0  0  0  0  0  0
   38.2270   20.0140   29.6390 Br  0  0  0  0  0  0  0  0  0  0  0  0
   37.0320   19.9970   31.1510 C   0  0  0  0  0  0  0  0  0  0  0  0
   37.0770   21.0460   32.0570 C   0  0  0  0  0  0  0  0  0  0  0  0
   36.2290   21.0490   33.1580 C   0  0  0  0  0  0  0  0  0  0  0  0
   36.2110   21.8290   33.8810 H   0  0  0  0  0  0  0  0  0  0  0  0
   35.3290   20.0110   33.3670 C   0  0  0  0  0  0  0  0  0  0  0  0
   34.6520   20.0210   34.2410 H   0  0  0  0  0  0  0  0  0  0  0  0
   35.2930   18.9740   32.4600 C   0  0  0  0  0  3  0  0  0  0  0  0
   36.1370   18.9520   31.3490 C   0  0  0  0  0  3  0  0  0  0  0  0
  1  8  1  0  0  0  0
  2  1  1  0  0  0  0
  2 13  1  0  0  0  0
  3  2  2  0  0  0  0
  4  5  2  0  0  0  0
  4  3  1  0  0  0  0
  5  6  1  0  0  0  0
  6  1  2  0  0  0  0
  7  5  1  0  0  0  0
  9  7  1  0  0  0  0
 10  7  1  0  0  0  0
 11 12  1  0  0  0  0
 12 18  1  0  0  0  0
 13 12  2  0  0  0  0
 13 14  1  0  0  0  0
 14 19  1  0  0  0  0
 14 15  2  0  0  0  0
 15 20  1  0  0  0  0
 16 15  1  0  0  0  0
 16 17  1  0  0  0  0
 18 16  2  0  0  0  0
 21 18  1  0  0  0  0
 22  3  1  0  0  0  0
 22 27  1  0  0  0  0
 22 24  1  0  0  0  0
 23 22  1  0  0  0  0
 25 26  1  0  0  0  0
 26 33  2  0  0  0  0
 26 27  1  0  0  0  0
 27 28  2  0  0  0  0
 28 30  1  0  0  0  0
 28 29  1  0  0  0  0
 30 31  1  0  0  0  0
 32 30  2  0  0  0  0
 33 32  1  0  0  0  0
M  END
>  <minimizedAffinity>
-5.55876017

$$$$

 OpenBabel03272504103D

 33 35  0  0  0  0  0  0  0  0999 V2000
   36.2690   31.3150   31.6350 C   0  0  0  0  0  0  0  0  0  0  0  0
   35.8950   30.2690   32.4910 C   0  0  0  0  0  0  0  0  0  0  0  0
   36.3210   28.9500   32.2090 C   0  0  0  0  0  0  0  0  0  0  0  0
   37.0830   28.7660   31.1030 N   0  0  0  0  0  0  0  0  0  0  0  0
   37.4270   29.8170   30.2920 C   0  0  0  0  0  0  0  0  0  0  0  0
   37.0190   31.0850   30.5620 N   0  0  0  0  0  0  0  0  0  0  0  0
   38.2370   29.5350   29.1430 N   0  0  0  0  0  0  0  0  0  0  0  0
   35.9460   32.3250   31.8500 H   0  0  0  0  0  0  0  0  0  0  0  0
   39.1520   30.0480   29.0880 H   0  0  0  0  0  0  0  0  0  0  0  0
   38.0140   28.8780   28.3680 H   0  0  0  0  0  0  0  0  0  0  0  0
   32.8710   29.9170   32.4500 Cl  0  0  0  0  0  0  0  0  0  0  0  0
   33.7100   30.5380   33.8400 C   0  0  0  0  0  0  0  0  0  0  0  0
   35.0600   30.6140   33.6730 C   0  0  0  0  0  0  0  0  0  0  0  0
   35.8360   31.0980   34.7380 C   0  0  0  0  0  0  0  0  0  0  0  0
   35.2880   31.4910   35.9220 C   0  0  0  0  0  0  0  0  0  0  0  0
   33.9000   31.3990   36.0580 C   0  0  0  0  0  0  0  0  0  0  0  0
   33.1370   31.8750   37.5470 Cl  0  0  0  0  0  0  0  0  0  0  0  0
   33.1400   30.9270   35.0200 C   0  0  0  0  0  0  0  0  0  0  0  0
   36.9110   31.1980   34.7440 H   0  0  0  0  0  0  0  0  0  0  0  0
   35.8280   31.8740   36.7720 H   0  0  0  0  0  0  0  0  0  0  0  0
   32.0570   30.8210   35.0550 H   0  0  0  0  0  0  0  0  0  0  0  0
   35.9190   27.8860   33.1090 C   0  0  0  0  0  0  0  0  0  0  0  0
   35.1150   28.3140   33.7780 H   0  0  0  0  0  0  0  0  0  0  0  0
   35.3950   27.0890   32.5000 H   0  0  0  0  0  0  0  0  0  0  0  0
   36.6720   25.1420   32.0010 Br  0  0  0  0  0  0  0  0  0  0  0  0
   37.4340   26.0040   33.5460 C   0  0  0  0  0  0  0  0  0  0  0  0
   36.9790   27.2630   33.9070 C   0  0  0  0  0  0  0  0  0  0  0  0
   37.5210   27.9050   35.0150 C   0  0  0  0  0  0  0  0  0  0  0  0
   37.2070   28.8660   35.3450 H   0  0  0  0  0  0  0  0  0  0  0  0
   38.5170   27.3020   35.7720 C   0  0  0  0  0  0  0  0  0  0  0  0
   38.9400   27.8140   36.6550 H   0  0  0  0  0  0  0  0  0  0  0  0
   38.9610   26.0500   35.4040 C   0  0  0  0  0  3  0  0  0  0  0  0
   38.4300   25.3890   34.2950 C   0  0  0  0  0  3  0  0  0  0  0  0
  1  8  1  0  0  0  0
  1  2  1  0  0  0  0
  2 13  1  0  0  0  0
  3  2  2  0  0  0  0
  3 22  1  0  0  0  0
  4  3  1  0  0  0  0
  5  6  1  0  0  0  0
  5  4  2  0  0  0  0
  6  1  2  0  0  0  0
  7  5  1  0  0  0  0
  9  7  1  0  0  0  0
 10  7  1  0  0  0  0
 11 12  1  0  0  0  0
 12 18  1  0  0  0  0
 13 12  2  0  0  0  0
 13 14  1  0  0  0  0
 14 19  1  0  0  0  0
 14 15  2  0  0  0  0
 15 16  1  0  0  0  0
 15 20  1  0  0  0  0
 16 17  1  0  0  0  0
 18 21  1  0  0  0  0
 18 16  2  0  0  0  0
 22 23  1  0  0  0  0
 22 27  1  0  0  0  0
 24 22  1  0  0  0  0
 25 26  1  0  0  0  0
 26 27  2  0  0  0  0
 26 33  1  0  0  0  0
 27 28  1  0  0  0  0
 28 29  1  0  0  0  0
 28 30  2  0  0  0  0
 30 31  1  0  0  0  0
 32 30  1  0  0  0  0
 33 32  2  0  0  0  0
M  END
>  <minimizedAffinity>
-5.54369736

$$$$

 OpenBabel03272504103D

 33 35  0  0  0  0  0  0  0  0999 V2000
   38.7110   23.8710   37.0140 C   0  0  0  0  0  0  0  0  0  0  0  0
   38.9220   23.9520   35.6300 C   0  0  0  0  0  0  0  0  0  0  0  0
   38.1540   23.1450   34.7580 C   0  0  0  0  0  0  0  0  0  0  0  0
   37.2370   22.3210   35.3210 N   0  0  0  0  0  0  0  0  0  0  0  0
   37.0620   22.2730   36.6810 C   0  0  0  0  0  0  0  0  0  0  0  0
   37.7980   23.0470   37.5190 N   0  0  0  0  0  0  0  0  0  0  0  0
   36.0680   21.3730   37.1930 N   0  0  0  0  0  0  0  0  0  0  0  0
   39.2960   24.4880   37.6830 H   0  0  0  0  0  0  0  0  0  0  0  0
   35.3080   21.8090   37.7710 H   0  0  0  0  0  0  0  0  0  0  0  0
   36.0240   20.3450   37.0480 H   0  0  0  0  0  0  0  0  0  0  0  0
   38.3060   26.9120   35.2680 Cl  0  0  0  0  0  0  0  0  0  0  0  0
   39.8720   26.2430   34.9140 C   0  0  0  0  0  0  0  0  0  0  0  0
   39.9590   24.9040   35.1480 C   0  0  0  0  0  0  0  0  0  0  0  0
   41.1820   24.2630   34.9000 C   0  0  0  0  0  0  0  0  0  0  0  0
   42.2760   24.9310   34.4370 C   0  0  0  0  0  0  0  0  0  0  0  0
   42.1520   26.3040   34.2090 C   0  0  0  0  0  0  0  0  0  0  0  0
   43.5130   27.2180   33.6290 Cl  0  0  0  0  0  0  0  0  0  0  0  0
   40.9580   26.9320   34.4500 C   0  0  0  0  0  0  0  0  0  0  0  0
   41.3910   23.2140   35.0530 H   0  0  0  0  0  0  0  0  0  0  0  0
   43.2390   24.4960   34.2240 H   0  0  0  0  0  0  0  0  0  0  0  0
   40.7880   27.9980   34.3030 H   0  0  0  0  0  0  0  0  0  0  0  0
   38.3930   23.2470   33.3320 C   0  0  0  0  0  0  0  0  0  0  0  0
   39.3690   23.8040   33.2060 H   0  0  0  0  0  0  0  0  0  0  0  0
   38.6000   22.2080   32.9340 H   0  0  0  0  0  0  0  0  0  0  0  0
   36.7630   21.1440   31.8330 Br  0  0  0  0  0  0  0  0  0  0  0  0
   36.5050   23.0530   31.7740 C   0  0  0  0  0  0  0  0  0  0  0  0
   37.3350   23.8670   32.5290 C   0  0  0  0  0  0  0  0  0  0  0  0
   37.1610   25.2460   32.5060 C   0  0  0  0  0  0  0  0  0  0  0  0
   37.7710   25.9220   33.0570 H   0  0  0  0  0  0  0  0  0  0  0  0
   36.1630   25.8260   31.7330 C   0  0  0  0  0  0  0  0  0  0  0  0
   36.0320   26.9240   31.7140 H   0  0  0  0  0  0  0  0  0  0  0  0
   35.3440   25.0060   30.9870 C   0  0  0  0  0  3  0  0  0  0  0  0
   35.5030   23.6190   30.9970 C   0  0  0  0  0  3  0  0  0  0  0  0
  1  6  1  0  0  0  0
  1  8  1  0  0  0  0
  2  1  2  0  0  0  0
  3  4  2  0  0  0  0
  3  2  1  0  0  0  0
  4  5  1  0  0  0  0
  5  7  1  0  0  0  0
  5  6  2  0  0  0  0
  7  9  1  0  0  0  0
 10  7  1  0  0  0  0
 12 13  1  0  0  0  0
 12 11  1  0  0  0  0
 13  2  1  0  0  0  0
 14 19  1  0  0  0  0
 14 13  2  0  0  0  0
 15 14  1  0  0  0  0
 16 15  2  0  0  0  0
 16 18  1  0  0  0  0
 17 16  1  0  0  0  0
 18 12  2  0  0  0  0
 20 15  1  0  0  0  0
 21 18  1  0  0  0  0
 22  3  1  0  0  0  0
 23 22  1  0  0  0  0
 24 22  1  0  0  0  0
 26 25  1  0  0  0  0
 26 27  1  0  0  0  0
 27 22  1  0  0  0  0
 28 27  2  0  0  0  0
 28 29  1  0  0  0  0
 30 28  1  0  0  0  0
 31 30  1  0  0  0  0
 32 33  1  0  0  0  0
 32 30  2  0  0  0  0
 33 26  2  0  0  0  0
M  END
>  <minimizedAffinity>
-5.49148655

$$$$

 OpenBabel03272504103D

 33 35  0  0  0  0  0  0  0  0999 V2000
   36.4360   23.2600   31.7170 C   0  0  0  0  0  0  0  0  0  0  0  0
   37.5350   23.7340   32.4470 C   0  0  0  0  0  0  0  0  0  0  0  0
   37.9800   23.0200   33.5840 C   0  0  0  0  0  0  0  0  0  0  0  0
   37.3020   21.8930   33.9120 N   0  0  0  0  0  0  0  0  0  0  0  0
   36.2320   21.4630   33.1710 C   0  0  0  0  0  0  0  0  0  0  0  0
   35.8040   22.1470   32.0780 N   0  0  0  0  0  0  0  0  0  0  0  0
   35.5730   20.2580   33.5870 N   0  0  0  0  0  0  0  0  0  0  0  0
   36.0960   23.8040   30.8450 H   0  0  0  0  0  0  0  0  0  0  0  0
   35.5360   19.4850   32.8770 H   0  0  0  0  0  0  0  0  0  0  0  0
   35.1360   20.0740   34.5130 H   0  0  0  0  0  0  0  0  0  0  0  0
   36.9630   26.4200   33.7630 Cl  0  0  0  0  0  0  0  0  0  0  0  0
   38.0530   26.2640   32.4170 C   0  0  0  0  0  0  0  0  0  0  0  0
   38.1880   24.9840   31.9710 C   0  0  0  0  0  0  0  0  0  0  0  0
   39.0490   24.7440   30.8890 C   0  0  0  0  0  0  0  0  0  0  0  0
   39.7480   25.7400   30.2760 C   0  0  0  0  0  0  0  0  0  0  0  0
   39.5860   27.0410   30.7610 C   0  0  0  0  0  0  0  0  0  0  0  0
   40.4560   28.3580   30.0310 Cl  0  0  0  0  0  0  0  0  0  0  0  0
   38.7450   27.2780   31.8170 C   0  0  0  0  0  0  0  0  0  0  0  0
   39.2580   23.7810   30.4460 H   0  0  0  0  0  0  0  0  0  0  0  0
   40.4190   25.6210   29.4420 H   0  0  0  0  0  0  0  0  0  0  0  0
   38.5730   28.2620   32.2520 H   0  0  0  0  0  0  0  0  0  0  0  0
   39.1160   23.5330   34.3220 C   0  0  0  0  0  0  0  0  0  0  0  0
   40.0160   22.9360   33.9870 H   0  0  0  0  0  0  0  0  0  0  0  0
   39.3210   24.5880   33.9680 H   0  0  0  0  0  0  0  0  0  0  0  0
   41.3990   21.9530   35.5950 Br  0  0  0  0  0  0  0  0  0  0  0  0
   39.9640   22.8450   36.5220 C   0  0  0  0  0  0  0  0  0  0  0  0
   39.0090   23.5290   35.7840 C   0  0  0  0  0  0  0  0  0  0  0  0
   37.9700   24.1840   36.4340 C   0  0  0  0  0  0  0  0  0  0  0  0
   37.2050   24.7180   35.9230 H   0  0  0  0  0  0  0  0  0  0  0  0
   37.8710   24.1650   37.8200 C   0  0  0  0  0  0  0  0  0  0  0  0
   37.0390   24.6840   38.3310 H   0  0  0  0  0  0  0  0  0  0  0  0
   38.8260   23.4830   38.5420 C   0  0  0  0  0  3  0  0  0  0  0  0
   39.8770   22.8180   37.9080 C   0  0  0  0  0  3  0  0  0  0  0  0
  1  6  2  0  0  0  0
  1  2  1  0  0  0  0
  2  3  2  0  0  0  0
  3  4  1  0  0  0  0
  3 22  1  0  0  0  0
  5  7  1  0  0  0  0
  5  4  2  0  0  0  0
  6  5  1  0  0  0  0
  7 10  1  0  0  0  0
  8  1  1  0  0  0  0
  9  7  1  0  0  0  0
 12 11  1  0  0  0  0
 13 12  1  0  0  0  0
 13  2  1  0  0  0  0
 14 13  2  0  0  0  0
 15 16  2  0  0  0  0
 15 14  1  0  0  0  0
 16 18  1  0  0  0  0
 17 16  1  0  0  0  0
 18 21  1  0  0  0  0
 18 12  2  0  0  0  0
 19 14  1  0  0  0  0
 20 15  1  0  0  0  0
 22 27  1  0  0  0  0
 23 22  1  0  0  0  0
 24 22  1  0  0  0  0
 25 26  1  0  0  0  0
 26 33  1  0  0  0  0
 27 28  1  0  0  0  0
 27 26  2  0  0  0  0
 28 30  2  0  0  0  0
 29 28  1  0  0  0  0
 30 31  1  0  0  0  0
 30 32  1  0  0  0  0
 33 32  2  0  0  0  0
M  END
>  <minimizedAffinity>
-5.49112844

$$$$

 OpenBabel03272504103D

 33 35  0  0  0  0  0  0  0  0999 V2000
   34.8550   31.7600   32.0640 C   0  0  0  0  0  0  0  0  0  0  0  0
   34.8830   30.4190   32.4750 C   0  0  0  0  0  0  0  0  0  0  0  0
   35.9110   29.5660   32.0080 C   0  0  0  0  0  0  0  0  0  0  0  0
   36.8310   30.1040   31.1710 N   0  0  0  0  0  0  0  0  0  0  0  0
   36.7680   31.4220   30.7930 C   0  0  0  0  0  0  0  0  0  0  0  0
   35.7820   32.2420   31.2410 N   0  0  0  0  0  0  0  0  0  0  0  0
   37.7830   31.9100   29.9050 N   0  0  0  0  0  0  0  0  0  0  0  0
   34.0710   32.4140   32.4220 H   0  0  0  0  0  0  0  0  0  0  0  0
   38.3510   32.7200   30.2580 H   0  0  0  0  0  0  0  0  0  0  0  0
   38.0130   31.5440   28.9600 H   0  0  0  0  0  0  0  0  0  0  0  0
   35.0910   30.8710   35.4790 Cl  0  0  0  0  0  0  0  0  0  0  0  0
   33.7320   30.0610   34.7580 C   0  0  0  0  0  0  0  0  0  0  0  0
   33.8120   29.9620   33.4020 C   0  0  0  0  0  0  0  0  0  0  0  0
   32.7640   29.3290   32.7170 C   0  0  0  0  0  0  0  0  0  0  0  0
   31.6770   28.8150   33.3580 C   0  0  0  0  0  0  0  0  0  0  0  0
   31.6270   28.9350   34.7500 C   0  0  0  0  0  0  0  0  0  0  0  0
   30.2630   28.3090   35.6300 Cl  0  0  0  0  0  0  0  0  0  0  0  0
   32.6500   29.5520   35.4210 C   0  0  0  0  0  0  0  0  0  0  0  0
   32.6950   29.1950   31.6470 H   0  0  0  0  0  0  0  0  0  0  0  0
   30.8440   28.3160   32.8910 H   0  0  0  0  0  0  0  0  0  0  0  0
   32.6780   29.6870   36.5020 H   0  0  0  0  0  0  0  0  0  0  0  0
   35.9160   28.1850   32.4460 C   0  0  0  0  0  0  0  0  0  0  0  0
   34.9060   27.9910   32.9170 H   0  0  0  0  0  0  0  0  0  0  0  0
   35.9380   27.5240   31.5280 H   0  0  0  0  0  0  0  0  0  0  0  0
   38.1850   26.8140   30.9300 Br  0  0  0  0  0  0  0  0  0  0  0  0
   38.1030   27.1370   32.8280 C   0  0  0  0  0  0  0  0  0  0  0  0
   36.9950   27.7850   33.3540 C   0  0  0  0  0  0  0  0  0  0  0  0
   36.9200   28.0340   34.7190 C   0  0  0  0  0  0  0  0  0  0  0  0
   36.0940   28.5190   35.1810 H   0  0  0  0  0  0  0  0  0  0  0  0
   37.9440   27.6420   35.5730 C   0  0  0  0  0  0  0  0  0  0  0  0
   37.8770   27.8370   36.6590 H   0  0  0  0  0  0  0  0  0  0  0  0
   39.0400   26.9990   35.0390 C   0  0  0  0  0  3  0  0  0  0  0  0
   39.1340   26.7400   33.6710 C   0  0  0  0  0  3  0  0  0  0  0  0
  1  8  1  0  0  0  0
  1  2  1  0  0  0  0
  2 13  1  0  0  0  0
  3 22  1  0  0  0  0
  3  2  2  0  0  0  0
  4  3  1  0  0  0  0
  5  4  2  0  0  0  0
  5  6  1  0  0  0  0
  6  1  2  0  0  0  0
  7  9  1  0  0  0  0
  7  5  1  0  0  0  0
 10  7  1  0  0  0  0
 12 18  1  0  0  0  0
 12 11  1  0  0  0  0
 13 12  2  0  0  0  0
 14 15  2  0  0  0  0
 14 13  1  0  0  0  0
 15 16  1  0  0  0  0
 16 18  2  0  0  0  0
 16 17  1  0  0  0  0
 18 21  1  0  0  0  0
 19 14  1  0  0  0  0
 20 15  1  0  0  0  0
 22 23  1  0  0  0  0
 22 27  1  0  0  0  0
 24 22  1  0  0  0  0
 25 26  1  0  0  0  0
 26 27  2  0  0  0  0
 26 33  1  0  0  0  0
 27 28  1  0  0  0  0
 28 29  1  0  0  0  0
 28 30  2  0  0  0  0
 30 31  1  0  0  0  0
 32 30  1  0  0  0  0
 33 32  2  0  0  0  0
M  END
>  <minimizedAffinity>
-5.46261454

$$$$
