
 OpenBabel03272500093D

 39 42  0  0  0  0  0  0  0  0999 V2000
   35.7950   28.2360   34.2710 O   0  0  0  0  0  0  0  0  0  0  0  0
   35.9350   29.1960   33.2710 C   0  0  0  0  0  0  0  0  0  0  0  0
   36.4070   28.6950   32.0780 C   0  0  0  0  0  0  0  0  0  0  0  0
   36.5980   29.5180   30.9970 C   0  0  0  0  0  0  0  0  0  0  0  0
   36.3040   30.8850   31.1240 C   0  0  0  0  0  0  0  0  0  0  0  0
   35.8280   31.3770   32.3360 C   0  0  0  0  0  0  0  0  0  0  0  0
   35.6500   30.5320   33.3930 C   0  0  0  0  0  0  0  0  0  0  0  0
   36.6510   27.6560   31.9170 H   0  0  0  0  0  0  0  0  0  0  0  0
   36.9690   29.1370   30.0510 H   0  0  0  0  0  0  0  0  0  0  0  0
   36.4580   31.5210   30.2670 H   0  0  0  0  0  0  0  0  0  0  0  0
   35.6010   32.4270   32.4380 H   0  0  0  0  0  0  0  0  0  0  0  0
   32.6440   30.2110   33.3150 Br  0  0  0  0  0  0  0  0  0  0  0  0
   33.7600   30.9070   34.7030 C   0  0  0  0  0  0  0  0  0  0  0  0
   35.1550   31.0300   34.6730 C   0  0  0  0  0  0  0  0  0  0  0  0
   35.7820   31.5610   35.7820 C   0  0  0  0  0  0  0  0  0  0  0  0
   36.8550   31.5920   35.6120 H   0  0  0  0  0  0  0  0  0  0  0  0
   35.0670   31.9480   36.8640 C   0  0  0  0  0  0  0  0  0  0  0  0
   35.6780   32.3550   37.6840 H   0  0  0  0  0  0  0  0  0  0  0  0
   33.6940   31.8410   36.9260 C   0  0  0  0  0  3  0  0  0  0  0  0
   33.0400   31.3140   35.8330 C   0  0  0  0  0  3  0  0  0  0  0  0
   38.8930   26.9960   35.6190 C   0  0  0  0  0  0  0  0  0  0  0  0
   39.0910   25.8020   34.9220 C   0  0  0  0  0  0  0  0  0  0  0  0
   38.1230   25.4480   33.9780 C   0  0  0  0  0  0  0  0  0  0  0  0
   37.0620   26.2740   33.7970 N   0  0  0  0  0  0  0  0  0  0  0  0
   36.8970   27.4090   34.4770 C   0  0  0  0  0  0  0  0  0  0  0  0
   37.8230   27.7820   35.4040 N   0  0  0  0  0  0  0  0  0  0  0  0
   39.6250   27.3140   36.3670 H   0  0  0  0  0  0  0  0  0  0  0  0
   38.2810   24.5250   33.4420 H   0  0  0  0  0  0  0  0  0  0  0  0
   40.2380   25.0270   35.2060 N   0  0  0  0  0  0  0  0  0  0  0  0
   41.4510   25.3650   34.7830 C   0  0  0  0  0  0  0  0  0  0  0  0
   42.5420   24.5630   35.0930 C   0  0  0  0  0  0  0  0  0  0  0  0
   42.2510   23.4500   35.8390 C   0  0  0  0  0  0  0  0  0  0  0  0
   43.2350   22.6990   36.1360 O   0  0  0  0  0  0  0  0  0  0  0  0
   41.0540   23.0690   36.2840 N   0  0  0  0  0  0  0  0  0  0  0  0
   40.0160   23.8920   35.9530 C   0  0  0  0  0  0  0  0  0  0  0  0
   38.8630   23.5470   36.3680 O   0  0  0  0  0  0  0  0  0  0  0  0
   41.5970   26.2550   34.2030 H   0  0  0  0  0  0  0  0  0  0  0  0
   43.5470   24.7800   34.7830 H   0  0  0  0  0  0  0  0  0  0  0  0
   40.8970   22.2070   36.8490 H   0  0  0  0  0  0  0  0  0  0  0  0
  1 25  1  0  0  0  0
  2  7  1  0  0  0  0
  2  1  1  0  0  0  0
  3  2  2  0  0  0  0
  4  5  2  0  0  0  0
  4  3  1  0  0  0  0
  5  6  1  0  0  0  0
  6 11  1  0  0  0  0
  6  7  2  0  0  0  0
  7 14  1  0  0  0  0
  8  3  1  0  0  0  0
  9  4  1  0  0  0  0
 10  5  1  0  0  0  0
 12 13  1  0  0  0  0
 13 20  1  0  0  0  0
 14 13  2  0  0  0  0
 14 15  1  0  0  0  0
 15 17  2  0  0  0  0
 16 15  1  0  0  0  0
 17 19  1  0  0  0  0
 17 18  1  0  0  0  0
 20 19  2  0  0  0  0
 21 27  1  0  0  0  0
 22 29  1  0  0  0  0
 22 21  2  0  0  0  0
 23 22  1  0  0  0  0
 24 23  2  0  0  0  0
 24 25  1  0  0  0  0
 25 26  2  0  0  0  0
 26 21  1  0  0  0  0
 28 23  1  0  0  0  0
 29 35  1  0  0  0  0
 30 31  2  0  0  0  0
 30 29  1  0  0  0  0
 31 32  1  0  0  0  0
 32 33  2  0  0  0  0
 32 34  1  0  0  0  0
 34 39  1  0  0  0  0
 35 34  1  0  0  0  0
 35 36  2  0  0  0  0
 37 30  1  0  0  0  0
 38 31  1  0  0  0  0
M  END
>  <minimizedAffinity>
-6.44411993

$$$$

 OpenBabel03272500093D

 39 42  0  0  0  0  0  0  0  0999 V2000
   38.0900   25.6430   33.0720 O   0  0  0  0  0  0  0  0  0  0  0  0
   39.3720   26.0770   33.4050 C   0  0  0  0  0  0  0  0  0  0  0  0
   39.9990   26.7840   32.4020 C   0  0  0  0  0  0  0  0  0  0  0  0
   41.2670   27.2780   32.5780 C   0  0  0  0  0  0  0  0  0  0  0  0
   41.9190   27.0530   33.8010 C   0  0  0  0  0  0  0  0  0  0  0  0
   41.2730   26.3370   34.8050 C   0  0  0  0  0  0  0  0  0  0  0  0
   40.0120   25.8580   34.5970 C   0  0  0  0  0  0  0  0  0  0  0  0
   39.5520   26.9900   31.4420 H   0  0  0  0  0  0  0  0  0  0  0  0
   41.7730   27.8360   31.7980 H   0  0  0  0  0  0  0  0  0  0  0  0
   42.9150   27.4470   33.9270 H   0  0  0  0  0  0  0  0  0  0  0  0
   41.7710   26.1620   35.7460 H   0  0  0  0  0  0  0  0  0  0  0  0
   41.1120   23.0450   34.4640 Br  0  0  0  0  0  0  0  0  0  0  0  0
   39.7870   23.7810   35.6290 C   0  0  0  0  0  0  0  0  0  0  0  0
   39.3190   25.1020   35.6370 C   0  0  0  0  0  0  0  0  0  0  0  0
   38.3530   25.4410   36.5610 C   0  0  0  0  0  0  0  0  0  0  0  0
   38.0930   26.4890   36.4470 H   0  0  0  0  0  0  0  0  0  0  0  0
   37.8760   24.5220   37.4350 C   0  0  0  0  0  0  0  0  0  0  0  0
   37.1100   24.9120   38.1230 H   0  0  0  0  0  0  0  0  0  0  0  0
   38.3150   23.2160   37.4540 C   0  0  0  0  0  3  0  0  0  0  0  0
   39.2810   22.8480   36.5410 C   0  0  0  0  0  3  0  0  0  0  0  0
   35.4570   27.5690   31.5540 C   0  0  0  0  0  0  0  0  0  0  0  0
   35.2440   28.6010   32.4720 C   0  0  0  0  0  0  0  0  0  0  0  0
   36.0390   28.6040   33.6210 C   0  0  0  0  0  0  0  0  0  0  0  0
   36.9580   27.6170   33.7760 N   0  0  0  0  0  0  0  0  0  0  0  0
   37.1400   26.6430   32.8840 C   0  0  0  0  0  0  0  0  0  0  0  0
   36.3810   26.6120   31.7540 N   0  0  0  0  0  0  0  0  0  0  0  0
   34.8580   27.5250   30.6400 H   0  0  0  0  0  0  0  0  0  0  0  0
   35.8710   29.4030   34.3260 H   0  0  0  0  0  0  0  0  0  0  0  0
   34.2510   29.5670   32.1950 N   0  0  0  0  0  0  0  0  0  0  0  0
   33.0540   29.5450   32.7690 C   0  0  0  0  0  0  0  0  0  0  0  0
   32.1170   30.5220   32.4570 C   0  0  0  0  0  0  0  0  0  0  0  0
   32.5350   31.4570   31.5470 C   0  0  0  0  0  0  0  0  0  0  0  0
   31.6930   32.3640   31.2450 O   0  0  0  0  0  0  0  0  0  0  0  0
   33.7220   31.5210   30.9440 N   0  0  0  0  0  0  0  0  0  0  0  0
   34.6060   30.5380   31.2860 C   0  0  0  0  0  0  0  0  0  0  0  0
   35.7470   30.5800   30.7230 O   0  0  0  0  0  0  0  0  0  0  0  0
   32.8020   28.7770   33.4740 H   0  0  0  0  0  0  0  0  0  0  0  0
   31.1330   30.5610   32.8860 H   0  0  0  0  0  0  0  0  0  0  0  0
   33.9810   32.2610   30.2570 H   0  0  0  0  0  0  0  0  0  0  0  0
  1  2  1  0  0  0  0
  2  7  1  0  0  0  0
  3  4  1  0  0  0  0
  3  2  2  0  0  0  0
  4  5  2  0  0  0  0
  5 10  1  0  0  0  0
  5  6  1  0  0  0  0
  6 11  1  0  0  0  0
  7  6  2  0  0  0  0
  7 14  1  0  0  0  0
  8  3  1  0  0  0  0
  9  4  1  0  0  0  0
 12 13  1  0  0  0  0
 13 14  2  0  0  0  0
 13 20  1  0  0  0  0
 14 15  1  0  0  0  0
 15 17  2  0  0  0  0
 16 15  1  0  0  0  0
 17 19  1  0  0  0  0
 17 18  1  0  0  0  0
 20 19  2  0  0  0  0
 21 26  2  0  0  0  0
 21 22  1  0  0  0  0
 22 23  2  0  0  0  0
 23 24  1  0  0  0  0
 23 28  1  0  0  0  0
 25  1  1  0  0  0  0
 25 24  2  0  0  0  0
 26 25  1  0  0  0  0
 27 21  1  0  0  0  0
 29 22  1  0  0  0  0
 29 30  1  0  0  0  0
 30 37  1  0  0  0  0
 31 30  2  0  0  0  0
 31 38  1  0  0  0  0
 32 31  1  0  0  0  0
 33 32  2  0  0  0  0
 34 35  1  0  0  0  0
 34 32  1  0  0  0  0
 35 29  1  0  0  0  0
 36 35  2  0  0  0  0
 39 34  1  0  0  0  0
M  END
>  <minimizedAffinity>
-5.90399742

$$$$

 OpenBabel03272500093D

 39 42  0  0  0  0  0  0  0  0999 V2000
   36.9620   28.1800   31.3440 O   0  0  0  0  0  0  0  0  0  0  0  0
   36.8080   26.8000   31.4620 C   0  0  0  0  0  0  0  0  0  0  0  0
   35.5610   26.3450   31.0930 C   0  0  0  0  0  0  0  0  0  0  0  0
   35.2550   25.0080   31.1530 C   0  0  0  0  0  0  0  0  0  0  0  0
   36.2350   24.1070   31.5990 C   0  0  0  0  0  0  0  0  0  0  0  0
   37.4900   24.5820   31.9690 C   0  0  0  0  0  0  0  0  0  0  0  0
   37.7630   25.9180   31.8980 C   0  0  0  0  0  0  0  0  0  0  0  0
   34.7660   26.9850   30.7430 H   0  0  0  0  0  0  0  0  0  0  0  0
   34.2780   24.6360   30.8660 H   0  0  0  0  0  0  0  0  0  0  0  0
   35.9820   23.0600   31.6410 H   0  0  0  0  0  0  0  0  0  0  0  0
   38.2460   23.8930   32.3120 H   0  0  0  0  0  0  0  0  0  0  0  0
   37.8550   25.7930   34.9170 Br  0  0  0  0  0  0  0  0  0  0  0  0
   39.1800   26.4030   33.6820 C   0  0  0  0  0  0  0  0  0  0  0  0
   39.0720   26.4350   32.2860 C   0  0  0  0  0  0  0  0  0  0  0  0
   40.1450   26.9150   31.5640 C   0  0  0  0  0  0  0  0  0  0  0  0
   39.9150   26.8780   30.5020 H   0  0  0  0  0  0  0  0  0  0  0  0
   41.2690   27.3380   32.1900 C   0  0  0  0  0  0  0  0  0  0  0  0
   42.0550   27.6970   31.5080 H   0  0  0  0  0  0  0  0  0  0  0  0
   41.4080   27.3190   33.5610 C   0  0  0  0  0  3  0  0  0  0  0  0
   40.3510   26.8450   34.3090 C   0  0  0  0  0  3  0  0  0  0  0  0
   35.2670   30.9200   32.9480 C   0  0  0  0  0  0  0  0  0  0  0  0
   35.1540   30.4950   34.2740 C   0  0  0  0  0  0  0  0  0  0  0  0
   35.6820   29.2390   34.5870 C   0  0  0  0  0  0  0  0  0  0  0  0
   36.2650   28.5160   33.5980 N   0  0  0  0  0  0  0  0  0  0  0  0
   36.3590   28.9460   32.3390 C   0  0  0  0  0  0  0  0  0  0  0  0
   35.8540   30.1650   32.0020 N   0  0  0  0  0  0  0  0  0  0  0  0
   34.8690   31.8950   32.6560 H   0  0  0  0  0  0  0  0  0  0  0  0
   35.5920   28.9160   35.6120 H   0  0  0  0  0  0  0  0  0  0  0  0
   34.5190   31.3410   35.2110 N   0  0  0  0  0  0  0  0  0  0  0  0
   33.2030   31.3560   35.3820 C   0  0  0  0  0  0  0  0  0  0  0  0
   32.6350   32.2100   36.3180 C   0  0  0  0  0  0  0  0  0  0  0  0
   33.5260   32.9910   37.0070 C   0  0  0  0  0  0  0  0  0  0  0  0
   33.0290   33.7830   37.8720 O   0  0  0  0  0  0  0  0  0  0  0  0
   34.8510   33.0120   36.8720 N   0  0  0  0  0  0  0  0  0  0  0  0
   35.3590   32.1540   35.9390 C   0  0  0  0  0  0  0  0  0  0  0  0
   36.6230   32.1570   35.7930 O   0  0  0  0  0  0  0  0  0  0  0  0
   32.5710   30.7120   34.8020 H   0  0  0  0  0  0  0  0  0  0  0  0
   31.5780   32.2720   36.5050 H   0  0  0  0  0  0  0  0  0  0  0  0
   35.4780   33.6320   37.4280 H   0  0  0  0  0  0  0  0  0  0  0  0
  1  2  1  0  0  0  0
  1 25  1  0  0  0  0
  2  7  1  0  0  0  0
  3  4  1  0  0  0  0
  3  2  2  0  0  0  0
  4  5  2  0  0  0  0
  5 10  1  0  0  0  0
  5  6  1  0  0  0  0
  6 11  1  0  0  0  0
  7  6  2  0  0  0  0
  7 14  1  0  0  0  0
  8  3  1  0  0  0  0
  9  4  1  0  0  0  0
 13 20  1  0  0  0  0
 13 12  1  0  0  0  0
 14 13  2  0  0  0  0
 15 17  2  0  0  0  0
 15 14  1  0  0  0  0
 16 15  1  0  0  0  0
 17 19  1  0  0  0  0
 18 17  1  0  0  0  0
 19 20  2  0  0  0  0
 21 22  1  0  0  0  0
 22 23  2  0  0  0  0
 22 29  1  0  0  0  0
 23 28  1  0  0  0  0
 24 23  1  0  0  0  0
 25 24  2  0  0  0  0
 26 25  1  0  0  0  0
 26 21  2  0  0  0  0
 27 21  1  0  0  0  0
 29 30  1  0  0  0  0
 29 35  1  0  0  0  0
 30 31  2  0  0  0  0
 31 38  1  0  0  0  0
 31 32  1  0  0  0  0
 32 33  2  0  0  0  0
 34 32  1  0  0  0  0
 34 39  1  0  0  0  0
 35 34  1  0  0  0  0
 36 35  2  0  0  0  0
 37 30  1  0  0  0  0
M  END
>  <minimizedAffinity>
-5.87317514

$$$$

 OpenBabel03272500093D

 39 42  0  0  0  0  0  0  0  0999 V2000
   35.4890   28.2430   32.8880 O   0  0  0  0  0  0  0  0  0  0  0  0
   36.5080   28.3400   31.9430 C   0  0  0  0  0  0  0  0  0  0  0  0
   36.1960   29.1440   30.8680 C   0  0  0  0  0  0  0  0  0  0  0  0
   37.0990   29.3390   29.8520 C   0  0  0  0  0  0  0  0  0  0  0  0
   38.3500   28.7060   29.9250 C   0  0  0  0  0  0  0  0  0  0  0  0
   38.6500   27.8970   31.0170 C   0  0  0  0  0  0  0  0  0  0  0  0
   37.7300   27.7230   32.0110 C   0  0  0  0  0  0  0  0  0  0  0  0
   35.2540   29.6560   30.7530 H   0  0  0  0  0  0  0  0  0  0  0  0
   36.8680   29.9680   29.0000 H   0  0  0  0  0  0  0  0  0  0  0  0
   39.0510   28.8680   29.1210 H   0  0  0  0  0  0  0  0  0  0  0  0
   39.6100   27.4090   31.0770 H   0  0  0  0  0  0  0  0  0  0  0  0
   36.8920   24.9250   31.2310 Br  0  0  0  0  0  0  0  0  0  0  0  0
   37.6590   25.5560   32.8640 C   0  0  0  0  0  0  0  0  0  0  0  0
   38.0250   26.8750   33.1620 C   0  0  0  0  0  0  0  0  0  0  0  0
   38.5660   27.1320   34.4050 C   0  0  0  0  0  0  0  0  0  0  0  0
   38.7990   28.1900   34.4890 H   0  0  0  0  0  0  0  0  0  0  0  0
   38.7390   26.1350   35.3050 C   0  0  0  0  0  0  0  0  0  0  0  0
   39.1790   26.4630   36.2600 H   0  0  0  0  0  0  0  0  0  0  0  0
   38.3900   24.8270   35.0440 C   0  0  0  0  0  3  0  0  0  0  0  0
   37.8470   24.5410   33.8100 C   0  0  0  0  0  3  0  0  0  0  0  0
   35.9200   30.7770   35.4070 C   0  0  0  0  0  0  0  0  0  0  0  0
   34.8410   31.6360   35.1850 C   0  0  0  0  0  0  0  0  0  0  0  0
   33.9690   31.3080   34.1430 C   0  0  0  0  0  0  0  0  0  0  0  0
   34.2190   30.1880   33.4180 N   0  0  0  0  0  0  0  0  0  0  0  0
   35.2570   29.3850   33.6510 C   0  0  0  0  0  0  0  0  0  0  0  0
   36.1250   29.6780   34.6590 N   0  0  0  0  0  0  0  0  0  0  0  0
   36.6280   30.9940   36.2110 H   0  0  0  0  0  0  0  0  0  0  0  0
   33.1380   31.9740   33.9760 H   0  0  0  0  0  0  0  0  0  0  0  0
   34.6930   32.7750   36.0090 N   0  0  0  0  0  0  0  0  0  0  0  0
   35.2610   33.9410   35.7230 C   0  0  0  0  0  0  0  0  0  0  0  0
   35.0810   35.0260   36.5720 C   0  0  0  0  0  0  0  0  0  0  0  0
   34.3010   34.7790   37.6720 C   0  0  0  0  0  0  0  0  0  0  0  0
   34.1220   35.7590   38.4650 O   0  0  0  0  0  0  0  0  0  0  0  0
   33.7130   33.6300   38.0010 N   0  0  0  0  0  0  0  0  0  0  0  0
   33.9200   32.5960   37.1340 C   0  0  0  0  0  0  0  0  0  0  0  0
   33.3670   31.4880   37.4280 O   0  0  0  0  0  0  0  0  0  0  0  0
   35.8590   34.0540   34.8400 H   0  0  0  0  0  0  0  0  0  0  0  0
   35.5110   35.9950   36.3980 H   0  0  0  0  0  0  0  0  0  0  0  0
   33.1290   33.5040   38.8560 H   0  0  0  0  0  0  0  0  0  0  0  0
  1 25  1  0  0  0  0
  2  7  1  0  0  0  0
  2  1  1  0  0  0  0
  3  2  2  0  0  0  0
  4  5  2  0  0  0  0
  4  3  1  0  0  0  0
  5  6  1  0  0  0  0
  6 11  1  0  0  0  0
  6  7  2  0  0  0  0
  7 14  1  0  0  0  0
  8  3  1  0  0  0  0
  9  4  1  0  0  0  0
 10  5  1  0  0  0  0
 12 13  1  0  0  0  0
 13 14  2  0  0  0  0
 13 20  1  0  0  0  0
 14 15  1  0  0  0  0
 15 16  1  0  0  0  0
 15 17  2  0  0  0  0
 17 18  1  0  0  0  0
 19 17  1  0  0  0  0
 20 19  2  0  0  0  0
 21 27  1  0  0  0  0
 22 21  1  0  0  0  0
 22 29  1  0  0  0  0
 23 22  2  0  0  0  0
 24 25  2  0  0  0  0
 24 23  1  0  0  0  0
 25 26  1  0  0  0  0
 26 21  2  0  0  0  0
 28 23  1  0  0  0  0
 29 35  1  0  0  0  0
 30 29  1  0  0  0  0
 30 31  2  0  0  0  0
 31 32  1  0  0  0  0
 32 34  1  0  0  0  0
 32 33  2  0  0  0  0
 34 39  1  0  0  0  0
 35 36  2  0  0  0  0
 35 34  1  0  0  0  0
 37 30  1  0  0  0  0
 38 31  1  0  0  0  0
M  END
>  <minimizedAffinity>
-5.80221462

$$$$

 OpenBabel03272500093D

 39 42  0  0  0  0  0  0  0  0999 V2000
   38.6290   24.3290   32.4850 O   0  0  0  0  0  0  0  0  0  0  0  0
   38.5090   23.6840   33.7140 C   0  0  0  0  0  0  0  0  0  0  0  0
   39.1730   24.3160   34.7420 C   0  0  0  0  0  0  0  0  0  0  0  0
   39.1480   23.8020   36.0150 C   0  0  0  0  0  0  0  0  0  0  0  0
   38.4340   22.6180   36.2550 C   0  0  0  0  0  0  0  0  0  0  0  0
   37.7680   21.9910   35.2060 C   0  0  0  0  0  0  0  0  0  0  0  0
   37.8120   22.5270   33.9510 C   0  0  0  0  0  0  0  0  0  0  0  0
   39.7390   25.2270   34.6230 H   0  0  0  0  0  0  0  0  0  0  0  0
   39.6670   24.2890   36.8340 H   0  0  0  0  0  0  0  0  0  0  0  0
   38.4220   22.2240   37.2590 H   0  0  0  0  0  0  0  0  0  0  0  0
   37.2180   21.0800   35.3860 H   0  0  0  0  0  0  0  0  0  0  0  0
   39.8900   20.8430   32.5420 Br  0  0  0  0  0  0  0  0  0  0  0  0
   38.0370   21.0800   32.1390 C   0  0  0  0  0  0  0  0  0  0  0  0
   37.1240   21.8810   32.8370 C   0  0  0  0  0  0  0  0  0  0  0  0
   35.8200   21.9210   32.3870 C   0  0  0  0  0  0  0  0  0  0  0  0
   35.2360   22.5780   33.0240 H   0  0  0  0  0  0  0  0  0  0  0  0
   35.4380   21.2030   31.3050 C   0  0  0  0  0  0  0  0  0  0  0  0
   34.3750   21.3150   31.0430 H   0  0  0  0  0  0  0  0  0  0  0  0
   36.3110   20.4040   30.5960 C   0  0  0  0  0  3  0  0  0  0  0  0
   37.6200   20.3450   31.0220 C   0  0  0  0  0  3  0  0  0  0  0  0
   37.4910   27.7410   32.6040 C   0  0  0  0  0  0  0  0  0  0  0  0
   36.2500   27.6870   31.9640 C   0  0  0  0  0  0  0  0  0  0  0  0
   35.8280   26.4390   31.4980 C   0  0  0  0  0  0  0  0  0  0  0  0
   36.6380   25.3670   31.6900 N   0  0  0  0  0  0  0  0  0  0  0  0
   37.8180   25.4470   32.3040 C   0  0  0  0  0  0  0  0  0  0  0  0
   38.2580   26.6490   32.7700 N   0  0  0  0  0  0  0  0  0  0  0  0
   37.8620   28.6960   32.9860 H   0  0  0  0  0  0  0  0  0  0  0  0
   34.8690   26.4030   31.0050 H   0  0  0  0  0  0  0  0  0  0  0  0
   35.5020   28.8780   31.8230 N   0  0  0  0  0  0  0  0  0  0  0  0
   34.5150   29.2040   32.6490 C   0  0  0  0  0  0  0  0  0  0  0  0
   33.8150   30.3880   32.4600 C   0  0  0  0  0  0  0  0  0  0  0  0
   34.2260   31.1410   31.3910 C   0  0  0  0  0  0  0  0  0  0  0  0
   33.5980   32.2320   31.1970 O   0  0  0  0  0  0  0  0  0  0  0  0
   35.2070   30.8570   30.5350 N   0  0  0  0  0  0  0  0  0  0  0  0
   35.8640   29.6820   30.7660 C   0  0  0  0  0  0  0  0  0  0  0  0
   36.8060   29.3910   29.9600 O   0  0  0  0  0  0  0  0  0  0  0  0
   34.2530   28.5590   33.4660 H   0  0  0  0  0  0  0  0  0  0  0  0
   33.0070   30.7100   33.0920 H   0  0  0  0  0  0  0  0  0  0  0  0
   35.4730   31.4730   29.7380 H   0  0  0  0  0  0  0  0  0  0  0  0
  1  2  1  0  0  0  0
  2  7  2  0  0  0  0
  2  3  1  0  0  0  0
  3  4  2  0  0  0  0
  4  5  1  0  0  0  0
  4  9  1  0  0  0  0
  5 10  1  0  0  0  0
  6 11  1  0  0  0  0
  6  5  2  0  0  0  0
  7  6  1  0  0  0  0
  8  3  1  0  0  0  0
 13 12  1  0  0  0  0
 13 14  1  0  0  0  0
 14  7  1  0  0  0  0
 15 14  2  0  0  0  0
 15 16  1  0  0  0  0
 17 15  1  0  0  0  0
 18 17  1  0  0  0  0
 19 20  1  0  0  0  0
 19 17  2  0  0  0  0
 20 13  2  0  0  0  0
 21 26  1  0  0  0  0
 21 27  1  0  0  0  0
 22 21  2  0  0  0  0
 23 24  2  0  0  0  0
 23 22  1  0  0  0  0
 24 25  1  0  0  0  0
 25  1  1  0  0  0  0
 25 26  2  0  0  0  0
 28 23  1  0  0  0  0
 29 22  1  0  0  0  0
 29 30  1  0  0  0  0
 30 37  1  0  0  0  0
 31 30  2  0  0  0  0
 31 38  1  0  0  0  0
 32 31  1  0  0  0  0
 33 32  2  0  0  0  0
 34 35  1  0  0  0  0
 34 32  1  0  0  0  0
 35 29  1  0  0  0  0
 36 35  2  0  0  0  0
 39 34  1  0  0  0  0
M  END
>  <minimizedAffinity>
-5.71690035

$$$$

 OpenBabel03272500093D

 39 42  0  0  0  0  0  0  0  0999 V2000
   37.5090   26.7880   31.5540 O   0  0  0  0  0  0  0  0  0  0  0  0
   36.9900   25.4970   31.6190 C   0  0  0  0  0  0  0  0  0  0  0  0
   35.7240   25.3780   31.0860 C   0  0  0  0  0  0  0  0  0  0  0  0
   35.0780   24.1670   31.0760 C   0  0  0  0  0  0  0  0  0  0  0  0
   35.7270   23.0460   31.6170 C   0  0  0  0  0  0  0  0  0  0  0  0
   37.0060   23.1820   32.1510 C   0  0  0  0  0  0  0  0  0  0  0  0
   37.6210   24.4010   32.1470 C   0  0  0  0  0  0  0  0  0  0  0  0
   35.1730   26.1990   30.6560 H   0  0  0  0  0  0  0  0  0  0  0  0
   34.0820   24.0580   30.6610 H   0  0  0  0  0  0  0  0  0  0  0  0
   35.2090   22.1010   31.6030 H   0  0  0  0  0  0  0  0  0  0  0  0
   37.5080   22.3230   32.5680 H   0  0  0  0  0  0  0  0  0  0  0  0
   39.5480   23.9010   29.8720 Br  0  0  0  0  0  0  0  0  0  0  0  0
   39.9060   24.3460   31.6960 C   0  0  0  0  0  0  0  0  0  0  0  0
   38.9600   24.5640   32.7060 C   0  0  0  0  0  0  0  0  0  0  0  0
   39.4200   24.8760   33.9690 C   0  0  0  0  0  0  0  0  0  0  0  0
   38.5770   25.0160   34.6390 H   0  0  0  0  0  0  0  0  0  0  0  0
   40.7480   24.9700   34.2190 C   0  0  0  0  0  0  0  0  0  0  0  0
   40.9910   25.2260   35.2620 H   0  0  0  0  0  0  0  0  0  0  0  0
   41.7050   24.7630   33.2490 C   0  0  0  0  0  3  0  0  0  0  0  0
   41.2740   24.4490   31.9770 C   0  0  0  0  0  3  0  0  0  0  0  0
   36.2970   28.3660   34.5520 C   0  0  0  0  0  0  0  0  0  0  0  0
   35.7360   29.5570   34.0830 C   0  0  0  0  0  0  0  0  0  0  0  0
   35.7930   29.7880   32.7060 C   0  0  0  0  0  0  0  0  0  0  0  0
   36.3810   28.8550   31.9160 N   0  0  0  0  0  0  0  0  0  0  0  0
   36.9090   27.7270   32.3900 C   0  0  0  0  0  0  0  0  0  0  0  0
   36.8700   27.4720   33.7280 N   0  0  0  0  0  0  0  0  0  0  0  0
   36.2760   28.1430   35.6220 H   0  0  0  0  0  0  0  0  0  0  0  0
   35.3580   30.7090   32.3500 H   0  0  0  0  0  0  0  0  0  0  0  0
   35.1550   30.4510   35.0110 N   0  0  0  0  0  0  0  0  0  0  0  0
   35.8730   31.3290   35.7020 C   0  0  0  0  0  0  0  0  0  0  0  0
   35.2470   32.1820   36.6010 C   0  0  0  0  0  0  0  0  0  0  0  0
   33.8880   32.0310   36.6950 C   0  0  0  0  0  0  0  0  0  0  0  0
   33.2910   32.8020   37.5140 O   0  0  0  0  0  0  0  0  0  0  0  0
   33.1250   31.1660   36.0260 N   0  0  0  0  0  0  0  0  0  0  0  0
   33.7900   30.3520   35.1550 C   0  0  0  0  0  0  0  0  0  0  0  0
   33.0810   29.5180   34.5040 O   0  0  0  0  0  0  0  0  0  0  0  0
   36.9360   31.3860   35.5710 H   0  0  0  0  0  0  0  0  0  0  0  0
   35.7690   32.9140   37.1900 H   0  0  0  0  0  0  0  0  0  0  0  0
   32.0920   31.0990   36.1420 H   0  0  0  0  0  0  0  0  0  0  0  0
  1  2  1  0  0  0  0
  1 25  1  0  0  0  0
  2  7  1  0  0  0  0
  3  2  2  0  0  0  0
  4  3  1  0  0  0  0
  4  5  2  0  0  0  0
  5  6  1  0  0  0  0
  6 11  1  0  0  0  0
  7  6  2  0  0  0  0
  7 14  1  0  0  0  0
  8  3  1  0  0  0  0
  9  4  1  0  0  0  0
 10  5  1  0  0  0  0
 12 13  1  0  0  0  0
 13 20  2  0  0  0  0
 13 14  1  0  0  0  0
 14 15  2  0  0  0  0
 15 17  1  0  0  0  0
 15 16  1  0  0  0  0
 17 18  1  0  0  0  0
 19 17  2  0  0  0  0
 20 19  1  0  0  0  0
 21 27  1  0  0  0  0
 22 21  1  0  0  0  0
 22 29  1  0  0  0  0
 23 22  2  0  0  0  0
 24 25  2  0  0  0  0
 24 23  1  0  0  0  0
 25 26  1  0  0  0  0
 26 21  2  0  0  0  0
 28 23  1  0  0  0  0
 29 35  1  0  0  0  0
 29 30  1  0  0  0  0
 30 31  2  0  0  0  0
 31 32  1  0  0  0  0
 31 38  1  0  0  0  0
 32 33  2  0  0  0  0
 34 39  1  0  0  0  0
 34 32  1  0  0  0  0
 35 34  1  0  0  0  0
 36 35  2  0  0  0  0
 37 30  1  0  0  0  0
M  END
>  <minimizedAffinity>
-5.68481588

$$$$

 OpenBabel03272500093D

 39 42  0  0  0  0  0  0  0  0999 V2000
   35.9900   28.1250   34.8360 O   0  0  0  0  0  0  0  0  0  0  0  0
   35.7460   28.9570   33.7450 C   0  0  0  0  0  0  0  0  0  0  0  0
   36.5810   28.7300   32.6730 C   0  0  0  0  0  0  0  0  0  0  0  0
   36.4640   29.4690   31.5230 C   0  0  0  0  0  0  0  0  0  0  0  0
   35.4750   30.4640   31.4530 C   0  0  0  0  0  0  0  0  0  0  0  0
   34.6390   30.6810   32.5440 C   0  0  0  0  0  0  0  0  0  0  0  0
   34.7820   29.9290   33.6740 C   0  0  0  0  0  0  0  0  0  0  0  0
   37.3590   27.9830   32.6640 H   0  0  0  0  0  0  0  0  0  0  0  0
   37.1150   29.3030   30.6720 H   0  0  0  0  0  0  0  0  0  0  0  0
   35.3940   31.0380   30.5430 H   0  0  0  0  0  0  0  0  0  0  0  0
   33.8780   31.4440   32.4940 H   0  0  0  0  0  0  0  0  0  0  0  0
   36.0370   32.1790   35.2560 Br  0  0  0  0  0  0  0  0  0  0  0  0
   34.4440   31.1830   35.6080 C   0  0  0  0  0  0  0  0  0  0  0  0
   33.9160   30.1450   34.8300 C   0  0  0  0  0  0  0  0  0  0  0  0
   32.7480   29.5450   35.2560 C   0  0  0  0  0  0  0  0  0  0  0  0
   32.4640   28.7650   34.5550 H   0  0  0  0  0  0  0  0  0  0  0  0
   32.1340   29.9530   36.3910 C   0  0  0  0  0  0  0  0  0  0  0  0
   31.2110   29.4010   36.6260 H   0  0  0  0  0  0  0  0  0  0  0  0
   32.6260   30.9710   37.1790 C   0  0  0  0  0  3  0  0  0  0  0  0
   33.7920   31.5890   36.7790 C   0  0  0  0  0  3  0  0  0  0  0  0
   39.3400   26.8920   35.2920 C   0  0  0  0  0  0  0  0  0  0  0  0
   39.3450   25.7010   34.5620 C   0  0  0  0  0  0  0  0  0  0  0  0
   38.1590   25.3470   33.9130 C   0  0  0  0  0  0  0  0  0  0  0  0
   37.0860   26.1700   34.0300 N   0  0  0  0  0  0  0  0  0  0  0  0
   37.1090   27.3020   34.7340 C   0  0  0  0  0  0  0  0  0  0  0  0
   38.2500   27.6750   35.3770 N   0  0  0  0  0  0  0  0  0  0  0  0
   40.2460   27.2100   35.8160 H   0  0  0  0  0  0  0  0  0  0  0  0
   38.1680   24.4260   33.3510 H   0  0  0  0  0  0  0  0  0  0  0  0
   40.5280   24.9290   34.5220 N   0  0  0  0  0  0  0  0  0  0  0  0
   40.8220   24.0240   35.4490 C   0  0  0  0  0  0  0  0  0  0  0  0
   42.0000   23.2950   35.3580 C   0  0  0  0  0  0  0  0  0  0  0  0
   42.7840   23.5910   34.2730 C   0  0  0  0  0  0  0  0  0  0  0  0
   43.8700   22.9360   34.1680 O   0  0  0  0  0  0  0  0  0  0  0  0
   42.5330   24.4880   33.3200 N   0  0  0  0  0  0  0  0  0  0  0  0
   41.3620   25.1770   33.4560 C   0  0  0  0  0  0  0  0  0  0  0  0
   41.1020   26.0390   32.5560 O   0  0  0  0  0  0  0  0  0  0  0  0
   40.1540   23.8500   36.2710 H   0  0  0  0  0  0  0  0  0  0  0  0
   42.2960   22.5500   36.0730 H   0  0  0  0  0  0  0  0  0  0  0  0
   43.1720   24.6690   32.5160 H   0  0  0  0  0  0  0  0  0  0  0  0
  2  1  1  0  0  0  0
  3  2  2  0  0  0  0
  4  3  1  0  0  0  0
  5  4  2  0  0  0  0
  5  6  1  0  0  0  0
  6  7  2  0  0  0  0
  7  2  1  0  0  0  0
  7 14  1  0  0  0  0
  8  3  1  0  0  0  0
  9  4  1  0  0  0  0
 10  5  1  0  0  0  0
 11  6  1  0  0  0  0
 12 13  1  0  0  0  0
 13 20  1  0  0  0  0
 14 15  1  0  0  0  0
 14 13  2  0  0  0  0
 15 17  2  0  0  0  0
 16 15  1  0  0  0  0
 17 18  1  0  0  0  0
 17 19  1  0  0  0  0
 20 19  2  0  0  0  0
 21 26  1  0  0  0  0
 21 27  1  0  0  0  0
 22 21  2  0  0  0  0
 23 24  2  0  0  0  0
 23 22  1  0  0  0  0
 24 25  1  0  0  0  0
 25  1  1  0  0  0  0
 25 26  2  0  0  0  0
 28 23  1  0  0  0  0
 29 22  1  0  0  0  0
 29 30  1  0  0  0  0
 30 37  1  0  0  0  0
 31 30  2  0  0  0  0
 31 38  1  0  0  0  0
 32 31  1  0  0  0  0
 33 32  2  0  0  0  0
 34 35  1  0  0  0  0
 34 32  1  0  0  0  0
 35 29  1  0  0  0  0
 36 35  2  0  0  0  0
 39 34  1  0  0  0  0
M  END
>  <minimizedAffinity>
-5.67542124

$$$$

 OpenBabel03272500093D

 39 42  0  0  0  0  0  0  0  0999 V2000
   37.9070   26.0530   33.0070 O   0  0  0  0  0  0  0  0  0  0  0  0
   39.2200   26.3360   33.3750 C   0  0  0  0  0  0  0  0  0  0  0  0
   39.9000   27.1160   32.4650 C   0  0  0  0  0  0  0  0  0  0  0  0
   41.2040   27.4790   32.6880 C   0  0  0  0  0  0  0  0  0  0  0  0
   41.8400   27.0440   33.8610 C   0  0  0  0  0  0  0  0  0  0  0  0
   41.1410   26.2570   34.7720 C   0  0  0  0  0  0  0  0  0  0  0  0
   39.8440   25.9120   34.5210 C   0  0  0  0  0  0  0  0  0  0  0  0
   39.4690   27.4810   31.5460 H   0  0  0  0  0  0  0  0  0  0  0  0
   41.7520   28.0920   31.9800 H   0  0  0  0  0  0  0  0  0  0  0  0
   42.8650   27.3370   34.0240 H   0  0  0  0  0  0  0  0  0  0  0  0
   41.6250   25.9200   35.6750 H   0  0  0  0  0  0  0  0  0  0  0  0
   40.4940   23.0440   33.8180 Br  0  0  0  0  0  0  0  0  0  0  0  0
   39.3560   23.7340   35.1890 C   0  0  0  0  0  0  0  0  0  0  0  0
   39.0950   25.0830   35.4620 C   0  0  0  0  0  0  0  0  0  0  0  0
   38.2380   25.3800   36.5010 C   0  0  0  0  0  0  0  0  0  0  0  0
   38.1350   26.4580   36.5910 H   0  0  0  0  0  0  0  0  0  0  0  0
   37.6690   24.3950   37.2340 C   0  0  0  0  0  0  0  0  0  0  0  0
   37.0060   24.7560   38.0350 H   0  0  0  0  0  0  0  0  0  0  0  0
   37.9050   23.0580   36.9930 C   0  0  0  0  0  3  0  0  0  0  0  0
   38.7570   22.7300   35.9610 C   0  0  0  0  0  3  0  0  0  0  0  0
   35.8890   28.7770   34.2150 C   0  0  0  0  0  0  0  0  0  0  0  0
   35.3030   29.2830   33.0510 C   0  0  0  0  0  0  0  0  0  0  0  0
   35.6290   28.6510   31.8480 C   0  0  0  0  0  0  0  0  0  0  0  0
   36.4850   27.5980   31.8800 N   0  0  0  0  0  0  0  0  0  0  0  0
   37.0300   27.1360   33.0060 C   0  0  0  0  0  0  0  0  0  0  0  0
   36.7320   27.7300   34.1940 N   0  0  0  0  0  0  0  0  0  0  0  0
   35.6640   29.2400   35.1790 H   0  0  0  0  0  0  0  0  0  0  0  0
   35.1740   29.0450   30.9530 H   0  0  0  0  0  0  0  0  0  0  0  0
   34.4300   30.3900   33.1510 N   0  0  0  0  0  0  0  0  0  0  0  0
   34.8690   31.6310   33.3220 C   0  0  0  0  0  0  0  0  0  0  0  0
   33.9630   32.6800   33.4140 C   0  0  0  0  0  0  0  0  0  0  0  0
   32.6450   32.3190   33.3150 C   0  0  0  0  0  0  0  0  0  0  0  0
   31.7950   33.2630   33.3970 O   0  0  0  0  0  0  0  0  0  0  0  0
   32.1570   31.0910   33.1450 N   0  0  0  0  0  0  0  0  0  0  0  0
   33.0890   30.0960   33.0600 C   0  0  0  0  0  0  0  0  0  0  0  0
   32.6450   28.9140   32.8970 O   0  0  0  0  0  0  0  0  0  0  0  0
   35.9200   31.8330   33.3890 H   0  0  0  0  0  0  0  0  0  0  0  0
   34.2520   33.7060   33.5520 H   0  0  0  0  0  0  0  0  0  0  0  0
   31.1380   30.8790   33.0780 H   0  0  0  0  0  0  0  0  0  0  0  0
  1  2  1  0  0  0  0
  2  7  1  0  0  0  0
  3  4  1  0  0  0  0
  3  2  2  0  0  0  0
  4  5  2  0  0  0  0
  5 10  1  0  0  0  0
  5  6  1  0  0  0  0
  6 11  1  0  0  0  0
  7  6  2  0  0  0  0
  7 14  1  0  0  0  0
  8  3  1  0  0  0  0
  9  4  1  0  0  0  0
 12 13  1  0  0  0  0
 13 14  2  0  0  0  0
 13 20  1  0  0  0  0
 14 15  1  0  0  0  0
 15 16  1  0  0  0  0
 15 17  2  0  0  0  0
 17 18  1  0  0  0  0
 19 17  1  0  0  0  0
 20 19  2  0  0  0  0
 21 27  1  0  0  0  0
 22 29  1  0  0  0  0
 22 21  2  0  0  0  0
 23 24  2  0  0  0  0
 23 22  1  0  0  0  0
 24 25  1  0  0  0  0
 25  1  1  0  0  0  0
 25 26  2  0  0  0  0
 26 21  1  0  0  0  0
 28 23  1  0  0  0  0
 29 30  1  0  0  0  0
 30 37  1  0  0  0  0
 30 31  2  0  0  0  0
 31 38  1  0  0  0  0
 32 33  2  0  0  0  0
 32 31  1  0  0  0  0
 34 32  1  0  0  0  0
 35 34  1  0  0  0  0
 35 29  1  0  0  0  0
 36 35  2  0  0  0  0
 39 34  1  0  0  0  0
M  END
>  <minimizedAffinity>
-5.67172337

$$$$

 OpenBabel03272500093D

 39 42  0  0  0  0  0  0  0  0999 V2000
   37.5220   23.2740   31.2550 O   0  0  0  0  0  0  0  0  0  0  0  0
   36.7920   22.2980   31.9310 C   0  0  0  0  0  0  0  0  0  0  0  0
   35.7680   21.7530   31.1880 C   0  0  0  0  0  0  0  0  0  0  0  0
   34.9590   20.7780   31.7160 C   0  0  0  0  0  0  0  0  0  0  0  0
   35.1910   20.3430   33.0310 C   0  0  0  0  0  0  0  0  0  0  0  0
   36.2290   20.9030   33.7690 C   0  0  0  0  0  0  0  0  0  0  0  0
   37.0160   21.8710   33.2140 C   0  0  0  0  0  0  0  0  0  0  0  0
   35.5380   22.0450   30.1750 H   0  0  0  0  0  0  0  0  0  0  0  0
   34.1480   20.3410   31.1440 H   0  0  0  0  0  0  0  0  0  0  0  0
   34.5480   19.5760   33.4340 H   0  0  0  0  0  0  0  0  0  0  0  0
   36.4110   20.5700   34.7790 H   0  0  0  0  0  0  0  0  0  0  0  0
   39.5430   20.4890   32.2940 Br  0  0  0  0  0  0  0  0  0  0  0  0
   39.3150   21.8750   33.5910 C   0  0  0  0  0  0  0  0  0  0  0  0
   38.1080   22.4730   33.9740 C   0  0  0  0  0  0  0  0  0  0  0  0
   38.1510   23.4630   34.9350 C   0  0  0  0  0  0  0  0  0  0  0  0
   37.1460   23.8290   35.1250 H   0  0  0  0  0  0  0  0  0  0  0  0
   39.3280   23.8420   35.4870 C   0  0  0  0  0  0  0  0  0  0  0  0
   39.2350   24.6390   36.2400 H   0  0  0  0  0  0  0  0  0  0  0  0
   40.5330   23.2740   35.1320 C   0  0  0  0  0  3  0  0  0  0  0  0
   40.5210   22.2820   34.1750 C   0  0  0  0  0  3  0  0  0  0  0  0
   37.7250   26.7210   32.2670 C   0  0  0  0  0  0  0  0  0  0  0  0
   36.4460   27.2110   31.9950 C   0  0  0  0  0  0  0  0  0  0  0  0
   35.5210   26.3130   31.4550 C   0  0  0  0  0  0  0  0  0  0  0  0
   35.9160   25.0340   31.2300 N   0  0  0  0  0  0  0  0  0  0  0  0
   37.1450   24.5930   31.4990 C   0  0  0  0  0  0  0  0  0  0  0  0
   38.0690   25.4440   32.0250 N   0  0  0  0  0  0  0  0  0  0  0  0
   38.4820   27.3880   32.6900 H   0  0  0  0  0  0  0  0  0  0  0  0
   34.5350   26.6960   31.2470 H   0  0  0  0  0  0  0  0  0  0  0  0
   36.1600   28.5680   32.2710 N   0  0  0  0  0  0  0  0  0  0  0  0
   35.7880   28.9880   33.4740 C   0  0  0  0  0  0  0  0  0  0  0  0
   35.5210   30.3340   33.6870 C   0  0  0  0  0  0  0  0  0  0  0  0
   35.6710   31.1360   32.5860 C   0  0  0  0  0  0  0  0  0  0  0  0
   35.4310   32.3750   32.7560 O   0  0  0  0  0  0  0  0  0  0  0  0
   36.0400   30.7630   31.3610 N   0  0  0  0  0  0  0  0  0  0  0  0
   36.2920   29.4300   31.2060 C   0  0  0  0  0  0  0  0  0  0  0  0
   36.6460   29.0500   30.0440 O   0  0  0  0  0  0  0  0  0  0  0  0
   35.6930   28.2950   34.2880 H   0  0  0  0  0  0  0  0  0  0  0  0
   35.2160   30.7380   34.6350 H   0  0  0  0  0  0  0  0  0  0  0  0
   36.1370   31.4240   30.5610 H   0  0  0  0  0  0  0  0  0  0  0  0
  1 25  1  0  0  0  0
  1  2  1  0  0  0  0
  2  7  1  0  0  0  0
  3  4  1  0  0  0  0
  3  2  2  0  0  0  0
  4  5  2  0  0  0  0
  5 10  1  0  0  0  0
  5  6  1  0  0  0  0
  6 11  1  0  0  0  0
  7  6  2  0  0  0  0
  7 14  1  0  0  0  0
  8  3  1  0  0  0  0
  9  4  1  0  0  0  0
 12 13  1  0  0  0  0
 13 14  2  0  0  0  0
 13 20  1  0  0  0  0
 14 15  1  0  0  0  0
 15 16  1  0  0  0  0
 15 17  2  0  0  0  0
 17 18  1  0  0  0  0
 19 17  1  0  0  0  0
 20 19  2  0  0  0  0
 21 27  1  0  0  0  0
 22 21  2  0  0  0  0
 22 29  1  0  0  0  0
 23 22  1  0  0  0  0
 24 23  2  0  0  0  0
 24 25  1  0  0  0  0
 25 26  2  0  0  0  0
 26 21  1  0  0  0  0
 28 23  1  0  0  0  0
 29 30  1  0  0  0  0
 30 31  2  0  0  0  0
 30 37  1  0  0  0  0
 31 38  1  0  0  0  0
 32 33  2  0  0  0  0
 32 31  1  0  0  0  0
 34 32  1  0  0  0  0
 35 34  1  0  0  0  0
 35 29  1  0  0  0  0
 36 35  2  0  0  0  0
 39 34  1  0  0  0  0
M  END
>  <minimizedAffinity>
-5.65937328

$$$$
