
     RDKit          3D

 35 37  0  0  0  0  0  0  0  0999 V2000
   37.8160   30.4909   50.1842 C   0  0  0  0  0  0  0  0  0  0  0  0
   37.3175   30.6882   48.8882 C   0  0  0  0  0  0  0  0  0  0  0  0
   35.9994   30.2821   48.5767 C   0  0  0  0  0  0  0  0  0  0  0  0
   35.2745   29.7122   49.5710 N   0  0  0  0  0  0  0  0  0  0  0  0
   35.7998   29.5377   50.8264 C   0  0  0  0  0  0  0  0  0  0  0  0
   37.0664   29.9277   51.1257 N   0  0  0  0  0  0  0  0  0  0  0  0
   34.9639   28.9282   51.8198 N   0  0  0  0  0  0  0  0  0  0  0  0
   38.2248   33.5770   49.2111 Cl  0  0  0  0  0  0  0  0  0  0  0  0
   38.7186   32.5982   47.8614 C   0  0  0  0  0  0  0  0  0  0  0  0
   38.2207   31.3312   47.8947 C   0  0  0  0  0  0  0  0  0  0  0  0
   38.5622   30.4544   46.8539 C   0  0  0  0  0  0  0  0  0  0  0  0
   39.3683   30.8254   45.8201 C   0  0  0  0  0  0  0  0  0  0  0  0
   39.8616   32.1316   45.8179 C   0  0  0  0  0  0  0  0  0  0  0  0
   40.9054   32.6678   44.5333 Cl  0  0  0  0  0  0  0  0  0  0  0  0
   39.5303   32.9910   46.8329 C   0  0  0  0  0  0  0  0  0  0  0  0
   35.5094   30.4954   47.2298 C   0  0  0  0  0  0  0  0  0  0  0  0
   38.8239   30.8030   50.4243 H   0  0  0  0  0  0  0  0  0  0  0  0
   34.7912   29.4952   52.6862 H   0  0  0  0  0  0  0  0  0  0  0  0
   34.5145   27.9922   51.7668 H   0  0  0  0  0  0  0  0  0  0  0  0
   38.2476   29.4244   46.7640 H   0  0  0  0  0  0  0  0  0  0  0  0
   39.6623   30.2015   44.9915 H   0  0  0  0  0  0  0  0  0  0  0  0
   39.8812   34.0202   46.9018 H   0  0  0  0  0  0  0  0  0  0  0  0
   35.9701   31.4607   46.8662 H   0  0  0  0  0  0  0  0  0  0  0  0
   35.9507   29.6947   46.5631 H   0  0  0  0  0  0  0  0  0  0  0  0
   34.3378   27.6770   47.3307 Br  0  0  0  0  0  0  0  0  0  0  0  0
   33.3612   29.3165   47.0637 C   0  0  0  0  0  0  0  0  0  0  0  0
   34.0539   30.5183   47.0541 C   0  0  0  0  0  0  0  0  0  0  0  0
   33.3671   31.7119   46.8699 C   0  0  0  0  0  0  0  0  0  0  0  0
   33.8436   32.6633   46.8454 H   0  0  0  0  0  0  0  0  0  0  0  0
   31.9897   31.7225   46.6927 C   0  0  0  0  0  0  0  0  0  0  0  0
   31.4482   32.6748   46.5403 H   0  0  0  0  0  0  0  0  0  0  0  0
   31.3118   30.5227   46.7043 C   0  0  0  0  0  0  0  0  0  0  0  0
   31.9829   29.3122   46.8884 C   0  0  0  0  0  0  0  0  0  0  0  0
   30.2240   30.5050   46.5574 H   0  0  0  0  0  0  0  0  0  0  0  0
   31.4324   28.3784   46.8958 H   0  0  0  0  0  0  0  0  0  0  0  0
  1  6  2  0
  2  1  1  0
  3  2  2  0
  3  4  1  0
  4  5  2  0
  5  6  1  0
  5  7  1  0
  9 10  2  0
  9  8  1  0
 10  2  1  0
 11 10  1  0
 12 11  2  0
 13 12  1  0
 13 15  2  0
 14 13  1  0
 15  9  1  0
 16  3  1  0
  1 17  1  0
  7 18  1  0
  7 19  1  0
 11 20  1  0
 12 21  1  0
 15 22  1  0
 16 23  1  0
 16 24  1  0
 25 26  1  0
 26 27  2  0
 27 28  1  0
 28 29  1  0
 28 30  2  0
 30 31  1  0
 30 32  1  0
 32 33  2  0
 33 26  1  0
 32 34  1  0
 33 35  1  0
 16 27  1  0
M  ISO  8  17  14  20  14  21  14  22  14  23   8  24   8  29  15  31  16
M  END
>  <DihAtoms>  (1) 
2,15,26,25

>  <DihDeg>  (1) 
-76.60541576180573

$$$$
