
 OpenBabel03272503493D

 37 39  0  0  1  0  0  0  0  0999 V2000
   33.2030   27.3350   45.8530 C   0  0  1  0  0  0  0  0  0  0  0  0
   33.9270   27.4620   47.2090 C   0  0  2  0  0  0  0  0  0  0  0  0
   33.7600   26.2400   47.7790 O   0  0  0  0  0  0  0  0  0  0  0  0
   34.0740   25.3500   46.7620 C   0  0  0  0  0  0  0  0  0  0  0  0
   33.5990   25.9340   45.4450 C   0  0  2  0  0  0  0  0  0  0  0  0
   33.6290   28.0960   45.1510 H   0  0  0  0  0  0  0  0  0  0  0  0
   34.9620   27.7720   46.9620 H   0  0  0  0  0  0  0  0  0  0  0  0
   33.4840   24.4280   46.9490 H   0  0  0  0  0  0  0  0  0  0  0  0
   35.1330   25.0670   46.7340 H   0  0  0  0  0  0  0  0  0  0  0  0
   32.6470   25.4470   45.1180 H   0  0  0  0  0  0  0  0  0  0  0  0
   31.8480   27.5360   46.0070 O   0  0  0  0  0  0  0  0  0  0  0  0
   31.5310   28.1450   45.2960 H   0  0  0  0  0  0  0  0  0  0  0  0
   33.2990   28.5160   47.8330 O   0  0  0  0  0  0  0  0  0  0  0  0
   35.3440   29.8190   46.7820 O   0  0  0  0  0  0  0  0  0  0  0  0
   34.0820   29.9910   47.6220 P   0  0  1  0  0  0  0  0  0  0  0  0
   33.1040   31.0470   46.7300 O   0  0  0  0  0  0  0  0  0  0  0  0
   32.2880   31.1970   47.2920 H   0  0  0  0  0  0  0  0  0  0  0  0
   34.3820   30.6220   49.1780 O   0  0  0  0  0  0  0  0  0  0  0  0
   35.6220   30.4960   49.7900 C   0  0  0  0  0  0  0  0  0  0  0  0
   35.9730   29.4810   50.7080 C   0  0  0  0  0  0  0  0  0  0  0  0
   37.2550   29.4880   51.2370 C   0  0  0  0  0  0  0  0  0  0  0  0
   38.1150   30.4720   50.8510 N   0  0  0  0  0  0  0  0  0  0  0  0
   37.7500   31.4330   49.9690 C   0  0  0  0  0  0  0  0  0  0  0  0
   36.4970   31.4480   49.4350 N   0  0  0  0  0  0  0  0  0  0  0  0
   35.2040   28.7790   50.9180 H   0  0  0  0  0  0  0  0  0  0  0  0
   37.5090   28.7070   51.9350 H   0  0  0  0  0  0  0  0  0  0  0  0
   38.4790   32.1920   49.6990 H   0  0  0  0  0  0  0  0  0  0  0  0
   34.5980   25.9590   44.5360 O   0  0  0  0  0  0  0  0  0  0  0  0
   36.7600   27.4410   42.6520 Br  0  0  0  0  0  0  0  0  0  0  0  0
   35.6680   25.9540   42.2780 C   0  0  0  0  0  0  0  0  0  0  0  0
   34.8390   25.5450   43.2870 C   0  0  0  0  0  0  0  0  0  0  0  0
   34.0300   24.4350   42.9960 C   0  0  0  0  0  0  0  0  0  0  0  0
   33.3000   23.9410   43.6460 H   0  0  0  0  0  0  0  0  0  0  0  0
   34.0720   23.7910   41.7530 C   0  0  0  0  0  0  0  0  0  0  0  0
   33.4730   22.9360   41.4790 H   0  0  0  0  0  0  0  0  0  0  0  0
   34.9410   24.2770   40.7980 C   0  0  0  0  0  3  0  0  0  0  0  0
   35.7550   25.3640   41.0370 C   0  0  0  0  0  3  0  0  0  0  0  0
  1  6  1  6  0  0  0
  1 11  1  0  0  0  0
  1  2  1  0  0  0  0
  2  7  1  6  0  0  0
  2  3  1  0  0  0  0
  2 13  1  0  0  0  0
  4  8  1  0  0  0  0
  4  3  1  0  0  0  0
  5 10  1  6  0  0  0
  5  1  1  0  0  0  0
  5  4  1  0  0  0  0
  9  4  1  0  0  0  0
 12 11  1  0  0  0  0
 15 14  2  6  0  0  0
 15 13  1  0  0  0  0
 15 18  1  0  0  0  0
 16 17  1  0  0  0  0
 16 15  1  0  0  0  0
 18 19  1  0  0  0  0
 19 20  1  0  0  0  0
 20 25  1  0  0  0  0
 20 21  2  0  0  0  0
 21 26  1  0  0  0  0
 22 21  1  0  0  0  0
 23 22  2  0  0  0  0
 24 19  2  0  0  0  0
 24 23  1  0  0  0  0
 27 23  1  0  0  0  0
 28  5  1  0  0  0  0
 30 29  1  0  0  0  0
 30 31  1  0  0  0  0
 31 28  1  0  0  0  0
 32 31  2  0  0  0  0
 32 33  1  0  0  0  0
 34 32  1  0  0  0  0
 35 34  1  0  0  0  0
 36 37  1  0  0  0  0
 36 34  2  0  0  0  0
 37 30  2  0  0  0  0
M  END
>  <minimizedAffinity>
-4.0514183

>  <minimizedRMSD>
0.300011724

$$$$
