REMARK  Name = 
REMARK  4 active torsions:
REMARK  status: ('A' for Active; 'I' for Inactive)
REMARK    1  A    between atoms: C_1  and  C_2
REMARK    2  A    between atoms: C_1  and  C_8
REMARK    3  A    between atoms: C_8  and  C_9
REMARK    4  A    between atoms: N_12  and  C_25
REMARK                            x       y       z     vdW  Elec       q    Type
REMARK                         _______ _______ _______ _____ _____    ______ ____
ROOT
ATOM      1  C   UNL     1      37.257  30.697  49.531  0.00  0.00    +0.000 A 
ATOM      2  C   UNL     1      36.308  29.831  50.051  0.00  0.00    +0.000 A 
ATOM      3  C   UNL     1      36.682  29.509  51.328  0.00  0.00    +0.000 A 
ATOM      4  N   UNL     1      37.822  30.162  51.565  0.00  0.00    +0.000 N 
ATOM      5  N   UNL     1      38.152  30.855  50.511  0.00  0.00    +0.000 NA
ATOM      6  H   UNL     1      35.413  29.452  49.565  0.00  0.00    +0.000 HD
ATOM      7  H   UNL     1      36.151  28.860  51.988  0.00  0.00    +0.000 HD
ENDROOT
BRANCH   4  10
ATOM      8 BR   UNL     1      40.067  32.133  51.112  0.00  0.00    +0.000 Br
ATOM      9  C   UNL     1      39.693  31.044  52.651  0.00  0.00    +0.000 A 
ATOM     10  C   UNL     1      38.616  30.163  52.746  0.00  0.00    +0.000 A 
ATOM     11  C   UNL     1      38.458  29.438  53.906  0.00  0.00    +0.000 A 
ATOM     12  H   UNL     1      37.601  28.785  53.886  0.00  0.00    +0.000 HD
ATOM     13  C   UNL     1      39.359  29.597  54.938  0.00  0.00    +0.000 A 
ATOM     14  H   UNL     1      39.190  29.004  55.829  0.00  0.00    +0.000 HD
ATOM     15  C   UNL     1      40.428  30.466  54.856  0.00  0.00    +0.000 A 
ATOM     16  C   UNL     1      40.581  31.192  53.687  0.00  0.00    +0.000 A 
ENDBRANCH   4  10
BRANCH   1  17
ATOM     17  C   UNL     1      37.140  31.224  48.156  0.00  0.00    +0.000 C 
ATOM     18  H   UNL     1      36.079  31.111  47.779  0.00  0.00    +0.000 HD
ATOM     19  H   UNL     1      37.253  32.310  48.233  0.00  0.00    +0.000 HD
BRANCH  17  20
ATOM     20  C   UNL     1      37.992  30.503  47.183  0.00  0.00    +0.000 C 
ATOM     21  H   UNL     1      38.546  29.708  47.772  0.00  0.00    +0.000 HD
ATOM     22  H   UNL     1      37.398  29.882  46.450  0.00  0.00    +0.000 HD
BRANCH  20  23
ATOM     23  C   UNL     1      38.982  31.240  46.447  0.00  0.00    +0.000 A 
ATOM     24  C   UNL     1      39.243  32.551  46.731  0.00  0.00    +0.000 A 
ATOM     25  C   UNL     1      40.212  33.272  45.998  0.00  0.00    +0.000 A 
ATOM     26  N   UNL     1      40.854  32.554  44.999  0.00  0.00    +0.000 NA
ATOM     27  C   UNL     1      40.563  31.259  44.755  0.00  0.00    +0.000 A 
ATOM     28  N   UNL     1      39.623  30.604  45.484  0.00  0.00    +0.000 NA
ATOM     29  H   UNL     1      38.817  33.202  47.475  0.00  0.00    +0.000 HD
ATOM     30  H   UNL     1      40.492  34.286  46.135  0.00  0.00    +0.000 HD
ATOM     31  H   UNL     1      41.116  30.781  43.955  0.00  0.00    +0.000 HD
ENDBRANCH  20  23
ENDBRANCH  17  20
ENDBRANCH   1  17
TORSDOF 4
