
     RDKit          3D

 36 38  0  0  0  0  0  0  0  0999 V2000
   38.8332   32.2486   47.2944 C   0  0  0  0  0  0  0  0  0  0  0  0
   38.0620   31.3322   48.1566 C   0  0  0  0  0  0  0  0  0  0  0  0
   36.9699   30.6267   47.6572 C   0  0  0  0  0  0  0  0  0  0  0  0
   36.4546   29.8630   48.6734 C   0  0  0  0  0  0  0  0  0  0  0  0
   37.2163   30.1031   49.7540 N   0  0  0  0  0  0  0  0  0  0  0  0
   38.1425   30.9631   49.4174 N   0  0  0  0  0  0  0  0  0  0  0  0
   37.0819   29.5340   51.0941 C   0  0  0  0  0  0  0  0  0  0  0  0
   37.8463   28.3853   51.1976 F   0  0  0  0  0  0  0  0  0  0  0  0
   35.7823   29.2109   51.3910 F   0  0  0  0  0  0  0  0  0  0  0  0
   37.5433   30.4070   52.0587 F   0  0  0  0  0  0  0  0  0  0  0  0
   39.8357   31.5938   46.4426 C   0  0  0  0  0  0  0  0  0  0  0  0
   39.8033   31.7666   45.0179 C   0  0  0  0  0  0  0  0  0  0  0  0
   39.2413   32.8678   44.4559 C   0  0  0  0  0  0  0  0  0  0  0  0
   39.2069   33.0417   43.0679 C   0  0  0  0  0  0  0  0  0  0  0  0
   39.7826   32.0171   42.3267 N   0  0  0  0  0  0  0  0  0  0  0  0
   40.3306   30.9406   42.9090 C   0  0  0  0  0  0  0  0  0  0  0  0
   40.3272   30.8416   44.2488 N   0  0  0  0  0  0  0  0  0  0  0  0
   38.1023   32.8820   46.7496 H   0  0  0  0  0  0  0  0  0  0  0  0
   39.3206   32.9709   48.0130 H   0  0  0  0  0  0  0  0  0  0  0  0
   36.5658   30.6510   46.6431 H   0  0  0  0  0  0  0  0  0  0  0  0
   35.6013   29.1738   48.6840 H   0  0  0  0  0  0  0  0  0  0  0  0
   40.8644   31.8745   46.7889 H   0  0  0  0  0  0  0  0  0  0  0  0
   39.7817   30.4934   46.6966 H   0  0  0  0  0  0  0  0  0  0  0  0
   38.7895   33.6751   44.9985 H   0  0  0  0  0  0  0  0  0  0  0  0
   38.7756   33.8902   42.5927 H   0  0  0  0  0  0  0  0  0  0  0  0
   38.5340   30.1804   40.4924 Br  0  0  0  0  0  0  0  0  0  0  0  0
   40.2292   29.4454   40.9619 C   0  0  0  0  0  0  0  0  0  0  0  0
   40.9216   29.8935   42.0866 C   0  0  0  0  0  0  0  0  0  0  0  0
   42.1370   29.3536   42.4071 C   0  0  0  0  0  0  0  0  0  0  0  0
   42.7060   29.6859   43.2866 H   0  0  0  0  0  0  0  0  0  0  0  0
   42.7413   28.3514   41.6516 C   0  0  0  0  0  0  0  0  0  0  0  0
   43.7048   27.9412   41.9279 H   0  0  0  0  0  0  0  0  0  0  0  0
   42.0645   27.8904   40.5236 C   0  0  0  0  0  0  0  0  0  0  0  0
   40.8307   28.4534   40.2168 C   0  0  0  0  0  0  0  0  0  0  0  0
   42.4748   27.1145   39.8915 H   0  0  0  0  0  0  0  0  0  0  0  0
   40.2426   28.1381   39.3429 H   0  0  0  0  0  0  0  0  0  0  0  0
  1  2  1  0
  2  6  2  0
  3  2  1  0
  3  4  2  0
  4  5  1  0
  5  7  1  0
  6  5  1  0
  7  8  1  0
  7  9  1  0
  7 10  1  0
 11  1  1  0
 12 11  1  0
 13 12  2  0
 14 13  1  0
 15 16  1  0
 15 14  2  0
 16 17  2  0
 17 12  1  0
  1 18  1  0
  1 19  1  0
  3 20  1  0
  4 21  1  0
 11 22  1  0
 11 23  1  0
 13 24  1  0
 14 25  1  0
 26 27  1  0
 27 28  2  0
 28 29  1  0
 29 30  1  0
 29 31  2  0
 31 32  1  0
 31 33  1  0
 33 34  2  0
 34 27  1  0
 33 35  1  0
 34 36  1  0
 16 28  1  0
M  ISO  8  18   8  19   8  20  14  21  14  22   8  23   8  24  14  25  14
M  ISO  2  30  15  32  16
M  END
>  <DihAtoms>  (1) 
14,15,27,26

>  <DihDeg>  (1) 
179.99883127900887

$$$$
