REMARK  Name = 
REMARK  3 active torsions:
REMARK  status: ('A' for Active; 'I' for Inactive)
REMARK    1  A    between atoms: C_1  and  C_7
REMARK    2  A    between atoms: C_3  and  C_12
REMARK    3  A    between atoms: N_10  and  C_22
REMARK                            x       y       z     vdW  Elec       q    Type
REMARK                         _______ _______ _______ _____ _____    ______ ____
ROOT
ATOM      1  C   UNL     1      39.099  31.096  45.902  0.00  0.00    +0.000 A 
ATOM      2  C   UNL     1      39.904  32.214  45.897  0.00  0.00    +0.000 A 
ATOM      3  C   UNL     1      40.928  32.040  44.954  0.00  0.00    +0.000 A 
ATOM      4  N   UNL     1      40.688  30.805  44.424  0.00  0.00    +0.000 N 
ATOM      5  N   UNL     1      39.617  30.267  44.989  0.00  0.00    +0.000 NA
ATOM      6  H   UNL     1      39.760  33.080  46.525  0.00  0.00    +0.000 HD
ATOM      7  H   UNL     1      41.727  32.721  44.696  0.00  0.00    +0.000 HD
ENDROOT
BRANCH   4  10
ATOM      8 BR   UNL     1      39.832  27.871  43.742  0.00  0.00    +0.000 Br
ATOM      9  C   UNL     1      41.237  28.858  42.964  0.00  0.00    +0.000 A 
ATOM     10  C   UNL     1      41.445  30.146  43.415  0.00  0.00    +0.000 A 
ATOM     11  C   UNL     1      42.487  30.855  42.827  0.00  0.00    +0.000 A 
ATOM     12  H   UNL     1      42.721  31.881  43.124  0.00  0.00    +0.000 HD
ATOM     13  C   UNL     1      43.295  30.359  41.852  0.00  0.00    +0.000 A 
ATOM     14  H   UNL     1      44.106  30.896  41.386  0.00  0.00    +0.000 HD
ATOM     15  C   UNL     1      43.057  29.051  41.418  0.00  0.00    +0.000 A 
ATOM     16  C   UNL     1      42.022  28.297  41.977  0.00  0.00    +0.000 A 
ENDBRANCH   4  10
BRANCH   1  17
ATOM     17  C   UNL     1      37.918  30.869  46.740  0.00  0.00    +0.000 A 
ATOM     18  C   UNL     1      38.070  31.033  48.143  0.00  0.00    +0.000 A 
ATOM     19  C   UNL     1      36.924  30.811  48.925  0.00  0.00    +0.000 A 
ATOM     20  N   UNL     1      35.766  30.462  48.315  0.00  0.00    +0.000 NA
ATOM     21  C   UNL     1      35.666  30.318  46.977  0.00  0.00    +0.000 A 
ATOM     22  N   UNL     1      36.753  30.526  46.208  0.00  0.00    +0.000 NA
ATOM     23  H   UNL     1      39.011  31.312  48.587  0.00  0.00    +0.000 HD
ATOM     24  H   UNL     1      34.736  30.042  46.541  0.00  0.00    +0.000 HD
BRANCH  19  25
ATOM     25  C   UNL     1      37.061  30.977  50.406  0.00  0.00    +0.000 C 
ATOM     26  F   UNL     1      36.550  32.236  50.678  0.00  0.00    +0.000 F 
ATOM     27  F   UNL     1      36.306  30.058  51.106  0.00  0.00    +0.000 F 
ATOM     28  F   UNL     1      38.372  30.943  50.823  0.00  0.00    +0.000 F 
ENDBRANCH  19  25
ENDBRANCH   1  17
TORSDOF 3
