
 OpenBabel03272507333D

 36 39  0  0  1  0  0  0  0  0999 V2000
   35.8310   29.2110   49.7860 C   0  0  0  0  0  0  0  0  0  0  0  0
   34.8350   29.8530   50.4930 C   0  0  0  0  0  0  0  0  0  0  0  0
   33.6090   29.3190   50.0690 C   0  0  0  0  0  0  0  0  0  0  0  0
   33.9430   28.3770   49.1210 C   0  0  0  0  0  0  0  0  0  0  0  0
   35.2510   28.3480   48.9880 O   0  0  0  0  0  0  0  0  0  0  0  0
   34.9120   30.6300   51.2480 H   0  0  0  0  0  0  0  0  0  0  0  0
   32.5920   29.5460   50.3720 H   0  0  0  0  0  0  0  0  0  0  0  0
   37.2380   29.5210   49.9780 C   0  0  0  0  0  0  0  0  0  0  0  0
   37.8890   28.8840   50.8160 O   0  0  0  0  0  0  0  0  0  0  0  0
   37.7930   30.5680   49.1660 C   0  0  0  0  0  0  0  0  0  0  0  0
   38.1300   31.7490   49.8060 C   0  0  0  0  0  0  0  0  0  0  0  0
   38.6700   32.7900   49.0430 C   0  0  0  0  0  0  0  0  0  0  0  0
   38.8380   32.5810   47.6930 N   0  0  0  0  0  0  0  0  0  0  0  0
   38.5010   31.4270   47.1100 C   0  0  0  0  0  0  0  0  0  0  0  0
   37.9810   30.4240   47.8340 N   0  0  0  0  0  0  0  0  0  0  0  0
   37.9840   31.8760   50.8620 H   0  0  0  0  0  0  0  0  0  0  0  0
   38.9270   33.7030   49.5600 H   0  0  0  0  0  0  0  0  0  0  0  0
   38.6560   31.3210   46.0440 H   0  0  0  0  0  0  0  0  0  0  0  0
   32.9990   27.5390   48.3830 C   0  0  0  0  0  0  0  0  0  0  0  0
   31.8490   27.3270   48.8950 O   0  0  0  0  0  0  0  0  0  0  0  0
   33.3810   26.9390   47.0620 C   0  0  1  0  0  0  0  0  0  0  0  0
   32.5630   25.6090   46.8230 C   0  0  0  0  0  0  0  0  0  0  0  0
   32.4020   26.8120   45.9800 C   0  0  1  0  0  0  0  0  0  0  0  0
   34.4740   26.6750   46.9540 H   0  0  0  0  0  0  0  0  0  0  0  0
   33.1190   24.7620   46.3840 H   0  0  0  0  0  0  0  0  0  0  0  0
   31.8560   25.3100   47.5880 H   0  0  0  0  0  0  0  0  0  0  0  0
   32.8670   26.7640   44.9510 H   0  0  0  0  0  0  0  0  0  0  0  0
   29.8290   25.0170   45.7810 Br  0  0  0  0  0  0  0  0  0  0  0  0
   29.9560   26.9110   45.9110 C   0  0  0  0  0  0  0  0  0  0  0  0
   31.1470   27.6060   45.9940 C   0  0  0  0  0  0  0  0  0  0  0  0
   31.1390   28.9840   46.0850 C   0  0  0  0  0  0  0  0  0  0  0  0
   32.0840   29.4970   46.1480 H   0  0  0  0  0  0  0  0  0  0  0  0
   29.9670   29.7070   46.0960 C   0  0  0  0  0  0  0  0  0  0  0  0
   30.0080   30.7870   46.1700 H   0  0  0  0  0  0  0  0  0  0  0  0
   28.7780   29.0030   46.0130 C   0  0  0  0  0  3  0  0  0  0  0  0
   28.7600   27.6280   45.9220 C   0  0  0  0  0  3  0  0  0  0  0  0
  1  8  1  0  0  0  0
  1  2  2  0  0  0  0
  2  6  1  0  0  0  0
  3  7  1  0  0  0  0
  3  2  1  0  0  0  0
  4  3  2  0  0  0  0
  5  4  1  0  0  0  0
  5  1  1  0  0  0  0
  8  9  2  0  0  0  0
 10 11  1  0  0  0  0
 10  8  1  0  0  0  0
 11 16  1  0  0  0  0
 12 17  1  0  0  0  0
 12 11  2  0  0  0  0
 13 12  1  0  0  0  0
 14 13  2  0  0  0  0
 14 15  1  0  0  0  0
 15 10  2  0  0  0  0
 18 14  1  0  0  0  0
 19 20  2  0  0  0  0
 19  4  1  0  0  0  0
 21 24  1  6  0  0  0
 21 19  1  0  0  0  0
 22 21  1  0  0  0  0
 22 26  1  0  0  0  0
 23 27  1  6  0  0  0
 23 30  1  0  0  0  0
 23 22  1  0  0  0  0
 23 21  1  0  0  0  0
 25 22  1  0  0  0  0
 28 29  1  0  0  0  0
 29 36  2  0  0  0  0
 29 30  1  0  0  0  0
 30 31  2  0  0  0  0
 31 33  1  0  0  0  0
 31 32  1  0  0  0  0
 33 34  1  0  0  0  0
 35 33  2  0  0  0  0
 36 35  1  0  0  0  0
M  END
>  <minimizedAffinity>
-5.30360317

>  <minimizedRMSD>
1.69112372

$$$$
