
 OpenBabel03272502203D

 28 30  0  0  0  0  0  0  0  0999 V2000
   36.0220   23.5160   31.6920 C   0  0  0  0  0  0  0  0  0  0  0  0
   35.2210   24.2630   30.8060 C   0  0  0  0  0  0  0  0  0  0  0  0
   35.2900   25.6650   30.8820 C   0  0  0  0  0  0  0  0  0  0  0  0
   36.1300   26.2140   31.8080 N   0  0  0  0  0  0  0  0  0  0  0  0
   36.8810   25.4600   32.6390 C   0  0  0  0  0  0  0  0  0  0  0  0
   36.8220   24.1230   32.5750 N   0  0  0  0  0  0  0  0  0  0  0  0
   34.5680   23.8290   30.0870 H   0  0  0  0  0  0  0  0  0  0  0  0
   34.7300   26.3270   30.2620 H   0  0  0  0  0  0  0  0  0  0  0  0
   39.7640   26.0280   31.5600 Br  0  0  0  0  0  0  0  0  0  0  0  0
   39.0820   26.3700   33.3230 C   0  0  0  0  0  0  0  0  0  0  0  0
   37.7740   26.0580   33.6270 C   0  0  0  0  0  0  0  0  0  0  0  0
   37.3510   26.3410   34.9210 C   0  0  0  0  0  0  0  0  0  0  0  0
   38.1590   26.9030   35.8900 C   0  0  0  0  0  0  0  0  0  0  0  0
   39.4510   27.1910   35.5280 C   0  0  0  0  0  0  0  0  0  0  0  0
   39.8990   26.9230   34.2540 C   0  0  0  0  0  0  0  0  0  0  0  0
   36.3310   26.1100   35.1980 H   0  0  0  0  0  0  0  0  0  0  0  0
   37.7750   27.1020   36.8850 H   0  0  0  0  0  0  0  0  0  0  0  0
   40.0950   27.6330   36.2780 H   0  0  0  0  0  0  0  0  0  0  0  0
   40.9330   27.1730   34.0290 H   0  0  0  0  0  0  0  0  0  0  0  0
   38.5040   22.3160   30.3320 Br  0  0  0  0  0  0  0  0  0  0  0  0
   37.0170   21.3550   31.0730 C   0  0  0  0  0  0  0  0  0  0  0  0
   35.9830   22.0610   31.6500 C   0  0  0  0  0  0  0  0  0  0  0  0
   34.9730   21.2680   32.1470 C   0  0  0  0  0  0  0  0  0  0  0  0
   34.1290   21.7540   32.6120 H   0  0  0  0  0  0  0  0  0  0  0  0
   35.0010   19.8920   32.0710 C   0  0  0  0  0  0  0  0  0  0  0  0
   34.1580   19.3440   32.4910 H   0  0  0  0  0  0  0  0  0  0  0  0
   36.0550   19.2350   31.4870 C   0  0  0  0  0  3  0  0  0  0  0  0
   37.0920   19.9840   30.9740 C   0  0  0  0  0  3  0  0  0  0  0  0
  1  6  1  0  0  0  0
  2  3  1  0  0  0  0
  2  1  2  0  0  0  0
  3  4  2  0  0  0  0
  4  5  1  0  0  0  0
  5 11  1  0  0  0  0
  6  5  2  0  0  0  0
  7  2  1  0  0  0  0
  8  3  1  0  0  0  0
  9 10  1  0  0  0  0
 10 11  2  0  0  0  0
 10 15  1  0  0  0  0
 11 12  1  0  0  0  0
 12 16  1  0  0  0  0
 12 13  2  0  0  0  0
 13 17  1  0  0  0  0
 14 13  1  0  0  0  0
 14 18  1  0  0  0  0
 15 14  2  0  0  0  0
 19 15  1  0  0  0  0
 20 21  1  0  0  0  0
 21 22  1  0  0  0  0
 22  1  1  0  0  0  0
 22 23  2  0  0  0  0
 23 24  1  0  0  0  0
 25 23  1  0  0  0  0
 25 26  1  0  0  0  0
 27 25  2  0  0  0  0
 28 21  2  0  0  0  0
 28 27  1  0  0  0  0
M  END
>  <minimizedAffinity>
-5.64919996

$$$$

 OpenBabel03272502203D

 28 30  0  0  0  0  0  0  0  0999 V2000
   36.8520   25.3230   32.6150 C   0  0  0  0  0  0  0  0  0  0  0  0
   36.0790   26.1310   31.7580 C   0  0  0  0  0  0  0  0  0  0  0  0
   35.2580   25.4890   30.8140 C   0  0  0  0  0  0  0  0  0  0  0  0
   35.2630   24.1240   30.7870 N   0  0  0  0  0  0  0  0  0  0  0  0
   36.0200   23.3870   31.6280 C   0  0  0  0  0  0  0  0  0  0  0  0
   36.8050   23.9890   32.5310 N   0  0  0  0  0  0  0  0  0  0  0  0
   36.0800   27.1940   31.7840 H   0  0  0  0  0  0  0  0  0  0  0  0
   34.6330   25.9990   30.1180 H   0  0  0  0  0  0  0  0  0  0  0  0
   38.5520   22.1500   30.2650 Br  0  0  0  0  0  0  0  0  0  0  0  0
   37.0520   21.2180   31.0210 C   0  0  0  0  0  0  0  0  0  0  0  0
   36.0170   21.9280   31.5890 C   0  0  0  0  0  0  0  0  0  0  0  0
   34.9700   21.1840   32.1220 C   0  0  0  0  0  0  0  0  0  0  0  0
   34.9210   19.8040   32.1060 C   0  0  0  0  0  0  0  0  0  0  0  0
   35.9800   19.1530   31.5270 C   0  0  0  0  0  0  0  0  0  0  0  0
   37.0310   19.8620   30.9910 C   0  0  0  0  0  0  0  0  0  0  0  0
   34.1390   21.7050   32.5770 H   0  0  0  0  0  0  0  0  0  0  0  0
   34.0770   19.2740   32.5370 H   0  0  0  0  0  0  0  0  0  0  0  0
   35.9550   18.0690   31.5080 H   0  0  0  0  0  0  0  0  0  0  0  0
   37.8410   19.2890   30.5450 H   0  0  0  0  0  0  0  0  0  0  0  0
   39.7030   25.7840   31.5630 Br  0  0  0  0  0  0  0  0  0  0  0  0
   39.0320   26.2240   33.3070 C   0  0  0  0  0  0  0  0  0  0  0  0
   37.7160   25.9440   33.6090 C   0  0  0  0  0  0  0  0  0  0  0  0
   37.3470   26.3020   34.8860 C   0  0  0  0  0  0  0  0  0  0  0  0
   36.3300   26.1110   35.1920 H   0  0  0  0  0  0  0  0  0  0  0  0
   38.2200   26.8880   35.7770 C   0  0  0  0  0  0  0  0  0  0  0  0
   37.8420   27.1390   36.7680 H   0  0  0  0  0  0  0  0  0  0  0  0
   39.5230   27.1480   35.4280 C   0  0  0  0  0  3  0  0  0  0  0  0
   39.9420   26.8080   34.1590 C   0  0  0  0  0  3  0  0  0  0  0  0
  1 22  1  0  0  0  0
  2  7  1  0  0  0  0
  2  1  2  0  0  0  0
  3  2  1  0  0  0  0
  4  3  2  0  0  0  0
  4  5  1  0  0  0  0
  5  6  2  0  0  0  0
  6  1  1  0  0  0  0
  8  3  1  0  0  0  0
  9 10  1  0  0  0  0
 10 11  1  0  0  0  0
 11  5  1  0  0  0  0
 11 12  2  0  0  0  0
 12 16  1  0  0  0  0
 13 12  1  0  0  0  0
 13 17  1  0  0  0  0
 14 13  2  0  0  0  0
 15 10  2  0  0  0  0
 15 14  1  0  0  0  0
 18 14  1  0  0  0  0
 19 15  1  0  0  0  0
 20 21  1  0  0  0  0
 21 22  2  0  0  0  0
 21 28  1  0  0  0  0
 22 23  1  0  0  0  0
 23 24  1  0  0  0  0
 23 25  2  0  0  0  0
 25 26  1  0  0  0  0
 27 25  1  0  0  0  0
 28 27  2  0  0  0  0
M  END
>  <minimizedAffinity>
-5.59375811

$$$$

 OpenBabel03272502203D

 28 30  0  0  0  0  0  0  0  0999 V2000
   35.5500   29.9530   33.0280 C   0  0  0  0  0  0  0  0  0  0  0  0
   35.8830   30.7880   31.9430 C   0  0  0  0  0  0  0  0  0  0  0  0
   36.3390   30.1790   30.7610 C   0  0  0  0  0  0  0  0  0  0  0  0
   36.4290   28.8170   30.7390 N   0  0  0  0  0  0  0  0  0  0  0  0
   36.1000   28.0540   31.8030 C   0  0  0  0  0  0  0  0  0  0  0  0
   35.6640   28.6240   32.9330 N   0  0  0  0  0  0  0  0  0  0  0  0
   35.8100   31.8490   31.9670 H   0  0  0  0  0  0  0  0  0  0  0  0
   36.6170   30.7120   29.8810 H   0  0  0  0  0  0  0  0  0  0  0  0
   38.6670   26.9290   33.1970 Br  0  0  0  0  0  0  0  0  0  0  0  0
   37.2710   25.9350   32.3300 C   0  0  0  0  0  0  0  0  0  0  0  0
   36.2020   26.5980   31.7680 C   0  0  0  0  0  0  0  0  0  0  0  0
   35.2280   25.8100   31.1640 C   0  0  0  0  0  0  0  0  0  0  0  0
   35.2820   24.4310   31.1030 C   0  0  0  0  0  0  0  0  0  0  0  0
   36.3710   23.8280   31.6800 C   0  0  0  0  0  0  0  0  0  0  0  0
   37.3510   24.5810   32.2850 C   0  0  0  0  0  0  0  0  0  0  0  0
   34.3730   26.2930   30.7110 H   0  0  0  0  0  0  0  0  0  0  0  0
   34.4930   23.8660   30.6180 H   0  0  0  0  0  0  0  0  0  0  0  0
   36.4250   22.7460   31.6400 H   0  0  0  0  0  0  0  0  0  0  0  0
   38.1890   24.0450   32.7240 H   0  0  0  0  0  0  0  0  0  0  0  0
   32.5010   29.7160   33.3420 Br  0  0  0  0  0  0  0  0  0  0  0  0
   33.7280   30.5240   34.5770 C   0  0  0  0  0  0  0  0  0  0  0  0
   35.0730   30.5400   34.2720 C   0  0  0  0  0  0  0  0  0  0  0  0
   35.8570   31.1440   35.2290 C   0  0  0  0  0  0  0  0  0  0  0  0
   36.9210   31.1950   35.0560 H   0  0  0  0  0  0  0  0  0  0  0  0
   35.3370   31.6820   36.3870 C   0  0  0  0  0  0  0  0  0  0  0  0
   36.0310   32.1410   37.0900 H   0  0  0  0  0  0  0  0  0  0  0  0
   33.9890   31.6400   36.6460 C   0  0  0  0  0  3  0  0  0  0  0  0
   33.1610   31.0460   35.7180 C   0  0  0  0  0  3  0  0  0  0  0  0
  1 22  1  0  0  0  0
  2  7  1  0  0  0  0
  2  1  2  0  0  0  0
  3  2  1  0  0  0  0
  4  3  2  0  0  0  0
  4  5  1  0  0  0  0
  5  6  2  0  0  0  0
  6  1  1  0  0  0  0
  8  3  1  0  0  0  0
 10  9  1  0  0  0  0
 11  5  1  0  0  0  0
 11 10  2  0  0  0  0
 12 11  1  0  0  0  0
 13 12  2  0  0  0  0
 13 14  1  0  0  0  0
 14 15  2  0  0  0  0
 15 10  1  0  0  0  0
 15 19  1  0  0  0  0
 16 12  1  0  0  0  0
 17 13  1  0  0  0  0
 18 14  1  0  0  0  0
 20 21  1  0  0  0  0
 21 28  1  0  0  0  0
 22 21  2  0  0  0  0
 22 23  1  0  0  0  0
 23 25  2  0  0  0  0
 24 23  1  0  0  0  0
 25 27  1  0  0  0  0
 25 26  1  0  0  0  0
 28 27  2  0  0  0  0
M  END
>  <minimizedAffinity>
-5.5805335

$$$$

 OpenBabel03272502203D

 28 30  0  0  0  0  0  0  0  0999 V2000
   36.0700   28.0280   31.8110 C   0  0  0  0  0  0  0  0  0  0  0  0
   36.5030   28.7870   30.7050 C   0  0  0  0  0  0  0  0  0  0  0  0
   36.4220   30.1880   30.7990 C   0  0  0  0  0  0  0  0  0  0  0  0
   35.9300   30.7230   31.9540 N   0  0  0  0  0  0  0  0  0  0  0  0
   35.5260   29.9580   32.9910 C   0  0  0  0  0  0  0  0  0  0  0  0
   35.5990   28.6230   32.9120 N   0  0  0  0  0  0  0  0  0  0  0  0
   36.8850   28.3630   29.8080 H   0  0  0  0  0  0  0  0  0  0  0  0
   36.7200   30.8580   30.0260 H   0  0  0  0  0  0  0  0  0  0  0  0
   32.4070   29.8210   33.2290 Br  0  0  0  0  0  0  0  0  0  0  0  0
   33.6490   30.5720   34.4870 C   0  0  0  0  0  0  0  0  0  0  0  0
   35.0010   30.5420   34.2210 C   0  0  0  0  0  0  0  0  0  0  0  0
   35.8370   31.0990   35.1820 C   0  0  0  0  0  0  0  0  0  0  0  0
   35.3880   31.6660   36.3590 C   0  0  0  0  0  0  0  0  0  0  0  0
   34.0320   31.6660   36.5680 C   0  0  0  0  0  0  0  0  0  0  0  0
   33.1790   31.1220   35.6350 C   0  0  0  0  0  0  0  0  0  0  0  0
   36.9050   31.0960   35.0100 H   0  0  0  0  0  0  0  0  0  0  0  0
   36.0870   32.0870   37.0740 H   0  0  0  0  0  0  0  0  0  0  0  0
   33.6660   32.1060   37.4880 H   0  0  0  0  0  0  0  0  0  0  0  0
   32.1140   31.1520   35.8580 H   0  0  0  0  0  0  0  0  0  0  0  0
   38.4860   26.9090   33.3480 Br  0  0  0  0  0  0  0  0  0  0  0  0
   37.1580   25.9020   32.3950 C   0  0  0  0  0  0  0  0  0  0  0  0
   36.1360   26.5750   31.7590 C   0  0  0  0  0  0  0  0  0  0  0  0
   35.2440   25.7510   31.1100 C   0  0  0  0  0  0  0  0  0  0  0  0
   34.4180   26.2090   30.5890 H   0  0  0  0  0  0  0  0  0  0  0  0
   35.3680   24.3780   31.1020 C   0  0  0  0  0  0  0  0  0  0  0  0
   34.6150   23.8040   30.5620 H   0  0  0  0  0  0  0  0  0  0  0  0
   36.4050   23.7550   31.7520 C   0  0  0  0  0  3  0  0  0  0  0  0
   37.3250   24.5360   32.4170 C   0  0  0  0  0  3  0  0  0  0  0  0
  1  6  1  0  0  0  0
  2  3  1  0  0  0  0
  2  1  2  0  0  0  0
  3  4  2  0  0  0  0
  4  5  1  0  0  0  0
  5 11  1  0  0  0  0
  6  5  2  0  0  0  0
  7  2  1  0  0  0  0
  8  3  1  0  0  0  0
  9 10  1  0  0  0  0
 10 15  1  0  0  0  0
 11 10  2  0  0  0  0
 11 12  1  0  0  0  0
 12 13  2  0  0  0  0
 13 14  1  0  0  0  0
 13 17  1  0  0  0  0
 14 18  1  0  0  0  0
 15 19  1  0  0  0  0
 15 14  2  0  0  0  0
 16 12  1  0  0  0  0
 21 28  1  0  0  0  0
 21 20  1  0  0  0  0
 22  1  1  0  0  0  0
 22 21  2  0  0  0  0
 23 22  1  0  0  0  0
 24 23  1  0  0  0  0
 25 23  2  0  0  0  0
 25 27  1  0  0  0  0
 26 25  1  0  0  0  0
 27 28  2  0  0  0  0
M  END
>  <minimizedAffinity>
-5.55012512

$$$$

 OpenBabel03272502203D

 28 30  0  0  0  0  0  0  0  0999 V2000
   36.3770   23.9020   31.6670 C   0  0  0  0  0  0  0  0  0  0  0  0
   35.3850   24.7380   31.1180 C   0  0  0  0  0  0  0  0  0  0  0  0
   35.6050   26.1270   31.1510 C   0  0  0  0  0  0  0  0  0  0  0  0
   36.7650   26.5760   31.7110 N   0  0  0  0  0  0  0  0  0  0  0  0
   37.6910   25.7380   32.2260 C   0  0  0  0  0  0  0  0  0  0  0  0
   37.4910   24.4150   32.2000 N   0  0  0  0  0  0  0  0  0  0  0  0
   34.4820   24.3810   30.6830 H   0  0  0  0  0  0  0  0  0  0  0  0
   34.9240   26.8500   30.7650 H   0  0  0  0  0  0  0  0  0  0  0  0
   37.5600   26.0450   35.3390 Br  0  0  0  0  0  0  0  0  0  0  0  0
   39.0450   26.4300   34.1820 C   0  0  0  0  0  0  0  0  0  0  0  0
   38.9280   26.2310   32.8240 C   0  0  0  0  0  0  0  0  0  0  0  0
   40.0470   26.5260   32.0530 C   0  0  0  0  0  0  0  0  0  0  0  0
   41.2370   26.9970   32.5720 C   0  0  0  0  0  0  0  0  0  0  0  0
   41.2930   27.1750   33.9310 C   0  0  0  0  0  0  0  0  0  0  0  0
   40.2020   26.8910   34.7210 C   0  0  0  0  0  0  0  0  0  0  0  0
   39.9950   26.3840   30.9820 H   0  0  0  0  0  0  0  0  0  0  0  0
   42.0800   27.2110   31.9220 H   0  0  0  0  0  0  0  0  0  0  0  0
   42.2220   27.5430   34.3510 H   0  0  0  0  0  0  0  0  0  0  0  0
   40.3080   27.0530   35.7910 H   0  0  0  0  0  0  0  0  0  0  0  0
   38.6220   22.4460   30.1530 Br  0  0  0  0  0  0  0  0  0  0  0  0
   37.1070   21.6460   31.0180 C   0  0  0  0  0  0  0  0  0  0  0  0
   36.1920   22.4580   31.6550 C   0  0  0  0  0  0  0  0  0  0  0  0
   35.1490   21.7750   32.2390 C   0  0  0  0  0  0  0  0  0  0  0  0
   34.3940   22.3470   32.7550 H   0  0  0  0  0  0  0  0  0  0  0  0
   35.0360   20.4020   32.1880 C   0  0  0  0  0  0  0  0  0  0  0  0
   34.1770   19.9450   32.6790 H   0  0  0  0  0  0  0  0  0  0  0  0
   35.9750   19.6360   31.5420 C   0  0  0  0  0  3  0  0  0  0  0  0
   37.0390   20.2720   30.9400 C   0  0  0  0  0  3  0  0  0  0  0  0
  1  6  1  0  0  0  0
  2  3  1  0  0  0  0
  2  1  2  0  0  0  0
  3  4  2  0  0  0  0
  4  5  1  0  0  0  0
  5 11  1  0  0  0  0
  6  5  2  0  0  0  0
  7  2  1  0  0  0  0
  8  3  1  0  0  0  0
 10 15  1  0  0  0  0
 10  9  1  0  0  0  0
 11 10  2  0  0  0  0
 12 13  2  0  0  0  0
 12 11  1  0  0  0  0
 13 14  1  0  0  0  0
 14 18  1  0  0  0  0
 14 15  2  0  0  0  0
 15 19  1  0  0  0  0
 16 12  1  0  0  0  0
 17 13  1  0  0  0  0
 20 21  1  0  0  0  0
 21 22  1  0  0  0  0
 22  1  1  0  0  0  0
 22 23  2  0  0  0  0
 23 24  1  0  0  0  0
 25 23  1  0  0  0  0
 25 26  1  0  0  0  0
 27 25  2  0  0  0  0
 28 21  2  0  0  0  0
 28 27  1  0  0  0  0
M  END
>  <minimizedAffinity>
-5.41805029

$$$$

 OpenBabel03272502203D

 28 30  0  0  0  0  0  0  0  0999 V2000
   34.9360   29.6210   33.9720 C   0  0  0  0  0  0  0  0  0  0  0  0
   34.9650   30.2040   32.6890 C   0  0  0  0  0  0  0  0  0  0  0  0
   35.9100   29.7170   31.7680 C   0  0  0  0  0  0  0  0  0  0  0  0
   36.7380   28.7110   32.1750 N   0  0  0  0  0  0  0  0  0  0  0  0
   36.6760   28.1810   33.4150 C   0  0  0  0  0  0  0  0  0  0  0  0
   35.7800   28.6370   34.2990 N   0  0  0  0  0  0  0  0  0  0  0  0
   34.3160   30.9880   32.3790 H   0  0  0  0  0  0  0  0  0  0  0  0
   36.0200   30.0830   30.7730 H   0  0  0  0  0  0  0  0  0  0  0  0
   36.2720   25.5050   31.8410 Br  0  0  0  0  0  0  0  0  0  0  0  0
   37.5230   25.8580   33.2550 C   0  0  0  0  0  0  0  0  0  0  0  0
   37.5680   27.1060   33.8380 C   0  0  0  0  0  0  0  0  0  0  0  0
   38.5040   27.2870   34.8510 C   0  0  0  0  0  0  0  0  0  0  0  0
   39.3670   26.3010   35.2870 C   0  0  0  0  0  0  0  0  0  0  0  0
   39.2750   25.0800   34.6690 C   0  0  0  0  0  0  0  0  0  0  0  0
   38.3590   24.8700   33.6640 C   0  0  0  0  0  0  0  0  0  0  0  0
   38.5700   28.2530   35.3330 H   0  0  0  0  0  0  0  0  0  0  0  0
   40.0780   26.4980   36.0830 H   0  0  0  0  0  0  0  0  0  0  0  0
   39.9470   24.2970   35.0010 H   0  0  0  0  0  0  0  0  0  0  0  0
   38.3340   23.8800   33.2130 H   0  0  0  0  0  0  0  0  0  0  0  0
   36.0710   31.8730   35.7280 Br  0  0  0  0  0  0  0  0  0  0  0  0
   34.3160   31.1030   35.8320 C   0  0  0  0  0  0  0  0  0  0  0  0
   33.9740   30.0930   34.9580 C   0  0  0  0  0  0  0  0  0  0  0  0
   32.6930   29.6180   35.1250 C   0  0  0  0  0  0  0  0  0  0  0  0
   32.3570   28.8250   34.4750 H   0  0  0  0  0  0  0  0  0  0  0  0
   31.8340   30.1130   36.0820 C   0  0  0  0  0  0  0  0  0  0  0  0
   30.8370   29.6770   36.1440 H   0  0  0  0  0  0  0  0  0  0  0  0
   32.2210   31.1210   36.9300 C   0  0  0  0  0  3  0  0  0  0  0  0
   33.4950   31.6310   36.8040 C   0  0  0  0  0  3  0  0  0  0  0  0
  1  6  1  0  0  0  0
  1 22  1  0  0  0  0
  2  1  2  0  0  0  0
  3  4  2  0  0  0  0
  3  2  1  0  0  0  0
  4  5  1  0  0  0  0
  5 11  1  0  0  0  0
  5  6  2  0  0  0  0
  7  2  1  0  0  0  0
  8  3  1  0  0  0  0
  9 10  1  0  0  0  0
 10 15  2  0  0  0  0
 10 11  1  0  0  0  0
 11 12  2  0  0  0  0
 12 13  1  0  0  0  0
 12 16  1  0  0  0  0
 13 17  1  0  0  0  0
 14 18  1  0  0  0  0
 14 13  2  0  0  0  0
 15 14  1  0  0  0  0
 19 15  1  0  0  0  0
 20 21  1  0  0  0  0
 21 28  1  0  0  0  0
 22 23  1  0  0  0  0
 22 21  2  0  0  0  0
 23 25  2  0  0  0  0
 24 23  1  0  0  0  0
 25 26  1  0  0  0  0
 25 27  1  0  0  0  0
 28 27  2  0  0  0  0
M  END
>  <minimizedAffinity>
-5.41706228

$$$$

 OpenBabel03272502203D

 28 30  0  0  0  0  0  0  0  0999 V2000
   36.6420   28.1760   33.4930 C   0  0  0  0  0  0  0  0  0  0  0  0
   36.6940   28.6680   32.1730 C   0  0  0  0  0  0  0  0  0  0  0  0
   35.7970   29.6900   31.8180 C   0  0  0  0  0  0  0  0  0  0  0  0
   34.9330   30.1420   32.7730 N   0  0  0  0  0  0  0  0  0  0  0  0
   34.9170   29.6420   34.0270 C   0  0  0  0  0  0  0  0  0  0  0  0
   35.7680   28.6690   34.3760 N   0  0  0  0  0  0  0  0  0  0  0  0
   37.3700   28.3100   31.4330 H   0  0  0  0  0  0  0  0  0  0  0  0
   35.7480   30.1350   30.8500 H   0  0  0  0  0  0  0  0  0  0  0  0
   36.0180   32.0530   35.6950 Br  0  0  0  0  0  0  0  0  0  0  0  0
   34.3120   31.1870   35.8680 C   0  0  0  0  0  0  0  0  0  0  0  0
   33.9880   30.1340   35.0400 C   0  0  0  0  0  0  0  0  0  0  0  0
   32.7330   29.5630   35.2210 C   0  0  0  0  0  0  0  0  0  0  0  0
   31.8220   29.9900   36.1670 C   0  0  0  0  0  0  0  0  0  0  0  0
   32.2010   31.0420   36.9610 C   0  0  0  0  0  0  0  0  0  0  0  0
   33.4360   31.6280   36.8060 C   0  0  0  0  0  0  0  0  0  0  0  0
   32.4420   28.7330   34.5910 H   0  0  0  0  0  0  0  0  0  0  0  0
   30.8550   29.5060   36.2640 H   0  0  0  0  0  0  0  0  0  0  0  0
   31.4950   31.3880   37.7070 H   0  0  0  0  0  0  0  0  0  0  0  0
   33.6790   32.4580   37.4660 H   0  0  0  0  0  0  0  0  0  0  0  0
   36.2310   25.5880   31.8870 Br  0  0  0  0  0  0  0  0  0  0  0  0
   37.5070   25.8840   33.2900 C   0  0  0  0  0  0  0  0  0  0  0  0
   37.5520   27.1180   33.9050 C   0  0  0  0  0  0  0  0  0  0  0  0
   38.5040   27.2140   34.8950 C   0  0  0  0  0  0  0  0  0  0  0  0
   38.5960   28.1520   35.4210 H   0  0  0  0  0  0  0  0  0  0  0  0
   39.3350   26.1680   35.2350 C   0  0  0  0  0  0  0  0  0  0  0  0
   40.0600   26.3330   36.0310 H   0  0  0  0  0  0  0  0  0  0  0  0
   39.2510   24.9570   34.5910 C   0  0  0  0  0  3  0  0  0  0  0  0
   38.3130   24.8090   33.5920 C   0  0  0  0  0  3  0  0  0  0  0  0
  1 22  1  0  0  0  0
  1  6  1  0  0  0  0
  2  1  2  0  0  0  0
  3  2  1  0  0  0  0
  3  4  2  0  0  0  0
  4  5  1  0  0  0  0
  5  6  2  0  0  0  0
  5 11  1  0  0  0  0
  7  2  1  0  0  0  0
  8  3  1  0  0  0  0
  9 10  1  0  0  0  0
 10 15  1  0  0  0  0
 11 12  1  0  0  0  0
 11 10  2  0  0  0  0
 12 13  2  0  0  0  0
 13 17  1  0  0  0  0
 13 14  1  0  0  0  0
 14 18  1  0  0  0  0
 15 14  2  0  0  0  0
 15 19  1  0  0  0  0
 16 12  1  0  0  0  0
 20 21  1  0  0  0  0
 21 28  2  0  0  0  0
 21 22  1  0  0  0  0
 22 23  2  0  0  0  0
 23 25  1  0  0  0  0
 23 24  1  0  0  0  0
 25 26  1  0  0  0  0
 27 25  2  0  0  0  0
 28 27  1  0  0  0  0
M  END
>  <minimizedAffinity>
-5.41525364

$$$$

 OpenBabel03272502203D

 28 30  0  0  0  0  0  0  0  0999 V2000
   38.0210   23.3070   34.7410 C   0  0  0  0  0  0  0  0  0  0  0  0
   38.2110   24.4130   33.8890 C   0  0  0  0  0  0  0  0  0  0  0  0
   37.8910   24.2560   32.5290 C   0  0  0  0  0  0  0  0  0  0  0  0
   37.4160   23.0440   32.1200 N   0  0  0  0  0  0  0  0  0  0  0  0
   37.2490   22.0090   32.9720 C   0  0  0  0  0  0  0  0  0  0  0  0
   37.5500   22.1480   34.2690 N   0  0  0  0  0  0  0  0  0  0  0  0
   38.5820   25.3560   34.2140 H   0  0  0  0  0  0  0  0  0  0  0  0
   37.9940   25.0240   31.7960 H   0  0  0  0  0  0  0  0  0  0  0  0
   39.4750   20.0590   31.9480 Br  0  0  0  0  0  0  0  0  0  0  0  0
   37.5820   19.7390   32.0360 C   0  0  0  0  0  0  0  0  0  0  0  0
   36.7410   20.7160   32.5220 C   0  0  0  0  0  0  0  0  0  0  0  0
   35.3860   20.4080   32.5610 C   0  0  0  0  0  0  0  0  0  0  0  0
   34.8580   19.2010   32.1450 C   0  0  0  0  0  0  0  0  0  0  0  0
   35.7450   18.2680   31.6710 C   0  0  0  0  0  0  0  0  0  0  0  0
   37.0930   18.5440   31.6200 C   0  0  0  0  0  0  0  0  0  0  0  0
   34.6930   21.1490   32.9360 H   0  0  0  0  0  0  0  0  0  0  0  0
   33.7900   19.0150   32.1980 H   0  0  0  0  0  0  0  0  0  0  0  0
   35.3450   17.3170   31.3420 H   0  0  0  0  0  0  0  0  0  0  0  0
   37.7450   17.7640   31.2340 H   0  0  0  0  0  0  0  0  0  0  0  0
   40.7720   22.1190   35.4240 Br  0  0  0  0  0  0  0  0  0  0  0  0
   39.5360   22.9410   36.6410 C   0  0  0  0  0  0  0  0  0  0  0  0
   38.3390   23.4240   36.1570 C   0  0  0  0  0  0  0  0  0  0  0  0
   37.5340   23.9910   37.1190 C   0  0  0  0  0  0  0  0  0  0  0  0
   36.5790   24.3890   36.8120 H   0  0  0  0  0  0  0  0  0  0  0  0
   37.8990   24.0670   38.4460 C   0  0  0  0  0  0  0  0  0  0  0  0
   37.2000   24.5330   39.1390 H   0  0  0  0  0  0  0  0  0  0  0  0
   39.1050   23.5720   38.8800 C   0  0  0  0  0  3  0  0  0  0  0  0
   39.9470   22.9940   37.9550 C   0  0  0  0  0  3  0  0  0  0  0  0
  1 22  1  0  0  0  0
  2  7  1  0  0  0  0
  2  1  2  0  0  0  0
  3  2  1  0  0  0  0
  4  3  2  0  0  0  0
  4  5  1  0  0  0  0
  5  6  2  0  0  0  0
  6  1  1  0  0  0  0
  8  3  1  0  0  0  0
  9 10  1  0  0  0  0
 10 11  1  0  0  0  0
 11 12  2  0  0  0  0
 11  5  1  0  0  0  0
 12 16  1  0  0  0  0
 13 17  1  0  0  0  0
 13 12  1  0  0  0  0
 14 13  2  0  0  0  0
 15 14  1  0  0  0  0
 15 10  2  0  0  0  0
 18 14  1  0  0  0  0
 19 15  1  0  0  0  0
 20 21  1  0  0  0  0
 21 28  1  0  0  0  0
 22 21  2  0  0  0  0
 22 23  1  0  0  0  0
 23 25  2  0  0  0  0
 24 23  1  0  0  0  0
 25 27  1  0  0  0  0
 25 26  1  0  0  0  0
 28 27  2  0  0  0  0
M  END
>  <minimizedAffinity>
-5.40895987

$$$$

 OpenBabel03272502203D

 28 30  0  0  0  0  0  0  0  0999 V2000
   37.3040   23.7440   32.1190 C   0  0  0  0  0  0  0  0  0  0  0  0
   38.6010   23.7270   31.5680 C   0  0  0  0  0  0  0  0  0  0  0  0
   39.2690   24.9550   31.4230 C   0  0  0  0  0  0  0  0  0  0  0  0
   38.6200   26.0860   31.8260 N   0  0  0  0  0  0  0  0  0  0  0  0
   37.3760   26.0580   32.3500 C   0  0  0  0  0  0  0  0  0  0  0  0
   36.7300   24.8930   32.4920 N   0  0  0  0  0  0  0  0  0  0  0  0
   39.1000   22.8410   31.2550 H   0  0  0  0  0  0  0  0  0  0  0  0
   40.2500   25.0600   31.0200 H   0  0  0  0  0  0  0  0  0  0  0  0
   37.8770   26.8090   35.3470 Br  0  0  0  0  0  0  0  0  0  0  0  0
   36.7980   27.7490   34.0650 C   0  0  0  0  0  0  0  0  0  0  0  0
   36.6920   27.2750   32.7760 C   0  0  0  0  0  0  0  0  0  0  0  0
   35.8980   28.0130   31.9050 C   0  0  0  0  0  0  0  0  0  0  0  0
   35.2300   29.1670   32.2620 C   0  0  0  0  0  0  0  0  0  0  0  0
   35.3740   29.5900   33.5590 C   0  0  0  0  0  0  0  0  0  0  0  0
   36.1520   28.8810   34.4450 C   0  0  0  0  0  0  0  0  0  0  0  0
   35.7900   27.6720   30.8840 H   0  0  0  0  0  0  0  0  0  0  0  0
   34.6230   29.7030   31.5390 H   0  0  0  0  0  0  0  0  0  0  0  0
   34.8550   30.4950   33.8530 H   0  0  0  0  0  0  0  0  0  0  0  0
   36.2270   29.2670   35.4600 H   0  0  0  0  0  0  0  0  0  0  0  0
   37.9460   22.3640   34.7900 Br  0  0  0  0  0  0  0  0  0  0  0  0
   36.7420   21.7420   33.4300 C   0  0  0  0  0  0  0  0  0  0  0  0
   36.5740   22.4960   32.2880 C   0  0  0  0  0  0  0  0  0  0  0  0
   35.6880   21.9530   31.3850 C   0  0  0  0  0  0  0  0  0  0  0  0
   35.5080   22.4890   30.4660 H   0  0  0  0  0  0  0  0  0  0  0  0
   35.0300   20.7620   31.6100 C   0  0  0  0  0  0  0  0  0  0  0  0
   34.3460   20.4070   30.8400 H   0  0  0  0  0  0  0  0  0  0  0  0
   35.2310   20.0480   32.7660 C   0  0  0  0  0  3  0  0  0  0  0  0
   36.1090   20.5500   33.7020 C   0  0  0  0  0  3  0  0  0  0  0  0
  1 22  1  0  0  0  0
  1  6  1  0  0  0  0
  2  1  2  0  0  0  0
  3  2  1  0  0  0  0
  3  4  2  0  0  0  0
  4  5  1  0  0  0  0
  5  6  2  0  0  0  0
  5 11  1  0  0  0  0
  7  2  1  0  0  0  0
  8  3  1  0  0  0  0
 10 15  1  0  0  0  0
 10  9  1  0  0  0  0
 11 10  2  0  0  0  0
 12 13  2  0  0  0  0
 12 11  1  0  0  0  0
 13 14  1  0  0  0  0
 14 18  1  0  0  0  0
 14 15  2  0  0  0  0
 15 19  1  0  0  0  0
 16 12  1  0  0  0  0
 17 13  1  0  0  0  0
 21 28  1  0  0  0  0
 21 20  1  0  0  0  0
 22 21  2  0  0  0  0
 23 25  2  0  0  0  0
 23 22  1  0  0  0  0
 24 23  1  0  0  0  0
 25 27  1  0  0  0  0
 26 25  1  0  0  0  0
 27 28  2  0  0  0  0
M  END
>  <minimizedAffinity>
-5.29134607

$$$$
