
 OpenBabel03272509013D

 31 33  0  0  0  0  0  0  0  0999 V2000
   38.8000   32.0180   48.5750 Cl  0  0  0  0  0  0  0  0  0  0  0  0
   37.3790   31.1920   47.9960 C   0  0  0  0  0  0  0  0  0  0  0  0
   37.2310   30.9630   46.6370 C   0  0  0  0  0  0  0  0  0  0  0  0
   36.1250   30.3170   46.1300 C   0  0  0  0  0  0  0  0  0  0  0  0
   35.1270   29.8770   46.9730 C   0  0  0  0  0  0  0  0  0  0  0  0
   35.2380   30.0870   48.3240 C   0  0  0  0  0  0  0  0  0  0  0  0
   34.0400   29.5910   49.5040 Cl  0  0  0  0  0  0  0  0  0  0  0  0
   36.3640   30.7380   48.8030 C   0  0  0  0  0  0  0  0  0  0  0  0
   35.9690   30.1170   45.0790 H   0  0  0  0  0  0  0  0  0  0  0  0
   34.2450   29.3670   46.6120 H   0  0  0  0  0  0  0  0  0  0  0  0
   39.1280   32.9780   44.2350 C   0  0  0  0  0  0  0  0  0  0  0  0
   40.2760   32.2150   44.0130 C   0  0  0  0  0  0  0  0  0  0  0  0
   40.3820   30.9960   44.7050 C   0  0  0  0  0  0  0  0  0  0  0  0
   39.3720   30.6200   45.5500 N   0  0  0  0  0  0  0  0  0  0  0  0
   38.2710   31.4120   45.7260 C   0  0  0  0  0  0  0  0  0  0  0  0
   38.1710   32.5710   45.0680 N   0  0  0  0  0  0  0  0  0  0  0  0
   39.1070   33.9010   43.6740 H   0  0  0  0  0  0  0  0  0  0  0  0
   41.1150   32.4390   43.3650 H   0  0  0  0  0  0  0  0  0  0  0  0
   41.2080   30.2880   44.6460 H   0  0  0  0  0  0  0  0  0  0  0  0
   36.5280   30.9800   50.2830 C   0  0  0  0  0  0  0  0  0  0  0  0
   37.0520   31.9490   50.4000 H   0  0  0  0  0  0  0  0  0  0  0  0
   35.5110   31.0150   50.7030 H   0  0  0  0  0  0  0  0  0  0  0  0
   36.7040   31.3950   53.3030 Br  0  0  0  0  0  0  0  0  0  0  0  0
   37.4150   29.9310   52.2800 C   0  0  0  0  0  0  0  0  0  0  0  0
   37.2590   29.8490   50.9100 C   0  0  0  0  0  0  0  0  0  0  0  0
   37.7860   28.7680   50.1950 C   0  0  0  0  0  0  0  0  0  0  0  0
   37.6360   28.7540   49.1200 H   0  0  0  0  0  0  0  0  0  0  0  0
   38.4680   27.7800   50.8920 C   0  0  0  0  0  0  0  0  0  0  0  0
   38.8790   26.9350   50.3180 H   0  0  0  0  0  0  0  0  0  0  0  0
   38.6450   27.8270   52.2720 C   0  0  0  0  0  3  0  0  0  0  0  0
   38.1070   28.9210   52.9590 C   0  0  0  0  0  3  0  0  0  0  0  0
  2  1  1  0  0  0  0
  2  8  1  0  0  0  0
  3  2  2  0  0  0  0
  4  3  1  0  0  0  0
  4  5  2  0  0  0  0
  5  6  1  0  0  0  0
  6  8  2  0  0  0  0
  6  7  1  0  0  0  0
  8 20  1  0  0  0  0
  9  4  1  0  0  0  0
 10  5  1  0  0  0  0
 11 16  1  0  0  0  0
 12 11  2  0  0  0  0
 12 13  1  0  0  0  0
 13 14  2  0  0  0  0
 14 15  1  0  0  0  0
 15  3  1  0  0  0  0
 16 15  2  0  0  0  0
 17 11  1  0  0  0  0
 18 12  1  0  0  0  0
 19 13  1  0  0  0  0
 20 21  1  0  0  0  0
 20 22  1  0  0  0  0
 20 25  1  0  0  0  0
 24 31  1  0  0  0  0
 24 23  1  0  0  0  0
 25 24  2  0  0  0  0
 26 28  2  0  0  0  0
 26 25  1  0  0  0  0
 27 26  1  0  0  0  0
 28 30  1  0  0  0  0
 29 28  1  0  0  0  0
 30 31  2  0  0  0  0
M  END
>  <minimizedAffinity>
0.764164507

>  <minimizedRMSD>
1.49948084

$$$$
