
 OpenBabel03272500083D

 39 42  0  0  0  0  0  0  0  0999 V2000
   31.8650   27.3520   47.5460 O   0  0  0  0  0  0  0  0  0  0  0  0
   30.6340   27.7570   48.0560 C   0  0  0  0  0  0  0  0  0  0  0  0
   30.5290   27.6330   49.4240 C   0  0  0  0  0  0  0  0  0  0  0  0
   29.3750   27.9930   50.0750 C   0  0  0  0  0  0  0  0  0  0  0  0
   28.2990   28.4910   49.3240 C   0  0  0  0  0  0  0  0  0  0  0  0
   28.4200   28.6100   47.9430 C   0  0  0  0  0  0  0  0  0  0  0  0
   29.5800   28.2430   47.3250 C   0  0  0  0  0  0  0  0  0  0  0  0
   31.3180   27.2580   50.0560 H   0  0  0  0  0  0  0  0  0  0  0  0
   29.2780   27.9000   51.1510 H   0  0  0  0  0  0  0  0  0  0  0  0
   27.3980   28.7690   49.8480 H   0  0  0  0  0  0  0  0  0  0  0  0
   27.5950   28.9920   47.3620 H   0  0  0  0  0  0  0  0  0  0  0  0
   28.5980   25.6260   46.1740 Br  0  0  0  0  0  0  0  0  0  0  0  0
   29.2820   27.1700   45.2780 C   0  0  0  0  0  0  0  0  0  0  0  0
   29.7250   28.3580   45.8760 C   0  0  0  0  0  0  0  0  0  0  0  0
   30.1870   29.3640   45.0540 C   0  0  0  0  0  0  0  0  0  0  0  0
   30.4920   30.2150   45.6560 H   0  0  0  0  0  0  0  0  0  0  0  0
   30.2080   29.2050   43.7090 C   0  0  0  0  0  0  0  0  0  0  0  0
   30.5970   30.0770   43.1600 H   0  0  0  0  0  0  0  0  0  0  0  0
   29.7800   28.0510   43.0890 C   0  0  0  0  0  0  0  0  0  0  0  0
   29.3130   27.0280   43.8860 C   0  0  0  0  0  0  0  0  0  0  0  0
   34.9600   28.7400   48.7490 C   0  0  0  0  0  0  0  0  0  0  0  0
   35.0290   29.9770   48.1040 C   0  0  0  0  0  0  0  0  0  0  0  0
   33.9740   30.3080   47.2480 C   0  0  0  0  0  0  0  0  0  0  0  0
   32.9600   29.4200   47.0960 N   0  0  0  0  0  0  0  0  0  0  0  0
   32.9200   28.2450   47.7240 C   0  0  0  0  0  0  0  0  0  0  0  0
   33.9320   27.8920   48.5640 N   0  0  0  0  0  0  0  0  0  0  0  0
   35.7620   28.4380   49.4280 H   0  0  0  0  0  0  0  0  0  0  0  0
   34.0320   31.2650   46.7530 H   0  0  0  0  0  0  0  0  0  0  0  0
   36.1440   30.8120   48.3440 N   0  0  0  0  0  0  0  0  0  0  0  0
   36.3790   31.3640   49.5280 C   0  0  0  0  0  0  0  0  0  0  0  0
   37.4920   32.1770   49.7050 C   0  0  0  0  0  0  0  0  0  0  0  0
   38.2750   32.3400   48.5920 C   0  0  0  0  0  0  0  0  0  0  0  0
   39.3010   33.0810   48.7290 O   0  0  0  0  0  0  0  0  0  0  0  0
   38.0800   31.8090   47.3850 N   0  0  0  0  0  0  0  0  0  0  0  0
   36.9730   31.0180   47.2650 C   0  0  0  0  0  0  0  0  0  0  0  0
   36.7670   30.5000   46.1200 O   0  0  0  0  0  0  0  0  0  0  0  0
   35.7170   31.1880   50.3540 H   0  0  0  0  0  0  0  0  0  0  0  0
   37.7390   32.6530   50.6360 H   0  0  0  0  0  0  0  0  0  0  0  0
   38.7140   31.9710   46.5740 H   0  0  0  0  0  0  0  0  0  0  0  0
  1 25  1  0  0  0  0
  1  2  1  0  0  0  0
  2  3  1  0  0  0  0
  3  8  1  0  0  0  0
  3  4  2  0  0  0  0
  4  9  1  0  0  0  0
  5 10  1  0  0  0  0
  5  4  1  0  0  0  0
  6  5  2  0  0  0  0
  7  6  1  0  0  0  0
  7  2  2  0  0  0  0
 11  6  1  0  0  0  0
 13 14  1  0  0  0  0
 13 12  1  0  0  0  0
 14  7  1  0  0  0  0
 15 16  1  0  0  0  0
 15 14  2  0  0  0  0
 17 15  1  0  0  0  0
 18 17  1  0  0  0  0
 19 17  2  0  0  0  0
 19 20  1  0  0  0  0
 20 13  2  0  0  0  0
 21 27  1  0  0  0  0
 22 29  1  0  0  0  0
 22 21  2  0  0  0  0
 23 22  1  0  0  0  0
 24 23  2  0  0  0  0
 24 25  1  0  0  0  0
 25 26  2  0  0  0  0
 26 21  1  0  0  0  0
 28 23  1  0  0  0  0
 29 30  1  0  0  0  0
 30 31  2  0  0  0  0
 30 37  1  0  0  0  0
 31 38  1  0  0  0  0
 32 33  2  0  0  0  0
 32 31  1  0  0  0  0
 34 32  1  0  0  0  0
 35 34  1  0  0  0  0
 35 29  1  0  0  0  0
 36 35  2  0  0  0  0
 39 34  1  0  0  0  0
M  END
>  <minimizedAffinity>
-5.920012

>  <minimizedRMSD>
1.09980953

$$$$
