REMARK  Name = 
REMARK  3 active torsions:
REMARK  status: ('A' for Active; 'I' for Inactive)
REMARK    1  A    between atoms: C_2  and  C_10
REMARK    2  A    between atoms: C_3  and  C_16
REMARK    3  A    between atoms: C_16  and  C_27
REMARK                            x       y       z     vdW  Elec       q    Type
REMARK                         _______ _______ _______ _____ _____    ______ ____
ROOT
ATOM      1  C   UNL     1      37.816  30.491  50.184  0.00  0.00    +0.000 A 
ATOM      2  C   UNL     1      37.318  30.688  48.888  0.00  0.00    +0.000 A 
ATOM      3  C   UNL     1      35.999  30.282  48.577  0.00  0.00    +0.000 A 
ATOM      4  N   UNL     1      35.275  29.712  49.571  0.00  0.00    +0.000 NA
ATOM      5  C   UNL     1      35.800  29.538  50.826  0.00  0.00    +0.000 A 
ATOM      6  N   UNL     1      37.066  29.928  51.126  0.00  0.00    +0.000 NA
ATOM      7  N   UNL     1      34.964  28.928  51.820  0.00  0.00    +0.000 N 
ATOM      8  H   UNL     1      38.824  30.803  50.424  0.00  0.00    +0.000 HD
ATOM      9  H   UNL     1      34.791  29.495  52.686  0.00  0.00    +0.000 HD
ATOM     10  H   UNL     1      34.514  27.992  51.767  0.00  0.00    +0.000 HD
ENDROOT
BRANCH   2  13
ATOM     11 CL   UNL     1      38.225  33.577  49.211  0.00  0.00    +0.000 Cl
ATOM     12  C   UNL     1      38.719  32.598  47.861  0.00  0.00    +0.000 A 
ATOM     13  C   UNL     1      38.221  31.331  47.895  0.00  0.00    +0.000 A 
ATOM     14  C   UNL     1      38.562  30.454  46.854  0.00  0.00    +0.000 A 
ATOM     15  C   UNL     1      39.368  30.825  45.820  0.00  0.00    +0.000 A 
ATOM     16  C   UNL     1      39.862  32.132  45.818  0.00  0.00    +0.000 A 
ATOM     17 CL   UNL     1      40.905  32.668  44.533  0.00  0.00    +0.000 Cl
ATOM     18  C   UNL     1      39.530  32.991  46.833  0.00  0.00    +0.000 A 
ATOM     19  H   UNL     1      38.248  29.424  46.764  0.00  0.00    +0.000 HD
ATOM     20  H   UNL     1      39.662  30.201  44.992  0.00  0.00    +0.000 HD
ATOM     21  H   UNL     1      39.881  34.020  46.902  0.00  0.00    +0.000 HD
ENDBRANCH   2  13
BRANCH   3  22
ATOM     22  C   UNL     1      35.509  30.495  47.230  0.00  0.00    +0.000 C 
ATOM     23  H   UNL     1      35.970  31.461  46.866  0.00  0.00    +0.000 HD
ATOM     24  H   UNL     1      35.951  29.695  46.563  0.00  0.00    +0.000 HD
BRANCH  22  27
ATOM     25 BR   UNL     1      34.738  31.722  44.542  0.00  0.00    +0.000 Br
ATOM     26  C   UNL     1      33.531  31.055  45.887  0.00  0.00    +0.000 A 
ATOM     27  C   UNL     1      34.054  30.518  47.054  0.00  0.00    +0.000 A 
ATOM     28  C   UNL     1      33.200  30.026  48.033  0.00  0.00    +0.000 A 
ATOM     29  H   UNL     1      33.541  29.610  48.952  0.00  0.00    +0.000 HD
ATOM     30  C   UNL     1      31.822  30.062  47.863  0.00  0.00    +0.000 A 
ATOM     31  H   UNL     1      31.147  29.674  48.648  0.00  0.00    +0.000 HD
ATOM     32  C   UNL     1      31.314  30.597  46.699  0.00  0.00    +0.000 A 
ATOM     33  C   UNL     1      32.154  31.097  45.702  0.00  0.00    +0.000 A 
ENDBRANCH  22  27
ENDBRANCH   3  22
TORSDOF 3
