
 OpenBabel03272509013D

 31 33  0  0  0  0  0  0  0  0999 V2000
   37.4960   31.9970   48.1160 Cl  0  0  0  0  0  0  0  0  0  0  0  0
   36.6510   31.0690   46.9080 C   0  0  0  0  0  0  0  0  0  0  0  0
   37.2340   30.8770   45.6640 C   0  0  0  0  0  0  0  0  0  0  0  0
   36.6040   30.1540   44.6760 C   0  0  0  0  0  0  0  0  0  0  0  0
   35.3640   29.5980   44.9000 C   0  0  0  0  0  0  0  0  0  0  0  0
   34.7540   29.7670   46.1180 C   0  0  0  0  0  0  0  0  0  0  0  0
   33.1770   29.1250   46.5330 Cl  0  0  0  0  0  0  0  0  0  0  0  0
   35.4150   30.4980   47.0930 C   0  0  0  0  0  0  0  0  0  0  0  0
   37.0220   29.9790   43.6940 H   0  0  0  0  0  0  0  0  0  0  0  0
   34.8390   29.0250   44.1480 H   0  0  0  0  0  0  0  0  0  0  0  0
   39.8850   33.1980   44.6570 C   0  0  0  0  0  0  0  0  0  0  0  0
   41.0550   32.4840   44.9280 C   0  0  0  0  0  0  0  0  0  0  0  0
   40.9110   31.1920   45.4610 C   0  0  0  0  0  0  0  0  0  0  0  0
   39.6530   30.7010   45.6880 N   0  0  0  0  0  0  0  0  0  0  0  0
   38.5440   31.4490   45.4020 C   0  0  0  0  0  0  0  0  0  0  0  0
   38.6820   32.6780   44.8950 N   0  0  0  0  0  0  0  0  0  0  0  0
   40.0630   34.1820   44.2480 H   0  0  0  0  0  0  0  0  0  0  0  0
   42.0810   32.7980   44.7780 H   0  0  0  0  0  0  0  0  0  0  0  0
   41.7180   30.5100   45.7280 H   0  0  0  0  0  0  0  0  0  0  0  0
   34.7820   30.7000   48.4470 C   0  0  0  0  0  0  0  0  0  0  0  0
   34.4850   31.7660   48.5140 H   0  0  0  0  0  0  0  0  0  0  0  0
   33.9070   30.0320   48.4810 H   0  0  0  0  0  0  0  0  0  0  0  0
   34.4890   27.7160   49.0310 Br  0  0  0  0  0  0  0  0  0  0  0  0
   35.6790   28.9640   49.8820 C   0  0  0  0  0  0  0  0  0  0  0  0
   35.7260   30.2960   49.5210 C   0  0  0  0  0  0  0  0  0  0  0  0
   36.6070   31.1770   50.1580 C   0  0  0  0  0  0  0  0  0  0  0  0
   36.6030   32.2150   49.8350 H   0  0  0  0  0  0  0  0  0  0  0  0
   37.4300   30.6850   51.1610 C   0  0  0  0  0  0  0  0  0  0  0  0
   38.1170   31.3890   51.6570 H   0  0  0  0  0  0  0  0  0  0  0  0
   37.4100   29.3490   51.5530 C   0  0  0  0  0  3  0  0  0  0  0  0
   36.5200   28.4920   50.8970 C   0  0  0  0  0  3  0  0  0  0  0  0
  2  8  1  0  0  0  0
  2  1  1  0  0  0  0
  3  2  2  0  0  0  0
  4  5  2  0  0  0  0
  4  3  1  0  0  0  0
  5  6  1  0  0  0  0
  6  7  1  0  0  0  0
  6  8  2  0  0  0  0
  8 20  1  0  0  0  0
  9  4  1  0  0  0  0
 10  5  1  0  0  0  0
 11 16  2  0  0  0  0
 11 12  1  0  0  0  0
 12 13  2  0  0  0  0
 13 14  1  0  0  0  0
 13 19  1  0  0  0  0
 15  3  1  0  0  0  0
 15 14  2  0  0  0  0
 16 15  1  0  0  0  0
 17 11  1  0  0  0  0
 18 12  1  0  0  0  0
 20 22  1  0  0  0  0
 20 21  1  0  0  0  0
 20 25  1  0  0  0  0
 23 24  1  0  0  0  0
 24 31  1  0  0  0  0
 25 24  2  0  0  0  0
 25 26  1  0  0  0  0
 26 28  2  0  0  0  0
 27 26  1  0  0  0  0
 28 30  1  0  0  0  0
 28 29  1  0  0  0  0
 31 30  2  0  0  0  0
M  END
>  <minimizedAffinity>
-5.7451272

>  <minimizedRMSD>
2.48302841

$$$$
