REMARK  Name = 
REMARK  4 active torsions:
REMARK  status: ('A' for Active; 'I' for Inactive)
REMARK    1  A    between atoms: C_2  and  N_7
REMARK    2  A    between atoms: C_5  and  O_15
REMARK    3  A    between atoms: O_15  and  C_16
REMARK    4  A    between atoms: C_21  and  C_33
REMARK                            x       y       z     vdW  Elec       q    Type
REMARK                         _______ _______ _______ _____ _____    ______ ____
ROOT
ATOM      1  O   UNL     1      32.527  27.145  48.160  0.00  0.00    +0.000 OA
ENDROOT
BRANCH   1   2
ATOM      2  C   UNL     1      31.204  27.568  48.270  0.00  0.00    +0.000 A 
ATOM      3  C   UNL     1      30.771  27.712  49.570  0.00  0.00    +0.000 A 
ATOM      4  C   UNL     1      29.490  28.123  49.842  0.00  0.00    +0.000 A 
ATOM      5  C   UNL     1      28.623  28.396  48.772  0.00  0.00    +0.000 A 
ATOM      6  C   UNL     1      29.075  28.246  47.464  0.00  0.00    +0.000 A 
ATOM      7  C   UNL     1      30.355  27.835  47.227  0.00  0.00    +0.000 A 
ATOM      8  H   UNL     1      31.387  27.518  50.434  0.00  0.00    +0.000 HD
ATOM      9  H   UNL     1      29.135  28.240  50.860  0.00  0.00    +0.000 HD
ATOM     10  H   UNL     1      27.619  28.718  48.999  0.00  0.00    +0.000 HD
ATOM     11  H   UNL     1      28.412  28.455  46.639  0.00  0.00    +0.000 HD
BRANCH   7  14
ATOM     12 BR   UNL     1      29.152  25.254  46.211  0.00  0.00    +0.000 Br
ATOM     13  C   UNL     1      30.320  26.483  45.330  0.00  0.00    +0.000 A 
ATOM     14  C   UNL     1      30.846  27.668  45.862  0.00  0.00    +0.000 A 
ATOM     15  C   UNL     1      31.677  28.425  45.062  0.00  0.00    +0.000 A 
ATOM     16  H   UNL     1      32.002  29.308  45.608  0.00  0.00    +0.000 HD
ATOM     17  C   UNL     1      31.973  28.032  43.801  0.00  0.00    +0.000 A 
ATOM     18  H   UNL     1      32.645  28.717  43.262  0.00  0.00    +0.000 HD
ATOM     19  C   UNL     1      31.473  26.872  43.246  0.00  0.00    +0.000 A 
ATOM     20  C   UNL     1      30.640  26.096  44.023  0.00  0.00    +0.000 A 
ENDBRANCH   7  14
ENDBRANCH   1   2
BRANCH   1  25
ATOM     21  C   UNL     1      35.496  28.919  49.154  0.00  0.00    +0.000 A 
ATOM     22  C   UNL     1      35.430  30.098  48.407  0.00  0.00    +0.000 A 
ATOM     23  C   UNL     1      34.331  30.253  47.558  0.00  0.00    +0.000 A 
ATOM     24  N   UNL     1      33.405  29.262  47.509  0.00  0.00    +0.000 NA
ATOM     25  C   UNL     1      33.493  28.146  48.233  0.00  0.00    +0.000 A 
ATOM     26  N   UNL     1      34.552  27.965  49.070  0.00  0.00    +0.000 NA
ATOM     27  H   UNL     1      36.338  28.754  49.832  0.00  0.00    +0.000 HD
ATOM     28  H   UNL     1      34.285  31.165  46.984  0.00  0.00    +0.000 HD
BRANCH  22  29
ATOM     29  N   UNL     1      36.463  31.053  48.545  0.00  0.00    +0.000 N 
ATOM     30  C   UNL     1      36.634  31.764  49.653  0.00  0.00    +0.000 A 
ATOM     31  C   UNL     1      37.667  32.689  49.731  0.00  0.00    +0.000 A 
ATOM     32  C   UNL     1      38.446  32.785  48.607  0.00  0.00    +0.000 A 
ATOM     33  O   UNL     1      39.400  33.627  48.654  0.00  0.00    +0.000 OA
ATOM     34  N   UNL     1      38.314  32.096  47.474  0.00  0.00    +0.000 N 
ATOM     35  C   UNL     1      37.284  31.200  47.450  0.00  0.00    +0.000 A 
ATOM     36  O   UNL     1      37.139  30.530  46.377  0.00  0.00    +0.000 OA
ATOM     37  H   UNL     1      35.980  31.630  50.493  0.00  0.00    +0.000 HD
ATOM     38  H   UNL     1      37.860  33.295  50.597  0.00  0.00    +0.000 HD
ATOM     39  H   UNL     1      38.941  32.215  46.650  0.00  0.00    +0.000 HD
ENDBRANCH  22  29
ENDBRANCH   1  25
TORSDOF 4
