
     RDKit          3D

 30 32  0  0  0  0  0  0  0  0999 V2000
   37.9178   30.8695   46.7403 C   0  0  0  0  0  0  0  0  0  0  0  0
   38.0701   31.0328   48.1433 C   0  0  0  0  0  0  0  0  0  0  0  0
   36.9244   30.8107   48.9252 C   0  0  0  0  0  0  0  0  0  0  0  0
   35.7664   30.4619   48.3152 N   0  0  0  0  0  0  0  0  0  0  0  0
   35.6661   30.3176   46.9774 C   0  0  0  0  0  0  0  0  0  0  0  0
   36.7533   30.5259   46.2078 N   0  0  0  0  0  0  0  0  0  0  0  0
   39.0992   31.0956   45.9018 C   0  0  0  0  0  0  0  0  0  0  0  0
   39.9040   32.2137   45.8973 C   0  0  0  0  0  0  0  0  0  0  0  0
   40.9279   32.0404   44.9536 C   0  0  0  0  0  0  0  0  0  0  0  0
   40.6885   30.8053   44.4244 N   0  0  0  0  0  0  0  0  0  0  0  0
   39.6172   30.2672   44.9891 N   0  0  0  0  0  0  0  0  0  0  0  0
   37.0610   30.9769   50.4060 C   0  0  0  0  0  0  0  0  0  0  0  0
   36.5505   32.2357   50.6785 F   0  0  0  0  0  0  0  0  0  0  0  0
   36.3059   30.0578   51.1059 F   0  0  0  0  0  0  0  0  0  0  0  0
   38.3716   30.9430   50.8233 F   0  0  0  0  0  0  0  0  0  0  0  0
   39.0115   31.3117   48.5868 H   0  0  0  0  0  0  0  0  0  0  0  0
   34.7356   30.0421   46.5410 H   0  0  0  0  0  0  0  0  0  0  0  0
   39.7597   33.0803   46.5253 H   0  0  0  0  0  0  0  0  0  0  0  0
   41.7275   32.7214   44.6963 H   0  0  0  0  0  0  0  0  0  0  0  0
   40.1337   31.6934   41.4727 Br  0  0  0  0  0  0  0  0  0  0  0  0
   41.3575   30.3846   42.0579 C   0  0  0  0  0  0  0  0  0  0  0  0
   41.4451   30.1465   43.4151 C   0  0  0  0  0  0  0  0  0  0  0  0
   42.3546   29.1767   43.8233 C   0  0  0  0  0  0  0  0  0  0  0  0
   42.4878   28.9254   44.8793 H   0  0  0  0  0  0  0  0  0  0  0  0
   43.1454   28.4654   42.9759 C   0  0  0  0  0  0  0  0  0  0  0  0
   43.8548   27.7108   43.2776 H   0  0  0  0  0  0  0  0  0  0  0  0
   43.0316   28.7311   41.6072 C   0  0  0  0  0  0  0  0  0  0  0  0
   42.1325   29.6962   41.1469 C   0  0  0  0  0  0  0  0  0  0  0  0
   43.6234   28.2132   40.8414 H   0  0  0  0  0  0  0  0  0  0  0  0
   42.0339   29.9119   40.0936 H   0  0  0  0  0  0  0  0  0  0  0  0
  1  2  2  0
  2  3  1  0
  3 12  1  0
  4  3  2  0
  5  4  1  0
  6  1  1  0
  6  5  2  0
  7  1  1  0
  8  7  1  0
  9  8  2  0
 10  9  1  0
 10 11  1  0
 11  7  2  0
 12 13  1  0
 12 15  1  0
 12 14  1  0
  2 16  1  0
  5 17  1  0
  8 18  1  0
  9 19  1  0
 20 21  1  0
 21 22  2  0
 22 23  1  0
 23 24  1  0
 23 25  2  0
 25 26  1  0
 25 27  1  0
 27 28  2  0
 28 21  1  0
 27 29  1  0
 28 30  1  0
 10 22  1  0
M  ISO  6  16  14  17  14  18  14  19  14  24  15  26  16
M  END
>  <DihAtoms>  (1) 
8,9,21,20

>  <DihDeg>  (1) 
40.140628345116966

$$$$
