
     RDKit          3D

 38 41  0  0  0  0  0  0  0  0999 V2000
   35.8223   29.1394   49.8010 C   0  0  0  0  0  0  0  0  0  0  0  0
   34.8005   29.6669   50.5630 C   0  0  0  0  0  0  0  0  0  0  0  0
   33.5971   29.1271   50.0839 C   0  0  0  0  0  0  0  0  0  0  0  0
   33.9697   28.2965   49.0505 C   0  0  0  0  0  0  0  0  0  0  0  0
   35.2784   28.3351   48.9202 O   0  0  0  0  0  0  0  0  0  0  0  0
   37.2149   29.4874   50.0284 C   0  0  0  0  0  0  0  0  0  0  0  0
   37.8564   28.8808   50.8974 O   0  0  0  0  0  0  0  0  0  0  0  0
   37.7679   30.5334   49.2139 C   0  0  0  0  0  0  0  0  0  0  0  0
   38.1116   31.7131   49.8517 C   0  0  0  0  0  0  0  0  0  0  0  0
   38.6513   32.7523   49.0856 C   0  0  0  0  0  0  0  0  0  0  0  0
   38.8113   32.5433   47.7346 N   0  0  0  0  0  0  0  0  0  0  0  0
   38.4677   31.3902   47.1543 C   0  0  0  0  0  0  0  0  0  0  0  0
   37.9494   30.3876   47.8807 N   0  0  0  0  0  0  0  0  0  0  0  0
   33.0622   27.4958   48.2302 C   0  0  0  0  0  0  0  0  0  0  0  0
   31.8450   27.3898   48.6009 O   0  0  0  0  0  0  0  0  0  0  0  0
   33.5559   26.8121   46.9891 C   0  0  1  0  0  0  0  0  0  0  0  0
   33.7953   25.2778   47.2838 C   0  0  0  0  0  0  0  0  0  0  0  0
   32.7662   25.7634   46.3407 C   0  0  1  0  0  0  0  0  0  0  0  0
   34.8440   30.3699   51.3904 H   0  0  0  0  0  0  0  0  0  0  0  0
   32.5719   29.2814   50.4031 H   0  0  0  0  0  0  0  0  0  0  0  0
   37.9724   31.8405   50.9089 H   0  0  0  0  0  0  0  0  0  0  0  0
   38.9127   33.6642   49.6025 H   0  0  0  0  0  0  0  0  0  0  0  0
   38.6169   31.2842   46.0875 H   0  0  0  0  0  0  0  0  0  0  0  0
   34.5231   27.2188   46.5700 H   0  0  0  0  0  0  0  0  0  0  0  0
   34.7031   24.8290   46.8446 H   0  0  0  0  0  0  0  0  0  0  0  0
   33.5757   24.9188   48.2828 H   0  0  0  0  0  0  0  0  0  0  0  0
   32.9985   25.6339   45.2420 H   0  0  0  0  0  0  0  0  0  0  0  0
   31.1530   24.6051   43.9036 Br  0  0  0  0  0  0  0  0  0  0  0  0
   30.5169   25.1115   45.6230 C   0  0  0  0  0  0  0  0  0  0  0  0
   31.3171   25.6140   46.6310 C   0  0  0  0  0  0  0  0  0  0  0  0
   30.7631   25.9548   47.8494 C   0  0  0  0  0  0  0  0  0  0  0  0
   31.4141   26.3439   48.6150 H   0  0  0  0  0  0  0  0  0  0  0  0
   29.4172   25.8108   48.1044 C   0  0  0  0  0  0  0  0  0  0  0  0
   29.0274   26.0913   49.0753 H   0  0  0  0  0  0  0  0  0  0  0  0
   28.6224   25.3071   47.0902 C   0  0  0  0  0  0  0  0  0  0  0  0
   29.1510   24.9595   45.8654 C   0  0  0  0  0  0  0  0  0  0  0  0
   27.5656   25.2078   47.3290 H   0  0  0  0  0  0  0  0  0  0  0  0
   28.4351   24.5754   45.1456 H   0  0  0  0  0  0  0  0  0  0  0  0
  1  6  1  0
  1  2  2  0
  3  2  1  0
  4  3  2  0
  5  4  1  0
  5  1  1  0
  6  7  2  0
  8  9  2  0
  8  6  1  0
 10  9  1  0
 11 10  2  0
 12 11  1  0
 12 13  2  0
 13  8  1  0
 14 15  2  0
 14  4  1  0
 16 17  1  0
 16 14  1  0
 18 16  1  0
 18 17  1  0
  2 19  1  0
  3 20  1  0
  9 21  1  0
 10 22  1  0
 12 23  1  0
 16 24  1  6
 17 25  1  0
 17 26  1  0
 18 27  1  6
 28 29  1  0
 29 30  2  0
 30 31  1  0
 31 32  1  0
 31 33  2  0
 33 34  1  0
 33 35  1  0
 35 36  2  0
 36 29  1  0
 35 37  1  0
 36 38  1  0
 18 30  1  0
M  ISO  8  19  14  20  14  21  14  22  14  23  14  24  13  25  13  26  13
M  ISO  3  27  13  32  15  34  16
M  END
>  <DihAtoms>  (1) 
15,17,29,28

>  <DihDeg>  (1) 
90.00335796232555

$$$$
