
     RDKit          3D

 20 21  0  0  0  0  0  0  0  0999 V2000
   37.2959   30.1831   51.4314 C   0  0  0  0  0  0  0  0  0  0  0  0
   38.0345   30.6560   50.3385 C   0  0  0  0  0  0  0  0  0  0  0  0
   37.6799   30.3436   49.0278 C   0  0  0  0  0  0  0  0  0  0  0  0
   36.5817   29.5583   48.8914 N   0  0  0  0  0  0  0  0  0  0  0  0
   35.8749   29.1060   49.9424 C   0  0  0  0  0  0  0  0  0  0  0  0
   36.2270   29.4140   51.1964 N   0  0  0  0  0  0  0  0  0  0  0  0
   37.5841   30.4346   52.4435 H   0  0  0  0  0  0  0  0  0  0  0  0
   38.8908   31.2727   50.5413 H   0  0  0  0  0  0  0  0  0  0  0  0
   35.0235   28.4880   49.6398 H   0  0  0  0  0  0  0  0  0  0  0  0
   35.8606   30.6857   46.6195 Br  0  0  0  0  0  0  0  0  0  0  0  0
   37.7397   31.0306   46.7014 C   0  0  0  0  0  0  0  0  0  0  0  0
   38.4361   30.8263   47.8760 C   0  0  0  0  0  0  0  0  0  0  0  0
   39.7886   31.0909   47.8785 C   0  0  0  0  0  0  0  0  0  0  0  0
   40.3437   30.9370   48.7841 H   0  0  0  0  0  0  0  0  0  0  0  0
   40.4129   31.5462   46.7321 C   0  0  0  0  0  0  0  0  0  0  0  0
   41.4825   31.7521   46.7456 H   0  0  0  0  0  0  0  0  0  0  0  0
   39.7101   31.7539   45.5416 C   0  0  0  0  0  0  0  0  0  0  0  0
   38.3477   31.4845   45.5491 C   0  0  0  0  0  0  0  0  0  0  0  0
   40.2387   32.1122   44.6647 H   0  0  0  0  0  0  0  0  0  0  0  0
   37.7814   31.6388   44.6349 H   0  0  0  0  0  0  0  0  0  0  0  0
  2  1  2  0
  3  2  1  0
  4  3  2  0
  4  5  1  0
  5  6  2  0
  6  1  1  0
  1  7  1  0
  2  8  1  0
  5  9  1  0
 10 11  1  0
 11 12  2  0
 12 13  1  0
 13 14  1  0
 13 15  2  0
 15 16  1  0
 15 17  1  0
 17 18  2  0
 18 11  1  0
 17 19  1  0
 18 20  1  0
  3 12  1  0
M  ISO  5   7  14   8  14   9  14  14  15  16  16
M  END
>  <DihAtoms>  (1) 
1,2,11,10

>  <DihDeg>  (1) 
-179.98847856025327

$$$$
