
 OpenBabel03262522383D

 27 29  0  0  0  0  0  0  0  0999 V2000
   36.6460   27.8920   33.6600 C   0  0  0  0  0  0  0  0  0  0  0  0
   36.7150   28.3570   32.3680 C   0  0  0  0  0  0  0  0  0  0  0  0
   36.2090   29.5660   31.9620 C   0  0  0  0  0  0  0  0  0  0  0  0
   35.5900   30.3800   32.8900 C   0  0  0  0  0  0  0  0  0  0  0  0
   35.5310   29.8990   34.1710 C   0  0  0  0  0  0  0  0  0  0  0  0
   36.0330   28.7150   34.5420 N   0  0  0  0  0  0  0  0  0  0  0  0
   37.1990   27.7280   31.6290 H   0  0  0  0  0  0  0  0  0  0  0  0
   36.3100   29.8510   30.9220 H   0  0  0  0  0  0  0  0  0  0  0  0
   35.2140   31.3040   32.5280 H   0  0  0  0  0  0  0  0  0  0  0  0
   38.0670   24.9960   35.6150 C   0  0  0  0  0  0  0  0  0  0  0  0
   37.5500   26.2860   35.3840 C   0  0  0  0  0  0  0  0  0  0  0  0
   37.1940   26.5990   34.0690 C   0  0  0  0  0  0  0  0  0  0  0  0
   37.3700   25.6540   33.1290 N   0  0  0  0  0  0  0  0  0  0  0  0
   37.8670   24.4230   33.3710 C   0  0  0  0  0  0  0  0  0  0  0  0
   38.2110   24.1060   34.6150 N   0  0  0  0  0  0  0  0  0  0  0  0
   38.3160   24.8430   36.6730 H   0  0  0  0  0  0  0  0  0  0  0  0
   37.4080   27.0420   36.1250 H   0  0  0  0  0  0  0  0  0  0  0  0
   37.9820   23.7070   32.5690 H   0  0  0  0  0  0  0  0  0  0  0  0
   32.4240   29.4490   34.4520 Br  0  0  0  0  0  0  0  0  0  0  0  0
   33.5300   30.6380   35.4510 C   0  0  0  0  0  0  0  0  0  0  0  0
   34.8880   30.7110   35.1950 C   0  0  0  0  0  0  0  0  0  0  0  0
   35.5340   31.6180   36.0040 C   0  0  0  0  0  0  0  0  0  0  0  0
   36.5990   31.7560   35.8910 H   0  0  0  0  0  0  0  0  0  0  0  0
   34.9440   32.3940   36.9750 C   0  0  0  0  0  0  0  0  0  0  0  0
   35.5210   33.0870   37.5740 H   0  0  0  0  0  0  0  0  0  0  0  0
   33.5860   32.2660   37.1720 C   0  0  0  0  0  3  0  0  0  0  0  0
   32.8710   31.3760   36.3980 C   0  0  0  0  0  3  0  0  0  0  0  0
  1 12  1  0  0  0  0
  1  6  1  0  0  0  0
  2  1  2  0  0  0  0
  3  2  1  0  0  0  0
  3  4  2  0  0  0  0
  4  5  1  0  0  0  0
  5  6  2  0  0  0  0
  5 21  1  0  0  0  0
  7  2  1  0  0  0  0
  8  3  1  0  0  0  0
  9  4  1  0  0  0  0
 10 16  1  0  0  0  0
 11 10  1  0  0  0  0
 11 17  1  0  0  0  0
 12 11  2  0  0  0  0
 13 14  2  0  0  0  0
 13 12  1  0  0  0  0
 14 15  1  0  0  0  0
 15 10  2  0  0  0  0
 18 14  1  0  0  0  0
 19 20  1  0  0  0  0
 20 27  1  0  0  0  0
 21 20  2  0  0  0  0
 21 22  1  0  0  0  0
 22 24  2  0  0  0  0
 23 22  1  0  0  0  0
 24 26  1  0  0  0  0
 24 25  1  0  0  0  0
 27 26  2  0  0  0  0
M  END
>  <minimizedAffinity>
-5.48524904

$$$$

 OpenBabel03262522383D

 27 29  0  0  0  0  0  0  0  0999 V2000
   38.2810   25.5490   33.2840 C   0  0  0  0  0  0  0  0  0  0  0  0
   38.8530   26.7970   33.3640 C   0  0  0  0  0  0  0  0  0  0  0  0
   39.9220   27.0990   34.1700 C   0  0  0  0  0  0  0  0  0  0  0  0
   40.4710   26.1040   34.9560 C   0  0  0  0  0  0  0  0  0  0  0  0
   39.8870   24.8690   34.8620 C   0  0  0  0  0  0  0  0  0  0  0  0
   38.8440   24.6000   34.0660 N   0  0  0  0  0  0  0  0  0  0  0  0
   38.4310   27.5870   32.7530 H   0  0  0  0  0  0  0  0  0  0  0  0
   40.3070   28.1100   34.1690 H   0  0  0  0  0  0  0  0  0  0  0  0
   41.2940   26.3860   35.5620 H   0  0  0  0  0  0  0  0  0  0  0  0
   35.6290   23.8400   31.2160 C   0  0  0  0  0  0  0  0  0  0  0  0
   36.7480   23.9580   32.0650 C   0  0  0  0  0  0  0  0  0  0  0  0
   37.1410   25.2520   32.4150 C   0  0  0  0  0  0  0  0  0  0  0  0
   36.4300   26.2810   31.9220 N   0  0  0  0  0  0  0  0  0  0  0  0
   35.3600   26.1460   31.1100 C   0  0  0  0  0  0  0  0  0  0  0  0
   34.9710   24.9230   30.7660 N   0  0  0  0  0  0  0  0  0  0  0  0
   35.3970   22.7890   30.9980 H   0  0  0  0  0  0  0  0  0  0  0  0
   37.3180   23.1460   32.4600 H   0  0  0  0  0  0  0  0  0  0  0  0
   34.8300   27.0150   30.7480 H   0  0  0  0  0  0  0  0  0  0  0  0
   38.1500   24.1200   37.3830 Br  0  0  0  0  0  0  0  0  0  0  0  0
   39.7840   23.3230   36.8080 C   0  0  0  0  0  0  0  0  0  0  0  0
   40.4210   23.7780   35.6680 C   0  0  0  0  0  0  0  0  0  0  0  0
   41.5850   23.0940   35.3980 C   0  0  0  0  0  0  0  0  0  0  0  0
   42.1640   23.3680   34.5290 H   0  0  0  0  0  0  0  0  0  0  0  0
   42.1040   22.0640   36.1470 C   0  0  0  0  0  0  0  0  0  0  0  0
   43.0280   21.5730   35.8700 H   0  0  0  0  0  0  0  0  0  0  0  0
   41.4120   21.6660   37.2710 C   0  0  0  0  0  3  0  0  0  0  0  0
   40.2370   22.3050   37.6040 C   0  0  0  0  0  3  0  0  0  0  0  0
  1  2  2  0  0  0  0
  1  6  1  0  0  0  0
  2  3  1  0  0  0  0
  3  4  2  0  0  0  0
  4  9  1  0  0  0  0
  5  4  1  0  0  0  0
  5 21  1  0  0  0  0
  6  5  2  0  0  0  0
  7  2  1  0  0  0  0
  8  3  1  0  0  0  0
 10 11  1  0  0  0  0
 11 12  2  0  0  0  0
 11 17  1  0  0  0  0
 12  1  1  0  0  0  0
 13 12  1  0  0  0  0
 14 13  2  0  0  0  0
 15 14  1  0  0  0  0
 15 10  2  0  0  0  0
 16 10  1  0  0  0  0
 18 14  1  0  0  0  0
 20 19  1  0  0  0  0
 20 27  1  0  0  0  0
 21 20  2  0  0  0  0
 22 21  1  0  0  0  0
 22 24  2  0  0  0  0
 23 22  1  0  0  0  0
 24 26  1  0  0  0  0
 25 24  1  0  0  0  0
 26 27  2  0  0  0  0
M  END
>  <minimizedAffinity>
-5.34205484

$$$$

 OpenBabel03262522383D

 27 29  0  0  0  0  0  0  0  0999 V2000
   35.9620   23.4190   31.6310 C   0  0  0  0  0  0  0  0  0  0  0  0
   35.2000   24.2360   30.8310 C   0  0  0  0  0  0  0  0  0  0  0  0
   35.2350   25.6070   30.8820 C   0  0  0  0  0  0  0  0  0  0  0  0
   36.0800   26.2220   31.7850 C   0  0  0  0  0  0  0  0  0  0  0  0
   36.8300   25.3920   32.5730 C   0  0  0  0  0  0  0  0  0  0  0  0
   36.7780   24.0550   32.5030 N   0  0  0  0  0  0  0  0  0  0  0  0
   34.5320   23.7660   30.1180 H   0  0  0  0  0  0  0  0  0  0  0  0
   34.5980   26.1700   30.2120 H   0  0  0  0  0  0  0  0  0  0  0  0
   36.0710   27.2830   31.7880 H   0  0  0  0  0  0  0  0  0  0  0  0
   35.0160   19.7880   32.0170 C   0  0  0  0  0  0  0  0  0  0  0  0
   34.9280   21.1840   32.1840 C   0  0  0  0  0  0  0  0  0  0  0  0
   35.9080   21.9580   31.5570 C   0  0  0  0  0  0  0  0  0  0  0  0
   36.8550   21.3200   30.8470 N   0  0  0  0  0  0  0  0  0  0  0  0
   36.9210   19.9800   30.6990 C   0  0  0  0  0  0  0  0  0  0  0  0
   35.9980   19.2270   31.2880 N   0  0  0  0  0  0  0  0  0  0  0  0
   34.2060   19.2660   32.5430 H   0  0  0  0  0  0  0  0  0  0  0  0
   34.1790   21.6980   32.7460 H   0  0  0  0  0  0  0  0  0  0  0  0
   37.7090   19.5280   30.1140 H   0  0  0  0  0  0  0  0  0  0  0  0
   39.7690   25.8420   31.5260 Br  0  0  0  0  0  0  0  0  0  0  0  0
   39.0650   26.2470   33.2520 C   0  0  0  0  0  0  0  0  0  0  0  0
   37.7400   25.9820   33.5460 C   0  0  0  0  0  0  0  0  0  0  0  0
   37.3990   26.3340   34.8330 C   0  0  0  0  0  0  0  0  0  0  0  0
   36.3870   26.1700   35.1710 H   0  0  0  0  0  0  0  0  0  0  0  0
   38.2450   26.8900   35.7650 C   0  0  0  0  0  0  0  0  0  0  0  0
   37.9010   27.1410   36.7610 H   0  0  0  0  0  0  0  0  0  0  0  0
   39.5520   27.1250   35.3980 C   0  0  0  0  0  3  0  0  0  0  0  0
   39.9660   26.7980   34.1240 C   0  0  0  0  0  3  0  0  0  0  0  0
  1  6  1  0  0  0  0
  2  3  1  0  0  0  0
  2  1  2  0  0  0  0
  3  4  2  0  0  0  0
  4  9  1  0  0  0  0
  4  5  1  0  0  0  0
  5 21  1  0  0  0  0
  6  5  2  0  0  0  0
  7  2  1  0  0  0  0
  8  3  1  0  0  0  0
 10 11  1  0  0  0  0
 10 16  1  0  0  0  0
 11 17  1  0  0  0  0
 12  1  1  0  0  0  0
 12 11  2  0  0  0  0
 13 12  1  0  0  0  0
 14 13  2  0  0  0  0
 14 15  1  0  0  0  0
 15 10  2  0  0  0  0
 18 14  1  0  0  0  0
 19 20  1  0  0  0  0
 20 21  2  0  0  0  0
 20 27  1  0  0  0  0
 21 22  1  0  0  0  0
 22 23  1  0  0  0  0
 22 24  2  0  0  0  0
 24 25  1  0  0  0  0
 26 24  1  0  0  0  0
 27 26  2  0  0  0  0
M  END
>  <minimizedAffinity>
-5.31417847

$$$$

 OpenBabel03262522383D

 27 29  0  0  0  0  0  0  0  0999 V2000
   36.0670   27.9280   31.9120 C   0  0  0  0  0  0  0  0  0  0  0  0
   36.3670   28.7270   30.8340 C   0  0  0  0  0  0  0  0  0  0  0  0
   36.2550   30.0950   30.8410 C   0  0  0  0  0  0  0  0  0  0  0  0
   35.8180   30.7270   31.9880 C   0  0  0  0  0  0  0  0  0  0  0  0
   35.5240   29.9140   33.0500 C   0  0  0  0  0  0  0  0  0  0  0  0
   35.6420   28.5800   33.0190 N   0  0  0  0  0  0  0  0  0  0  0  0
   36.7110   28.2450   29.9260 H   0  0  0  0  0  0  0  0  0  0  0  0
   36.5130   30.6440   29.9440 H   0  0  0  0  0  0  0  0  0  0  0  0
   35.7470   31.7840   31.9440 H   0  0  0  0  0  0  0  0  0  0  0  0
   35.6710   24.2560   31.1500 C   0  0  0  0  0  0  0  0  0  0  0  0
   35.4280   25.6410   31.0610 C   0  0  0  0  0  0  0  0  0  0  0  0
   36.1960   26.4710   31.8810 C   0  0  0  0  0  0  0  0  0  0  0  0
   37.1020   25.8940   32.6880 N   0  0  0  0  0  0  0  0  0  0  0  0
   37.3200   24.5630   32.7590 C   0  0  0  0  0  0  0  0  0  0  0  0
   36.6000   23.7570   31.9860 N   0  0  0  0  0  0  0  0  0  0  0  0
   35.0230   23.6870   30.4710 H   0  0  0  0  0  0  0  0  0  0  0  0
   34.7090   26.1070   30.4230 H   0  0  0  0  0  0  0  0  0  0  0  0
   38.0670   24.1610   33.4290 H   0  0  0  0  0  0  0  0  0  0  0  0
   32.4140   29.7160   33.5230 Br  0  0  0  0  0  0  0  0  0  0  0  0
   33.7220   30.5230   34.6530 C   0  0  0  0  0  0  0  0  0  0  0  0
   35.0560   30.5210   34.2900 C   0  0  0  0  0  0  0  0  0  0  0  0
   35.8610   31.1450   35.2160 C   0  0  0  0  0  0  0  0  0  0  0  0
   36.9240   31.2020   35.0330 H   0  0  0  0  0  0  0  0  0  0  0  0
   35.4370   31.7240   36.3890 C   0  0  0  0  0  0  0  0  0  0  0  0
   36.1340   32.1980   37.0700 H   0  0  0  0  0  0  0  0  0  0  0  0
   34.0910   31.6870   36.6830 C   0  0  0  0  0  3  0  0  0  0  0  0
   33.2230   31.0780   35.8010 C   0  0  0  0  0  3  0  0  0  0  0  0
  1  6  1  0  0  0  0
  2  3  1  0  0  0  0
  2  1  2  0  0  0  0
  3  4  2  0  0  0  0
  4  5  1  0  0  0  0
  5 21  1  0  0  0  0
  6  5  2  0  0  0  0
  7  2  1  0  0  0  0
  8  3  1  0  0  0  0
  9  4  1  0  0  0  0
 10 15  1  0  0  0  0
 11 10  2  0  0  0  0
 11 12  1  0  0  0  0
 12  1  1  0  0  0  0
 12 13  2  0  0  0  0
 13 14  1  0  0  0  0
 14 18  1  0  0  0  0
 15 14  2  0  0  0  0
 16 10  1  0  0  0  0
 17 11  1  0  0  0  0
 19 20  1  0  0  0  0
 20 27  1  0  0  0  0
 21 20  2  0  0  0  0
 21 22  1  0  0  0  0
 22 24  2  0  0  0  0
 23 22  1  0  0  0  0
 24 26  1  0  0  0  0
 24 25  1  0  0  0  0
 27 26  2  0  0  0  0
M  END
>  <minimizedAffinity>
-5.29358768

$$$$

 OpenBabel03262522383D

 27 29  0  0  0  0  0  0  0  0999 V2000
   36.9530   25.4210   32.7320 C   0  0  0  0  0  0  0  0  0  0  0  0
   36.1990   26.1580   31.8500 C   0  0  0  0  0  0  0  0  0  0  0  0
   35.3800   25.6070   30.8960 C   0  0  0  0  0  0  0  0  0  0  0  0
   35.2940   24.2320   30.8000 C   0  0  0  0  0  0  0  0  0  0  0  0
   36.0530   23.5160   31.6860 C   0  0  0  0  0  0  0  0  0  0  0  0
   36.8440   24.0780   32.6090 N   0  0  0  0  0  0  0  0  0  0  0  0
   36.2560   27.2390   31.9150 H   0  0  0  0  0  0  0  0  0  0  0  0
   34.8220   26.2660   30.2440 H   0  0  0  0  0  0  0  0  0  0  0  0
   34.6490   23.8530   30.0470 H   0  0  0  0  0  0  0  0  0  0  0  0
   38.3090   27.1540   35.7950 C   0  0  0  0  0  0  0  0  0  0  0  0
   37.3460   26.6040   34.9260 C   0  0  0  0  0  0  0  0  0  0  0  0
   37.8180   26.0320   33.7410 C   0  0  0  0  0  0  0  0  0  0  0  0
   39.1430   26.0490   33.5190 N   0  0  0  0  0  0  0  0  0  0  0  0
   40.0500   26.5820   34.3650 C   0  0  0  0  0  0  0  0  0  0  0  0
   39.6210   27.1300   35.4980 N   0  0  0  0  0  0  0  0  0  0  0  0
   37.8460   27.5770   36.6960 H   0  0  0  0  0  0  0  0  0  0  0  0
   36.2920   26.5870   35.0950 H   0  0  0  0  0  0  0  0  0  0  0  0
   41.1050   26.5630   34.1280 H   0  0  0  0  0  0  0  0  0  0  0  0
   38.5360   22.1680   30.2890 Br  0  0  0  0  0  0  0  0  0  0  0  0
   37.0150   21.3100   31.0550 C   0  0  0  0  0  0  0  0  0  0  0  0
   36.0070   22.0600   31.6330 C   0  0  0  0  0  0  0  0  0  0  0  0
   34.9860   21.2840   32.1360 C   0  0  0  0  0  0  0  0  0  0  0  0
   34.1450   21.7680   32.6100 H   0  0  0  0  0  0  0  0  0  0  0  0
   34.9250   19.9110   32.0930 C   0  0  0  0  0  0  0  0  0  0  0  0
   34.0860   19.3690   32.5120 H   0  0  0  0  0  0  0  0  0  0  0  0
   35.9680   19.2320   31.5000 C   0  0  0  0  0  3  0  0  0  0  0  0
   37.0260   19.9430   30.9740 C   0  0  0  0  0  3  0  0  0  0  0  0
  1 12  1  0  0  0  0
  2  7  1  0  0  0  0
  2  1  2  0  0  0  0
  3  2  1  0  0  0  0
  4  3  2  0  0  0  0
  4  5  1  0  0  0  0
  5  6  2  0  0  0  0
  6  1  1  0  0  0  0
  8  3  1  0  0  0  0
  9  4  1  0  0  0  0
 10 16  1  0  0  0  0
 11 17  1  0  0  0  0
 11 10  2  0  0  0  0
 12 11  1  0  0  0  0
 13 12  2  0  0  0  0
 13 14  1  0  0  0  0
 14 15  2  0  0  0  0
 15 10  1  0  0  0  0
 18 14  1  0  0  0  0
 19 20  1  0  0  0  0
 20 21  1  0  0  0  0
 21  5  1  0  0  0  0
 21 22  2  0  0  0  0
 22 23  1  0  0  0  0
 24 22  1  0  0  0  0
 24 25  1  0  0  0  0
 26 24  2  0  0  0  0
 27 20  2  0  0  0  0
 27 26  1  0  0  0  0
M  END
>  <minimizedAffinity>
-5.2271657

$$$$

 OpenBabel03262522383D

 27 29  0  0  0  0  0  0  0  0999 V2000
   35.5540   30.0530   33.2730 C   0  0  0  0  0  0  0  0  0  0  0  0
   35.9560   30.8260   32.2100 C   0  0  0  0  0  0  0  0  0  0  0  0
   36.4270   30.3160   31.0260 C   0  0  0  0  0  0  0  0  0  0  0  0
   36.5120   28.9460   30.8730 C   0  0  0  0  0  0  0  0  0  0  0  0
   36.1080   28.1930   31.9430 C   0  0  0  0  0  0  0  0  0  0  0  0
   35.6500   28.7160   33.0880 N   0  0  0  0  0  0  0  0  0  0  0  0
   35.8950   31.9040   32.3160 H   0  0  0  0  0  0  0  0  0  0  0  0
   36.7210   31.0020   30.2420 H   0  0  0  0  0  0  0  0  0  0  0  0
   36.8830   28.5990   29.9420 H   0  0  0  0  0  0  0  0  0  0  0  0
   35.2060   31.8480   36.5710 C   0  0  0  0  0  0  0  0  0  0  0  0
   35.8370   31.3720   35.4050 C   0  0  0  0  0  0  0  0  0  0  0  0
   35.0540   30.6210   34.5250 C   0  0  0  0  0  0  0  0  0  0  0  0
   33.7680   30.4080   34.8520 N   0  0  0  0  0  0  0  0  0  0  0  0
   33.1810   30.8740   35.9760 C   0  0  0  0  0  0  0  0  0  0  0  0
   33.9100   31.5910   36.8250 N   0  0  0  0  0  0  0  0  0  0  0  0
   35.8970   32.4270   37.1980 H   0  0  0  0  0  0  0  0  0  0  0  0
   36.8580   31.5370   35.1380 H   0  0  0  0  0  0  0  0  0  0  0  0
   32.1400   30.6680   36.1810 H   0  0  0  0  0  0  0  0  0  0  0  0
   38.5890   26.8860   33.3800 Br  0  0  0  0  0  0  0  0  0  0  0  0
   37.1970   26.0080   32.4180 C   0  0  0  0  0  0  0  0  0  0  0  0
   36.1740   26.7410   31.8440 C   0  0  0  0  0  0  0  0  0  0  0  0
   35.2570   25.9520   31.1870 C   0  0  0  0  0  0  0  0  0  0  0  0
   34.4140   26.4210   30.7020 H   0  0  0  0  0  0  0  0  0  0  0  0
   35.3040   24.5810   31.0820 C   0  0  0  0  0  0  0  0  0  0  0  0
   34.5420   24.0280   30.5470 H   0  0  0  0  0  0  0  0  0  0  0  0
   36.3550   23.9190   31.6800 C   0  0  0  0  0  3  0  0  0  0  0  0
   37.3140   24.6450   32.3560 C   0  0  0  0  0  3  0  0  0  0  0  0
  1 12  1  0  0  0  0
  2  7  1  0  0  0  0
  2  1  2  0  0  0  0
  3  2  1  0  0  0  0
  4  3  2  0  0  0  0
  4  5  1  0  0  0  0
  5  6  2  0  0  0  0
  6  1  1  0  0  0  0
  8  3  1  0  0  0  0
  9  4  1  0  0  0  0
 10 15  1  0  0  0  0
 10 16  1  0  0  0  0
 11 10  2  0  0  0  0
 12 13  2  0  0  0  0
 12 11  1  0  0  0  0
 13 14  1  0  0  0  0
 14 18  1  0  0  0  0
 14 15  2  0  0  0  0
 17 11  1  0  0  0  0
 20 19  1  0  0  0  0
 21  5  1  0  0  0  0
 21 20  2  0  0  0  0
 22 21  1  0  0  0  0
 23 22  1  0  0  0  0
 24 22  2  0  0  0  0
 24 26  1  0  0  0  0
 25 24  1  0  0  0  0
 26 27  2  0  0  0  0
 27 20  1  0  0  0  0
M  END
>  <minimizedAffinity>
-5.1542902

$$$$

 OpenBabel03262522383D

 27 29  0  0  0  0  0  0  0  0999 V2000
   36.5240   28.1780   33.5460 C   0  0  0  0  0  0  0  0  0  0  0  0
   36.4040   28.6330   32.2550 C   0  0  0  0  0  0  0  0  0  0  0  0
   35.5230   29.6110   31.8660 C   0  0  0  0  0  0  0  0  0  0  0  0
   34.7000   30.1860   32.8130 C   0  0  0  0  0  0  0  0  0  0  0  0
   34.8340   29.7200   34.0940 C   0  0  0  0  0  0  0  0  0  0  0  0
   35.7020   28.7640   34.4480 N   0  0  0  0  0  0  0  0  0  0  0  0
   37.0450   28.1900   31.5000 H   0  0  0  0  0  0  0  0  0  0  0  0
   35.4980   29.9070   30.8250 H   0  0  0  0  0  0  0  0  0  0  0  0
   34.0360   30.9370   32.4650 H   0  0  0  0  0  0  0  0  0  0  0  0
   39.1720   26.1320   35.2870 C   0  0  0  0  0  0  0  0  0  0  0  0
   38.3140   27.2240   35.0470 C   0  0  0  0  0  0  0  0  0  0  0  0
   37.4720   27.1340   33.9360 C   0  0  0  0  0  0  0  0  0  0  0  0
   37.5410   26.0220   33.1830 N   0  0  0  0  0  0  0  0  0  0  0  0
   38.3710   24.9870   33.4290 C   0  0  0  0  0  0  0  0  0  0  0  0
   39.1800   25.0540   34.4830 N   0  0  0  0  0  0  0  0  0  0  0  0
   39.7920   26.2930   36.1780 H   0  0  0  0  0  0  0  0  0  0  0  0
   38.2530   28.1100   35.6410 H   0  0  0  0  0  0  0  0  0  0  0  0
   38.3780   24.1190   32.7840 H   0  0  0  0  0  0  0  0  0  0  0  0
   36.1340   32.1090   35.6850 Br  0  0  0  0  0  0  0  0  0  0  0  0
   34.4070   31.3410   35.9310 C   0  0  0  0  0  0  0  0  0  0  0  0
   33.9910   30.2860   35.1390 C   0  0  0  0  0  0  0  0  0  0  0  0
   32.7220   29.8530   35.4500 C   0  0  0  0  0  0  0  0  0  0  0  0
   32.2960   29.0320   34.8920 H   0  0  0  0  0  0  0  0  0  0  0  0
   31.9130   30.3750   36.4330 C   0  0  0  0  0  0  0  0  0  0  0  0
   30.9220   29.9790   36.6190 H   0  0  0  0  0  0  0  0  0  0  0  0
   32.3970   31.4250   37.1830 C   0  0  0  0  0  3  0  0  0  0  0  0
   33.6610   31.9130   36.9270 C   0  0  0  0  0  3  0  0  0  0  0  0
  1 12  1  0  0  0  0
  1  6  1  0  0  0  0
  2  1  2  0  0  0  0
  3  2  1  0  0  0  0
  3  4  2  0  0  0  0
  4  5  1  0  0  0  0
  5  6  2  0  0  0  0
  5 21  1  0  0  0  0
  7  2  1  0  0  0  0
  8  3  1  0  0  0  0
  9  4  1  0  0  0  0
 10 16  1  0  0  0  0
 11 10  1  0  0  0  0
 11 17  1  0  0  0  0
 12 11  2  0  0  0  0
 13 14  2  0  0  0  0
 13 12  1  0  0  0  0
 14 15  1  0  0  0  0
 15 10  2  0  0  0  0
 18 14  1  0  0  0  0
 19 20  1  0  0  0  0
 20 27  1  0  0  0  0
 21 22  1  0  0  0  0
 21 20  2  0  0  0  0
 22 24  2  0  0  0  0
 23 22  1  0  0  0  0
 24 25  1  0  0  0  0
 24 26  1  0  0  0  0
 27 26  2  0  0  0  0
M  END
>  <minimizedAffinity>
-5.11582708

$$$$

 OpenBabel03262522383D

 27 29  0  0  0  0  0  0  0  0999 V2000
   36.2410   23.7450   31.5880 C   0  0  0  0  0  0  0  0  0  0  0  0
   35.2720   24.6030   31.1240 C   0  0  0  0  0  0  0  0  0  0  0  0
   35.3980   25.9700   31.1210 C   0  0  0  0  0  0  0  0  0  0  0  0
   36.5590   26.5370   31.6080 C   0  0  0  0  0  0  0  0  0  0  0  0
   37.5120   25.6660   32.0650 C   0  0  0  0  0  0  0  0  0  0  0  0
   37.3650   24.3350   32.0570 N   0  0  0  0  0  0  0  0  0  0  0  0
   34.3550   24.1720   30.7380 H   0  0  0  0  0  0  0  0  0  0  0  0
   34.5820   26.5680   30.7360 H   0  0  0  0  0  0  0  0  0  0  0  0
   36.6100   27.5970   31.5860 H   0  0  0  0  0  0  0  0  0  0  0  0
   35.0480   20.2110   32.1470 C   0  0  0  0  0  0  0  0  0  0  0  0
   35.0610   21.6160   32.2520 C   0  0  0  0  0  0  0  0  0  0  0  0
   36.0830   22.2900   31.5790 C   0  0  0  0  0  0  0  0  0  0  0  0
   36.9720   21.5570   30.8880 N   0  0  0  0  0  0  0  0  0  0  0  0
   36.9430   20.2100   30.8000 C   0  0  0  0  0  0  0  0  0  0  0  0
   35.9770   19.5500   31.4320 N   0  0  0  0  0  0  0  0  0  0  0  0
   34.2120   19.7710   32.7050 H   0  0  0  0  0  0  0  0  0  0  0  0
   34.3590   22.2060   32.7990 H   0  0  0  0  0  0  0  0  0  0  0  0
   37.6880   19.6780   30.2250 H   0  0  0  0  0  0  0  0  0  0  0  0
   37.5400   26.1080   35.1860 Br  0  0  0  0  0  0  0  0  0  0  0  0
   38.9410   26.4580   33.9410 C   0  0  0  0  0  0  0  0  0  0  0  0
   38.7590   26.2040   32.5940 C   0  0  0  0  0  0  0  0  0  0  0  0
   39.8670   26.5130   31.8380 C   0  0  0  0  0  0  0  0  0  0  0  0
   39.8350   26.3540   30.7700 H   0  0  0  0  0  0  0  0  0  0  0  0
   41.0510   27.0230   32.3190 C   0  0  0  0  0  0  0  0  0  0  0  0
   41.8820   27.2410   31.6590 H   0  0  0  0  0  0  0  0  0  0  0  0
   41.1580   27.2500   33.6740 C   0  0  0  0  0  3  0  0  0  0  0  0
   40.0870   26.9630   34.4940 C   0  0  0  0  0  3  0  0  0  0  0  0
  1  6  1  0  0  0  0
  2  1  2  0  0  0  0
  3  2  1  0  0  0  0
  3  4  2  0  0  0  0
  4  5  1  0  0  0  0
  5 21  1  0  0  0  0
  6  5  2  0  0  0  0
  7  2  1  0  0  0  0
  8  3  1  0  0  0  0
  9  4  1  0  0  0  0
 10 11  1  0  0  0  0
 10 16  1  0  0  0  0
 11 17  1  0  0  0  0
 12  1  1  0  0  0  0
 12 11  2  0  0  0  0
 13 12  1  0  0  0  0
 14 13  2  0  0  0  0
 14 15  1  0  0  0  0
 15 10  2  0  0  0  0
 18 14  1  0  0  0  0
 20 27  1  0  0  0  0
 20 19  1  0  0  0  0
 21 20  2  0  0  0  0
 22 24  2  0  0  0  0
 22 21  1  0  0  0  0
 23 22  1  0  0  0  0
 24 26  1  0  0  0  0
 25 24  1  0  0  0  0
 26 27  2  0  0  0  0
M  END
>  <minimizedAffinity>
-5.10230637

$$$$

 OpenBabel03262522383D

 27 29  0  0  0  0  0  0  0  0999 V2000
   36.5620   29.6790   31.7130 C   0  0  0  0  0  0  0  0  0  0  0  0
   36.9430   28.3900   32.0010 C   0  0  0  0  0  0  0  0  0  0  0  0
   36.7260   27.7790   33.2110 C   0  0  0  0  0  0  0  0  0  0  0  0
   36.0880   28.4840   34.2120 C   0  0  0  0  0  0  0  0  0  0  0  0
   35.7160   29.7660   33.9060 C   0  0  0  0  0  0  0  0  0  0  0  0
   35.9400   30.3390   32.7170 N   0  0  0  0  0  0  0  0  0  0  0  0
   37.4460   27.8250   31.2240 H   0  0  0  0  0  0  0  0  0  0  0  0
   37.0610   26.7590   33.3480 H   0  0  0  0  0  0  0  0  0  0  0  0
   35.9430   27.9700   35.1290 H   0  0  0  0  0  0  0  0  0  0  0  0
   36.7420   32.0790   28.8090 C   0  0  0  0  0  0  0  0  0  0  0  0
   36.4400   31.6210   30.1070 C   0  0  0  0  0  0  0  0  0  0  0  0
   36.8050   30.3080   30.4150 C   0  0  0  0  0  0  0  0  0  0  0  0
   37.4110   29.5830   29.4590 N   0  0  0  0  0  0  0  0  0  0  0  0
   37.6920   30.0410   28.2200 C   0  0  0  0  0  0  0  0  0  0  0  0
   37.3530   31.2880   27.9090 N   0  0  0  0  0  0  0  0  0  0  0  0
   36.4200   33.1180   28.6620 H   0  0  0  0  0  0  0  0  0  0  0  0
   35.9590   32.1910   30.8720 H   0  0  0  0  0  0  0  0  0  0  0  0
   38.1830   29.4060   27.4960 H   0  0  0  0  0  0  0  0  0  0  0  0
   32.5750   29.5100   33.9070 Br  0  0  0  0  0  0  0  0  0  0  0  0
   33.6640   30.5650   35.0630 C   0  0  0  0  0  0  0  0  0  0  0  0
   35.0400   30.5610   34.9230 C   0  0  0  0  0  0  0  0  0  0  0  0
   35.6710   31.3770   35.8360 C   0  0  0  0  0  0  0  0  0  0  0  0
   36.7480   31.4500   35.8170 H   0  0  0  0  0  0  0  0  0  0  0  0
   35.0490   32.1350   36.8000 C   0  0  0  0  0  0  0  0  0  0  0  0
   35.6160   32.7540   37.4850 H   0  0  0  0  0  0  0  0  0  0  0  0
   33.6740   32.0880   36.8780 C   0  0  0  0  0  3  0  0  0  0  0  0
   32.9740   31.2920   35.9960 C   0  0  0  0  0  3  0  0  0  0  0  0
  1  2  2  0  0  0  0
  1  6  1  0  0  0  0
  2  3  1  0  0  0  0
  3  8  1  0  0  0  0
  3  4  2  0  0  0  0
  4  9  1  0  0  0  0
  5  4  1  0  0  0  0
  5 21  1  0  0  0  0
  6  5  2  0  0  0  0
  7  2  1  0  0  0  0
 10 11  1  0  0  0  0
 11 12  2  0  0  0  0
 11 17  1  0  0  0  0
 12  1  1  0  0  0  0
 13 12  1  0  0  0  0
 14 13  2  0  0  0  0
 15 14  1  0  0  0  0
 15 10  2  0  0  0  0
 16 10  1  0  0  0  0
 18 14  1  0  0  0  0
 19 20  1  0  0  0  0
 20 27  1  0  0  0  0
 21 20  2  0  0  0  0
 21 22  1  0  0  0  0
 22 24  2  0  0  0  0
 23 22  1  0  0  0  0
 24 26  1  0  0  0  0
 24 25  1  0  0  0  0
 27 26  2  0  0  0  0
M  END
>  <minimizedAffinity>
-4.96600294

$$$$
