
 OpenBabel03262520133D

 42 44  0  0  0  0  0  0  0  0999 V2000
   35.2280   30.2950   49.3190 C   0  0  0  0  0  0  0  0  0  0  0  0
   35.0150   31.3430   49.6850 H   0  0  0  0  0  0  0  0  0  0  0  0
   36.0920   29.9450   49.9320 H   0  0  0  0  0  0  0  0  0  0  0  0
   38.1220   31.4800   48.9360 Br  0  0  0  0  0  0  0  0  0  0  0  0
   36.9180   30.8730   47.5610 C   0  0  0  0  0  0  0  0  0  0  0  0
   37.2870   30.9260   46.2350 C   0  0  0  0  0  0  0  0  0  0  0  0
   36.3930   30.4930   45.3050 C   0  0  0  0  0  0  0  0  0  0  0  0
   35.1390   30.0070   45.6490 C   0  0  0  0  0  0  0  0  0  0  0  0
   34.8000   29.9670   47.0030 C   0  0  0  0  0  0  0  0  0  0  0  0
   35.6960   30.4020   47.9400 C   0  0  0  0  0  0  0  0  0  0  0  0
   36.7420   30.5580   44.2600 H   0  0  0  0  0  0  0  0  0  0  0  0
   34.5670   29.7100   44.8050 H   0  0  0  0  0  0  0  0  0  0  0  0
   33.8090   29.5830   47.0540 H   0  0  0  0  0  0  0  0  0  0  0  0
   39.8440   33.2730   45.0920 C   0  0  0  0  0  0  0  0  0  0  0  0
   41.0390   32.4870   45.0800 C   0  0  0  0  0  0  0  0  0  0  0  0
   40.9240   31.1690   45.4680 C   0  0  0  0  0  0  0  0  0  0  0  0
   39.7010   30.6610   45.8440 N   0  0  0  0  0  0  0  0  0  0  0  0
   38.6050   31.4430   45.8380 C   0  0  0  0  0  0  0  0  0  0  0  0
   38.6930   32.7290   45.4640 N   0  0  0  0  0  0  0  0  0  0  0  0
   39.8860   34.3030   44.7970 H   0  0  0  0  0  0  0  0  0  0  0  0
   41.9280   32.9800   44.7720 H   0  0  0  0  0  0  0  0  0  0  0  0
   41.8200   30.5690   45.4620 H   0  0  0  0  0  0  0  0  0  0  0  0
   34.1060   29.3590   49.5800 C   0  0  0  0  0  0  0  0  0  0  0  0
   33.2040   29.6960   49.1150 H   0  0  0  0  0  0  0  0  0  0  0  0
   33.8990   29.4980   50.7000 H   0  0  0  0  0  0  0  0  0  0  0  0
   34.5580   28.0280   49.4660 N   0  0  0  0  0  0  0  0  0  0  0  0
   35.5970   27.9410   49.3270 H   0  0  0  0  0  0  0  0  0  0  0  0
   33.8710   27.1720   48.5660 C   0  0  0  0  0  0  0  0  0  0  0  0
   34.2630   27.2150   47.5230 H   0  0  0  0  0  0  0  0  0  0  0  0
   33.9030   26.1010   48.8810 H   0  0  0  0  0  0  0  0  0  0  0  0
   32.4360   27.5820   48.5380 C   0  0  0  0  0  0  0  0  0  0  0  0
   31.9880   27.3780   49.5360 H   0  0  0  0  0  0  0  0  0  0  0  0
   32.1450   28.5090   48.0900 H   0  0  0  0  0  0  0  0  0  0  0  0
   29.4500   28.3630   47.8320 Br  0  0  0  0  0  0  0  0  0  0  0  0
   30.4140   26.7960   47.2820 C   0  0  0  0  0  0  0  0  0  0  0  0
   31.7210   26.5590   47.6440 C   0  0  0  0  0  0  0  0  0  0  0  0
   32.3320   25.4120   47.1970 C   0  0  0  0  0  0  0  0  0  0  0  0
   33.3620   25.2220   47.4810 H   0  0  0  0  0  0  0  0  0  0  0  0
   31.5910   24.5620   46.4060 C   0  0  0  0  0  0  0  0  0  0  0  0
   32.0370   23.6500   46.0350 H   0  0  0  0  0  0  0  0  0  0  0  0
   30.2820   24.7910   46.0390 C   0  0  0  0  0  3  0  0  0  0  0  0
   29.6570   25.9570   46.4910 C   0  0  0  0  0  3  0  0  0  0  0  0
  1 23  1  0  0  0  0
  1  2  1  0  0  0  0
  1  3  1  0  0  0  0
  5 10  1  0  0  0  0
  5  4  1  0  0  0  0
  6  5  2  0  0  0  0
  7  8  2  0  0  0  0
  7  6  1  0  0  0  0
  8  9  1  0  0  0  0
  9 13  1  0  0  0  0
  9 10  2  0  0  0  0
 10  1  1  0  0  0  0
 11  7  1  0  0  0  0
 12  8  1  0  0  0  0
 14 19  1  0  0  0  0
 15 14  2  0  0  0  0
 15 16  1  0  0  0  0
 16 17  2  0  0  0  0
 18 17  1  0  0  0  0
 18  6  1  0  0  0  0
 19 18  2  0  0  0  0
 20 14  1  0  0  0  0
 21 15  1  0  0  0  0
 22 16  1  0  0  0  0
 23 25  1  0  0  0  0
 24 23  1  0  0  0  0
 26 23  1  0  0  0  0
 27 26  1  0  0  0  0
 28 30  1  0  0  0  0
 28 26  1  0  0  0  0
 29 28  1  0  0  0  0
 31 28  1  0  0  0  0
 31 32  1  0  0  0  0
 33 31  1  0  0  0  0
 35 36  1  0  0  0  0
 35 34  1  0  0  0  0
 36 31  1  0  0  0  0
 37 38  1  0  0  0  0
 37 36  2  0  0  0  0
 39 37  1  0  0  0  0
 40 39  1  0  0  0  0
 41 39  2  0  0  0  0
 41 42  1  0  0  0  0
 42 35  2  0  0  0  0
M  END
>  <minimizedAffinity>
-5.37132406

>  <minimizedRMSD>
0.0983316451

$$$$
