
 OpenBabel03262523583D

 28 30  0  0  0  0  0  0  0  0999 V2000
   38.8460   27.0370   34.7080 C   0  0  0  0  0  0  0  0  0  0  0  0
   37.7650   26.7340   33.8210 C   0  0  0  0  0  0  0  0  0  0  0  0
   37.4860   25.3910   33.6220 C   0  0  0  0  0  0  0  0  0  0  0  0
   38.2330   24.4520   34.2620 N   0  0  0  0  0  0  0  0  0  0  0  0
   39.2490   24.7780   35.0940 C   0  0  0  0  0  0  0  0  0  0  0  0
   39.5470   26.0800   35.3120 N   0  0  0  0  0  0  0  0  0  0  0  0
   39.1460   28.0620   34.9330 H   0  0  0  0  0  0  0  0  0  0  0  0
   36.6750   25.1690   32.9570 H   0  0  0  0  0  0  0  0  0  0  0  0
   38.0320   23.8480   37.8260 Br  0  0  0  0  0  0  0  0  0  0  0  0
   39.6470   23.2600   36.9870 C   0  0  0  0  0  0  0  0  0  0  0  0
   40.0440   23.7730   35.7760 C   0  0  0  0  0  0  0  0  0  0  0  0
   41.2230   23.2910   35.2450 C   0  0  0  0  0  0  0  0  0  0  0  0
   42.0090   22.3350   35.8610 C   0  0  0  0  0  0  0  0  0  0  0  0
   41.5850   21.8440   37.0690 C   0  0  0  0  0  0  0  0  0  0  0  0
   40.4050   22.3100   37.6250 C   0  0  0  0  0  0  0  0  0  0  0  0
   41.5900   23.6600   34.2860 H   0  0  0  0  0  0  0  0  0  0  0  0
   42.9340   21.9600   35.4390 H   0  0  0  0  0  0  0  0  0  0  0  0
   42.1210   21.0950   37.6370 H   0  0  0  0  0  0  0  0  0  0  0  0
   40.0680   21.9220   38.5800 H   0  0  0  0  0  0  0  0  0  0  0  0
   38.5390   27.4280   30.8520 Br  0  0  0  0  0  0  0  0  0  0  0  0
   37.2480   28.3280   31.9290 C   0  0  0  0  0  0  0  0  0  0  0  0
   37.0620   27.8580   33.2130 C   0  0  0  0  0  0  0  0  0  0  0  0
   36.1360   28.4950   33.9980 C   0  0  0  0  0  0  0  0  0  0  0  0
   35.9280   28.1900   35.0230 H   0  0  0  0  0  0  0  0  0  0  0  0
   35.3950   29.5870   33.5340 C   0  0  0  0  0  0  0  0  0  0  0  0
   34.6670   30.0830   34.1600 H   0  0  0  0  0  0  0  0  0  0  0  0
   35.5780   30.0520   32.2640 C   0  0  0  0  0  3  0  0  0  0  0  0
   36.5120   29.4050   31.4810 C   0  0  0  0  0  3  0  0  0  0  0  0
  1  7  1  0  0  0  0
  1  6  1  0  0  0  0
  2  1  2  0  0  0  0
  3  2  1  0  0  0  0
  3  4  2  0  0  0  0
  4  5  1  0  0  0  0
  5  6  2  0  0  0  0
  5 11  1  0  0  0  0
  8  3  1  0  0  0  0
 10 15  1  0  0  0  0
 10  9  1  0  0  0  0
 11 10  2  0  0  0  0
 12 11  1  0  0  0  0
 12 13  2  0  0  0  0
 13 14  1  0  0  0  0
 14 15  2  0  0  0  0
 14 18  1  0  0  0  0
 15 19  1  0  0  0  0
 16 12  1  0  0  0  0
 17 13  1  0  0  0  0
 20 21  1  0  0  0  0
 21 22  1  0  0  0  0
 22  2  1  0  0  0  0
 22 23  2  0  0  0  0
 23 24  1  0  0  0  0
 25 23  1  0  0  0  0
 25 26  1  0  0  0  0
 27 25  2  0  0  0  0
 28 21  2  0  0  0  0
 28 27  1  0  0  0  0
M  END
>  <minimizedAffinity>
-5.51524115

$$$$

 OpenBabel03262523583D

 28 30  0  0  0  0  0  0  0  0999 V2000
   39.4100   26.1700   35.2480 C   0  0  0  0  0  0  0  0  0  0  0  0
   39.1040   24.7850   35.0600 C   0  0  0  0  0  0  0  0  0  0  0  0
   38.0820   24.4920   34.1710 C   0  0  0  0  0  0  0  0  0  0  0  0
   37.4370   25.5080   33.5380 N   0  0  0  0  0  0  0  0  0  0  0  0
   37.7550   26.8070   33.7420 C   0  0  0  0  0  0  0  0  0  0  0  0
   38.7480   27.1280   34.6030 N   0  0  0  0  0  0  0  0  0  0  0  0
   40.1970   26.5070   35.9250 H   0  0  0  0  0  0  0  0  0  0  0  0
   37.8570   23.4530   34.0330 H   0  0  0  0  0  0  0  0  0  0  0  0
   38.7990   27.3470   30.8400 Br  0  0  0  0  0  0  0  0  0  0  0  0
   37.4030   28.2510   31.7830 C   0  0  0  0  0  0  0  0  0  0  0  0
   37.0640   27.8890   33.0630 C   0  0  0  0  0  0  0  0  0  0  0  0
   36.0440   28.5970   33.6680 C   0  0  0  0  0  0  0  0  0  0  0  0
   35.3610   29.6320   33.0580 C   0  0  0  0  0  0  0  0  0  0  0  0
   35.7250   29.9680   31.7800 C   0  0  0  0  0  0  0  0  0  0  0  0
   36.7440   29.2750   31.1490 C   0  0  0  0  0  0  0  0  0  0  0  0
   35.7290   28.3550   34.6850 H   0  0  0  0  0  0  0  0  0  0  0  0
   34.5610   30.1840   33.5380 H   0  0  0  0  0  0  0  0  0  0  0  0
   35.2580   30.7610   31.2100 H   0  0  0  0  0  0  0  0  0  0  0  0
   37.0330   29.5410   30.1380 H   0  0  0  0  0  0  0  0  0  0  0  0
   37.9120   23.8630   37.8210 Br  0  0  0  0  0  0  0  0  0  0  0  0
   39.5540   23.2830   37.0430 C   0  0  0  0  0  0  0  0  0  0  0  0
   39.8910   23.8170   35.8150 C   0  0  0  0  0  0  0  0  0  0  0  0
   41.0690   23.4080   35.2440 C   0  0  0  0  0  0  0  0  0  0  0  0
   41.4110   23.7800   34.2790 H   0  0  0  0  0  0  0  0  0  0  0  0
   41.9140   22.4840   35.8660 C   0  0  0  0  0  0  0  0  0  0  0  0
   42.8410   22.1680   35.4080 H   0  0  0  0  0  0  0  0  0  0  0  0
   41.5810   21.9560   37.0790 C   0  0  0  0  0  3  0  0  0  0  0  0
   40.3940   22.3720   37.6480 C   0  0  0  0  0  3  0  0  0  0  0  0
  1  7  1  0  0  0  0
  2  1  1  0  0  0  0
  2 22  1  0  0  0  0
  3  2  2  0  0  0  0
  4  5  2  0  0  0  0
  4  3  1  0  0  0  0
  5  6  1  0  0  0  0
  6  1  2  0  0  0  0
  8  3  1  0  0  0  0
  9 10  1  0  0  0  0
 10 11  1  0  0  0  0
 11 12  2  0  0  0  0
 11  5  1  0  0  0  0
 12 16  1  0  0  0  0
 13 17  1  0  0  0  0
 13 12  1  0  0  0  0
 14 13  2  0  0  0  0
 15 14  1  0  0  0  0
 15 10  2  0  0  0  0
 18 14  1  0  0  0  0
 19 15  1  0  0  0  0
 21 28  1  0  0  0  0
 21 20  1  0  0  0  0
 22 21  2  0  0  0  0
 23 22  1  0  0  0  0
 23 25  2  0  0  0  0
 24 23  1  0  0  0  0
 25 27  1  0  0  0  0
 26 25  1  0  0  0  0
 27 28  2  0  0  0  0
M  END
>  <minimizedAffinity>
-5.48705626

$$$$

 OpenBabel03262523583D

 28 30  0  0  0  0  0  0  0  0999 V2000
   35.4550   25.0000   31.0360 C   0  0  0  0  0  0  0  0  0  0  0  0
   36.3900   24.2090   31.7750 C   0  0  0  0  0  0  0  0  0  0  0  0
   37.2210   24.8890   32.6510 C   0  0  0  0  0  0  0  0  0  0  0  0
   37.1090   26.2390   32.7630 N   0  0  0  0  0  0  0  0  0  0  0  0
   36.2120   26.9550   32.0480 C   0  0  0  0  0  0  0  0  0  0  0  0
   35.3850   26.3210   31.1840 N   0  0  0  0  0  0  0  0  0  0  0  0
   34.7560   24.5630   30.3220 H   0  0  0  0  0  0  0  0  0  0  0  0
   37.9200   24.2910   33.2030 H   0  0  0  0  0  0  0  0  0  0  0  0
   37.5090   28.5300   29.6730 Br  0  0  0  0  0  0  0  0  0  0  0  0
   36.6140   29.2320   31.2110 C   0  0  0  0  0  0  0  0  0  0  0  0
   36.0960   28.3960   32.1710 C   0  0  0  0  0  0  0  0  0  0  0  0
   35.4670   28.9890   33.2470 C   0  0  0  0  0  0  0  0  0  0  0  0
   35.3350   30.3570   33.4030 C   0  0  0  0  0  0  0  0  0  0  0  0
   35.8630   31.1620   32.4270 C   0  0  0  0  0  0  0  0  0  0  0  0
   36.4990   30.5940   31.3360 C   0  0  0  0  0  0  0  0  0  0  0  0
   35.0350   28.3780   34.0420 H   0  0  0  0  0  0  0  0  0  0  0  0
   34.8390   30.8160   34.2500 H   0  0  0  0  0  0  0  0  0  0  0  0
   35.8170   32.2430   32.4470 H   0  0  0  0  0  0  0  0  0  0  0  0
   36.9180   31.2300   30.5630 H   0  0  0  0  0  0  0  0  0  0  0  0
   38.8060   23.0480   30.1270 Br  0  0  0  0  0  0  0  0  0  0  0  0
   37.3410   22.0600   30.8440 C   0  0  0  0  0  0  0  0  0  0  0  0
   36.3830   22.7690   31.5390 C   0  0  0  0  0  0  0  0  0  0  0  0
   35.3240   22.0710   32.0600 C   0  0  0  0  0  0  0  0  0  0  0  0
   34.5240   22.5520   32.6210 H   0  0  0  0  0  0  0  0  0  0  0  0
   35.2000   20.6860   31.9040 C   0  0  0  0  0  0  0  0  0  0  0  0
   34.3610   20.1440   32.3180 H   0  0  0  0  0  0  0  0  0  0  0  0
   36.1470   19.9840   31.2170 C   0  0  0  0  0  3  0  0  0  0  0  0
   37.2090   20.6950   30.6950 C   0  0  0  0  0  3  0  0  0  0  0  0
  1  6  2  0  0  0  0
  1  2  1  0  0  0  0
  2  3  2  0  0  0  0
  3  4  1  0  0  0  0
  3  8  1  0  0  0  0
  5 11  1  0  0  0  0
  5  4  2  0  0  0  0
  6  5  1  0  0  0  0
  7  1  1  0  0  0  0
  9 10  1  0  0  0  0
 10 15  2  0  0  0  0
 10 11  1  0  0  0  0
 11 12  2  0  0  0  0
 12 13  1  0  0  0  0
 12 16  1  0  0  0  0
 13 17  1  0  0  0  0
 14 18  1  0  0  0  0
 14 13  2  0  0  0  0
 15 14  1  0  0  0  0
 19 15  1  0  0  0  0
 20 21  1  0  0  0  0
 21 22  1  0  0  0  0
 22  2  1  0  0  0  0
 22 23  2  0  0  0  0
 23 24  1  0  0  0  0
 25 23  1  0  0  0  0
 25 26  1  0  0  0  0
 27 25  2  0  0  0  0
 28 21  2  0  0  0  0
 28 27  1  0  0  0  0
M  END
>  <minimizedAffinity>
-5.43045855

$$$$

 OpenBabel03262523583D

 28 30  0  0  0  0  0  0  0  0999 V2000
   39.0960   26.4520   34.5840 C   0  0  0  0  0  0  0  0  0  0  0  0
   38.5040   25.1580   34.7290 C   0  0  0  0  0  0  0  0  0  0  0  0
   37.7420   24.7020   33.6650 C   0  0  0  0  0  0  0  0  0  0  0  0
   37.5990   25.4870   32.5640 N   0  0  0  0  0  0  0  0  0  0  0  0
   38.1750   26.7060   32.4620 C   0  0  0  0  0  0  0  0  0  0  0  0
   38.9260   27.1810   33.4830 N   0  0  0  0  0  0  0  0  0  0  0  0
   39.7140   26.9020   35.3620 H   0  0  0  0  0  0  0  0  0  0  0  0
   37.3010   23.7320   33.7790 H   0  0  0  0  0  0  0  0  0  0  0  0
   35.7560   28.6870   32.6300 Br  0  0  0  0  0  0  0  0  0  0  0  0
   37.0050   28.4620   31.2000 C   0  0  0  0  0  0  0  0  0  0  0  0
   38.0200   27.5400   31.2840 C   0  0  0  0  0  0  0  0  0  0  0  0
   38.8740   27.4450   30.2040 C   0  0  0  0  0  0  0  0  0  0  0  0
   38.7620   28.2200   29.0640 C   0  0  0  0  0  0  0  0  0  0  0  0
   37.7380   29.1310   29.0130 C   0  0  0  0  0  0  0  0  0  0  0  0
   36.8660   29.2470   30.0820 C   0  0  0  0  0  0  0  0  0  0  0  0
   39.6990   26.7310   30.2120 H   0  0  0  0  0  0  0  0  0  0  0  0
   39.4360   28.1410   28.2200 H   0  0  0  0  0  0  0  0  0  0  0  0
   37.5580   29.7860   28.1710 H   0  0  0  0  0  0  0  0  0  0  0  0
   36.0560   29.9680   30.0420 H   0  0  0  0  0  0  0  0  0  0  0  0
   40.8840   23.1000   34.7070 Br  0  0  0  0  0  0  0  0  0  0  0  0
   39.7430   23.5020   36.1830 C   0  0  0  0  0  0  0  0  0  0  0  0
   38.7550   24.4430   35.9760 C   0  0  0  0  0  0  0  0  0  0  0  0
   37.9280   24.7420   37.0280 C   0  0  0  0  0  0  0  0  0  0  0  0
   37.1220   25.4710   36.9510 H   0  0  0  0  0  0  0  0  0  0  0  0
   38.0640   24.1270   38.2770 C   0  0  0  0  0  0  0  0  0  0  0  0
   37.4080   24.3680   39.1010 H   0  0  0  0  0  0  0  0  0  0  0  0
   39.0420   23.1960   38.4820 C   0  0  0  0  0  3  0  0  0  0  0  0
   39.8690   22.9010   37.4180 C   0  0  0  0  0  3  0  0  0  0  0  0
  1  2  1  0  0  0  0
  1  7  1  0  0  0  0
  2 22  1  0  0  0  0
  3  8  1  0  0  0  0
  3  2  2  0  0  0  0
  4  3  1  0  0  0  0
  5  4  2  0  0  0  0
  5  6  1  0  0  0  0
  6  1  2  0  0  0  0
 10 11  1  0  0  0  0
 10  9  1  0  0  0  0
 11  5  1  0  0  0  0
 12 16  1  0  0  0  0
 12 11  2  0  0  0  0
 13 12  1  0  0  0  0
 14 13  2  0  0  0  0
 14 15  1  0  0  0  0
 15 10  2  0  0  0  0
 17 13  1  0  0  0  0
 18 14  1  0  0  0  0
 19 15  1  0  0  0  0
 20 21  1  0  0  0  0
 21 28  1  0  0  0  0
 22 21  2  0  0  0  0
 22 23  1  0  0  0  0
 23 25  2  0  0  0  0
 24 23  1  0  0  0  0
 25 27  1  0  0  0  0
 25 26  1  0  0  0  0
 28 27  2  0  0  0  0
M  END
>  <minimizedAffinity>
-5.39493084

$$$$

 OpenBabel03262523583D

 28 30  0  0  0  0  0  0  0  0999 V2000
   38.9010   27.1440   33.5110 C   0  0  0  0  0  0  0  0  0  0  0  0
   38.0510   26.6800   32.4580 C   0  0  0  0  0  0  0  0  0  0  0  0
   37.4320   25.4560   32.6560 C   0  0  0  0  0  0  0  0  0  0  0  0
   37.6580   24.7730   33.8100 N   0  0  0  0  0  0  0  0  0  0  0  0
   38.4700   25.2440   34.7840 C   0  0  0  0  0  0  0  0  0  0  0  0
   39.0890   26.4370   34.6230 N   0  0  0  0  0  0  0  0  0  0  0  0
   39.4340   28.0940   33.4550 H   0  0  0  0  0  0  0  0  0  0  0  0
   36.7950   25.1130   31.8640 H   0  0  0  0  0  0  0  0  0  0  0  0
   40.8300   23.1950   34.5940 Br  0  0  0  0  0  0  0  0  0  0  0  0
   39.7080   23.5740   36.0970 C   0  0  0  0  0  0  0  0  0  0  0  0
   38.7080   24.5120   36.0140 C   0  0  0  0  0  0  0  0  0  0  0  0
   37.9480   24.7210   37.1470 C   0  0  0  0  0  0  0  0  0  0  0  0
   38.1410   24.0460   38.3380 C   0  0  0  0  0  0  0  0  0  0  0  0
   39.1480   23.1170   38.3860 C   0  0  0  0  0  0  0  0  0  0  0  0
   39.9270   22.8870   37.2650 C   0  0  0  0  0  0  0  0  0  0  0  0
   37.1380   25.4530   37.1440 H   0  0  0  0  0  0  0  0  0  0  0  0
   37.5410   24.2150   39.2250 H   0  0  0  0  0  0  0  0  0  0  0  0
   39.3870   22.5320   39.2650 H   0  0  0  0  0  0  0  0  0  0  0  0
   40.7240   22.1520   37.3020 H   0  0  0  0  0  0  0  0  0  0  0  0
   35.7300   28.8040   32.5330 Br  0  0  0  0  0  0  0  0  0  0  0  0
   36.9690   28.5240   31.1090 C   0  0  0  0  0  0  0  0  0  0  0  0
   37.9140   27.5330   31.2830 C   0  0  0  0  0  0  0  0  0  0  0  0
   38.8110   27.3220   30.2680 C   0  0  0  0  0  0  0  0  0  0  0  0
   39.5880   26.5610   30.3220 H   0  0  0  0  0  0  0  0  0  0  0  0
   38.7860   28.0730   29.0880 C   0  0  0  0  0  0  0  0  0  0  0  0
   39.4980   27.9000   28.2920 H   0  0  0  0  0  0  0  0  0  0  0  0
   37.8520   29.0530   28.9160 C   0  0  0  0  0  3  0  0  0  0  0  0
   36.9530   29.2590   29.9420 C   0  0  0  0  0  3  0  0  0  0  0  0
  1  6  1  0  0  0  0
  2  3  1  0  0  0  0
  2  1  2  0  0  0  0
  3  4  2  0  0  0  0
  4  5  1  0  0  0  0
  5 11  1  0  0  0  0
  6  5  2  0  0  0  0
  7  1  1  0  0  0  0
  8  3  1  0  0  0  0
  9 10  1  0  0  0  0
 10 15  1  0  0  0  0
 11 10  2  0  0  0  0
 11 12  1  0  0  0  0
 12 13  2  0  0  0  0
 13 14  1  0  0  0  0
 13 17  1  0  0  0  0
 14 18  1  0  0  0  0
 15 19  1  0  0  0  0
 15 14  2  0  0  0  0
 16 12  1  0  0  0  0
 21 22  1  0  0  0  0
 21 20  1  0  0  0  0
 22  2  1  0  0  0  0
 23 24  1  0  0  0  0
 23 22  2  0  0  0  0
 25 23  1  0  0  0  0
 26 25  1  0  0  0  0
 27 25  2  0  0  0  0
 27 28  1  0  0  0  0
 28 21  2  0  0  0  0
M  END
>  <minimizedAffinity>
-5.36539793

$$$$

 OpenBabel03262523583D

 28 30  0  0  0  0  0  0  0  0999 V2000
   37.7610   25.1130   33.8900 C   0  0  0  0  0  0  0  0  0  0  0  0
   38.7350   25.4880   34.8680 C   0  0  0  0  0  0  0  0  0  0  0  0
   39.4840   26.6210   34.5940 C   0  0  0  0  0  0  0  0  0  0  0  0
   39.2630   27.3030   33.4380 N   0  0  0  0  0  0  0  0  0  0  0  0
   38.3320   26.9180   32.5360 C   0  0  0  0  0  0  0  0  0  0  0  0
   37.5820   25.8160   32.7740 N   0  0  0  0  0  0  0  0  0  0  0  0
   37.1190   24.2390   34.0100 H   0  0  0  0  0  0  0  0  0  0  0  0
   40.2130   26.8970   35.3300 H   0  0  0  0  0  0  0  0  0  0  0  0
   40.2390   26.0870   30.1960 Br  0  0  0  0  0  0  0  0  0  0  0  0
   38.8520   27.4030   30.1830 C   0  0  0  0  0  0  0  0  0  0  0  0
   38.0980   27.6490   31.3040 C   0  0  0  0  0  0  0  0  0  0  0  0
   37.1190   28.6170   31.2040 C   0  0  0  0  0  0  0  0  0  0  0  0
   36.8640   29.3360   30.0500 C   0  0  0  0  0  0  0  0  0  0  0  0
   37.6340   29.0650   28.9490 C   0  0  0  0  0  0  0  0  0  0  0  0
   38.6240   28.1000   29.0220 C   0  0  0  0  0  0  0  0  0  0  0  0
   36.4880   28.8570   32.0610 H   0  0  0  0  0  0  0  0  0  0  0  0
   36.0930   30.0940   29.9780 H   0  0  0  0  0  0  0  0  0  0  0  0
   37.5210   29.5670   27.9970 H   0  0  0  0  0  0  0  0  0  0  0  0
   39.2340   27.8850   28.1510 H   0  0  0  0  0  0  0  0  0  0  0  0
   40.8730   23.1820   34.7540 Br  0  0  0  0  0  0  0  0  0  0  0  0
   39.7170   23.5880   36.2150 C   0  0  0  0  0  0  0  0  0  0  0  0
   38.8490   24.6480   36.0560 C   0  0  0  0  0  0  0  0  0  0  0  0
   38.0120   24.9510   37.0990 C   0  0  0  0  0  0  0  0  0  0  0  0
   37.2960   25.7710   37.0570 H   0  0  0  0  0  0  0  0  0  0  0  0
   38.0230   24.2230   38.2940 C   0  0  0  0  0  0  0  0  0  0  0  0
   37.3590   24.4690   39.1110 H   0  0  0  0  0  0  0  0  0  0  0  0
   38.8810   23.1740   38.4520 C   0  0  0  0  0  3  0  0  0  0  0  0
   39.7190   22.8760   37.3970 C   0  0  0  0  0  3  0  0  0  0  0  0
  1  7  1  0  0  0  0
  1  2  1  0  0  0  0
  2 22  1  0  0  0  0
  3  2  2  0  0  0  0
  3  8  1  0  0  0  0
  4  3  1  0  0  0  0
  5  6  1  0  0  0  0
  5  4  2  0  0  0  0
  6  1  2  0  0  0  0
 10  9  1  0  0  0  0
 10 11  1  0  0  0  0
 11  5  1  0  0  0  0
 12 11  2  0  0  0  0
 12 16  1  0  0  0  0
 13 12  1  0  0  0  0
 14 15  1  0  0  0  0
 14 13  2  0  0  0  0
 15 10  2  0  0  0  0
 17 13  1  0  0  0  0
 18 14  1  0  0  0  0
 19 15  1  0  0  0  0
 20 21  1  0  0  0  0
 21 28  1  0  0  0  0
 22 21  2  0  0  0  0
 22 23  1  0  0  0  0
 23 25  2  0  0  0  0
 24 23  1  0  0  0  0
 25 27  1  0  0  0  0
 25 26  1  0  0  0  0
 28 27  2  0  0  0  0
M  END
>  <minimizedAffinity>
-5.31866407

$$$$

 OpenBabel03262523583D

 28 30  0  0  0  0  0  0  0  0999 V2000
   38.8840   27.1620   33.5610 C   0  0  0  0  0  0  0  0  0  0  0  0
   38.0480   26.6940   32.4990 C   0  0  0  0  0  0  0  0  0  0  0  0
   37.4390   25.4640   32.6860 C   0  0  0  0  0  0  0  0  0  0  0  0
   37.6610   24.7780   33.8390 N   0  0  0  0  0  0  0  0  0  0  0  0
   38.4600   25.2530   34.8220 C   0  0  0  0  0  0  0  0  0  0  0  0
   39.0690   26.4520   34.6720 N   0  0  0  0  0  0  0  0  0  0  0  0
   39.4080   28.1180   33.5140 H   0  0  0  0  0  0  0  0  0  0  0  0
   36.8120   25.1180   31.8870 H   0  0  0  0  0  0  0  0  0  0  0  0
   40.8200   23.2040   34.6360 Br  0  0  0  0  0  0  0  0  0  0  0  0
   39.6940   23.5800   36.1360 C   0  0  0  0  0  0  0  0  0  0  0  0
   38.6940   24.5180   36.0520 C   0  0  0  0  0  0  0  0  0  0  0  0
   37.9300   24.7240   37.1830 C   0  0  0  0  0  0  0  0  0  0  0  0
   38.1200   24.0460   38.3730 C   0  0  0  0  0  0  0  0  0  0  0  0
   39.1270   23.1180   38.4230 C   0  0  0  0  0  0  0  0  0  0  0  0
   39.9090   22.8900   37.3030 C   0  0  0  0  0  0  0  0  0  0  0  0
   37.1200   25.4560   37.1790 H   0  0  0  0  0  0  0  0  0  0  0  0
   37.5170   24.2130   39.2580 H   0  0  0  0  0  0  0  0  0  0  0  0
   39.3620   22.5310   39.3010 H   0  0  0  0  0  0  0  0  0  0  0  0
   40.7060   22.1550   37.3410 H   0  0  0  0  0  0  0  0  0  0  0  0
   40.0210   26.1240   30.1160 Br  0  0  0  0  0  0  0  0  0  0  0  0
   38.6730   27.4730   30.1770 C   0  0  0  0  0  0  0  0  0  0  0  0
   37.9130   27.5510   31.3260 C   0  0  0  0  0  0  0  0  0  0  0  0
   36.9400   28.5160   31.3830 C   0  0  0  0  0  0  0  0  0  0  0  0
   36.2960   28.6470   32.2520 H   0  0  0  0  0  0  0  0  0  0  0  0
   36.7100   29.4000   30.3240 C   0  0  0  0  0  0  0  0  0  0  0  0
   35.9400   30.1580   30.3780 H   0  0  0  0  0  0  0  0  0  0  0  0
   37.4610   29.3230   29.1880 C   0  0  0  0  0  3  0  0  0  0  0  0
   38.4380   28.3500   29.1390 C   0  0  0  0  0  3  0  0  0  0  0  0
  1  6  1  0  0  0  0
  2  3  1  0  0  0  0
  2  1  2  0  0  0  0
  3  4  2  0  0  0  0
  4  5  1  0  0  0  0
  5 11  1  0  0  0  0
  6  5  2  0  0  0  0
  7  1  1  0  0  0  0
  8  3  1  0  0  0  0
  9 10  1  0  0  0  0
 10 15  1  0  0  0  0
 11 10  2  0  0  0  0
 11 12  1  0  0  0  0
 12 13  2  0  0  0  0
 13 14  1  0  0  0  0
 13 17  1  0  0  0  0
 14 18  1  0  0  0  0
 15 19  1  0  0  0  0
 15 14  2  0  0  0  0
 16 12  1  0  0  0  0
 20 21  1  0  0  0  0
 21 22  1  0  0  0  0
 22 23  2  0  0  0  0
 22  2  1  0  0  0  0
 23 24  1  0  0  0  0
 25 26  1  0  0  0  0
 25 23  1  0  0  0  0
 27 25  2  0  0  0  0
 28 27  1  0  0  0  0
 28 21  2  0  0  0  0
M  END
>  <minimizedAffinity>
-5.29447126

$$$$

 OpenBabel03262523583D

 28 30  0  0  0  0  0  0  0  0999 V2000
   38.7620   24.4660   33.8240 C   0  0  0  0  0  0  0  0  0  0  0  0
   39.7170   24.8590   34.8150 C   0  0  0  0  0  0  0  0  0  0  0  0
   40.0730   26.1980   34.8350 C   0  0  0  0  0  0  0  0  0  0  0  0
   39.5140   27.0510   33.9370 N   0  0  0  0  0  0  0  0  0  0  0  0
   38.6130   26.6430   33.0140 C   0  0  0  0  0  0  0  0  0  0  0  0
   38.2420   25.3420   32.9670 N   0  0  0  0  0  0  0  0  0  0  0  0
   38.4140   23.4370   33.7240 H   0  0  0  0  0  0  0  0  0  0  0  0
   40.7890   26.4860   35.5800 H   0  0  0  0  0  0  0  0  0  0  0  0
   36.2280   28.3060   34.1760 Br  0  0  0  0  0  0  0  0  0  0  0  0
   36.9590   28.3590   32.4100 C   0  0  0  0  0  0  0  0  0  0  0  0
   38.0170   27.5570   32.0570 C   0  0  0  0  0  0  0  0  0  0  0  0
   38.4790   27.6620   30.7600 C   0  0  0  0  0  0  0  0  0  0  0  0
   37.9410   28.5190   29.8190 C   0  0  0  0  0  0  0  0  0  0  0  0
   36.8870   29.3050   30.2040 C   0  0  0  0  0  0  0  0  0  0  0  0
   36.4020   29.2210   31.4980 C   0  0  0  0  0  0  0  0  0  0  0  0
   39.3180   27.0500   30.4210 H   0  0  0  0  0  0  0  0  0  0  0  0
   38.3100   28.5960   28.8030 H   0  0  0  0  0  0  0  0  0  0  0  0
   36.3900   30.0100   29.5490 H   0  0  0  0  0  0  0  0  0  0  0  0
   35.5670   29.8430   31.8040 H   0  0  0  0  0  0  0  0  0  0  0  0
   37.9820   24.2340   37.3640 Br  0  0  0  0  0  0  0  0  0  0  0  0
   39.6220   23.3920   36.8710 C   0  0  0  0  0  0  0  0  0  0  0  0
   40.2230   23.8200   35.7050 C   0  0  0  0  0  0  0  0  0  0  0  0
   41.4020   23.2230   35.3390 C   0  0  0  0  0  0  0  0  0  0  0  0
   41.9430   23.5000   34.4350 H   0  0  0  0  0  0  0  0  0  0  0  0
   41.9920   22.2130   36.1060 C   0  0  0  0  0  0  0  0  0  0  0  0
   42.9220   21.7480   35.8100 H   0  0  0  0  0  0  0  0  0  0  0  0
   41.3980   21.7900   37.2600 C   0  0  0  0  0  3  0  0  0  0  0  0
   40.2120   22.3960   37.6210 C   0  0  0  0  0  3  0  0  0  0  0  0
  1  2  1  0  0  0  0
  2  3  2  0  0  0  0
  2 22  1  0  0  0  0
  3  8  1  0  0  0  0
  4  3  1  0  0  0  0
  5  4  2  0  0  0  0
  6  5  1  0  0  0  0
  6  1  2  0  0  0  0
  7  1  1  0  0  0  0
 10  9  1  0  0  0  0
 11 10  1  0  0  0  0
 11  5  1  0  0  0  0
 12 11  2  0  0  0  0
 13 14  2  0  0  0  0
 13 12  1  0  0  0  0
 14 15  1  0  0  0  0
 15 19  1  0  0  0  0
 15 10  2  0  0  0  0
 16 12  1  0  0  0  0
 17 13  1  0  0  0  0
 18 14  1  0  0  0  0
 21 20  1  0  0  0  0
 21 28  1  0  0  0  0
 22 21  2  0  0  0  0
 23 22  1  0  0  0  0
 23 25  2  0  0  0  0
 24 23  1  0  0  0  0
 25 27  1  0  0  0  0
 26 25  1  0  0  0  0
 27 28  2  0  0  0  0
M  END
>  <minimizedAffinity>
-5.28448534

$$$$

 OpenBabel03262523583D

 28 30  0  0  0  0  0  0  0  0999 V2000
   38.4170   25.2480   32.9470 C   0  0  0  0  0  0  0  0  0  0  0  0
   38.7480   26.6380   33.0160 C   0  0  0  0  0  0  0  0  0  0  0  0
   39.6300   27.0160   34.0160 C   0  0  0  0  0  0  0  0  0  0  0  0
   40.1230   26.0720   34.8620 N   0  0  0  0  0  0  0  0  0  0  0  0
   39.7870   24.7650   34.7650 C   0  0  0  0  0  0  0  0  0  0  0  0
   38.9290   24.3630   33.7990 N   0  0  0  0  0  0  0  0  0  0  0  0
   37.7340   24.8480   32.1970 H   0  0  0  0  0  0  0  0  0  0  0  0
   39.8750   28.0590   34.0640 H   0  0  0  0  0  0  0  0  0  0  0  0
   37.9200   24.1550   37.2040 Br  0  0  0  0  0  0  0  0  0  0  0  0
   39.6180   23.3800   36.7890 C   0  0  0  0  0  0  0  0  0  0  0  0
   40.3160   23.7610   35.6690 C   0  0  0  0  0  0  0  0  0  0  0  0
   41.5340   23.1490   35.4490 C   0  0  0  0  0  0  0  0  0  0  0  0
   42.0740   22.1880   36.2840 C   0  0  0  0  0  0  0  0  0  0  0  0
   41.3510   21.8310   37.3920 C   0  0  0  0  0  0  0  0  0  0  0  0
   40.1270   22.4280   37.6390 C   0  0  0  0  0  0  0  0  0  0  0  0
   42.1350   23.4100   34.5760 H   0  0  0  0  0  0  0  0  0  0  0  0
   43.0300   21.7110   36.1050 H   0  0  0  0  0  0  0  0  0  0  0  0
   41.6790   21.0910   38.1120 H   0  0  0  0  0  0  0  0  0  0  0  0
   39.5550   22.1460   38.5160 H   0  0  0  0  0  0  0  0  0  0  0  0
   36.2600   28.2980   33.9930 Br  0  0  0  0  0  0  0  0  0  0  0  0
   37.0380   28.3350   32.2510 C   0  0  0  0  0  0  0  0  0  0  0  0
   38.1320   27.5230   32.0330 C   0  0  0  0  0  0  0  0  0  0  0  0
   38.7010   27.5410   30.7860 C   0  0  0  0  0  0  0  0  0  0  0  0
   39.5660   26.9300   30.5280 H   0  0  0  0  0  0  0  0  0  0  0  0
   38.2050   28.3460   29.7550 C   0  0  0  0  0  0  0  0  0  0  0  0
   38.6610   28.3530   28.7750 H   0  0  0  0  0  0  0  0  0  0  0  0
   37.1240   29.1490   29.9700 C   0  0  0  0  0  3  0  0  0  0  0  0
   36.5570   29.1260   31.2280 C   0  0  0  0  0  3  0  0  0  0  0  0
  1  2  2  0  0  0  0
  1  6  1  0  0  0  0
  2  3  1  0  0  0  0
  3  8  1  0  0  0  0
  3  4  2  0  0  0  0
  5  4  1  0  0  0  0
  5 11  1  0  0  0  0
  6  5  2  0  0  0  0
  7  1  1  0  0  0  0
 10  9  1  0  0  0  0
 10 15  1  0  0  0  0
 11 10  2  0  0  0  0
 12 11  1  0  0  0  0
 12 13  2  0  0  0  0
 13 14  1  0  0  0  0
 14 15  2  0  0  0  0
 14 18  1  0  0  0  0
 15 19  1  0  0  0  0
 16 12  1  0  0  0  0
 17 13  1  0  0  0  0
 21 20  1  0  0  0  0
 22 21  1  0  0  0  0
 22  2  1  0  0  0  0
 23 22  2  0  0  0  0
 24 23  1  0  0  0  0
 25 27  2  0  0  0  0
 25 23  1  0  0  0  0
 26 25  1  0  0  0  0
 27 28  1  0  0  0  0
 28 21  2  0  0  0  0
M  END
>  <minimizedAffinity>
-5.27994061

$$$$
