
 OpenBabel03272510163D

 28 30  0  0  0  0  0  0  0  0999 V2000
   37.2170   29.2130   50.9220 Br  0  0  0  0  0  0  0  0  0  0  0  0
   35.9340   29.2530   49.5150 C   0  0  0  0  0  0  0  0  0  0  0  0
   35.9760   30.2290   48.5410 C   0  0  0  0  0  0  0  0  0  0  0  0
   35.0140   30.2090   47.5370 C   0  0  0  0  0  0  0  0  0  0  0  0
   34.0220   29.2360   47.4980 C   0  0  0  0  0  0  0  0  0  0  0  0
   34.0030   28.2800   48.4770 C   0  0  0  0  0  0  0  0  0  0  0  0
   34.9540   28.2930   49.4740 C   0  0  0  0  0  0  0  0  0  0  0  0
   35.1010   31.0000   46.8040 H   0  0  0  0  0  0  0  0  0  0  0  0
   33.2180   27.5360   48.4200 H   0  0  0  0  0  0  0  0  0  0  0  0
   34.9200   27.5290   50.2390 H   0  0  0  0  0  0  0  0  0  0  0  0
   37.8340   33.1820   49.6010 C   0  0  0  0  0  0  0  0  0  0  0  0
   38.9180   33.2550   48.6750 C   0  0  0  0  0  0  0  0  0  0  0  0
   38.9790   32.2670   47.6940 C   0  0  0  0  0  0  0  0  0  0  0  0
   38.0190   31.2900   47.6600 N   0  0  0  0  0  0  0  0  0  0  0  0
   37.0130   31.2660   48.5610 C   0  0  0  0  0  0  0  0  0  0  0  0
   36.9160   32.2110   49.5350 N   0  0  0  0  0  0  0  0  0  0  0  0
   37.7340   33.9130   50.3770 H   0  0  0  0  0  0  0  0  0  0  0  0
   39.6310   34.0540   48.7680 H   0  0  0  0  0  0  0  0  0  0  0  0
   39.7870   32.2910   46.9740 H   0  0  0  0  0  0  0  0  0  0  0  0
   35.2800   29.4900   44.6270 Br  0  0  0  0  0  0  0  0  0  0  0  0
   33.4320   29.4710   45.0560 C   0  0  0  0  0  0  0  0  0  0  0  0
   33.0860   29.3500   46.3850 C   0  0  0  0  0  0  0  0  0  0  0  0
   31.7220   29.3360   46.6910 C   0  0  0  0  0  0  0  0  0  0  0  0
   31.3030   29.2480   47.6840 H   0  0  0  0  0  0  0  0  0  0  0  0
   30.7760   29.4430   45.6680 C   0  0  0  0  0  0  0  0  0  0  0  0
   29.6980   29.4360   45.8660 H   0  0  0  0  0  0  0  0  0  0  0  0
   31.1530   29.5610   44.3480 C   0  0  0  0  0  3  0  0  0  0  0  0
   32.4990   29.5740   44.0530 C   0  0  0  0  0  3  0  0  0  0  0  0
  2  1  1  0  0  0  0
  3 15  1  0  0  0  0
  3  2  2  0  0  0  0
  4  3  1  0  0  0  0
  5  4  2  0  0  0  0
  5  6  1  0  0  0  0
  6  7  2  0  0  0  0
  7  2  1  0  0  0  0
  7 10  1  0  0  0  0
  8  4  1  0  0  0  0
  9  6  1  0  0  0  0
 11 17  1  0  0  0  0
 12 18  1  0  0  0  0
 12 11  2  0  0  0  0
 13 12  1  0  0  0  0
 14 13  2  0  0  0  0
 14 15  1  0  0  0  0
 15 16  2  0  0  0  0
 16 11  1  0  0  0  0
 19 13  1  0  0  0  0
 20 21  1  0  0  0  0
 21 22  1  0  0  0  0
 22 23  2  0  0  0  0
 22  5  1  0  0  0  0
 23 24  1  0  0  0  0
 25 26  1  0  0  0  0
 25 23  1  0  0  0  0
 27 25  2  0  0  0  0
 28 27  1  0  0  0  0
 28 21  2  0  0  0  0
M  END
>  <minimizedAffinity>
-5.74978781

>  <minimizedRMSD>
0.23066619

$$$$
