
     RDKit          3D

 20 21  0  0  0  0  0  0  0  0999 V2000
   37.2944   30.1813   51.4160 C   0  0  0  0  0  0  0  0  0  0  0  0
   38.0751   30.6850   50.3419 C   0  0  0  0  0  0  0  0  0  0  0  0
   37.6764   30.3421   49.0505 C   0  0  0  0  0  0  0  0  0  0  0  0
   36.5723   29.5509   48.8772 N   0  0  0  0  0  0  0  0  0  0  0  0
   35.8557   29.0922   49.9397 C   0  0  0  0  0  0  0  0  0  0  0  0
   36.2201   29.4095   51.2026 N   0  0  0  0  0  0  0  0  0  0  0  0
   37.5711   30.4249   52.4346 H   0  0  0  0  0  0  0  0  0  0  0  0
   38.9182   31.2938   50.5768 H   0  0  0  0  0  0  0  0  0  0  0  0
   38.2411   30.7040   48.2227 H   0  0  0  0  0  0  0  0  0  0  0  0
   33.1824   30.7102   49.6778 Br  0  0  0  0  0  0  0  0  0  0  0  0
   33.4199   28.8140   49.6305 C   0  0  0  0  0  0  0  0  0  0  0  0
   34.6778   28.2486   49.7617 C   0  0  0  0  0  0  0  0  0  0  0  0
   34.7660   26.8734   49.7171 C   0  0  0  0  0  0  0  0  0  0  0  0
   35.7501   26.4721   49.8214 H   0  0  0  0  0  0  0  0  0  0  0  0
   33.6715   26.0428   49.5498 C   0  0  0  0  0  0  0  0  0  0  0  0
   33.8938   24.9768   49.5341 H   0  0  0  0  0  0  0  0  0  0  0  0
   32.4354   26.6424   49.4227 C   0  0  0  0  0  0  0  0  0  0  0  0
   32.3197   28.0226   49.4641 C   0  0  0  0  0  0  0  0  0  0  0  0
   31.6289   25.9091   49.2946 H   0  0  0  0  0  0  0  0  0  0  0  0
   31.3070   28.3706   49.3543 H   0  0  0  0  0  0  0  0  0  0  0  0
  2  1  2  0
  3  2  1  0
  4  3  2  0
  4  5  1  0
  5  6  2  0
  6  1  1  0
  1  7  1  0
  2  8  1  0
  3  9  1  0
 10 11  1  0
 11 12  2  0
 12 13  1  0
 13 14  1  0
 13 15  2  0
 15 16  1  0
 15 17  1  0
 17 18  2  0
 18 11  1  0
 17 19  1  0
 18 20  1  0
  5 12  1  0
M  ISO  5   7  14   8  14   9  14  14  15  16  16
M  END
>  <DihAtoms>  (1) 
3,4,11,10

>  <DihDeg>  (1) 
0.0005995715491315282

$$$$
