
 OpenBabel03272510173D

 28 30  0  0  0  0  0  0  0  0999 V2000
   37.2220   29.1090   50.6150 Br  0  0  0  0  0  0  0  0  0  0  0  0
   35.9440   29.2120   49.2070 C   0  0  0  0  0  0  0  0  0  0  0  0
   36.0020   30.2170   48.2640 C   0  0  0  0  0  0  0  0  0  0  0  0
   35.0440   30.2430   47.2580 C   0  0  0  0  0  0  0  0  0  0  0  0
   34.0380   29.2860   47.1850 C   0  0  0  0  0  0  0  0  0  0  0  0
   34.0020   28.3000   48.1340 C   0  0  0  0  0  0  0  0  0  0  0  0
   34.9500   28.2680   49.1330 C   0  0  0  0  0  0  0  0  0  0  0  0
   35.1450   31.0550   46.5500 H   0  0  0  0  0  0  0  0  0  0  0  0
   33.2070   27.5700   48.0500 H   0  0  0  0  0  0  0  0  0  0  0  0
   34.9030   27.4800   49.8730 H   0  0  0  0  0  0  0  0  0  0  0  0
   37.9330   33.0730   49.4560 C   0  0  0  0  0  0  0  0  0  0  0  0
   38.9900   33.1930   48.5050 C   0  0  0  0  0  0  0  0  0  0  0  0
   39.0080   32.2690   47.4600 C   0  0  0  0  0  0  0  0  0  0  0  0
   38.0340   31.3080   47.3920 N   0  0  0  0  0  0  0  0  0  0  0  0
   37.0540   31.2380   48.3190 C   0  0  0  0  0  0  0  0  0  0  0  0
   36.9990   32.1200   49.3550 N   0  0  0  0  0  0  0  0  0  0  0  0
   37.8650   33.7530   50.2800 H   0  0  0  0  0  0  0  0  0  0  0  0
   39.7160   33.9750   48.6270 H   0  0  0  0  0  0  0  0  0  0  0  0
   39.7950   32.3290   46.7190 H   0  0  0  0  0  0  0  0  0  0  0  0
   35.1180   28.5350   44.3290 Br  0  0  0  0  0  0  0  0  0  0  0  0
   33.3830   29.1770   44.7500 C   0  0  0  0  0  0  0  0  0  0  0  0
   33.1080   29.4490   46.0730 C   0  0  0  0  0  0  0  0  0  0  0  0
   31.8260   29.9210   46.3750 C   0  0  0  0  0  0  0  0  0  0  0  0
   31.4670   30.1760   47.3620 H   0  0  0  0  0  0  0  0  0  0  0  0
   30.8890   30.0990   45.3530 C   0  0  0  0  0  0  0  0  0  0  0  0
   29.8750   30.4660   45.5470 H   0  0  0  0  0  0  0  0  0  0  0  0
   31.1960   29.8170   44.0390 C   0  0  0  0  0  3  0  0  0  0  0  0
   32.4610   29.3530   43.7480 C   0  0  0  0  0  3  0  0  0  0  0  0
  2  1  1  0  0  0  0
  3 15  1  0  0  0  0
  3  2  2  0  0  0  0
  4  3  1  0  0  0  0
  5  4  2  0  0  0  0
  5  6  1  0  0  0  0
  6  7  2  0  0  0  0
  7  2  1  0  0  0  0
  7 10  1  0  0  0  0
  8  4  1  0  0  0  0
  9  6  1  0  0  0  0
 11 17  1  0  0  0  0
 12 18  1  0  0  0  0
 12 11  2  0  0  0  0
 13 12  1  0  0  0  0
 14 13  2  0  0  0  0
 14 15  1  0  0  0  0
 15 16  2  0  0  0  0
 16 11  1  0  0  0  0
 19 13  1  0  0  0  0
 20 21  1  0  0  0  0
 21 22  1  0  0  0  0
 22 23  2  0  0  0  0
 22  5  1  0  0  0  0
 23 24  1  0  0  0  0
 25 26  1  0  0  0  0
 25 23  1  0  0  0  0
 27 25  2  0  0  0  0
 28 27  1  0  0  0  0
 28 21  2  0  0  0  0
M  END
>  <minimizedAffinity>
-5.40402079

>  <minimizedRMSD>
0.499319732

$$$$
