
 OpenBabel03272502353D

 36 38  0  0  1  0  0  0  0  0999 V2000
   35.5500   29.9410   47.9300 C   0  0  0  0  0  3  0  0  0  0  0  0
   36.7020   30.4130   47.5760 C   0  0  0  0  0  3  0  0  0  0  0  0
   33.7370   29.6820   44.6860 C   0  0  0  0  0  0  0  0  0  0  0  0
   34.7090   29.9060   45.6410 C   0  0  0  0  0  0  0  0  0  0  0  0
   34.5020   29.6740   46.9760 C   0  0  0  0  0  0  0  0  0  0  0  0
   33.2830   29.2100   47.3140 N   0  0  0  0  0  0  0  0  0  0  0  0
   32.3290   28.9850   46.4170 C   0  0  0  0  0  0  0  0  0  0  0  0
   32.5570   29.2220   45.0950 N   0  0  0  0  0  0  0  0  0  0  0  0
   33.8680   29.8540   43.6270 H   0  0  0  0  0  0  0  0  0  0  0  0
   35.6170   30.2730   45.2030 H   0  0  0  0  0  0  0  0  0  0  0  0
   32.4330   26.0200   47.4200 Br  0  0  0  0  0  0  0  0  0  0  0  0
   30.9110   27.1830   47.2810 C   0  0  0  0  0  0  0  0  0  0  0  0
   31.0170   28.4810   46.8150 C   0  0  0  0  0  0  0  0  0  0  0  0
   29.8890   29.2810   46.7330 C   0  0  0  0  0  0  0  0  0  0  0  0
   29.9500   30.3130   46.3670 H   0  0  0  0  0  0  0  0  0  0  0  0
   28.6500   28.7660   47.1230 C   0  0  0  0  0  0  0  0  0  0  0  0
   27.7750   29.3840   47.0600 H   0  0  0  0  0  0  0  0  0  0  0  0
   28.5060   27.4670   47.5940 C   0  0  0  0  0  3  0  0  0  0  0  0
   29.6640   26.7090   47.6570 C   0  0  0  0  0  3  0  0  0  0  0  0
   37.7140   30.6660   48.6550 C   0  0  1  0  0  0  0  0  0  0  0  0
   38.3410   29.7720   48.7940 H   0  0  0  0  0  0  0  0  0  0  0  0
   38.5000   31.8660   48.3180 C   0  0  0  0  0  0  0  0  0  0  0  0
   38.5810   32.7980   49.3880 C   0  0  0  0  0  0  0  0  0  0  0  0
   39.2630   33.9870   49.3080 C   0  0  0  0  0  0  0  0  0  0  0  0
   39.9330   34.3550   48.1370 C   0  0  0  0  0  0  0  0  0  0  0  0
   39.8030   33.3920   47.1420 C   0  0  0  0  0  0  0  0  0  0  0  0
   39.1460   32.2240   47.1900 N   0  0  0  0  0  0  0  0  0  0  0  0
   38.1480   32.7430   50.4020 H   0  0  0  0  0  0  0  0  0  0  0  0
   39.3600   34.7340   50.0880 H   0  0  0  0  0  0  0  0  0  0  0  0
   40.5020   35.2380   47.9230 H   0  0  0  0  0  0  0  0  0  0  0  0
   40.2720   33.5350   46.1650 H   0  0  0  0  0  0  0  0  0  0  0  0
   36.7910   31.0760   50.1760 S   0  0  0  0  0  0  0  0  0  0  0  0
   36.8490   29.7260   51.3420 C   0  0  0  0  0  0  0  0  0  0  0  0
   37.5220   30.0440   52.5120 F   0  0  0  0  0  0  0  0  0  0  0  0
   35.5880   29.2220   51.5970 F   0  0  0  0  0  0  0  0  0  0  0  0
   37.5630   28.6860   50.7090 F   0  0  0  0  0  0  0  0  0  0  0  0
  2  1  2  0  0  0  0
  2 20  1  0  0  0  0
  3  8  2  0  0  0  0
  3  4  1  0  0  0  0
  4  5  2  0  0  0  0
  5  6  1  0  0  0  0
  5  1  1  0  0  0  0
  7 13  1  0  0  0  0
  7  6  2  0  0  0  0
  8  7  1  0  0  0  0
  9  3  1  0  0  0  0
 10  4  1  0  0  0  0
 12 11  1  0  0  0  0
 12 19  1  0  0  0  0
 13 12  2  0  0  0  0
 14 13  1  0  0  0  0
 14 16  2  0  0  0  0
 15 14  1  0  0  0  0
 16 18  1  0  0  0  0
 17 16  1  0  0  0  0
 18 19  2  0  0  0  0
 20 21  1  1  0  0  0
 20 32  1  0  0  0  0
 22 20  1  0  0  0  0
 22 23  1  0  0  0  0
 23 28  1  0  0  0  0
 24 23  2  0  0  0  0
 24 29  1  0  0  0  0
 25 24  1  0  0  0  0
 26 27  1  0  0  0  0
 26 25  2  0  0  0  0
 27 22  2  0  0  0  0
 30 25  1  0  0  0  0
 31 26  1  0  0  0  0
 32 33  1  0  0  0  0
 33 35  1  0  0  0  0
 33 34  1  0  0  0  0
 36 33  1  0  0  0  0
M  END
>  <minimizedAffinity>
-6.68258572

>  <minimizedRMSD>
0.807117164

$$$$
