
 OpenBabel03262520173D

 18 19  0  0  0  0  0  0  0  0999 V2000
   37.4590   30.5450   51.2900 C   0  0  0  0  0  0  0  0  0  0  0  0
   37.8890   30.9810   50.0300 C   0  0  0  0  0  0  0  0  0  0  0  0
   37.4590   30.3620   48.8580 C   0  0  0  0  0  0  0  0  0  0  0  0
   36.6070   29.3190   49.0260 N   0  0  0  0  0  0  0  0  0  0  0  0
   36.1970   28.9030   50.2370 C   0  0  0  0  0  0  0  0  0  0  0  0
   36.6170   29.5070   51.3550 N   0  0  0  0  0  0  0  0  0  0  0  0
   37.8010   31.0370   52.1920 H   0  0  0  0  0  0  0  0  0  0  0  0
   38.5640   31.8160   49.9910 H   0  0  0  0  0  0  0  0  0  0  0  0
   35.5120   28.0510   50.1780 H   0  0  0  0  0  0  0  0  0  0  0  0
   35.2010   30.0960   46.8440 Br  0  0  0  0  0  0  0  0  0  0  0  0
   36.9700   30.7390   46.5110 C   0  0  0  0  0  0  0  0  0  0  0  0
   37.8940   30.8010   47.5350 C   0  0  0  0  0  0  0  0  0  0  0  0
   39.1550   31.2720   47.2390 C   0  0  0  0  0  0  0  0  0  0  0  0
   39.8840   31.3270   48.0240 H   0  0  0  0  0  0  0  0  0  0  0  0
   39.4680   31.6650   45.9500 C   0  0  0  0  0  0  0  0  0  0  0  0
   40.4690   32.0360   45.7280 H   0  0  0  0  0  0  0  0  0  0  0  0
   38.5350   31.6020   44.9120 C   0  0  0  0  0  3  0  0  0  0  0  0
   37.2670   31.1270   45.2210 C   0  0  0  0  0  3  0  0  0  0  0  0
  1  6  1  0  0  0  0
  1  7  1  0  0  0  0
  2  1  2  0  0  0  0
  3  4  2  0  0  0  0
  3  2  1  0  0  0  0
  4  5  1  0  0  0  0
  5  6  2  0  0  0  0
  8  2  1  0  0  0  0
  9  5  1  0  0  0  0
 11 10  1  0  0  0  0
 11 12  1  0  0  0  0
 12  3  1  0  0  0  0
 13 12  2  0  0  0  0
 13 14  1  0  0  0  0
 15 13  1  0  0  0  0
 16 15  1  0  0  0  0
 17 18  1  0  0  0  0
 17 15  2  0  0  0  0
 18 11  2  0  0  0  0
M  END
>  <minimizedAffinity>
-4.53795385

>  <minimizedRMSD>
1.24358892

$$$$
