REMARK  Name = 
REMARK  2 active torsions:
REMARK  status: ('A' for Active; 'I' for Inactive)
REMARK    1  A    between atoms: C_2  and  C_7
REMARK    2  A    between atoms: C_11  and  C_21
REMARK                            x       y       z     vdW  Elec       q    Type
REMARK                         _______ _______ _______ _____ _____    ______ ____
ROOT
ATOM      1  C   UNL     1      38.072  31.986  49.023  0.00  0.00    +0.000 A 
ATOM      2  C   UNL     1      38.549  33.145  49.561  0.00  0.00    +0.000 A 
ATOM      3  C   UNL     1      39.389  34.040  48.938  0.00  0.00    +0.000 A 
ATOM      4  C   UNL     1      39.799  33.752  47.642  0.00  0.00    +0.000 A 
ATOM      5  C   UNL     1      39.318  32.587  47.106  0.00  0.00    +0.000 A 
ATOM      6  N   UNL     1      38.498  31.758  47.774  0.00  0.00    +0.000 NA
ATOM      7  H   UNL     1      38.255  33.422  50.587  0.00  0.00    +0.000 HD
ATOM      8  H   UNL     1      39.724  34.945  49.441  0.00  0.00    +0.000 HD
ATOM      9  H   UNL     1      40.457  34.442  47.140  0.00  0.00    +0.000 HD
ENDROOT
BRANCH   1  11
ATOM     10  C   UNL     1      37.513  30.434  50.926  0.00  0.00    +0.000 A 
ATOM     11  C   UNL     1      37.194  31.068  49.708  0.00  0.00    +0.000 A 
ATOM     12  C   UNL     1      35.966  30.780  49.143  0.00  0.00    +0.000 A 
ATOM     13  N   UNL     1      35.128  29.908  49.781  0.00  0.00    +0.000 NA
ATOM     14  C   UNL     1      35.477  29.328  50.942  0.00  0.00    +0.000 A 
ATOM     15  N   UNL     1      36.671  29.582  51.531  0.00  0.00    +0.000 NA
ATOM     16  H   UNL     1      38.495  30.680  51.354  0.00  0.00    +0.000 HD
ATOM     17  H   UNL     1      35.684  31.246  48.210  0.00  0.00    +0.000 HD
ATOM     18  H   UNL     1      34.768  28.644  51.399  0.00  0.00    +0.000 HD
ENDBRANCH   1  11
BRANCH   5  21
ATOM     19 BR   UNL     1      37.388  33.659  44.948  0.00  0.00    +0.000 Br
ATOM     20  C   UNL     1      38.952  32.582  44.646  0.00  0.00    +0.000 A 
ATOM     21  C   UNL     1      39.692  32.199  45.752  0.00  0.00    +0.000 A 
ATOM     22  C   UNL     1      40.787  31.433  45.415  0.00  0.00    +0.000 A 
ATOM     23  H   UNL     1      41.435  31.080  46.206  0.00  0.00    +0.000 HD
ATOM     24  C   UNL     1      41.113  31.084  44.129  0.00  0.00    +0.000 A 
ATOM     25  H   UNL     1      41.998  30.474  43.947  0.00  0.00    +0.000 HD
ATOM     26  C   UNL     1      40.338  31.497  43.087  0.00  0.00    +0.000 A 
ATOM     27  C   UNL     1      39.233  32.261  43.334  0.00  0.00    +0.000 A 
ENDBRANCH   5  21
TORSDOF 2
