
 OpenBabel03262523473D

 38 41  0  0  0  0  0  0  0  0999 V2000
   38.6750   32.9430   49.7860 Cl  0  0  0  0  0  0  0  0  0  0  0  0
   38.6420   32.2730   48.1700 C   0  0  0  0  0  0  0  0  0  0  0  0
   37.8900   31.1410   47.8890 C   0  0  0  0  0  0  0  0  0  0  0  0
   37.9210   30.6840   46.5980 C   0  0  0  0  0  0  0  0  0  0  0  0
   38.6460   31.2840   45.5980 C   0  0  0  0  0  0  0  0  0  0  0  0
   39.3890   32.4170   45.9160 C   0  0  0  0  0  0  0  0  0  0  0  0
   40.2920   33.1430   44.6150 Cl  0  0  0  0  0  0  0  0  0  0  0  0
   39.3920   32.9180   47.1980 C   0  0  0  0  0  0  0  0  0  0  0  0
   37.3220   29.7910   46.3960 H   0  0  0  0  0  0  0  0  0  0  0  0
   39.9790   33.7910   47.3900 H   0  0  0  0  0  0  0  0  0  0  0  0
   36.8940   32.5910   43.4920 Cl  0  0  0  0  0  0  0  0  0  0  0  0
   37.8330   31.1200   43.1990 C   0  0  0  0  0  0  0  0  0  0  0  0
   38.5720   30.6700   44.2740 C   0  0  0  0  0  0  0  0  0  0  0  0
   39.3440   29.5160   44.1340 C   0  0  0  0  0  0  0  0  0  0  0  0
   39.3680   28.8270   42.9250 C   0  0  0  0  0  0  0  0  0  0  0  0
   38.6210   29.3050   41.8810 C   0  0  0  0  0  0  0  0  0  0  0  0
   37.8530   30.4430   42.0030 C   0  0  0  0  0  0  0  0  0  0  0  0
   39.9430   29.1170   44.9430 H   0  0  0  0  0  0  0  0  0  0  0  0
   39.9620   27.9300   42.8020 H   0  0  0  0  0  0  0  0  0  0  0  0
   38.5800   28.8340   40.9080 H   0  0  0  0  0  0  0  0  0  0  0  0
   34.8320   29.5930   41.8140 Br  0  0  0  0  0  0  0  0  0  0  0  0
   35.6810   30.8590   40.6970 C   0  0  0  0  0  0  0  0  0  0  0  0
   37.0140   31.0600   40.9780 C   0  0  0  0  0  0  0  0  0  0  0  0
   37.7590   31.9700   40.2270 C   0  0  0  0  0  0  0  0  0  0  0  0
   38.8060   32.2190   40.3450 H   0  0  0  0  0  0  0  0  0  0  0  0
   37.1680   32.6850   39.1850 C   0  0  0  0  0  0  0  0  0  0  0  0
   37.6960   33.4030   38.5700 H   0  0  0  0  0  0  0  0  0  0  0  0
   35.8330   32.4730   38.9150 C   0  0  0  0  0  0  0  0  0  0  0  0
   35.0960   31.5650   39.6680 C   0  0  0  0  0  0  0  0  0  0  0  0
   37.0300   29.3640   51.1140 C   0  0  0  0  0  0  0  0  0  0  0  0
   37.7780   29.9220   50.0710 C   0  0  0  0  0  0  0  0  0  0  0  0
   37.1390   30.5470   48.9980 C   0  0  0  0  0  0  0  0  0  0  0  0
   35.7650   30.5860   49.0200 N   0  0  0  0  0  0  0  0  0  0  0  0
   35.0950   30.0340   50.0490 C   0  0  0  0  0  0  0  0  0  0  0  0
   35.6900   29.4400   51.0690 N   0  0  0  0  0  0  0  0  0  0  0  0
   37.5880   28.8950   51.9140 H   0  0  0  0  0  0  0  0  0  0  0  0
   38.8610   29.8870   50.0600 H   0  0  0  0  0  0  0  0  0  0  0  0
   34.0100   30.1450   49.9240 H   0  0  0  0  0  0  0  0  0  0  0  0
  2  1  1  0  0  0  0
  3  2  1  0  0  0  0
  3 32  1  0  0  0  0
  4  3  2  0  0  0  0
  5  6  2  0  0  0  0
  5  4  1  0  0  0  0
  6  8  1  0  0  0  0
  7  6  1  0  0  0  0
  8 10  1  0  0  0  0
  8  2  2  0  0  0  0
  9  4  1  0  0  0  0
 12 11  1  0  0  0  0
 12 13  1  0  0  0  0
 13  5  1  0  0  0  0
 14 13  2  0  0  0  0
 14 18  1  0  0  0  0
 15 14  1  0  0  0  0
 16 17  1  0  0  0  0
 16 15  2  0  0  0  0
 17 12  2  0  0  0  0
 19 15  1  0  0  0  0
 20 16  1  0  0  0  0
 22 23  1  0  0  0  0
 22 21  1  0  0  0  0
 23 17  1  0  0  0  0
 24 25  1  0  0  0  0
 24 23  2  0  0  0  0
 26 24  1  0  0  0  0
 27 26  1  0  0  0  0
 28 26  2  0  0  0  0
 28 29  1  0  0  0  0
 29 22  2  0  0  0  0
 30 36  1  0  0  0  0
 31 30  2  0  0  0  0
 32 33  2  0  0  0  0
 32 31  1  0  0  0  0
 33 34  1  0  0  0  0
 34 35  2  0  0  0  0
 35 30  1  0  0  0  0
 37 31  1  0  0  0  0
 38 34  1  0  0  0  0
M  END
>  <minimizedAffinity>
-6.47160482

>  <minimizedRMSD>
0.583679199

$$$$
