
     RDKit          3D

 35 37  0  0  0  0  0  0  0  0999 V2000
   33.7165   28.6166   48.7039 C   0  0  0  0  0  0  0  0  0  0  0  0
   32.8168   27.4693   48.3477 C   0  0  0  0  0  0  0  0  0  0  0  0
   31.3791   27.8656   48.3333 C   0  0  0  0  0  0  0  0  0  0  0  0
   30.6847   27.7419   49.5300 C   0  0  0  0  0  0  0  0  0  0  0  0
   29.3591   28.0712   49.6663 C   0  0  0  0  0  0  0  0  0  0  0  0
   28.7256   28.5277   48.5952 N   0  0  0  0  0  0  0  0  0  0  0  0
   29.3940   28.6534   47.4178 C   0  0  0  0  0  0  0  0  0  0  0  0
   30.6988   28.3341   47.2649 N   0  0  0  0  0  0  0  0  0  0  0  0
   34.6063   28.2310   49.7475 O   0  0  0  0  0  0  0  0  0  0  0  0
   37.2394   30.1699   51.2781 C   0  0  0  0  0  0  0  0  0  0  0  0
   37.9097   30.6092   50.1322 C   0  0  0  0  0  0  0  0  0  0  0  0
   37.4381   30.2306   48.8973 C   0  0  0  0  0  0  0  0  0  0  0  0
   36.3209   29.4317   48.9183 N   0  0  0  0  0  0  0  0  0  0  0  0
   35.6928   29.0194   50.0085 C   0  0  0  0  0  0  0  0  0  0  0  0
   36.1683   29.4012   51.2019 N   0  0  0  0  0  0  0  0  0  0  0  0
   34.2039   29.0925   47.8561 H   0  0  0  0  0  0  0  0  0  0  0  0
   33.0592   29.4101   49.1626 H   0  0  0  0  0  0  0  0  0  0  0  0
   33.0647   27.1865   47.2892 H   0  0  0  0  0  0  0  0  0  0  0  0
   32.9826   26.5595   48.9612 H   0  0  0  0  0  0  0  0  0  0  0  0
   31.2093   27.3627   50.4212 H   0  0  0  0  0  0  0  0  0  0  0  0
   28.8900   27.9507   50.6148 H   0  0  0  0  0  0  0  0  0  0  0  0
   28.8250   29.0308   46.5793 H   0  0  0  0  0  0  0  0  0  0  0  0
   37.6488   30.4963   52.2381 H   0  0  0  0  0  0  0  0  0  0  0  0
   38.7608   31.1994   50.2091 H   0  0  0  0  0  0  0  0  0  0  0  0
   35.6821   29.7496   46.1959 Br  0  0  0  0  0  0  0  0  0  0  0  0
   37.4251   30.4275   46.3521 C   0  0  0  0  0  0  0  0  0  0  0  0
   37.9807   30.5437   47.5865 C   0  0  0  0  0  0  0  0  0  0  0  0
   39.2861   31.0222   47.5435 C   0  0  0  0  0  0  0  0  0  0  0  0
   39.8935   31.1797   48.4500 H   0  0  0  0  0  0  0  0  0  0  0  0
   39.9512   31.3467   46.3834 C   0  0  0  0  0  0  0  0  0  0  0  0
   40.9538   31.7117   46.3958 H   0  0  0  0  0  0  0  0  0  0  0  0
   39.3258   31.2050   45.1681 C   0  0  0  0  0  0  0  0  0  0  0  0
   38.0499   30.7394   45.1714 C   0  0  0  0  0  0  0  0  0  0  0  0
   39.8638   31.4651   44.2718 H   0  0  0  0  0  0  0  0  0  0  0  0
   37.5678   30.6317   44.2132 H   0  0  0  0  0  0  0  0  0  0  0  0
  1  9  1  0
  2  1  1  0
  3  2  1  0
  3  4  2  0
  4  5  1  0
  6  5  2  0
  7  6  1  0
  8  7  2  0
  8  3  1  0
  9 14  1  0
 11 10  2  0
 12 11  1  0
 13 12  2  0
 13 14  1  0
 14 15  2  0
 15 10  1  0
  1 16  1  0
  1 17  1  0
  2 18  1  0
  2 19  1  0
  4 20  1  0
  5 21  1  0
  7 22  1  0
 10 23  1  0
 11 24  1  0
 25 26  1  0
 26 27  2  0
 27 28  1  0
 28 29  1  0
 28 30  2  0
 30 31  1  0
 30 32  1  0
 32 33  2  0
 33 26  1  0
 32 34  1  0
 33 35  1  0
 12 27  1  0
M  ISO  8  16   8  17   8  18   8  19   8  20  14  21  14  22  14  23  14
M  ISO  3  24  14  29  15  31  16
M  END
>  <DihAtoms>  (1) 
10,11,26,25

>  <DihDeg>  (1) 
-15.222394030398414

$$$$
