
 OpenBabel03272510173D

 28 30  0  0  0  0  0  0  0  0999 V2000
   37.3190   29.3550   51.0980 Br  0  0  0  0  0  0  0  0  0  0  0  0
   35.9840   29.3070   49.7400 C   0  0  0  0  0  0  0  0  0  0  0  0
   36.0040   30.2000   48.6900 C   0  0  0  0  0  0  0  0  0  0  0  0
   35.0050   30.1180   47.7270 C   0  0  0  0  0  0  0  0  0  0  0  0
   33.9970   29.1640   47.8030 C   0  0  0  0  0  0  0  0  0  0  0  0
   34.0000   28.2890   48.8560 C   0  0  0  0  0  0  0  0  0  0  0  0
   34.9880   28.3650   49.8130 C   0  0  0  0  0  0  0  0  0  0  0  0
   35.0770   30.8460   46.9300 H   0  0  0  0  0  0  0  0  0  0  0  0
   33.2020   27.5590   48.8870 H   0  0  0  0  0  0  0  0  0  0  0  0
   34.9710   27.6650   50.6370 H   0  0  0  0  0  0  0  0  0  0  0  0
   37.9570   33.1850   49.4490 C   0  0  0  0  0  0  0  0  0  0  0  0
   38.9970   33.1710   48.4730 C   0  0  0  0  0  0  0  0  0  0  0  0
   38.9980   32.1150   47.5640 C   0  0  0  0  0  0  0  0  0  0  0  0
   38.0220   31.1560   47.6440 N   0  0  0  0  0  0  0  0  0  0  0  0
   37.0580   31.2160   48.5880 C   0  0  0  0  0  0  0  0  0  0  0  0
   37.0210   32.2300   49.4950 N   0  0  0  0  0  0  0  0  0  0  0  0
   37.9040   33.9710   50.1740 H   0  0  0  0  0  0  0  0  0  0  0  0
   39.7270   33.9610   48.4750 H   0  0  0  0  0  0  0  0  0  0  0  0
   39.7720   32.0710   46.8080 H   0  0  0  0  0  0  0  0  0  0  0  0
   31.3040   27.6060   48.2720 Br  0  0  0  0  0  0  0  0  0  0  0  0
   31.7870   28.5930   46.7250 C   0  0  0  0  0  0  0  0  0  0  0  0
   33.0220   29.2060   46.7190 C   0  0  0  0  0  0  0  0  0  0  0  0
   33.3690   29.9310   45.5740 C   0  0  0  0  0  0  0  0  0  0  0  0
   34.2990   30.4620   45.4260 H   0  0  0  0  0  0  0  0  0  0  0  0
   32.4780   30.0100   44.5010 C   0  0  0  0  0  0  0  0  0  0  0  0
   32.7110   30.5660   43.5870 H   0  0  0  0  0  0  0  0  0  0  0  0
   31.2500   29.3850   44.5370 C   0  0  0  0  0  3  0  0  0  0  0  0
   30.9130   28.6710   45.6680 C   0  0  0  0  0  3  0  0  0  0  0  0
  2  7  1  0  0  0  0
  2  1  1  0  0  0  0
  3  2  2  0  0  0  0
  4  5  2  0  0  0  0
  4  3  1  0  0  0  0
  5  6  1  0  0  0  0
  6  9  1  0  0  0  0
  6  7  2  0  0  0  0
  7 10  1  0  0  0  0
  8  4  1  0  0  0  0
 11 16  1  0  0  0  0
 11 17  1  0  0  0  0
 12 18  1  0  0  0  0
 12 11  2  0  0  0  0
 13 14  2  0  0  0  0
 13 12  1  0  0  0  0
 14 15  1  0  0  0  0
 15  3  1  0  0  0  0
 15 16  2  0  0  0  0
 19 13  1  0  0  0  0
 21 20  1  0  0  0  0
 22 21  1  0  0  0  0
 22  5  1  0  0  0  0
 23 22  2  0  0  0  0
 24 23  1  0  0  0  0
 25 27  2  0  0  0  0
 25 23  1  0  0  0  0
 26 25  1  0  0  0  0
 27 28  1  0  0  0  0
 28 21  2  0  0  0  0
M  END
>  <minimizedAffinity>
-6.17247581

>  <minimizedRMSD>
0.42794624

$$$$
