
 OpenBabel03262520173D

 18 19  0  0  0  0  0  0  0  0999 V2000
   37.0640   29.5400   50.7140 C   0  0  0  0  0  0  0  0  0  0  0  0
   37.9280   30.0180   49.7200 C   0  0  0  0  0  0  0  0  0  0  0  0
   37.4480   30.6830   48.5940 C   0  0  0  0  0  0  0  0  0  0  0  0
   36.1000   30.8310   48.5330 N   0  0  0  0  0  0  0  0  0  0  0  0
   35.2740   30.3720   49.4890 C   0  0  0  0  0  0  0  0  0  0  0  0
   35.7480   29.7340   50.5660 N   0  0  0  0  0  0  0  0  0  0  0  0
   37.4520   29.0260   51.5840 H   0  0  0  0  0  0  0  0  0  0  0  0
   38.9820   29.8560   49.8510 H   0  0  0  0  0  0  0  0  0  0  0  0
   34.2210   30.5820   49.2710 H   0  0  0  0  0  0  0  0  0  0  0  0
   38.4860   33.4470   49.3110 Br  0  0  0  0  0  0  0  0  0  0  0  0
   38.8830   32.4410   47.7330 C   0  0  0  0  0  0  0  0  0  0  0  0
   38.3310   31.1880   47.5470 C   0  0  0  0  0  0  0  0  0  0  0  0
   38.6510   30.5080   46.3920 C   0  0  0  0  0  0  0  0  0  0  0  0
   38.2310   29.5340   46.2340 H   0  0  0  0  0  0  0  0  0  0  0  0
   39.5010   31.0760   45.4600 C   0  0  0  0  0  0  0  0  0  0  0  0
   39.7470   30.5280   44.5520 H   0  0  0  0  0  0  0  0  0  0  0  0
   40.0600   32.3430   45.6470 C   0  0  0  0  0  3  0  0  0  0  0  0
   39.7310   33.0210   46.8130 C   0  0  0  0  0  3  0  0  0  0  0  0
  1  7  1  0  0  0  0
  2  8  1  0  0  0  0
  2  1  2  0  0  0  0
  3  2  1  0  0  0  0
  4  3  2  0  0  0  0
  4  5  1  0  0  0  0
  5  6  2  0  0  0  0
  6  1  1  0  0  0  0
  9  5  1  0  0  0  0
 11 10  1  0  0  0  0
 12 11  1  0  0  0  0
 12  3  1  0  0  0  0
 13 12  2  0  0  0  0
 14 13  1  0  0  0  0
 15 17  2  0  0  0  0
 15 13  1  0  0  0  0
 16 15  1  0  0  0  0
 17 18  1  0  0  0  0
 18 11  2  0  0  0  0
M  END
>  <minimizedAffinity>
-5.19765472

>  <minimizedRMSD>
1.00948596

$$$$
