
 OpenBabel03272502353D

 36 38  0  0  1  0  0  0  0  0999 V2000
   35.6200   29.9550   47.8740 C   0  0  0  0  0  3  0  0  0  0  0  0
   36.7970   30.3870   47.5480 C   0  0  0  0  0  3  0  0  0  0  0  0
   33.9990   29.3910   44.5670 C   0  0  0  0  0  0  0  0  0  0  0  0
   34.9280   29.6530   45.5550 C   0  0  0  0  0  0  0  0  0  0  0  0
   34.6100   29.6600   46.8880 C   0  0  0  0  0  0  0  0  0  0  0  0
   33.3250   29.3920   47.1910 N   0  0  0  0  0  0  0  0  0  0  0  0
   32.4090   29.1350   46.2620 C   0  0  0  0  0  0  0  0  0  0  0  0
   32.7480   29.1350   44.9430 N   0  0  0  0  0  0  0  0  0  0  0  0
   34.2170   29.3790   43.5090 H   0  0  0  0  0  0  0  0  0  0  0  0
   35.9000   29.8440   45.1420 H   0  0  0  0  0  0  0  0  0  0  0  0
   30.3770   31.0510   44.8470 Br  0  0  0  0  0  0  0  0  0  0  0  0
   30.0140   29.6170   46.0730 C   0  0  0  0  0  0  0  0  0  0  0  0
   31.0240   28.8490   46.6230 C   0  0  0  0  0  0  0  0  0  0  0  0
   30.7120   27.8240   47.5040 C   0  0  0  0  0  0  0  0  0  0  0  0
   31.4960   27.2020   47.9530 H   0  0  0  0  0  0  0  0  0  0  0  0
   29.3740   27.5780   47.8270 C   0  0  0  0  0  0  0  0  0  0  0  0
   29.1310   26.7850   48.5070 H   0  0  0  0  0  0  0  0  0  0  0  0
   28.3360   28.3290   47.2920 C   0  0  0  0  0  3  0  0  0  0  0  0
   28.7010   29.3400   46.4180 C   0  0  0  0  0  3  0  0  0  0  0  0
   37.7650   30.6770   48.6590 C   0  0  1  0  0  0  0  0  0  0  0  0
   38.4080   29.8000   48.8290 H   0  0  0  0  0  0  0  0  0  0  0  0
   38.5320   31.8910   48.3340 C   0  0  0  0  0  0  0  0  0  0  0  0
   38.6040   32.8110   49.4160 C   0  0  0  0  0  0  0  0  0  0  0  0
   39.2680   34.0110   49.3490 C   0  0  0  0  0  0  0  0  0  0  0  0
   39.9290   34.4030   48.1810 C   0  0  0  0  0  0  0  0  0  0  0  0
   39.8110   33.4510   47.1750 C   0  0  0  0  0  0  0  0  0  0  0  0
   39.1700   32.2730   47.2090 N   0  0  0  0  0  0  0  0  0  0  0  0
   38.1750   32.7370   50.4310 H   0  0  0  0  0  0  0  0  0  0  0  0
   39.3560   34.7490   50.1380 H   0  0  0  0  0  0  0  0  0  0  0  0
   40.4850   35.2970   47.9760 H   0  0  0  0  0  0  0  0  0  0  0  0
   40.2750   33.6120   46.1980 H   0  0  0  0  0  0  0  0  0  0  0  0
   36.7810   31.0800   50.1420 S   0  0  0  0  0  0  0  0  0  0  0  0
   36.8310   29.7440   51.3250 C   0  0  0  0  0  0  0  0  0  0  0  0
   37.4930   30.0770   52.4970 F   0  0  0  0  0  0  0  0  0  0  0  0
   35.5680   29.2410   51.5750 F   0  0  0  0  0  0  0  0  0  0  0  0
   37.5520   28.6980   50.7100 F   0  0  0  0  0  0  0  0  0  0  0  0
  2  1  2  0  0  0  0
  2 20  1  0  0  0  0
  3  8  2  0  0  0  0
  3  4  1  0  0  0  0
  4  5  2  0  0  0  0
  5  6  1  0  0  0  0
  5  1  1  0  0  0  0
  7 13  1  0  0  0  0
  7  6  2  0  0  0  0
  8  7  1  0  0  0  0
  9  3  1  0  0  0  0
 10  4  1  0  0  0  0
 11 12  1  0  0  0  0
 12 19  2  0  0  0  0
 12 13  1  0  0  0  0
 13 14  2  0  0  0  0
 14 16  1  0  0  0  0
 14 15  1  0  0  0  0
 16 17  1  0  0  0  0
 18 16  2  0  0  0  0
 19 18  1  0  0  0  0
 20 21  1  1  0  0  0
 20 32  1  0  0  0  0
 22 20  1  0  0  0  0
 22 23  1  0  0  0  0
 23 28  1  0  0  0  0
 24 23  2  0  0  0  0
 24 29  1  0  0  0  0
 25 24  1  0  0  0  0
 26 27  1  0  0  0  0
 26 25  2  0  0  0  0
 27 22  2  0  0  0  0
 30 25  1  0  0  0  0
 31 26  1  0  0  0  0
 32 33  1  0  0  0  0
 33 35  1  0  0  0  0
 33 34  1  0  0  0  0
 36 33  1  0  0  0  0
M  END
>  <minimizedAffinity>
-6.54765129

>  <minimizedRMSD>
0.483899504

$$$$
