REMARK  Name = 
REMARK  1 active torsions:
REMARK  status: ('A' for Active; 'I' for Inactive)
REMARK    1  A    between atoms: C_5  and  C_12
REMARK                            x       y       z     vdW  Elec       q    Type
REMARK                         _______ _______ _______ _____ _____    ______ ____
ROOT
ATOM      1  C   UNL     1      37.294  30.181  51.416  0.00  0.00    +0.000 A 
ATOM      2  C   UNL     1      38.075  30.685  50.342  0.00  0.00    +0.000 A 
ATOM      3  C   UNL     1      37.676  30.342  49.050  0.00  0.00    +0.000 A 
ATOM      4  N   UNL     1      36.572  29.551  48.877  0.00  0.00    +0.000 NA
ATOM      5  C   UNL     1      35.856  29.092  49.940  0.00  0.00    +0.000 A 
ATOM      6  N   UNL     1      36.220  29.410  51.203  0.00  0.00    +0.000 NA
ATOM      7  H   UNL     1      37.571  30.425  52.435  0.00  0.00    +0.000 HD
ATOM      8  H   UNL     1      38.918  31.294  50.577  0.00  0.00    +0.000 HD
ATOM      9  H   UNL     1      38.241  30.704  48.223  0.00  0.00    +0.000 HD
ENDROOT
BRANCH   5  12
ATOM     10 BR   UNL     1      33.149  30.601  50.419  0.00  0.00    +0.000 Br
ATOM     11  C   UNL     1      33.406  28.769  49.938  0.00  0.00    +0.000 A 
ATOM     12  C   UNL     1      34.678  28.249  49.762  0.00  0.00    +0.000 A 
ATOM     13  C   UNL     1      34.780  26.918  49.415  0.00  0.00    +0.000 A 
ATOM     14  H   UNL     1      35.774  26.551  49.287  0.00  0.00    +0.000 HD
ATOM     15  C   UNL     1      33.686  26.089  49.238  0.00  0.00    +0.000 A 
ATOM     16  H   UNL     1      33.920  25.061  48.965  0.00  0.00    +0.000 HD
ATOM     17  C   UNL     1      32.435  26.642  49.423  0.00  0.00    +0.000 A 
ATOM     18  C   UNL     1      32.306  27.977  49.771  0.00  0.00    +0.000 A 
ENDBRANCH   5  12
TORSDOF 1
