
     RDKit          3D

 20 21  0  0  0  0  0  0  0  0999 V2000
   37.2959   30.1831   51.4314 C   0  0  0  0  0  0  0  0  0  0  0  0
   38.0345   30.6560   50.3385 C   0  0  0  0  0  0  0  0  0  0  0  0
   37.6799   30.3436   49.0278 C   0  0  0  0  0  0  0  0  0  0  0  0
   36.5817   29.5583   48.8914 N   0  0  0  0  0  0  0  0  0  0  0  0
   35.8749   29.1060   49.9424 C   0  0  0  0  0  0  0  0  0  0  0  0
   36.2270   29.4140   51.1964 N   0  0  0  0  0  0  0  0  0  0  0  0
   37.5841   30.4346   52.4435 H   0  0  0  0  0  0  0  0  0  0  0  0
   38.8908   31.2727   50.5413 H   0  0  0  0  0  0  0  0  0  0  0  0
   35.0235   28.4880   49.6398 H   0  0  0  0  0  0  0  0  0  0  0  0
   38.9656   33.0269   49.6392 Br  0  0  0  0  0  0  0  0  0  0  0  0
   39.0798   32.0410   48.0047 C   0  0  0  0  0  0  0  0  0  0  0  0
   38.4361   30.8263   47.8760 C   0  0  0  0  0  0  0  0  0  0  0  0
   38.5521   30.1587   46.6760 C   0  0  0  0  0  0  0  0  0  0  0  0
   38.0574   29.2132   46.5606 H   0  0  0  0  0  0  0  0  0  0  0  0
   39.2936   30.7023   45.6436 C   0  0  0  0  0  0  0  0  0  0  0  0
   39.3784   30.1657   44.6994 H   0  0  0  0  0  0  0  0  0  0  0  0
   39.9463   31.9319   45.7713 C   0  0  0  0  0  0  0  0  0  0  0  0
   39.8235   32.5970   46.9842 C   0  0  0  0  0  0  0  0  0  0  0  0
   40.5180   32.3226   44.9363 H   0  0  0  0  0  0  0  0  0  0  0  0
   40.3224   33.5543   47.1060 H   0  0  0  0  0  0  0  0  0  0  0  0
  2  1  2  0
  3  2  1  0
  4  3  2  0
  4  5  1  0
  5  6  2  0
  6  1  1  0
  1  7  1  0
  2  8  1  0
  5  9  1  0
 10 11  1  0
 11 12  2  0
 12 13  1  0
 13 14  1  0
 13 15  2  0
 15 16  1  0
 15 17  1  0
 17 18  2  0
 18 11  1  0
 17 19  1  0
 18 20  1  0
  3 12  1  0
M  ISO  5   7  14   8  14   9  14  14  15  16  16
M  END
>  <DihAtoms>  (1) 
1,2,11,10

>  <DihDeg>  (1) 
-179.98847856025327

$$$$
