
 OpenBabel03262520173D

 18 19  0  0  0  0  0  0  0  0999 V2000
   37.0000   29.5130   50.6760 C   0  0  0  0  0  0  0  0  0  0  0  0
   37.8800   30.0010   49.7010 C   0  0  0  0  0  0  0  0  0  0  0  0
   37.4170   30.6600   48.5640 C   0  0  0  0  0  0  0  0  0  0  0  0
   36.0690   30.7900   48.4720 N   0  0  0  0  0  0  0  0  0  0  0  0
   35.2270   30.3200   49.4100 C   0  0  0  0  0  0  0  0  0  0  0  0
   35.6860   29.6900   50.4980 N   0  0  0  0  0  0  0  0  0  0  0  0
   37.3750   29.0040   51.5550 H   0  0  0  0  0  0  0  0  0  0  0  0
   38.9330   29.8530   49.8560 H   0  0  0  0  0  0  0  0  0  0  0  0
   34.1780   30.5170   49.1670 H   0  0  0  0  0  0  0  0  0  0  0  0
   38.4170   33.4280   49.3100 Br  0  0  0  0  0  0  0  0  0  0  0  0
   38.8540   32.4310   47.7390 C   0  0  0  0  0  0  0  0  0  0  0  0
   38.3170   31.1750   47.5370 C   0  0  0  0  0  0  0  0  0  0  0  0
   38.6660   30.5010   46.3860 C   0  0  0  0  0  0  0  0  0  0  0  0
   38.2570   29.5240   46.2150 H   0  0  0  0  0  0  0  0  0  0  0  0
   39.5290   31.0790   45.4740 C   0  0  0  0  0  0  0  0  0  0  0  0
   39.7970   30.5370   44.5670 H   0  0  0  0  0  0  0  0  0  0  0  0
   40.0740   32.3500   45.6750 C   0  0  0  0  0  0  0  0  0  0  0  0
   39.7160   33.0220   46.8370 C   0  0  0  0  0  0  0  0  0  0  0  0
  1  7  1  0  0  0  0
  2  8  1  0  0  0  0
  2  1  2  0  0  0  0
  3  2  1  0  0  0  0
  4  3  2  0  0  0  0
  4  5  1  0  0  0  0
  5  6  2  0  0  0  0
  6  1  1  0  0  0  0
  9  5  1  0  0  0  0
 11 10  1  0  0  0  0
 12 11  1  0  0  0  0
 12  3  1  0  0  0  0
 13 12  2  0  0  0  0
 14 13  1  0  0  0  0
 15 17  2  0  0  0  0
 15 13  1  0  0  0  0
 16 15  1  0  0  0  0
 17 18  1  0  0  0  0
 18 11  2  0  0  0  0
M  END
>  <minimizedAffinity>
-5.20317364

>  <minimizedRMSD>
0.81908083

$$$$
