
 OpenBabel03272510213D

 36 39  0  0  0  0  0  0  0  0999 V2000
   37.2280   29.3290   51.0810 Br  0  0  0  0  0  0  0  0  0  0  0  0
   35.9250   29.3240   49.6890 C   0  0  0  0  0  0  0  0  0  0  0  0
   35.9770   30.2670   48.6540 C   0  0  0  0  0  0  0  0  0  0  0  0
   35.0090   30.2030   47.6880 C   0  0  0  0  0  0  0  0  0  0  0  0
   33.9910   29.2570   47.6870 C   0  0  0  0  0  0  0  0  0  0  0  0
   33.9750   28.3590   48.7070 C   0  0  0  0  0  0  0  0  0  0  0  0
   34.9350   28.4000   49.6930 C   0  0  0  0  0  0  0  0  0  0  0  0
   35.0310   30.9230   46.8810 H   0  0  0  0  0  0  0  0  0  0  0  0
   33.1900   27.6100   48.7300 H   0  0  0  0  0  0  0  0  0  0  0  0
   34.8530   27.6500   50.4700 H   0  0  0  0  0  0  0  0  0  0  0  0
   37.9090   33.2240   49.5810 C   0  0  0  0  0  0  0  0  0  0  0  0
   38.9680   33.2290   48.6360 C   0  0  0  0  0  0  0  0  0  0  0  0
   38.9980   32.2210   47.7010 C   0  0  0  0  0  0  0  0  0  0  0  0
   38.0200   31.2500   47.7060 N   0  0  0  0  0  0  0  0  0  0  0  0
   37.0270   31.2750   48.6190 C   0  0  0  0  0  0  0  0  0  0  0  0
   36.9770   32.2690   49.5590 N   0  0  0  0  0  0  0  0  0  0  0  0
   37.8440   33.9920   50.3290 H   0  0  0  0  0  0  0  0  0  0  0  0
   39.7140   34.0110   48.6700 H   0  0  0  0  0  0  0  0  0  0  0  0
   39.7970   32.1770   46.9450 H   0  0  0  0  0  0  0  0  0  0  0  0
   32.9690   29.1960   46.6600 C   0  0  0  0  0  0  0  0  0  0  0  0
   32.2250   28.0860   46.3560 C   0  0  0  0  0  0  0  0  0  0  0  0
   31.2580   28.0400   45.3770 C   0  0  0  0  0  0  0  0  0  0  0  0
   31.0210   29.1420   44.6750 N   0  0  0  0  0  0  0  0  0  0  0  0
   31.7330   30.2650   44.9420 C   0  0  0  0  0  0  0  0  0  0  0  0
   32.6710   30.2680   45.9080 N   0  0  0  0  0  0  0  0  0  0  0  0
   32.4110   27.1650   46.9310 H   0  0  0  0  0  0  0  0  0  0  0  0
   30.7010   27.1380   45.1790 H   0  0  0  0  0  0  0  0  0  0  0  0
   28.7860   31.0710   44.9560 Br  0  0  0  0  0  0  0  0  0  0  0  0
   30.2010   31.9860   44.0990 C   0  0  0  0  0  0  0  0  0  0  0  0
   31.4910   31.5040   44.1770 C   0  0  0  0  0  0  0  0  0  0  0  0
   32.5630   32.1550   43.5560 C   0  0  0  0  0  0  0  0  0  0  0  0
   33.5690   31.7620   43.6280 H   0  0  0  0  0  0  0  0  0  0  0  0
   32.3180   33.3290   42.8350 C   0  0  0  0  0  0  0  0  0  0  0  0
   33.1180   33.8640   42.3400 H   0  0  0  0  0  0  0  0  0  0  0  0
   31.0140   33.7630   42.7910 C   0  0  0  0  0  3  0  0  0  0  0  0
   29.9320   33.1510   43.3880 C   0  0  0  0  0  3  0  0  0  0  0  0
  2  7  1  0  0  0  0
  2  1  1  0  0  0  0
  3  2  2  0  0  0  0
  4  3  1  0  0  0  0
  5  4  2  0  0  0  0
  5  6  1  0  0  0  0
  6  9  1  0  0  0  0
  6  7  2  0  0  0  0
  7 10  1  0  0  0  0
  8  4  1  0  0  0  0
 11 17  1  0  0  0  0
 12 18  1  0  0  0  0
 12 11  2  0  0  0  0
 13 14  2  0  0  0  0
 13 12  1  0  0  0  0
 14 15  1  0  0  0  0
 15  3  1  0  0  0  0
 15 16  2  0  0  0  0
 16 11  1  0  0  0  0
 19 13  1  0  0  0  0
 20  5  1  0  0  0  0
 21 20  1  0  0  0  0
 21 26  1  0  0  0  0
 22 21  2  0  0  0  0
 23 24  2  0  0  0  0
 23 22  1  0  0  0  0
 24 25  1  0  0  0  0
 25 20  2  0  0  0  0
 27 22  1  0  0  0  0
 29 30  1  0  0  0  0
 29 28  1  0  0  0  0
 30 24  1  0  0  0  0
 31 32  1  0  0  0  0
 31 30  2  0  0  0  0
 33 31  1  0  0  0  0
 34 33  1  0  0  0  0
 35 33  2  0  0  0  0
 35 36  1  0  0  0  0
 36 29  2  0  0  0  0
M  END
>  <minimizedAffinity>
-6.44286871

>  <minimizedRMSD>
0.446708113

$$$$
