
     RDKit          3D

 40 42  0  0  0  0  0  0  0  0999 V2000
   37.7230   30.6991   48.6338 C   0  0  2  0  0  0  0  0  0  0  0  0
   38.5170   31.9014   48.3262 C   0  0  0  0  0  0  0  0  0  0  0  0
   38.5690   32.8259   49.4041 C   0  0  0  0  0  0  0  0  0  0  0  0
   39.2521   34.0161   49.3505 C   0  0  0  0  0  0  0  0  0  0  0  0
   39.9532   34.3925   48.1996 C   0  0  0  0  0  0  0  0  0  0  0  0
   39.8513   33.4358   47.1958 C   0  0  0  0  0  0  0  0  0  0  0  0
   39.1933   32.2670   47.2179 N   0  0  0  0  0  0  0  0  0  0  0  0
   35.5680   29.9718   47.8840 C   0  0  0  0  0  0  0  0  0  0  0  0
   36.7117   30.4767   47.5466 C   0  0  0  0  0  0  0  0  0  0  0  0
   33.7581   29.8007   44.6316 C   0  0  0  0  0  0  0  0  0  0  0  0
   34.7293   29.9994   45.5943 C   0  0  0  0  0  0  0  0  0  0  0  0
   34.5206   29.7312   46.9225 C   0  0  0  0  0  0  0  0  0  0  0  0
   33.3024   29.2564   47.2465 N   0  0  0  0  0  0  0  0  0  0  0  0
   32.3490   29.0551   46.3423 C   0  0  0  0  0  0  0  0  0  0  0  0
   32.5784   29.3292   45.0269 N   0  0  0  0  0  0  0  0  0  0  0  0
   36.7996   31.0792   50.1622 S   0  0  0  0  0  0  0  0  0  0  0  0
   36.8743   29.7154   51.3096 C   0  0  0  0  0  0  0  0  0  0  0  0
   37.5764   30.0126   52.4676 F   0  0  0  0  0  0  0  0  0  0  0  0
   35.6147   29.2173   51.5876 F   0  0  0  0  0  0  0  0  0  0  0  0
   37.5646   28.6773   50.6484 F   0  0  0  0  0  0  0  0  0  0  0  0
   38.3438   29.7977   48.7533 H   0  0  0  0  0  0  0  0  0  0  0  0
   38.1088   32.7638   50.4055 H   0  0  0  0  0  0  0  0  0  0  0  0
   39.3269   34.7576   50.1374 H   0  0  0  0  0  0  0  0  0  0  0  0
   40.5269   35.2774   48.0068 H   0  0  0  0  0  0  0  0  0  0  0  0
   40.3457   33.5854   46.2329 H   0  0  0  0  0  0  0  0  0  0  0  0
   35.3488   29.7174   48.9155 H   0  0  0  0  0  0  0  0  0  0  0  0
   37.0018   30.7530   46.5475 H   0  0  0  0  0  0  0  0  0  0  0  0
   33.8901   30.0018   43.5780 H   0  0  0  0  0  0  0  0  0  0  0  0
   35.6367   30.3792   45.1671 H   0  0  0  0  0  0  0  0  0  0  0  0
   32.2161   25.9281   46.2605 Br  0  0  0  0  0  0  0  0  0  0  0  0
   30.8317   27.1724   46.7351 C   0  0  0  0  0  0  0  0  0  0  0  0
   31.0383   28.5392   46.7252 C   0  0  0  0  0  0  0  0  0  0  0  0
   30.0064   29.3974   47.0762 C   0  0  0  0  0  0  0  0  0  0  0  0
   30.1478   30.4853   47.0753 H   0  0  0  0  0  0  0  0  0  0  0  0
   28.7645   28.8682   47.4373 C   0  0  0  0  0  0  0  0  0  0  0  0
   27.9659   29.5302   47.7089 H   0  0  0  0  0  0  0  0  0  0  0  0
   28.5231   27.5008   47.4580 C   0  0  0  0  0  0  0  0  0  0  0  0
   29.5860   26.6876   47.0992 C   0  0  0  0  0  0  0  0  0  0  0  0
   27.5565   27.0988   47.7394 H   0  0  0  0  0  0  0  0  0  0  0  0
   29.3652   25.6142   47.1249 H   0  0  0  0  0  0  0  0  0  0  0  0
  1 16  1  0
  2  1  1  0
  2  3  2  0
  4  3  1  0
  5  4  2  0
  6  7  2  0
  6  5  1  0
  7  2  1  0
  9  8  2  0
  9  1  1  0
 10 15  2  0
 10 11  1  0
 11 12  2  0
 12 13  1  0
 12  8  1  0
 14 13  2  0
 15 14  1  0
 16 17  1  0
 17 19  1  0
 17 18  1  0
 20 17  1  0
  1 21  1  1
  3 22  1  0
  4 23  1  0
  5 24  1  0
  6 25  1  0
  8 26  1  0
  9 27  1  0
 10 28  1  0
 11 29  1  0
 30 31  1  0
 31 32  2  0
 32 33  1  0
 33 34  1  0
 33 35  2  0
 35 36  1  0
 35 37  1  0
 37 38  2  0
 38 31  1  0
 37 39  1  0
 38 40  1  0
 14 32  1  0
M  ISO  8  21   8  22  14  23  14  24  14  25  14  28  14  29  14  34  15
M  ISO  1  36  16
M  END
>  <DihAtoms>  (1) 
12,13,31,30

>  <DihDeg>  (1) 
-0.0013420517247686103

$$$$
