
     RDKit          3D

 44 47  0  0  0  0  0  0  0  0999 V2000
   35.1898   29.7271   49.1852 C   0  0  0  0  0  0  0  0  0  0  0  0
   35.8532   30.3402   48.1314 C   0  0  0  0  0  0  0  0  0  0  0  0
   35.2982   30.1697   46.8755 C   0  0  0  0  0  0  0  0  0  0  0  0
   34.1633   29.4323   46.7281 N   0  0  0  0  0  0  0  0  0  0  0  0
   33.5521   28.8551   47.7755 C   0  0  0  0  0  0  0  0  0  0  0  0
   34.0755   29.0110   48.9949 N   0  0  0  0  0  0  0  0  0  0  0  0
   32.3446   28.0776   47.5911 C   0  0  0  0  0  0  0  0  0  0  0  0
   32.2518   26.8050   48.0985 C   0  0  0  0  0  0  0  0  0  0  0  0
   31.1280   26.0242   47.9531 C   0  0  0  0  0  0  0  0  0  0  0  0
   30.1031   26.6014   47.2663 C   0  0  0  0  0  0  0  0  0  0  0  0
   30.1460   27.8914   46.7301 C   0  0  0  0  0  0  0  0  0  0  0  0
   31.3019   28.6202   46.9116 N   0  0  0  0  0  0  0  0  0  0  0  0
   37.0324   31.0983   48.3316 N   0  0  0  0  0  0  0  0  0  0  0  0
   37.3265   31.4302   49.7239 C   0  0  0  0  0  0  0  0  0  0  0  0
   38.5392   32.2775   49.8971 C   0  0  0  0  0  0  0  0  0  0  0  0
   38.7006   33.2344   48.7154 C   0  0  0  0  0  0  0  0  0  0  0  0
   38.9883   32.3363   47.5519 C   0  0  0  0  0  0  0  0  0  0  0  0
   37.8046   31.4770   47.1988 C   0  0  1  0  0  0  0  0  0  0  0  0
   35.5287   29.7927   50.2013 H   0  0  0  0  0  0  0  0  0  0  0  0
   35.7081   30.5988   45.9799 H   0  0  0  0  0  0  0  0  0  0  0  0
   33.1259   26.4182   48.6389 H   0  0  0  0  0  0  0  0  0  0  0  0
   31.0970   25.0375   48.3640 H   0  0  0  0  0  0  0  0  0  0  0  0
   29.1796   26.0470   47.1093 H   0  0  0  0  0  0  0  0  0  0  0  0
   29.3288   28.3156   46.1980 H   0  0  0  0  0  0  0  0  0  0  0  0
   36.4473   32.0517   50.0556 H   0  0  0  0  0  0  0  0  0  0  0  0
   37.3701   30.5886   50.4012 H   0  0  0  0  0  0  0  0  0  0  0  0
   39.4867   31.7149   49.9922 H   0  0  0  0  0  0  0  0  0  0  0  0
   38.3929   32.9144   50.8065 H   0  0  0  0  0  0  0  0  0  0  0  0
   37.7417   33.7482   48.4856 H   0  0  0  0  0  0  0  0  0  0  0  0
   39.5296   33.9192   48.8979 H   0  0  0  0  0  0  0  0  0  0  0  0
   39.3723   32.8507   46.6573 H   0  0  0  0  0  0  0  0  0  0  0  0
   39.7770   31.6154   47.9140 H   0  0  0  0  0  0  0  0  0  0  0  0
   37.1337   32.1501   46.5928 H   0  0  0  0  0  0  0  0  0  0  0  0
   36.1963   30.9881   44.4566 Br  0  0  0  0  0  0  0  0  0  0  0  0
   37.6754   30.0133   45.0908 C   0  0  0  0  0  0  0  0  0  0  0  0
   38.2205   30.3912   46.2899 C   0  0  0  0  0  0  0  0  0  0  0  0
   39.3110   29.5829   46.6534 C   0  0  0  0  0  0  0  0  0  0  0  0
   39.8115   29.8163   47.6069 H   0  0  0  0  0  0  0  0  0  0  0  0
   39.8132   28.5251   45.9287 C   0  0  0  0  0  0  0  0  0  0  0  0
   40.6611   27.9790   46.3183 H   0  0  0  0  0  0  0  0  0  0  0  0
   39.2042   28.2193   44.7402 C   0  0  0  0  0  0  0  0  0  0  0  0
   38.1318   28.9681   44.3230 C   0  0  0  0  0  0  0  0  0  0  0  0
   39.6276   27.3836   44.2021 H   0  0  0  0  0  0  0  0  0  0  0  0
   37.6547   28.7251   43.3873 H   0  0  0  0  0  0  0  0  0  0  0  0
  2 13  1  0
  2  1  2  0
  3  2  1  0
  4  3  2  0
  4  5  1  0
  5  6  2  0
  6  1  1  0
  7  5  1  0
  7  8  2  0
  9  8  1  0
 10  9  2  0
 11 12  2  0
 11 10  1  0
 12  7  1  0
 13 14  1  0
 14 15  1  0
 16 15  1  0
 17 16  1  0
 18 17  1  0
 18 13  1  0
  1 19  1  0
  3 20  1  0
  8 21  1  0
  9 22  1  0
 10 23  1  0
 11 24  1  0
 14 25  1  0
 14 26  1  0
 15 27  1  0
 15 28  1  0
 16 29  1  0
 16 30  1  0
 17 31  1  0
 17 32  1  0
 18 33  1  6
 34 35  1  0
 35 36  2  0
 36 37  1  0
 37 38  1  0
 37 39  2  0
 39 40  1  0
 39 41  1  0
 41 42  2  0
 42 35  1  0
 41 43  1  0
 42 44  1  0
 18 36  1  0
M  ISO  8  19  14  20  14  21  14  22  14  23  14  24  14  25  13  26  13
M  ISO  8  27  13  28  13  29  13  30  13  31  13  32  13  33  13  38  15
M  ISO  1  40  16
M  END
>  <DihAtoms>  (1) 
16,17,35,34

>  <DihDeg>  (1) 
95.94316618324947

$$$$
