
 OpenBabel03272502343D

 36 38  0  0  1  0  0  0  0  0999 V2000
   35.5500   29.9410   47.9310 C   0  0  0  0  0  3  0  0  0  0  0  0
   36.7030   30.4120   47.5760 C   0  0  0  0  0  3  0  0  0  0  0  0
   33.7360   29.6830   44.6870 C   0  0  0  0  0  0  0  0  0  0  0  0
   34.7080   29.9060   45.6420 C   0  0  0  0  0  0  0  0  0  0  0  0
   34.5010   29.6750   46.9770 C   0  0  0  0  0  0  0  0  0  0  0  0
   33.2820   29.2100   47.3150 N   0  0  0  0  0  0  0  0  0  0  0  0
   32.3280   28.9850   46.4180 C   0  0  0  0  0  0  0  0  0  0  0  0
   32.5560   29.2230   45.0960 N   0  0  0  0  0  0  0  0  0  0  0  0
   33.8660   29.8550   43.6280 H   0  0  0  0  0  0  0  0  0  0  0  0
   35.6160   30.2740   45.2040 H   0  0  0  0  0  0  0  0  0  0  0  0
   32.4330   26.0210   47.4210 Br  0  0  0  0  0  0  0  0  0  0  0  0
   30.9110   27.1830   47.2820 C   0  0  0  0  0  0  0  0  0  0  0  0
   31.0170   28.4810   46.8170 C   0  0  0  0  0  0  0  0  0  0  0  0
   29.8880   29.2810   46.7350 C   0  0  0  0  0  0  0  0  0  0  0  0
   29.9500   30.3140   46.3680 H   0  0  0  0  0  0  0  0  0  0  0  0
   28.6490   28.7660   47.1250 C   0  0  0  0  0  0  0  0  0  0  0  0
   27.7750   29.3840   47.0620 H   0  0  0  0  0  0  0  0  0  0  0  0
   28.5060   27.4670   47.5970 C   0  0  0  0  0  3  0  0  0  0  0  0
   29.6650   26.7090   47.6590 C   0  0  0  0  0  3  0  0  0  0  0  0
   37.7140   30.6660   48.6550 C   0  0  1  0  0  0  0  0  0  0  0  0
   38.3410   29.7720   48.7940 H   0  0  0  0  0  0  0  0  0  0  0  0
   38.5000   31.8650   48.3170 C   0  0  0  0  0  0  0  0  0  0  0  0
   38.5810   32.7980   49.3870 C   0  0  0  0  0  0  0  0  0  0  0  0
   39.2620   33.9870   49.3060 C   0  0  0  0  0  0  0  0  0  0  0  0
   39.9330   34.3540   48.1350 C   0  0  0  0  0  0  0  0  0  0  0  0
   39.8050   33.3910   47.1420 C   0  0  0  0  0  0  0  0  0  0  0  0
   39.1470   32.2220   47.1890 N   0  0  0  0  0  0  0  0  0  0  0  0
   38.1470   32.7440   50.4010 H   0  0  0  0  0  0  0  0  0  0  0  0
   39.3580   34.7350   50.0850 H   0  0  0  0  0  0  0  0  0  0  0  0
   40.5020   35.2380   47.9210 H   0  0  0  0  0  0  0  0  0  0  0  0
   40.2750   33.5320   46.1650 H   0  0  0  0  0  0  0  0  0  0  0  0
   36.7920   31.0760   50.1760 S   0  0  0  0  0  0  0  0  0  0  0  0
   36.8500   29.7270   51.3420 C   0  0  0  0  0  0  0  0  0  0  0  0
   37.5210   30.0450   52.5130 F   0  0  0  0  0  0  0  0  0  0  0  0
   35.5890   29.2210   51.5960 F   0  0  0  0  0  0  0  0  0  0  0  0
   37.5660   28.6870   50.7100 F   0  0  0  0  0  0  0  0  0  0  0  0
  2  1  2  0  0  0  0
  2 20  1  0  0  0  0
  3  8  2  0  0  0  0
  3  4  1  0  0  0  0
  4  5  2  0  0  0  0
  5  6  1  0  0  0  0
  5  1  1  0  0  0  0
  7 13  1  0  0  0  0
  7  6  2  0  0  0  0
  8  7  1  0  0  0  0
  9  3  1  0  0  0  0
 10  4  1  0  0  0  0
 12 11  1  0  0  0  0
 12 19  1  0  0  0  0
 13 12  2  0  0  0  0
 14 13  1  0  0  0  0
 14 16  2  0  0  0  0
 15 14  1  0  0  0  0
 16 18  1  0  0  0  0
 17 16  1  0  0  0  0
 18 19  2  0  0  0  0
 20 21  1  1  0  0  0
 20 32  1  0  0  0  0
 22 20  1  0  0  0  0
 22 23  1  0  0  0  0
 23 28  1  0  0  0  0
 24 23  2  0  0  0  0
 24 29  1  0  0  0  0
 25 24  1  0  0  0  0
 26 27  1  0  0  0  0
 26 25  2  0  0  0  0
 27 22  2  0  0  0  0
 30 25  1  0  0  0  0
 31 26  1  0  0  0  0
 32 33  1  0  0  0  0
 33 35  1  0  0  0  0
 33 34  1  0  0  0  0
 36 33  1  0  0  0  0
M  END
>  <minimizedAffinity>
-6.6843729

>  <minimizedRMSD>
0.292309254

$$$$
