REMARK  Name = 
REMARK  5 active torsions:
REMARK  status: ('A' for Active; 'I' for Inactive)
REMARK    1  A    between atoms: C_1  and  C_8
REMARK    2  A    between atoms: N_4  and  C_12
REMARK    3  A    between atoms: C_12  and  C_13
REMARK    4  A    between atoms: C_13  and  N_14
REMARK    5  A    between atoms: C_19  and  C_38
REMARK                            x       y       z     vdW  Elec       q    Type
REMARK                         _______ _______ _______ _____ _____    ______ ____
ROOT
ATOM      1  C   UNL     1      40.623  32.028  44.840  0.00  0.00    +0.000 C 
ATOM      2  H   UNL     1      41.686  32.376  44.920  0.00  0.00    +0.000 HD
ATOM      3  H   UNL     1      40.664  31.012  45.335  0.00  0.00    +0.000 HD
ENDROOT
BRANCH   1   4
ATOM      4  N   UNL     1      40.373  31.799  43.475  0.00  0.00    +0.000 NA
ATOM      5  C   UNL     1      39.508  32.704  42.832  0.00  0.00    +0.000 C 
ATOM      6  C   UNL     1      38.247  32.140  42.288  0.00  0.00    +0.000 C 
ATOM      7  O   UNL     1      38.420  30.881  41.709  0.00  0.00    +0.000 OA
ATOM      8  C   UNL     1      39.002  30.015  42.575  0.00  0.00    +0.000 C 
ATOM      9  C   UNL     1      40.353  30.485  43.013  0.00  0.00    +0.000 C 
ATOM     10  H   UNL     1      39.375  33.708  43.236  0.00  0.00    +0.000 HD
ATOM     11  H   UNL     1      40.138  32.957  41.941  0.00  0.00    +0.000 HD
ATOM     12  H   UNL     1      38.075  32.742  41.311  0.00  0.00    +0.000 HD
ATOM     13  H   UNL     1      37.306  32.361  42.747  0.00  0.00    +0.000 HD
ATOM     14  H   UNL     1      39.261  29.154  41.899  0.00  0.00    +0.000 HD
ATOM     15  H   UNL     1      38.381  29.508  43.306  0.00  0.00    +0.000 HD
ATOM     16  H   UNL     1      40.514  29.860  43.976  0.00  0.00    +0.000 HD
BRANCH   9  19
ATOM     17 BR   UNL     1      39.993  27.641  41.819  0.00  0.00    +0.000 Br
ATOM     18  C   UNL     1      41.498  28.814  41.526  0.00  0.00    +0.000 A 
ATOM     19  C   UNL     1      41.475  30.066  42.162  0.00  0.00    +0.000 A 
ATOM     20  C   UNL     1      42.610  30.777  41.853  0.00  0.00    +0.000 A 
ATOM     21  H   UNL     1      42.740  31.764  42.260  0.00  0.00    +0.000 HD
ATOM     22  C   UNL     1      43.646  30.368  41.047  0.00  0.00    +0.000 A 
ATOM     23  H   UNL     1      44.508  30.983  40.850  0.00  0.00    +0.000 HD
ATOM     24  C   UNL     1      43.570  29.119  40.471  0.00  0.00    +0.000 A 
ATOM     25  C   UNL     1      42.481  28.311  40.704  0.00  0.00    +0.000 A 
ENDBRANCH   9  19
ENDBRANCH   1   4
BRANCH   1  26
ATOM     26  C   UNL     1      39.711  32.858  45.599  0.00  0.00    +0.000 C 
ATOM     27  H   UNL     1      40.331  33.379  46.402  0.00  0.00    +0.000 HD
ATOM     28  H   UNL     1      39.129  33.666  45.188  0.00  0.00    +0.000 HD
BRANCH  26  32
ATOM     29  C   UNL     1      37.686  31.034  47.932  0.00  0.00    +0.000 A 
ATOM     30  C   UNL     1      37.002  30.788  46.757  0.00  0.00    +0.000 A 
ATOM     31  C   UNL     1      37.692  31.449  45.735  0.00  0.00    +0.000 A 
ATOM     32  N   UNL     1      38.732  32.047  46.315  0.00  0.00    +0.000 N 
ATOM     33  N   UNL     1      38.728  31.798  47.631  0.00  0.00    +0.000 NA
ATOM     34  H   UNL     1      36.081  30.181  46.656  0.00  0.00    +0.000 HD
ATOM     35  H   UNL     1      37.299  31.355  44.791  0.00  0.00    +0.000 HD
BRANCH  29  38
ATOM     36  C   UNL     1      37.410  30.135  51.564  0.00  0.00    +0.000 A 
ATOM     37  C   UNL     1      37.914  30.689  50.408  0.00  0.00    +0.000 A 
ATOM     38  C   UNL     1      37.254  30.503  49.201  0.00  0.00    +0.000 A 
ATOM     39  N   UNL     1      36.124  29.760  49.275  0.00  0.00    +0.000 NA
ATOM     40  C   UNL     1      35.638  29.221  50.421  0.00  0.00    +0.000 A 
ATOM     41  N   UNL     1      36.297  29.421  51.550  0.00  0.00    +0.000 NA
ATOM     42  H   UNL     1      38.037  30.368  52.428  0.00  0.00    +0.000 HD
ATOM     43  H   UNL     1      38.823  31.287  50.345  0.00  0.00    +0.000 HD
ATOM     44  H   UNL     1      34.724  28.634  50.410  0.00  0.00    +0.000 HD
ENDBRANCH  29  38
ENDBRANCH  26  32
ENDBRANCH   1  26
TORSDOF 5
