
 OpenBabel03262522323D

 27 29  0  0  0  0  0  0  0  0999 V2000
   37.9540   32.0200   49.2880 C   0  0  0  0  0  0  0  0  0  0  0  0
   38.5390   33.0980   49.8860 C   0  0  0  0  0  0  0  0  0  0  0  0
   39.3520   34.0220   49.2700 C   0  0  0  0  0  0  0  0  0  0  0  0
   39.6110   33.8570   47.9150 C   0  0  0  0  0  0  0  0  0  0  0  0
   39.0220   32.7740   47.3190 C   0  0  0  0  0  0  0  0  0  0  0  0
   38.2370   31.9100   47.9840 N   0  0  0  0  0  0  0  0  0  0  0  0
   38.3660   33.2760   50.9600 H   0  0  0  0  0  0  0  0  0  0  0  0
   39.7800   34.8560   49.8220 H   0  0  0  0  0  0  0  0  0  0  0  0
   40.2460   34.5710   47.4170 H   0  0  0  0  0  0  0  0  0  0  0  0
   37.5050   30.3330   51.1030 C   0  0  0  0  0  0  0  0  0  0  0  0
   37.1080   31.0680   49.9680 C   0  0  0  0  0  0  0  0  0  0  0  0
   35.8320   30.8510   49.4830 C   0  0  0  0  0  0  0  0  0  0  0  0
   35.0240   29.9480   50.1160 N   0  0  0  0  0  0  0  0  0  0  0  0
   35.4480   29.2700   51.1960 C   0  0  0  0  0  0  0  0  0  0  0  0
   36.6900   29.4520   51.7050 N   0  0  0  0  0  0  0  0  0  0  0  0
   38.5230   30.5240   51.4690 H   0  0  0  0  0  0  0  0  0  0  0  0
   35.4900   31.3960   48.6140 H   0  0  0  0  0  0  0  0  0  0  0  0
   34.7590   28.5660   51.6540 H   0  0  0  0  0  0  0  0  0  0  0  0
   37.0120   30.7590   46.1240 Br  0  0  0  0  0  0  0  0  0  0  0  0
   38.4370   31.6420   45.1830 C   0  0  0  0  0  0  0  0  0  0  0  0
   39.2350   32.5170   45.9000 C   0  0  0  0  0  0  0  0  0  0  0  0
   40.2210   33.0900   45.1240 C   0  0  0  0  0  0  0  0  0  0  0  0
   40.9020   33.7900   45.5880 H   0  0  0  0  0  0  0  0  0  0  0  0
   40.3960   32.8270   43.7900 C   0  0  0  0  0  0  0  0  0  0  0  0
   41.2000   33.3230   43.2480 H   0  0  0  0  0  0  0  0  0  0  0  0
   39.5710   31.9530   43.1470 C   0  0  0  0  0  0  0  0  0  0  0  0
   38.5680   31.3410   43.8420 C   0  0  0  0  0  0  0  0  0  0  0  0
  1  2  1  0  0  0  0
  1 11  1  0  0  0  0
  2  7  1  0  0  0  0
  3  8  1  0  0  0  0
  3  2  2  0  0  0  0
  4  3  1  0  0  0  0
  5  4  2  0  0  0  0
  5  6  1  0  0  0  0
  6  1  2  0  0  0  0
  9  4  1  0  0  0  0
 10 16  1  0  0  0  0
 10 15  1  0  0  0  0
 11 10  2  0  0  0  0
 12 11  1  0  0  0  0
 12 13  2  0  0  0  0
 13 14  1  0  0  0  0
 14 18  1  0  0  0  0
 14 15  2  0  0  0  0
 17 12  1  0  0  0  0
 20 21  1  0  0  0  0
 20 19  1  0  0  0  0
 21  5  1  0  0  0  0
 22 23  1  0  0  0  0
 22 21  2  0  0  0  0
 24 22  1  0  0  0  0
 25 24  1  0  0  0  0
 26 24  2  0  0  0  0
 26 27  1  0  0  0  0
 27 20  2  0  0  0  0
M  END
>  <minimizedAffinity>
-6.04805803

>  <minimizedRMSD>
1.09136224

$$$$
