REMARK  Name = 
REMARK  3 active torsions:
REMARK  status: ('A' for Active; 'I' for Inactive)
REMARK    1  A    between atoms: C_1  and  C_7
REMARK    2  A    between atoms: C_1  and  C_9
REMARK    3  A    between atoms: C_12  and  C_21
REMARK                            x       y       z     vdW  Elec       q    Type
REMARK                         _______ _______ _______ _____ _____    ______ ____
ROOT
ATOM      1  C   UNL     1      36.517  30.878  49.434  0.00  0.00    +0.000 A 
ATOM      2  C   UNL     1      37.315  30.196  50.332  0.00  0.00    +0.000 A 
ATOM      3  C   UNL     1      38.436  31.028  50.417  0.00  0.00    +0.000 A 
ATOM      4  C   UNL     1      38.281  32.126  49.608  0.00  0.00    +0.000 A 
ATOM      5  O   UNL     1      37.108  32.009  49.024  0.00  0.00    +0.000 OA
ATOM      6  H   UNL     1      37.068  29.265  50.804  0.00  0.00    +0.000 HD
ATOM      7  H   UNL     1      39.292  30.783  51.061  0.00  0.00    +0.000 HD
ENDROOT
BRANCH   4  10
ATOM      8 BR   UNL     1      37.445  34.737  51.058  0.00  0.00    +0.000 Br
ATOM      9  C   UNL     1      38.989  34.445  50.012  0.00  0.00    +0.000 A 
ATOM     10  C   UNL     1      39.229  33.219  49.424  0.00  0.00    +0.000 A 
ATOM     11  C   UNL     1      40.359  33.014  48.660  0.00  0.00    +0.000 A 
ATOM     12  H   UNL     1      40.559  32.059  48.194  0.00  0.00    +0.000 HD
ATOM     13  C   UNL     1      41.267  34.037  48.476  0.00  0.00    +0.000 A 
ATOM     14  H   UNL     1      42.130  33.850  47.883  0.00  0.00    +0.000 HD
ATOM     15  C   UNL     1      41.000  35.251  49.076  0.00  0.00    +0.000 A 
ATOM     16  C   UNL     1      39.867  35.504  49.858  0.00  0.00    +0.000 A 
ENDBRANCH   4  10
BRANCH   1  17
ATOM     17  C   UNL     1      35.197  30.440  48.978  0.00  0.00    +0.000 C 
ATOM     18  O   UNL     1      34.330  30.206  49.863  0.00  0.00    +0.000 OA
BRANCH  17  23
ATOM     19  C   UNL     1      33.329  30.083  45.889  0.00  0.00    +0.000 A 
ATOM     20  C   UNL     1      34.312  30.003  44.910  0.00  0.00    +0.000 A 
ATOM     21  C   UNL     1      35.648  30.073  45.311  0.00  0.00    +0.000 A 
ATOM     22  N   UNL     1      35.889  30.214  46.633  0.00  0.00    +0.000 NA
ATOM     23  C   UNL     1      34.916  30.288  47.559  0.00  0.00    +0.000 A 
ATOM     24  N   UNL     1      33.632  30.222  47.176  0.00  0.00    +0.000 NA
ATOM     25  H   UNL     1      32.318  30.022  45.506  0.00  0.00    +0.000 HD
ATOM     26  H   UNL     1      34.186  29.891  43.843  0.00  0.00    +0.000 HD
ATOM     27  H   UNL     1      36.534  30.031  44.713  0.00  0.00    +0.000 HD
ENDBRANCH  17  23
ENDBRANCH   1  17
TORSDOF 3
