
 OpenBabel03262521033D

 18 19  0  0  0  0  0  0  0  0999 V2000
   40.4640   23.8710   35.6670 C   0  0  0  0  0  0  0  0  0  0  0  0
   39.1960   24.3480   36.0320 C   0  0  0  0  0  0  0  0  0  0  0  0
   38.5940   23.7920   37.1820 C   0  0  0  0  0  0  0  0  0  0  0  0
   39.2850   22.8210   37.8680 N   0  0  0  0  0  0  0  0  0  0  0  0
   40.4990   22.4020   37.4690 C   0  0  0  0  0  0  0  0  0  0  0  0
   41.0900   22.9220   36.3740 N   0  0  0  0  0  0  0  0  0  0  0  0
   40.9150   24.2930   34.7980 H   0  0  0  0  0  0  0  0  0  0  0  0
   37.6390   24.0730   37.5560 H   0  0  0  0  0  0  0  0  0  0  0  0
   40.9780   21.6420   38.0540 H   0  0  0  0  0  0  0  0  0  0  0  0
   37.8830   23.5400   33.2910 Br  0  0  0  0  0  0  0  0  0  0  0  0
   37.8110   25.2580   34.0960 C   0  0  0  0  0  0  0  0  0  0  0  0
   38.4630   25.3780   35.3050 C   0  0  0  0  0  0  0  0  0  0  0  0
   38.4570   26.6130   35.9620 C   0  0  0  0  0  0  0  0  0  0  0  0
   38.9430   26.8240   36.9270 H   0  0  0  0  0  0  0  0  0  0  0  0
   37.7920   27.6990   35.3830 C   0  0  0  0  0  0  0  0  0  0  0  0
   37.7570   28.6740   35.8490 H   0  0  0  0  0  0  0  0  0  0  0  0
   37.1730   27.5010   34.1890 C   0  0  0  0  0  3  0  0  0  0  0  0
   37.1570   26.2990   33.5120 C   0  0  0  0  0  3  0  0  0  0  0  0
  1  2  2  0  0  0  0
  1  6  1  0  0  0  0
  2  3  1  0  0  0  0
  3  8  1  0  0  0  0
  3  4  2  0  0  0  0
  5  4  1  0  0  0  0
  5  9  1  0  0  0  0
  6  5  2  0  0  0  0
  7  1  1  0  0  0  0
 10 11  1  0  0  0  0
 11 12  1  0  0  0  0
 12 13  2  0  0  0  0
 12  2  1  0  0  0  0
 13 14  1  0  0  0  0
 15 16  1  0  0  0  0
 15 13  1  0  0  0  0
 17 15  2  0  0  0  0
 18 11  2  0  0  0  0
 18 17  1  0  0  0  0
M  END
>  <minimizedAffinity>
-4.12777996

$$$$

 OpenBabel03262521033D

 18 19  0  0  0  0  0  0  0  0999 V2000
   37.9220   24.9870   33.8230 C   0  0  0  0  0  0  0  0  0  0  0  0
   38.7970   25.2790   34.8800 C   0  0  0  0  0  0  0  0  0  0  0  0
   39.6510   26.3930   34.7330 C   0  0  0  0  0  0  0  0  0  0  0  0
   39.5730   27.1190   33.5680 N   0  0  0  0  0  0  0  0  0  0  0  0
   38.7130   26.7910   32.5870 C   0  0  0  0  0  0  0  0  0  0  0  0
   37.8890   25.7300   32.7100 N   0  0  0  0  0  0  0  0  0  0  0  0
   37.2780   24.1450   33.9370 H   0  0  0  0  0  0  0  0  0  0  0  0
   40.3550   26.7110   35.4650 H   0  0  0  0  0  0  0  0  0  0  0  0
   38.7080   27.4040   31.7070 H   0  0  0  0  0  0  0  0  0  0  0  0
   40.8810   22.9250   34.9920 Br  0  0  0  0  0  0  0  0  0  0  0  0
   39.7100   23.4440   36.3940 C   0  0  0  0  0  0  0  0  0  0  0  0
   38.8800   24.5090   36.1150 C   0  0  0  0  0  0  0  0  0  0  0  0
   37.9870   24.9510   37.0970 C   0  0  0  0  0  0  0  0  0  0  0  0
   37.2800   25.7880   36.9850 H   0  0  0  0  0  0  0  0  0  0  0  0
   37.9530   24.3070   38.3380 C   0  0  0  0  0  0  0  0  0  0  0  0
   37.2820   24.6090   39.1310 H   0  0  0  0  0  0  0  0  0  0  0  0
   38.8020   23.2650   38.5370 C   0  0  0  0  0  3  0  0  0  0  0  0
   39.6960   22.8000   37.5940 C   0  0  0  0  0  3  0  0  0  0  0  0
  1  7  1  0  0  0  0
  1  2  1  0  0  0  0
  2 12  1  0  0  0  0
  3  2  2  0  0  0  0
  3  8  1  0  0  0  0
  4  3  1  0  0  0  0
  5  6  1  0  0  0  0
  5  4  2  0  0  0  0
  6  1  2  0  0  0  0
  9  5  1  0  0  0  0
 10 11  1  0  0  0  0
 11 18  1  0  0  0  0
 12 11  2  0  0  0  0
 12 13  1  0  0  0  0
 13 15  2  0  0  0  0
 14 13  1  0  0  0  0
 15 17  1  0  0  0  0
 15 16  1  0  0  0  0
 18 17  2  0  0  0  0
M  END
>  <minimizedAffinity>
-4.06149101

$$$$

 OpenBabel03262521033D

 18 19  0  0  0  0  0  0  0  0999 V2000
   35.6150   30.4320   32.6840 C   0  0  0  0  0  0  0  0  0  0  0  0
   35.4650   29.9350   33.9880 C   0  0  0  0  0  0  0  0  0  0  0  0
   36.0360   28.6770   34.2790 C   0  0  0  0  0  0  0  0  0  0  0  0
   36.7010   28.0210   33.2700 N   0  0  0  0  0  0  0  0  0  0  0  0
   36.8140   28.5470   32.0380 C   0  0  0  0  0  0  0  0  0  0  0  0
   36.2750   29.7470   31.7420 N   0  0  0  0  0  0  0  0  0  0  0  0
   35.1830   31.3820   32.4680 H   0  0  0  0  0  0  0  0  0  0  0  0
   35.9870   28.2000   35.2280 H   0  0  0  0  0  0  0  0  0  0  0  0
   37.3470   27.9770   31.3030 H   0  0  0  0  0  0  0  0  0  0  0  0
   32.3720   29.4300   34.2620 Br  0  0  0  0  0  0  0  0  0  0  0  0
   33.4170   30.5660   35.3670 C   0  0  0  0  0  0  0  0  0  0  0  0
   34.7590   30.6310   35.0570 C   0  0  0  0  0  0  0  0  0  0  0  0
   35.5960   31.4470   35.8260 C   0  0  0  0  0  0  0  0  0  0  0  0
   36.6780   31.5760   35.6690 H   0  0  0  0  0  0  0  0  0  0  0  0
   35.0590   32.1780   36.8890 C   0  0  0  0  0  0  0  0  0  0  0  0
   35.6620   32.8230   37.5140 H   0  0  0  0  0  0  0  0  0  0  0  0
   33.7270   32.0610   37.1320 C   0  0  0  0  0  3  0  0  0  0  0  0
   32.8700   31.2680   36.3980 C   0  0  0  0  0  3  0  0  0  0  0  0
  1  2  1  0  0  0  0
  2  3  2  0  0  0  0
  2 12  1  0  0  0  0
  3  8  1  0  0  0  0
  4  3  1  0  0  0  0
  5  4  2  0  0  0  0
  6  5  1  0  0  0  0
  6  1  2  0  0  0  0
  7  1  1  0  0  0  0
  9  5  1  0  0  0  0
 10 11  1  0  0  0  0
 11 18  1  0  0  0  0
 12 11  2  0  0  0  0
 12 13  1  0  0  0  0
 13 15  2  0  0  0  0
 14 13  1  0  0  0  0
 15 17  1  0  0  0  0
 15 16  1  0  0  0  0
 18 17  2  0  0  0  0
M  END
>  <minimizedAffinity>
-4.04128551

$$$$

 OpenBabel03262521033D

 18 19  0  0  0  0  0  0  0  0999 V2000
   37.7100   25.3510   34.1900 C   0  0  0  0  0  0  0  0  0  0  0  0
   38.4140   25.5380   35.3880 C   0  0  0  0  0  0  0  0  0  0  0  0
   38.3930   26.8260   35.9660 C   0  0  0  0  0  0  0  0  0  0  0  0
   37.6870   27.8130   35.3200 N   0  0  0  0  0  0  0  0  0  0  0  0
   37.0300   27.5750   34.1700 C   0  0  0  0  0  0  0  0  0  0  0  0
   37.0390   26.3510   33.6050 N   0  0  0  0  0  0  0  0  0  0  0  0
   37.7270   24.3780   33.7560 H   0  0  0  0  0  0  0  0  0  0  0  0
   38.8880   27.0870   36.8700 H   0  0  0  0  0  0  0  0  0  0  0  0
   36.5000   28.3930   33.7240 H   0  0  0  0  0  0  0  0  0  0  0  0
   41.1530   24.6430   34.1280 Br  0  0  0  0  0  0  0  0  0  0  0  0
   40.3750   23.9430   35.7120 C   0  0  0  0  0  0  0  0  0  0  0  0
   39.1630   24.4920   36.0740 C   0  0  0  0  0  0  0  0  0  0  0  0
   38.5250   24.0290   37.2300 C   0  0  0  0  0  0  0  0  0  0  0  0
   37.5590   24.3910   37.6120 H   0  0  0  0  0  0  0  0  0  0  0  0
   39.1260   23.0230   37.9930 C   0  0  0  0  0  0  0  0  0  0  0  0
   38.6750   22.6300   38.8940 H   0  0  0  0  0  0  0  0  0  0  0  0
   40.3210   22.5330   37.5710 C   0  0  0  0  0  3  0  0  0  0  0  0
   40.9810   22.9630   36.4380 C   0  0  0  0  0  3  0  0  0  0  0  0
  1  2  1  0  0  0  0
  2  3  2  0  0  0  0
  2 12  1  0  0  0  0
  3  8  1  0  0  0  0
  4  3  1  0  0  0  0
  5  4  2  0  0  0  0
  6  5  1  0  0  0  0
  6  1  2  0  0  0  0
  7  1  1  0  0  0  0
  9  5  1  0  0  0  0
 10 11  1  0  0  0  0
 11 12  2  0  0  0  0
 11 18  1  0  0  0  0
 12 13  1  0  0  0  0
 13 14  1  0  0  0  0
 13 15  2  0  0  0  0
 15 16  1  0  0  0  0
 17 15  1  0  0  0  0
 18 17  2  0  0  0  0
M  END
>  <minimizedAffinity>
-4.01437426

$$$$

 OpenBabel03262521033D

 18 19  0  0  0  0  0  0  0  0999 V2000
   38.6400   26.5930   35.9300 C   0  0  0  0  0  0  0  0  0  0  0  0
   38.7810   25.3250   35.3470 C   0  0  0  0  0  0  0  0  0  0  0  0
   38.0150   25.0450   34.1950 C   0  0  0  0  0  0  0  0  0  0  0  0
   37.1810   26.0290   33.7180 N   0  0  0  0  0  0  0  0  0  0  0  0
   37.0860   27.2280   34.3210 C   0  0  0  0  0  0  0  0  0  0  0  0
   37.8110   27.5130   35.4220 N   0  0  0  0  0  0  0  0  0  0  0  0
   39.2200   26.8000   36.8000 H   0  0  0  0  0  0  0  0  0  0  0  0
   38.0370   24.1220   33.6670 H   0  0  0  0  0  0  0  0  0  0  0  0
   36.4150   27.9460   33.8920 H   0  0  0  0  0  0  0  0  0  0  0  0
   37.6820   23.4640   37.6330 Br  0  0  0  0  0  0  0  0  0  0  0  0
   39.4040   23.3560   36.8400 C   0  0  0  0  0  0  0  0  0  0  0  0
   39.6650   24.2810   35.8510 C   0  0  0  0  0  0  0  0  0  0  0  0
   40.9130   24.2660   35.2190 C   0  0  0  0  0  0  0  0  0  0  0  0
   41.2300   24.9550   34.4200 H   0  0  0  0  0  0  0  0  0  0  0  0
   41.8680   23.3180   35.5990 C   0  0  0  0  0  0  0  0  0  0  0  0
   42.8460   23.2640   35.1420 H   0  0  0  0  0  0  0  0  0  0  0  0
   41.5350   22.4400   36.5810 C   0  0  0  0  0  3  0  0  0  0  0  0
   40.3170   22.4230   37.2280 C   0  0  0  0  0  3  0  0  0  0  0  0
  1  7  1  0  0  0  0
  2 12  1  0  0  0  0
  2  1  2  0  0  0  0
  3  2  1  0  0  0  0
  4  3  2  0  0  0  0
  4  5  1  0  0  0  0
  5  6  2  0  0  0  0
  6  1  1  0  0  0  0
  8  3  1  0  0  0  0
  9  5  1  0  0  0  0
 11 18  1  0  0  0  0
 11 10  1  0  0  0  0
 12 11  2  0  0  0  0
 13 15  2  0  0  0  0
 13 12  1  0  0  0  0
 14 13  1  0  0  0  0
 15 17  1  0  0  0  0
 16 15  1  0  0  0  0
 17 18  2  0  0  0  0
M  END
>  <minimizedAffinity>
-3.92758512

$$$$

 OpenBabel03262521033D

 18 19  0  0  0  0  0  0  0  0999 V2000
   35.7590   28.9150   34.1080 C   0  0  0  0  0  0  0  0  0  0  0  0
   34.7800   29.9170   34.0420 C   0  0  0  0  0  0  0  0  0  0  0  0
   34.4500   30.4270   32.7670 C   0  0  0  0  0  0  0  0  0  0  0  0
   35.1070   29.9100   31.6750 N   0  0  0  0  0  0  0  0  0  0  0  0
   36.0390   28.9480   31.8000 C   0  0  0  0  0  0  0  0  0  0  0  0
   36.3660   28.4500   33.0100 N   0  0  0  0  0  0  0  0  0  0  0  0
   36.0050   28.5330   35.0720 H   0  0  0  0  0  0  0  0  0  0  0  0
   33.7260   31.1860   32.5910 H   0  0  0  0  0  0  0  0  0  0  0  0
   36.5090   28.5940   30.9040 H   0  0  0  0  0  0  0  0  0  0  0  0
   36.1610   32.2830   35.5880 Br  0  0  0  0  0  0  0  0  0  0  0  0
   34.4910   31.4930   36.0230 C   0  0  0  0  0  0  0  0  0  0  0  0
   34.0830   30.4650   35.1990 C   0  0  0  0  0  0  0  0  0  0  0  0
   32.8630   29.8320   35.4550 C   0  0  0  0  0  0  0  0  0  0  0  0
   32.4400   29.0020   34.8660 H   0  0  0  0  0  0  0  0  0  0  0  0
   32.0810   30.2500   36.5360 C   0  0  0  0  0  0  0  0  0  0  0  0
   31.1300   29.7940   36.7760 H   0  0  0  0  0  0  0  0  0  0  0  0
   32.5500   31.2700   37.3020 C   0  0  0  0  0  3  0  0  0  0  0  0
   33.7480   31.9190   37.0820 C   0  0  0  0  0  3  0  0  0  0  0  0
  1  7  1  0  0  0  0
  2  1  1  0  0  0  0
  2 12  1  0  0  0  0
  3  2  2  0  0  0  0
  4  5  2  0  0  0  0
  4  3  1  0  0  0  0
  5  6  1  0  0  0  0
  6  1  2  0  0  0  0
  8  3  1  0  0  0  0
  9  5  1  0  0  0  0
 10 11  1  0  0  0  0
 11 18  1  0  0  0  0
 12 13  1  0  0  0  0
 12 11  2  0  0  0  0
 13 15  2  0  0  0  0
 14 13  1  0  0  0  0
 15 16  1  0  0  0  0
 15 17  1  0  0  0  0
 18 17  2  0  0  0  0
M  END
>  <minimizedAffinity>
-3.89617944

$$$$

 OpenBabel03262521033D

 18 19  0  0  0  0  0  0  0  0999 V2000
   38.2330   23.6710   36.7930 C   0  0  0  0  0  0  0  0  0  0  0  0
   38.8660   24.0420   35.5980 C   0  0  0  0  0  0  0  0  0  0  0  0
   40.2340   23.7260   35.4550 C   0  0  0  0  0  0  0  0  0  0  0  0
   40.8590   23.0750   36.4930 N   0  0  0  0  0  0  0  0  0  0  0  0
   40.2000   22.7440   37.6180 C   0  0  0  0  0  0  0  0  0  0  0  0
   38.8930   23.0390   37.7720 N   0  0  0  0  0  0  0  0  0  0  0  0
   37.2000   23.9110   36.8980 H   0  0  0  0  0  0  0  0  0  0  0  0
   40.8180   23.9560   34.5960 H   0  0  0  0  0  0  0  0  0  0  0  0
   40.7530   22.2380   38.3840 H   0  0  0  0  0  0  0  0  0  0  0  0
   38.5640   27.1670   35.8060 Br  0  0  0  0  0  0  0  0  0  0  0  0
   37.9600   26.0830   34.3690 C   0  0  0  0  0  0  0  0  0  0  0  0
   38.2030   24.7320   34.4970 C   0  0  0  0  0  0  0  0  0  0  0  0
   37.7880   23.8670   33.4790 C   0  0  0  0  0  0  0  0  0  0  0  0
   37.9280   22.7740   33.4750 H   0  0  0  0  0  0  0  0  0  0  0  0
   37.1360   24.3850   32.3560 C   0  0  0  0  0  0  0  0  0  0  0  0
   36.7950   23.7600   31.5420 H   0  0  0  0  0  0  0  0  0  0  0  0
   36.9330   25.7280   32.3030 C   0  0  0  0  0  3  0  0  0  0  0  0
   37.3280   26.6130   33.2850 C   0  0  0  0  0  3  0  0  0  0  0  0
  1  7  1  0  0  0  0
  1  6  1  0  0  0  0
  2  1  2  0  0  0  0
  3  2  1  0  0  0  0
  3  4  2  0  0  0  0
  4  5  1  0  0  0  0
  5  6  2  0  0  0  0
  5  9  1  0  0  0  0
  8  3  1  0  0  0  0
 11 12  1  0  0  0  0
 11 10  1  0  0  0  0
 12  2  1  0  0  0  0
 13 12  2  0  0  0  0
 14 13  1  0  0  0  0
 15 13  1  0  0  0  0
 16 15  1  0  0  0  0
 17 15  2  0  0  0  0
 17 18  1  0  0  0  0
 18 11  2  0  0  0  0
M  END
>  <minimizedAffinity>
-3.84485149

$$$$

 OpenBabel03262521033D

 18 19  0  0  0  0  0  0  0  0999 V2000
   37.3720   23.9960   32.8270 C   0  0  0  0  0  0  0  0  0  0  0  0
   36.4730   23.4510   31.8980 C   0  0  0  0  0  0  0  0  0  0  0  0
   35.6820   24.3480   31.1480 C   0  0  0  0  0  0  0  0  0  0  0  0
   35.8410   25.6950   31.3750 N   0  0  0  0  0  0  0  0  0  0  0  0
   36.7200   26.1600   32.2810 C   0  0  0  0  0  0  0  0  0  0  0  0
   37.4840   25.3180   33.0050 N   0  0  0  0  0  0  0  0  0  0  0  0
   37.9680   23.3160   33.3910 H   0  0  0  0  0  0  0  0  0  0  0  0
   34.9680   24.0530   30.4170 H   0  0  0  0  0  0  0  0  0  0  0  0
   36.7890   27.2230   32.4030 H   0  0  0  0  0  0  0  0  0  0  0  0
   38.6910   21.9840   30.2160 Br  0  0  0  0  0  0  0  0  0  0  0  0
   37.1380   21.1790   30.9540 C   0  0  0  0  0  0  0  0  0  0  0  0
   36.3040   22.0230   31.6570 C   0  0  0  0  0  0  0  0  0  0  0  0
   35.1390   21.5040   32.2310 C   0  0  0  0  0  0  0  0  0  0  0  0
   34.4020   22.0830   32.8110 H   0  0  0  0  0  0  0  0  0  0  0  0
   34.8420   20.1460   32.0830 C   0  0  0  0  0  0  0  0  0  0  0  0
   33.9550   19.6960   32.5070 H   0  0  0  0  0  0  0  0  0  0  0  0
   35.7130   19.3790   31.3770 C   0  0  0  0  0  3  0  0  0  0  0  0
   36.8720   19.8530   30.7960 C   0  0  0  0  0  3  0  0  0  0  0  0
  1  6  1  0  0  0  0
  1  7  1  0  0  0  0
  2  1  2  0  0  0  0
  3  4  2  0  0  0  0
  3  2  1  0  0  0  0
  4  5  1  0  0  0  0
  5  9  1  0  0  0  0
  5  6  2  0  0  0  0
  8  3  1  0  0  0  0
 10 11  1  0  0  0  0
 11 12  1  0  0  0  0
 12  2  1  0  0  0  0
 12 13  2  0  0  0  0
 13 14  1  0  0  0  0
 15 13  1  0  0  0  0
 15 16  1  0  0  0  0
 17 15  2  0  0  0  0
 18 11  2  0  0  0  0
 18 17  1  0  0  0  0
M  END
>  <minimizedAffinity>
-3.8345747

$$$$

 OpenBabel03262521033D

 18 19  0  0  0  0  0  0  0  0999 V2000
   36.6660   24.3910   32.2560 C   0  0  0  0  0  0  0  0  0  0  0  0
   36.8880   25.7430   32.5610 C   0  0  0  0  0  0  0  0  0  0  0  0
   36.1070   26.7040   31.8840 C   0  0  0  0  0  0  0  0  0  0  0  0
   35.1810   26.2560   30.9710 N   0  0  0  0  0  0  0  0  0  0  0  0
   35.0120   24.9460   30.7190 C   0  0  0  0  0  0  0  0  0  0  0  0
   35.7500   24.0140   31.3570 N   0  0  0  0  0  0  0  0  0  0  0  0
   37.2580   23.6690   32.7690 H   0  0  0  0  0  0  0  0  0  0  0  0
   36.1840   27.7540   32.0310 H   0  0  0  0  0  0  0  0  0  0  0  0
   34.2710   24.6720   29.9940 H   0  0  0  0  0  0  0  0  0  0  0  0
   39.8200   26.2450   31.5370 Br  0  0  0  0  0  0  0  0  0  0  0  0
   39.2010   26.5030   33.3130 C   0  0  0  0  0  0  0  0  0  0  0  0
   37.8700   26.2170   33.5290 C   0  0  0  0  0  0  0  0  0  0  0  0
   37.3380   26.3820   34.8130 C   0  0  0  0  0  0  0  0  0  0  0  0
   36.2940   26.1830   35.1000 H   0  0  0  0  0  0  0  0  0  0  0  0
   38.1630   26.8320   35.8480 C   0  0  0  0  0  0  0  0  0  0  0  0
   37.8020   26.9760   36.8580 H   0  0  0  0  0  0  0  0  0  0  0  0
   39.4650   27.0930   35.5560 C   0  0  0  0  0  3  0  0  0  0  0  0
   40.0250   26.9430   34.3040 C   0  0  0  0  0  3  0  0  0  0  0  0
  1  2  1  0  0  0  0
  1  7  1  0  0  0  0
  2 12  1  0  0  0  0
  3  8  1  0  0  0  0
  3  2  2  0  0  0  0
  4  3  1  0  0  0  0
  5  4  2  0  0  0  0
  5  6  1  0  0  0  0
  6  1  2  0  0  0  0
  9  5  1  0  0  0  0
 10 11  1  0  0  0  0
 11 12  2  0  0  0  0
 11 18  1  0  0  0  0
 12 13  1  0  0  0  0
 13 14  1  0  0  0  0
 13 15  2  0  0  0  0
 15 16  1  0  0  0  0
 17 15  1  0  0  0  0
 18 17  2  0  0  0  0
M  END
>  <minimizedAffinity>
-3.81713629

$$$$
