REMARK  Name = 
REMARK  7 active torsions:
REMARK  status: ('A' for Active; 'I' for Inactive)
REMARK    1  A    between atoms: C_3  and  C_12
REMARK    2  A    between atoms: C_7  and  C_14
REMARK    3  A    between atoms: C_14  and  C_15
REMARK    4  A    between atoms: C_15  and  N_16
REMARK    5  A    between atoms: N_16  and  C_17
REMARK    6  A    between atoms: C_17  and  C_18
REMARK    7  A    between atoms: C_18  and  C_36
REMARK                            x       y       z     vdW  Elec       q    Type
REMARK                         _______ _______ _______ _____ _____    ______ ____
ROOT
ATOM      1  C   UNL     1      35.222  30.305  49.295  0.00  0.00    +0.000 C 
ATOM      2  H   UNL     1      34.978  31.350  49.648  0.00  0.00    +0.000 HD
ATOM      3  H   UNL     1      36.089  29.984  49.920  0.00  0.00    +0.000 HD
ENDROOT
BRANCH   1  10
ATOM      4 BR   UNL     1      38.121  31.487  48.934  0.00  0.00    +0.000 Br
ATOM      5  C   UNL     1      36.927  30.881  47.550  0.00  0.00    +0.000 A 
ATOM      6  C   UNL     1      37.306  30.934  46.227  0.00  0.00    +0.000 A 
ATOM      7  C   UNL     1      36.419  30.502  45.290  0.00  0.00    +0.000 A 
ATOM      8  C   UNL     1      35.162  30.017  45.624  0.00  0.00    +0.000 A 
ATOM      9  C   UNL     1      34.812  29.978  46.975  0.00  0.00    +0.000 A 
ATOM     10  C   UNL     1      35.701  30.411  47.919  0.00  0.00    +0.000 A 
ATOM     11  H   UNL     1      36.776  30.566  44.248  0.00  0.00    +0.000 HD
ATOM     12  H   UNL     1      34.596  29.721  44.776  0.00  0.00    +0.000 HD
ATOM     13  H   UNL     1      33.820  29.595  47.019  0.00  0.00    +0.000 HD
BRANCH   6  18
ATOM     14  C   UNL     1      39.877  33.281  45.117  0.00  0.00    +0.000 A 
ATOM     15  C   UNL     1      41.069  32.491  45.102  0.00  0.00    +0.000 A 
ATOM     16  C   UNL     1      40.947  31.169  45.477  0.00  0.00    +0.000 A 
ATOM     17  N   UNL     1      39.721  30.663  45.843  0.00  0.00    +0.000 NA
ATOM     18  C   UNL     1      38.628  31.449  45.840  0.00  0.00    +0.000 A 
ATOM     19  N   UNL     1      38.722  32.738  45.479  0.00  0.00    +0.000 NA
ATOM     20  H   UNL     1      39.925  34.314  44.833  0.00  0.00    +0.000 HD
ATOM     21  H   UNL     1      41.961  32.983  44.803  0.00  0.00    +0.000 HD
ATOM     22  H   UNL     1      41.841  30.566  45.468  0.00  0.00    +0.000 HD
ENDBRANCH   6  18
ENDBRANCH   1  10
BRANCH   1  23
ATOM     23  C   UNL     1      34.123  29.342  49.554  0.00  0.00    +0.000 C 
ATOM     24  H   UNL     1      33.209  29.667  49.104  0.00  0.00    +0.000 HD
ATOM     25  H   UNL     1      33.926  29.459  50.678  0.00  0.00    +0.000 HD
BRANCH  23  26
ATOM     26  N   UNL     1      34.602  28.022  49.414  0.00  0.00    +0.000 NA
ATOM     27  H   UNL     1      35.636  27.961  49.230  0.00  0.00    +0.000 HD
BRANCH  26  28
ATOM     28  C   UNL     1      33.897  27.153  48.540  0.00  0.00    +0.000 C 
ATOM     29  H   UNL     1      34.281  27.167  47.493  0.00  0.00    +0.000 HD
ATOM     30  H   UNL     1      33.920  26.090  48.880  0.00  0.00    +0.000 HD
BRANCH  28  31
ATOM     31  C   UNL     1      32.467  27.579  48.514  0.00  0.00    +0.000 C 
ATOM     32  H   UNL     1      32.013  27.363  49.507  0.00  0.00    +0.000 HD
ATOM     33  H   UNL     1      32.187  28.517  48.082  0.00  0.00    +0.000 HD
BRANCH  31  36
ATOM     34 BR   UNL     1      29.391  28.210  48.106  0.00  0.00    +0.000 Br
ATOM     35  C   UNL     1      30.400  26.756  47.360  0.00  0.00    +0.000 A 
ATOM     36  C   UNL     1      31.744  26.580  47.600  0.00  0.00    +0.000 A 
ATOM     37  C   UNL     1      32.385  25.513  47.017  0.00  0.00    +0.000 A 
ATOM     38  H   UNL     1      33.444  25.372  47.205  0.00  0.00    +0.000 HD
ATOM     39  C   UNL     1      31.634  24.677  46.221  0.00  0.00    +0.000 A 
ATOM     40  H   UNL     1      32.102  23.827  45.745  0.00  0.00    +0.000 HD
ATOM     41  C   UNL     1      30.288  24.845  45.975  0.00  0.00    +0.000 A 
ATOM     42  C   UNL     1      29.633  25.929  46.566  0.00  0.00    +0.000 A 
ENDBRANCH  31  36
ENDBRANCH  28  31
ENDBRANCH  26  28
ENDBRANCH  23  26
ENDBRANCH   1  23
TORSDOF 7
