
 OpenBabel03272509503D

 33 35  0  0  0  0  0  0  0  0999 V2000
   37.3130   30.1700   51.5000 C   0  0  0  0  0  0  0  0  0  0  0  0
   38.0370   30.8470   50.5140 C   0  0  0  0  0  0  0  0  0  0  0  0
   37.7230   30.6360   49.1920 C   0  0  0  0  0  0  0  0  0  0  0  0
   36.6980   29.7490   48.9700 N   0  0  0  0  0  0  0  0  0  0  0  0
   36.0180   29.1100   49.9100 C   0  0  0  0  0  0  0  0  0  0  0  0
   36.3390   29.3330   51.1930 N   0  0  0  0  0  0  0  0  0  0  0  0
   37.5970   30.3700   52.5370 H   0  0  0  0  0  0  0  0  0  0  0  0
   38.8120   31.4900   50.7710 H   0  0  0  0  0  0  0  0  0  0  0  0
   38.9490   33.6530   49.2300 Br  0  0  0  0  0  0  0  0  0  0  0  0
   38.9200   32.4220   47.8160 C   0  0  0  0  0  0  0  0  0  0  0  0
   38.3490   31.2040   48.0110 C   0  0  0  0  0  0  0  0  0  0  0  0
   38.3660   30.4140   46.8660 C   0  0  0  0  0  0  0  0  0  0  0  0
   37.9460   29.3950   46.8380 H   0  0  0  0  0  0  0  0  0  0  0  0
   38.9030   30.8110   45.6630 C   0  0  0  0  0  0  0  0  0  0  0  0
   38.8960   30.1720   44.8080 H   0  0  0  0  0  0  0  0  0  0  0  0
   39.4670   32.0580   45.5380 C   0  0  0  0  0  0  0  0  0  0  0  0
   39.4660   32.8580   46.6350 C   0  0  0  0  0  0  0  0  0  0  0  0
   35.0480   28.2820   49.4170 O   0  0  0  0  0  0  0  0  0  0  0  0
   34.2100   28.7610   48.3700 C   0  0  0  0  0  0  0  0  0  0  0  0
   34.7270   29.3550   47.6200 H   0  0  0  0  0  0  0  0  0  0  0  0
   33.4900   29.4680   48.8750 H   0  0  0  0  0  0  0  0  0  0  0  0
   33.3850   27.6340   47.8190 C   0  0  0  0  0  0  0  0  0  0  0  0
   33.6900   27.5110   46.7440 H   0  0  0  0  0  0  0  0  0  0  0  0
   33.5720   26.6570   48.3100 H   0  0  0  0  0  0  0  0  0  0  0  0
   31.9300   27.9640   47.7900 C   0  0  0  0  0  0  0  0  0  0  0  0
   31.1790   27.5730   48.8910 C   0  0  0  0  0  0  0  0  0  0  0  0
   29.8320   27.8110   49.0030 C   0  0  0  0  0  0  0  0  0  0  0  0
   29.2340   28.4460   48.0060 N   0  0  0  0  0  0  0  0  0  0  0  0
   29.9580   28.8340   46.9220 C   0  0  0  0  0  0  0  0  0  0  0  0
   31.2850   28.6080   46.7940 N   0  0  0  0  0  0  0  0  0  0  0  0
   31.6730   27.0450   49.7210 H   0  0  0  0  0  0  0  0  0  0  0  0
   29.3180   27.4820   49.8770 H   0  0  0  0  0  0  0  0  0  0  0  0
   29.4160   29.3480   46.1400 H   0  0  0  0  0  0  0  0  0  0  0  0
  1  7  1  0  0  0  0
  2  8  1  0  0  0  0
  2  1  2  0  0  0  0
  3  2  1  0  0  0  0
  4  3  2  0  0  0  0
  4  5  1  0  0  0  0
  5  6  2  0  0  0  0
  6  1  1  0  0  0  0
 10 11  1  0  0  0  0
 10  9  1  0  0  0  0
 11  3  1  0  0  0  0
 12 11  2  0  0  0  0
 13 12  1  0  0  0  0
 14 12  1  0  0  0  0
 15 14  1  0  0  0  0
 16 14  2  0  0  0  0
 16 17  1  0  0  0  0
 17 10  2  0  0  0  0
 18  5  1  0  0  0  0
 19 21  1  0  0  0  0
 19 18  1  0  0  0  0
 20 19  1  0  0  0  0
 22 24  1  0  0  0  0
 22 19  1  0  0  0  0
 23 22  1  0  0  0  0
 25 22  1  0  0  0  0
 25 26  1  0  0  0  0
 26 27  2  0  0  0  0
 26 31  1  0  0  0  0
 27 32  1  0  0  0  0
 28 27  1  0  0  0  0
 29 28  2  0  0  0  0
 30 29  1  0  0  0  0
 30 25  2  0  0  0  0
 33 29  1  0  0  0  0
M  END
>  <minimizedAffinity>
-6.35409737

>  <minimizedRMSD>
1.07523453

$$$$
