
     RDKit          3D

 31 33  0  0  0  0  0  0  0  0999 V2000
   37.1217   30.2712   50.3237 C   0  0  0  0  0  0  0  0  0  0  0  0
   37.5084   30.1386   51.4974 O   0  0  0  0  0  0  0  0  0  0  0  0
   37.7929   31.0762   49.3331 C   0  0  0  0  0  0  0  0  0  0  0  0
   38.1078   32.3828   49.6720 C   0  0  0  0  0  0  0  0  0  0  0  0
   38.7512   33.2134   48.7760 C   0  0  0  0  0  0  0  0  0  0  0  0
   39.0497   32.6774   47.5646 N   0  0  0  0  0  0  0  0  0  0  0  0
   38.7479   31.4052   47.2224 C   0  0  0  0  0  0  0  0  0  0  0  0
   38.1194   30.6217   48.1216 N   0  0  0  0  0  0  0  0  0  0  0  0
   35.9140   29.5741   49.9073 C   0  0  0  0  0  0  0  0  0  0  0  0
   34.6874   29.8925   50.4006 C   0  0  0  0  0  0  0  0  0  0  0  0
   33.7630   29.0300   49.7881 C   0  0  0  0  0  0  0  0  0  0  0  0
   34.5191   28.2261   48.9416 C   0  0  0  0  0  0  0  0  0  0  0  0
   35.7629   28.5953   49.0592 O   0  0  0  0  0  0  0  0  0  0  0  0
   33.9741   27.1639   48.0861 C   0  0  0  0  0  0  0  0  0  0  0  0
   32.7354   26.9238   48.1024 O   0  0  0  0  0  0  0  0  0  0  0  0
   37.8507   32.7790   50.6588 H   0  0  0  0  0  0  0  0  0  0  0  0
   39.0259   34.2315   48.9674 H   0  0  0  0  0  0  0  0  0  0  0  0
   39.0151   31.0377   46.2352 H   0  0  0  0  0  0  0  0  0  0  0  0
   34.3986   30.6472   51.1235 H   0  0  0  0  0  0  0  0  0  0  0  0
   32.6848   29.0261   49.9686 H   0  0  0  0  0  0  0  0  0  0  0  0
   33.9571   27.8526   45.0190 Br  0  0  0  0  0  0  0  0  0  0  0  0
   35.0719   26.5632   45.8750 C   0  0  0  0  0  0  0  0  0  0  0  0
   34.9164   26.4187   47.2370 C   0  0  0  0  0  0  0  0  0  0  0  0
   35.6899   25.4971   47.9531 C   0  0  0  0  0  0  0  0  0  0  0  0
   35.6421   25.3111   49.0170 H   0  0  0  0  0  0  0  0  0  0  0  0
   36.5934   24.7748   47.1716 C   0  0  0  0  0  0  0  0  0  0  0  0
   37.2114   24.0440   47.7175 H   0  0  0  0  0  0  0  0  0  0  0  0
   36.7908   24.8776   45.8103 C   0  0  0  0  0  0  0  0  0  0  0  0
   35.9906   25.8070   45.1796 C   0  0  0  0  0  0  0  0  0  0  0  0
   37.5193   24.2589   45.3475 H   0  0  0  0  0  0  0  0  0  0  0  0
   36.0983   25.9346   44.1118 H   0  0  0  0  0  0  0  0  0  0  0  0
  1  2  2  0
  3  4  2  0
  3  1  1  0
  5  4  1  0
  6  5  2  0
  7  6  1  0
  7  8  2  0
  8  3  1  0
  9  1  1  0
  9 10  2  0
 11 10  1  0
 12 13  1  0
 12 11  2  0
 13  9  1  0
 14 15  2  0
 14 12  1  0
  4 16  1  0
  5 17  1  0
  7 18  1  0
 10 19  1  0
 11 20  1  0
 21 22  1  0
 22 23  2  0
 23 24  1  0
 24 25  1  0
 24 26  2  0
 26 27  1  0
 26 28  1  0
 28 29  2  0
 29 22  1  0
 28 30  1  0
 29 31  1  0
 14 23  1  0
M  ISO  7  16  14  17  14  18  14  19  14  20  14  25  15  27  16
M  END
>  <DihAtoms>  (1) 
14,13,22,21

>  <DihDeg>  (1) 
45.107455122411956

$$$$
