REMARK  Name = 
REMARK  4 active torsions:
REMARK  status: ('A' for Active; 'I' for Inactive)
REMARK    1  A    between atoms: C_1  and  C_3
REMARK    2  A    between atoms: C_1  and  C_9
REMARK    3  A    between atoms: C_12  and  C_14
REMARK    4  A    between atoms: C_14  and  C_23
REMARK                            x       y       z     vdW  Elec       q    Type
REMARK                         _______ _______ _______ _____ _____    ______ ____
ROOT
ATOM      1  C   UNL     1      35.914  29.574  49.907  0.00  0.00    +0.000 A 
ATOM      2  C   UNL     1      34.687  29.892  50.401  0.00  0.00    +0.000 A 
ATOM      3  C   UNL     1      33.763  29.030  49.788  0.00  0.00    +0.000 A 
ATOM      4  C   UNL     1      34.519  28.226  48.942  0.00  0.00    +0.000 A 
ATOM      5  O   UNL     1      35.763  28.595  49.059  0.00  0.00    +0.000 OA
ATOM      6  H   UNL     1      34.399  30.647  51.123  0.00  0.00    +0.000 HD
ATOM      7  H   UNL     1      32.685  29.026  49.969  0.00  0.00    +0.000 HD
ENDROOT
BRANCH   1   8
ATOM      8  C   UNL     1      37.122  30.271  50.324  0.00  0.00    +0.000 C 
ATOM      9  O   UNL     1      37.508  30.139  51.497  0.00  0.00    +0.000 OA
BRANCH   8  10
ATOM     10  C   UNL     1      37.793  31.076  49.333  0.00  0.00    +0.000 A 
ATOM     11  C   UNL     1      38.108  32.383  49.672  0.00  0.00    +0.000 A 
ATOM     12  C   UNL     1      38.751  33.213  48.776  0.00  0.00    +0.000 A 
ATOM     13  N   UNL     1      39.050  32.677  47.565  0.00  0.00    +0.000 NA
ATOM     14  C   UNL     1      38.748  31.405  47.222  0.00  0.00    +0.000 A 
ATOM     15  N   UNL     1      38.119  30.622  48.122  0.00  0.00    +0.000 NA
ATOM     16  H   UNL     1      37.851  32.779  50.659  0.00  0.00    +0.000 HD
ATOM     17  H   UNL     1      39.026  34.231  48.967  0.00  0.00    +0.000 HD
ATOM     18  H   UNL     1      39.015  31.038  46.235  0.00  0.00    +0.000 HD
ENDBRANCH   8  10
ENDBRANCH   1   8
BRANCH   4  19
ATOM     19  C   UNL     1      33.974  27.164  48.086  0.00  0.00    +0.000 C 
ATOM     20  O   UNL     1      32.735  26.924  48.102  0.00  0.00    +0.000 OA
BRANCH  19  23
ATOM     21 BR   UNL     1      33.957  27.853  45.019  0.00  0.00    +0.000 Br
ATOM     22  C   UNL     1      35.072  26.563  45.875  0.00  0.00    +0.000 A 
ATOM     23  C   UNL     1      34.916  26.419  47.237  0.00  0.00    +0.000 A 
ATOM     24  C   UNL     1      35.690  25.497  47.953  0.00  0.00    +0.000 A 
ATOM     25  H   UNL     1      35.642  25.311  49.017  0.00  0.00    +0.000 HD
ATOM     26  C   UNL     1      36.593  24.775  47.172  0.00  0.00    +0.000 A 
ATOM     27  H   UNL     1      37.211  24.044  47.718  0.00  0.00    +0.000 HD
ATOM     28  C   UNL     1      36.791  24.878  45.810  0.00  0.00    +0.000 A 
ATOM     29  C   UNL     1      35.991  25.807  45.180  0.00  0.00    +0.000 A 
ENDBRANCH  19  23
ENDBRANCH   4  19
TORSDOF 4
