
 OpenBabel03272510263D

 39 42  0  0  1  0  0  0  0  0999 V2000
   36.2400   30.1990   46.8660 C   0  0  0  0  0  0  0  0  0  0  0  0
   37.0850   30.7720   47.8140 C   0  0  0  0  0  0  0  0  0  0  0  0
   38.0660   31.6770   47.4410 C   0  0  0  0  0  0  0  0  0  0  0  0
   38.1610   31.9770   46.0870 C   0  0  0  0  0  0  0  0  0  0  0  0
   39.0370   32.8300   45.4840 N   0  0  0  0  0  0  0  0  0  0  0  0
   38.7530   32.7970   44.1710 C   0  0  0  0  0  0  0  0  0  0  0  0
   37.7550   31.9730   43.9410 N   0  0  0  0  0  0  0  0  0  0  0  0
   37.3460   31.4320   45.1150 C   0  0  0  0  0  0  0  0  0  0  0  0
   36.3610   30.5200   45.5180 C   0  0  0  0  0  0  0  0  0  0  0  0
   35.4540   29.4880   47.0760 H   0  0  0  0  0  0  0  0  0  0  0  0
   38.7160   32.1160   48.1830 H   0  0  0  0  0  0  0  0  0  0  0  0
   39.7890   33.4020   45.9540 H   0  0  0  0  0  0  0  0  0  0  0  0
   35.7260   30.0980   44.7480 H   0  0  0  0  0  0  0  0  0  0  0  0
   37.5000   30.1580   51.4910 C   0  0  0  0  0  0  0  0  0  0  0  0
   37.7950   30.5960   50.2110 C   0  0  0  0  0  0  0  0  0  0  0  0
   36.8820   30.3640   49.1890 C   0  0  0  0  0  0  0  0  0  0  0  0
   35.7280   29.7070   49.5100 N   0  0  0  0  0  0  0  0  0  0  0  0
   35.4500   29.2850   50.7590 C   0  0  0  0  0  0  0  0  0  0  0  0
   36.3320   29.5110   51.7310 N   0  0  0  0  0  0  0  0  0  0  0  0
   38.2060   30.3360   52.2820 H   0  0  0  0  0  0  0  0  0  0  0  0
   38.7140   31.1150   49.9720 H   0  0  0  0  0  0  0  0  0  0  0  0
   34.4930   28.7760   50.8630 H   0  0  0  0  0  0  0  0  0  0  0  0
   39.4730   33.5680   43.2450 O   0  0  0  0  0  0  0  0  0  0  0  0
   39.5810   31.8650   41.7310 N   0  0  0  0  0  0  0  0  0  0  0  0
   39.2200   33.2900   41.8760 C   0  0  1  0  0  0  0  0  0  0  0  0
   37.8110   33.4480   41.5270 C   0  0  0  0  0  0  0  0  0  0  0  0
   37.6510   33.1410   40.1640 O   0  0  0  0  0  0  0  0  0  0  0  0
   38.0990   31.9100   39.7870 C   0  0  0  0  0  0  0  0  0  0  0  0
   39.4680   31.5820   40.3190 C   0  0  2  0  0  0  0  0  0  0  0  0
   40.6200   31.8620   41.9390 H   0  0  0  0  0  0  0  0  0  0  0  0
   39.8320   33.9100   41.2020 H   0  0  0  0  0  0  0  0  0  0  0  0
   37.5750   34.5550   41.5720 H   0  0  0  0  0  0  0  0  0  0  0  0
   37.0070   32.9490   41.9950 H   0  0  0  0  0  0  0  0  0  0  0  0
   37.3960   31.0720   40.0600 H   0  0  0  0  0  0  0  0  0  0  0  0
   38.2010   31.9370   38.6800 H   0  0  0  0  0  0  0  0  0  0  0  0
   40.2750   32.0910   39.7510 H   0  0  0  0  0  0  0  0  0  0  0  0
   39.7090   30.0840   40.1660 C   0  0  0  0  0  2  0  0  0  0  0  0
   39.2220   29.2990   41.3380 C   0  0  0  0  0  2  0  0  0  0  0  0
   38.4690   29.8210   41.9610 H   0  0  0  0  0  0  0  0  0  0  0  0
  1 10  1  0  0  0  0
  1  2  1  0  0  0  0
  2 16  1  0  0  0  0
  3  2  2  0  0  0  0
  3 11  1  0  0  0  0
  4  3  1  0  0  0  0
  5 12  1  0  0  0  0
  5  4  1  0  0  0  0
  6  5  1  0  0  0  0
  7  6  2  0  0  0  0
  7  8  1  0  0  0  0
  8  9  1  0  0  0  0
  8  4  2  0  0  0  0
  9  1  2  0  0  0  0
 13  9  1  0  0  0  0
 14 19  1  0  0  0  0
 14 20  1  0  0  0  0
 15 14  2  0  0  0  0
 16 17  2  0  0  0  0
 16 15  1  0  0  0  0
 17 18  1  0  0  0  0
 18 22  1  0  0  0  0
 18 19  2  0  0  0  0
 21 15  1  0  0  0  0
 23  6  1  0  0  0  0
 24 25  1  0  0  0  0
 24 30  1  0  0  0  0
 25 31  1  6  0  0  0
 25 23  1  0  0  0  0
 26 32  1  0  0  0  0
 26 25  1  0  0  0  0
 26 33  1  0  0  0  0
 27 26  1  0  0  0  0
 28 34  1  0  0  0  0
 28 27  1  0  0  0  0
 28 29  1  0  0  0  0
 29 36  1  6  0  0  0
 29 24  1  0  0  0  0
 35 28  1  0  0  0  0
 37 29  1  0  0  0  0
 37 38  1  0  0  0  0
 38 39  1  0  0  0  0
M  END
>  <minimizedAffinity>
-5.53565645

>  <minimizedRMSD>
0.281682372

$$$$
