
 OpenBabel03272505473D

 28 30  0  0  0  0  0  0  0  0999 V2000
   37.2520   30.8500   45.8790 C   0  0  0  0  0  0  0  0  0  0  0  0
   36.7180   29.7090   45.1060 C   0  0  0  0  0  0  0  0  0  0  0  0
   36.1270   31.0790   44.9200 C   0  0  0  0  0  0  0  0  0  0  0  0
   37.2940   29.3150   44.2560 H   0  0  0  0  0  0  0  0  0  0  0  0
   36.0090   29.0230   45.6540 H   0  0  0  0  0  0  0  0  0  0  0  0
   35.1290   31.3310   45.3320 H   0  0  0  0  0  0  0  0  0  0  0  0
   36.3660   31.6700   44.0110 H   0  0  0  0  0  0  0  0  0  0  0  0
   39.7700   33.3160   44.7580 C   0  0  0  0  0  0  0  0  0  0  0  0
   40.9830   32.6290   44.9600 C   0  0  0  0  0  0  0  0  0  0  0  0
   40.9240   31.3150   45.4800 C   0  0  0  0  0  0  0  0  0  0  0  0
   39.7090   30.7780   45.7590 N   0  0  0  0  0  0  0  0  0  0  0  0
   38.5470   31.4770   45.5500 C   0  0  0  0  0  0  0  0  0  0  0  0
   38.5760   32.7310   45.0550 N   0  0  0  0  0  0  0  0  0  0  0  0
   39.8770   34.3120   44.3610 H   0  0  0  0  0  0  0  0  0  0  0  0
   41.9440   33.0400   44.7450 H   0  0  0  0  0  0  0  0  0  0  0  0
   41.7890   30.7040   45.6710 H   0  0  0  0  0  0  0  0  0  0  0  0
   36.9560   30.9150   47.3500 C   0  0  0  0  0  0  0  0  0  0  0  0
   37.7010   31.6810   48.1840 C   0  0  0  0  0  0  0  0  0  0  0  0
   37.4150   31.7400   49.5430 C   0  0  0  0  0  0  0  0  0  0  0  0
   36.3430   30.9890   50.0180 C   0  0  0  0  0  0  0  0  0  0  0  0
   35.5830   30.2030   49.1530 C   0  0  0  0  0  0  0  0  0  0  0  0
   35.9250   30.2020   47.8560 N   0  0  0  0  0  0  0  0  0  0  0  0
   38.5590   32.2890   47.9820 H   0  0  0  0  0  0  0  0  0  0  0  0
   37.9380   32.3150   50.2950 H   0  0  0  0  0  0  0  0  0  0  0  0
   36.0640   30.9910   51.0740 H   0  0  0  0  0  0  0  0  0  0  0  0
   34.4530   29.4230   49.7200 C   0  0  0  0  0  0  0  0  0  0  0  0
   34.3520   28.0540   49.1430 C   0  0  0  0  0  0  0  0  0  0  0  0
   33.5560   27.5200   49.6980 H   0  0  0  0  0  0  0  0  0  0  0  0
  1 17  1  0  0  0  0
  2  5  1  0  0  0  0
  2  1  1  0  0  0  0
  3  2  1  0  0  0  0
  3  6  1  0  0  0  0
  3  1  1  0  0  0  0
  4  2  1  0  0  0  0
  7  3  1  0  0  0  0
  8  9  2  0  0  0  0
  8 13  1  0  0  0  0
  9 10  1  0  0  0  0
 10 16  1  0  0  0  0
 10 11  2  0  0  0  0
 12 11  1  0  0  0  0
 12  1  1  0  0  0  0
 13 12  2  0  0  0  0
 14  8  1  0  0  0  0
 15  9  1  0  0  0  0
 17 22  2  0  0  0  0
 17 18  1  0  0  0  0
 18 19  2  0  0  0  0
 19 20  1  0  0  0  0
 19 24  1  0  0  0  0
 20 25  1  0  0  0  0
 21 26  1  0  0  0  0
 21 20  2  0  0  0  0
 22 21  1  0  0  0  0
 23 18  1  0  0  0  0
 27 28  1  0  0  0  0
 27 26  1  0  0  0  0
M  END
>  <minimizedAffinity>
-4.8965559

>  <minimizedRMSD>
2.69160509

$$$$
