
 OpenBabel03272506523D

 28 29  0  0  1  0  0  0  0  0999 V2000
   39.2030   24.4260   34.5580 C   0  0  1  0  0  0  0  0  0  0  0  0
   37.9760   24.6780   33.8060 C   0  0  0  0  0  0  0  0  0  0  0  0
   37.4690   26.0940   33.7750 C   0  0  0  0  0  0  0  0  0  0  0  0
   38.5170   27.1300   33.6710 C   0  0  1  0  0  0  0  0  0  0  0  0
   39.7480   26.9100   34.4890 C   0  0  0  0  0  0  0  0  0  0  0  0
   40.2350   25.5010   34.3600 C   0  0  0  0  0  0  0  0  0  0  0  0
   39.7030   23.5020   34.1230 H   0  0  0  0  0  0  0  0  0  0  0  0
   37.1310   24.0220   33.9640 H   0  0  0  0  0  0  0  0  0  0  0  0
   38.2470   24.4960   32.7130 H   0  0  0  0  0  0  0  0  0  0  0  0
   36.7690   26.1940   32.9270 H   0  0  0  0  0  0  0  0  0  0  0  0
   36.8670   26.2510   34.6930 H   0  0  0  0  0  0  0  0  0  0  0  0
   38.0920   28.1080   33.9790 H   0  0  0  0  0  0  0  0  0  0  0  0
   40.5470   27.5740   34.1820 H   0  0  0  0  0  0  0  0  0  0  0  0
   39.4850   27.1010   35.5510 H   0  0  0  0  0  0  0  0  0  0  0  0
   41.1670   25.3860   34.8890 H   0  0  0  0  0  0  0  0  0  0  0  0
   40.5180   25.4020   33.2630 H   0  0  0  0  0  0  0  0  0  0  0  0
   37.9650   24.5450   36.7750 C   0  0  0  0  0  0  0  0  0  0  0  0
   39.0310   24.0530   35.9850 C   0  0  0  0  0  0  0  0  0  0  0  0
   39.9170   23.1890   36.5990 C   0  0  0  0  0  0  0  0  0  0  0  0
   39.7250   22.8620   37.9030 N   0  0  0  0  0  0  0  0  0  0  0  0
   38.7010   23.3490   38.6240 C   0  0  0  0  0  0  0  0  0  0  0  0
   37.8100   24.2010   38.0530 N   0  0  0  0  0  0  0  0  0  0  0  0
   37.2340   25.2250   36.3660 H   0  0  0  0  0  0  0  0  0  0  0  0
   40.7670   22.7300   36.1430 H   0  0  0  0  0  0  0  0  0  0  0  0
   38.5810   23.0650   39.6600 H   0  0  0  0  0  0  0  0  0  0  0  0
   38.9500   27.3100   32.2220 C   0  0  0  0  0  2  0  0  0  0  0  0
   37.8100   27.7190   31.3280 C   0  0  0  0  0  2  0  0  0  0  0  0
   36.8940   27.1710   31.6180 H   0  0  0  0  0  0  0  0  0  0  0  0
  1  7  1  6  0  0  0
  1 18  1  0  0  0  0
  2  8  1  0  0  0  0
  2  1  1  0  0  0  0
  3  2  1  0  0  0  0
  3 11  1  0  0  0  0
  4  3  1  0  0  0  0
  4 12  1  1  0  0  0
  4  5  1  0  0  0  0
  5 14  1  0  0  0  0
  6  5  1  0  0  0  0
  6  1  1  0  0  0  0
  6 15  1  0  0  0  0
  9  2  1  0  0  0  0
 10  3  1  0  0  0  0
 13  5  1  0  0  0  0
 16  6  1  0  0  0  0
 17 22  1  0  0  0  0
 18 19  1  0  0  0  0
 18 17  2  0  0  0  0
 19 20  2  0  0  0  0
 20 21  1  0  0  0  0
 21 25  1  0  0  0  0
 22 21  2  0  0  0  0
 23 17  1  0  0  0  0
 24 19  1  0  0  0  0
 26  4  1  0  0  0  0
 27 28  1  0  0  0  0
 27 26  1  0  0  0  0
M  END
>  <minimizedAffinity>
-4.12220097

$$$$

 OpenBabel03272506523D

 28 29  0  0  1  0  0  0  0  0999 V2000
   39.2410   25.6110   34.6200 C   0  0  1  0  0  0  0  0  0  0  0  0
   38.6370   25.1200   33.3840 C   0  0  0  0  0  0  0  0  0  0  0  0
   37.2370   25.5770   33.0760 C   0  0  0  0  0  0  0  0  0  0  0  0
   36.9490   26.9830   33.4240 C   0  0  1  0  0  0  0  0  0  0  0  0
   37.5100   27.4720   34.7200 C   0  0  0  0  0  0  0  0  0  0  0  0
   38.9410   27.0610   34.8760 C   0  0  0  0  0  0  0  0  0  0  0  0
   40.3710   25.5980   34.4930 H   0  0  0  0  0  0  0  0  0  0  0  0
   38.7020   24.0630   33.1620 H   0  0  0  0  0  0  0  0  0  0  0  0
   39.2360   25.6000   32.5410 H   0  0  0  0  0  0  0  0  0  0  0  0
   37.0490   25.4200   31.9990 H   0  0  0  0  0  0  0  0  0  0  0  0
   36.5410   24.9010   33.6130 H   0  0  0  0  0  0  0  0  0  0  0  0
   35.8490   27.1270   33.4700 H   0  0  0  0  0  0  0  0  0  0  0  0
   37.4580   28.5520   34.7870 H   0  0  0  0  0  0  0  0  0  0  0  0
   36.9150   27.0150   35.5380 H   0  0  0  0  0  0  0  0  0  0  0  0
   39.3500   27.4930   35.7740 H   0  0  0  0  0  0  0  0  0  0  0  0
   39.4800   27.5990   34.0320 H   0  0  0  0  0  0  0  0  0  0  0  0
   39.8390   23.6200   36.0840 C   0  0  0  0  0  0  0  0  0  0  0  0
   39.0470   24.7640   35.8240 C   0  0  0  0  0  0  0  0  0  0  0  0
   38.0720   25.0730   36.7540 C   0  0  0  0  0  0  0  0  0  0  0  0
   37.9270   24.2800   37.8470 N   0  0  0  0  0  0  0  0  0  0  0  0
   38.6980   23.2010   38.0620 C   0  0  0  0  0  0  0  0  0  0  0  0
   39.6660   22.8670   37.1690 N   0  0  0  0  0  0  0  0  0  0  0  0
   40.6190   23.3150   35.4040 H   0  0  0  0  0  0  0  0  0  0  0  0
   37.3970   25.8990   36.7070 H   0  0  0  0  0  0  0  0  0  0  0  0
   38.5520   22.5950   38.9450 H   0  0  0  0  0  0  0  0  0  0  0  0
   37.4380   27.9170   32.3250 C   0  0  0  0  0  2  0  0  0  0  0  0
   36.9360   27.5170   30.9640 C   0  0  0  0  0  2  0  0  0  0  0  0
   36.9560   26.4150   30.8690 H   0  0  0  0  0  0  0  0  0  0  0  0
  1  7  1  6  0  0  0
  1  6  1  0  0  0  0
  1 18  1  0  0  0  0
  2  1  1  0  0  0  0
  3  2  1  0  0  0  0
  3  4  1  0  0  0  0
  3 11  1  0  0  0  0
  4 12  1  1  0  0  0
  4  5  1  0  0  0  0
  5 13  1  0  0  0  0
  5  6  1  0  0  0  0
  5 14  1  0  0  0  0
  6 15  1  0  0  0  0
  8  2  1  0  0  0  0
  9  2  1  0  0  0  0
 10  3  1  0  0  0  0
 16  6  1  0  0  0  0
 17 22  1  0  0  0  0
 18 17  2  0  0  0  0
 18 19  1  0  0  0  0
 19 20  2  0  0  0  0
 20 21  1  0  0  0  0
 21 25  1  0  0  0  0
 22 21  2  0  0  0  0
 23 17  1  0  0  0  0
 24 19  1  0  0  0  0
 26  4  1  0  0  0  0
 27 26  1  0  0  0  0
 28 27  1  0  0  0  0
M  END
>  <minimizedAffinity>
-4.10392904

$$$$

 OpenBabel03272506523D

 28 29  0  0  1  0  0  0  0  0999 V2000
   38.8130   25.5220   35.3690 C   0  0  1  0  0  0  0  0  0  0  0  0
   38.1060   25.3370   36.6340 C   0  0  0  0  0  0  0  0  0  0  0  0
   37.7510   23.9280   37.0210 C   0  0  0  0  0  0  0  0  0  0  0  0
   38.7750   22.9140   36.6970 C   0  0  1  0  0  0  0  0  0  0  0  0
   39.4560   23.0610   35.3750 C   0  0  0  0  0  0  0  0  0  0  0  0
   39.8710   24.4800   35.1380 C   0  0  0  0  0  0  0  0  0  0  0  0
   39.4100   26.4880   35.4340 H   0  0  0  0  0  0  0  0  0  0  0  0
   37.2540   25.9690   36.8450 H   0  0  0  0  0  0  0  0  0  0  0  0
   38.8530   25.6270   37.4450 H   0  0  0  0  0  0  0  0  0  0  0  0
   37.5440   23.9060   38.1060 H   0  0  0  0  0  0  0  0  0  0  0  0
   36.7940   23.6770   36.5190 H   0  0  0  0  0  0  0  0  0  0  0  0
   38.3080   21.9080   36.7130 H   0  0  0  0  0  0  0  0  0  0  0  0
   40.3390   22.4360   35.3170 H   0  0  0  0  0  0  0  0  0  0  0  0
   38.7310   22.7650   34.5880 H   0  0  0  0  0  0  0  0  0  0  0  0
   40.4320   24.5490   34.2210 H   0  0  0  0  0  0  0  0  0  0  0  0
   40.6350   24.6880   35.9540 H   0  0  0  0  0  0  0  0  0  0  0  0
   37.7250   24.7470   33.2060 C   0  0  0  0  0  0  0  0  0  0  0  0
   37.9640   25.7530   34.1730 C   0  0  0  0  0  0  0  0  0  0  0  0
   37.3610   26.9780   33.9620 C   0  0  0  0  0  0  0  0  0  0  0  0
   36.5840   27.1520   32.8610 N   0  0  0  0  0  0  0  0  0  0  0  0
   36.3780   26.1730   31.9630 C   0  0  0  0  0  0  0  0  0  0  0  0
   36.9560   24.9560   32.1380 N   0  0  0  0  0  0  0  0  0  0  0  0
   38.1620   23.7650   33.3010 H   0  0  0  0  0  0  0  0  0  0  0  0
   37.4380   27.8350   34.5950 H   0  0  0  0  0  0  0  0  0  0  0  0
   35.7540   26.3500   31.1000 H   0  0  0  0  0  0  0  0  0  0  0  0
   39.8530   22.8810   37.7730 C   0  0  0  0  0  2  0  0  0  0  0  0
   40.9380   21.8830   37.4670 C   0  0  0  0  0  2  0  0  0  0  0  0
   40.4920   20.9690   37.0350 H   0  0  0  0  0  0  0  0  0  0  0  0
  1  7  1  1  0  0  0
  1  2  1  0  0  0  0
  2  8  1  0  0  0  0
  2  3  1  0  0  0  0
  2  9  1  0  0  0  0
  3 10  1  0  0  0  0
  4 12  1  1  0  0  0
  4  3  1  0  0  0  0
  4 26  1  0  0  0  0
  5  4  1  0  0  0  0
  6  1  1  0  0  0  0
  6  5  1  0  0  0  0
  6 16  1  0  0  0  0
 11  3  1  0  0  0  0
 13  5  1  0  0  0  0
 14  5  1  0  0  0  0
 15  6  1  0  0  0  0
 17 23  1  0  0  0  0
 17 18  1  0  0  0  0
 18  1  1  0  0  0  0
 19 18  2  0  0  0  0
 19 24  1  0  0  0  0
 20 19  1  0  0  0  0
 21 22  1  0  0  0  0
 21 20  2  0  0  0  0
 22 17  2  0  0  0  0
 25 21  1  0  0  0  0
 27 26  1  0  0  0  0
 28 27  1  0  0  0  0
M  END
>  <minimizedAffinity>
-4.10172796

$$$$

 OpenBabel03272506523D

 28 29  0  0  1  0  0  0  0  0999 V2000
   39.1580   26.4720   35.2470 C   0  0  1  0  0  0  0  0  0  0  0  0
   38.2900   26.1740   36.3840 C   0  0  0  0  0  0  0  0  0  0  0  0
   37.6990   24.7920   36.4520 C   0  0  0  0  0  0  0  0  0  0  0  0
   38.6020   23.7050   36.0230 C   0  0  1  0  0  0  0  0  0  0  0  0
   39.4460   23.9810   34.8210 C   0  0  0  0  0  0  0  0  0  0  0  0
   40.0790   25.3340   34.9070 C   0  0  0  0  0  0  0  0  0  0  0  0
   39.8730   27.3020   35.5540 H   0  0  0  0  0  0  0  0  0  0  0  0
   37.5160   26.8840   36.6420 H   0  0  0  0  0  0  0  0  0  0  0  0
   38.9720   26.1870   37.2990 H   0  0  0  0  0  0  0  0  0  0  0  0
   37.3670   24.6060   37.4880 H   0  0  0  0  0  0  0  0  0  0  0  0
   36.7810   24.7930   35.8290 H   0  0  0  0  0  0  0  0  0  0  0  0
   38.0000   22.8000   35.7980 H   0  0  0  0  0  0  0  0  0  0  0  0
   40.2330   23.2440   34.7170 H   0  0  0  0  0  0  0  0  0  0  0  0
   38.7830   23.9530   33.9310 H   0  0  0  0  0  0  0  0  0  0  0  0
   40.7470   25.4800   34.0740 H   0  0  0  0  0  0  0  0  0  0  0  0
   40.7650   25.2650   35.8110 H   0  0  0  0  0  0  0  0  0  0  0  0
   39.1090   27.0720   32.7770 C   0  0  0  0  0  0  0  0  0  0  0  0
   38.4940   27.0500   34.0520 C   0  0  0  0  0  0  0  0  0  0  0  0
   37.2250   27.5900   34.1430 C   0  0  0  0  0  0  0  0  0  0  0  0
   36.6440   28.1040   33.0280 N   0  0  0  0  0  0  0  0  0  0  0  0
   37.2580   28.1070   31.8320 C   0  0  0  0  0  0  0  0  0  0  0  0
   38.5060   27.5850   31.7060 N   0  0  0  0  0  0  0  0  0  0  0  0
   40.0990   26.6690   32.6280 H   0  0  0  0  0  0  0  0  0  0  0  0
   36.6270   27.6480   35.0260 H   0  0  0  0  0  0  0  0  0  0  0  0
   36.7630   28.5250   30.9670 H   0  0  0  0  0  0  0  0  0  0  0  0
   39.5330   23.3040   37.1600 C   0  0  0  0  0  2  0  0  0  0  0  0
   38.8480   23.3280   38.5000 C   0  0  0  0  0  2  0  0  0  0  0  0
   38.1720   24.2020   38.5570 H   0  0  0  0  0  0  0  0  0  0  0  0
  1  7  1  1  0  0  0
  1  2  1  0  0  0  0
  2  3  1  0  0  0  0
  2  8  1  0  0  0  0
  2  9  1  0  0  0  0
  3 10  1  0  0  0  0
  4 12  1  6  0  0  0
  4  3  1  0  0  0  0
  4 26  1  0  0  0  0
  5  6  1  0  0  0  0
  5  4  1  0  0  0  0
  6  1  1  0  0  0  0
  6 16  1  0  0  0  0
 11  3  1  0  0  0  0
 13  5  1  0  0  0  0
 14  5  1  0  0  0  0
 15  6  1  0  0  0  0
 17 18  1  0  0  0  0
 18 19  2  0  0  0  0
 18  1  1  0  0  0  0
 19 24  1  0  0  0  0
 20 19  1  0  0  0  0
 21 20  2  0  0  0  0
 22 21  1  0  0  0  0
 22 17  2  0  0  0  0
 23 17  1  0  0  0  0
 25 21  1  0  0  0  0
 26 27  1  0  0  0  0
 27 28  1  0  0  0  0
M  END
>  <minimizedAffinity>
-4.07409525

$$$$

 OpenBabel03272506523D

 28 29  0  0  1  0  0  0  0  0999 V2000
   39.2220   26.4490   35.1950 C   0  0  1  0  0  0  0  0  0  0  0  0
   38.3110   26.1970   36.3090 C   0  0  0  0  0  0  0  0  0  0  0  0
   37.6970   24.8260   36.3960 C   0  0  0  0  0  0  0  0  0  0  0  0
   38.5980   23.7140   36.0320 C   0  0  1  0  0  0  0  0  0  0  0  0
   39.4870   23.9420   34.8520 C   0  0  0  0  0  0  0  0  0  0  0  0
   40.1370   25.2890   34.9210 C   0  0  0  0  0  0  0  0  0  0  0  0
   39.9380   27.2780   35.5020 H   0  0  0  0  0  0  0  0  0  0  0  0
   37.5400   26.9250   36.5190 H   0  0  0  0  0  0  0  0  0  0  0  0
   38.9610   26.2280   37.2460 H   0  0  0  0  0  0  0  0  0  0  0  0
   37.3270   24.6760   37.4260 H   0  0  0  0  0  0  0  0  0  0  0  0
   36.8020   24.8220   35.7420 H   0  0  0  0  0  0  0  0  0  0  0  0
   37.9910   22.8120   35.8130 H   0  0  0  0  0  0  0  0  0  0  0  0
   40.2670   23.1920   34.7970 H   0  0  0  0  0  0  0  0  0  0  0  0
   38.8550   23.8970   33.9410 H   0  0  0  0  0  0  0  0  0  0  0  0
   40.8360   25.4000   34.1080 H   0  0  0  0  0  0  0  0  0  0  0  0
   40.7910   25.2370   35.8500 H   0  0  0  0  0  0  0  0  0  0  0  0
   37.2830   27.4940   33.9270 C   0  0  0  0  0  0  0  0  0  0  0  0
   38.6090   27.0000   33.9600 C   0  0  0  0  0  0  0  0  0  0  0  0
   39.3270   27.0570   32.7810 C   0  0  0  0  0  0  0  0  0  0  0  0
   38.7370   27.5740   31.6720 N   0  0  0  0  0  0  0  0  0  0  0  0
   37.4750   28.0360   31.6770 C   0  0  0  0  0  0  0  0  0  0  0  0
   36.7390   27.9950   32.8180 N   0  0  0  0  0  0  0  0  0  0  0  0
   36.6600   27.4820   34.8070 H   0  0  0  0  0  0  0  0  0  0  0  0
   40.3340   26.7300   32.6410 H   0  0  0  0  0  0  0  0  0  0  0  0
   37.0410   28.4400   30.7740 H   0  0  0  0  0  0  0  0  0  0  0  0
   39.4830   23.3340   37.2120 C   0  0  0  0  0  2  0  0  0  0  0  0
   38.7330   23.3370   38.5170 C   0  0  0  0  0  2  0  0  0  0  0  0
   38.0330   24.1920   38.5420 H   0  0  0  0  0  0  0  0  0  0  0  0
  1  7  1  1  0  0  0
  1  2  1  0  0  0  0
  2  3  1  0  0  0  0
  2  8  1  0  0  0  0
  2  9  1  0  0  0  0
  3 10  1  0  0  0  0
  4 12  1  6  0  0  0
  4  3  1  0  0  0  0
  4 26  1  0  0  0  0
  5  6  1  0  0  0  0
  5  4  1  0  0  0  0
  6  1  1  0  0  0  0
  6 16  1  0  0  0  0
 11  3  1  0  0  0  0
 13  5  1  0  0  0  0
 14  5  1  0  0  0  0
 15  6  1  0  0  0  0
 17 18  1  0  0  0  0
 17 23  1  0  0  0  0
 18  1  1  0  0  0  0
 19 18  2  0  0  0  0
 20 21  2  0  0  0  0
 20 19  1  0  0  0  0
 21 22  1  0  0  0  0
 22 17  2  0  0  0  0
 24 19  1  0  0  0  0
 25 21  1  0  0  0  0
 26 27  1  0  0  0  0
 27 28  1  0  0  0  0
M  END
>  <minimizedAffinity>
-4.06127405

$$$$

 OpenBabel03272506523D

 28 29  0  0  1  0  0  0  0  0999 V2000
   39.2870   24.5870   34.6590 C   0  0  1  0  0  0  0  0  0  0  0  0
   38.5770   25.7980   34.2540 C   0  0  0  0  0  0  0  0  0  0  0  0
   39.2960   27.1070   34.4370 C   0  0  0  0  0  0  0  0  0  0  0  0
   40.7410   27.0730   34.1390 C   0  0  1  0  0  0  0  0  0  0  0  0
   41.4860   25.8650   34.6080 C   0  0  0  0  0  0  0  0  0  0  0  0
   40.7390   24.6110   34.2750 C   0  0  0  0  0  0  0  0  0  0  0  0
   38.8730   23.7150   34.0560 H   0  0  0  0  0  0  0  0  0  0  0  0
   37.5530   25.9290   34.5770 H   0  0  0  0  0  0  0  0  0  0  0  0
   38.4860   25.7320   33.1190 H   0  0  0  0  0  0  0  0  0  0  0  0
   38.8070   27.8650   33.7990 H   0  0  0  0  0  0  0  0  0  0  0  0
   39.1300   27.4330   35.4840 H   0  0  0  0  0  0  0  0  0  0  0  0
   41.2290   27.9560   34.6020 H   0  0  0  0  0  0  0  0  0  0  0  0
   42.4670   25.8060   34.1530 H   0  0  0  0  0  0  0  0  0  0  0  0
   41.5850   25.9390   35.7110 H   0  0  0  0  0  0  0  0  0  0  0  0
   41.3300   23.7510   34.5460 H   0  0  0  0  0  0  0  0  0  0  0  0
   40.7170   24.5920   33.1380 H   0  0  0  0  0  0  0  0  0  0  0  0
   39.9160   23.2000   36.6950 C   0  0  0  0  0  0  0  0  0  0  0  0
   39.0690   24.1390   36.0570 C   0  0  0  0  0  0  0  0  0  0  0  0
   38.0170   24.6370   36.8020 C   0  0  0  0  0  0  0  0  0  0  0  0
   37.8520   24.2110   38.0810 N   0  0  0  0  0  0  0  0  0  0  0  0
   38.6770   23.3190   38.6550 C   0  0  0  0  0  0  0  0  0  0  0  0
   39.7210   22.8060   37.9520 N   0  0  0  0  0  0  0  0  0  0  0  0
   40.7570   22.7660   36.1770 H   0  0  0  0  0  0  0  0  0  0  0  0
   37.2940   25.3510   36.4710 H   0  0  0  0  0  0  0  0  0  0  0  0
   38.5130   23.0040   39.6750 H   0  0  0  0  0  0  0  0  0  0  0  0
   40.9820   27.2120   32.6410 C   0  0  0  0  0  2  0  0  0  0  0  0
   42.3160   27.8370   32.3300 C   0  0  0  0  0  2  0  0  0  0  0  0
   42.5240   28.6490   33.0500 H   0  0  0  0  0  0  0  0  0  0  0  0
  1  7  1  6  0  0  0
  1 18  1  0  0  0  0
  2  3  1  0  0  0  0
  2  8  1  0  0  0  0
  2  1  1  0  0  0  0
  3 11  1  0  0  0  0
  4  3  1  0  0  0  0
  4 12  1  1  0  0  0
  4  5  1  0  0  0  0
  5 14  1  0  0  0  0
  6 15  1  0  0  0  0
  6  5  1  0  0  0  0
  6  1  1  0  0  0  0
  9  2  1  0  0  0  0
 10  3  1  0  0  0  0
 13  5  1  0  0  0  0
 16  6  1  0  0  0  0
 17 22  1  0  0  0  0
 18 17  2  0  0  0  0
 18 19  1  0  0  0  0
 19 20  2  0  0  0  0
 20 21  1  0  0  0  0
 21 25  1  0  0  0  0
 22 21  2  0  0  0  0
 23 17  1  0  0  0  0
 24 19  1  0  0  0  0
 26  4  1  0  0  0  0
 27 26  1  0  0  0  0
 27 28  1  0  0  0  0
M  END
>  <minimizedAffinity>
-4.06098509

$$$$

 OpenBabel03272506523D

 28 29  0  0  1  0  0  0  0  0999 V2000
   37.0260   27.0740   33.6070 C   0  0  1  0  0  0  0  0  0  0  0  0
   38.1750   26.6930   32.7890 C   0  0  0  0  0  0  0  0  0  0  0  0
   39.5390   27.0470   33.3170 C   0  0  0  0  0  0  0  0  0  0  0  0
   39.7030   26.8940   34.7760 C   0  0  1  0  0  0  0  0  0  0  0  0
   38.5550   27.3430   35.6220 C   0  0  0  0  0  0  0  0  0  0  0  0
   37.2560   26.8420   35.0730 C   0  0  0  0  0  0  0  0  0  0  0  0
   36.1680   26.3680   33.3630 H   0  0  0  0  0  0  0  0  0  0  0  0
   38.1540   26.9200   31.7320 H   0  0  0  0  0  0  0  0  0  0  0  0
   38.1990   25.5530   32.8110 H   0  0  0  0  0  0  0  0  0  0  0  0
   40.2870   26.4220   32.7960 H   0  0  0  0  0  0  0  0  0  0  0  0
   39.7490   28.0940   33.0160 H   0  0  0  0  0  0  0  0  0  0  0  0
   40.5930   27.4700   35.1040 H   0  0  0  0  0  0  0  0  0  0  0  0
   38.6540   26.9860   36.6390 H   0  0  0  0  0  0  0  0  0  0  0  0
   38.5430   28.4530   35.6110 H   0  0  0  0  0  0  0  0  0  0  0  0
   36.4510   27.1050   35.7410 H   0  0  0  0  0  0  0  0  0  0  0  0
   37.3340   25.7100   35.1570 H   0  0  0  0  0  0  0  0  0  0  0  0
   35.7160   29.1410   34.2950 C   0  0  0  0  0  0  0  0  0  0  0  0
   36.4340   28.4050   33.3220 C   0  0  0  0  0  0  0  0  0  0  0  0
   36.5720   28.9860   32.0760 C   0  0  0  0  0  0  0  0  0  0  0  0
   36.0240   30.2080   31.8520 N   0  0  0  0  0  0  0  0  0  0  0  0
   35.3480   30.8790   32.8000 C   0  0  0  0  0  0  0  0  0  0  0  0
   35.1920   30.3380   34.0370 N   0  0  0  0  0  0  0  0  0  0  0  0
   35.5650   28.7520   35.2900 H   0  0  0  0  0  0  0  0  0  0  0  0
   37.0850   28.5650   31.2380 H   0  0  0  0  0  0  0  0  0  0  0  0
   34.9270   31.8500   32.5840 H   0  0  0  0  0  0  0  0  0  0  0  0
   40.0010   25.4440   35.1320 C   0  0  0  0  0  2  0  0  0  0  0  0
   41.3350   24.9860   34.6070 C   0  0  0  0  0  2  0  0  0  0  0  0
   41.5010   25.4020   33.5970 H   0  0  0  0  0  0  0  0  0  0  0  0
  1  7  1  6  0  0  0
  1  6  1  0  0  0  0
  2  9  1  0  0  0  0
  2  3  1  0  0  0  0
  2  1  1  0  0  0  0
  3  4  1  0  0  0  0
  4 12  1  1  0  0  0
  4 26  1  0  0  0  0
  4  5  1  0  0  0  0
  5 13  1  0  0  0  0
  6 16  1  0  0  0  0
  6  5  1  0  0  0  0
  6 15  1  0  0  0  0
  8  2  1  0  0  0  0
 10  3  1  0  0  0  0
 11  3  1  0  0  0  0
 14  5  1  0  0  0  0
 17 23  1  0  0  0  0
 18  1  1  0  0  0  0
 18 17  2  0  0  0  0
 19 18  1  0  0  0  0
 20 19  2  0  0  0  0
 20 21  1  0  0  0  0
 21 22  2  0  0  0  0
 22 17  1  0  0  0  0
 24 19  1  0  0  0  0
 25 21  1  0  0  0  0
 27 26  1  0  0  0  0
 28 27  1  0  0  0  0
M  END
>  <minimizedAffinity>
-4.024652

$$$$

 OpenBabel03272506523D

 28 29  0  0  1  0  0  0  0  0999 V2000
   36.6970   27.7830   32.1200 C   0  0  1  0  0  0  0  0  0  0  0  0
   35.6490   28.7100   31.6990 C   0  0  0  0  0  0  0  0  0  0  0  0
   34.6250   29.1000   32.7300 C   0  0  0  0  0  0  0  0  0  0  0  0
   35.1550   29.2980   34.0940 C   0  0  1  0  0  0  0  0  0  0  0  0
   36.1810   28.3130   34.5540 C   0  0  0  0  0  0  0  0  0  0  0  0
   37.2160   28.0820   33.4980 C   0  0  0  0  0  0  0  0  0  0  0  0
   37.6060   27.9500   31.4570 H   0  0  0  0  0  0  0  0  0  0  0  0
   35.1320   28.5170   30.7690 H   0  0  0  0  0  0  0  0  0  0  0  0
   36.1790   29.7000   31.5020 H   0  0  0  0  0  0  0  0  0  0  0  0
   34.1270   30.0260   32.3930 H   0  0  0  0  0  0  0  0  0  0  0  0
   33.8430   28.3140   32.7350 H   0  0  0  0  0  0  0  0  0  0  0  0
   34.3160   29.2570   34.8190 H   0  0  0  0  0  0  0  0  0  0  0  0
   36.6820   28.6580   35.4500 H   0  0  0  0  0  0  0  0  0  0  0  0
   35.6600   27.3550   34.7580 H   0  0  0  0  0  0  0  0  0  0  0  0
   37.9900   27.4360   33.8790 H   0  0  0  0  0  0  0  0  0  0  0  0
   37.7250   29.0920   33.3790 H   0  0  0  0  0  0  0  0  0  0  0  0
   35.3700   25.8820   31.0750 C   0  0  0  0  0  0  0  0  0  0  0  0
   36.4140   26.3400   31.9140 C   0  0  0  0  0  0  0  0  0  0  0  0
   37.1800   25.3750   32.5410 C   0  0  0  0  0  0  0  0  0  0  0  0
   36.8980   24.0640   32.3250 N   0  0  0  0  0  0  0  0  0  0  0  0
   35.8990   23.6660   31.5200 C   0  0  0  0  0  0  0  0  0  0  0  0
   35.1250   24.5860   30.8870 N   0  0  0  0  0  0  0  0  0  0  0  0
   34.7290   26.5760   30.5520 H   0  0  0  0  0  0  0  0  0  0  0  0
   38.0020   25.5540   33.2000 H   0  0  0  0  0  0  0  0  0  0  0  0
   35.7060   22.6130   31.3720 H   0  0  0  0  0  0  0  0  0  0  0  0
   35.7530   30.6910   34.2390 C   0  0  0  0  0  2  0  0  0  0  0  0
   35.9570   31.0820   35.6780 C   0  0  0  0  0  2  0  0  0  0  0  0
   35.1020   30.7290   36.2840 H   0  0  0  0  0  0  0  0  0  0  0  0
  1  7  1  6  0  0  0
  1  6  1  0  0  0  0
  2  1  1  0  0  0  0
  2  3  1  0  0  0  0
  3 11  1  0  0  0  0
  3  4  1  0  0  0  0
  4 26  1  0  0  0  0
  4  5  1  0  0  0  0
  4 12  1  1  0  0  0
  5 14  1  0  0  0  0
  5 13  1  0  0  0  0
  6 15  1  0  0  0  0
  6  5  1  0  0  0  0
  8  2  1  0  0  0  0
  9  2  1  0  0  0  0
 10  3  1  0  0  0  0
 16  6  1  0  0  0  0
 17 18  1  0  0  0  0
 18  1  1  0  0  0  0
 18 19  2  0  0  0  0
 19 24  1  0  0  0  0
 20 19  1  0  0  0  0
 21 20  2  0  0  0  0
 22 17  2  0  0  0  0
 22 21  1  0  0  0  0
 23 17  1  0  0  0  0
 25 21  1  0  0  0  0
 26 27  1  0  0  0  0
 27 28  1  0  0  0  0
M  END
>  <minimizedAffinity>
-3.96791506

$$$$

 OpenBabel03272506523D

 28 29  0  0  1  0  0  0  0  0999 V2000
   36.8420   22.8090   31.1520 C   0  0  1  0  0  0  0  0  0  0  0  0
   37.9140   22.1110   31.8570 C   0  0  0  0  0  0  0  0  0  0  0  0
   37.5410   21.3720   33.1130 C   0  0  0  0  0  0  0  0  0  0  0  0
   36.2380   20.6790   33.0670 C   0  0  1  0  0  0  0  0  0  0  0  0
   35.1200   21.4170   32.4030 C   0  0  0  0  0  0  0  0  0  0  0  0
   35.5660   22.0170   31.1070 C   0  0  0  0  0  0  0  0  0  0  0  0
   37.1350   22.8940   30.0560 H   0  0  0  0  0  0  0  0  0  0  0  0
   38.8410   22.6380   32.0400 H   0  0  0  0  0  0  0  0  0  0  0  0
   38.2300   21.2610   31.1650 H   0  0  0  0  0  0  0  0  0  0  0  0
   38.3370   20.6400   33.3370 H   0  0  0  0  0  0  0  0  0  0  0  0
   37.5540   22.1050   33.9450 H   0  0  0  0  0  0  0  0  0  0  0  0
   35.9100   20.4530   34.1020 H   0  0  0  0  0  0  0  0  0  0  0  0
   34.2810   20.7610   32.2030 H   0  0  0  0  0  0  0  0  0  0  0  0
   34.8050   22.2340   33.0850 H   0  0  0  0  0  0  0  0  0  0  0  0
   34.7270   22.4710   30.6060 H   0  0  0  0  0  0  0  0  0  0  0  0
   35.8300   21.1200   30.4590 H   0  0  0  0  0  0  0  0  0  0  0  0
   37.3990   24.8740   32.5260 C   0  0  0  0  0  0  0  0  0  0  0  0
   36.6240   24.2270   31.5340 C   0  0  0  0  0  0  0  0  0  0  0  0
   35.6440   24.9800   30.9170 C   0  0  0  0  0  0  0  0  0  0  0  0
   35.4760   26.2770   31.2850 N   0  0  0  0  0  0  0  0  0  0  0  0
   36.2310   26.8600   32.2310 C   0  0  0  0  0  0  0  0  0  0  0  0
   37.2050   26.1490   32.8600 N   0  0  0  0  0  0  0  0  0  0  0  0
   38.1820   24.3510   33.0520 H   0  0  0  0  0  0  0  0  0  0  0  0
   34.9800   24.6440   30.1500 H   0  0  0  0  0  0  0  0  0  0  0  0
   36.0680   27.8940   32.4970 H   0  0  0  0  0  0  0  0  0  0  0  0
   36.3740   19.3280   32.3770 C   0  0  0  0  0  2  0  0  0  0  0  0
   35.2250   18.4070   32.6870 C   0  0  0  0  0  2  0  0  0  0  0  0
   34.9390   18.5130   33.7500 H   0  0  0  0  0  0  0  0  0  0  0  0
  1  7  1  6  0  0  0
  1 18  1  0  0  0  0
  1  2  1  0  0  0  0
  2  8  1  0  0  0  0
  2  3  1  0  0  0  0
  3 10  1  0  0  0  0
  3 11  1  0  0  0  0
  4  3  1  0  0  0  0
  4 12  1  1  0  0  0
  5  4  1  0  0  0  0
  5 14  1  0  0  0  0
  6  1  1  0  0  0  0
  6  5  1  0  0  0  0
  9  2  1  0  0  0  0
 13  5  1  0  0  0  0
 15  6  1  0  0  0  0
 16  6  1  0  0  0  0
 17 22  1  0  0  0  0
 17 23  1  0  0  0  0
 18 17  2  0  0  0  0
 19 20  2  0  0  0  0
 19 18  1  0  0  0  0
 20 21  1  0  0  0  0
 21 25  1  0  0  0  0
 21 22  2  0  0  0  0
 24 19  1  0  0  0  0
 26 27  1  0  0  0  0
 26  4  1  0  0  0  0
 27 28  1  0  0  0  0
M  END
>  <minimizedAffinity>
-3.96325946

$$$$
