
 OpenBabel03262521033D

 12 12  0  0  0  0  0  0  0  0999 V2000
   37.8280   30.4710   48.5050 C   0  0  0  0  0  0  0  0  0  0  0  0
   37.9050   31.2680   49.6560 C   0  0  0  0  0  0  0  0  0  0  0  0
   38.4670   32.5530   49.5180 C   0  0  0  0  0  0  0  0  0  0  0  0
   38.8960   32.9380   48.2880 N   0  0  0  0  0  0  0  0  0  0  0  0
   38.8010   32.1350   47.2050 C   0  0  0  0  0  0  0  0  0  0  0  0
   38.2650   30.8950   47.3110 N   0  0  0  0  0  0  0  0  0  0  0  0
   37.4040   29.4830   48.5720 H   0  0  0  0  0  0  0  0  0  0  0  0
   38.5320   33.1780   50.3990 H   0  0  0  0  0  0  0  0  0  0  0  0
   39.1490   32.4590   46.2300 H   0  0  0  0  0  0  0  0  0  0  0  0
   37.4040   30.7290   50.9190 C   0  0  0  0  0  0  0  0  0  0  0  0
   37.3420   29.2130   50.7790 C   0  0  0  0  0  0  0  0  0  0  0  0
   36.6540   28.9420   49.9820 H   0  0  0  0  0  0  0  0  0  0  0  0
  1  7  1  0  0  0  0
  1  2  1  0  0  0  0
  2 10  1  0  0  0  0
  3  2  2  0  0  0  0
  3  8  1  0  0  0  0
  4  3  1  0  0  0  0
  5  6  1  0  0  0  0
  5  4  2  0  0  0  0
  6  1  2  0  0  0  0
  9  5  1  0  0  0  0
 11 10  1  0  0  0  0
 12 11  1  0  0  0  0
M  END
>  <minimizedAffinity>
-3.61464238

>  <minimizedRMSD>
3.50476289

$$$$
