
 OpenBabel03262523203D

 24 25  0  0  1  0  0  0  0  0999 V2000
   37.3990   25.8250   33.6830 C   0  0  0  0  0  0  0  0  0  0  0  0
   37.6220   27.1360   34.1490 C   0  0  0  0  0  0  0  0  0  0  0  0
   38.5680   27.3140   35.1600 C   0  0  0  0  0  0  0  0  0  0  0  0
   39.2300   26.2240   35.6480 N   0  0  0  0  0  0  0  0  0  0  0  0
   38.9930   24.9920   35.1830 C   0  0  0  0  0  0  0  0  0  0  0  0
   38.0830   24.7880   34.2050 N   0  0  0  0  0  0  0  0  0  0  0  0
   39.7240   23.8920   35.7410 N   0  0  0  0  0  0  0  0  0  0  0  0
   41.1810   23.8050   35.6690 C   0  0  0  0  0  0  0  0  0  0  0  0
   41.5240   22.6320   36.5040 C   0  0  0  0  0  0  0  0  0  0  0  0
   40.2810   22.2760   37.2680 C   0  0  0  0  0  0  0  0  0  0  0  0
   39.1410   22.7590   36.4260 C   0  0  1  0  0  0  0  0  0  0  0  0
   36.6760   25.6170   32.8990 H   0  0  0  0  0  0  0  0  0  0  0  0
   37.0490   27.9380   33.7020 H   0  0  0  0  0  0  0  0  0  0  0  0
   38.7430   28.3190   35.5210 H   0  0  0  0  0  0  0  0  0  0  0  0
   41.5650   23.7900   34.6390 H   0  0  0  0  0  0  0  0  0  0  0  0
   41.5700   24.7290   36.1680 H   0  0  0  0  0  0  0  0  0  0  0  0
   42.4130   22.7940   37.1500 H   0  0  0  0  0  0  0  0  0  0  0  0
   41.7690   21.7560   35.8450 H   0  0  0  0  0  0  0  0  0  0  0  0
   40.1750   21.1710   37.3800 H   0  0  0  0  0  0  0  0  0  0  0  0
   40.2710   22.6910   38.2930 H   0  0  0  0  0  0  0  0  0  0  0  0
   38.7100   22.0110   35.7570 H   0  0  0  0  0  0  0  0  0  0  0  0
   38.0280   23.2660   37.3210 C   0  0  0  0  0  2  0  0  0  0  0  0
   38.5240   23.7290   38.6700 C   0  0  0  0  0  2  0  0  0  0  0  0
   39.5500   24.1030   38.6810 H   0  0  0  0  0  0  0  0  0  0  0  0
  1  2  2  0  0  0  0
  1  6  1  0  0  0  0
  2  3  1  0  0  0  0
  3 14  1  0  0  0  0
  3  4  2  0  0  0  0
  5  4  1  0  0  0  0
  5  7  1  0  0  0  0
  6  5  2  0  0  0  0
  7 11  1  0  0  0  0
  8  7  1  0  0  0  0
  8 16  1  0  0  0  0
  8  9  1  0  0  0  0
  9 17  1  0  0  0  0
  9 10  1  0  0  0  0
 10 19  1  0  0  0  0
 10 20  1  0  0  0  0
 11 21  1  6  0  0  0
 11 10  1  0  0  0  0
 11 22  1  0  0  0  0
 12  1  1  0  0  0  0
 13  2  1  0  0  0  0
 15  8  1  0  0  0  0
 18  9  1  0  0  0  0
 22 23  1  0  0  0  0
 23 24  1  0  0  0  0
M  END
>  <minimizedAffinity>
-3.99183965

$$$$

 OpenBabel03262523203D

 24 25  0  0  1  0  0  0  0  0999 V2000
   41.3730   22.9010   36.5230 C   0  0  0  0  0  0  0  0  0  0  0  0
   40.5660   22.5840   37.6340 C   0  0  0  0  0  0  0  0  0  0  0  0
   39.2330   22.9970   37.6090 C   0  0  0  0  0  0  0  0  0  0  0  0
   38.7720   23.6820   36.5220 N   0  0  0  0  0  0  0  0  0  0  0  0
   39.5650   23.9670   35.4830 C   0  0  0  0  0  0  0  0  0  0  0  0
   40.8600   23.5810   35.4780 N   0  0  0  0  0  0  0  0  0  0  0  0
   39.0150   24.6900   34.3730 N   0  0  0  0  0  0  0  0  0  0  0  0
   37.9020   24.1750   33.5790 C   0  0  0  0  0  0  0  0  0  0  0  0
   37.5450   25.2900   32.6730 C   0  0  0  0  0  0  0  0  0  0  0  0
   38.2620   26.5030   33.1900 C   0  0  0  0  0  0  0  0  0  0  0  0
   39.4710   25.9810   33.9050 C   0  0  1  0  0  0  0  0  0  0  0  0
   42.4180   22.6090   36.4790 H   0  0  0  0  0  0  0  0  0  0  0  0
   41.0200   22.0370   38.4510 H   0  0  0  0  0  0  0  0  0  0  0  0
   38.6100   22.7570   38.4600 H   0  0  0  0  0  0  0  0  0  0  0  0
   38.1240   23.2140   33.0930 H   0  0  0  0  0  0  0  0  0  0  0  0
   37.0600   24.0110   34.2980 H   0  0  0  0  0  0  0  0  0  0  0  0
   36.4500   25.4340   32.5590 H   0  0  0  0  0  0  0  0  0  0  0  0
   37.9440   25.0840   31.6430 H   0  0  0  0  0  0  0  0  0  0  0  0
   38.6180   27.1520   32.3550 H   0  0  0  0  0  0  0  0  0  0  0  0
   37.6240   27.1430   33.8260 H   0  0  0  0  0  0  0  0  0  0  0  0
   40.3820   25.9380   33.3050 H   0  0  0  0  0  0  0  0  0  0  0  0
   39.7600   26.8500   35.1120 C   0  0  0  0  0  2  0  0  0  0  0  0
   38.5120   27.4290   35.7330 C   0  0  0  0  0  2  0  0  0  0  0  0
   37.6090   26.8290   35.6020 H   0  0  0  0  0  0  0  0  0  0  0  0
  1  2  1  0  0  0  0
  2 13  1  0  0  0  0
  3  2  2  0  0  0  0
  3 14  1  0  0  0  0
  4  3  1  0  0  0  0
  5  4  2  0  0  0  0
  6  5  1  0  0  0  0
  6  1  2  0  0  0  0
  7  5  1  0  0  0  0
  8 16  1  0  0  0  0
  8  7  1  0  0  0  0
  9 10  1  0  0  0  0
  9  8  1  0  0  0  0
 10 20  1  0  0  0  0
 10 11  1  0  0  0  0
 11 21  1  6  0  0  0
 11  7  1  0  0  0  0
 11 22  1  0  0  0  0
 12  1  1  0  0  0  0
 15  8  1  0  0  0  0
 17  9  1  0  0  0  0
 18  9  1  0  0  0  0
 19 10  1  0  0  0  0
 22 23  1  0  0  0  0
 24 23  1  0  0  0  0
M  END
>  <minimizedAffinity>
-3.95324802

$$$$

 OpenBabel03262523203D

 24 25  0  0  1  0  0  0  0  0999 V2000
   39.8710   22.5580   37.1440 C   0  0  0  0  0  0  0  0  0  0  0  0
   39.1820   23.3280   38.1020 C   0  0  0  0  0  0  0  0  0  0  0  0
   37.8150   23.5350   37.9080 C   0  0  0  0  0  0  0  0  0  0  0  0
   37.2110   22.9900   36.8120 N   0  0  0  0  0  0  0  0  0  0  0  0
   37.8950   22.2640   35.9210 C   0  0  0  0  0  0  0  0  0  0  0  0
   39.2190   22.0460   36.0810 N   0  0  0  0  0  0  0  0  0  0  0  0
   37.1980   21.7210   34.7920 N   0  0  0  0  0  0  0  0  0  0  0  0
   36.0900   20.7790   34.9370 C   0  0  0  0  0  0  0  0  0  0  0  0
   35.5580   20.6170   33.5650 C   0  0  0  0  0  0  0  0  0  0  0  0
   36.1820   21.7040   32.7370 C   0  0  0  0  0  0  0  0  0  0  0  0
   37.4850   22.0190   33.4060 C   0  0  1  0  0  0  0  0  0  0  0  0
   40.9350   22.3590   37.2350 H   0  0  0  0  0  0  0  0  0  0  0  0
   39.7450   23.7200   38.9390 H   0  0  0  0  0  0  0  0  0  0  0  0
   37.2820   24.1260   38.6410 H   0  0  0  0  0  0  0  0  0  0  0  0
   36.3740   19.8510   35.4540 H   0  0  0  0  0  0  0  0  0  0  0  0
   35.3220   21.3000   35.5620 H   0  0  0  0  0  0  0  0  0  0  0  0
   34.4480   20.6040   33.5200 H   0  0  0  0  0  0  0  0  0  0  0  0
   35.9020   19.6370   33.1380 H   0  0  0  0  0  0  0  0  0  0  0  0
   36.4100   21.3480   31.7040 H   0  0  0  0  0  0  0  0  0  0  0  0
   35.5280   22.5870   32.6200 H   0  0  0  0  0  0  0  0  0  0  0  0
   38.3510   21.4860   33.0080 H   0  0  0  0  0  0  0  0  0  0  0  0
   37.7680   23.5030   33.2870 C   0  0  0  0  0  2  0  0  0  0  0  0
   38.9010   23.8120   32.3390 C   0  0  0  0  0  2  0  0  0  0  0  0
   39.0400   23.0870   31.5340 H   0  0  0  0  0  0  0  0  0  0  0  0
  1 12  1  0  0  0  0
  1  2  1  0  0  0  0
  2 13  1  0  0  0  0
  3  2  2  0  0  0  0
  3 14  1  0  0  0  0
  4  3  1  0  0  0  0
  5  6  1  0  0  0  0
  5  4  2  0  0  0  0
  6  1  2  0  0  0  0
  7  8  1  0  0  0  0
  7  5  1  0  0  0  0
  8 15  1  0  0  0  0
  8 16  1  0  0  0  0
  9  8  1  0  0  0  0
 10 11  1  0  0  0  0
 10  9  1  0  0  0  0
 11 21  1  6  0  0  0
 11  7  1  0  0  0  0
 17  9  1  0  0  0  0
 18  9  1  0  0  0  0
 19 10  1  0  0  0  0
 20 10  1  0  0  0  0
 22 11  1  0  0  0  0
 23 22  1  0  0  0  0
 24 23  1  0  0  0  0
M  END
>  <minimizedAffinity>
-3.8406291

$$$$

 OpenBabel03262523203D

 24 25  0  0  1  0  0  0  0  0999 V2000
   38.1850   23.5730   32.5270 C   0  0  0  0  0  0  0  0  0  0  0  0
   37.4290   22.4340   32.1850 C   0  0  0  0  0  0  0  0  0  0  0  0
   37.0530   21.5700   33.2150 C   0  0  0  0  0  0  0  0  0  0  0  0
   37.4270   21.8620   34.4950 N   0  0  0  0  0  0  0  0  0  0  0  0
   38.1450   22.9530   34.7850 C   0  0  0  0  0  0  0  0  0  0  0  0
   38.5250   23.8070   33.8100 N   0  0  0  0  0  0  0  0  0  0  0  0
   38.5040   23.1990   36.1520 N   0  0  0  0  0  0  0  0  0  0  0  0
   37.5040   23.3910   37.2000 C   0  0  0  0  0  0  0  0  0  0  0  0
   38.2870   23.4360   38.4560 C   0  0  0  0  0  0  0  0  0  0  0  0
   39.6700   22.9630   38.1110 C   0  0  0  0  0  0  0  0  0  0  0  0
   39.8560   23.2880   36.6600 C   0  0  1  0  0  0  0  0  0  0  0  0
   38.5100   24.2850   31.7740 H   0  0  0  0  0  0  0  0  0  0  0  0
   37.1800   22.2840   31.1420 H   0  0  0  0  0  0  0  0  0  0  0  0
   36.4730   20.6930   32.9570 H   0  0  0  0  0  0  0  0  0  0  0  0
   36.8420   24.2490   37.0170 H   0  0  0  0  0  0  0  0  0  0  0  0
   36.8760   22.4640   37.2000 H   0  0  0  0  0  0  0  0  0  0  0  0
   37.8190   22.8720   39.2900 H   0  0  0  0  0  0  0  0  0  0  0  0
   38.3800   24.4990   38.8070 H   0  0  0  0  0  0  0  0  0  0  0  0
   40.4460   23.5230   38.6850 H   0  0  0  0  0  0  0  0  0  0  0  0
   39.8300   21.8940   38.3410 H   0  0  0  0  0  0  0  0  0  0  0  0
   40.3420   24.2450   36.4590 H   0  0  0  0  0  0  0  0  0  0  0  0
   40.6850   22.2060   36.0000 C   0  0  0  0  0  2  0  0  0  0  0  0
   41.5340   21.4340   36.9820 C   0  0  0  0  0  2  0  0  0  0  0  0
   41.1320   21.3780   37.9960 H   0  0  0  0  0  0  0  0  0  0  0  0
  1  6  1  0  0  0  0
  2  1  2  0  0  0  0
  2  3  1  0  0  0  0
  3  4  2  0  0  0  0
  4  5  1  0  0  0  0
  5  7  1  0  0  0  0
  6  5  2  0  0  0  0
  7 11  1  0  0  0  0
  7  8  1  0  0  0  0
  8 16  1  0  0  0  0
  8  9  1  0  0  0  0
  9 18  1  0  0  0  0
  9 17  1  0  0  0  0
 10 20  1  0  0  0  0
 10  9  1  0  0  0  0
 10 19  1  0  0  0  0
 11 21  1  6  0  0  0
 11 10  1  0  0  0  0
 12  1  1  0  0  0  0
 13  2  1  0  0  0  0
 14  3  1  0  0  0  0
 15  8  1  0  0  0  0
 22 11  1  0  0  0  0
 22 23  1  0  0  0  0
 23 24  1  0  0  0  0
M  END
>  <minimizedAffinity>
-3.8150878

$$$$

 OpenBabel03262523203D

 24 25  0  0  1  0  0  0  0  0999 V2000
   36.2000   24.1440   31.5890 C   0  0  0  0  0  0  0  0  0  0  0  0
   35.3170   25.1420   31.1310 C   0  0  0  0  0  0  0  0  0  0  0  0
   35.7010   26.4740   31.2930 C   0  0  0  0  0  0  0  0  0  0  0  0
   36.9020   26.7510   31.8810 N   0  0  0  0  0  0  0  0  0  0  0  0
   37.7170   25.7780   32.3050 C   0  0  0  0  0  0  0  0  0  0  0  0
   37.3720   24.4800   32.1620 N   0  0  0  0  0  0  0  0  0  0  0  0
   38.9640   26.1400   32.9140 N   0  0  0  0  0  0  0  0  0  0  0  0
   39.9900   26.9000   32.2020 C   0  0  0  0  0  0  0  0  0  0  0  0
   41.0090   27.2000   33.2320 C   0  0  0  0  0  0  0  0  0  0  0  0
   40.3860   26.8680   34.5570 C   0  0  0  0  0  0  0  0  0  0  0  0
   39.3620   25.8140   34.2660 C   0  0  1  0  0  0  0  0  0  0  0  0
   35.9620   23.0880   31.4930 H   0  0  0  0  0  0  0  0  0  0  0  0
   34.3860   24.8270   30.6770 H   0  0  0  0  0  0  0  0  0  0  0  0
   35.0260   27.2440   30.9430 H   0  0  0  0  0  0  0  0  0  0  0  0
   40.3560   26.3930   31.2980 H   0  0  0  0  0  0  0  0  0  0  0  0
   39.5020   27.8570   31.8880 H   0  0  0  0  0  0  0  0  0  0  0  0
   41.4060   28.2370   33.1730 H   0  0  0  0  0  0  0  0  0  0  0  0
   41.8920   26.5180   33.1020 H   0  0  0  0  0  0  0  0  0  0  0  0
   41.1330   26.4290   35.2600 H   0  0  0  0  0  0  0  0  0  0  0  0
   39.9660   27.7520   35.0700 H   0  0  0  0  0  0  0  0  0  0  0  0
   39.7080   24.7860   34.3900 H   0  0  0  0  0  0  0  0  0  0  0  0
   38.1650   26.0060   35.1740 C   0  0  0  0  0  2  0  0  0  0  0  0
   38.1580   27.3500   35.8630 C   0  0  0  0  0  2  0  0  0  0  0  0
   38.6580   28.1510   35.3160 H   0  0  0  0  0  0  0  0  0  0  0  0
  1  6  1  0  0  0  0
  2  3  1  0  0  0  0
  2  1  2  0  0  0  0
  3  4  2  0  0  0  0
  4  5  1  0  0  0  0
  5  7  1  0  0  0  0
  6  5  2  0  0  0  0
  7 11  1  0  0  0  0
  8  7  1  0  0  0  0
  8  9  1  0  0  0  0
  9 10  1  0  0  0  0
 10 20  1  0  0  0  0
 10 19  1  0  0  0  0
 11 21  1  1  0  0  0
 11 10  1  0  0  0  0
 11 22  1  0  0  0  0
 12  1  1  0  0  0  0
 13  2  1  0  0  0  0
 14  3  1  0  0  0  0
 15  8  1  0  0  0  0
 16  8  1  0  0  0  0
 17  9  1  0  0  0  0
 18  9  1  0  0  0  0
 22 23  1  0  0  0  0
 24 23  1  0  0  0  0
M  END
>  <minimizedAffinity>
-3.79692817

$$$$

 OpenBabel03262523203D

 24 25  0  0  1  0  0  0  0  0999 V2000
   39.9500   27.1270   33.3210 C   0  0  0  0  0  0  0  0  0  0  0  0
   39.8040   26.9670   34.7140 C   0  0  0  0  0  0  0  0  0  0  0  0
   38.6630   26.3090   35.1770 C   0  0  0  0  0  0  0  0  0  0  0  0
   37.7480   25.8530   34.2720 N   0  0  0  0  0  0  0  0  0  0  0  0
   37.9180   26.0210   32.9550 C   0  0  0  0  0  0  0  0  0  0  0  0
   39.0110   26.6540   32.4770 N   0  0  0  0  0  0  0  0  0  0  0  0
   36.9170   25.5160   32.0610 N   0  0  0  0  0  0  0  0  0  0  0  0
   36.5760   24.0970   31.9910 C   0  0  0  0  0  0  0  0  0  0  0  0
   35.4020   24.0420   31.0910 C   0  0  0  0  0  0  0  0  0  0  0  0
   34.9270   25.4570   30.9240 C   0  0  0  0  0  0  0  0  0  0  0  0
   36.1380   26.3140   31.1390 C   0  0  1  0  0  0  0  0  0  0  0  0
   40.8140   27.6290   32.8950 H   0  0  0  0  0  0  0  0  0  0  0  0
   40.5810   27.3630   35.3550 H   0  0  0  0  0  0  0  0  0  0  0  0
   38.5460   26.1850   36.2450 H   0  0  0  0  0  0  0  0  0  0  0  0
   37.4260   23.4600   31.7090 H   0  0  0  0  0  0  0  0  0  0  0  0
   36.2540   23.8060   33.0220 H   0  0  0  0  0  0  0  0  0  0  0  0
   34.6100   23.3450   31.4390 H   0  0  0  0  0  0  0  0  0  0  0  0
   35.7180   23.6780   30.0760 H   0  0  0  0  0  0  0  0  0  0  0  0
   34.5610   25.6440   29.8870 H   0  0  0  0  0  0  0  0  0  0  0  0
   34.0890   25.7130   31.5970 H   0  0  0  0  0  0  0  0  0  0  0  0
   36.6750   26.5920   30.2300 H   0  0  0  0  0  0  0  0  0  0  0  0
   35.7340   27.5940   31.8410 C   0  0  0  0  0  2  0  0  0  0  0  0
   36.2740   28.8310   31.1660 C   0  0  0  0  0  2  0  0  0  0  0  0
   36.4360   28.7370   30.0900 H   0  0  0  0  0  0  0  0  0  0  0  0
  1  2  1  0  0  0  0
  2  3  2  0  0  0  0
  2 13  1  0  0  0  0
  3 14  1  0  0  0  0
  4  3  1  0  0  0  0
  5  4  2  0  0  0  0
  6  5  1  0  0  0  0
  6  1  2  0  0  0  0
  7  5  1  0  0  0  0
  8  7  1  0  0  0  0
  8 16  1  0  0  0  0
  9 17  1  0  0  0  0
  9  8  1  0  0  0  0
 10  9  1  0  0  0  0
 10 11  1  0  0  0  0
 10 20  1  0  0  0  0
 11 21  1  6  0  0  0
 11 22  1  0  0  0  0
 11  7  1  0  0  0  0
 12  1  1  0  0  0  0
 15  8  1  0  0  0  0
 18  9  1  0  0  0  0
 19 10  1  0  0  0  0
 23 22  1  0  0  0  0
 24 23  1  0  0  0  0
M  END
>  <minimizedAffinity>
-3.7691052

$$$$

 OpenBabel03262523203D

 24 25  0  0  1  0  0  0  0  0999 V2000
   35.5910   24.9640   31.0790 C   0  0  0  0  0  0  0  0  0  0  0  0
   35.7450   23.5630   31.1000 C   0  0  0  0  0  0  0  0  0  0  0  0
   36.6250   23.0190   32.0370 C   0  0  0  0  0  0  0  0  0  0  0  0
   37.2910   23.8570   32.8850 N   0  0  0  0  0  0  0  0  0  0  0  0
   37.1210   25.1830   32.8380 C   0  0  0  0  0  0  0  0  0  0  0  0
   36.2770   25.7390   31.9420 N   0  0  0  0  0  0  0  0  0  0  0  0
   37.8530   26.0050   33.7580 N   0  0  0  0  0  0  0  0  0  0  0  0
   37.7010   25.8820   35.2070 C   0  0  0  0  0  0  0  0  0  0  0  0
   38.7450   26.7710   35.7660 C   0  0  0  0  0  0  0  0  0  0  0  0
   39.6520   27.1310   34.6250 C   0  0  0  0  0  0  0  0  0  0  0  0
   38.8060   27.0300   33.3920 C   0  0  1  0  0  0  0  0  0  0  0  0
   34.9220   25.4510   30.3750 H   0  0  0  0  0  0  0  0  0  0  0  0
   35.1750   22.9790   30.3880 H   0  0  0  0  0  0  0  0  0  0  0  0
   36.7470   21.9440   32.0560 H   0  0  0  0  0  0  0  0  0  0  0  0
   36.6750   26.0700   35.5530 H   0  0  0  0  0  0  0  0  0  0  0  0
   37.9600   24.8220   35.4550 H   0  0  0  0  0  0  0  0  0  0  0  0
   39.2770   26.3340   36.6370 H   0  0  0  0  0  0  0  0  0  0  0  0
   38.2760   27.7250   36.1290 H   0  0  0  0  0  0  0  0  0  0  0  0
   40.0080   28.1850   34.7050 H   0  0  0  0  0  0  0  0  0  0  0  0
   40.5600   26.5030   34.5810 H   0  0  0  0  0  0  0  0  0  0  0  0
   38.3460   27.9660   33.0680 H   0  0  0  0  0  0  0  0  0  0  0  0
   39.6450   26.5110   32.2430 C   0  0  0  0  0  2  0  0  0  0  0  0
   39.6220   27.4210   31.0390 C   0  0  0  0  0  2  0  0  0  0  0  0
   39.4590   28.4780   31.2620 H   0  0  0  0  0  0  0  0  0  0  0  0
  1  2  2  0  0  0  0
  1  6  1  0  0  0  0
  2  3  1  0  0  0  0
  3 14  1  0  0  0  0
  3  4  2  0  0  0  0
  5  4  1  0  0  0  0
  5  7  1  0  0  0  0
  6  5  2  0  0  0  0
  7  8  1  0  0  0  0
  8 16  1  0  0  0  0
  8 15  1  0  0  0  0
  8  9  1  0  0  0  0
  9 18  1  0  0  0  0
  9 17  1  0  0  0  0
 10 19  1  0  0  0  0
 10  9  1  0  0  0  0
 11 21  1  6  0  0  0
 11  7  1  0  0  0  0
 11 10  1  0  0  0  0
 12  1  1  0  0  0  0
 13  2  1  0  0  0  0
 20 10  1  0  0  0  0
 22 11  1  0  0  0  0
 23 24  1  0  0  0  0
 23 22  1  0  0  0  0
M  END
>  <minimizedAffinity>
-3.7433145

$$$$

 OpenBabel03262523203D

 24 25  0  0  1  0  0  0  0  0999 V2000
   38.4360   24.6360   30.8690 C   0  0  0  0  0  0  0  0  0  0  0  0
   37.4660   23.6280   30.6980 C   0  0  0  0  0  0  0  0  0  0  0  0
   36.1770   23.8790   31.1710 C   0  0  0  0  0  0  0  0  0  0  0  0
   35.9130   25.0770   31.7710 N   0  0  0  0  0  0  0  0  0  0  0  0
   36.8580   26.0120   31.9180 C   0  0  0  0  0  0  0  0  0  0  0  0
   38.1150   25.7980   31.4710 N   0  0  0  0  0  0  0  0  0  0  0  0
   36.5120   27.2480   32.5590 N   0  0  0  0  0  0  0  0  0  0  0  0
   35.4900   28.1450   32.0240 C   0  0  0  0  0  0  0  0  0  0  0  0
   35.3300   29.1860   33.0650 C   0  0  0  0  0  0  0  0  0  0  0  0
   36.0410   28.6790   34.2860 C   0  0  0  0  0  0  0  0  0  0  0  0
   37.1050   27.7560   33.7760 C   0  0  1  0  0  0  0  0  0  0  0  0
   39.4580   24.5040   30.5250 H   0  0  0  0  0  0  0  0  0  0  0  0
   37.7680   22.7100   30.2100 H   0  0  0  0  0  0  0  0  0  0  0  0
   35.4290   23.1080   31.0420 H   0  0  0  0  0  0  0  0  0  0  0  0
   35.7180   28.5090   31.0120 H   0  0  0  0  0  0  0  0  0  0  0  0
   34.5480   27.5430   31.9700 H   0  0  0  0  0  0  0  0  0  0  0  0
   34.2710   29.4670   33.2500 H   0  0  0  0  0  0  0  0  0  0  0  0
   35.8540   30.1270   32.7440 H   0  0  0  0  0  0  0  0  0  0  0  0
   36.5470   29.5080   34.8350 H   0  0  0  0  0  0  0  0  0  0  0  0
   35.3610   28.1990   35.0130 H   0  0  0  0  0  0  0  0  0  0  0  0
   38.0860   28.2140   33.6330 H   0  0  0  0  0  0  0  0  0  0  0  0
   37.2770   26.6000   34.7400 C   0  0  0  0  0  2  0  0  0  0  0  0
   38.2740   26.8900   35.8360 C   0  0  0  0  0  2  0  0  0  0  0  0
   38.3700   27.9440   36.1060 H   0  0  0  0  0  0  0  0  0  0  0  0
  1  6  1  0  0  0  0
  2  1  2  0  0  0  0
  2  3  1  0  0  0  0
  3  4  2  0  0  0  0
  4  5  1  0  0  0  0
  5  7  1  0  0  0  0
  6  5  2  0  0  0  0
  7 11  1  0  0  0  0
  8  7  1  0  0  0  0
  8  9  1  0  0  0  0
  9 17  1  0  0  0  0
  9 10  1  0  0  0  0
 10 19  1  0  0  0  0
 10 20  1  0  0  0  0
 11 21  1  6  0  0  0
 11 10  1  0  0  0  0
 11 22  1  0  0  0  0
 12  1  1  0  0  0  0
 13  2  1  0  0  0  0
 14  3  1  0  0  0  0
 15  8  1  0  0  0  0
 16  8  1  0  0  0  0
 18  9  1  0  0  0  0
 22 23  1  0  0  0  0
 23 24  1  0  0  0  0
M  END
>  <minimizedAffinity>
-3.72465062

$$$$

 OpenBabel03262523203D

 24 25  0  0  1  0  0  0  0  0999 V2000
   35.8990   30.2880   31.8810 C   0  0  0  0  0  0  0  0  0  0  0  0
   36.4670   29.0070   32.0330 C   0  0  0  0  0  0  0  0  0  0  0  0
   36.2310   28.3300   33.2300 C   0  0  0  0  0  0  0  0  0  0  0  0
   35.4690   28.9290   34.1920 N   0  0  0  0  0  0  0  0  0  0  0  0
   34.9460   30.1470   34.0160 C   0  0  0  0  0  0  0  0  0  0  0  0
   35.1570   30.8280   32.8680 N   0  0  0  0  0  0  0  0  0  0  0  0
   34.1560   30.7170   35.0680 N   0  0  0  0  0  0  0  0  0  0  0  0
   32.9260   30.0900   35.5490 C   0  0  0  0  0  0  0  0  0  0  0  0
   32.5370   30.8950   36.7290 C   0  0  0  0  0  0  0  0  0  0  0  0
   33.7190   31.7600   37.0620 C   0  0  0  0  0  0  0  0  0  0  0  0
   34.4560   31.9450   35.7710 C   0  0  1  0  0  0  0  0  0  0  0  0
   36.0440   30.8700   30.9750 H   0  0  0  0  0  0  0  0  0  0  0  0
   37.0570   28.6140   31.2150 H   0  0  0  0  0  0  0  0  0  0  0  0
   36.6650   27.3460   33.3510 H   0  0  0  0  0  0  0  0  0  0  0  0
   32.1600   29.9830   34.7690 H   0  0  0  0  0  0  0  0  0  0  0  0
   33.2160   29.0650   35.8920 H   0  0  0  0  0  0  0  0  0  0  0  0
   32.1800   30.2820   37.5840 H   0  0  0  0  0  0  0  0  0  0  0  0
   31.6910   31.5820   36.4580 H   0  0  0  0  0  0  0  0  0  0  0  0
   33.3980   32.7690   37.4150 H   0  0  0  0  0  0  0  0  0  0  0  0
   34.3490   31.3390   37.8660 H   0  0  0  0  0  0  0  0  0  0  0  0
   34.1970   32.8490   35.2150 H   0  0  0  0  0  0  0  0  0  0  0  0
   35.9470   31.9870   36.0400 C   0  0  0  0  0  2  0  0  0  0  0  0
   36.6350   33.1490   35.3660 C   0  0  0  0  0  2  0  0  0  0  0  0
   36.0070   34.0280   35.2070 H   0  0  0  0  0  0  0  0  0  0  0  0
  1  2  2  0  0  0  0
  1  6  1  0  0  0  0
  2  3  1  0  0  0  0
  3 14  1  0  0  0  0
  3  4  2  0  0  0  0
  5  4  1  0  0  0  0
  5  7  1  0  0  0  0
  6  5  2  0  0  0  0
  7  8  1  0  0  0  0
  7 11  1  0  0  0  0
  8 16  1  0  0  0  0
  8  9  1  0  0  0  0
  9 10  1  0  0  0  0
  9 17  1  0  0  0  0
 10 19  1  0  0  0  0
 10 20  1  0  0  0  0
 11 21  1  6  0  0  0
 11 22  1  0  0  0  0
 11 10  1  0  0  0  0
 12  1  1  0  0  0  0
 13  2  1  0  0  0  0
 15  8  1  0  0  0  0
 18  9  1  0  0  0  0
 23 22  1  0  0  0  0
 24 23  1  0  0  0  0
M  END
>  <minimizedAffinity>
-3.71236801

$$$$
