
 OpenBabel03272505533D

 38 40  0  0  1  0  0  0  0  0999 V2000
   35.7540   21.0790   35.9780 C   0  0  0  0  0  0  0  0  0  0  0  0
   35.6290   20.6850   34.6240 C   0  0  0  0  0  0  0  0  0  0  0  0
   36.6480   21.0720   33.7610 C   0  0  0  0  0  0  0  0  0  0  0  0
   37.6820   21.7950   34.2670 N   0  0  0  0  0  0  0  0  0  0  0  0
   37.7570   22.1470   35.5670 C   0  0  0  0  0  0  0  0  0  0  0  0
   36.8000   21.7920   36.4180 N   0  0  0  0  0  0  0  0  0  0  0  0
   38.8650   22.8940   35.9970 N   0  0  0  0  0  0  0  0  0  0  0  0
   39.3540   22.8060   37.3830 C   0  0  0  0  0  0  0  0  0  0  0  0
   40.7980   22.4400   37.3710 C   0  0  0  0  0  0  0  0  0  0  0  0
   41.4890   22.6440   36.2020 N   0  0  0  0  0  0  0  0  0  0  0  0
   41.0220   23.5490   35.1880 C   0  0  0  0  0  0  0  0  0  0  0  0
   39.5920   23.7910   35.1170 C   0  0  2  0  0  0  0  0  0  0  0  0
   34.9600   20.7830   36.6730 H   0  0  0  0  0  0  0  0  0  0  0  0
   34.7890   20.1100   34.2580 H   0  0  0  0  0  0  0  0  0  0  0  0
   36.6350   20.8150   32.7080 H   0  0  0  0  0  0  0  0  0  0  0  0
   39.2120   23.8130   37.8070 H   0  0  0  0  0  0  0  0  0  0  0  0
   38.7410   22.0910   37.9690 H   0  0  0  0  0  0  0  0  0  0  0  0
   40.8660   21.3760   37.6840 H   0  0  0  0  0  0  0  0  0  0  0  0
   41.2770   22.9980   38.2190 H   0  0  0  0  0  0  0  0  0  0  0  0
   42.0560   21.8540   35.8870 H   0  0  0  0  0  0  0  0  0  0  0  0
   41.7390   24.3620   35.2320 H   0  0  0  0  0  0  0  0  0  0  0  0
   41.3240   23.0290   34.2230 H   0  0  0  0  0  0  0  0  0  0  0  0
   39.1660   23.6370   34.0810 H   0  0  0  0  0  0  0  0  0  0  0  0
   39.2110   25.1510   35.4900 N   0  0  2  0  0  0  0  0  0  0  0  0
   37.7860   25.2730   35.7130 C   0  0  0  0  0  0  0  0  0  0  0  0
   37.3680   26.6410   35.2240 C   0  0  0  0  0  0  0  0  0  0  0  0
   38.6630   27.2990   34.9430 C   0  0  0  0  0  0  0  0  0  0  0  0
   39.5830   26.1290   34.5260 C   0  0  1  0  0  0  0  0  0  0  0  0
   37.4590   25.0300   36.7250 H   0  0  0  0  0  0  0  0  0  0  0  0
   37.3200   24.5510   34.9820 H   0  0  0  0  0  0  0  0  0  0  0  0
   36.9070   27.1470   36.0980 H   0  0  0  0  0  0  0  0  0  0  0  0
   36.6330   26.6260   34.4150 H   0  0  0  0  0  0  0  0  0  0  0  0
   38.6340   28.0820   34.1660 H   0  0  0  0  0  0  0  0  0  0  0  0
   39.0700   27.7630   35.8880 H   0  0  0  0  0  0  0  0  0  0  0  0
   39.2090   26.0030   33.5050 H   0  0  0  0  0  0  0  0  0  0  0  0
   40.9120   26.7810   34.6570 C   0  0  0  0  0  2  0  0  0  0  0  0
   41.3140   27.3370   33.3020 C   0  0  0  0  0  2  0  0  0  0  0  0
   40.6150   26.9830   32.4930 H   0  0  0  0  0  0  0  0  0  0  0  0
  1  6  1  0  0  0  0
  1 13  1  0  0  0  0
  2  1  2  0  0  0  0
  3  4  2  0  0  0  0
  3  2  1  0  0  0  0
  4  5  1  0  0  0  0
  5  7  1  0  0  0  0
  5  6  2  0  0  0  0
  7  8  1  0  0  0  0
  8 16  1  0  0  0  0
  8 17  1  0  0  0  0
  9  8  1  0  0  0  0
  9 18  1  0  0  0  0
  9 19  1  0  0  0  0
 10  9  1  0  0  0  0
 11 21  1  0  0  0  0
 11 10  1  0  0  0  0
 12 23  1  6  0  0  0
 12 11  1  0  0  0  0
 12 24  1  0  0  0  0
 12  7  1  0  0  0  0
 14  2  1  0  0  0  0
 15  3  1  0  0  0  0
 20 10  1  0  0  0  0
 22 11  1  0  0  0  0
 24 25  1  6  0  0  0
 25 29  1  0  0  0  0
 26 25  1  0  0  0  0
 26 31  1  0  0  0  0
 27 26  1  0  0  0  0
 27 34  1  0  0  0  0
 28 35  1  6  0  0  0
 28 36  1  0  0  0  0
 28 27  1  0  0  0  0
 28 24  1  0  0  0  0
 30 25  1  0  0  0  0
 32 26  1  0  0  0  0
 33 27  1  0  0  0  0
 37 36  1  0  0  0  0
 38 37  1  0  0  0  0
M  END
>  <minimizedAffinity>
-5.21813011

$$$$

 OpenBabel03272505533D

 38 40  0  0  1  0  0  0  0  0999 V2000
   36.8390   27.7390   34.5940 C   0  0  0  0  0  0  0  0  0  0  0  0
   36.7330   27.6300   33.1860 C   0  0  0  0  0  0  0  0  0  0  0  0
   37.1640   26.4390   32.6140 C   0  0  0  0  0  0  0  0  0  0  0  0
   37.6530   25.4700   33.4330 N   0  0  0  0  0  0  0  0  0  0  0  0
   37.7340   25.6200   34.7720 C   0  0  0  0  0  0  0  0  0  0  0  0
   37.3300   26.7470   35.3490 N   0  0  0  0  0  0  0  0  0  0  0  0
   38.2530   24.5630   35.5350 N   0  0  0  0  0  0  0  0  0  0  0  0
   37.8420   24.3580   36.9340 C   0  0  0  0  0  0  0  0  0  0  0  0
   37.3250   22.9700   37.0940 C   0  0  0  0  0  0  0  0  0  0  0  0
   37.6740   22.0540   36.1330 N   0  0  0  0  0  0  0  0  0  0  0  0
   38.8070   22.2490   35.2690 C   0  0  0  0  0  0  0  0  0  0  0  0
   39.2170   23.6160   35.0050 C   0  0  2  0  0  0  0  0  0  0  0  0
   36.5040   28.6710   35.0630 H   0  0  0  0  0  0  0  0  0  0  0  0
   36.3380   28.4250   32.5670 H   0  0  0  0  0  0  0  0  0  0  0  0
   37.1200   26.2680   31.5450 H   0  0  0  0  0  0  0  0  0  0  0  0
   38.7570   24.5030   37.5320 H   0  0  0  0  0  0  0  0  0  0  0  0
   37.1010   25.1240   37.2390 H   0  0  0  0  0  0  0  0  0  0  0  0
   36.2200   23.0430   37.1810 H   0  0  0  0  0  0  0  0  0  0  0  0
   37.6490   22.6220   38.1110 H   0  0  0  0  0  0  0  0  0  0  0  0
   36.9020   21.4980   35.7600 H   0  0  0  0  0  0  0  0  0  0  0  0
   39.5090   21.4950   35.6080 H   0  0  0  0  0  0  0  0  0  0  0  0
   38.4540   21.8060   34.2820 H   0  0  0  0  0  0  0  0  0  0  0  0
   39.3170   23.8450   33.9020 H   0  0  0  0  0  0  0  0  0  0  0  0
   40.5120   23.9590   35.5870 N   0  0  2  0  0  0  0  0  0  0  0  0
   41.3210   24.7460   34.6810 C   0  0  0  0  0  0  0  0  0  0  0  0
   42.7610   24.3280   34.8830 C   0  0  0  0  0  0  0  0  0  0  0  0
   42.6860   23.4550   36.0750 C   0  0  0  0  0  0  0  0  0  0  0  0
   41.2780   22.8240   35.9760 C   0  0  1  0  0  0  0  0  0  0  0  0
   41.1470   25.8230   34.7300 H   0  0  0  0  0  0  0  0  0  0  0  0
   41.0530   24.3660   33.6530 H   0  0  0  0  0  0  0  0  0  0  0  0
   43.3070   25.2530   35.1660 H   0  0  0  0  0  0  0  0  0  0  0  0
   43.2380   23.9120   33.9920 H   0  0  0  0  0  0  0  0  0  0  0  0
   43.4680   22.6810   36.1410 H   0  0  0  0  0  0  0  0  0  0  0  0
   42.7370   24.0830   37.0120 H   0  0  0  0  0  0  0  0  0  0  0  0
   41.5040   22.0770   35.2090 H   0  0  0  0  0  0  0  0  0  0  0  0
   41.1240   22.3100   37.3620 C   0  0  0  0  0  2  0  0  0  0  0  0
   41.9600   21.0490   37.5050 C   0  0  0  0  0  2  0  0  0  0  0  0
   42.3530   20.7060   36.5070 H   0  0  0  0  0  0  0  0  0  0  0  0
  1 13  1  0  0  0  0
  1  6  1  0  0  0  0
  2  1  2  0  0  0  0
  3  2  1  0  0  0  0
  3  4  2  0  0  0  0
  4  5  1  0  0  0  0
  5  6  2  0  0  0  0
  5  7  1  0  0  0  0
  7  8  1  0  0  0  0
  8  9  1  0  0  0  0
  8 17  1  0  0  0  0
  8 16  1  0  0  0  0
  9 18  1  0  0  0  0
  9 19  1  0  0  0  0
 10  9  1  0  0  0  0
 11 21  1  0  0  0  0
 11 10  1  0  0  0  0
 12 23  1  6  0  0  0
 12 11  1  0  0  0  0
 12  7  1  0  0  0  0
 12 24  1  0  0  0  0
 14  2  1  0  0  0  0
 15  3  1  0  0  0  0
 20 10  1  0  0  0  0
 22 11  1  0  0  0  0
 24 25  1  6  0  0  0
 24 28  1  0  0  0  0
 25 29  1  0  0  0  0
 25 26  1  0  0  0  0
 26 31  1  0  0  0  0
 26 27  1  0  0  0  0
 27 33  1  0  0  0  0
 27 34  1  0  0  0  0
 28 35  1  6  0  0  0
 28 27  1  0  0  0  0
 28 36  1  0  0  0  0
 30 25  1  0  0  0  0
 32 26  1  0  0  0  0
 36 37  1  0  0  0  0
 38 37  1  0  0  0  0
M  END
>  <minimizedAffinity>
-5.14112806

$$$$

 OpenBabel03272505533D

 38 40  0  0  1  0  0  0  0  0999 V2000
   38.1470   23.8920   38.1580 C   0  0  0  0  0  0  0  0  0  0  0  0
   39.2880   23.0540   38.2020 C   0  0  0  0  0  0  0  0  0  0  0  0
   40.0050   22.9060   37.0210 C   0  0  0  0  0  0  0  0  0  0  0  0
   39.5700   23.5650   35.9150 N   0  0  0  0  0  0  0  0  0  0  0  0
   38.4750   24.3550   35.9210 C   0  0  0  0  0  0  0  0  0  0  0  0
   37.7680   24.5170   37.0350 N   0  0  0  0  0  0  0  0  0  0  0  0
   38.1030   24.9960   34.7290 N   0  0  0  0  0  0  0  0  0  0  0  0
   37.3730   26.2740   34.7460 C   0  0  0  0  0  0  0  0  0  0  0  0
   38.1250   27.2790   33.9440 C   0  0  0  0  0  0  0  0  0  0  0  0
   39.0520   26.8040   33.0500 N   0  0  0  0  0  0  0  0  0  0  0  0
   39.0200   25.4500   32.5650 C   0  0  0  0  0  0  0  0  0  0  0  0
   38.4090   24.4490   33.4200 C   0  0  2  0  0  0  0  0  0  0  0  0
   37.5700   24.0200   39.0800 H   0  0  0  0  0  0  0  0  0  0  0  0
   39.6030   22.5440   39.1030 H   0  0  0  0  0  0  0  0  0  0  0  0
   40.8910   22.2840   36.9620 H   0  0  0  0  0  0  0  0  0  0  0  0
   36.3960   26.0590   34.2830 H   0  0  0  0  0  0  0  0  0  0  0  0
   37.1970   26.6100   35.7890 H   0  0  0  0  0  0  0  0  0  0  0  0
   38.5990   27.9790   34.6630 H   0  0  0  0  0  0  0  0  0  0  0  0
   37.3580   27.9120   33.4220 H   0  0  0  0  0  0  0  0  0  0  0  0
   39.9680   27.2550   33.0890 H   0  0  0  0  0  0  0  0  0  0  0  0
   38.7350   25.5670   31.5240 H   0  0  0  0  0  0  0  0  0  0  0  0
   40.1220   25.1870   32.4720 H   0  0  0  0  0  0  0  0  0  0  0  0
   39.0710   23.5490   33.5950 H   0  0  0  0  0  0  0  0  0  0  0  0
   37.1610   23.9080   32.8860 N   0  0  2  0  0  0  0  0  0  0  0  0
   37.1650   22.4620   32.8590 C   0  0  0  0  0  0  0  0  0  0  0  0
   36.4080   22.0300   31.6230 C   0  0  0  0  0  0  0  0  0  0  0  0
   35.8300   23.3010   31.1330 C   0  0  0  0  0  0  0  0  0  0  0  0
   36.8620   24.3640   31.5710 C   0  0  1  0  0  0  0  0  0  0  0  0
   36.8370   21.9860   33.7850 H   0  0  0  0  0  0  0  0  0  0  0  0
   38.2390   22.1820   32.6510 H   0  0  0  0  0  0  0  0  0  0  0  0
   35.5760   21.3900   31.9860 H   0  0  0  0  0  0  0  0  0  0  0  0
   37.0000   21.4470   30.9130 H   0  0  0  0  0  0  0  0  0  0  0  0
   35.6460   23.3450   30.0460 H   0  0  0  0  0  0  0  0  0  0  0  0
   34.8520   23.5040   31.6590 H   0  0  0  0  0  0  0  0  0  0  0  0
   37.6060   24.1800   30.7890 H   0  0  0  0  0  0  0  0  0  0  0  0
   36.0470   25.5980   31.4190 C   0  0  0  0  0  2  0  0  0  0  0  0
   34.7290   25.2280   30.7620 C   0  0  0  0  0  2  0  0  0  0  0  0
   34.7430   24.1660   30.3910 H   0  0  0  0  0  0  0  0  0  0  0  0
  1  2  1  0  0  0  0
  1 13  1  0  0  0  0
  2 14  1  0  0  0  0
  3  2  2  0  0  0  0
  4  5  2  0  0  0  0
  4  3  1  0  0  0  0
  5  6  1  0  0  0  0
  6  1  2  0  0  0  0
  7  8  1  0  0  0  0
  7  5  1  0  0  0  0
  8 17  1  0  0  0  0
  9 18  1  0  0  0  0
  9  8  1  0  0  0  0
 10 20  1  0  0  0  0
 10  9  1  0  0  0  0
 11 10  1  0  0  0  0
 11 12  1  0  0  0  0
 12 23  1  1  0  0  0
 12  7  1  0  0  0  0
 15  3  1  0  0  0  0
 16  8  1  0  0  0  0
 19  9  1  0  0  0  0
 21 11  1  0  0  0  0
 22 11  1  0  0  0  0
 24 25  1  6  0  0  0
 24 12  1  0  0  0  0
 25 29  1  0  0  0  0
 26 31  1  0  0  0  0
 26 25  1  0  0  0  0
 27 28  1  0  0  0  0
 27 26  1  0  0  0  0
 27 34  1  0  0  0  0
 28 35  1  6  0  0  0
 28 24  1  0  0  0  0
 30 25  1  0  0  0  0
 32 26  1  0  0  0  0
 33 27  1  0  0  0  0
 36 28  1  0  0  0  0
 37 36  1  0  0  0  0
 38 37  1  0  0  0  0
M  END
>  <minimizedAffinity>
-5.12227583

$$$$

 OpenBabel03272505533D

 38 40  0  0  1  0  0  0  0  0999 V2000
   35.7290   23.1730   31.5170 C   0  0  0  0  0  0  0  0  0  0  0  0
   35.4800   24.5410   31.2500 C   0  0  0  0  0  0  0  0  0  0  0  0
   36.3400   25.4630   31.8340 C   0  0  0  0  0  0  0  0  0  0  0  0
   37.3510   24.9970   32.6140 N   0  0  0  0  0  0  0  0  0  0  0  0
   37.5500   23.6810   32.8400 C   0  0  0  0  0  0  0  0  0  0  0  0
   36.7450   22.7750   32.2950 N   0  0  0  0  0  0  0  0  0  0  0  0
   38.6220   23.2960   33.6600 N   0  0  0  0  0  0  0  0  0  0  0  0
   39.2840   21.9920   33.4880 C   0  0  0  0  0  0  0  0  0  0  0  0
   40.7440   22.2060   33.2900 C   0  0  0  0  0  0  0  0  0  0  0  0
   41.2630   23.4130   33.6880 N   0  0  0  0  0  0  0  0  0  0  0  0
   40.5860   24.2600   34.6320 C   0  0  0  0  0  0  0  0  0  0  0  0
   39.1410   24.1440   34.7170 C   0  0  2  0  0  0  0  0  0  0  0  0
   35.0610   22.4320   31.0650 H   0  0  0  0  0  0  0  0  0  0  0  0
   34.6620   24.8740   30.6230 H   0  0  0  0  0  0  0  0  0  0  0  0
   36.2240   26.5300   31.6850 H   0  0  0  0  0  0  0  0  0  0  0  0
   39.0950   21.4430   34.4250 H   0  0  0  0  0  0  0  0  0  0  0  0
   38.8210   21.4260   32.6540 H   0  0  0  0  0  0  0  0  0  0  0  0
   40.9560   22.0250   32.2150 H   0  0  0  0  0  0  0  0  0  0  0  0
   41.2660   21.3590   33.8110 H   0  0  0  0  0  0  0  0  0  0  0  0
   41.8630   23.8770   33.0030 H   0  0  0  0  0  0  0  0  0  0  0  0
   41.2180   24.2050   35.5120 H   0  0  0  0  0  0  0  0  0  0  0  0
   40.8180   25.3060   34.2490 H   0  0  0  0  0  0  0  0  0  0  0  0
   38.6090   25.1370   34.6220 H   0  0  0  0  0  0  0  0  0  0  0  0
   38.6750   23.5790   35.9810 N   0  0  2  0  0  0  0  0  0  0  0  0
   37.7550   24.4630   36.6630 C   0  0  0  0  0  0  0  0  0  0  0  0
   38.0070   24.3210   38.1470 C   0  0  0  0  0  0  0  0  0  0  0  0
   38.9390   23.1740   38.2130 C   0  0  0  0  0  0  0  0  0  0  0  0
   39.7280   23.2690   36.8870 C   0  0  1  0  0  0  0  0  0  0  0  0
   36.7100   24.3550   36.3650 H   0  0  0  0  0  0  0  0  0  0  0  0
   38.1140   25.5020   36.4080 H   0  0  0  0  0  0  0  0  0  0  0  0
   37.0390   24.0050   38.5900 H   0  0  0  0  0  0  0  0  0  0  0  0
   38.3210   25.2450   38.6410 H   0  0  0  0  0  0  0  0  0  0  0  0
   39.6170   23.1690   39.0830 H   0  0  0  0  0  0  0  0  0  0  0  0
   38.3560   22.2070   38.2210 H   0  0  0  0  0  0  0  0  0  0  0  0
   40.4050   24.0790   37.1750 H   0  0  0  0  0  0  0  0  0  0  0  0
   40.3230   21.9080   36.8390 C   0  0  0  0  0  2  0  0  0  0  0  0
   41.8040   22.0170   37.1580 C   0  0  0  0  0  2  0  0  0  0  0  0
   42.1370   23.0920   37.1830 H   0  0  0  0  0  0  0  0  0  0  0  0
  1  6  1  0  0  0  0
  2  1  2  0  0  0  0
  2  3  1  0  0  0  0
  3  4  2  0  0  0  0
  4  5  1  0  0  0  0
  5  7  1  0  0  0  0
  6  5  2  0  0  0  0
  7 12  1  0  0  0  0
  8  7  1  0  0  0  0
  8 16  1  0  0  0  0
  9  8  1  0  0  0  0
  9 10  1  0  0  0  0
  9 19  1  0  0  0  0
 10 11  1  0  0  0  0
 11 12  1  0  0  0  0
 11 21  1  0  0  0  0
 12 23  1  6  0  0  0
 12 24  1  0  0  0  0
 13  1  1  0  0  0  0
 14  2  1  0  0  0  0
 15  3  1  0  0  0  0
 17  8  1  0  0  0  0
 18  9  1  0  0  0  0
 20 10  1  0  0  0  0
 22 11  1  0  0  0  0
 24 25  1  1  0  0  0
 24 28  1  0  0  0  0
 25 26  1  0  0  0  0
 26 27  1  0  0  0  0
 26 31  1  0  0  0  0
 26 32  1  0  0  0  0
 27 34  1  0  0  0  0
 27 33  1  0  0  0  0
 28 35  1  1  0  0  0
 28 27  1  0  0  0  0
 29 25  1  0  0  0  0
 30 25  1  0  0  0  0
 36 28  1  0  0  0  0
 36 37  1  0  0  0  0
 37 38  1  0  0  0  0
M  END
>  <minimizedAffinity>
-4.93345976

$$$$

 OpenBabel03272505533D

 38 40  0  0  1  0  0  0  0  0999 V2000
   36.7160   25.7390   32.2930 C   0  0  0  0  0  0  0  0  0  0  0  0
   36.8700   24.7860   31.2580 C   0  0  0  0  0  0  0  0  0  0  0  0
   37.6210   23.6540   31.5520 C   0  0  0  0  0  0  0  0  0  0  0  0
   38.1530   23.5400   32.7980 N   0  0  0  0  0  0  0  0  0  0  0  0
   37.9790   24.4770   33.7540 C   0  0  0  0  0  0  0  0  0  0  0  0
   37.2650   25.5690   33.5030 N   0  0  0  0  0  0  0  0  0  0  0  0
   38.5660   24.2700   35.0110 N   0  0  0  0  0  0  0  0  0  0  0  0
   37.9780   24.8450   36.2320 C   0  0  0  0  0  0  0  0  0  0  0  0
   37.7340   23.7560   37.2180 C   0  0  0  0  0  0  0  0  0  0  0  0
   38.4150   22.5780   37.0370 N   0  0  0  0  0  0  0  0  0  0  0  0
   39.6120   22.5040   36.2440 C   0  0  0  0  0  0  0  0  0  0  0  0
   39.7760   23.4880   35.1890 C   0  0  2  0  0  0  0  0  0  0  0  0
   36.1260   26.6380   32.0790 H   0  0  0  0  0  0  0  0  0  0  0  0
   36.4310   24.9130   30.2760 H   0  0  0  0  0  0  0  0  0  0  0  0
   37.7910   22.8730   30.8210 H   0  0  0  0  0  0  0  0  0  0  0  0
   38.7330   25.5520   36.6140 H   0  0  0  0  0  0  0  0  0  0  0  0
   37.0570   25.4140   35.9920 H   0  0  0  0  0  0  0  0  0  0  0  0
   36.6380   23.5740   37.2360 H   0  0  0  0  0  0  0  0  0  0  0  0
   37.9480   24.1870   38.2320 H   0  0  0  0  0  0  0  0  0  0  0  0
   37.8450   21.7320   37.0870 H   0  0  0  0  0  0  0  0  0  0  0  0
   40.3870   22.3200   36.9820 H   0  0  0  0  0  0  0  0  0  0  0  0
   39.5250   21.4850   35.7450 H   0  0  0  0  0  0  0  0  0  0  0  0
   40.0100   23.0270   34.1830 H   0  0  0  0  0  0  0  0  0  0  0  0
   40.8600   24.4340   35.4370 N   0  0  2  0  0  0  0  0  0  0  0  0
   40.7870   25.5840   34.5620 C   0  0  0  0  0  0  0  0  0  0  0  0
   42.2050   25.9890   34.2280 C   0  0  0  0  0  0  0  0  0  0  0  0
   43.0100   25.1420   35.1360 C   0  0  0  0  0  0  0  0  0  0  0  0
   42.1560   23.8640   35.2950 C   0  0  1  0  0  0  0  0  0  0  0  0
   40.1530   26.3960   34.9240 H   0  0  0  0  0  0  0  0  0  0  0  0
   40.3670   25.1810   33.5950 H   0  0  0  0  0  0  0  0  0  0  0  0
   42.3050   27.0440   34.5610 H   0  0  0  0  0  0  0  0  0  0  0  0
   42.4480   25.9460   33.1630 H   0  0  0  0  0  0  0  0  0  0  0  0
   44.0260   24.9030   34.7780 H   0  0  0  0  0  0  0  0  0  0  0  0
   43.1050   25.6440   36.1430 H   0  0  0  0  0  0  0  0  0  0  0  0
   42.4030   23.4000   34.3340 H   0  0  0  0  0  0  0  0  0  0  0  0
   42.8010   23.2660   36.4920 C   0  0  0  0  0  2  0  0  0  0  0  0
   44.0290   24.0890   36.8420 C   0  0  0  0  0  2  0  0  0  0  0  0
   44.2620   24.8360   36.0340 H   0  0  0  0  0  0  0  0  0  0  0  0
  1  6  1  0  0  0  0
  2  3  1  0  0  0  0
  2  1  2  0  0  0  0
  3  4  2  0  0  0  0
  4  5  1  0  0  0  0
  5  7  1  0  0  0  0
  6  5  2  0  0  0  0
  7 12  1  0  0  0  0
  7  8  1  0  0  0  0
  8 16  1  0  0  0  0
  8  9  1  0  0  0  0
  9 18  1  0  0  0  0
  9 19  1  0  0  0  0
 10 20  1  0  0  0  0
 10  9  1  0  0  0  0
 11 21  1  0  0  0  0
 11 10  1  0  0  0  0
 12 23  1  6  0  0  0
 12 24  1  0  0  0  0
 12 11  1  0  0  0  0
 13  1  1  0  0  0  0
 14  2  1  0  0  0  0
 15  3  1  0  0  0  0
 17  8  1  0  0  0  0
 22 11  1  0  0  0  0
 24 25  1  6  0  0  0
 25 29  1  0  0  0  0
 26 31  1  0  0  0  0
 26 25  1  0  0  0  0
 26 27  1  0  0  0  0
 27 28  1  0  0  0  0
 27 34  1  0  0  0  0
 28 35  1  6  0  0  0
 28 24  1  0  0  0  0
 28 36  1  0  0  0  0
 30 25  1  0  0  0  0
 32 26  1  0  0  0  0
 33 27  1  0  0  0  0
 36 37  1  0  0  0  0
 38 37  1  0  0  0  0
M  END
>  <minimizedAffinity>
-4.76442051

$$$$

 OpenBabel03272505533D

 38 40  0  0  1  0  0  0  0  0999 V2000
   35.3240   19.8640   33.0210 C   0  0  0  0  0  0  0  0  0  0  0  0
   35.7090   19.5630   31.6920 C   0  0  0  0  0  0  0  0  0  0  0  0
   36.8110   20.2430   31.1870 C   0  0  0  0  0  0  0  0  0  0  0  0
   37.4380   21.1410   31.9920 N   0  0  0  0  0  0  0  0  0  0  0  0
   37.0340   21.3950   33.2540 C   0  0  0  0  0  0  0  0  0  0  0  0
   35.9840   20.7610   33.7660 N   0  0  0  0  0  0  0  0  0  0  0  0
   37.7470   22.3400   34.0090 N   0  0  0  0  0  0  0  0  0  0  0  0
   37.8060   22.2540   35.4780 C   0  0  0  0  0  0  0  0  0  0  0  0
   39.2320   22.2330   35.9100 C   0  0  0  0  0  0  0  0  0  0  0  0
   40.1680   22.6850   35.0130 N   0  0  0  0  0  0  0  0  0  0  0  0
   39.8170   23.5380   33.9100 C   0  0  0  0  0  0  0  0  0  0  0  0
   38.4600   23.4480   33.4020 C   0  0  2  0  0  0  0  0  0  0  0  0
   34.4570   19.3380   33.4350 H   0  0  0  0  0  0  0  0  0  0  0  0
   35.1820   18.8410   31.0810 H   0  0  0  0  0  0  0  0  0  0  0  0
   37.1750   20.0760   30.1800 H   0  0  0  0  0  0  0  0  0  0  0  0
   37.3030   23.1640   35.8440 H   0  0  0  0  0  0  0  0  0  0  0  0
   37.2400   21.3730   35.8410 H   0  0  0  0  0  0  0  0  0  0  0  0
   39.4610   21.1930   36.2220 H   0  0  0  0  0  0  0  0  0  0  0  0
   39.2850   22.8160   36.8680 H   0  0  0  0  0  0  0  0  0  0  0  0
   40.9770   22.0760   34.8830 H   0  0  0  0  0  0  0  0  0  0  0  0
   40.2680   24.4870   34.1770 H   0  0  0  0  0  0  0  0  0  0  0  0
   40.5110   23.1810   33.0810 H   0  0  0  0  0  0  0  0  0  0  0  0
   38.4130   23.2850   32.2840 H   0  0  0  0  0  0  0  0  0  0  0  0
   37.6650   24.6490   33.6470 N   0  0  2  0  0  0  0  0  0  0  0  0
   36.9960   25.1100   32.4500 C   0  0  0  0  0  0  0  0  0  0  0  0
   36.9810   26.6210   32.4950 C   0  0  0  0  0  0  0  0  0  0  0  0
   37.4720   26.9150   33.8590 C   0  0  0  0  0  0  0  0  0  0  0  0
   38.4240   25.7360   34.1640 C   0  0  1  0  0  0  0  0  0  0  0  0
   36.0250   24.6490   32.2620 H   0  0  0  0  0  0  0  0  0  0  0  0
   37.7050   24.8540   31.6100 H   0  0  0  0  0  0  0  0  0  0  0  0
   35.9110   26.9150   32.4430 H   0  0  0  0  0  0  0  0  0  0  0  0
   37.5050   27.1020   31.6640 H   0  0  0  0  0  0  0  0  0  0  0  0
   37.9840   27.8840   33.9760 H   0  0  0  0  0  0  0  0  0  0  0  0
   36.6120   26.8850   34.5900 H   0  0  0  0  0  0  0  0  0  0  0  0
   39.2810   26.0820   33.5770 H   0  0  0  0  0  0  0  0  0  0  0  0
   38.5470   25.8740   35.6390 C   0  0  0  0  0  2  0  0  0  0  0  0
   38.5710   27.3530   35.9860 C   0  0  0  0  0  2  0  0  0  0  0  0
   38.6650   27.9860   35.0600 H   0  0  0  0  0  0  0  0  0  0  0  0
  1 13  1  0  0  0  0
  1  6  1  0  0  0  0
  2  1  2  0  0  0  0
  3  2  1  0  0  0  0
  3  4  2  0  0  0  0
  4  5  1  0  0  0  0
  5  6  2  0  0  0  0
  5  7  1  0  0  0  0
  7  8  1  0  0  0  0
  8 17  1  0  0  0  0
  8 16  1  0  0  0  0
  8  9  1  0  0  0  0
  9 18  1  0  0  0  0
  9 19  1  0  0  0  0
 10  9  1  0  0  0  0
 11 21  1  0  0  0  0
 11 10  1  0  0  0  0
 12 23  1  6  0  0  0
 12 24  1  0  0  0  0
 12 11  1  0  0  0  0
 12  7  1  0  0  0  0
 14  2  1  0  0  0  0
 15  3  1  0  0  0  0
 20 10  1  0  0  0  0
 22 11  1  0  0  0  0
 24 25  1  6  0  0  0
 24 28  1  0  0  0  0
 25 26  1  0  0  0  0
 26 27  1  0  0  0  0
 27 33  1  0  0  0  0
 27 28  1  0  0  0  0
 27 34  1  0  0  0  0
 28 35  1  6  0  0  0
 28 36  1  0  0  0  0
 29 25  1  0  0  0  0
 30 25  1  0  0  0  0
 31 26  1  0  0  0  0
 32 26  1  0  0  0  0
 36 37  1  0  0  0  0
 38 37  1  0  0  0  0
M  END
>  <minimizedAffinity>
-4.69442177

$$$$

 OpenBabel03272505533D

 38 40  0  0  1  0  0  0  0  0999 V2000
   37.5760   27.8110   35.0140 C   0  0  0  0  0  0  0  0  0  0  0  0
   37.0360   27.8130   33.7050 C   0  0  0  0  0  0  0  0  0  0  0  0
   36.9230   26.5810   33.0710 C   0  0  0  0  0  0  0  0  0  0  0  0
   37.3350   25.4720   33.7390 N   0  0  0  0  0  0  0  0  0  0  0  0
   37.8440   25.5200   34.9880 C   0  0  0  0  0  0  0  0  0  0  0  0
   37.9640   26.6820   35.6210 N   0  0  0  0  0  0  0  0  0  0  0  0
   38.2420   24.3200   35.5970 N   0  0  0  0  0  0  0  0  0  0  0  0
   38.2180   24.1630   37.0610 C   0  0  0  0  0  0  0  0  0  0  0  0
   37.4000   22.9700   37.4130 C   0  0  0  0  0  0  0  0  0  0  0  0
   37.1760   22.0460   36.4230 N   0  0  0  0  0  0  0  0  0  0  0  0
   38.0120   21.9610   35.2560 C   0  0  0  0  0  0  0  0  0  0  0  0
   38.6970   23.1710   34.8370 C   0  0  2  0  0  0  0  0  0  0  0  0
   37.6730   28.7730   35.5300 H   0  0  0  0  0  0  0  0  0  0  0  0
   36.7190   28.7190   33.2050 H   0  0  0  0  0  0  0  0  0  0  0  0
   36.5210   26.4880   32.0690 H   0  0  0  0  0  0  0  0  0  0  0  0
   39.2700   24.0130   37.3560 H   0  0  0  0  0  0  0  0  0  0  0  0
   37.8490   25.0890   37.5470 H   0  0  0  0  0  0  0  0  0  0  0  0
   36.4380   23.3450   37.8210 H   0  0  0  0  0  0  0  0  0  0  0  0
   37.8960   22.4910   38.2990 H   0  0  0  0  0  0  0  0  0  0  0  0
   36.2040   21.7490   36.3140 H   0  0  0  0  0  0  0  0  0  0  0  0
   38.5380   21.0230   35.3960 H   0  0  0  0  0  0  0  0  0  0  0  0
   37.2740   21.6890   34.4330 H   0  0  0  0  0  0  0  0  0  0  0  0
   38.5300   23.4220   33.7470 H   0  0  0  0  0  0  0  0  0  0  0  0
   40.1470   23.1040   34.9970 N   0  0  2  0  0  0  0  0  0  0  0  0
   40.5330   22.2220   36.0770 C   0  0  0  0  0  0  0  0  0  0  0  0
   41.7560   22.8220   36.7350 C   0  0  0  0  0  0  0  0  0  0  0  0
   42.1120   23.9280   35.8190 C   0  0  0  0  0  0  0  0  0  0  0  0
   40.7510   24.3710   35.2360 C   0  0  1  0  0  0  0  0  0  0  0  0
   40.6350   21.1720   35.7960 H   0  0  0  0  0  0  0  0  0  0  0  0
   39.7120   22.3300   36.8420 H   0  0  0  0  0  0  0  0  0  0  0  0
   42.5480   22.0470   36.6640 H   0  0  0  0  0  0  0  0  0  0  0  0
   41.6210   23.0740   37.7900 H   0  0  0  0  0  0  0  0  0  0  0  0
   42.6410   24.7750   36.2880 H   0  0  0  0  0  0  0  0  0  0  0  0
   42.7570   23.5370   34.9800 H   0  0  0  0  0  0  0  0  0  0  0  0
   40.3990   24.9450   36.0990 H   0  0  0  0  0  0  0  0  0  0  0  0
   41.2120   25.1660   34.0680 C   0  0  0  0  0  2  0  0  0  0  0  0
   42.6030   25.6990   34.3660 C   0  0  0  0  0  2  0  0  0  0  0  0
   42.8850   25.5230   35.4410 H   0  0  0  0  0  0  0  0  0  0  0  0
  1 13  1  0  0  0  0
  1  6  1  0  0  0  0
  2  1  2  0  0  0  0
  3  2  1  0  0  0  0
  3  4  2  0  0  0  0
  4  5  1  0  0  0  0
  5  7  1  0  0  0  0
  5  6  2  0  0  0  0
  7  8  1  0  0  0  0
  8 16  1  0  0  0  0
  8  9  1  0  0  0  0
  8 17  1  0  0  0  0
  9 18  1  0  0  0  0
  9 19  1  0  0  0  0
 10  9  1  0  0  0  0
 11 21  1  0  0  0  0
 11 10  1  0  0  0  0
 12 23  1  6  0  0  0
 12 24  1  0  0  0  0
 12 11  1  0  0  0  0
 12  7  1  0  0  0  0
 14  2  1  0  0  0  0
 15  3  1  0  0  0  0
 20 10  1  0  0  0  0
 22 11  1  0  0  0  0
 24 28  1  0  0  0  0
 24 25  1  1  0  0  0
 25 26  1  0  0  0  0
 25 30  1  0  0  0  0
 26 32  1  0  0  0  0
 27 33  1  0  0  0  0
 27 26  1  0  0  0  0
 28 27  1  0  0  0  0
 28 35  1  1  0  0  0
 29 25  1  0  0  0  0
 31 26  1  0  0  0  0
 34 27  1  0  0  0  0
 36 37  1  0  0  0  0
 36 28  1  0  0  0  0
 37 38  1  0  0  0  0
M  END
>  <minimizedAffinity>
-4.64535761

$$$$

 OpenBabel03272505533D

 38 40  0  0  1  0  0  0  0  0999 V2000
   37.0340   28.8390   29.6860 C   0  0  0  0  0  0  0  0  0  0  0  0
   38.3750   29.0320   29.2750 C   0  0  0  0  0  0  0  0  0  0  0  0
   39.3090   28.1050   29.7240 C   0  0  0  0  0  0  0  0  0  0  0  0
   38.8790   27.0900   30.5180 N   0  0  0  0  0  0  0  0  0  0  0  0
   37.5870   26.9470   30.8840 C   0  0  0  0  0  0  0  0  0  0  0  0
   36.6710   27.8160   30.4700 N   0  0  0  0  0  0  0  0  0  0  0  0
   37.2380   25.8640   31.7060 N   0  0  0  0  0  0  0  0  0  0  0  0
   35.8900   25.2740   31.6600 C   0  0  0  0  0  0  0  0  0  0  0  0
   36.0040   23.8130   31.3920 C   0  0  0  0  0  0  0  0  0  0  0  0
   37.2180   23.2210   31.6340 N   0  0  0  0  0  0  0  0  0  0  0  0
   38.1980   23.8190   32.4990 C   0  0  0  0  0  0  0  0  0  0  0  0
   38.1690   25.2640   32.6440 C   0  0  2  0  0  0  0  0  0  0  0  0
   36.2840   29.5600   29.3410 H   0  0  0  0  0  0  0  0  0  0  0  0
   38.6800   29.8550   28.6420 H   0  0  0  0  0  0  0  0  0  0  0  0
   40.3570   28.1750   29.4600 H   0  0  0  0  0  0  0  0  0  0  0  0
   35.4590   25.4540   32.6580 H   0  0  0  0  0  0  0  0  0  0  0  0
   35.2610   25.7950   30.9100 H   0  0  0  0  0  0  0  0  0  0  0  0
   35.6940   23.6520   30.3380 H   0  0  0  0  0  0  0  0  0  0  0  0
   35.1920   23.3150   31.9860 H   0  0  0  0  0  0  0  0  0  0  0  0
   37.5710   22.6260   30.8820 H   0  0  0  0  0  0  0  0  0  0  0  0
   38.2070   23.1570   33.3590 H   0  0  0  0  0  0  0  0  0  0  0  0
   39.1820   23.5510   31.9940 H   0  0  0  0  0  0  0  0  0  0  0  0
   39.1720   25.7500   32.4550 H   0  0  0  0  0  0  0  0  0  0  0  0
   37.7730   25.7080   33.9780 N   0  0  2  0  0  0  0  0  0  0  0  0
   37.8340   27.1480   34.1090 C   0  0  0  0  0  0  0  0  0  0  0  0
   38.2850   27.4540   35.5200 C   0  0  0  0  0  0  0  0  0  0  0  0
   38.2440   26.1270   36.1730 C   0  0  0  0  0  0  0  0  0  0  0  0
   38.5590   25.1450   35.0210 C   0  0  1  0  0  0  0  0  0  0  0  0
   36.9310   27.6750   33.7940 H   0  0  0  0  0  0  0  0  0  0  0  0
   38.7000   27.4580   33.4560 H   0  0  0  0  0  0  0  0  0  0  0  0
   37.4840   28.0820   35.9640 H   0  0  0  0  0  0  0  0  0  0  0  0
   39.2250   28.0090   35.5820 H   0  0  0  0  0  0  0  0  0  0  0  0
   38.9450   25.9950   37.0140 H   0  0  0  0  0  0  0  0  0  0  0  0
   37.2020   25.9190   36.5520 H   0  0  0  0  0  0  0  0  0  0  0  0
   39.6420   25.3040   34.9830 H   0  0  0  0  0  0  0  0  0  0  0  0
   38.1090   23.8690   35.6350 C   0  0  0  0  0  2  0  0  0  0  0  0
   37.7850   24.1240   37.0970 C   0  0  0  0  0  2  0  0  0  0  0  0
   38.1190   25.1510   37.4150 H   0  0  0  0  0  0  0  0  0  0  0  0
  1  6  1  0  0  0  0
  2  1  2  0  0  0  0
  2  3  1  0  0  0  0
  3  4  2  0  0  0  0
  4  5  1  0  0  0  0
  5  7  1  0  0  0  0
  6  5  2  0  0  0  0
  7 12  1  0  0  0  0
  8  7  1  0  0  0  0
  8 16  1  0  0  0  0
  9 10  1  0  0  0  0
  9  8  1  0  0  0  0
  9 19  1  0  0  0  0
 10 11  1  0  0  0  0
 11 12  1  0  0  0  0
 11 21  1  0  0  0  0
 12 23  1  6  0  0  0
 12 24  1  0  0  0  0
 13  1  1  0  0  0  0
 14  2  1  0  0  0  0
 15  3  1  0  0  0  0
 17  8  1  0  0  0  0
 18  9  1  0  0  0  0
 20 10  1  0  0  0  0
 22 11  1  0  0  0  0
 24 25  1  6  0  0  0
 24 28  1  0  0  0  0
 25 26  1  0  0  0  0
 26 32  1  0  0  0  0
 26 31  1  0  0  0  0
 26 27  1  0  0  0  0
 27 34  1  0  0  0  0
 27 33  1  0  0  0  0
 28 35  1  6  0  0  0
 28 36  1  0  0  0  0
 28 27  1  0  0  0  0
 29 25  1  0  0  0  0
 30 25  1  0  0  0  0
 36 37  1  0  0  0  0
 37 38  1  0  0  0  0
M  END
>  <minimizedAffinity>
-4.63572788

$$$$

 OpenBabel03272505533D

 38 40  0  0  1  0  0  0  0  0999 V2000
   35.9530   25.4290   31.4570 C   0  0  0  0  0  0  0  0  0  0  0  0
   35.9300   26.8380   31.5930 C   0  0  0  0  0  0  0  0  0  0  0  0
   36.9100   27.4080   32.3960 C   0  0  0  0  0  0  0  0  0  0  0  0
   37.8140   26.5870   32.9910 N   0  0  0  0  0  0  0  0  0  0  0  0
   37.7970   25.2470   32.8320 C   0  0  0  0  0  0  0  0  0  0  0  0
   36.8730   24.6710   32.0700 N   0  0  0  0  0  0  0  0  0  0  0  0
   38.7730   24.4800   33.4870 N   0  0  0  0  0  0  0  0  0  0  0  0
   39.2250   23.1900   32.9400 C   0  0  0  0  0  0  0  0  0  0  0  0
   40.7050   23.2170   32.7800 C   0  0  0  0  0  0  0  0  0  0  0  0
   41.3980   24.1640   33.4920 N   0  0  0  0  0  0  0  0  0  0  0  0
   40.8400   24.8060   34.6510 C   0  0  0  0  0  0  0  0  0  0  0  0
   39.3930   24.9020   34.7300 C   0  0  2  0  0  0  0  0  0  0  0  0
   35.1880   24.9620   30.8270 H   0  0  0  0  0  0  0  0  0  0  0  0
   35.1920   27.4600   31.1020 H   0  0  0  0  0  0  0  0  0  0  0  0
   36.9680   28.4780   32.5570 H   0  0  0  0  0  0  0  0  0  0  0  0
   38.9280   22.4360   33.6870 H   0  0  0  0  0  0  0  0  0  0  0  0
   38.7000   22.9640   31.9890 H   0  0  0  0  0  0  0  0  0  0  0  0
   40.9130   23.3150   31.6940 H   0  0  0  0  0  0  0  0  0  0  0  0
   41.0730   22.1850   33.0290 H   0  0  0  0  0  0  0  0  0  0  0  0
   42.0810   24.7010   32.9540 H   0  0  0  0  0  0  0  0  0  0  0  0
   41.4330   24.4050   35.4660 H   0  0  0  0  0  0  0  0  0  0  0  0
   41.2440   25.8660   34.5750 H   0  0  0  0  0  0  0  0  0  0  0  0
   39.0270   25.9520   34.9300 H   0  0  0  0  0  0  0  0  0  0  0  0
   38.8110   24.0840   35.7920 N   0  0  2  0  0  0  0  0  0  0  0  0
   37.8770   24.8350   36.6030 C   0  0  0  0  0  0  0  0  0  0  0  0
   38.0120   24.3370   38.0240 C   0  0  0  0  0  0  0  0  0  0  0  0
   38.8910   23.1560   37.8770 C   0  0  0  0  0  0  0  0  0  0  0  0
   39.7800   23.5130   36.6640 C   0  0  1  0  0  0  0  0  0  0  0  0
   36.8550   24.8570   36.2210 H   0  0  0  0  0  0  0  0  0  0  0  0
   38.2950   25.8830   36.6240 H   0  0  0  0  0  0  0  0  0  0  0  0
   37.0020   23.9800   38.3170 H   0  0  0  0  0  0  0  0  0  0  0  0
   38.3230   25.1010   38.7420 H   0  0  0  0  0  0  0  0  0  0  0  0
   39.5010   22.9100   38.7620 H   0  0  0  0  0  0  0  0  0  0  0  0
   38.2710   22.2480   37.6180 H   0  0  0  0  0  0  0  0  0  0  0  0
   40.4650   24.1960   37.1780 H   0  0  0  0  0  0  0  0  0  0  0  0
   40.3240   22.1710   36.3340 C   0  0  0  0  0  2  0  0  0  0  0  0
   41.1660   21.6890   37.5030 C   0  0  0  0  0  2  0  0  0  0  0  0
   41.3250   22.5110   38.2560 H   0  0  0  0  0  0  0  0  0  0  0  0
  1  2  2  0  0  0  0
  1  6  1  0  0  0  0
  2  3  1  0  0  0  0
  3 15  1  0  0  0  0
  3  4  2  0  0  0  0
  5  4  1  0  0  0  0
  5  7  1  0  0  0  0
  6  5  2  0  0  0  0
  7 12  1  0  0  0  0
  8  7  1  0  0  0  0
  8 16  1  0  0  0  0
  9  8  1  0  0  0  0
  9 19  1  0  0  0  0
  9 10  1  0  0  0  0
 10 11  1  0  0  0  0
 11 12  1  0  0  0  0
 11 21  1  0  0  0  0
 12 23  1  1  0  0  0
 12 24  1  0  0  0  0
 13  1  1  0  0  0  0
 14  2  1  0  0  0  0
 17  8  1  0  0  0  0
 18  9  1  0  0  0  0
 20 10  1  0  0  0  0
 22 11  1  0  0  0  0
 24 25  1  1  0  0  0
 24 28  1  0  0  0  0
 25 30  1  0  0  0  0
 25 26  1  0  0  0  0
 26 31  1  0  0  0  0
 26 32  1  0  0  0  0
 27 26  1  0  0  0  0
 27 33  1  0  0  0  0
 28 35  1  1  0  0  0
 28 27  1  0  0  0  0
 29 25  1  0  0  0  0
 34 27  1  0  0  0  0
 36 28  1  0  0  0  0
 36 37  1  0  0  0  0
 37 38  1  0  0  0  0
M  END
>  <minimizedAffinity>
-4.63377762

$$$$
