
 OpenBabel03262521243D

 41 43  0  0  0  0  0  0  0  0999 V2000
   38.1510   28.2390   51.2800 C   0  0  0  0  0  0  0  0  0  0  0  0
   39.0710   28.7160   50.8590 H   0  0  0  0  0  0  0  0  0  0  0  0
   37.8190   27.5120   50.4990 H   0  0  0  0  0  0  0  0  0  0  0  0
   37.1290   29.3280   51.5360 C   0  0  0  0  0  0  0  0  0  0  0  0
   36.1500   28.9070   51.2130 H   0  0  0  0  0  0  0  0  0  0  0  0
   37.0410   29.3530   52.6630 H   0  0  0  0  0  0  0  0  0  0  0  0
   37.4630   30.5330   51.0080 C   0  0  0  0  0  0  0  0  0  0  0  0
   38.4820   30.9150   51.3100 H   0  0  0  0  0  0  0  0  0  0  0  0
   36.7570   31.3690   51.1960 H   0  0  0  0  0  0  0  0  0  0  0  0
   37.5120   30.1660   49.6840 O   0  0  0  0  0  0  0  0  0  0  0  0
   38.1000   31.0270   48.7960 C   0  0  0  0  0  0  0  0  0  0  0  0
   38.3720   32.2580   49.3490 C   0  0  0  0  0  0  0  0  0  0  0  0
   38.9790   33.2450   48.5460 C   0  0  0  0  0  0  0  0  0  0  0  0
   39.2600   32.9080   47.2510 N   0  0  0  0  0  0  0  0  0  0  0  0
   38.9770   31.6770   46.7350 C   0  0  0  0  0  0  0  0  0  0  0  0
   38.4000   30.7620   47.5270 N   0  0  0  0  0  0  0  0  0  0  0  0
   39.8670   32.5530   44.6960 C   0  0  0  0  0  0  0  0  0  0  0  0
   40.0710   33.6960   45.1910 O   0  0  0  0  0  0  0  0  0  0  0  0
   39.3180   31.4460   45.3740 N   0  0  0  0  0  0  0  0  0  0  0  0
   38.1960   32.6360   50.3500 H   0  0  0  0  0  0  0  0  0  0  0  0
   39.2280   34.2220   48.8760 H   0  0  0  0  0  0  0  0  0  0  0  0
   40.1520   32.4560   43.6530 H   0  0  0  0  0  0  0  0  0  0  0  0
   39.1550   30.5200   44.9630 H   0  0  0  0  0  0  0  0  0  0  0  0
   38.6310   27.3230   52.7330 S   0  0  0  0  0  0  0  0  0  0  0  0
   40.4770   25.2660   53.3960 C   0  0  0  0  0  0  0  0  0  0  0  0
   39.8070   26.0530   52.4450 C   0  0  0  0  0  0  0  0  0  0  0  0
   40.1170   25.7920   51.1140 C   0  0  0  0  0  0  0  0  0  0  0  0
   41.0150   24.8320   50.7400 C   0  0  0  0  0  0  0  0  0  0  0  0
   41.4920   24.3770   49.5820 N   0  0  0  0  0  0  0  0  0  0  0  0
   42.4030   23.3720   49.7670 C   0  0  0  0  0  0  0  0  0  0  0  0
   42.4920   23.1940   51.1340 C   0  0  0  0  0  0  0  0  0  0  0  0
   41.6350   24.0960   51.7220 C   0  0  0  0  0  0  0  0  0  0  0  0
   41.3790   24.3000   53.0440 C   0  0  0  0  0  0  0  0  0  0  0  0
   40.2070   25.5020   54.4170 H   0  0  0  0  0  0  0  0  0  0  0  0
   39.6610   26.3390   50.2980 H   0  0  0  0  0  0  0  0  0  0  0  0
   41.2240   24.7270   48.6350 H   0  0  0  0  0  0  0  0  0  0  0  0
   42.9260   22.8450   48.9750 H   0  0  0  0  0  0  0  0  0  0  0  0
   43.1350   22.4630   51.6160 H   0  0  0  0  0  0  0  0  0  0  0  0
   42.0560   23.4990   54.0820 C   0  0  0  0  0  0  0  0  0  0  0  0
   42.3230   24.3630   55.3030 C   0  0  0  0  0  0  0  0  0  0  0  0
   42.8130   23.7350   56.0880 H   0  0  0  0  0  0  0  0  0  0  0  0
  1  4  1  0  0  0  0
  1 24  1  0  0  0  0
  2  1  1  0  0  0  0
  3  1  1  0  0  0  0
  4  6  1  0  0  0  0
  5  4  1  0  0  0  0
  7  9  1  0  0  0  0
  7  8  1  0  0  0  0
  7  4  1  0  0  0  0
 10  7  1  0  0  0  0
 11 12  1  0  0  0  0
 11 10  1  0  0  0  0
 12 20  1  0  0  0  0
 13 21  1  0  0  0  0
 13 12  2  0  0  0  0
 14 13  1  0  0  0  0
 15 14  2  0  0  0  0
 15 16  1  0  0  0  0
 16 11  2  0  0  0  0
 17 18  2  0  0  0  0
 17 19  1  0  0  0  0
 19 15  1  0  0  0  0
 22 17  1  0  0  0  0
 23 19  1  0  0  0  0
 25 34  1  0  0  0  0
 26 24  1  0  0  0  0
 26 25  2  0  0  0  0
 27 26  1  0  0  0  0
 28 27  2  0  0  0  0
 28 32  1  0  0  0  0
 29 30  1  0  0  0  0
 29 28  1  0  0  0  0
 30 31  2  0  0  0  0
 31 38  1  0  0  0  0
 31 32  1  0  0  0  0
 32 33  2  0  0  0  0
 33 25  1  0  0  0  0
 33 39  1  0  0  0  0
 35 27  1  0  0  0  0
 36 29  1  0  0  0  0
 37 30  1  0  0  0  0
 39 40  1  0  0  0  0
 40 41  1  0  0  0  0
M  END
>  <minimizedAffinity>
-4.21652985

>  <minimizedRMSD>
0.304052114

$$$$
