
 OpenBabel03272510263D

 39 42  0  0  1  0  0  0  0  0999 V2000
   36.0720   30.2210   47.0210 C   0  0  0  0  0  0  0  0  0  0  0  0
   36.9910   30.7440   47.9280 C   0  0  0  0  0  0  0  0  0  0  0  0
   37.9840   31.6160   47.5130 C   0  0  0  0  0  0  0  0  0  0  0  0
   38.0140   31.9350   46.1600 C   0  0  0  0  0  0  0  0  0  0  0  0
   38.8890   32.7630   45.5200 N   0  0  0  0  0  0  0  0  0  0  0  0
   38.5290   32.7630   44.2250 C   0  0  0  0  0  0  0  0  0  0  0  0
   37.4870   31.9820   44.0410 N   0  0  0  0  0  0  0  0  0  0  0  0
   37.1240   31.4390   45.2280 C   0  0  0  0  0  0  0  0  0  0  0  0
   36.1280   30.5590   45.6740 C   0  0  0  0  0  0  0  0  0  0  0  0
   35.2700   29.5380   47.2660 H   0  0  0  0  0  0  0  0  0  0  0  0
   38.6920   32.0170   48.2230 H   0  0  0  0  0  0  0  0  0  0  0  0
   39.6880   33.2970   45.9540 H   0  0  0  0  0  0  0  0  0  0  0  0
   35.4340   30.1750   44.9360 H   0  0  0  0  0  0  0  0  0  0  0  0
   37.5750   30.0840   51.5730 C   0  0  0  0  0  0  0  0  0  0  0  0
   37.8120   30.5340   50.2870 C   0  0  0  0  0  0  0  0  0  0  0  0
   36.8490   30.3220   49.3060 C   0  0  0  0  0  0  0  0  0  0  0  0
   35.7070   29.6710   49.6740 N   0  0  0  0  0  0  0  0  0  0  0  0
   35.4850   29.2360   50.9310 C   0  0  0  0  0  0  0  0  0  0  0  0
   36.4130   29.4440   51.8620 N   0  0  0  0  0  0  0  0  0  0  0  0
   38.3190   30.2470   52.3320 H   0  0  0  0  0  0  0  0  0  0  0  0
   38.7230   31.0490   50.0100 H   0  0  0  0  0  0  0  0  0  0  0  0
   34.5300   28.7340   51.0740 H   0  0  0  0  0  0  0  0  0  0  0  0
   39.2260   33.5210   43.2710 O   0  0  0  0  0  0  0  0  0  0  0  0
   39.7570   31.4690   42.4260 N   0  0  0  0  0  0  0  0  0  0  0  0
   39.4940   32.8700   42.0370 C   0  0  1  0  0  0  0  0  0  0  0  0
   38.3480   32.8930   41.1350 C   0  0  0  0  0  0  0  0  0  0  0  0
   38.6960   32.2200   39.9510 O   0  0  0  0  0  0  0  0  0  0  0  0
   39.1450   30.9430   40.1180 C   0  0  0  0  0  0  0  0  0  0  0  0
   40.1700   30.8060   41.2100 C   0  0  2  0  0  0  0  0  0  0  0  0
   40.6320   31.5470   43.0180 H   0  0  0  0  0  0  0  0  0  0  0  0
   40.3700   33.2950   41.5210 H   0  0  0  0  0  0  0  0  0  0  0  0
   38.2110   33.9640   40.7910 H   0  0  0  0  0  0  0  0  0  0  0  0
   37.3850   32.5240   41.3610 H   0  0  0  0  0  0  0  0  0  0  0  0
   38.3200   30.1960   40.3020 H   0  0  0  0  0  0  0  0  0  0  0  0
   39.6660   30.6660   39.1750 H   0  0  0  0  0  0  0  0  0  0  0  0
   41.1750   31.1580   40.8940 H   0  0  0  0  0  0  0  0  0  0  0  0
   40.3190   29.3290   41.5630 C   0  0  0  0  0  2  0  0  0  0  0  0
   41.7280   28.9540   41.8830 C   0  0  0  0  0  2  0  0  0  0  0  0
   42.3800   29.8050   42.1630 H   0  0  0  0  0  0  0  0  0  0  0  0
  1 10  1  0  0  0  0
  1  2  1  0  0  0  0
  2 16  1  0  0  0  0
  3  2  2  0  0  0  0
  3 11  1  0  0  0  0
  4  3  1  0  0  0  0
  5 12  1  0  0  0  0
  5  4  1  0  0  0  0
  6  5  1  0  0  0  0
  7  6  2  0  0  0  0
  7  8  1  0  0  0  0
  8  9  1  0  0  0  0
  8  4  2  0  0  0  0
  9  1  2  0  0  0  0
 13  9  1  0  0  0  0
 14 19  1  0  0  0  0
 14 20  1  0  0  0  0
 15 14  2  0  0  0  0
 16 17  2  0  0  0  0
 16 15  1  0  0  0  0
 17 18  1  0  0  0  0
 18 22  1  0  0  0  0
 18 19  2  0  0  0  0
 21 15  1  0  0  0  0
 23  6  1  0  0  0  0
 24 30  1  0  0  0  0
 25 31  1  6  0  0  0
 25 24  1  0  0  0  0
 25 23  1  0  0  0  0
 26 33  1  0  0  0  0
 26 25  1  0  0  0  0
 27 28  1  0  0  0  0
 27 26  1  0  0  0  0
 28 34  1  0  0  0  0
 28 29  1  0  0  0  0
 29 36  1  6  0  0  0
 29 37  1  0  0  0  0
 29 24  1  0  0  0  0
 32 26  1  0  0  0  0
 35 28  1  0  0  0  0
 37 38  1  0  0  0  0
 38 39  1  0  0  0  0
M  END
>  <minimizedAffinity>
-5.61968088

>  <minimizedRMSD>
0.871649563

$$$$
