
 OpenBabel03272505563D

 28 29  0  0  1  0  0  0  0  0999 V2000
   38.1210   25.7700   33.7010 C   0  0  2  0  0  0  0  0  0  0  0  0
   38.3460   24.6750   34.7130 C   0  0  0  0  0  0  0  0  0  0  0  0
   37.7900   25.0420   36.0580 C   0  0  2  0  0  0  0  0  0  0  0  0
   38.3910   26.3150   36.5740 C   0  0  0  0  0  0  0  0  0  0  0  0
   38.3240   27.4240   35.5750 C   0  0  0  0  0  0  0  0  0  0  0  0
   37.6310   27.0490   34.2840 C   0  0  0  0  0  0  0  0  0  0  0  0
   39.0520   25.9580   33.1290 H   0  0  0  0  0  0  0  0  0  0  0  0
   37.9900   23.6820   34.3960 H   0  0  0  0  0  0  0  0  0  0  0  0
   39.4430   24.5690   34.8480 H   0  0  0  0  0  0  0  0  0  0  0  0
   36.7040   25.2460   35.8890 H   0  0  0  0  0  0  0  0  0  0  0  0
   37.9290   26.5430   37.5540 H   0  0  0  0  0  0  0  0  0  0  0  0
   39.4740   26.0860   36.7920 H   0  0  0  0  0  0  0  0  0  0  0  0
   37.6780   28.2180   36.0470 H   0  0  0  0  0  0  0  0  0  0  0  0
   39.2970   27.9170   35.3780 H   0  0  0  0  0  0  0  0  0  0  0  0
   36.5310   27.0900   34.4340 H   0  0  0  0  0  0  0  0  0  0  0  0
   37.8660   27.8720   33.5610 H   0  0  0  0  0  0  0  0  0  0  0  0
   37.1150   25.3330   32.6830 C   0  0  0  0  0  0  0  0  0  0  0  0
   36.3950   26.3690   32.0470 C   0  0  0  0  0  0  0  0  0  0  0  0
   35.4450   25.9960   31.0990 C   0  0  0  0  0  0  0  0  0  0  0  0
   35.2620   24.6520   30.8390 N   0  0  0  0  0  0  0  0  0  0  0  0
   35.9770   23.6930   31.4760 C   0  0  0  0  0  0  0  0  0  0  0  0
   36.8870   24.0330   32.3830 N   0  0  0  0  0  0  0  0  0  0  0  0
   36.4980   27.4210   32.2140 H   0  0  0  0  0  0  0  0  0  0  0  0
   34.8340   26.7110   30.5480 H   0  0  0  0  0  0  0  0  0  0  0  0
   35.7840   22.6570   31.2240 H   0  0  0  0  0  0  0  0  0  0  0  0
   37.8950   23.9300   37.0520 C   0  0  0  0  0  2  0  0  0  0  0  0
   37.9520   24.4860   38.4610 C   0  0  0  0  0  2  0  0  0  0  0  0
   38.6320   25.3850   38.3920 H   0  0  0  0  0  0  0  0  0  0  0  0
  1  7  1  6  0  0  0
  1  6  1  0  0  0  0
  1  2  1  0  0  0  0
  2  9  1  0  0  0  0
  2  3  1  0  0  0  0
  3 10  1  6  0  0  0
  3  4  1  0  0  0  0
  3 26  1  0  0  0  0
  4 12  1  0  0  0  0
  4 11  1  0  0  0  0
  5 13  1  0  0  0  0
  5  4  1  0  0  0  0
  6 15  1  0  0  0  0
  6  5  1  0  0  0  0
  8  2  1  0  0  0  0
 14  5  1  0  0  0  0
 16  6  1  0  0  0  0
 17  1  1  0  0  0  0
 18 23  1  0  0  0  0
 18 17  2  0  0  0  0
 19 18  1  0  0  0  0
 20 19  2  0  0  0  0
 20 21  1  0  0  0  0
 21 22  2  0  0  0  0
 22 17  1  0  0  0  0
 24 19  1  0  0  0  0
 25 21  1  0  0  0  0
 26 27  1  0  0  0  0
 28 27  1  0  0  0  0
M  END
>  <minimizedAffinity>
-4.47950125

$$$$

 OpenBabel03272505563D

 28 29  0  0  1  0  0  0  0  0999 V2000
   38.6610   24.5810   35.9260 C   0  0  2  0  0  0  0  0  0  0  0  0
   39.9290   23.7960   36.1500 C   0  0  0  0  0  0  0  0  0  0  0  0
   39.7330   22.7040   37.1630 C   0  0  2  0  0  0  0  0  0  0  0  0
   39.2570   23.2500   38.4760 C   0  0  0  0  0  0  0  0  0  0  0  0
   38.0730   24.1480   38.3250 C   0  0  0  0  0  0  0  0  0  0  0  0
   37.5780   24.2820   36.9030 C   0  0  0  0  0  0  0  0  0  0  0  0
   38.8790   25.6680   35.9370 H   0  0  0  0  0  0  0  0  0  0  0  0
   40.3900   23.4030   35.2300 H   0  0  0  0  0  0  0  0  0  0  0  0
   40.6770   24.4920   36.5850 H   0  0  0  0  0  0  0  0  0  0  0  0
   38.9050   22.0680   36.7620 H   0  0  0  0  0  0  0  0  0  0  0  0
   39.1110   22.4000   39.1710 H   0  0  0  0  0  0  0  0  0  0  0  0
   40.1160   23.8480   38.8990 H   0  0  0  0  0  0  0  0  0  0  0  0
   37.2370   23.6450   38.8910 H   0  0  0  0  0  0  0  0  0  0  0  0
   38.1920   25.1420   38.8020 H   0  0  0  0  0  0  0  0  0  0  0  0
   36.9620   23.3930   36.6440 H   0  0  0  0  0  0  0  0  0  0  0  0
   36.8670   25.1480   36.9060 H   0  0  0  0  0  0  0  0  0  0  0  0
   38.1160   24.3010   34.5610 C   0  0  0  0  0  0  0  0  0  0  0  0
   37.7040   25.4310   33.8210 C   0  0  0  0  0  0  0  0  0  0  0  0
   37.1850   25.2060   32.5480 C   0  0  0  0  0  0  0  0  0  0  0  0
   37.1030   23.9060   32.0880 N   0  0  0  0  0  0  0  0  0  0  0  0
   37.5120   22.8520   32.8360 C   0  0  0  0  0  0  0  0  0  0  0  0
   38.0090   23.0510   34.0510 N   0  0  0  0  0  0  0  0  0  0  0  0
   37.7440   26.4540   34.1330 H   0  0  0  0  0  0  0  0  0  0  0  0
   36.8370   26.0020   31.8910 H   0  0  0  0  0  0  0  0  0  0  0  0
   37.4210   21.8580   32.4140 H   0  0  0  0  0  0  0  0  0  0  0  0
   40.9400   21.8360   37.3210 C   0  0  0  0  0  2  0  0  0  0  0  0
   42.1450   22.4860   36.6710 C   0  0  0  0  0  2  0  0  0  0  0  0
   41.7570   22.9190   35.7030 H   0  0  0  0  0  0  0  0  0  0  0  0
  1  7  1  1  0  0  0
  1  2  1  0  0  0  0
  1  6  1  0  0  0  0
  2  9  1  0  0  0  0
  2  3  1  0  0  0  0
  3 10  1  6  0  0  0
  3 26  1  0  0  0  0
  3  4  1  0  0  0  0
  4 12  1  0  0  0  0
  4 11  1  0  0  0  0
  5  4  1  0  0  0  0
  5 14  1  0  0  0  0
  5 13  1  0  0  0  0
  6 16  1  0  0  0  0
  6  5  1  0  0  0  0
  8  2  1  0  0  0  0
 15  6  1  0  0  0  0
 17  1  1  0  0  0  0
 18 23  1  0  0  0  0
 18 17  2  0  0  0  0
 19 18  1  0  0  0  0
 20 19  2  0  0  0  0
 20 21  1  0  0  0  0
 21 22  2  0  0  0  0
 22 17  1  0  0  0  0
 24 19  1  0  0  0  0
 25 21  1  0  0  0  0
 27 26  1  0  0  0  0
 28 27  1  0  0  0  0
M  END
>  <minimizedAffinity>
-4.35105562

$$$$

 OpenBabel03272505563D

 28 29  0  0  1  0  0  0  0  0999 V2000
   39.6230   22.5200   36.4600 C   0  0  2  0  0  0  0  0  0  0  0  0
   38.8150   23.5350   35.6900 C   0  0  0  0  0  0  0  0  0  0  0  0
   38.5870   24.7840   36.4930 C   0  0  2  0  0  0  0  0  0  0  0  0
   37.8930   24.4860   37.7890 C   0  0  0  0  0  0  0  0  0  0  0  0
   38.5620   23.3940   38.5570 C   0  0  0  0  0  0  0  0  0  0  0  0
   39.8110   22.8540   37.8980 C   0  0  0  0  0  0  0  0  0  0  0  0
   39.1600   21.5170   36.3700 H   0  0  0  0  0  0  0  0  0  0  0  0
   39.2150   23.7750   34.6930 H   0  0  0  0  0  0  0  0  0  0  0  0
   37.8120   23.0930   35.5110 H   0  0  0  0  0  0  0  0  0  0  0  0
   39.6050   25.1630   36.7550 H   0  0  0  0  0  0  0  0  0  0  0  0
   37.7720   25.4380   38.3420 H   0  0  0  0  0  0  0  0  0  0  0  0
   36.8490   24.1550   37.5180 H   0  0  0  0  0  0  0  0  0  0  0  0
   38.9080   23.8690   39.5200 H   0  0  0  0  0  0  0  0  0  0  0  0
   37.8840   22.5720   38.8630 H   0  0  0  0  0  0  0  0  0  0  0  0
   40.6600   23.5430   38.0990 H   0  0  0  0  0  0  0  0  0  0  0  0
   40.0600   21.9060   38.4430 H   0  0  0  0  0  0  0  0  0  0  0  0
   40.9850   22.3810   35.8550 C   0  0  0  0  0  0  0  0  0  0  0  0
   42.0550   22.8830   36.6290 C   0  0  0  0  0  0  0  0  0  0  0  0
   43.3360   22.7760   36.0920 C   0  0  0  0  0  0  0  0  0  0  0  0
   43.4850   22.1930   34.8490 N   0  0  0  0  0  0  0  0  0  0  0  0
   42.4270   21.7260   34.1430 C   0  0  0  0  0  0  0  0  0  0  0  0
   41.2000   21.8210   34.6410 N   0  0  0  0  0  0  0  0  0  0  0  0
   41.9910   23.3440   37.5920 H   0  0  0  0  0  0  0  0  0  0  0  0
   44.2320   23.1290   36.6010 H   0  0  0  0  0  0  0  0  0  0  0  0
   42.6140   21.2790   33.1740 H   0  0  0  0  0  0  0  0  0  0  0  0
   37.8880   25.8530   35.7150 C   0  0  0  0  0  2  0  0  0  0  0  0
   38.6560   27.1570   35.8070 C   0  0  0  0  0  2  0  0  0  0  0  0
   38.9890   27.2250   36.8830 H   0  0  0  0  0  0  0  0  0  0  0  0
  1  7  1  6  0  0  0
  1  6  1  0  0  0  0
  2  1  1  0  0  0  0
  2  3  1  0  0  0  0
  3 10  1  1  0  0  0
  3  4  1  0  0  0  0
  4 11  1  0  0  0  0
  4  5  1  0  0  0  0
  5 14  1  0  0  0  0
  5 13  1  0  0  0  0
  6 15  1  0  0  0  0
  6 16  1  0  0  0  0
  6  5  1  0  0  0  0
  8  2  1  0  0  0  0
  9  2  1  0  0  0  0
 12  4  1  0  0  0  0
 17  1  1  0  0  0  0
 17 18  1  0  0  0  0
 18 23  1  0  0  0  0
 19 24  1  0  0  0  0
 19 18  2  0  0  0  0
 20 19  1  0  0  0  0
 21 22  1  0  0  0  0
 21 20  2  0  0  0  0
 22 17  2  0  0  0  0
 25 21  1  0  0  0  0
 26 27  1  0  0  0  0
 26  3  1  0  0  0  0
 27 28  1  0  0  0  0
M  END
>  <minimizedAffinity>
-4.2757411

$$$$

 OpenBabel03272505563D

 28 29  0  0  1  0  0  0  0  0999 V2000
   37.4800   26.9680   33.2070 C   0  0  2  0  0  0  0  0  0  0  0  0
   38.9530   26.8840   32.8940 C   0  0  0  0  0  0  0  0  0  0  0  0
   39.7320   26.3200   34.0460 C   0  0  2  0  0  0  0  0  0  0  0  0
   39.5420   27.1340   35.2910 C   0  0  0  0  0  0  0  0  0  0  0  0
   38.1010   27.3740   35.6020 C   0  0  0  0  0  0  0  0  0  0  0  0
   37.1440   26.7140   34.6340 C   0  0  0  0  0  0  0  0  0  0  0  0
   37.0820   27.9580   32.9030 H   0  0  0  0  0  0  0  0  0  0  0  0
   39.1910   26.3530   31.9580 H   0  0  0  0  0  0  0  0  0  0  0  0
   39.3200   27.9220   32.7480 H   0  0  0  0  0  0  0  0  0  0  0  0
   39.2840   25.3150   34.2490 H   0  0  0  0  0  0  0  0  0  0  0  0
   40.1220   26.6580   36.1060 H   0  0  0  0  0  0  0  0  0  0  0  0
   40.0430   28.1260   35.0980 H   0  0  0  0  0  0  0  0  0  0  0  0
   37.9180   26.8740   36.5970 H   0  0  0  0  0  0  0  0  0  0  0  0
   37.8410   28.4400   35.7580 H   0  0  0  0  0  0  0  0  0  0  0  0
   37.0430   25.6390   34.8950 H   0  0  0  0  0  0  0  0  0  0  0  0
   36.1400   27.1680   34.8390 H   0  0  0  0  0  0  0  0  0  0  0  0
   36.7220   25.9700   32.3890 C   0  0  0  0  0  0  0  0  0  0  0  0
   37.1070   24.6220   32.5540 C   0  0  0  0  0  0  0  0  0  0  0  0
   36.4260   23.6670   31.8020 C   0  0  0  0  0  0  0  0  0  0  0  0
   35.4260   24.0890   30.9470 N   0  0  0  0  0  0  0  0  0  0  0  0
   35.0920   25.3960   30.8220 C   0  0  0  0  0  0  0  0  0  0  0  0
   35.7320   26.3180   31.5320 N   0  0  0  0  0  0  0  0  0  0  0  0
   37.8740   24.2450   33.1990 H   0  0  0  0  0  0  0  0  0  0  0  0
   36.6400   22.6000   31.8510 H   0  0  0  0  0  0  0  0  0  0  0  0
   34.2980   25.6590   30.1340 H   0  0  0  0  0  0  0  0  0  0  0  0
   41.1780   26.1160   33.7250 C   0  0  0  0  0  2  0  0  0  0  0  0
   41.8080   27.4230   33.2850 C   0  0  0  0  0  2  0  0  0  0  0  0
   41.0390   27.9080   32.6170 H   0  0  0  0  0  0  0  0  0  0  0  0
  1  7  1  6  0  0  0
  1  6  1  0  0  0  0
  2  1  1  0  0  0  0
  2  3  1  0  0  0  0
  3 10  1  1  0  0  0
  3  4  1  0  0  0  0
  4  5  1  0  0  0  0
  4 11  1  0  0  0  0
  5 14  1  0  0  0  0
  5 13  1  0  0  0  0
  6 16  1  0  0  0  0
  6 15  1  0  0  0  0
  6  5  1  0  0  0  0
  8  2  1  0  0  0  0
  9  2  1  0  0  0  0
 12  4  1  0  0  0  0
 17 18  1  0  0  0  0
 17  1  1  0  0  0  0
 18 23  1  0  0  0  0
 19 24  1  0  0  0  0
 19 18  2  0  0  0  0
 20 19  1  0  0  0  0
 21 20  2  0  0  0  0
 21 22  1  0  0  0  0
 22 17  2  0  0  0  0
 25 21  1  0  0  0  0
 26  3  1  0  0  0  0
 27 26  1  0  0  0  0
 28 27  1  0  0  0  0
M  END
>  <minimizedAffinity>
-4.23834181

$$$$

 OpenBabel03272505563D

 28 29  0  0  1  0  0  0  0  0999 V2000
   37.3580   21.6440   34.1480 C   0  0  2  0  0  0  0  0  0  0  0  0
   37.2440   22.3080   32.7980 C   0  0  0  0  0  0  0  0  0  0  0  0
   35.8300   22.2920   32.2930 C   0  0  2  0  0  0  0  0  0  0  0  0
   35.2950   20.8950   32.1970 C   0  0  0  0  0  0  0  0  0  0  0  0
   35.4880   20.1220   33.4610 C   0  0  0  0  0  0  0  0  0  0  0  0
   36.1340   20.9140   34.5750 C   0  0  0  0  0  0  0  0  0  0  0  0
   38.2240   20.9510   34.1590 H   0  0  0  0  0  0  0  0  0  0  0  0
   37.6680   23.3230   32.7530 H   0  0  0  0  0  0  0  0  0  0  0  0
   37.8380   21.7040   32.0800 H   0  0  0  0  0  0  0  0  0  0  0  0
   35.2250   22.8140   33.0750 H   0  0  0  0  0  0  0  0  0  0  0  0
   34.2480   20.9490   31.8400 H   0  0  0  0  0  0  0  0  0  0  0  0
   35.8740   20.3910   31.3700 H   0  0  0  0  0  0  0  0  0  0  0  0
   34.4500   19.8740   33.8260 H   0  0  0  0  0  0  0  0  0  0  0  0
   35.9910   19.1430   33.3230 H   0  0  0  0  0  0  0  0  0  0  0  0
   35.3660   21.5550   35.0600 H   0  0  0  0  0  0  0  0  0  0  0  0
   36.4310   20.1630   35.3520 H   0  0  0  0  0  0  0  0  0  0  0  0
   37.6560   22.6640   35.2010 C   0  0  0  0  0  0  0  0  0  0  0  0
   38.2660   23.8550   34.7470 C   0  0  0  0  0  0  0  0  0  0  0  0
   38.5650   24.8240   35.7030 C   0  0  0  0  0  0  0  0  0  0  0  0
   38.2510   24.5680   37.0230 N   0  0  0  0  0  0  0  0  0  0  0  0
   37.6650   23.4090   37.4110 C   0  0  0  0  0  0  0  0  0  0  0  0
   37.3750   22.4760   36.5120 N   0  0  0  0  0  0  0  0  0  0  0  0
   38.5310   24.0990   33.7390 H   0  0  0  0  0  0  0  0  0  0  0  0
   39.0340   25.7770   35.4650 H   0  0  0  0  0  0  0  0  0  0  0  0
   37.4450   23.2730   38.4630 H   0  0  0  0  0  0  0  0  0  0  0  0
   35.6640   23.0450   31.0120 C   0  0  0  0  0  2  0  0  0  0  0  0
   35.5300   24.5290   31.2870 C   0  0  0  0  0  2  0  0  0  0  0  0
   34.8600   24.6000   32.1930 H   0  0  0  0  0  0  0  0  0  0  0  0
  1  7  1  6  0  0  0
  1  6  1  0  0  0  0
  1 17  1  0  0  0  0
  2  1  1  0  0  0  0
  3  2  1  0  0  0  0
  3 10  1  1  0  0  0
  4  3  1  0  0  0  0
  4  5  1  0  0  0  0
  5 13  1  0  0  0  0
  5  6  1  0  0  0  0
  6 15  1  0  0  0  0
  6 16  1  0  0  0  0
  8  2  1  0  0  0  0
  9  2  1  0  0  0  0
 11  4  1  0  0  0  0
 12  4  1  0  0  0  0
 14  5  1  0  0  0  0
 17 22  1  0  0  0  0
 18 17  2  0  0  0  0
 18 19  1  0  0  0  0
 19 20  2  0  0  0  0
 20 21  1  0  0  0  0
 21 25  1  0  0  0  0
 22 21  2  0  0  0  0
 23 18  1  0  0  0  0
 24 19  1  0  0  0  0
 26 27  1  0  0  0  0
 26  3  1  0  0  0  0
 27 28  1  0  0  0  0
M  END
>  <minimizedAffinity>
-4.18974543

$$$$

 OpenBabel03272505563D

 28 29  0  0  1  0  0  0  0  0999 V2000
   38.6010   25.3220   36.0600 C   0  0  2  0  0  0  0  0  0  0  0  0
   39.7330   24.3480   35.8460 C   0  0  0  0  0  0  0  0  0  0  0  0
   39.4210   23.0010   36.4310 C   0  0  2  0  0  0  0  0  0  0  0  0
   39.1250   23.0930   37.8990 C   0  0  0  0  0  0  0  0  0  0  0  0
   38.1000   24.1340   38.2100 C   0  0  0  0  0  0  0  0  0  0  0  0
   37.5470   24.8370   36.9910 C   0  0  0  0  0  0  0  0  0  0  0  0
   38.9970   26.2920   36.4220 H   0  0  0  0  0  0  0  0  0  0  0  0
   40.0640   24.2570   34.8000 H   0  0  0  0  0  0  0  0  0  0  0  0
   40.6120   24.7350   36.4050 H   0  0  0  0  0  0  0  0  0  0  0  0
   38.4760   22.6690   35.9340 H   0  0  0  0  0  0  0  0  0  0  0  0
   38.8840   22.0770   38.2670 H   0  0  0  0  0  0  0  0  0  0  0  0
   40.0960   23.3770   38.3990 H   0  0  0  0  0  0  0  0  0  0  0  0
   37.2290   23.5760   38.6600 H   0  0  0  0  0  0  0  0  0  0  0  0
   38.4120   24.8620   38.9850 H   0  0  0  0  0  0  0  0  0  0  0  0
   36.7770   24.1920   36.5140 H   0  0  0  0  0  0  0  0  0  0  0  0
   36.9910   25.7300   37.3790 H   0  0  0  0  0  0  0  0  0  0  0  0
   37.9340   25.6300   34.7560 C   0  0  0  0  0  0  0  0  0  0  0  0
   37.4300   26.9430   34.6190 C   0  0  0  0  0  0  0  0  0  0  0  0
   36.7960   27.2610   33.4200 C   0  0  0  0  0  0  0  0  0  0  0  0
   36.6970   26.2870   32.4460 N   0  0  0  0  0  0  0  0  0  0  0  0
   37.1960   25.0390   32.6240 C   0  0  0  0  0  0  0  0  0  0  0  0
   37.8030   24.7210   33.7610 N   0  0  0  0  0  0  0  0  0  0  0  0
   37.4790   27.7300   35.3430 H   0  0  0  0  0  0  0  0  0  0  0  0
   36.3710   28.2410   33.2070 H   0  0  0  0  0  0  0  0  0  0  0  0
   37.0850   24.3230   31.8190 H   0  0  0  0  0  0  0  0  0  0  0  0
   40.4750   21.9820   36.1350 C   0  0  0  0  0  2  0  0  0  0  0  0
   41.2960   21.6970   37.3770 C   0  0  0  0  0  2  0  0  0  0  0  0
   41.4600   22.7050   37.8570 H   0  0  0  0  0  0  0  0  0  0  0  0
  1  7  1  1  0  0  0
  1  6  1  0  0  0  0
  2  1  1  0  0  0  0
  2  9  1  0  0  0  0
  2  3  1  0  0  0  0
  3 10  1  6  0  0  0
  3  4  1  0  0  0  0
  4  5  1  0  0  0  0
  4 11  1  0  0  0  0
  4 12  1  0  0  0  0
  5 13  1  0  0  0  0
  5 14  1  0  0  0  0
  6 16  1  0  0  0  0
  6  5  1  0  0  0  0
  8  2  1  0  0  0  0
 15  6  1  0  0  0  0
 17  1  1  0  0  0  0
 18 17  1  0  0  0  0
 18 23  1  0  0  0  0
 19 18  2  0  0  0  0
 20 21  2  0  0  0  0
 20 19  1  0  0  0  0
 21 22  1  0  0  0  0
 22 17  2  0  0  0  0
 24 19  1  0  0  0  0
 25 21  1  0  0  0  0
 26  3  1  0  0  0  0
 26 27  1  0  0  0  0
 27 28  1  0  0  0  0
M  END
>  <minimizedAffinity>
-4.1770134

$$$$

 OpenBabel03272505563D

 28 29  0  0  1  0  0  0  0  0999 V2000
   39.1810   26.0980   34.7850 C   0  0  2  0  0  0  0  0  0  0  0  0
   38.2910   27.2790   35.0820 C   0  0  0  0  0  0  0  0  0  0  0  0
   37.1880   27.4080   34.0710 C   0  0  2  0  0  0  0  0  0  0  0  0
   37.7290   27.5400   32.6790 C   0  0  0  0  0  0  0  0  0  0  0  0
   38.7230   26.4750   32.3490 C   0  0  0  0  0  0  0  0  0  0  0  0
   38.9390   25.4700   33.4580 C   0  0  0  0  0  0  0  0  0  0  0  0
   40.2460   26.3940   34.8660 H   0  0  0  0  0  0  0  0  0  0  0  0
   37.8910   27.3020   36.1080 H   0  0  0  0  0  0  0  0  0  0  0  0
   38.9120   28.1940   34.9830 H   0  0  0  0  0  0  0  0  0  0  0  0
   36.6320   26.4380   34.1080 H   0  0  0  0  0  0  0  0  0  0  0  0
   36.8720   27.6110   31.9810 H   0  0  0  0  0  0  0  0  0  0  0  0
   38.2430   28.5440   32.6350 H   0  0  0  0  0  0  0  0  0  0  0  0
   38.2710   25.8930   31.4960 H   0  0  0  0  0  0  0  0  0  0  0  0
   39.6890   26.8580   31.9630 H   0  0  0  0  0  0  0  0  0  0  0  0
   38.1100   24.7290   33.4470 H   0  0  0  0  0  0  0  0  0  0  0  0
   39.8580   24.8950   33.1750 H   0  0  0  0  0  0  0  0  0  0  0  0
   38.9870   25.0340   35.8200 C   0  0  0  0  0  0  0  0  0  0  0  0
   39.8430   23.9150   35.7190 C   0  0  0  0  0  0  0  0  0  0  0  0
   39.6850   22.9030   36.6630 C   0  0  0  0  0  0  0  0  0  0  0  0
   38.7120   23.0490   37.6320 N   0  0  0  0  0  0  0  0  0  0  0  0
   37.9130   24.1420   37.6890 C   0  0  0  0  0  0  0  0  0  0  0  0
   38.0520   25.1160   36.7960 N   0  0  0  0  0  0  0  0  0  0  0  0
   40.6080   23.7540   34.9870 H   0  0  0  0  0  0  0  0  0  0  0  0
   40.2900   21.9970   36.6790 H   0  0  0  0  0  0  0  0  0  0  0  0
   37.1700   24.1940   38.4760 H   0  0  0  0  0  0  0  0  0  0  0  0
   36.2220   28.5000   34.4040 C   0  0  0  0  0  2  0  0  0  0  0  0
   35.7590   29.1960   33.1390 C   0  0  0  0  0  2  0  0  0  0  0  0
   36.6870   29.2970   32.5050 H   0  0  0  0  0  0  0  0  0  0  0  0
  1  7  1  1  0  0  0
  1  2  1  0  0  0  0
  1 17  1  0  0  0  0
  2  8  1  0  0  0  0
  3 10  1  1  0  0  0
  3 26  1  0  0  0  0
  3  2  1  0  0  0  0
  4  3  1  0  0  0  0
  5  4  1  0  0  0  0
  5  6  1  0  0  0  0
  6  1  1  0  0  0  0
  9  2  1  0  0  0  0
 11  4  1  0  0  0  0
 12  4  1  0  0  0  0
 13  5  1  0  0  0  0
 14  5  1  0  0  0  0
 15  6  1  0  0  0  0
 16  6  1  0  0  0  0
 17 22  1  0  0  0  0
 18 17  2  0  0  0  0
 18 19  1  0  0  0  0
 19 24  1  0  0  0  0
 19 20  2  0  0  0  0
 20 21  1  0  0  0  0
 21 25  1  0  0  0  0
 22 21  2  0  0  0  0
 23 18  1  0  0  0  0
 27 26  1  0  0  0  0
 28 27  1  0  0  0  0
M  END
>  <minimizedAffinity>
-4.13500452

$$$$

 OpenBabel03272505563D

 28 29  0  0  1  0  0  0  0  0999 V2000
   37.7420   25.3310   35.6190 C   0  0  2  0  0  0  0  0  0  0  0  0
   37.8840   25.0720   34.1400 C   0  0  0  0  0  0  0  0  0  0  0  0
   38.6180   26.1860   33.4520 C   0  0  2  0  0  0  0  0  0  0  0  0
   37.9340   27.5050   33.6530 C   0  0  0  0  0  0  0  0  0  0  0  0
   37.6390   27.7810   35.0910 C   0  0  0  0  0  0  0  0  0  0  0  0
   38.1270   26.7070   36.0370 C   0  0  0  0  0  0  0  0  0  0  0  0
   36.7020   25.1240   35.9440 H   0  0  0  0  0  0  0  0  0  0  0  0
   38.3240   24.0940   33.8900 H   0  0  0  0  0  0  0  0  0  0  0  0
   36.8610   25.0590   33.7070 H   0  0  0  0  0  0  0  0  0  0  0  0
   39.6080   26.2570   33.9670 H   0  0  0  0  0  0  0  0  0  0  0  0
   38.5300   28.2860   33.1420 H   0  0  0  0  0  0  0  0  0  0  0  0
   36.9600   27.4440   33.0870 H   0  0  0  0  0  0  0  0  0  0  0  0
   38.2300   28.7050   35.3500 H   0  0  0  0  0  0  0  0  0  0  0  0
   36.5810   28.0430   35.2970 H   0  0  0  0  0  0  0  0  0  0  0  0
   39.2160   26.8420   36.2140 H   0  0  0  0  0  0  0  0  0  0  0  0
   37.6360   26.9200   37.0220 H   0  0  0  0  0  0  0  0  0  0  0  0
   38.5950   24.3770   36.3940 C   0  0  0  0  0  0  0  0  0  0  0  0
   38.1840   24.1240   37.7210 C   0  0  0  0  0  0  0  0  0  0  0  0
   38.9600   23.2450   38.4740 C   0  0  0  0  0  0  0  0  0  0  0  0
   40.0740   22.6790   37.8860 N   0  0  0  0  0  0  0  0  0  0  0  0
   40.4300   22.9530   36.6070 C   0  0  0  0  0  0  0  0  0  0  0  0
   39.7000   23.7890   35.8780 N   0  0  0  0  0  0  0  0  0  0  0  0
   37.3330   24.5380   38.2220 H   0  0  0  0  0  0  0  0  0  0  0  0
   38.7360   22.9790   39.5060 H   0  0  0  0  0  0  0  0  0  0  0  0
   41.3150   22.4740   36.2070 H   0  0  0  0  0  0  0  0  0  0  0  0
   38.8760   25.9040   32.0060 C   0  0  0  0  0  2  0  0  0  0  0  0
   37.6980   26.3510   31.1640 C   0  0  0  0  0  2  0  0  0  0  0  0
   36.7850   26.0420   31.7510 H   0  0  0  0  0  0  0  0  0  0  0  0
  1  7  1  1  0  0  0
  1  6  1  0  0  0  0
  1 17  1  0  0  0  0
  2  1  1  0  0  0  0
  3  4  1  0  0  0  0
  3 10  1  1  0  0  0
  3  2  1  0  0  0  0
  4  5  1  0  0  0  0
  5 14  1  0  0  0  0
  5 13  1  0  0  0  0
  5  6  1  0  0  0  0
  6 15  1  0  0  0  0
  6 16  1  0  0  0  0
  8  2  1  0  0  0  0
  9  2  1  0  0  0  0
 11  4  1  0  0  0  0
 12  4  1  0  0  0  0
 17 18  1  0  0  0  0
 18 23  1  0  0  0  0
 18 19  2  0  0  0  0
 19 24  1  0  0  0  0
 20 19  1  0  0  0  0
 21 20  2  0  0  0  0
 22 17  2  0  0  0  0
 22 21  1  0  0  0  0
 25 21  1  0  0  0  0
 26  3  1  0  0  0  0
 27 28  1  0  0  0  0
 27 26  1  0  0  0  0
M  END
>  <minimizedAffinity>
-4.03725672

$$$$

 OpenBabel03272505563D

 28 29  0  0  1  0  0  0  0  0999 V2000
   36.5950   24.1960   30.8730 C   0  0  2  0  0  0  0  0  0  0  0  0
   35.5370   23.2390   31.3650 C   0  0  0  0  0  0  0  0  0  0  0  0
   36.1390   22.0880   32.1170 C   0  0  2  0  0  0  0  0  0  0  0  0
   37.1260   21.3350   31.2750 C   0  0  0  0  0  0  0  0  0  0  0  0
   38.1380   22.2330   30.6420 C   0  0  0  0  0  0  0  0  0  0  0  0
   37.9870   23.6910   31.0150 C   0  0  0  0  0  0  0  0  0  0  0  0
   36.4040   24.4620   29.8140 H   0  0  0  0  0  0  0  0  0  0  0  0
   34.7300   23.7120   31.9470 H   0  0  0  0  0  0  0  0  0  0  0  0
   35.0440   22.8030   30.4710 H   0  0  0  0  0  0  0  0  0  0  0  0
   36.7190   22.5470   32.9560 H   0  0  0  0  0  0  0  0  0  0  0  0
   37.5490   20.5150   31.8880 H   0  0  0  0  0  0  0  0  0  0  0  0
   36.5270   20.8320   30.4620 H   0  0  0  0  0  0  0  0  0  0  0  0
   39.1330   21.9130   31.0650 H   0  0  0  0  0  0  0  0  0  0  0  0
   38.2330   22.1090   29.5440 H   0  0  0  0  0  0  0  0  0  0  0  0
   38.4340   23.8600   32.0180 H   0  0  0  0  0  0  0  0  0  0  0  0
   38.6360   24.2580   30.2990 H   0  0  0  0  0  0  0  0  0  0  0  0
   36.5120   25.4860   31.6260 C   0  0  0  0  0  0  0  0  0  0  0  0
   37.2060   25.5250   32.8550 C   0  0  0  0  0  0  0  0  0  0  0  0
   37.1440   26.7110   33.5860 C   0  0  0  0  0  0  0  0  0  0  0  0
   36.4160   27.7660   33.0720 N   0  0  0  0  0  0  0  0  0  0  0  0
   35.7660   27.6810   31.8860 C   0  0  0  0  0  0  0  0  0  0  0  0
   35.8160   26.5580   31.1780 N   0  0  0  0  0  0  0  0  0  0  0  0
   37.7790   24.7370   33.2960 H   0  0  0  0  0  0  0  0  0  0  0  0
   37.6410   26.8510   34.5450 H   0  0  0  0  0  0  0  0  0  0  0  0
   35.2140   28.5470   31.5400 H   0  0  0  0  0  0  0  0  0  0  0  0
   35.1100   21.1850   32.7160 C   0  0  0  0  0  2  0  0  0  0  0  0
   34.9920   19.9100   31.9050 C   0  0  0  0  0  2  0  0  0  0  0  0
   35.0400   20.2430   30.8280 H   0  0  0  0  0  0  0  0  0  0  0  0
  1  7  1  6  0  0  0
  1  6  1  0  0  0  0
  1  2  1  0  0  0  0
  1 17  1  0  0  0  0
  2  8  1  0  0  0  0
  2  3  1  0  0  0  0
  3 26  1  0  0  0  0
  3 10  1  1  0  0  0
  4 11  1  0  0  0  0
  4  3  1  0  0  0  0
  5  6  1  0  0  0  0
  5 13  1  0  0  0  0
  5  4  1  0  0  0  0
  6 15  1  0  0  0  0
  9  2  1  0  0  0  0
 12  4  1  0  0  0  0
 14  5  1  0  0  0  0
 16  6  1  0  0  0  0
 17 18  1  0  0  0  0
 18 23  1  0  0  0  0
 18 19  2  0  0  0  0
 19 24  1  0  0  0  0
 20 19  1  0  0  0  0
 21 20  2  0  0  0  0
 22 17  2  0  0  0  0
 22 21  1  0  0  0  0
 25 21  1  0  0  0  0
 27 26  1  0  0  0  0
 28 27  1  0  0  0  0
M  END
>  <minimizedAffinity>
-4.02965975

$$$$
