
 OpenBabel03272510263D

 39 42  0  0  1  0  0  0  0  0999 V2000
   36.2400   30.1990   46.8660 C   0  0  0  0  0  0  0  0  0  0  0  0
   37.0840   30.7720   47.8140 C   0  0  0  0  0  0  0  0  0  0  0  0
   38.0650   31.6770   47.4420 C   0  0  0  0  0  0  0  0  0  0  0  0
   38.1610   31.9770   46.0880 C   0  0  0  0  0  0  0  0  0  0  0  0
   39.0370   32.8300   45.4850 N   0  0  0  0  0  0  0  0  0  0  0  0
   38.7530   32.7970   44.1720 C   0  0  0  0  0  0  0  0  0  0  0  0
   37.7540   31.9730   43.9420 N   0  0  0  0  0  0  0  0  0  0  0  0
   37.3450   31.4320   45.1160 C   0  0  0  0  0  0  0  0  0  0  0  0
   36.3600   30.5200   45.5190 C   0  0  0  0  0  0  0  0  0  0  0  0
   35.4530   29.4880   47.0760 H   0  0  0  0  0  0  0  0  0  0  0  0
   38.7150   32.1160   48.1840 H   0  0  0  0  0  0  0  0  0  0  0  0
   39.7890   33.4020   45.9540 H   0  0  0  0  0  0  0  0  0  0  0  0
   35.7250   30.0980   44.7490 H   0  0  0  0  0  0  0  0  0  0  0  0
   37.5000   30.1590   51.4910 C   0  0  0  0  0  0  0  0  0  0  0  0
   37.7940   30.5960   50.2120 C   0  0  0  0  0  0  0  0  0  0  0  0
   36.8810   30.3640   49.1890 C   0  0  0  0  0  0  0  0  0  0  0  0
   35.7280   29.7070   49.5100 N   0  0  0  0  0  0  0  0  0  0  0  0
   35.4490   29.2850   50.7590 C   0  0  0  0  0  0  0  0  0  0  0  0
   36.3310   29.5110   51.7310 N   0  0  0  0  0  0  0  0  0  0  0  0
   38.2050   30.3370   52.2820 H   0  0  0  0  0  0  0  0  0  0  0  0
   38.7130   31.1150   49.9730 H   0  0  0  0  0  0  0  0  0  0  0  0
   34.4930   28.7760   50.8630 H   0  0  0  0  0  0  0  0  0  0  0  0
   39.4720   33.5680   43.2460 O   0  0  0  0  0  0  0  0  0  0  0  0
   39.5820   31.8640   41.7320 N   0  0  0  0  0  0  0  0  0  0  0  0
   39.2200   33.2900   41.8760 C   0  0  1  0  0  0  0  0  0  0  0  0
   37.8110   33.4480   41.5280 C   0  0  0  0  0  0  0  0  0  0  0  0
   37.6510   33.1410   40.1650 O   0  0  0  0  0  0  0  0  0  0  0  0
   38.1000   31.9100   39.7870 C   0  0  0  0  0  0  0  0  0  0  0  0
   39.4680   31.5820   40.3190 C   0  0  2  0  0  0  0  0  0  0  0  0
   40.6200   31.8620   41.9390 H   0  0  0  0  0  0  0  0  0  0  0  0
   39.8320   33.9100   41.2020 H   0  0  0  0  0  0  0  0  0  0  0  0
   37.5750   34.5550   41.5720 H   0  0  0  0  0  0  0  0  0  0  0  0
   37.0070   32.9490   41.9950 H   0  0  0  0  0  0  0  0  0  0  0  0
   37.3960   31.0710   40.0600 H   0  0  0  0  0  0  0  0  0  0  0  0
   38.2010   31.9360   38.6810 H   0  0  0  0  0  0  0  0  0  0  0  0
   40.2750   32.0910   39.7520 H   0  0  0  0  0  0  0  0  0  0  0  0
   39.7100   30.0840   40.1660 C   0  0  0  0  0  2  0  0  0  0  0  0
   39.2240   29.3010   41.3400 C   0  0  0  0  0  2  0  0  0  0  0  0
   38.4700   29.8220   41.9630 H   0  0  0  0  0  0  0  0  0  0  0  0
  1 10  1  0  0  0  0
  1  2  1  0  0  0  0
  2 16  1  0  0  0  0
  3  2  2  0  0  0  0
  3 11  1  0  0  0  0
  4  3  1  0  0  0  0
  5 12  1  0  0  0  0
  5  4  1  0  0  0  0
  6  5  1  0  0  0  0
  7  6  2  0  0  0  0
  7  8  1  0  0  0  0
  8  9  1  0  0  0  0
  8  4  2  0  0  0  0
  9  1  2  0  0  0  0
 13  9  1  0  0  0  0
 14 19  1  0  0  0  0
 14 20  1  0  0  0  0
 15 14  2  0  0  0  0
 16 17  2  0  0  0  0
 16 15  1  0  0  0  0
 17 18  1  0  0  0  0
 18 22  1  0  0  0  0
 18 19  2  0  0  0  0
 21 15  1  0  0  0  0
 23  6  1  0  0  0  0
 24 25  1  0  0  0  0
 24 30  1  0  0  0  0
 25 31  1  6  0  0  0
 25 23  1  0  0  0  0
 26 32  1  0  0  0  0
 26 25  1  0  0  0  0
 26 33  1  0  0  0  0
 27 26  1  0  0  0  0
 28 34  1  0  0  0  0
 28 27  1  0  0  0  0
 28 29  1  0  0  0  0
 29 36  1  6  0  0  0
 29 24  1  0  0  0  0
 35 28  1  0  0  0  0
 37 29  1  0  0  0  0
 37 38  1  0  0  0  0
 38 39  1  0  0  0  0
M  END
>  <minimizedAffinity>
-5.53567505

>  <minimizedRMSD>
0.0786470026

$$$$
