
 OpenBabel03272510263D

 39 42  0  0  1  0  0  0  0  0999 V2000
   36.0190   30.1750   46.9450 C   0  0  0  0  0  0  0  0  0  0  0  0
   36.9450   30.7240   47.8290 C   0  0  0  0  0  0  0  0  0  0  0  0
   37.9250   31.5970   47.3840 C   0  0  0  0  0  0  0  0  0  0  0  0
   37.9340   31.8900   46.0250 C   0  0  0  0  0  0  0  0  0  0  0  0
   38.7920   32.7140   45.3570 N   0  0  0  0  0  0  0  0  0  0  0  0
   38.4160   32.6850   44.0680 C   0  0  0  0  0  0  0  0  0  0  0  0
   37.3790   31.8920   43.9120 N   0  0  0  0  0  0  0  0  0  0  0  0
   37.0370   31.3680   45.1150 C   0  0  0  0  0  0  0  0  0  0  0  0
   36.0550   30.4880   45.5910 C   0  0  0  0  0  0  0  0  0  0  0  0
   35.2280   29.4900   47.2140 H   0  0  0  0  0  0  0  0  0  0  0  0
   38.6390   32.0190   48.0760 H   0  0  0  0  0  0  0  0  0  0  0  0
   39.5920   33.2640   45.7700 H   0  0  0  0  0  0  0  0  0  0  0  0
   35.3550   30.0830   44.8690 H   0  0  0  0  0  0  0  0  0  0  0  0
   37.5800   30.1500   51.4800 C   0  0  0  0  0  0  0  0  0  0  0  0
   37.7950   30.5780   50.1820 C   0  0  0  0  0  0  0  0  0  0  0  0
   36.8260   30.3280   49.2170 C   0  0  0  0  0  0  0  0  0  0  0  0
   35.7000   29.6630   49.6100 N   0  0  0  0  0  0  0  0  0  0  0  0
   35.4990   29.2500   50.8770 C   0  0  0  0  0  0  0  0  0  0  0  0
   36.4330   29.4940   51.7940 N   0  0  0  0  0  0  0  0  0  0  0  0
   38.3290   30.3410   52.2280 H   0  0  0  0  0  0  0  0  0  0  0  0
   38.6930   31.1030   49.8850 H   0  0  0  0  0  0  0  0  0  0  0  0
   34.5550   28.7330   51.0410 H   0  0  0  0  0  0  0  0  0  0  0  0
   39.0920   33.4310   43.0900 O   0  0  0  0  0  0  0  0  0  0  0  0
   39.6990   31.3720   42.3150 N   0  0  0  0  0  0  0  0  0  0  0  0
   39.3820   32.7480   41.8780 C   0  0  1  0  0  0  0  0  0  0  0  0
   38.2330   32.6960   40.9810 C   0  0  0  0  0  0  0  0  0  0  0  0
   38.6040   31.9950   39.8190 O   0  0  0  0  0  0  0  0  0  0  0  0
   39.1010   30.7420   40.0290 C   0  0  0  0  0  0  0  0  0  0  0  0
   40.1330   30.6820   41.1220 C   0  0  2  0  0  0  0  0  0  0  0  0
   40.5710   31.5040   42.9000 H   0  0  0  0  0  0  0  0  0  0  0  0
   40.2400   33.1860   41.3450 H   0  0  0  0  0  0  0  0  0  0  0  0
   38.0550   33.7480   40.6000 H   0  0  0  0  0  0  0  0  0  0  0  0
   37.2850   32.2990   41.2230 H   0  0  0  0  0  0  0  0  0  0  0  0
   38.3050   29.9720   40.2420 H   0  0  0  0  0  0  0  0  0  0  0  0
   39.6290   30.4520   39.0950 H   0  0  0  0  0  0  0  0  0  0  0  0
   41.1230   31.0600   40.7900 H   0  0  0  0  0  0  0  0  0  0  0  0
   40.3390   29.2260   41.5260 C   0  0  0  0  0  2  0  0  0  0  0  0
   41.7560   28.9240   41.8850 C   0  0  0  0  0  2  0  0  0  0  0  0
   42.3640   29.8110   42.1520 H   0  0  0  0  0  0  0  0  0  0  0  0
  1 10  1  0  0  0  0
  1  2  1  0  0  0  0
  2 16  1  0  0  0  0
  3  2  2  0  0  0  0
  3 11  1  0  0  0  0
  4  3  1  0  0  0  0
  5 12  1  0  0  0  0
  5  4  1  0  0  0  0
  6  5  1  0  0  0  0
  7  6  2  0  0  0  0
  7  8  1  0  0  0  0
  8  9  1  0  0  0  0
  8  4  2  0  0  0  0
  9  1  2  0  0  0  0
 13  9  1  0  0  0  0
 14 19  1  0  0  0  0
 14 20  1  0  0  0  0
 15 14  2  0  0  0  0
 16 17  2  0  0  0  0
 16 15  1  0  0  0  0
 17 18  1  0  0  0  0
 18 22  1  0  0  0  0
 18 19  2  0  0  0  0
 21 15  1  0  0  0  0
 23  6  1  0  0  0  0
 24 30  1  0  0  0  0
 25 31  1  6  0  0  0
 25 24  1  0  0  0  0
 25 23  1  0  0  0  0
 26 33  1  0  0  0  0
 26 25  1  0  0  0  0
 27 28  1  0  0  0  0
 27 26  1  0  0  0  0
 28 34  1  0  0  0  0
 28 29  1  0  0  0  0
 29 36  1  6  0  0  0
 29 37  1  0  0  0  0
 29 24  1  0  0  0  0
 32 26  1  0  0  0  0
 35 28  1  0  0  0  0
 37 38  1  0  0  0  0
 38 39  1  0  0  0  0
M  END
>  <minimizedAffinity>
-5.57048607

>  <minimizedRMSD>
0.811232507

$$$$
