REMARK  Name = 
REMARK  5 active torsions:
REMARK  status: ('A' for Active; 'I' for Inactive)
REMARK    1  A    between atoms: C_2  and  C_12
REMARK    2  A    between atoms: C_6  and  O_16
REMARK    3  A    between atoms: O_16  and  C_18
REMARK    4  A    between atoms: C_22  and  C_37
REMARK    5  A    between atoms: C_37  and  C_38
REMARK                            x       y       z     vdW  Elec       q    Type
REMARK                         _______ _______ _______ _____ _____    ______ ____
ROOT
ATOM      1  C   UNL     1      36.254  30.173  46.865  0.00  0.00    +0.000 A 
ATOM      2  C   UNL     1      37.087  30.762  47.813  0.00  0.00    +0.000 A 
ATOM      3  C   UNL     1      38.060  31.675  47.439  0.00  0.00    +0.000 A 
ATOM      4  C   UNL     1      38.159  31.966  46.083  0.00  0.00    +0.000 A 
ATOM      5  N   UNL     1      39.029  32.824  45.478  0.00  0.00    +0.000 N 
ATOM      6  C   UNL     1      38.752  32.778  44.164  0.00  0.00    +0.000 A 
ATOM      7  N   UNL     1      37.764  31.941  43.935  0.00  0.00    +0.000 NA
ATOM      8  C   UNL     1      37.355  31.405  45.111  0.00  0.00    +0.000 A 
ATOM      9  C   UNL     1      36.378  30.485  45.516  0.00  0.00    +0.000 A 
ATOM     10  H   UNL     1      35.474  29.455  47.077  0.00  0.00    +0.000 HD
ATOM     11  H   UNL     1      38.701  32.127  48.181  0.00  0.00    +0.000 HD
ATOM     12  H   UNL     1      39.772  33.408  45.947  0.00  0.00    +0.000 HD
ATOM     13  H   UNL     1      35.752  30.050  44.746  0.00  0.00    +0.000 HD
ENDROOT
BRANCH   2  16
ATOM     14  C   UNL     1      37.489  30.183  51.497  0.00  0.00    +0.000 A 
ATOM     15  C   UNL     1      37.785  30.614  50.216  0.00  0.00    +0.000 A 
ATOM     16  C   UNL     1      36.881  30.363  49.190  0.00  0.00    +0.000 A 
ATOM     17  N   UNL     1      35.734  29.694  49.510  0.00  0.00    +0.000 NA
ATOM     18  C   UNL     1      35.454  29.278  50.761  0.00  0.00    +0.000 A 
ATOM     19  N   UNL     1      36.327  29.523  51.736  0.00  0.00    +0.000 NA
ATOM     20  H   UNL     1      38.188  30.376  52.291  0.00  0.00    +0.000 HD
ATOM     21  H   UNL     1      38.699  31.143  49.978  0.00  0.00    +0.000 HD
ATOM     22  H   UNL     1      34.503  28.758  50.863  0.00  0.00    +0.000 HD
ENDBRANCH   2  16
BRANCH   6  23
ATOM     23  O   UNL     1      39.468  33.550  43.236  0.00  0.00    +0.000 OA
BRANCH  23  25
ATOM     24  N   UNL     1      39.551  31.851  41.715  0.00  0.00    +0.000 NA
ATOM     25  C   UNL     1      39.203  33.279  41.867  0.00  0.00    +0.000 C 
ATOM     26  C   UNL     1      37.794  33.451  41.529  0.00  0.00    +0.000 C 
ATOM     27  O   UNL     1      37.621  33.151  40.166  0.00  0.00    +0.000 OA
ATOM     28  C   UNL     1      38.056  31.917  39.781  0.00  0.00    +0.000 C 
ATOM     29  C   UNL     1      39.425  31.575  40.302  0.00  0.00    +0.000 C 
ATOM     30  H   UNL     1      40.591  31.838  41.915  0.00  0.00    +0.000 HD
ATOM     31  H   UNL     1      39.816  33.896  41.191  0.00  0.00    +0.000 HD
ATOM     32  H   UNL     1      37.568  34.560  41.579  0.00  0.00    +0.000 HD
ATOM     33  H   UNL     1      36.988  32.958  42.000  0.00  0.00    +0.000 HD
ATOM     34  H   UNL     1      37.347  31.084  40.056  0.00  0.00    +0.000 HD
ATOM     35  H   UNL     1      38.150  31.947  38.674  0.00  0.00    +0.000 HD
ATOM     36  H   UNL     1      40.233  32.079  39.731  0.00  0.00    +0.000 HD
BRANCH  29  37
ATOM     37  C   UNL     1      39.652  30.075  40.142  0.00  0.00    +0.000 C 
BRANCH  37  38
ATOM     38  C   UNL     1      40.814  29.760  39.260  0.00  0.00    +0.000 C 
ATOM     39  H   UNL     1      41.539  30.590  39.138  0.00  0.00    +0.000 HD
ENDBRANCH  37  38
ENDBRANCH  29  37
ENDBRANCH  23  25
ENDBRANCH   6  23
TORSDOF 5
