
 OpenBabel03262523183D

 24 25  0  0  1  0  0  0  0  0999 V2000
   38.1280   33.3960   49.3670 C   0  0  0  0  0  0  0  0  0  0  0  0
   39.1100   33.2190   48.3710 C   0  0  0  0  0  0  0  0  0  0  0  0
   39.0160   32.0870   47.5600 C   0  0  0  0  0  0  0  0  0  0  0  0
   37.9890   31.2100   47.7620 N   0  0  0  0  0  0  0  0  0  0  0  0
   37.0740   31.4090   48.7170 C   0  0  0  0  0  0  0  0  0  0  0  0
   37.1380   32.4950   49.5180 N   0  0  0  0  0  0  0  0  0  0  0  0
   36.0210   30.4470   48.8740 N   0  0  0  0  0  0  0  0  0  0  0  0
   35.0670   30.1510   47.8070 C   0  0  0  0  0  0  0  0  0  0  0  0
   34.2850   29.0030   48.3180 C   0  0  0  0  0  0  0  0  0  0  0  0
   35.0200   28.4900   49.5230 C   0  0  0  0  0  0  0  0  0  0  0  0
   35.7690   29.6680   50.0670 C   0  0  1  0  0  0  0  0  0  0  0  0
   38.1440   34.2550   50.0320 H   0  0  0  0  0  0  0  0  0  0  0  0
   39.8870   33.9680   48.2860 H   0  0  0  0  0  0  0  0  0  0  0  0
   39.7680   31.9470   46.7940 H   0  0  0  0  0  0  0  0  0  0  0  0
   34.4830   31.0270   47.4920 H   0  0  0  0  0  0  0  0  0  0  0  0
   35.6780   29.8110   46.9330 H   0  0  0  0  0  0  0  0  0  0  0  0
   34.0910   28.2240   47.5500 H   0  0  0  0  0  0  0  0  0  0  0  0
   33.2780   29.3560   48.6700 H   0  0  0  0  0  0  0  0  0  0  0  0
   34.3120   28.1450   50.3140 H   0  0  0  0  0  0  0  0  0  0  0  0
   35.6710   27.6270   49.2960 H   0  0  0  0  0  0  0  0  0  0  0  0
   35.2550   30.2200   50.8560 H   0  0  0  0  0  0  0  0  0  0  0  0
   37.1000   29.2080   50.6250 C   0  0  0  0  0  0  0  0  0  0  0  0
   37.4360   29.8470   51.9500 C   0  0  0  0  0  0  0  0  0  0  0  0
   36.5740   30.1340   52.5560 H   0  0  0  0  0  0  0  0  0  0  0  0
  1  6  1  0  0  0  0
  1 12  1  0  0  0  0
  2  1  2  0  0  0  0
  3  4  2  0  0  0  0
  3  2  1  0  0  0  0
  4  5  1  0  0  0  0
  5  7  1  0  0  0  0
  5  6  2  0  0  0  0
  7 11  1  0  0  0  0
  8  9  1  0  0  0  0
  8  7  1  0  0  0  0
  9 18  1  0  0  0  0
  9 10  1  0  0  0  0
 10 11  1  0  0  0  0
 10 19  1  0  0  0  0
 11 22  1  0  0  0  0
 11 21  1  1  0  0  0
 13  2  1  0  0  0  0
 14  3  1  0  0  0  0
 15  8  1  0  0  0  0
 16  8  1  0  0  0  0
 17  9  1  0  0  0  0
 20 10  1  0  0  0  0
 22 23  1  0  0  0  0
 23 24  1  0  0  0  0
M  END
>  <minimizedAffinity>
-5.2752924

>  <minimizedRMSD>
0.470190763

$$$$
