
 OpenBabel03272500383D

 30 31  0  0  1  0  0  0  0  0999 V2000
   38.1150   23.5690   36.7220 C   0  0  0  0  0  0  0  0  0  0  0  0
   37.8760   22.2950   36.1550 C   0  0  0  0  0  0  0  0  0  0  0  0
   37.7730   22.1950   34.7690 C   0  0  0  0  0  0  0  0  0  0  0  0
   37.9110   23.3510   34.0450 N   0  0  0  0  0  0  0  0  0  0  0  0
   38.1390   24.5530   34.6140 C   0  0  0  0  0  0  0  0  0  0  0  0
   38.2350   24.6330   35.9440 N   0  0  0  0  0  0  0  0  0  0  0  0
   38.2680   25.6900   33.7690 N   0  0  0  0  0  0  0  0  0  0  0  0
   37.1030   26.4490   33.4150 C   0  0  0  0  0  0  0  0  0  0  0  0
   37.2020   26.6510   31.8940 C   0  0  0  0  0  0  0  0  0  0  0  0
   38.3540   27.6240   31.7320 C   0  0  0  0  0  0  0  0  0  0  0  0
   39.6150   26.9110   32.0900 C   0  0  0  0  0  0  0  0  0  0  0  0
   39.5490   26.0520   33.2880 C   0  0  1  0  0  0  0  0  0  0  0  0
   37.7730   21.4100   36.7620 H   0  0  0  0  0  0  0  0  0  0  0  0
   37.5930   21.2500   34.2950 H   0  0  0  0  0  0  0  0  0  0  0  0
   37.1020   27.4730   33.8430 H   0  0  0  0  0  0  0  0  0  0  0  0
   36.1440   25.9870   33.6890 H   0  0  0  0  0  0  0  0  0  0  0  0
   36.2400   27.0740   31.5220 H   0  0  0  0  0  0  0  0  0  0  0  0
   37.4550   25.6760   31.4450 H   0  0  0  0  0  0  0  0  0  0  0  0
   38.1660   28.5350   32.3250 H   0  0  0  0  0  0  0  0  0  0  0  0
   38.3950   27.8370   30.6320 H   0  0  0  0  0  0  0  0  0  0  0  0
   39.9130   26.2680   31.2140 H   0  0  0  0  0  0  0  0  0  0  0  0
   40.4250   27.6730   32.1800 H   0  0  0  0  0  0  0  0  0  0  0  0
   40.1310   25.1070   33.1400 H   0  0  0  0  0  0  0  0  0  0  0  0
   38.2240   23.6730   38.2100 C   0  0  0  0  0  0  0  0  0  0  0  0
   38.0670   25.0110   38.5910 F   0  0  0  0  0  0  0  0  0  0  0  0
   37.3150   22.8260   38.7600 F   0  0  0  0  0  0  0  0  0  0  0  0
   39.5300   23.3270   38.5540 F   0  0  0  0  0  0  0  0  0  0  0  0
   40.2800   26.7750   34.4270 C   0  0  0  0  0  2  0  0  0  0  0  0
   41.6900   27.1330   34.0160 C   0  0  0  0  0  2  0  0  0  0  0  0
   41.9500   26.4470   33.1860 H   0  0  0  0  0  0  0  0  0  0  0  0
  1 24  1  0  0  0  0
  2  1  1  0  0  0  0
  2 13  1  0  0  0  0
  3  2  2  0  0  0  0
  4  5  2  0  0  0  0
  4  3  1  0  0  0  0
  5  6  1  0  0  0  0
  6  1  2  0  0  0  0
  7  5  1  0  0  0  0
  8 16  1  0  0  0  0
  8  7  1  0  0  0  0
  8 15  1  0  0  0  0
  9  8  1  0  0  0  0
 10  9  1  0  0  0  0
 10 11  1  0  0  0  0
 10 19  1  0  0  0  0
 11 22  1  0  0  0  0
 11 12  1  0  0  0  0
 12 23  1  6  0  0  0
 12  7  1  0  0  0  0
 12 28  1  0  0  0  0
 14  3  1  0  0  0  0
 17  9  1  0  0  0  0
 18  9  1  0  0  0  0
 20 10  1  0  0  0  0
 21 11  1  0  0  0  0
 24 27  1  0  0  0  0
 24 25  1  0  0  0  0
 24 26  1  0  0  0  0
 29 28  1  0  0  0  0
 30 29  1  0  0  0  0
M  END
>  <minimizedAffinity>
-5.38570309

$$$$

 OpenBabel03272500383D

 30 31  0  0  1  0  0  0  0  0999 V2000
   38.7480   24.1050   36.3990 C   0  0  0  0  0  0  0  0  0  0  0  0
   40.0710   23.7510   36.0470 C   0  0  0  0  0  0  0  0  0  0  0  0
   40.5440   24.1190   34.7880 C   0  0  0  0  0  0  0  0  0  0  0  0
   39.6820   24.8040   33.9710 N   0  0  0  0  0  0  0  0  0  0  0  0
   38.4240   25.1280   34.3350 C   0  0  0  0  0  0  0  0  0  0  0  0
   37.9850   24.7690   35.5450 N   0  0  0  0  0  0  0  0  0  0  0  0
   37.6120   25.8420   33.4100 N   0  0  0  0  0  0  0  0  0  0  0  0
   36.8010   25.1230   32.4710 C   0  0  0  0  0  0  0  0  0  0  0  0
   37.0600   25.7990   31.1140 C   0  0  0  0  0  0  0  0  0  0  0  0
   36.3810   27.1480   31.2480 C   0  0  0  0  0  0  0  0  0  0  0  0
   37.1640   27.9650   32.2210 C   0  0  0  0  0  0  0  0  0  0  0  0
   37.6230   27.2580   33.4310 C   0  0  1  0  0  0  0  0  0  0  0  0
   40.7170   23.2100   36.7200 H   0  0  0  0  0  0  0  0  0  0  0  0
   41.5400   23.8720   34.4780 H   0  0  0  0  0  0  0  0  0  0  0  0
   35.7130   25.2430   32.6510 H   0  0  0  0  0  0  0  0  0  0  0  0
   36.9980   24.0420   32.4160 H   0  0  0  0  0  0  0  0  0  0  0  0
   36.6050   25.1780   30.3080 H   0  0  0  0  0  0  0  0  0  0  0  0
   38.1500   25.9250   31.0090 H   0  0  0  0  0  0  0  0  0  0  0  0
   35.3210   27.0140   31.5210 H   0  0  0  0  0  0  0  0  0  0  0  0
   36.5000   27.6280   30.2420 H   0  0  0  0  0  0  0  0  0  0  0  0
   38.0700   28.3700   31.6870 H   0  0  0  0  0  0  0  0  0  0  0  0
   36.5550   28.8640   32.4810 H   0  0  0  0  0  0  0  0  0  0  0  0
   38.6550   27.5820   33.7220 H   0  0  0  0  0  0  0  0  0  0  0  0
   38.2450   23.7080   37.7500 C   0  0  0  0  0  0  0  0  0  0  0  0
   37.9970   24.8600   38.5060 F   0  0  0  0  0  0  0  0  0  0  0  0
   37.1590   22.9090   37.5780 F   0  0  0  0  0  0  0  0  0  0  0  0
   39.2830   23.0400   38.3980 F   0  0  0  0  0  0  0  0  0  0  0  0
   36.7390   27.7060   34.6030 C   0  0  0  0  0  2  0  0  0  0  0  0
   35.9930   28.9740   34.2560 C   0  0  0  0  0  2  0  0  0  0  0  0
   36.5670   29.4520   33.4370 H   0  0  0  0  0  0  0  0  0  0  0  0
  1 24  1  0  0  0  0
  2  1  1  0  0  0  0
  2 13  1  0  0  0  0
  3  2  2  0  0  0  0
  4  5  2  0  0  0  0
  4  3  1  0  0  0  0
  5  6  1  0  0  0  0
  6  1  2  0  0  0  0
  7 12  1  0  0  0  0
  7  5  1  0  0  0  0
  8 15  1  0  0  0  0
  8  7  1  0  0  0  0
  9 10  1  0  0  0  0
  9  8  1  0  0  0  0
 10 19  1  0  0  0  0
 10 11  1  0  0  0  0
 11 22  1  0  0  0  0
 11 12  1  0  0  0  0
 12 23  1  1  0  0  0
 12 28  1  0  0  0  0
 14  3  1  0  0  0  0
 16  8  1  0  0  0  0
 17  9  1  0  0  0  0
 18  9  1  0  0  0  0
 20 10  1  0  0  0  0
 21 11  1  0  0  0  0
 24 27  1  0  0  0  0
 24 25  1  0  0  0  0
 26 24  1  0  0  0  0
 29 28  1  0  0  0  0
 30 29  1  0  0  0  0
M  END
>  <minimizedAffinity>
-5.18857098

$$$$

 OpenBabel03272500383D

 30 31  0  0  1  0  0  0  0  0999 V2000
   38.1430   24.0770   36.8180 C   0  0  0  0  0  0  0  0  0  0  0  0
   38.1980   25.4420   36.4520 C   0  0  0  0  0  0  0  0  0  0  0  0
   38.2270   25.7650   35.0960 C   0  0  0  0  0  0  0  0  0  0  0  0
   38.2010   24.7250   34.2040 N   0  0  0  0  0  0  0  0  0  0  0  0
   38.1490   23.4310   34.5830 C   0  0  0  0  0  0  0  0  0  0  0  0
   38.1220   23.1370   35.8860 N   0  0  0  0  0  0  0  0  0  0  0  0
   38.1250   22.4290   33.5740 N   0  0  0  0  0  0  0  0  0  0  0  0
   39.3580   21.8890   33.0770 C   0  0  0  0  0  0  0  0  0  0  0  0
   39.2190   21.9100   31.5460 C   0  0  0  0  0  0  0  0  0  0  0  0
   38.1910   20.8330   31.2620 C   0  0  0  0  0  0  0  0  0  0  0  0
   36.8680   21.3140   31.7570 C   0  0  0  0  0  0  0  0  0  0  0  0
   36.8790   21.9820   33.0730 C   0  0  1  0  0  0  0  0  0  0  0  0
   38.2170   26.2300   37.1880 H   0  0  0  0  0  0  0  0  0  0  0  0
   38.2680   26.7860   34.7720 H   0  0  0  0  0  0  0  0  0  0  0  0
   39.5050   20.8210   33.3400 H   0  0  0  0  0  0  0  0  0  0  0  0
   40.2640   22.4240   33.3980 H   0  0  0  0  0  0  0  0  0  0  0  0
   40.2090   21.6770   31.0900 H   0  0  0  0  0  0  0  0  0  0  0  0
   38.8280   22.9010   31.2620 H   0  0  0  0  0  0  0  0  0  0  0  0
   38.5150   19.8740   31.7000 H   0  0  0  0  0  0  0  0  0  0  0  0
   38.1280   20.7870   30.1430 H   0  0  0  0  0  0  0  0  0  0  0  0
   36.4550   22.0390   30.9990 H   0  0  0  0  0  0  0  0  0  0  0  0
   36.1630   20.4490   31.7460 H   0  0  0  0  0  0  0  0  0  0  0  0
   36.1780   22.8560   33.0880 H   0  0  0  0  0  0  0  0  0  0  0  0
   38.1130   23.7340   38.2730 C   0  0  0  0  0  0  0  0  0  0  0  0
   37.8840   24.8990   39.0150 F   0  0  0  0  0  0  0  0  0  0  0  0
   37.1830   22.7620   38.4590 F   0  0  0  0  0  0  0  0  0  0  0  0
   39.3920   23.3030   38.6230 F   0  0  0  0  0  0  0  0  0  0  0  0
   36.2940   21.0060   34.1010 C   0  0  0  0  0  2  0  0  0  0  0  0
   35.4410   19.9600   33.4210 C   0  0  0  0  0  2  0  0  0  0  0  0
   35.1420   20.3940   32.4470 H   0  0  0  0  0  0  0  0  0  0  0  0
  1 24  1  0  0  0  0
  2  1  1  0  0  0  0
  2 13  1  0  0  0  0
  3  2  2  0  0  0  0
  4  5  2  0  0  0  0
  4  3  1  0  0  0  0
  5  6  1  0  0  0  0
  6  1  2  0  0  0  0
  7  5  1  0  0  0  0
  8 15  1  0  0  0  0
  8 16  1  0  0  0  0
  8  7  1  0  0  0  0
  9  8  1  0  0  0  0
 10  9  1  0  0  0  0
 10 19  1  0  0  0  0
 10 11  1  0  0  0  0
 11 12  1  0  0  0  0
 12 23  1  6  0  0  0
 12  7  1  0  0  0  0
 12 28  1  0  0  0  0
 14  3  1  0  0  0  0
 17  9  1  0  0  0  0
 18  9  1  0  0  0  0
 20 10  1  0  0  0  0
 21 11  1  0  0  0  0
 22 11  1  0  0  0  0
 24 26  1  0  0  0  0
 24 27  1  0  0  0  0
 24 25  1  0  0  0  0
 29 28  1  0  0  0  0
 30 29  1  0  0  0  0
M  END
>  <minimizedAffinity>
-5.14788866

$$$$

 OpenBabel03272500383D

 30 31  0  0  1  0  0  0  0  0999 V2000
   38.8690   23.3410   37.1440 C   0  0  0  0  0  0  0  0  0  0  0  0
   40.1040   22.6520   37.1370 C   0  0  0  0  0  0  0  0  0  0  0  0
   40.6540   22.2890   35.9090 C   0  0  0  0  0  0  0  0  0  0  0  0
   39.9500   22.6270   34.7830 N   0  0  0  0  0  0  0  0  0  0  0  0
   38.7730   23.2860   34.8210 C   0  0  0  0  0  0  0  0  0  0  0  0
   38.2580   23.6280   36.0050 N   0  0  0  0  0  0  0  0  0  0  0  0
   38.1260   23.5890   33.5910 N   0  0  0  0  0  0  0  0  0  0  0  0
   37.2040   22.6500   33.0210 C   0  0  0  0  0  0  0  0  0  0  0  0
   37.6050   22.5400   31.5400 C   0  0  0  0  0  0  0  0  0  0  0  0
   37.1960   23.8780   30.9540 C   0  0  0  0  0  0  0  0  0  0  0  0
   38.1080   24.9220   31.5060 C   0  0  0  0  0  0  0  0  0  0  0  0
   38.4070   24.8180   32.9470 C   0  0  1  0  0  0  0  0  0  0  0  0
   40.6250   22.4040   38.0480 H   0  0  0  0  0  0  0  0  0  0  0  0
   41.5880   21.7650   35.8560 H   0  0  0  0  0  0  0  0  0  0  0  0
   36.1560   23.0170   33.0100 H   0  0  0  0  0  0  0  0  0  0  0  0
   37.1900   21.6600   33.4990 H   0  0  0  0  0  0  0  0  0  0  0  0
   37.0500   21.6910   31.0770 H   0  0  0  0  0  0  0  0  0  0  0  0
   38.7000   22.4210   31.5010 H   0  0  0  0  0  0  0  0  0  0  0  0
   36.1260   24.0650   31.1480 H   0  0  0  0  0  0  0  0  0  0  0  0
   37.4180   23.7890   29.8590 H   0  0  0  0  0  0  0  0  0  0  0  0
   39.0820   24.8670   30.9410 H   0  0  0  0  0  0  0  0  0  0  0  0
   37.6800   25.9200   31.2500 H   0  0  0  0  0  0  0  0  0  0  0  0
   39.4790   25.0690   33.1560 H   0  0  0  0  0  0  0  0  0  0  0  0
   38.2820   23.7290   38.4640 C   0  0  0  0  0  0  0  0  0  0  0  0
   37.8620   25.0630   38.4070 F   0  0  0  0  0  0  0  0  0  0  0  0
   37.2940   22.8450   38.7620 F   0  0  0  0  0  0  0  0  0  0  0  0
   39.3120   23.6920   39.4020 F   0  0  0  0  0  0  0  0  0  0  0  0
   37.6120   25.9100   33.6730 C   0  0  0  0  0  2  0  0  0  0  0  0
   37.5210   27.1590   32.8260 C   0  0  0  0  0  2  0  0  0  0  0  0
   38.3630   27.1040   32.1090 H   0  0  0  0  0  0  0  0  0  0  0  0
  1 24  1  0  0  0  0
  2  1  1  0  0  0  0
  2 13  1  0  0  0  0
  3  2  2  0  0  0  0
  4  5  2  0  0  0  0
  4  3  1  0  0  0  0
  5  6  1  0  0  0  0
  6  1  2  0  0  0  0
  7  5  1  0  0  0  0
  8 16  1  0  0  0  0
  8  7  1  0  0  0  0
  9  8  1  0  0  0  0
 10 19  1  0  0  0  0
 10 11  1  0  0  0  0
 10  9  1  0  0  0  0
 11 12  1  0  0  0  0
 12 23  1  1  0  0  0
 12  7  1  0  0  0  0
 12 28  1  0  0  0  0
 14  3  1  0  0  0  0
 15  8  1  0  0  0  0
 17  9  1  0  0  0  0
 18  9  1  0  0  0  0
 20 10  1  0  0  0  0
 21 11  1  0  0  0  0
 22 11  1  0  0  0  0
 24 26  1  0  0  0  0
 24 27  1  0  0  0  0
 25 24  1  0  0  0  0
 29 28  1  0  0  0  0
 30 29  1  0  0  0  0
M  END
>  <minimizedAffinity>
-5.04391146

$$$$

 OpenBabel03272500383D

 30 31  0  0  1  0  0  0  0  0999 V2000
   38.5930   24.1080   35.1370 C   0  0  0  0  0  0  0  0  0  0  0  0
   39.8530   23.4700   35.2180 C   0  0  0  0  0  0  0  0  0  0  0  0
   40.0010   22.2150   34.6280 C   0  0  0  0  0  0  0  0  0  0  0  0
   38.9020   21.6830   34.0050 N   0  0  0  0  0  0  0  0  0  0  0  0
   37.7120   22.3160   33.9440 C   0  0  0  0  0  0  0  0  0  0  0  0
   37.5850   23.5170   34.5140 N   0  0  0  0  0  0  0  0  0  0  0  0
   36.6360   21.6720   33.2710 N   0  0  0  0  0  0  0  0  0  0  0  0
   35.7600   20.8010   33.9990 C   0  0  0  0  0  0  0  0  0  0  0  0
   35.6370   19.5370   33.1320 C   0  0  0  0  0  0  0  0  0  0  0  0
   34.8160   19.9930   31.9420 C   0  0  0  0  0  0  0  0  0  0  0  0
   35.6570   20.9180   31.1270 C   0  0  0  0  0  0  0  0  0  0  0  0
   36.4500   21.9040   31.8870 C   0  0  1  0  0  0  0  0  0  0  0  0
   40.6920   23.9250   35.7190 H   0  0  0  0  0  0  0  0  0  0  0  0
   40.9370   21.6950   34.6650 H   0  0  0  0  0  0  0  0  0  0  0  0
   34.7260   21.1930   34.0860 H   0  0  0  0  0  0  0  0  0  0  0  0
   36.0920   20.5490   35.0170 H   0  0  0  0  0  0  0  0  0  0  0  0
   35.1200   18.7430   33.7200 H   0  0  0  0  0  0  0  0  0  0  0  0
   36.6540   19.2540   32.8120 H   0  0  0  0  0  0  0  0  0  0  0  0
   33.8640   20.4330   32.2850 H   0  0  0  0  0  0  0  0  0  0  0  0
   34.6580   19.0660   31.3320 H   0  0  0  0  0  0  0  0  0  0  0  0
   36.3690   20.2940   30.5140 H   0  0  0  0  0  0  0  0  0  0  0  0
   34.9940   21.4170   30.3810 H   0  0  0  0  0  0  0  0  0  0  0  0
   37.4630   22.0460   31.4310 H   0  0  0  0  0  0  0  0  0  0  0  0
   38.4380   25.4530   35.7710 C   0  0  0  0  0  0  0  0  0  0  0  0
   38.1970   25.2900   37.1410 F   0  0  0  0  0  0  0  0  0  0  0  0
   39.5450   26.1860   35.4830 F   0  0  0  0  0  0  0  0  0  0  0  0
   37.2830   26.0290   35.2450 F   0  0  0  0  0  0  0  0  0  0  0  0
   35.7700   23.2710   31.7370 C   0  0  0  0  0  2  0  0  0  0  0  0
   36.6150   24.1990   30.8940 C   0  0  0  0  0  2  0  0  0  0  0  0
   37.6480   23.8030   30.9450 H   0  0  0  0  0  0  0  0  0  0  0  0
  1  2  1  0  0  0  0
  1 24  1  0  0  0  0
  2 13  1  0  0  0  0
  3 14  1  0  0  0  0
  3  2  2  0  0  0  0
  4  3  1  0  0  0  0
  5  4  2  0  0  0  0
  5  6  1  0  0  0  0
  6  1  2  0  0  0  0
  7  5  1  0  0  0  0
  7  8  1  0  0  0  0
  8 15  1  0  0  0  0
  8 16  1  0  0  0  0
  9 17  1  0  0  0  0
  9  8  1  0  0  0  0
 10 19  1  0  0  0  0
 10  9  1  0  0  0  0
 11 12  1  0  0  0  0
 11 10  1  0  0  0  0
 12 23  1  6  0  0  0
 12  7  1  0  0  0  0
 18  9  1  0  0  0  0
 20 10  1  0  0  0  0
 21 11  1  0  0  0  0
 22 11  1  0  0  0  0
 24 25  1  0  0  0  0
 26 24  1  0  0  0  0
 27 24  1  0  0  0  0
 28 12  1  0  0  0  0
 29 30  1  0  0  0  0
 29 28  1  0  0  0  0
M  END
>  <minimizedAffinity>
-4.87227583

$$$$

 OpenBabel03272500383D

 30 31  0  0  1  0  0  0  0  0999 V2000
   37.0880   26.0670   33.0570 C   0  0  0  0  0  0  0  0  0  0  0  0
   36.6800   25.1360   32.0730 C   0  0  0  0  0  0  0  0  0  0  0  0
   37.1350   23.8230   32.1730 C   0  0  0  0  0  0  0  0  0  0  0  0
   37.9580   23.5230   33.2270 N   0  0  0  0  0  0  0  0  0  0  0  0
   38.3310   24.4330   34.1510 C   0  0  0  0  0  0  0  0  0  0  0  0
   37.8860   25.6880   34.0430 N   0  0  0  0  0  0  0  0  0  0  0  0
   39.1880   24.0150   35.2070 N   0  0  0  0  0  0  0  0  0  0  0  0
   40.6110   24.0900   35.0410 C   0  0  0  0  0  0  0  0  0  0  0  0
   41.1430   22.7280   35.5170 C   0  0  0  0  0  0  0  0  0  0  0  0
   40.9340   22.7620   37.0180 C   0  0  0  0  0  0  0  0  0  0  0  0
   39.4660   22.6950   37.2810 C   0  0  0  0  0  0  0  0  0  0  0  0
   38.6180   23.5280   36.4080 C   0  0  1  0  0  0  0  0  0  0  0  0
   36.0310   25.4150   31.2580 H   0  0  0  0  0  0  0  0  0  0  0  0
   36.8520   23.0830   31.4500 H   0  0  0  0  0  0  0  0  0  0  0  0
   41.0900   24.8370   35.7070 H   0  0  0  0  0  0  0  0  0  0  0  0
   40.9510   24.3100   34.0190 H   0  0  0  0  0  0  0  0  0  0  0  0
   42.2220   22.6460   35.2450 H   0  0  0  0  0  0  0  0  0  0  0  0
   40.5150   21.9470   35.0580 H   0  0  0  0  0  0  0  0  0  0  0  0
   41.4300   23.6480   37.4500 H   0  0  0  0  0  0  0  0  0  0  0  0
   41.3810   21.8040   37.3910 H   0  0  0  0  0  0  0  0  0  0  0  0
   39.1400   21.6220   37.1670 H   0  0  0  0  0  0  0  0  0  0  0  0
   39.3000   22.9350   38.3580 H   0  0  0  0  0  0  0  0  0  0  0  0
   37.6700   22.9950   36.1370 H   0  0  0  0  0  0  0  0  0  0  0  0
   36.5980   27.4750   32.9470 C   0  0  0  0  0  0  0  0  0  0  0  0
   35.4920   27.5110   32.0880 F   0  0  0  0  0  0  0  0  0  0  0  0
   36.3460   27.9340   34.2010 F   0  0  0  0  0  0  0  0  0  0  0  0
   37.5970   28.2130   32.3160 F   0  0  0  0  0  0  0  0  0  0  0  0
   38.1530   24.7420   37.2210 C   0  0  0  0  0  2  0  0  0  0  0  0
   37.9650   24.3730   38.6750 C   0  0  0  0  0  2  0  0  0  0  0  0
   37.8220   23.2740   38.6950 H   0  0  0  0  0  0  0  0  0  0  0  0
  1  6  1  0  0  0  0
  2  3  1  0  0  0  0
  2  1  2  0  0  0  0
  3  4  2  0  0  0  0
  4  5  1  0  0  0  0
  5  7  1  0  0  0  0
  6  5  2  0  0  0  0
  7 12  1  0  0  0  0
  8  7  1  0  0  0  0
  8  9  1  0  0  0  0
  8 15  1  0  0  0  0
  9 10  1  0  0  0  0
 10 11  1  0  0  0  0
 10 20  1  0  0  0  0
 10 19  1  0  0  0  0
 11 22  1  0  0  0  0
 12 23  1  6  0  0  0
 12 28  1  0  0  0  0
 12 11  1  0  0  0  0
 13  2  1  0  0  0  0
 14  3  1  0  0  0  0
 16  8  1  0  0  0  0
 17  9  1  0  0  0  0
 18  9  1  0  0  0  0
 21 11  1  0  0  0  0
 24  1  1  0  0  0  0
 24 26  1  0  0  0  0
 25 24  1  0  0  0  0
 27 24  1  0  0  0  0
 28 29  1  0  0  0  0
 29 30  1  0  0  0  0
M  END
>  <minimizedAffinity>
-4.82560492

$$$$

 OpenBabel03272500383D

 30 31  0  0  1  0  0  0  0  0999 V2000
   40.2300   23.0380   36.8890 C   0  0  0  0  0  0  0  0  0  0  0  0
   39.3500   22.8000   37.9710 C   0  0  0  0  0  0  0  0  0  0  0  0
   38.1490   23.5060   38.0170 C   0  0  0  0  0  0  0  0  0  0  0  0
   37.9040   24.3920   37.0000 N   0  0  0  0  0  0  0  0  0  0  0  0
   38.7640   24.5980   35.9800 C   0  0  0  0  0  0  0  0  0  0  0  0
   39.9110   23.9130   35.9500 N   0  0  0  0  0  0  0  0  0  0  0  0
   38.4100   25.5410   34.9750 N   0  0  0  0  0  0  0  0  0  0  0  0
   38.7820   26.9180   35.1290 C   0  0  0  0  0  0  0  0  0  0  0  0
   37.5080   27.7160   34.8050 C   0  0  0  0  0  0  0  0  0  0  0  0
   37.3370   27.5330   33.3100 C   0  0  0  0  0  0  0  0  0  0  0  0
   36.9530   26.1130   33.0590 C   0  0  0  0  0  0  0  0  0  0  0  0
   37.6930   25.1010   33.8370 C   0  0  1  0  0  0  0  0  0  0  0  0
   39.5820   22.0930   38.7520 H   0  0  0  0  0  0  0  0  0  0  0  0
   37.4510   23.3590   38.8170 H   0  0  0  0  0  0  0  0  0  0  0  0
   39.5310   27.2540   34.3830 H   0  0  0  0  0  0  0  0  0  0  0  0
   39.1740   27.1880   36.1200 H   0  0  0  0  0  0  0  0  0  0  0  0
   37.6700   28.7840   35.0820 H   0  0  0  0  0  0  0  0  0  0  0  0
   36.6730   27.2440   35.3490 H   0  0  0  0  0  0  0  0  0  0  0  0
   38.2510   27.8540   32.7810 H   0  0  0  0  0  0  0  0  0  0  0  0
   36.4500   28.1670   33.0440 H   0  0  0  0  0  0  0  0  0  0  0  0
   35.8560   26.0010   33.2920 H   0  0  0  0  0  0  0  0  0  0  0  0
   37.0370   25.9250   31.9620 H   0  0  0  0  0  0  0  0  0  0  0  0
   37.0160   24.2710   34.1660 H   0  0  0  0  0  0  0  0  0  0  0  0
   41.5170   22.2780   36.8450 C   0  0  0  0  0  0  0  0  0  0  0  0
   41.5530   21.5010   35.6810 F   0  0  0  0  0  0  0  0  0  0  0  0
   42.5370   23.1690   36.9520 F   0  0  0  0  0  0  0  0  0  0  0  0
   41.5030   21.3760   37.9070 F   0  0  0  0  0  0  0  0  0  0  0  0
   38.6960   24.4230   32.8950 C   0  0  0  0  0  2  0  0  0  0  0  0
   38.1510   24.3610   31.4870 C   0  0  0  0  0  2  0  0  0  0  0  0
   37.0500   24.4470   31.5810 H   0  0  0  0  0  0  0  0  0  0  0  0
  1  2  1  0  0  0  0
  2  3  2  0  0  0  0
  2 13  1  0  0  0  0
  3 14  1  0  0  0  0
  4  3  1  0  0  0  0
  5  4  2  0  0  0  0
  6  5  1  0  0  0  0
  6  1  2  0  0  0  0
  7  8  1  0  0  0  0
  7  5  1  0  0  0  0
  8 16  1  0  0  0  0
  9 17  1  0  0  0  0
  9  8  1  0  0  0  0
  9 18  1  0  0  0  0
 10  9  1  0  0  0  0
 11 21  1  0  0  0  0
 11 10  1  0  0  0  0
 11 12  1  0  0  0  0
 12 23  1  1  0  0  0
 12  7  1  0  0  0  0
 15  8  1  0  0  0  0
 19 10  1  0  0  0  0
 20 10  1  0  0  0  0
 22 11  1  0  0  0  0
 24  1  1  0  0  0  0
 24 26  1  0  0  0  0
 24 27  1  0  0  0  0
 25 24  1  0  0  0  0
 28 12  1  0  0  0  0
 29 30  1  0  0  0  0
 29 28  1  0  0  0  0
M  END
>  <minimizedAffinity>
-4.79121685

$$$$

 OpenBabel03272500383D

 30 31  0  0  1  0  0  0  0  0999 V2000
   34.8940   31.3760   35.4140 C   0  0  0  0  0  0  0  0  0  0  0  0
   33.4990   31.1560   35.3330 C   0  0  0  0  0  0  0  0  0  0  0  0
   33.0450   30.0090   34.6820 C   0  0  0  0  0  0  0  0  0  0  0  0
   33.9930   29.1680   34.1600 N   0  0  0  0  0  0  0  0  0  0  0  0
   35.3180   29.4050   34.2530 C   0  0  0  0  0  0  0  0  0  0  0  0
   35.7380   30.5080   34.8800 N   0  0  0  0  0  0  0  0  0  0  0  0
   36.2170   28.4650   33.6770 N   0  0  0  0  0  0  0  0  0  0  0  0
   36.6230   28.6150   32.3090 C   0  0  0  0  0  0  0  0  0  0  0  0
   36.4630   27.2170   31.6870 C   0  0  0  0  0  0  0  0  0  0  0  0
   37.5740   26.4080   32.3260 C   0  0  0  0  0  0  0  0  0  0  0  0
   37.2320   26.2100   33.7660 C   0  0  0  0  0  0  0  0  0  0  0  0
   36.6950   27.3920   34.4670 C   0  0  1  0  0  0  0  0  0  0  0  0
   32.7860   31.8450   35.7570 H   0  0  0  0  0  0  0  0  0  0  0  0
   31.9960   29.8020   34.5970 H   0  0  0  0  0  0  0  0  0  0  0  0
   37.6990   28.8600   32.1960 H   0  0  0  0  0  0  0  0  0  0  0  0
   36.0620   29.3670   31.7360 H   0  0  0  0  0  0  0  0  0  0  0  0
   36.5840   27.2980   30.5820 H   0  0  0  0  0  0  0  0  0  0  0  0
   35.4770   26.8290   31.9930 H   0  0  0  0  0  0  0  0  0  0  0  0
   38.5470   26.8990   32.1570 H   0  0  0  0  0  0  0  0  0  0  0  0
   37.5150   25.4030   31.8320 H   0  0  0  0  0  0  0  0  0  0  0  0
   36.4660   25.3860   33.8320 H   0  0  0  0  0  0  0  0  0  0  0  0
   38.1370   25.8080   34.2800 H   0  0  0  0  0  0  0  0  0  0  0  0
   35.8760   27.1050   35.1740 H   0  0  0  0  0  0  0  0  0  0  0  0
   35.3760   32.6070   36.1110 C   0  0  0  0  0  0  0  0  0  0  0  0
   34.8050   33.7330   35.5070 F   0  0  0  0  0  0  0  0  0  0  0  0
   35.0950   32.4810   37.4350 F   0  0  0  0  0  0  0  0  0  0  0  0
   36.7480   32.7030   35.8800 F   0  0  0  0  0  0  0  0  0  0  0  0
   37.8030   27.9470   35.3720 C   0  0  0  0  0  2  0  0  0  0  0  0
   38.4840   26.8300   36.1290 C   0  0  0  0  0  2  0  0  0  0  0  0
   37.7660   25.9860   36.1420 H   0  0  0  0  0  0  0  0  0  0  0  0
  1 24  1  0  0  0  0
  2  1  1  0  0  0  0
  2 13  1  0  0  0  0
  3  2  2  0  0  0  0
  4  5  2  0  0  0  0
  4  3  1  0  0  0  0
  5  6  1  0  0  0  0
  6  1  2  0  0  0  0
  7  5  1  0  0  0  0
  7 12  1  0  0  0  0
  8  7  1  0  0  0  0
  9 18  1  0  0  0  0
  9  8  1  0  0  0  0
  9 10  1  0  0  0  0
 10 11  1  0  0  0  0
 11 21  1  0  0  0  0
 11 22  1  0  0  0  0
 11 12  1  0  0  0  0
 12 23  1  1  0  0  0
 12 28  1  0  0  0  0
 14  3  1  0  0  0  0
 15  8  1  0  0  0  0
 16  8  1  0  0  0  0
 17  9  1  0  0  0  0
 19 10  1  0  0  0  0
 20 10  1  0  0  0  0
 24 26  1  0  0  0  0
 25 24  1  0  0  0  0
 27 24  1  0  0  0  0
 28 29  1  0  0  0  0
 29 30  1  0  0  0  0
M  END
>  <minimizedAffinity>
-4.78740597

$$$$

 OpenBabel03272500383D

 30 31  0  0  1  0  0  0  0  0999 V2000
   39.0710   23.3570   37.2920 C   0  0  0  0  0  0  0  0  0  0  0  0
   40.2300   22.6160   37.6220 C   0  0  0  0  0  0  0  0  0  0  0  0
   41.3550   22.7490   36.8100 C   0  0  0  0  0  0  0  0  0  0  0  0
   41.2570   23.5950   35.7360 N   0  0  0  0  0  0  0  0  0  0  0  0
   40.1360   24.2890   35.4470 C   0  0  0  0  0  0  0  0  0  0  0  0
   39.0660   24.1520   36.2350 N   0  0  0  0  0  0  0  0  0  0  0  0
   40.1420   25.1410   34.3080 N   0  0  0  0  0  0  0  0  0  0  0  0
   39.7540   24.6230   33.0280 C   0  0  0  0  0  0  0  0  0  0  0  0
   40.8400   25.1050   32.0520 C   0  0  0  0  0  0  0  0  0  0  0  0
   40.5960   26.5970   31.9470 C   0  0  0  0  0  0  0  0  0  0  0  0
   40.9710   27.2200   33.2510 C   0  0  0  0  0  0  0  0  0  0  0  0
   40.5350   26.4930   34.4590 C   0  0  1  0  0  0  0  0  0  0  0  0
   40.2650   21.9600   38.4770 H   0  0  0  0  0  0  0  0  0  0  0  0
   42.2560   22.2070   37.0210 H   0  0  0  0  0  0  0  0  0  0  0  0
   38.8080   25.0610   32.6470 H   0  0  0  0  0  0  0  0  0  0  0  0
   39.6400   23.5300   32.9820 H   0  0  0  0  0  0  0  0  0  0  0  0
   40.7040   24.5860   31.0750 H   0  0  0  0  0  0  0  0  0  0  0  0
   41.8190   24.9060   32.5200 H   0  0  0  0  0  0  0  0  0  0  0  0
   39.5540   26.7900   31.6380 H   0  0  0  0  0  0  0  0  0  0  0  0
   41.3360   26.9540   31.1850 H   0  0  0  0  0  0  0  0  0  0  0  0
   42.0940   27.3120   33.2830 H   0  0  0  0  0  0  0  0  0  0  0  0
   40.5940   28.2700   33.2490 H   0  0  0  0  0  0  0  0  0  0  0  0
   41.3210   26.5270   35.2560 H   0  0  0  0  0  0  0  0  0  0  0  0
   37.8660   23.2110   38.1660 C   0  0  0  0  0  0  0  0  0  0  0  0
   36.8310   22.6230   37.4290 F   0  0  0  0  0  0  0  0  0  0  0  0
   38.2290   22.5130   39.2740 F   0  0  0  0  0  0  0  0  0  0  0  0
   37.4270   24.4960   38.4830 F   0  0  0  0  0  0  0  0  0  0  0  0
   39.3470   27.2530   35.0630 C   0  0  0  0  0  2  0  0  0  0  0  0
   38.1420   27.1710   34.1540 C   0  0  0  0  0  2  0  0  0  0  0  0
   38.5350   26.9420   33.1440 H   0  0  0  0  0  0  0  0  0  0  0  0
  1  2  1  0  0  0  0
  1 24  1  0  0  0  0
  2 13  1  0  0  0  0
  3 14  1  0  0  0  0
  3  2  2  0  0  0  0
  4  3  1  0  0  0  0
  5  4  2  0  0  0  0
  5  6  1  0  0  0  0
  6  1  2  0  0  0  0
  7 12  1  0  0  0  0
  7  5  1  0  0  0  0
  8  7  1  0  0  0  0
  9 18  1  0  0  0  0
  9  8  1  0  0  0  0
 10  9  1  0  0  0  0
 10 11  1  0  0  0  0
 11 21  1  0  0  0  0
 11 12  1  0  0  0  0
 12 28  1  0  0  0  0
 12 23  1  1  0  0  0
 15  8  1  0  0  0  0
 16  8  1  0  0  0  0
 17  9  1  0  0  0  0
 19 10  1  0  0  0  0
 20 10  1  0  0  0  0
 22 11  1  0  0  0  0
 24 27  1  0  0  0  0
 24 26  1  0  0  0  0
 25 24  1  0  0  0  0
 29 28  1  0  0  0  0
 30 29  1  0  0  0  0
M  END
>  <minimizedAffinity>
-4.77724838

$$$$
