REMARK  Name = 
REMARK  3 active torsions:
REMARK  status: ('A' for Active; 'I' for Inactive)
REMARK    1  A    between atoms: C_3  and  C_13
REMARK    2  A    between atoms: C_5  and  C_7
REMARK    3  A    between atoms: C_13  and  C_14
REMARK                            x       y       z     vdW  Elec       q    Type
REMARK                         _______ _______ _______ _____ _____    ______ ____
ROOT
ATOM      1  C   UNL     1      38.305  31.238  50.127  0.00  0.00    +0.000 A 
ATOM      2  C   UNL     1      38.297  31.606  48.781  0.00  0.00    +0.000 A 
ATOM      3  C   UNL     1      37.201  31.219  47.989  0.00  0.00    +0.000 A 
ATOM      4  N   UNL     1      36.215  30.505  48.594  0.00  0.00    +0.000 NA
ATOM      5  C   UNL     1      36.254  30.170  49.884  0.00  0.00    +0.000 A 
ATOM      6  N   UNL     1      37.299  30.537  50.647  0.00  0.00    +0.000 NA
ATOM      7  H   UNL     1      39.148  31.544  50.706  0.00  0.00    +0.000 HD
ATOM      8  H   UNL     1      39.066  32.172  48.274  0.00  0.00    +0.000 HD
ENDROOT
BRANCH   5   9
ATOM      9  C   UNL     1      35.130  29.387  50.453  0.00  0.00    +0.000 C 
ATOM     10  F   UNL     1      35.270  29.125  51.800  0.00  0.00    +0.000 F 
ATOM     11  F   UNL     1      33.927  30.054  50.306  0.00  0.00    +0.000 F 
ATOM     12  F   UNL     1      34.952  28.171  49.822  0.00  0.00    +0.000 F 
ENDBRANCH   5   9
BRANCH   3  13
ATOM     13  C   UNL     1      37.019  31.513  46.563  0.00  0.00    +0.000 C 
BRANCH  13  14
ATOM     14  C   UNL     1      35.783  32.311  46.262  0.00  0.00    +0.000 C 
ATOM     15  H   UNL     1      35.894  33.377  46.549  0.00  0.00    +0.000 HD
ENDBRANCH  13  14
ENDBRANCH   3  13
TORSDOF 3
