
 OpenBabel03272509273D

 35 36  0  0  1  0  0  0  0  0999 V2000
   39.1590   32.1920   46.6270 C   0  0  2  0  0  0  0  0  0  0  0  0
   40.1810   33.2150   46.2920 C   0  0  0  0  0  0  0  0  0  0  0  0
   40.0440   33.6380   44.8410 C   0  0  0  0  0  0  0  0  0  0  0  0
   39.6300   32.4640   44.0020 C   0  0  0  0  0  0  0  0  0  0  0  0
   38.1390   32.4080   44.2970 C   0  0  0  0  0  0  0  0  0  0  0  0
   37.9940   32.1300   45.7380 C   0  0  1  0  0  0  0  0  0  0  0  0
   39.6730   31.2040   46.6700 H   0  0  0  0  0  0  0  0  0  0  0  0
   40.1100   34.1580   46.8920 H   0  0  0  0  0  0  0  0  0  0  0  0
   41.2180   32.8490   46.4400 H   0  0  0  0  0  0  0  0  0  0  0  0
   40.9830   34.0380   44.4720 H   0  0  0  0  0  0  0  0  0  0  0  0
   39.2950   34.4720   44.8070 H   0  0  0  0  0  0  0  0  0  0  0  0
   39.8640   32.5750   42.9440 H   0  0  0  0  0  0  0  0  0  0  0  0
   40.1710   31.5720   44.4270 H   0  0  0  0  0  0  0  0  0  0  0  0
   37.7590   33.4440   44.0770 H   0  0  0  0  0  0  0  0  0  0  0  0
   37.6230   31.7690   43.5800 H   0  0  0  0  0  0  0  0  0  0  0  0
   37.1720   32.7290   46.1260 H   0  0  0  0  0  0  0  0  0  0  0  0
   38.5780   32.6130   48.2800 S   0  0  0  0  0  0  0  0  0  0  0  0
   38.2400   31.3190   49.3610 C   0  0  0  0  0  0  0  0  0  0  0  0
   38.9580   31.5920   50.2120 H   0  0  0  0  0  0  0  0  0  0  0  0
   38.5870   30.3010   49.1320 H   0  0  0  0  0  0  0  0  0  0  0  0
   36.9010   31.3730   50.0630 C   0  0  0  0  0  0  0  0  0  0  0  0
   36.4300   32.3550   50.0740 H   0  0  0  0  0  0  0  0  0  0  0  0
   37.1010   30.9530   51.0970 H   0  0  0  0  0  0  0  0  0  0  0  0
   34.8510   28.3050   49.5250 C   0  0  0  0  0  0  0  0  0  0  0  0
   35.7680   29.1980   50.0770 C   0  0  0  0  0  0  0  0  0  0  0  0
   35.9440   30.4190   49.4830 C   0  0  0  0  0  0  0  0  0  0  0  0
   35.2100   30.7140   48.3630 N   0  0  0  0  0  0  0  0  0  0  0  0
   34.3380   29.8370   47.8560 C   0  0  0  0  0  0  0  0  0  0  0  0
   34.1380   28.6370   48.4090 N   0  0  0  0  0  0  0  0  0  0  0  0
   34.6010   27.3110   49.8790 H   0  0  0  0  0  0  0  0  0  0  0  0
   36.2170   28.7240   50.9340 H   0  0  0  0  0  0  0  0  0  0  0  0
   33.8440   30.2300   46.9730 H   0  0  0  0  0  0  0  0  0  0  0  0
   37.4990   30.6890   45.7400 C   0  0  0  0  0  0  0  0  0  0  0  0
   36.4090   30.5590   44.7330 C   0  0  0  0  0  0  0  0  0  0  0  0
   35.9850   31.5420   44.3920 H   0  0  0  0  0  0  0  0  0  0  0  0
  1  7  1  1  0  0  0
  1 17  1  0  0  0  0
  2  9  1  0  0  0  0
  2  1  1  0  0  0  0
  2  8  1  0  0  0  0
  3  2  1  0  0  0  0
  4  5  1  0  0  0  0
  4 13  1  0  0  0  0
  4  3  1  0  0  0  0
  5  6  1  0  0  0  0
  6 33  1  0  0  0  0
  6 16  1  1  0  0  0
  6  1  1  0  0  0  0
 10  3  1  0  0  0  0
 11  3  1  0  0  0  0
 12  4  1  0  0  0  0
 14  5  1  0  0  0  0
 15  5  1  0  0  0  0
 17 18  1  0  0  0  0
 18 21  1  0  0  0  0
 18 19  1  0  0  0  0
 20 18  1  0  0  0  0
 21 22  1  0  0  0  0
 21 23  1  0  0  0  0
 24 30  1  0  0  0  0
 24 25  1  0  0  0  0
 25 31  1  0  0  0  0
 26 21  1  0  0  0  0
 26 25  2  0  0  0  0
 27 26  1  0  0  0  0
 28 27  2  0  0  0  0
 28 29  1  0  0  0  0
 29 24  2  0  0  0  0
 32 28  1  0  0  0  0
 34 33  1  0  0  0  0
 35 34  1  0  0  0  0
M  END
>  <minimizedAffinity>
-5.08537436

>  <minimizedRMSD>
2.75167179

$$$$
