
 OpenBabel03272509373D

 24 25  0  0  0  0  0  0  0  0999 V2000
   36.8410   30.4570   48.8440 C   0  0  0  0  0  0  0  0  0  0  0  0
   36.6660   29.1720   49.3940 C   0  0  0  0  0  0  0  0  0  0  0  0
   36.8800   28.8980   50.7480 C   0  0  0  0  0  0  0  0  0  0  0  0
   37.2830   29.9590   51.5860 C   0  0  0  0  0  0  0  0  0  0  0  0
   37.4500   31.2240   51.0190 C   0  0  0  0  0  0  0  0  0  0  0  0
   37.2360   31.4720   49.6800 C   0  0  0  0  0  0  0  0  0  0  0  0
   36.3560   28.3540   48.7470 H   0  0  0  0  0  0  0  0  0  0  0  0
   36.7490   27.9330   51.1660 H   0  0  0  0  0  0  0  0  0  0  0  0
   37.4570   29.7980   52.6330 H   0  0  0  0  0  0  0  0  0  0  0  0
   37.7610   31.9970   51.7260 H   0  0  0  0  0  0  0  0  0  0  0  0
   36.5700   30.6220   47.4170 C   0  0  0  0  0  0  0  0  0  0  0  0
   35.3370   30.5860   47.1170 O   0  0  0  0  0  0  0  0  0  0  0  0
   37.9500   31.2720   44.1200 C   0  0  0  0  0  0  0  0  0  0  0  0
   39.3260   31.2280   44.3160 C   0  0  0  0  0  0  0  0  0  0  0  0
   39.7870   30.9690   45.5910 C   0  0  0  0  0  0  0  0  0  0  0  0
   38.9010   30.7660   46.6090 N   0  0  0  0  0  0  0  0  0  0  0  0
   37.5900   30.8130   46.3950 C   0  0  0  0  0  0  0  0  0  0  0  0
   37.1460   31.0650   45.1600 N   0  0  0  0  0  0  0  0  0  0  0  0
   37.4970   31.4700   43.1390 H   0  0  0  0  0  0  0  0  0  0  0  0
   39.9090   31.4040   43.4390 H   0  0  0  0  0  0  0  0  0  0  0  0
   40.8590   30.9370   45.7220 H   0  0  0  0  0  0  0  0  0  0  0  0
   37.4710   32.8420   49.1840 C   0  0  0  0  0  0  0  0  0  0  0  0
   38.9510   33.2180   49.4090 C   0  0  0  0  0  0  0  0  0  0  0  0
   39.0480   33.6040   50.4460 H   0  0  0  0  0  0  0  0  0  0  0  0
  1  2  2  0  0  0  0
  1  6  1  0  0  0  0
  2  3  1  0  0  0  0
  3  8  1  0  0  0  0
  3  4  2  0  0  0  0
  4  9  1  0  0  0  0
  5  4  1  0  0  0  0
  5 10  1  0  0  0  0
  6  5  2  0  0  0  0
  7  2  1  0  0  0  0
 11  1  1  0  0  0  0
 12 11  2  0  0  0  0
 13 14  2  0  0  0  0
 13 18  1  0  0  0  0
 14 15  1  0  0  0  0
 15 21  1  0  0  0  0
 15 16  2  0  0  0  0
 17 16  1  0  0  0  0
 17 11  1  0  0  0  0
 18 17  2  0  0  0  0
 19 13  1  0  0  0  0
 20 14  1  0  0  0  0
 22 23  1  0  0  0  0
 22  6  1  0  0  0  0
 23 24  1  0  0  0  0
M  END
>  <minimizedAffinity>
-5.11460972

>  <minimizedRMSD>
4.12418747

$$$$
