
 OpenBabel03272507113D

 21 22  0  0  0  0  0  0  0  0999 V2000
   38.2350   26.4160   35.4300 C   0  0  0  0  0  0  0  0  0  0  0  0
   38.4230   27.4970   36.0320 O   0  0  0  0  0  0  0  0  0  0  0  0
   38.6630   25.1260   35.9450 C   0  0  0  0  0  0  0  0  0  0  0  0
   37.8930   24.5650   36.9550 C   0  0  0  0  0  0  0  0  0  0  0  0
   38.2820   23.3250   37.4690 C   0  0  0  0  0  0  0  0  0  0  0  0
   39.4040   22.7390   36.9400 N   0  0  0  0  0  0  0  0  0  0  0  0
   40.1260   23.3090   35.9640 C   0  0  0  0  0  0  0  0  0  0  0  0
   39.7560   24.5060   35.4630 N   0  0  0  0  0  0  0  0  0  0  0  0
   37.0210   25.0570   37.3420 H   0  0  0  0  0  0  0  0  0  0  0  0
   37.7110   22.8660   38.2470 H   0  0  0  0  0  0  0  0  0  0  0  0
   40.9940   22.7800   35.6050 H   0  0  0  0  0  0  0  0  0  0  0  0
   37.5510   26.4390   34.1470 C   0  0  0  0  0  0  0  0  0  0  0  0
   37.1220   27.5950   33.5780 C   0  0  0  0  0  0  0  0  0  0  0  0
   36.5180   27.2320   32.3650 C   0  0  0  0  0  0  0  0  0  0  0  0
   36.6260   25.8560   32.2830 C   0  0  0  0  0  0  0  0  0  0  0  0
   37.2390   25.4350   33.3520 O   0  0  0  0  0  0  0  0  0  0  0  0
   37.1910   28.6330   33.9220 H   0  0  0  0  0  0  0  0  0  0  0  0
   36.0610   27.8550   31.6330 H   0  0  0  0  0  0  0  0  0  0  0  0
   36.1690   24.9180   31.2280 C   0  0  0  0  0  2  0  0  0  0  0  0
   34.7700   25.2050   30.8100 C   0  0  0  0  0  2  0  0  0  0  0  0
   34.3950   26.2110   30.9970 H   0  0  0  0  0  0  0  0  0  0  0  0
  1  3  1  0  0  0  0
  1  2  2  0  0  0  0
  3  4  1  0  0  0  0
  4  9  1  0  0  0  0
  4  5  2  0  0  0  0
  5 10  1  0  0  0  0
  6  5  1  0  0  0  0
  7  6  2  0  0  0  0
  8  3  2  0  0  0  0
  8  7  1  0  0  0  0
 11  7  1  0  0  0  0
 12  1  1  0  0  0  0
 13 17  1  0  0  0  0
 13 12  2  0  0  0  0
 14 13  1  0  0  0  0
 15 14  2  0  0  0  0
 15 16  1  0  0  0  0
 16 12  1  0  0  0  0
 18 14  1  0  0  0  0
 19 15  1  0  0  0  0
 20 21  1  0  0  0  0
 20 19  1  0  0  0  0
M  END
>  <minimizedAffinity>
-4.26502419

$$$$

 OpenBabel03272507113D

 21 22  0  0  0  0  0  0  0  0999 V2000
   38.1470   24.2340   36.7080 C   0  0  0  0  0  0  0  0  0  0  0  0
   37.2530   23.9200   37.5260 O   0  0  0  0  0  0  0  0  0  0  0  0
   39.3390   23.4360   36.4770 C   0  0  0  0  0  0  0  0  0  0  0  0
   39.8620   22.7560   37.5690 C   0  0  0  0  0  0  0  0  0  0  0  0
   41.0080   21.9810   37.3760 C   0  0  0  0  0  0  0  0  0  0  0  0
   41.5450   21.9410   36.1140 N   0  0  0  0  0  0  0  0  0  0  0  0
   41.0150   22.6110   35.0800 C   0  0  0  0  0  0  0  0  0  0  0  0
   39.9080   23.3610   35.2600 N   0  0  0  0  0  0  0  0  0  0  0  0
   39.4100   22.8140   38.5410 H   0  0  0  0  0  0  0  0  0  0  0  0
   41.4350   21.4450   38.1950 H   0  0  0  0  0  0  0  0  0  0  0  0
   41.5010   22.5240   34.1220 H   0  0  0  0  0  0  0  0  0  0  0  0
   37.9940   25.4600   35.9420 C   0  0  0  0  0  0  0  0  0  0  0  0
   38.4040   26.6650   36.4180 C   0  0  0  0  0  0  0  0  0  0  0  0
   38.1010   27.6030   35.4200 C   0  0  0  0  0  0  0  0  0  0  0  0
   37.5180   26.8870   34.3910 C   0  0  0  0  0  0  0  0  0  0  0  0
   37.4770   25.6340   34.7420 O   0  0  0  0  0  0  0  0  0  0  0  0
   38.8790   26.9370   37.3680 H   0  0  0  0  0  0  0  0  0  0  0  0
   38.2670   28.6540   35.4170 H   0  0  0  0  0  0  0  0  0  0  0  0
   36.9960   27.3440   33.0790 C   0  0  0  0  0  2  0  0  0  0  0  0
   38.0950   27.5830   32.1050 C   0  0  0  0  0  2  0  0  0  0  0  0
   39.0390   27.0690   32.2910 H   0  0  0  0  0  0  0  0  0  0  0  0
  1  2  2  0  0  0  0
  3  1  1  0  0  0  0
  3  4  1  0  0  0  0
  4  9  1  0  0  0  0
  5  4  2  0  0  0  0
  5 10  1  0  0  0  0
  6  5  1  0  0  0  0
  7  8  1  0  0  0  0
  7  6  2  0  0  0  0
  8  3  2  0  0  0  0
 11  7  1  0  0  0  0
 12 13  2  0  0  0  0
 12  1  1  0  0  0  0
 13 17  1  0  0  0  0
 14 13  1  0  0  0  0
 15 16  1  0  0  0  0
 15 14  2  0  0  0  0
 16 12  1  0  0  0  0
 18 14  1  0  0  0  0
 19 15  1  0  0  0  0
 20 21  1  0  0  0  0
 20 19  1  0  0  0  0
M  END
>  <minimizedAffinity>
-4.23246145

$$$$

 OpenBabel03272507113D

 21 22  0  0  0  0  0  0  0  0999 V2000
   38.2950   26.4170   35.4520 C   0  0  0  0  0  0  0  0  0  0  0  0
   38.7480   27.4170   36.0530 O   0  0  0  0  0  0  0  0  0  0  0  0
   37.5400   26.4990   34.2130 C   0  0  0  0  0  0  0  0  0  0  0  0
   36.9920   27.7340   33.8910 C   0  0  0  0  0  0  0  0  0  0  0  0
   36.2620   27.8430   32.7050 C   0  0  0  0  0  0  0  0  0  0  0  0
   36.1320   26.7180   31.9310 N   0  0  0  0  0  0  0  0  0  0  0  0
   36.6740   25.5390   32.2710 C   0  0  0  0  0  0  0  0  0  0  0  0
   37.3810   25.4270   33.4150 N   0  0  0  0  0  0  0  0  0  0  0  0
   37.1180   28.5910   34.5250 H   0  0  0  0  0  0  0  0  0  0  0  0
   35.8280   28.7790   32.4290 H   0  0  0  0  0  0  0  0  0  0  0  0
   36.5230   24.7050   31.6060 H   0  0  0  0  0  0  0  0  0  0  0  0
   38.5290   25.0960   36.0140 C   0  0  0  0  0  0  0  0  0  0  0  0
   37.7330   24.5720   36.9810 C   0  0  0  0  0  0  0  0  0  0  0  0
   38.2570   23.3030   37.2720 C   0  0  0  0  0  0  0  0  0  0  0  0
   39.3530   23.1460   36.4450 C   0  0  0  0  0  0  0  0  0  0  0  0
   39.4740   24.2240   35.7240 O   0  0  0  0  0  0  0  0  0  0  0  0
   36.8510   24.9820   37.4850 H   0  0  0  0  0  0  0  0  0  0  0  0
   37.9120   22.5820   37.9750 H   0  0  0  0  0  0  0  0  0  0  0  0
   40.2970   22.0090   36.3070 C   0  0  0  0  0  2  0  0  0  0  0  0
   41.1220   21.8310   37.5320 C   0  0  0  0  0  2  0  0  0  0  0  0
   40.7210   22.2390   38.4610 H   0  0  0  0  0  0  0  0  0  0  0  0
  1 12  1  0  0  0  0
  1  2  2  0  0  0  0
  3  1  1  0  0  0  0
  4  3  1  0  0  0  0
  4  9  1  0  0  0  0
  5  4  2  0  0  0  0
  6  7  2  0  0  0  0
  6  5  1  0  0  0  0
  7  8  1  0  0  0  0
  8  3  2  0  0  0  0
 10  5  1  0  0  0  0
 11  7  1  0  0  0  0
 12 13  2  0  0  0  0
 13 14  1  0  0  0  0
 13 17  1  0  0  0  0
 14 18  1  0  0  0  0
 15 14  2  0  0  0  0
 16 12  1  0  0  0  0
 16 15  1  0  0  0  0
 19 15  1  0  0  0  0
 19 20  1  0  0  0  0
 20 21  1  0  0  0  0
M  END
>  <minimizedAffinity>
-4.21639156

$$$$

 OpenBabel03272507113D

 21 22  0  0  0  0  0  0  0  0999 V2000
   35.7160   25.0760   31.1470 C   0  0  0  0  0  0  0  0  0  0  0  0
   34.6430   25.3140   30.5470 O   0  0  0  0  0  0  0  0  0  0  0  0
   36.4550   23.8330   31.0060 C   0  0  0  0  0  0  0  0  0  0  0  0
   35.7850   22.6620   31.3370 C   0  0  0  0  0  0  0  0  0  0  0  0
   36.4710   21.4520   31.2120 C   0  0  0  0  0  0  0  0  0  0  0  0
   37.7680   21.4970   30.7670 N   0  0  0  0  0  0  0  0  0  0  0  0
   38.3870   22.6460   30.4570 C   0  0  0  0  0  0  0  0  0  0  0  0
   37.7300   23.8190   30.5760 N   0  0  0  0  0  0  0  0  0  0  0  0
   34.7680   22.6710   31.6810 H   0  0  0  0  0  0  0  0  0  0  0  0
   35.9840   20.5340   31.4570 H   0  0  0  0  0  0  0  0  0  0  0  0
   39.4080   22.5920   30.1160 H   0  0  0  0  0  0  0  0  0  0  0  0
   36.2620   26.0910   32.0330 C   0  0  0  0  0  0  0  0  0  0  0  0
   36.2180   27.4140   31.7300 C   0  0  0  0  0  0  0  0  0  0  0  0
   36.8300   28.0810   32.8030 C   0  0  0  0  0  0  0  0  0  0  0  0
   37.2080   27.0960   33.6960 C   0  0  0  0  0  0  0  0  0  0  0  0
   36.8540   25.9440   33.2020 O   0  0  0  0  0  0  0  0  0  0  0  0
   35.8110   27.9370   30.8570 H   0  0  0  0  0  0  0  0  0  0  0  0
   36.9900   29.1240   32.9380 H   0  0  0  0  0  0  0  0  0  0  0  0
   37.8940   27.2010   35.0070 C   0  0  0  0  0  2  0  0  0  0  0  0
   39.3640   27.0110   34.8730 C   0  0  0  0  0  2  0  0  0  0  0  0
   39.7980   27.2000   33.8900 H   0  0  0  0  0  0  0  0  0  0  0  0
  1 12  1  0  0  0  0
  2  1  2  0  0  0  0
  3  1  1  0  0  0  0
  3  4  1  0  0  0  0
  4  9  1  0  0  0  0
  5  4  2  0  0  0  0
  5 10  1  0  0  0  0
  6  5  1  0  0  0  0
  7  8  1  0  0  0  0
  7  6  2  0  0  0  0
  8  3  2  0  0  0  0
 11  7  1  0  0  0  0
 12 16  1  0  0  0  0
 13 12  2  0  0  0  0
 13 14  1  0  0  0  0
 14 18  1  0  0  0  0
 14 15  2  0  0  0  0
 15 19  1  0  0  0  0
 16 15  1  0  0  0  0
 17 13  1  0  0  0  0
 20 19  1  0  0  0  0
 21 20  1  0  0  0  0
M  END
>  <minimizedAffinity>
-4.1052556

$$$$

 OpenBabel03272507113D

 21 22  0  0  0  0  0  0  0  0999 V2000
   38.8020   26.4320   35.0440 C   0  0  0  0  0  0  0  0  0  0  0  0
   39.9490   26.9100   35.2010 O   0  0  0  0  0  0  0  0  0  0  0  0
   38.4280   25.0910   35.4610 C   0  0  0  0  0  0  0  0  0  0  0  0
   38.0330   24.9310   36.7820 C   0  0  0  0  0  0  0  0  0  0  0  0
   37.6670   23.6520   37.2120 C   0  0  0  0  0  0  0  0  0  0  0  0
   37.7230   22.6320   36.2950 N   0  0  0  0  0  0  0  0  0  0  0  0
   38.1110   22.8210   35.0260 C   0  0  0  0  0  0  0  0  0  0  0  0
   38.4650   24.0540   34.6040 N   0  0  0  0  0  0  0  0  0  0  0  0
   38.0030   25.7560   37.4680 H   0  0  0  0  0  0  0  0  0  0  0  0
   37.3580   23.4960   38.2220 H   0  0  0  0  0  0  0  0  0  0  0  0
   38.1260   21.9650   34.3710 H   0  0  0  0  0  0  0  0  0  0  0  0
   37.7820   27.2530   34.4120 C   0  0  0  0  0  0  0  0  0  0  0  0
   37.5630   27.2290   33.0720 C   0  0  0  0  0  0  0  0  0  0  0  0
   36.5200   28.1350   32.8300 C   0  0  0  0  0  0  0  0  0  0  0  0
   36.1730   28.6530   34.0640 C   0  0  0  0  0  0  0  0  0  0  0  0
   36.9410   28.1050   34.9630 O   0  0  0  0  0  0  0  0  0  0  0  0
   38.0510   26.6550   32.2760 H   0  0  0  0  0  0  0  0  0  0  0  0
   36.0620   28.3970   31.9060 H   0  0  0  0  0  0  0  0  0  0  0  0
   35.1380   29.6510   34.4300 C   0  0  0  0  0  2  0  0  0  0  0  0
   35.7140   30.7720   35.2220 C   0  0  0  0  0  2  0  0  0  0  0  0
   36.7860   30.9480   35.1210 H   0  0  0  0  0  0  0  0  0  0  0  0
  1  2  2  0  0  0  0
  1  3  1  0  0  0  0
  3  4  1  0  0  0  0
  4  5  2  0  0  0  0
  4  9  1  0  0  0  0
  5 10  1  0  0  0  0
  6  5  1  0  0  0  0
  7  6  2  0  0  0  0
  8  7  1  0  0  0  0
  8  3  2  0  0  0  0
 11  7  1  0  0  0  0
 12 16  1  0  0  0  0
 12  1  1  0  0  0  0
 13 12  2  0  0  0  0
 14 13  1  0  0  0  0
 14 15  2  0  0  0  0
 15 19  1  0  0  0  0
 15 16  1  0  0  0  0
 17 13  1  0  0  0  0
 18 14  1  0  0  0  0
 19 20  1  0  0  0  0
 21 20  1  0  0  0  0
M  END
>  <minimizedAffinity>
-4.09980059

$$$$

 OpenBabel03272507113D

 21 22  0  0  0  0  0  0  0  0999 V2000
   38.1580   23.8390   34.6210 C   0  0  0  0  0  0  0  0  0  0  0  0
   37.9350   22.8760   33.8530 O   0  0  0  0  0  0  0  0  0  0  0  0
   38.4220   23.6860   36.0420 C   0  0  0  0  0  0  0  0  0  0  0  0
   39.5430   22.9470   36.3980 C   0  0  0  0  0  0  0  0  0  0  0  0
   39.8220   22.7840   37.7570 C   0  0  0  0  0  0  0  0  0  0  0  0
   38.9670   23.3690   38.6580 N   0  0  0  0  0  0  0  0  0  0  0  0
   37.8920   24.0760   38.2800 C   0  0  0  0  0  0  0  0  0  0  0  0
   37.6170   24.2380   36.9690 N   0  0  0  0  0  0  0  0  0  0  0  0
   40.1870   22.5060   35.6610 H   0  0  0  0  0  0  0  0  0  0  0  0
   40.6760   22.2220   38.0640 H   0  0  0  0  0  0  0  0  0  0  0  0
   37.2720   24.5010   39.0530 H   0  0  0  0  0  0  0  0  0  0  0  0
   38.1560   25.1860   34.0740 C   0  0  0  0  0  0  0  0  0  0  0  0
   39.3020   25.8900   33.8870 C   0  0  0  0  0  0  0  0  0  0  0  0
   38.9160   27.1280   33.3510 C   0  0  0  0  0  0  0  0  0  0  0  0
   37.5380   27.0840   33.2490 C   0  0  0  0  0  0  0  0  0  0  0  0
   37.1370   25.9250   33.6850 O   0  0  0  0  0  0  0  0  0  0  0  0
   40.3470   25.6270   34.0850 H   0  0  0  0  0  0  0  0  0  0  0  0
   39.5250   27.9540   33.0690 H   0  0  0  0  0  0  0  0  0  0  0  0
   36.5790   28.1020   32.7510 C   0  0  0  0  0  2  0  0  0  0  0  0
   35.9370   28.8420   33.8710 C   0  0  0  0  0  2  0  0  0  0  0  0
   36.4680   28.8540   34.8240 H   0  0  0  0  0  0  0  0  0  0  0  0
  1  3  1  0  0  0  0
  2  1  2  0  0  0  0
  3  4  2  0  0  0  0
  3  8  1  0  0  0  0
  4  5  1  0  0  0  0
  5 10  1  0  0  0  0
  5  6  2  0  0  0  0
  7  6  1  0  0  0  0
  7 11  1  0  0  0  0
  8  7  2  0  0  0  0
  9  4  1  0  0  0  0
 12  1  1  0  0  0  0
 13 12  2  0  0  0  0
 13 17  1  0  0  0  0
 14 13  1  0  0  0  0
 15 14  2  0  0  0  0
 15 16  1  0  0  0  0
 16 12  1  0  0  0  0
 18 14  1  0  0  0  0
 19 15  1  0  0  0  0
 19 20  1  0  0  0  0
 20 21  1  0  0  0  0
M  END
>  <minimizedAffinity>
-4.08302116

$$$$

 OpenBabel03272507113D

 21 22  0  0  0  0  0  0  0  0999 V2000
   34.5790   29.7580   33.6520 C   0  0  0  0  0  0  0  0  0  0  0  0
   33.7800   29.8550   32.6930 O   0  0  0  0  0  0  0  0  0  0  0  0
   34.4650   30.5390   34.8730 C   0  0  0  0  0  0  0  0  0  0  0  0
   35.5730   31.2880   35.2460 C   0  0  0  0  0  0  0  0  0  0  0  0
   35.4920   32.0490   36.4150 C   0  0  0  0  0  0  0  0  0  0  0  0
   34.3170   32.0080   37.1220 N   0  0  0  0  0  0  0  0  0  0  0  0
   33.2650   31.2730   36.7340 C   0  0  0  0  0  0  0  0  0  0  0  0
   33.3360   30.5350   35.6050 N   0  0  0  0  0  0  0  0  0  0  0  0
   36.4750   31.2930   34.6630 H   0  0  0  0  0  0  0  0  0  0  0  0
   36.3270   32.6360   36.7290 H   0  0  0  0  0  0  0  0  0  0  0  0
   32.3800   31.2970   37.3480 H   0  0  0  0  0  0  0  0  0  0  0  0
   35.6820   28.8170   33.5530 C   0  0  0  0  0  0  0  0  0  0  0  0
   36.3270   28.5810   32.3800 C   0  0  0  0  0  0  0  0  0  0  0  0
   37.3190   27.6310   32.6640 C   0  0  0  0  0  0  0  0  0  0  0  0
   37.2040   27.3530   34.0140 C   0  0  0  0  0  0  0  0  0  0  0  0
   36.2300   28.0730   34.4930 O   0  0  0  0  0  0  0  0  0  0  0  0
   36.1710   28.9990   31.3790 H   0  0  0  0  0  0  0  0  0  0  0  0
   38.0300   27.1900   32.0070 H   0  0  0  0  0  0  0  0  0  0  0  0
   37.9830   26.4290   34.8740 C   0  0  0  0  0  2  0  0  0  0  0  0
   38.5700   27.1340   36.0440 C   0  0  0  0  0  2  0  0  0  0  0  0
   38.0920   28.0660   36.3500 H   0  0  0  0  0  0  0  0  0  0  0  0
  1  3  1  0  0  0  0
  2  1  2  0  0  0  0
  3  4  2  0  0  0  0
  3  8  1  0  0  0  0
  4  5  1  0  0  0  0
  5 10  1  0  0  0  0
  5  6  2  0  0  0  0
  7  6  1  0  0  0  0
  7 11  1  0  0  0  0
  8  7  2  0  0  0  0
  9  4  1  0  0  0  0
 12  1  1  0  0  0  0
 12 16  1  0  0  0  0
 13 14  1  0  0  0  0
 13 12  2  0  0  0  0
 14 15  2  0  0  0  0
 15 16  1  0  0  0  0
 15 19  1  0  0  0  0
 17 13  1  0  0  0  0
 18 14  1  0  0  0  0
 19 20  1  0  0  0  0
 20 21  1  0  0  0  0
M  END
>  <minimizedAffinity>
-4.07733774

$$$$

 OpenBabel03272507113D

 21 22  0  0  0  0  0  0  0  0999 V2000
   38.2860   23.7340   34.4750 C   0  0  0  0  0  0  0  0  0  0  0  0
   38.5070   24.8000   33.8570 O   0  0  0  0  0  0  0  0  0  0  0  0
   38.5100   23.5740   35.9020 C   0  0  0  0  0  0  0  0  0  0  0  0
   39.6540   22.8860   36.2860 C   0  0  0  0  0  0  0  0  0  0  0  0
   39.8950   22.7170   37.6520 C   0  0  0  0  0  0  0  0  0  0  0  0
   38.9820   23.2440   38.5300 N   0  0  0  0  0  0  0  0  0  0  0  0
   37.8870   23.9030   38.1260 C   0  0  0  0  0  0  0  0  0  0  0  0
   37.6470   24.0700   36.8080 N   0  0  0  0  0  0  0  0  0  0  0  0
   40.3440   22.4890   35.5660 H   0  0  0  0  0  0  0  0  0  0  0  0
   40.7660   22.1930   37.9800 H   0  0  0  0  0  0  0  0  0  0  0  0
   37.2210   24.2850   38.8820 H   0  0  0  0  0  0  0  0  0  0  0  0
   37.7790   22.5880   33.7380 C   0  0  0  0  0  0  0  0  0  0  0  0
   38.2910   22.2190   32.5350 C   0  0  0  0  0  0  0  0  0  0  0  0
   37.5640   21.0890   32.1310 C   0  0  0  0  0  0  0  0  0  0  0  0
   36.6460   20.8490   33.1370 C   0  0  0  0  0  0  0  0  0  0  0  0
   36.8100   21.7540   34.0590 O   0  0  0  0  0  0  0  0  0  0  0  0
   39.0990   22.6540   31.9350 H   0  0  0  0  0  0  0  0  0  0  0  0
   37.6660   20.5090   31.2450 H   0  0  0  0  0  0  0  0  0  0  0  0
   35.6140   19.7900   33.2620 C   0  0  0  0  0  2  0  0  0  0  0  0
   34.7320   19.7410   32.0650 C   0  0  0  0  0  2  0  0  0  0  0  0
   35.1320   20.1590   31.1400 H   0  0  0  0  0  0  0  0  0  0  0  0
  1  3  1  0  0  0  0
  2  1  2  0  0  0  0
  3  4  2  0  0  0  0
  3  8  1  0  0  0  0
  4  5  1  0  0  0  0
  5 10  1  0  0  0  0
  5  6  2  0  0  0  0
  7  6  1  0  0  0  0
  7 11  1  0  0  0  0
  8  7  2  0  0  0  0
  9  4  1  0  0  0  0
 12 16  1  0  0  0  0
 12  1  1  0  0  0  0
 13 12  2  0  0  0  0
 14 13  1  0  0  0  0
 14 15  2  0  0  0  0
 15 19  1  0  0  0  0
 15 16  1  0  0  0  0
 17 13  1  0  0  0  0
 18 14  1  0  0  0  0
 20 19  1  0  0  0  0
 21 20  1  0  0  0  0
M  END
>  <minimizedAffinity>
-4.02284765

$$$$

 OpenBabel03272507113D

 21 22  0  0  0  0  0  0  0  0999 V2000
   36.3130   28.5740   33.5040 C   0  0  0  0  0  0  0  0  0  0  0  0
   36.3140   28.7110   32.2600 O   0  0  0  0  0  0  0  0  0  0  0  0
   37.0460   27.5260   34.1960 C   0  0  0  0  0  0  0  0  0  0  0  0
   37.6680   27.8760   35.3870 C   0  0  0  0  0  0  0  0  0  0  0  0
   38.3800   26.8890   36.0740 C   0  0  0  0  0  0  0  0  0  0  0  0
   38.4180   25.6320   35.5250 N   0  0  0  0  0  0  0  0  0  0  0  0
   37.8060   25.3280   34.3710 C   0  0  0  0  0  0  0  0  0  0  0  0
   37.1160   26.2760   33.7020 N   0  0  0  0  0  0  0  0  0  0  0  0
   37.6130   28.8730   35.7820 H   0  0  0  0  0  0  0  0  0  0  0  0
   38.8700   27.1260   36.9930 H   0  0  0  0  0  0  0  0  0  0  0  0
   37.8860   24.3160   34.0110 H   0  0  0  0  0  0  0  0  0  0  0  0
   35.5420   29.5050   34.3110 C   0  0  0  0  0  0  0  0  0  0  0  0
   34.1870   29.4460   34.3850 C   0  0  0  0  0  0  0  0  0  0  0  0
   33.7970   30.4850   35.2430 C   0  0  0  0  0  0  0  0  0  0  0  0
   34.9650   31.1120   35.6360 C   0  0  0  0  0  0  0  0  0  0  0  0
   35.9630   30.5020   35.0640 O   0  0  0  0  0  0  0  0  0  0  0  0
   33.4710   28.7660   33.9090 H   0  0  0  0  0  0  0  0  0  0  0  0
   32.8180   30.7660   35.5520 H   0  0  0  0  0  0  0  0  0  0  0  0
   35.1760   32.2710   36.5370 C   0  0  0  0  0  2  0  0  0  0  0  0
   33.9210   32.6570   37.2360 C   0  0  0  0  0  2  0  0  0  0  0  0
   33.1500   31.8910   37.3260 H   0  0  0  0  0  0  0  0  0  0  0  0
  1  3  1  0  0  0  0
  1 12  1  0  0  0  0
  2  1  2  0  0  0  0
  3  4  1  0  0  0  0
  4  9  1  0  0  0  0
  4  5  2  0  0  0  0
  5 10  1  0  0  0  0
  6  5  1  0  0  0  0
  7  6  2  0  0  0  0
  8  3  2  0  0  0  0
  8  7  1  0  0  0  0
 11  7  1  0  0  0  0
 12 13  2  0  0  0  0
 12 16  1  0  0  0  0
 13 14  1  0  0  0  0
 14 18  1  0  0  0  0
 14 15  2  0  0  0  0
 15 19  1  0  0  0  0
 16 15  1  0  0  0  0
 17 13  1  0  0  0  0
 19 20  1  0  0  0  0
 20 21  1  0  0  0  0
M  END
>  <minimizedAffinity>
-4.00316191

$$$$
