
     RDKit          3D

 28 29  0  0  0  0  0  0  0  0999 V2000
   34.9362   28.7750   48.6901 C   0  0  0  0  0  0  0  0  0  0  0  0
   34.5972   27.8540   49.4949 O   0  0  0  0  0  0  0  0  0  0  0  0
   33.0101   30.5782   46.1933 C   0  0  0  0  0  0  0  0  0  0  0  0
   32.8222   29.6479   45.1756 C   0  0  0  0  0  0  0  0  0  0  0  0
   33.3581   28.3876   45.3493 C   0  0  0  0  0  0  0  0  0  0  0  0
   34.0447   28.0887   46.4886 N   0  0  0  0  0  0  0  0  0  0  0  0
   34.2099   28.9961   47.4457 C   0  0  0  0  0  0  0  0  0  0  0  0
   33.6907   30.2164   47.2767 N   0  0  0  0  0  0  0  0  0  0  0  0
   36.0894   29.5582   49.1318 C   0  0  0  0  0  0  0  0  0  0  0  0
   36.2818   29.7026   50.5203 C   0  0  0  0  0  0  0  0  0  0  0  0
   37.3390   30.4423   51.0587 C   0  0  0  0  0  0  0  0  0  0  0  0
   38.2395   31.0626   50.1676 C   0  0  0  0  0  0  0  0  0  0  0  0
   38.0291   30.9051   48.7967 C   0  0  0  0  0  0  0  0  0  0  0  0
   36.9800   30.1702   48.2856 C   0  0  0  0  0  0  0  0  0  0  0  0
   32.6164   31.6025   46.1401 H   0  0  0  0  0  0  0  0  0  0  0  0
   32.2682   30.0075   44.3370 H   0  0  0  0  0  0  0  0  0  0  0  0
   33.1998   27.6796   44.5477 H   0  0  0  0  0  0  0  0  0  0  0  0
   35.5876   29.2225   51.2066 H   0  0  0  0  0  0  0  0  0  0  0  0
   37.4879   30.5543   52.1034 H   0  0  0  0  0  0  0  0  0  0  0  0
   39.0652   31.6419   50.5355 H   0  0  0  0  0  0  0  0  0  0  0  0
   38.7634   31.4143   48.1667 H   0  0  0  0  0  0  0  0  0  0  0  0
   36.8723   30.0465   46.8192 C   0  0  0  0  0  0  0  0  0  0  0  0
   35.6221   30.8109   46.3342 C   0  0  0  0  0  0  0  0  0  0  0  0
   34.7506   30.1275   46.4290 H   0  0  0  0  0  0  0  0  0  0  0  0
   36.7118   29.0157   46.4509 H   0  0  0  0  0  0  0  0  0  0  0  0
   37.7056   30.5779   46.2928 H   0  0  0  0  0  0  0  0  0  0  0  0
   35.7403   31.1119   45.2787 H   0  0  0  0  0  0  0  0  0  0  0  0
   35.5552   31.7026   46.9900 H   0  0  0  0  0  0  0  0  0  0  0  0
  1  9  1  0
  1  2  2  0
  3  8  2  0
  4  5  2  0
  4  3  1  0
  5  6  1  0
  6  7  2  0
  7  1  1  0
  8  7  1  0
  9 10  2  0
 10 11  1  0
 12 11  2  0
 13 12  1  0
 14 13  2  0
 14  9  1  0
  3 15  1  0
  4 16  1  0
  5 17  1  0
 10 18  1  0
 11 19  1  0
 12 20  1  0
 13 21  1  0
 22 23  1  0
 23 24  1  0
 22 25  1  0
 22 26  1  0
 23 27  1  0
 23 28  1  0
 14 22  1  0
M  ISO  8  15  14  16  14  17  14  18  14  19  14  20  14  21  14  24   8
M  END
>  <DihAtoms>  (1) 
12,13,21,22

>  <DihDeg>  (1) 
22.87134185296133

$$$$
