
 OpenBabel03272509393D

 24 25  0  0  0  0  0  0  0  0999 V2000
   38.7700   27.1490   33.1530 C   0  0  0  0  0  0  0  0  0  0  0  0
   39.8240   27.2520   32.2240 C   0  0  0  0  0  0  0  0  0  0  0  0
   41.1680   27.1580   32.5980 C   0  0  0  0  0  0  0  0  0  0  0  0
   41.4660   26.9500   33.9610 C   0  0  0  0  0  0  0  0  0  0  0  0
   40.4060   26.8520   34.8630 C   0  0  0  0  0  0  0  0  0  0  0  0
   39.0870   26.9490   34.4730 C   0  0  0  0  0  0  0  0  0  0  0  0
   39.5940   27.4140   31.1730 H   0  0  0  0  0  0  0  0  0  0  0  0
   41.9650   27.2350   31.9020 H   0  0  0  0  0  0  0  0  0  0  0  0
   42.4830   26.8700   34.2950 H   0  0  0  0  0  0  0  0  0  0  0  0
   40.7100   26.6890   35.9000 H   0  0  0  0  0  0  0  0  0  0  0  0
   37.4050   27.2460   32.6370 C   0  0  0  0  0  0  0  0  0  0  0  0
   36.9080   28.4110   32.7070 O   0  0  0  0  0  0  0  0  0  0  0  0
   36.4920   23.7910   31.9820 C   0  0  0  0  0  0  0  0  0  0  0  0
   35.3650   23.8880   31.1720 C   0  0  0  0  0  0  0  0  0  0  0  0
   34.9150   25.1510   30.8440 C   0  0  0  0  0  0  0  0  0  0  0  0
   35.5710   26.2520   31.3110 N   0  0  0  0  0  0  0  0  0  0  0  0
   36.6460   26.1320   32.0820 C   0  0  0  0  0  0  0  0  0  0  0  0
   37.0810   24.9090   32.4000 N   0  0  0  0  0  0  0  0  0  0  0  0
   36.9200   22.8280   32.2890 H   0  0  0  0  0  0  0  0  0  0  0  0
   34.9450   22.9520   30.8760 H   0  0  0  0  0  0  0  0  0  0  0  0
   34.0390   25.2050   30.2140 H   0  0  0  0  0  0  0  0  0  0  0  0
   38.0480   26.8580   35.5180 C   0  0  0  0  0  2  0  0  0  0  0  0
   38.1120   25.4650   36.1810 C   0  0  0  0  0  2  0  0  0  0  0  0
   37.5110   24.7680   35.5600 H   0  0  0  0  0  0  0  0  0  0  0  0
  1  6  1  0  0  0  0
  2  3  1  0  0  0  0
  2  1  2  0  0  0  0
  3  4  2  0  0  0  0
  4  9  1  0  0  0  0
  4  5  1  0  0  0  0
  5 10  1  0  0  0  0
  6  5  2  0  0  0  0
  6 22  1  0  0  0  0
  7  2  1  0  0  0  0
  8  3  1  0  0  0  0
 11 12  2  0  0  0  0
 11  1  1  0  0  0  0
 13 19  1  0  0  0  0
 13 18  1  0  0  0  0
 14 13  2  0  0  0  0
 15 14  1  0  0  0  0
 15 16  2  0  0  0  0
 16 17  1  0  0  0  0
 17 18  2  0  0  0  0
 17 11  1  0  0  0  0
 20 14  1  0  0  0  0
 21 15  1  0  0  0  0
 22 23  1  0  0  0  0
 24 23  1  0  0  0  0
M  END
>  <minimizedAffinity>
-4.64049721

$$$$

 OpenBabel03272509393D

 24 25  0  0  0  0  0  0  0  0999 V2000
   38.9670   24.3970   35.7830 C   0  0  0  0  0  0  0  0  0  0  0  0
   38.1290   25.3660   36.3710 C   0  0  0  0  0  0  0  0  0  0  0  0
   38.2950   26.7360   36.1520 C   0  0  0  0  0  0  0  0  0  0  0  0
   39.3450   27.1530   35.3060 C   0  0  0  0  0  0  0  0  0  0  0  0
   40.1620   26.1760   34.7350 C   0  0  0  0  0  0  0  0  0  0  0  0
   39.9820   24.8280   34.9650 C   0  0  0  0  0  0  0  0  0  0  0  0
   37.3200   25.0440   37.0240 H   0  0  0  0  0  0  0  0  0  0  0  0
   37.6670   27.4690   36.5920 H   0  0  0  0  0  0  0  0  0  0  0  0
   39.5100   28.1940   35.1070 H   0  0  0  0  0  0  0  0  0  0  0  0
   40.9520   26.5700   34.0910 H   0  0  0  0  0  0  0  0  0  0  0  0
   38.6810   22.9930   36.0740 C   0  0  0  0  0  0  0  0  0  0  0  0
   39.3840   22.5060   37.0110 O   0  0  0  0  0  0  0  0  0  0  0  0
   35.7640   20.8700   35.6550 C   0  0  0  0  0  0  0  0  0  0  0  0
   35.7050   20.6440   34.2840 C   0  0  0  0  0  0  0  0  0  0  0  0
   36.6780   21.2220   33.4940 C   0  0  0  0  0  0  0  0  0  0  0  0
   37.6550   21.9860   34.0630 N   0  0  0  0  0  0  0  0  0  0  0  0
   37.6880   22.1860   35.3770 C   0  0  0  0  0  0  0  0  0  0  0  0
   36.7450   21.6260   36.1400 N   0  0  0  0  0  0  0  0  0  0  0  0
   35.0330   20.4470   36.3570 H   0  0  0  0  0  0  0  0  0  0  0  0
   34.8910   20.0300   33.9660 H   0  0  0  0  0  0  0  0  0  0  0  0
   36.6150   21.0340   32.4320 H   0  0  0  0  0  0  0  0  0  0  0  0
   40.9250   23.8860   34.3310 C   0  0  0  0  0  2  0  0  0  0  0  0
   42.2310   23.8440   35.1520 C   0  0  0  0  0  2  0  0  0  0  0  0
   42.8750   24.6800   34.8060 H   0  0  0  0  0  0  0  0  0  0  0  0
  1 11  1  0  0  0  0
  1  2  1  0  0  0  0
  2  7  1  0  0  0  0
  3  2  2  0  0  0  0
  3  8  1  0  0  0  0
  4  3  1  0  0  0  0
  5  6  1  0  0  0  0
  5  4  2  0  0  0  0
  6  1  2  0  0  0  0
  9  4  1  0  0  0  0
 10  5  1  0  0  0  0
 11 12  2  0  0  0  0
 13 18  1  0  0  0  0
 13 19  1  0  0  0  0
 14 13  2  0  0  0  0
 15 16  2  0  0  0  0
 15 14  1  0  0  0  0
 16 17  1  0  0  0  0
 17 11  1  0  0  0  0
 17 18  2  0  0  0  0
 20 14  1  0  0  0  0
 21 15  1  0  0  0  0
 22  6  1  0  0  0  0
 22 23  1  0  0  0  0
 24 23  1  0  0  0  0
M  END
>  <minimizedAffinity>
-4.61580992

$$$$

 OpenBabel03272509393D

 24 25  0  0  0  0  0  0  0  0999 V2000
   38.6130   24.4140   34.9540 C   0  0  0  0  0  0  0  0  0  0  0  0
   39.1870   25.3590   34.0800 C   0  0  0  0  0  0  0  0  0  0  0  0
   39.3120   26.7110   34.4120 C   0  0  0  0  0  0  0  0  0  0  0  0
   38.8440   27.1330   35.6740 C   0  0  0  0  0  0  0  0  0  0  0  0
   38.2780   26.1800   36.5230 C   0  0  0  0  0  0  0  0  0  0  0  0
   38.1630   24.8500   36.1750 C   0  0  0  0  0  0  0  0  0  0  0  0
   39.5470   25.0340   33.1060 H   0  0  0  0  0  0  0  0  0  0  0  0
   39.7430   27.4260   33.7580 H   0  0  0  0  0  0  0  0  0  0  0  0
   38.9200   28.1610   35.9740 H   0  0  0  0  0  0  0  0  0  0  0  0
   37.9390   26.5760   37.4830 H   0  0  0  0  0  0  0  0  0  0  0  0
   38.5540   23.0260   34.5000 C   0  0  0  0  0  0  0  0  0  0  0  0
   39.5680   22.3330   34.8220 O   0  0  0  0  0  0  0  0  0  0  0  0
   35.7840   20.7920   33.7700 C   0  0  0  0  0  0  0  0  0  0  0  0
   35.3340   21.2100   32.5210 C   0  0  0  0  0  0  0  0  0  0  0  0
   35.9900   22.2660   31.9220 C   0  0  0  0  0  0  0  0  0  0  0  0
   37.0410   22.8640   32.5520 N   0  0  0  0  0  0  0  0  0  0  0  0
   37.4510   22.4450   33.7450 C   0  0  0  0  0  0  0  0  0  0  0  0
   36.8160   21.4230   34.3250 N   0  0  0  0  0  0  0  0  0  0  0  0
   35.3240   19.9590   34.3170 H   0  0  0  0  0  0  0  0  0  0  0  0
   34.5030   20.6600   32.1380 H   0  0  0  0  0  0  0  0  0  0  0  0
   35.6260   22.5750   30.9520 H   0  0  0  0  0  0  0  0  0  0  0  0
   37.5220   23.9360   37.1410 C   0  0  0  0  0  2  0  0  0  0  0  0
   38.5300   23.5850   38.2560 C   0  0  0  0  0  2  0  0  0  0  0  0
   39.1460   22.7330   37.8980 H   0  0  0  0  0  0  0  0  0  0  0  0
  1  6  1  0  0  0  0
  2  3  1  0  0  0  0
  2  1  2  0  0  0  0
  3  4  2  0  0  0  0
  4  9  1  0  0  0  0
  4  5  1  0  0  0  0
  5 10  1  0  0  0  0
  6  5  2  0  0  0  0
  6 22  1  0  0  0  0
  7  2  1  0  0  0  0
  8  3  1  0  0  0  0
 11 12  2  0  0  0  0
 11  1  1  0  0  0  0
 13 19  1  0  0  0  0
 13 18  1  0  0  0  0
 14 13  2  0  0  0  0
 15 14  1  0  0  0  0
 15 16  2  0  0  0  0
 16 17  1  0  0  0  0
 17 18  2  0  0  0  0
 17 11  1  0  0  0  0
 20 14  1  0  0  0  0
 21 15  1  0  0  0  0
 22 23  1  0  0  0  0
 24 23  1  0  0  0  0
M  END
>  <minimizedAffinity>
-4.61213541

$$$$

 OpenBabel03272509393D

 24 25  0  0  0  0  0  0  0  0999 V2000
   39.2740   24.4540   35.3260 C   0  0  0  0  0  0  0  0  0  0  0  0
   40.0340   25.3460   34.5440 C   0  0  0  0  0  0  0  0  0  0  0  0
   39.9090   26.7340   34.6520 C   0  0  0  0  0  0  0  0  0  0  0  0
   38.9850   27.2480   35.5850 C   0  0  0  0  0  0  0  0  0  0  0  0
   38.2420   26.3460   36.3480 C   0  0  0  0  0  0  0  0  0  0  0  0
   38.3800   24.9790   36.2250 C   0  0  0  0  0  0  0  0  0  0  0  0
   40.7460   24.9490   33.8240 H   0  0  0  0  0  0  0  0  0  0  0  0
   40.4790   27.4090   34.0660 H   0  0  0  0  0  0  0  0  0  0  0  0
   38.8550   28.3070   35.7050 H   0  0  0  0  0  0  0  0  0  0  0  0
   37.5480   26.8140   37.0510 H   0  0  0  0  0  0  0  0  0  0  0  0
   39.5070   23.0230   35.1340 C   0  0  0  0  0  0  0  0  0  0  0  0
   38.6800   22.4650   34.3500 O   0  0  0  0  0  0  0  0  0  0  0  0
   42.6090   21.1480   35.3780 C   0  0  0  0  0  0  0  0  0  0  0  0
   42.7110   20.8390   36.7300 C   0  0  0  0  0  0  0  0  0  0  0  0
   41.7040   21.2750   37.5680 C   0  0  0  0  0  0  0  0  0  0  0  0
   40.6540   21.9840   37.0610 N   0  0  0  0  0  0  0  0  0  0  0  0
   40.5800   22.2650   35.7650 C   0  0  0  0  0  0  0  0  0  0  0  0
   41.5560   21.8430   34.9550 N   0  0  0  0  0  0  0  0  0  0  0  0
   43.3630   20.8390   34.6410 H   0  0  0  0  0  0  0  0  0  0  0  0
   43.5820   20.2810   36.9980 H   0  0  0  0  0  0  0  0  0  0  0  0
   41.8020   21.0240   38.6140 H   0  0  0  0  0  0  0  0  0  0  0  0
   37.5220   24.1190   37.0630 C   0  0  0  0  0  2  0  0  0  0  0  0
   38.0270   24.1640   38.5210 C   0  0  0  0  0  2  0  0  0  0  0  0
   38.8360   23.4090   38.6220 H   0  0  0  0  0  0  0  0  0  0  0  0
  1  6  1  0  0  0  0
  2  3  1  0  0  0  0
  2  1  2  0  0  0  0
  3  4  2  0  0  0  0
  4  9  1  0  0  0  0
  4  5  1  0  0  0  0
  5 10  1  0  0  0  0
  6  5  2  0  0  0  0
  6 22  1  0  0  0  0
  7  2  1  0  0  0  0
  8  3  1  0  0  0  0
 11  1  1  0  0  0  0
 11 17  1  0  0  0  0
 12 11  2  0  0  0  0
 13 14  1  0  0  0  0
 14 20  1  0  0  0  0
 14 15  2  0  0  0  0
 15 21  1  0  0  0  0
 16 15  1  0  0  0  0
 17 16  2  0  0  0  0
 18 13  2  0  0  0  0
 18 17  1  0  0  0  0
 19 13  1  0  0  0  0
 22 23  1  0  0  0  0
 23 24  1  0  0  0  0
M  END
>  <minimizedAffinity>
-4.59189081

$$$$

 OpenBabel03272509393D

 24 25  0  0  0  0  0  0  0  0999 V2000
   38.7750   23.7410   36.0620 C   0  0  0  0  0  0  0  0  0  0  0  0
   37.8640   24.4620   36.8600 C   0  0  0  0  0  0  0  0  0  0  0  0
   37.8740   24.3990   38.2560 C   0  0  0  0  0  0  0  0  0  0  0  0
   38.8400   23.5810   38.8780 C   0  0  0  0  0  0  0  0  0  0  0  0
   39.7320   22.8760   38.0680 C   0  0  0  0  0  0  0  0  0  0  0  0
   39.7030   22.9500   36.6920 C   0  0  0  0  0  0  0  0  0  0  0  0
   37.1180   25.0920   36.3790 H   0  0  0  0  0  0  0  0  0  0  0  0
   37.1910   24.9400   38.8600 H   0  0  0  0  0  0  0  0  0  0  0  0
   38.8880   23.5030   39.9480 H   0  0  0  0  0  0  0  0  0  0  0  0
   40.4530   22.2640   38.6170 H   0  0  0  0  0  0  0  0  0  0  0  0
   38.6750   23.9030   34.6120 C   0  0  0  0  0  0  0  0  0  0  0  0
   39.4370   24.8010   34.1380 O   0  0  0  0  0  0  0  0  0  0  0  0
   36.5670   23.1620   31.7490 C   0  0  0  0  0  0  0  0  0  0  0  0
   36.1500   21.8530   31.9660 C   0  0  0  0  0  0  0  0  0  0  0  0
   36.5940   21.2180   33.1090 C   0  0  0  0  0  0  0  0  0  0  0  0
   37.4120   21.8740   33.9800 N   0  0  0  0  0  0  0  0  0  0  0  0
   37.7960   23.1250   33.7490 C   0  0  0  0  0  0  0  0  0  0  0  0
   37.3660   23.7390   32.6420 N   0  0  0  0  0  0  0  0  0  0  0  0
   36.2600   23.7420   30.8680 H   0  0  0  0  0  0  0  0  0  0  0  0
   35.5120   21.4540   31.2090 H   0  0  0  0  0  0  0  0  0  0  0  0
   36.2580   20.2020   33.2600 H   0  0  0  0  0  0  0  0  0  0  0  0
   40.6770   22.1390   35.9350 C   0  0  0  0  0  2  0  0  0  0  0  0
   41.6280   21.4320   36.9240 C   0  0  0  0  0  2  0  0  0  0  0  0
   42.4480   22.1400   37.1680 H   0  0  0  0  0  0  0  0  0  0  0  0
  1  6  2  0  0  0  0
  1  2  1  0  0  0  0
  2  3  2  0  0  0  0
  3  8  1  0  0  0  0
  3  4  1  0  0  0  0
  4  9  1  0  0  0  0
  5 10  1  0  0  0  0
  5  4  2  0  0  0  0
  6  5  1  0  0  0  0
  7  2  1  0  0  0  0
 11  1  1  0  0  0  0
 12 11  2  0  0  0  0
 13 14  2  0  0  0  0
 13 18  1  0  0  0  0
 14 15  1  0  0  0  0
 15 21  1  0  0  0  0
 15 16  2  0  0  0  0
 17 16  1  0  0  0  0
 17 11  1  0  0  0  0
 18 17  2  0  0  0  0
 19 13  1  0  0  0  0
 20 14  1  0  0  0  0
 22  6  1  0  0  0  0
 22 23  1  0  0  0  0
 23 24  1  0  0  0  0
M  END
>  <minimizedAffinity>
-4.52356339

$$$$

 OpenBabel03272509393D

 24 25  0  0  0  0  0  0  0  0999 V2000
   39.4070   22.9370   35.3790 C   0  0  0  0  0  0  0  0  0  0  0  0
   40.5680   22.1730   35.1480 C   0  0  0  0  0  0  0  0  0  0  0  0
   41.3760   21.7020   36.1870 C   0  0  0  0  0  0  0  0  0  0  0  0
   41.0030   22.0080   37.5120 C   0  0  0  0  0  0  0  0  0  0  0  0
   39.8490   22.7670   37.7170 C   0  0  0  0  0  0  0  0  0  0  0  0
   39.0660   23.2230   36.6770 C   0  0  0  0  0  0  0  0  0  0  0  0
   40.8570   21.9380   34.1260 H   0  0  0  0  0  0  0  0  0  0  0  0
   42.2510   21.1270   36.0180 H   0  0  0  0  0  0  0  0  0  0  0  0
   41.5910   21.6670   38.3420 H   0  0  0  0  0  0  0  0  0  0  0  0
   39.6190   22.9640   38.7670 H   0  0  0  0  0  0  0  0  0  0  0  0
   38.6340   23.3580   34.2110 C   0  0  0  0  0  0  0  0  0  0  0  0
   39.0120   24.4610   33.7100 O   0  0  0  0  0  0  0  0  0  0  0  0
   36.0160   22.5100   31.8390 C   0  0  0  0  0  0  0  0  0  0  0  0
   35.4440   21.3570   32.3670 C   0  0  0  0  0  0  0  0  0  0  0  0
   35.9580   20.8670   33.5500 C   0  0  0  0  0  0  0  0  0  0  0  0
   36.9930   21.5100   34.1630 N   0  0  0  0  0  0  0  0  0  0  0  0
   37.5220   22.6100   33.6380 C   0  0  0  0  0  0  0  0  0  0  0  0
   37.0240   23.0830   32.4920 N   0  0  0  0  0  0  0  0  0  0  0  0
   35.6690   22.9700   30.9040 H   0  0  0  0  0  0  0  0  0  0  0  0
   34.6420   20.9510   31.7900 H   0  0  0  0  0  0  0  0  0  0  0  0
   35.4980   19.9720   33.9440 H   0  0  0  0  0  0  0  0  0  0  0  0
   37.8830   24.0420   37.0100 C   0  0  0  0  0  2  0  0  0  0  0  0
   37.9150   24.3940   38.5120 C   0  0  0  0  0  2  0  0  0  0  0  0
   37.4540   23.5500   39.0670 H   0  0  0  0  0  0  0  0  0  0  0  0
  1  6  1  0  0  0  0
  2  1  2  0  0  0  0
  2  3  1  0  0  0  0
  3  4  2  0  0  0  0
  4  5  1  0  0  0  0
  4  9  1  0  0  0  0
  5 10  1  0  0  0  0
  6 22  1  0  0  0  0
  6  5  2  0  0  0  0
  7  2  1  0  0  0  0
  8  3  1  0  0  0  0
 11  1  1  0  0  0  0
 12 11  2  0  0  0  0
 13 14  2  0  0  0  0
 13 18  1  0  0  0  0
 14 15  1  0  0  0  0
 15 21  1  0  0  0  0
 15 16  2  0  0  0  0
 17 16  1  0  0  0  0
 17 11  1  0  0  0  0
 18 17  2  0  0  0  0
 19 13  1  0  0  0  0
 20 14  1  0  0  0  0
 22 23  1  0  0  0  0
 23 24  1  0  0  0  0
M  END
>  <minimizedAffinity>
-4.49721384

$$$$

 OpenBabel03272509393D

 24 25  0  0  0  0  0  0  0  0999 V2000
   38.9010   24.2970   35.9980 C   0  0  0  0  0  0  0  0  0  0  0  0
   37.9600   24.7550   36.9410 C   0  0  0  0  0  0  0  0  0  0  0  0
   37.9180   24.2770   38.2540 C   0  0  0  0  0  0  0  0  0  0  0  0
   38.8600   23.3000   38.6370 C   0  0  0  0  0  0  0  0  0  0  0  0
   39.7830   22.8600   37.6850 C   0  0  0  0  0  0  0  0  0  0  0  0
   39.8060   23.3440   36.3940 C   0  0  0  0  0  0  0  0  0  0  0  0
   37.2330   25.5080   36.6450 H   0  0  0  0  0  0  0  0  0  0  0  0
   37.2120   24.6190   38.9670 H   0  0  0  0  0  0  0  0  0  0  0  0
   38.8680   22.9040   39.6340 H   0  0  0  0  0  0  0  0  0  0  0  0
   40.4820   22.1050   38.0510 H   0  0  0  0  0  0  0  0  0  0  0  0
   38.8570   24.8870   34.6600 C   0  0  0  0  0  0  0  0  0  0  0  0
   39.7100   25.8070   34.4720 O   0  0  0  0  0  0  0  0  0  0  0  0
   36.9890   22.6460   32.4960 C   0  0  0  0  0  0  0  0  0  0  0  0
   36.2370   23.4990   31.6950 C   0  0  0  0  0  0  0  0  0  0  0  0
   36.3740   24.8580   31.8970 C   0  0  0  0  0  0  0  0  0  0  0  0
   37.2250   25.3230   32.8560 N   0  0  0  0  0  0  0  0  0  0  0  0
   37.9330   24.4860   33.6070 C   0  0  0  0  0  0  0  0  0  0  0  0
   37.7990   23.1710   33.4110 N   0  0  0  0  0  0  0  0  0  0  0  0
   36.9440   21.5520   32.4020 H   0  0  0  0  0  0  0  0  0  0  0  0
   35.6090   23.0090   30.9850 H   0  0  0  0  0  0  0  0  0  0  0  0
   35.7820   25.5040   31.2640 H   0  0  0  0  0  0  0  0  0  0  0  0
   40.8080   22.7860   35.4650 C   0  0  0  0  0  2  0  0  0  0  0  0
   42.2170   23.2350   35.9050 C   0  0  0  0  0  2  0  0  0  0  0  0
   42.4060   24.2380   35.4650 H   0  0  0  0  0  0  0  0  0  0  0  0
  1  6  2  0  0  0  0
  1  2  1  0  0  0  0
  2  3  2  0  0  0  0
  3  4  1  0  0  0  0
  3  8  1  0  0  0  0
  4  9  1  0  0  0  0
  5 10  1  0  0  0  0
  5  4  2  0  0  0  0
  6  5  1  0  0  0  0
  7  2  1  0  0  0  0
 11  1  1  0  0  0  0
 12 11  2  0  0  0  0
 13 18  1  0  0  0  0
 14 15  1  0  0  0  0
 14 13  2  0  0  0  0
 15 16  2  0  0  0  0
 16 17  1  0  0  0  0
 17 11  1  0  0  0  0
 18 17  2  0  0  0  0
 19 13  1  0  0  0  0
 20 14  1  0  0  0  0
 21 15  1  0  0  0  0
 22 23  1  0  0  0  0
 22  6  1  0  0  0  0
 24 23  1  0  0  0  0
M  END
>  <minimizedAffinity>
-4.4825592

$$$$

 OpenBabel03272509393D

 24 25  0  0  0  0  0  0  0  0999 V2000
   38.7350   23.9560   35.4650 C   0  0  0  0  0  0  0  0  0  0  0  0
   39.3200   22.8520   36.1160 C   0  0  0  0  0  0  0  0  0  0  0  0
   39.3020   22.7040   37.5060 C   0  0  0  0  0  0  0  0  0  0  0  0
   38.6680   23.7030   38.2740 C   0  0  0  0  0  0  0  0  0  0  0  0
   38.0960   24.7870   37.6070 C   0  0  0  0  0  0  0  0  0  0  0  0
   38.1270   24.9160   36.2340 C   0  0  0  0  0  0  0  0  0  0  0  0
   39.8100   22.0820   35.5240 H   0  0  0  0  0  0  0  0  0  0  0  0
   39.7410   21.8750   38.0010 H   0  0  0  0  0  0  0  0  0  0  0  0
   38.6280   23.6310   39.3440 H   0  0  0  0  0  0  0  0  0  0  0  0
   37.6220   25.5210   38.2640 H   0  0  0  0  0  0  0  0  0  0  0  0
   38.8030   23.9900   34.0040 C   0  0  0  0  0  0  0  0  0  0  0  0
   39.9140   24.4020   33.5480 O   0  0  0  0  0  0  0  0  0  0  0  0
   36.1670   24.3800   31.5360 C   0  0  0  0  0  0  0  0  0  0  0  0
   35.6800   23.0890   31.3560 C   0  0  0  0  0  0  0  0  0  0  0  0
   36.2590   22.0750   32.0920 C   0  0  0  0  0  0  0  0  0  0  0  0
   37.2730   22.3540   32.9600 N   0  0  0  0  0  0  0  0  0  0  0  0
   37.7200   23.5960   33.1130 C   0  0  0  0  0  0  0  0  0  0  0  0
   37.1590   24.5780   32.4000 N   0  0  0  0  0  0  0  0  0  0  0  0
   35.7640   25.2460   30.9950 H   0  0  0  0  0  0  0  0  0  0  0  0
   34.8850   23.0060   30.6480 H   0  0  0  0  0  0  0  0  0  0  0  0
   35.8650   21.0800   31.9380 H   0  0  0  0  0  0  0  0  0  0  0  0
   37.5140   26.1190   35.6380 C   0  0  0  0  0  2  0  0  0  0  0  0
   38.4870   27.3090   35.7790 C   0  0  0  0  0  2  0  0  0  0  0  0
   38.3290   27.7570   36.7830 H   0  0  0  0  0  0  0  0  0  0  0  0
  1  2  2  0  0  0  0
  1  6  1  0  0  0  0
  2  3  1  0  0  0  0
  3  8  1  0  0  0  0
  3  4  2  0  0  0  0
  4  9  1  0  0  0  0
  5 10  1  0  0  0  0
  5  4  1  0  0  0  0
  6  5  2  0  0  0  0
  7  2  1  0  0  0  0
 11  1  1  0  0  0  0
 12 11  2  0  0  0  0
 13 18  1  0  0  0  0
 14 13  2  0  0  0  0
 14 15  1  0  0  0  0
 15 16  2  0  0  0  0
 16 17  1  0  0  0  0
 17 11  1  0  0  0  0
 18 17  2  0  0  0  0
 19 13  1  0  0  0  0
 20 14  1  0  0  0  0
 21 15  1  0  0  0  0
 22 23  1  0  0  0  0
 22  6  1  0  0  0  0
 23 24  1  0  0  0  0
M  END
>  <minimizedAffinity>
-4.47565079

$$$$

 OpenBabel03272509393D

 24 25  0  0  0  0  0  0  0  0999 V2000
   34.3740   30.7000   34.9880 C   0  0  0  0  0  0  0  0  0  0  0  0
   33.0720   30.2300   35.2510 C   0  0  0  0  0  0  0  0  0  0  0  0
   32.3630   30.5850   36.4020 C   0  0  0  0  0  0  0  0  0  0  0  0
   32.9850   31.4490   37.3270 C   0  0  0  0  0  0  0  0  0  0  0  0
   34.2760   31.9020   37.0460 C   0  0  0  0  0  0  0  0  0  0  0  0
   34.9580   31.5380   35.9040 C   0  0  0  0  0  0  0  0  0  0  0  0
   32.5930   29.5620   34.5380 H   0  0  0  0  0  0  0  0  0  0  0  0
   31.3830   30.2330   36.6040 H   0  0  0  0  0  0  0  0  0  0  0  0
   32.4800   31.7500   38.2240 H   0  0  0  0  0  0  0  0  0  0  0  0
   34.6940   32.5680   37.8040 H   0  0  0  0  0  0  0  0  0  0  0  0
   35.0060   30.2720   33.7400 C   0  0  0  0  0  0  0  0  0  0  0  0
   34.8880   31.1040   32.7890 O   0  0  0  0  0  0  0  0  0  0  0  0
   37.0050   27.3770   34.6440 C   0  0  0  0  0  0  0  0  0  0  0  0
   37.0980   26.6500   33.4630 C   0  0  0  0  0  0  0  0  0  0  0  0
   36.4720   27.1580   32.3430 C   0  0  0  0  0  0  0  0  0  0  0  0
   35.7910   28.3380   32.4180 N   0  0  0  0  0  0  0  0  0  0  0  0
   35.7180   29.0140   33.5590 C   0  0  0  0  0  0  0  0  0  0  0  0
   36.3240   28.5200   34.6430 N   0  0  0  0  0  0  0  0  0  0  0  0
   37.4750   27.0490   35.5810 H   0  0  0  0  0  0  0  0  0  0  0  0
   37.6590   25.7440   33.5380 H   0  0  0  0  0  0  0  0  0  0  0  0
   36.5570   26.5780   31.4350 H   0  0  0  0  0  0  0  0  0  0  0  0
   36.3290   32.0550   35.7250 C   0  0  0  0  0  2  0  0  0  0  0  0
   36.2650   33.5540   35.3640 C   0  0  0  0  0  2  0  0  0  0  0  0
   36.1200   33.6310   34.2650 H   0  0  0  0  0  0  0  0  0  0  0  0
  1  2  2  0  0  0  0
  1  6  1  0  0  0  0
  2  3  1  0  0  0  0
  3  8  1  0  0  0  0
  3  4  2  0  0  0  0
  4  9  1  0  0  0  0
  5  4  1  0  0  0  0
  5 10  1  0  0  0  0
  6  5  2  0  0  0  0
  7  2  1  0  0  0  0
 11  1  1  0  0  0  0
 12 11  2  0  0  0  0
 13 19  1  0  0  0  0
 14 20  1  0  0  0  0
 14 13  2  0  0  0  0
 15 16  2  0  0  0  0
 15 14  1  0  0  0  0
 16 17  1  0  0  0  0
 17 11  1  0  0  0  0
 17 18  2  0  0  0  0
 18 13  1  0  0  0  0
 21 15  1  0  0  0  0
 22  6  1  0  0  0  0
 23 22  1  0  0  0  0
 24 23  1  0  0  0  0
M  END
>  <minimizedAffinity>
-4.42660761

$$$$
