
 OpenBabel03272502383D

 24 25  0  0  1  0  0  0  0  0999 V2000
   36.4040   22.5970   32.2080 N   0  0  0  0  0  0  0  0  0  0  0  0
   37.0470   21.9180   33.3220 C   0  0  0  0  0  0  0  0  0  0  0  0
   36.1300   20.7340   33.5530 C   0  0  0  0  0  0  0  0  0  0  0  0
   35.0460   20.8200   32.5100 C   0  0  1  0  0  0  0  0  0  0  0  0
   35.7300   21.5810   31.4030 C   0  0  0  0  0  0  0  0  0  0  0  0
   38.0820   21.6210   33.0760 H   0  0  0  0  0  0  0  0  0  0  0  0
   37.0140   22.5350   34.2360 H   0  0  0  0  0  0  0  0  0  0  0  0
   35.6640   20.7630   34.5800 H   0  0  0  0  0  0  0  0  0  0  0  0
   36.6870   19.7710   33.5450 H   0  0  0  0  0  0  0  0  0  0  0  0
   34.1450   21.3330   32.8570 H   0  0  0  0  0  0  0  0  0  0  0  0
   35.0150   22.0260   30.6960 H   0  0  0  0  0  0  0  0  0  0  0  0
   36.4390   20.9650   30.8510 H   0  0  0  0  0  0  0  0  0  0  0  0
   36.4130   23.9830   31.9330 C   0  0  0  0  0  0  0  0  0  0  0  0
   35.3430   24.5010   31.2100 C   0  0  0  0  0  0  0  0  0  0  0  0
   35.2810   25.8620   30.9000 C   0  0  0  0  0  0  0  0  0  0  0  0
   36.3200   26.6260   31.3470 N   0  0  0  0  0  0  0  0  0  0  0  0
   37.3500   26.0990   32.0480 C   0  0  0  0  0  0  0  0  0  0  0  0
   37.3990   24.7710   32.3440 N   0  0  0  0  0  0  0  0  0  0  0  0
   34.5020   23.9490   30.8350 H   0  0  0  0  0  0  0  0  0  0  0  0
   34.4770   26.3220   30.3430 H   0  0  0  0  0  0  0  0  0  0  0  0
   38.0900   26.8030   32.3340 H   0  0  0  0  0  0  0  0  0  0  0  0
   34.6260   19.4580   32.0080 C   0  0  0  0  0  2  0  0  0  0  0  0
   35.3280   18.3280   32.6830 C   0  0  0  0  0  2  0  0  0  0  0  0
   35.8350   18.6350   33.6310 H   0  0  0  0  0  0  0  0  0  0  0  0
  1  2  1  0  0  0  0
  2  3  1  0  0  0  0
  2  7  1  0  0  0  0
  3  8  1  0  0  0  0
  4 10  1  1  0  0  0
  4  3  1  0  0  0  0
  5  1  1  0  0  0  0
  5  4  1  0  0  0  0
  6  2  1  0  0  0  0
  9  3  1  0  0  0  0
 11  5  1  0  0  0  0
 12  5  1  0  0  0  0
 13  1  1  0  0  0  0
 13 18  1  0  0  0  0
 14 13  2  0  0  0  0
 15 14  1  0  0  0  0
 15 16  2  0  0  0  0
 16 17  1  0  0  0  0
 17 21  1  0  0  0  0
 17 18  2  0  0  0  0
 19 14  1  0  0  0  0
 20 15  1  0  0  0  0
 22  4  1  0  0  0  0
 22 23  1  0  0  0  0
 23 24  1  0  0  0  0
M  END
>  <minimizedAffinity>
-4.00299978

$$$$

 OpenBabel03272502383D

 24 25  0  0  1  0  0  0  0  0999 V2000
   37.8260   25.9120   34.1450 N   0  0  0  0  0  0  0  0  0  0  0  0
   38.4170   27.0100   34.8950 C   0  0  0  0  0  0  0  0  0  0  0  0
   38.4030   26.4770   36.3140 C   0  0  0  0  0  0  0  0  0  0  0  0
   37.8310   25.0840   36.2440 C   0  0  1  0  0  0  0  0  0  0  0  0
   38.1710   24.6710   34.8350 C   0  0  0  0  0  0  0  0  0  0  0  0
   39.4320   27.2500   34.5350 H   0  0  0  0  0  0  0  0  0  0  0  0
   37.7640   27.8990   34.8780 H   0  0  0  0  0  0  0  0  0  0  0  0
   37.7600   27.1120   36.9900 H   0  0  0  0  0  0  0  0  0  0  0  0
   39.4090   26.5280   36.7850 H   0  0  0  0  0  0  0  0  0  0  0  0
   36.7540   25.0440   36.4300 H   0  0  0  0  0  0  0  0  0  0  0  0
   37.5610   23.8260   34.4870 H   0  0  0  0  0  0  0  0  0  0  0  0
   39.2250   24.4220   34.7170 H   0  0  0  0  0  0  0  0  0  0  0  0
   37.0560   26.0030   32.9640 C   0  0  0  0  0  0  0  0  0  0  0  0
   36.7230   27.2770   32.5120 C   0  0  0  0  0  0  0  0  0  0  0  0
   35.9650   27.4490   31.3510 C   0  0  0  0  0  0  0  0  0  0  0  0
   35.5850   26.3050   30.7090 N   0  0  0  0  0  0  0  0  0  0  0  0
   35.9200   25.0790   31.1690 C   0  0  0  0  0  0  0  0  0  0  0  0
   36.6590   24.9240   32.3020 N   0  0  0  0  0  0  0  0  0  0  0  0
   36.9940   28.2070   32.9750 H   0  0  0  0  0  0  0  0  0  0  0  0
   35.6760   28.4100   30.9510 H   0  0  0  0  0  0  0  0  0  0  0  0
   35.5610   24.2760   30.5750 H   0  0  0  0  0  0  0  0  0  0  0  0
   38.4940   24.1450   37.2250 C   0  0  0  0  0  2  0  0  0  0  0  0
   37.9890   24.2820   38.6220 C   0  0  0  0  0  2  0  0  0  0  0  0
   37.0220   24.8410   38.6810 H   0  0  0  0  0  0  0  0  0  0  0  0
  1  5  1  0  0  0  0
  1  2  1  0  0  0  0
  2  3  1  0  0  0  0
  3  9  1  0  0  0  0
  3  8  1  0  0  0  0
  4  3  1  0  0  0  0
  4 10  1  1  0  0  0
  4 22  1  0  0  0  0
  5  4  1  0  0  0  0
  6  2  1  0  0  0  0
  7  2  1  0  0  0  0
 11  5  1  0  0  0  0
 12  5  1  0  0  0  0
 13  1  1  0  0  0  0
 14 13  1  0  0  0  0
 14 19  1  0  0  0  0
 15 14  2  0  0  0  0
 16 17  2  0  0  0  0
 16 15  1  0  0  0  0
 17 18  1  0  0  0  0
 18 13  2  0  0  0  0
 20 15  1  0  0  0  0
 21 17  1  0  0  0  0
 22 23  1  0  0  0  0
 23 24  1  0  0  0  0
M  END
>  <minimizedAffinity>
-3.89851427

$$$$

 OpenBabel03272502383D

 24 25  0  0  1  0  0  0  0  0999 V2000
   38.4410   24.9670   34.8460 N   0  0  0  0  0  0  0  0  0  0  0  0
   38.2060   24.3410   33.5530 C   0  0  0  0  0  0  0  0  0  0  0  0
   37.2770   25.3310   32.8790 C   0  0  0  0  0  0  0  0  0  0  0  0
   37.0890   26.4710   33.8460 C   0  0  1  0  0  0  0  0  0  0  0  0
   38.3580   26.4130   34.6570 C   0  0  0  0  0  0  0  0  0  0  0  0
   39.1480   24.1870   32.9980 H   0  0  0  0  0  0  0  0  0  0  0  0
   37.6470   23.3970   33.6650 H   0  0  0  0  0  0  0  0  0  0  0  0
   36.2740   24.8670   32.6480 H   0  0  0  0  0  0  0  0  0  0  0  0
   37.6580   25.6440   31.8820 H   0  0  0  0  0  0  0  0  0  0  0  0
   36.2010   26.3690   34.4750 H   0  0  0  0  0  0  0  0  0  0  0  0
   38.2690   26.9470   35.6140 H   0  0  0  0  0  0  0  0  0  0  0  0
   39.2180   26.8010   34.1120 H   0  0  0  0  0  0  0  0  0  0  0  0
   38.7030   24.3160   36.0730 C   0  0  0  0  0  0  0  0  0  0  0  0
   37.9030   24.6530   37.1600 C   0  0  0  0  0  0  0  0  0  0  0  0
   38.1000   24.0530   38.4070 C   0  0  0  0  0  0  0  0  0  0  0  0
   39.1090   23.1350   38.4770 N   0  0  0  0  0  0  0  0  0  0  0  0
   39.8730   22.8260   37.4050 C   0  0  0  0  0  0  0  0  0  0  0  0
   39.6720   23.4180   36.1960 N   0  0  0  0  0  0  0  0  0  0  0  0
   37.0990   25.3650   37.1620 H   0  0  0  0  0  0  0  0  0  0  0  0
   37.5120   24.2730   39.2860 H   0  0  0  0  0  0  0  0  0  0  0  0
   40.6210   22.0980   37.5970 H   0  0  0  0  0  0  0  0  0  0  0  0
   36.9930   27.8060   33.1430 C   0  0  0  0  0  2  0  0  0  0  0  0
   36.0120   28.7420   33.7650 C   0  0  0  0  0  2  0  0  0  0  0  0
   35.7130   28.4340   34.7980 H   0  0  0  0  0  0  0  0  0  0  0  0
  1 13  1  0  0  0  0
  2  7  1  0  0  0  0
  2  1  1  0  0  0  0
  3  2  1  0  0  0  0
  3  4  1  0  0  0  0
  4 10  1  1  0  0  0
  4  5  1  0  0  0  0
  5  1  1  0  0  0  0
  5 11  1  0  0  0  0
  6  2  1  0  0  0  0
  8  3  1  0  0  0  0
  9  3  1  0  0  0  0
 12  5  1  0  0  0  0
 13 18  2  0  0  0  0
 13 14  1  0  0  0  0
 14 19  1  0  0  0  0
 14 15  2  0  0  0  0
 15 16  1  0  0  0  0
 15 20  1  0  0  0  0
 17 21  1  0  0  0  0
 17 16  2  0  0  0  0
 18 17  1  0  0  0  0
 22 23  1  0  0  0  0
 22  4  1  0  0  0  0
 23 24  1  0  0  0  0
M  END
>  <minimizedAffinity>
-3.8570087

$$$$

 OpenBabel03272502383D

 24 25  0  0  1  0  0  0  0  0999 V2000
   38.6500   24.5710   35.9830 N   0  0  0  0  0  0  0  0  0  0  0  0
   38.1430   24.5860   37.3460 C   0  0  0  0  0  0  0  0  0  0  0  0
   38.7170   23.3060   37.9190 C   0  0  0  0  0  0  0  0  0  0  0  0
   39.5450   22.6800   36.8270 C   0  0  1  0  0  0  0  0  0  0  0  0
   39.9350   23.8760   35.9980 C   0  0  0  0  0  0  0  0  0  0  0  0
   38.4710   25.4880   37.8930 H   0  0  0  0  0  0  0  0  0  0  0  0
   37.0440   24.4840   37.3630 H   0  0  0  0  0  0  0  0  0  0  0  0
   37.9030   22.5880   38.2300 H   0  0  0  0  0  0  0  0  0  0  0  0
   39.2790   23.4890   38.8620 H   0  0  0  0  0  0  0  0  0  0  0  0
   39.0000   21.9370   36.2370 H   0  0  0  0  0  0  0  0  0  0  0  0
   40.2620   23.5960   34.9860 H   0  0  0  0  0  0  0  0  0  0  0  0
   40.7130   24.4740   36.4710 H   0  0  0  0  0  0  0  0  0  0  0  0
   38.0310   25.1190   34.8370 C   0  0  0  0  0  0  0  0  0  0  0  0
   37.5820   26.4340   34.9180 C   0  0  0  0  0  0  0  0  0  0  0  0
   36.9610   27.0470   33.8260 C   0  0  0  0  0  0  0  0  0  0  0  0
   36.8310   26.2810   32.7040 N   0  0  0  0  0  0  0  0  0  0  0  0
   37.2740   25.0040   32.6500 C   0  0  0  0  0  0  0  0  0  0  0  0
   37.8780   24.4180   33.7210 N   0  0  0  0  0  0  0  0  0  0  0  0
   37.6580   27.0810   35.7720 H   0  0  0  0  0  0  0  0  0  0  0  0
   36.5930   28.0630   33.8290 H   0  0  0  0  0  0  0  0  0  0  0  0
   37.1110   24.5230   31.7190 H   0  0  0  0  0  0  0  0  0  0  0  0
   40.7860   22.0060   37.3660 C   0  0  0  0  0  2  0  0  0  0  0  0
   42.0490   22.4760   36.7280 C   0  0  0  0  0  2  0  0  0  0  0  0
   41.9210   23.4350   36.1660 H   0  0  0  0  0  0  0  0  0  0  0  0
  1  5  1  0  0  0  0
  1  2  1  0  0  0  0
  2  7  1  0  0  0  0
  2  6  1  0  0  0  0
  2  3  1  0  0  0  0
  3  8  1  0  0  0  0
  3  9  1  0  0  0  0
  4 10  1  6  0  0  0
  4 22  1  0  0  0  0
  4  3  1  0  0  0  0
  5 12  1  0  0  0  0
  5  4  1  0  0  0  0
 11  5  1  0  0  0  0
 13 14  1  0  0  0  0
 13  1  1  0  0  0  0
 14 19  1  0  0  0  0
 15 20  1  0  0  0  0
 15 14  2  0  0  0  0
 16 15  1  0  0  0  0
 17 16  2  0  0  0  0
 17 18  1  0  0  0  0
 18 13  2  0  0  0  0
 21 17  1  0  0  0  0
 23 22  1  0  0  0  0
 24 23  1  0  0  0  0
M  END
>  <minimizedAffinity>
-3.83859634

$$$$

 OpenBabel03272502383D

 24 25  0  0  1  0  0  0  0  0999 V2000
   38.3550   24.9990   34.8540 N   0  0  0  0  0  0  0  0  0  0  0  0
   38.1380   24.3400   33.5750 C   0  0  0  0  0  0  0  0  0  0  0  0
   37.2470   25.3280   32.8490 C   0  0  0  0  0  0  0  0  0  0  0  0
   37.0610   26.5010   33.7760 C   0  0  1  0  0  0  0  0  0  0  0  0
   38.3080   26.4410   34.6200 C   0  0  0  0  0  0  0  0  0  0  0  0
   39.0890   24.1490   33.0480 H   0  0  0  0  0  0  0  0  0  0  0  0
   37.5550   23.4110   33.7010 H   0  0  0  0  0  0  0  0  0  0  0  0
   36.2400   24.8790   32.6060 H   0  0  0  0  0  0  0  0  0  0  0  0
   37.6590   25.6020   31.8530 H   0  0  0  0  0  0  0  0  0  0  0  0
   36.1550   26.4370   34.3860 H   0  0  0  0  0  0  0  0  0  0  0  0
   38.2070   27.0060   35.5570 H   0  0  0  0  0  0  0  0  0  0  0  0
   39.1890   26.7930   34.0850 H   0  0  0  0  0  0  0  0  0  0  0  0
   38.5730   24.3820   36.1060 C   0  0  0  0  0  0  0  0  0  0  0  0
   39.6200   23.4700   36.1970 C   0  0  0  0  0  0  0  0  0  0  0  0
   39.8980   22.8190   37.4020 C   0  0  0  0  0  0  0  0  0  0  0  0
   39.0890   23.1350   38.4550 N   0  0  0  0  0  0  0  0  0  0  0  0
   38.0770   24.0250   38.3400 C   0  0  0  0  0  0  0  0  0  0  0  0
   37.8150   24.6530   37.1610 N   0  0  0  0  0  0  0  0  0  0  0  0
   40.2850   23.1840   35.4050 H   0  0  0  0  0  0  0  0  0  0  0  0
   40.6960   22.1020   37.5340 H   0  0  0  0  0  0  0  0  0  0  0  0
   37.5270   24.1790   39.2340 H   0  0  0  0  0  0  0  0  0  0  0  0
   37.0110   27.8150   33.0310 C   0  0  0  0  0  2  0  0  0  0  0  0
   36.0120   28.7780   33.5790 C   0  0  0  0  0  2  0  0  0  0  0  0
   35.6610   28.5030   34.6050 H   0  0  0  0  0  0  0  0  0  0  0  0
  1 13  1  0  0  0  0
  2  7  1  0  0  0  0
  2  1  1  0  0  0  0
  3  2  1  0  0  0  0
  3  4  1  0  0  0  0
  4 10  1  1  0  0  0
  4  5  1  0  0  0  0
  5  1  1  0  0  0  0
  5 11  1  0  0  0  0
  6  2  1  0  0  0  0
  8  3  1  0  0  0  0
  9  3  1  0  0  0  0
 12  5  1  0  0  0  0
 13 14  2  0  0  0  0
 13 18  1  0  0  0  0
 14 15  1  0  0  0  0
 15 20  1  0  0  0  0
 15 16  2  0  0  0  0
 17 16  1  0  0  0  0
 17 21  1  0  0  0  0
 18 17  2  0  0  0  0
 19 14  1  0  0  0  0
 22 23  1  0  0  0  0
 22  4  1  0  0  0  0
 23 24  1  0  0  0  0
M  END
>  <minimizedAffinity>
-3.80504966

$$$$

 OpenBabel03272502383D

 24 25  0  0  1  0  0  0  0  0999 V2000
   37.9390   22.6760   34.4540 N   0  0  0  0  0  0  0  0  0  0  0  0
   38.2630   24.0910   34.3660 C   0  0  0  0  0  0  0  0  0  0  0  0
   38.3720   24.4900   35.8240 C   0  0  0  0  0  0  0  0  0  0  0  0
   38.1330   23.2400   36.6300 C   0  0  1  0  0  0  0  0  0  0  0  0
   38.5590   22.1570   35.6720 C   0  0  0  0  0  0  0  0  0  0  0  0
   39.1970   24.2620   33.8020 H   0  0  0  0  0  0  0  0  0  0  0  0
   37.4240   24.6640   33.9360 H   0  0  0  0  0  0  0  0  0  0  0  0
   37.6000   25.2660   36.1010 H   0  0  0  0  0  0  0  0  0  0  0  0
   39.3390   24.9920   36.0460 H   0  0  0  0  0  0  0  0  0  0  0  0
   37.0950   23.1150   36.9480 H   0  0  0  0  0  0  0  0  0  0  0  0
   38.1590   21.1720   35.9480 H   0  0  0  0  0  0  0  0  0  0  0  0
   39.6420   22.0880   35.5770 H   0  0  0  0  0  0  0  0  0  0  0  0
   37.1690   21.9180   33.5440 C   0  0  0  0  0  0  0  0  0  0  0  0
   36.2570   21.0110   34.0750 C   0  0  0  0  0  0  0  0  0  0  0  0
   35.4580   20.2270   33.2380 C   0  0  0  0  0  0  0  0  0  0  0  0
   35.6340   20.4110   31.8970 N   0  0  0  0  0  0  0  0  0  0  0  0
   36.5280   21.2990   31.4050 C   0  0  0  0  0  0  0  0  0  0  0  0
   37.3010   22.0580   32.2310 N   0  0  0  0  0  0  0  0  0  0  0  0
   36.0780   20.8260   35.1170 H   0  0  0  0  0  0  0  0  0  0  0  0
   34.7340   19.5070   33.5910 H   0  0  0  0  0  0  0  0  0  0  0  0
   36.5640   21.3430   30.3460 H   0  0  0  0  0  0  0  0  0  0  0  0
   38.9940   23.1890   37.8720 C   0  0  0  0  0  2  0  0  0  0  0  0
   40.3380   22.5830   37.6460 C   0  0  0  0  0  2  0  0  0  0  0  0
   40.6100   22.5220   36.5630 H   0  0  0  0  0  0  0  0  0  0  0  0
  1  5  1  0  0  0  0
  2  1  1  0  0  0  0
  2  3  1  0  0  0  0
  3  9  1  0  0  0  0
  3  8  1  0  0  0  0
  3  4  1  0  0  0  0
  4 10  1  1  0  0  0
  4 22  1  0  0  0  0
  5 11  1  0  0  0  0
  5  4  1  0  0  0  0
  6  2  1  0  0  0  0
  7  2  1  0  0  0  0
 12  5  1  0  0  0  0
 13 14  1  0  0  0  0
 13  1  1  0  0  0  0
 14 19  1  0  0  0  0
 15 20  1  0  0  0  0
 15 14  2  0  0  0  0
 16 15  1  0  0  0  0
 17 16  2  0  0  0  0
 17 18  1  0  0  0  0
 18 13  2  0  0  0  0
 21 17  1  0  0  0  0
 23 22  1  0  0  0  0
 24 23  1  0  0  0  0
M  END
>  <minimizedAffinity>
-3.75596666

$$$$

 OpenBabel03272502383D

 24 25  0  0  1  0  0  0  0  0999 V2000
   38.0180   24.4870   34.7440 N   0  0  0  0  0  0  0  0  0  0  0  0
   38.5540   23.3200   34.0600 C   0  0  0  0  0  0  0  0  0  0  0  0
   39.5640   22.7940   35.0600 C   0  0  0  0  0  0  0  0  0  0  0  0
   39.4890   23.7000   36.2620 C   0  0  1  0  0  0  0  0  0  0  0  0
   38.0780   24.2230   36.1800 C   0  0  0  0  0  0  0  0  0  0  0  0
   37.7620   22.5880   33.8210 H   0  0  0  0  0  0  0  0  0  0  0  0
   39.1160   23.6130   33.1560 H   0  0  0  0  0  0  0  0  0  0  0  0
   40.6120   22.8140   34.6410 H   0  0  0  0  0  0  0  0  0  0  0  0
   39.3950   21.7200   35.2930 H   0  0  0  0  0  0  0  0  0  0  0  0
   40.2240   24.5090   36.2460 H   0  0  0  0  0  0  0  0  0  0  0  0
   37.9350   25.1380   36.7720 H   0  0  0  0  0  0  0  0  0  0  0  0
   37.3410   23.4810   36.4860 H   0  0  0  0  0  0  0  0  0  0  0  0
   37.5250   25.6720   34.1520 C   0  0  0  0  0  0  0  0  0  0  0  0
   37.2300   26.7370   34.9970 C   0  0  0  0  0  0  0  0  0  0  0  0
   36.7380   27.9410   34.4860 C   0  0  0  0  0  0  0  0  0  0  0  0
   36.5740   27.9940   33.1320 N   0  0  0  0  0  0  0  0  0  0  0  0
   36.8670   26.9450   32.3310 C   0  0  0  0  0  0  0  0  0  0  0  0
   37.3450   25.7760   32.8410 N   0  0  0  0  0  0  0  0  0  0  0  0
   37.3390   26.7500   36.0650 H   0  0  0  0  0  0  0  0  0  0  0  0
   36.4910   28.8020   35.0920 H   0  0  0  0  0  0  0  0  0  0  0  0
   36.6940   27.1200   31.2990 H   0  0  0  0  0  0  0  0  0  0  0  0
   39.6780   22.9440   37.5580 C   0  0  0  0  0  2  0  0  0  0  0  0
   38.7440   23.3680   38.6410 C   0  0  0  0  0  2  0  0  0  0  0  0
   37.8770   23.9620   38.2590 H   0  0  0  0  0  0  0  0  0  0  0  0
  1  5  1  0  0  0  0
  2  1  1  0  0  0  0
  2  3  1  0  0  0  0
  3  9  1  0  0  0  0
  3  4  1  0  0  0  0
  4 10  1  6  0  0  0
  4 22  1  0  0  0  0
  5  4  1  0  0  0  0
  5 12  1  0  0  0  0
  5 11  1  0  0  0  0
  6  2  1  0  0  0  0
  7  2  1  0  0  0  0
  8  3  1  0  0  0  0
 13  1  1  0  0  0  0
 13 14  1  0  0  0  0
 14 19  1  0  0  0  0
 15 14  2  0  0  0  0
 15 20  1  0  0  0  0
 16 15  1  0  0  0  0
 17 18  1  0  0  0  0
 17 16  2  0  0  0  0
 18 13  2  0  0  0  0
 21 17  1  0  0  0  0
 22 23  1  0  0  0  0
 24 23  1  0  0  0  0
M  END
>  <minimizedAffinity>
-3.72639847

$$$$

 OpenBabel03272502383D

 24 25  0  0  1  0  0  0  0  0999 V2000
   37.8030   22.4640   34.2840 N   0  0  0  0  0  0  0  0  0  0  0  0
   38.7660   23.5080   33.9710 C   0  0  0  0  0  0  0  0  0  0  0  0
   38.9120   24.2230   35.2990 C   0  0  0  0  0  0  0  0  0  0  0  0
   38.0340   23.4900   36.2800 C   0  0  1  0  0  0  0  0  0  0  0  0
   37.9850   22.1040   35.6890 C   0  0  0  0  0  0  0  0  0  0  0  0
   39.7180   23.0880   33.6000 H   0  0  0  0  0  0  0  0  0  0  0  0
   38.3440   24.2360   33.2570 H   0  0  0  0  0  0  0  0  0  0  0  0
   38.5780   25.2990   35.2310 H   0  0  0  0  0  0  0  0  0  0  0  0
   39.9760   24.2980   35.6150 H   0  0  0  0  0  0  0  0  0  0  0  0
   37.0360   23.9230   36.3830 H   0  0  0  0  0  0  0  0  0  0  0  0
   37.1410   21.5140   36.0730 H   0  0  0  0  0  0  0  0  0  0  0  0
   38.9090   21.5500   35.8490 H   0  0  0  0  0  0  0  0  0  0  0  0
   36.8560   21.8860   33.4090 C   0  0  0  0  0  0  0  0  0  0  0  0
   36.7150   22.4590   32.1480 C   0  0  0  0  0  0  0  0  0  0  0  0
   35.8000   21.9440   31.2270 C   0  0  0  0  0  0  0  0  0  0  0  0
   35.0740   20.8650   31.6430 N   0  0  0  0  0  0  0  0  0  0  0  0
   35.2290   20.3270   32.8730 C   0  0  0  0  0  0  0  0  0  0  0  0
   36.1240   20.8370   33.7630 N   0  0  0  0  0  0  0  0  0  0  0  0
   37.2570   23.3050   31.7700 H   0  0  0  0  0  0  0  0  0  0  0  0
   35.6450   22.3460   30.2350 H   0  0  0  0  0  0  0  0  0  0  0  0
   34.6040   19.4920   33.0670 H   0  0  0  0  0  0  0  0  0  0  0  0
   38.6460   23.4330   37.6620 C   0  0  0  0  0  2  0  0  0  0  0  0
   38.0080   24.3620   38.6380 C   0  0  0  0  0  2  0  0  0  0  0  0
   37.0150   24.7420   38.2920 H   0  0  0  0  0  0  0  0  0  0  0  0
  1  5  1  0  0  0  0
  2  1  1  0  0  0  0
  2  3  1  0  0  0  0
  3  9  1  0  0  0  0
  3  4  1  0  0  0  0
  4 10  1  1  0  0  0
  4 22  1  0  0  0  0
  5 12  1  0  0  0  0
  5 11  1  0  0  0  0
  5  4  1  0  0  0  0
  6  2  1  0  0  0  0
  7  2  1  0  0  0  0
  8  3  1  0  0  0  0
 13 18  1  0  0  0  0
 13  1  1  0  0  0  0
 14 13  2  0  0  0  0
 15 16  2  0  0  0  0
 15 14  1  0  0  0  0
 16 17  1  0  0  0  0
 17 21  1  0  0  0  0
 17 18  2  0  0  0  0
 19 14  1  0  0  0  0
 20 15  1  0  0  0  0
 22 23  1  0  0  0  0
 24 23  1  0  0  0  0
M  END
>  <minimizedAffinity>
-3.71099806

$$$$

 OpenBabel03272502383D

 24 25  0  0  1  0  0  0  0  0999 V2000
   38.6020   25.2470   34.9210 N   0  0  0  0  0  0  0  0  0  0  0  0
   37.4700   26.0980   34.5860 C   0  0  0  0  0  0  0  0  0  0  0  0
   38.1100   27.1610   33.7160 C   0  0  0  0  0  0  0  0  0  0  0  0
   39.5680   26.7980   33.5970 C   0  0  1  0  0  0  0  0  0  0  0  0
   39.5420   25.3050   33.8040 C   0  0  0  0  0  0  0  0  0  0  0  0
   36.6760   25.5350   34.0650 H   0  0  0  0  0  0  0  0  0  0  0  0
   37.0780   26.6070   35.4830 H   0  0  0  0  0  0  0  0  0  0  0  0
   38.0170   28.1870   34.1780 H   0  0  0  0  0  0  0  0  0  0  0  0
   37.5910   27.2650   32.7390 H   0  0  0  0  0  0  0  0  0  0  0  0
   40.2050   27.2980   34.3320 H   0  0  0  0  0  0  0  0  0  0  0  0
   40.5280   24.9030   34.0760 H   0  0  0  0  0  0  0  0  0  0  0  0
   39.1680   24.7710   32.9310 H   0  0  0  0  0  0  0  0  0  0  0  0
   38.7820   24.4930   36.1020 C   0  0  0  0  0  0  0  0  0  0  0  0
   37.9460   24.7770   37.1780 C   0  0  0  0  0  0  0  0  0  0  0  0
   38.0630   24.0730   38.3790 C   0  0  0  0  0  0  0  0  0  0  0  0
   39.0320   23.1110   38.4190 N   0  0  0  0  0  0  0  0  0  0  0  0
   39.8320   22.8550   37.3600 C   0  0  0  0  0  0  0  0  0  0  0  0
   39.7090   23.5470   36.1940 N   0  0  0  0  0  0  0  0  0  0  0  0
   37.1710   25.5190   37.2020 H   0  0  0  0  0  0  0  0  0  0  0  0
   37.4440   24.2480   39.2480 H   0  0  0  0  0  0  0  0  0  0  0  0
   40.5410   22.0830   37.5240 H   0  0  0  0  0  0  0  0  0  0  0  0
   40.1250   27.1140   32.2280 C   0  0  0  0  0  2  0  0  0  0  0  0
   39.0820   27.4690   31.2240 C   0  0  0  0  0  2  0  0  0  0  0  0
   38.0970   27.7230   31.6910 H   0  0  0  0  0  0  0  0  0  0  0  0
  1 13  1  0  0  0  0
  2  1  1  0  0  0  0
  2  7  1  0  0  0  0
  3  8  1  0  0  0  0
  3  2  1  0  0  0  0
  4  3  1  0  0  0  0
  4  5  1  0  0  0  0
  4 10  1  1  0  0  0
  5 11  1  0  0  0  0
  5  1  1  0  0  0  0
  6  2  1  0  0  0  0
  9  3  1  0  0  0  0
 12  5  1  0  0  0  0
 13 18  2  0  0  0  0
 13 14  1  0  0  0  0
 14 19  1  0  0  0  0
 14 15  2  0  0  0  0
 15 16  1  0  0  0  0
 15 20  1  0  0  0  0
 17 21  1  0  0  0  0
 17 16  2  0  0  0  0
 18 17  1  0  0  0  0
 22  4  1  0  0  0  0
 23 24  1  0  0  0  0
 23 22  1  0  0  0  0
M  END
>  <minimizedAffinity>
-3.68553305

$$$$
