
     RDKit          3D

 19 19  0  0  0  0  0  0  0  0999 V2000
   38.3049   31.2379   50.1268 C   0  0  0  0  0  0  0  0  0  0  0  0
   38.2974   31.6064   48.7814 C   0  0  0  0  0  0  0  0  0  0  0  0
   37.2011   31.2191   47.9889 C   0  0  0  0  0  0  0  0  0  0  0  0
   36.2146   30.5051   48.5941 N   0  0  0  0  0  0  0  0  0  0  0  0
   36.2543   30.1696   49.8842 C   0  0  0  0  0  0  0  0  0  0  0  0
   37.2989   30.5366   50.6474 N   0  0  0  0  0  0  0  0  0  0  0  0
   35.1299   29.3869   50.4530 C   0  0  0  0  0  0  0  0  0  0  0  0
   35.2695   29.1255   51.8001 F   0  0  0  0  0  0  0  0  0  0  0  0
   33.9268   30.0544   50.3061 F   0  0  0  0  0  0  0  0  0  0  0  0
   34.9517   28.1706   49.8220 F   0  0  0  0  0  0  0  0  0  0  0  0
   39.1479   31.5443   50.7059 H   0  0  0  0  0  0  0  0  0  0  0  0
   39.0659   32.1722   48.2739 H   0  0  0  0  0  0  0  0  0  0  0  0
   37.0188   31.5130   46.5632 C   0  0  0  0  0  0  0  0  0  0  0  0
   36.5528   30.3353   45.7559 C   0  0  0  0  0  0  0  0  0  0  0  0
   35.4805   30.1087   45.9282 H   0  0  0  0  0  0  0  0  0  0  0  0
   36.3257   32.3403   46.4142 H   0  0  0  0  0  0  0  0  0  0  0  0
   38.0109   31.7940   46.1560 H   0  0  0  0  0  0  0  0  0  0  0  0
   36.6720   30.5187   44.6686 H   0  0  0  0  0  0  0  0  0  0  0  0
   37.1100   29.3957   45.9945 H   0  0  0  0  0  0  0  0  0  0  0  0
  1  6  2  0
  2  1  1  0
  3  4  1  0
  3  2  2  0
  4  5  2  0
  5  7  1  0
  5  6  1  0
  7  8  1  0
  9  7  1  0
 10  7  1  0
  1 11  1  0
  2 12  1  0
 13 14  1  0
 14 15  1  0
 13 16  1  0
 13 17  1  0
 14 18  1  0
 14 19  1  0
  3 13  1  0
M  ISO  3  11  14  12  14  15   8
M  END
>  <DihAtoms>  (1) 
3,2,12,13

>  <DihDeg>  (1) 
179.97820209720356

$$$$
