REMARK  Name = 
REMARK  3 active torsions:
REMARK  status: ('A' for Active; 'I' for Inactive)
REMARK    1  A    between atoms: C_2  and  C_12
REMARK    2  A    between atoms: C_6  and  C_23
REMARK    3  A    between atoms: C_23  and  C_24
REMARK                            x       y       z     vdW  Elec       q    Type
REMARK                         _______ _______ _______ _____ _____    ______ ____
ROOT
ATOM      1  C   UNL     1      37.090  30.663  46.755  0.00  0.00    +0.000 A 
ATOM      2  C   UNL     1      37.708  31.125  47.909  0.00  0.00    +0.000 A 
ATOM      3  C   UNL     1      38.710  32.088  47.852  0.00  0.00    +0.000 A 
ATOM      4  C   UNL     1      39.044  32.552  46.570  0.00  0.00    +0.000 A 
ATOM      5  N   UNL     1      39.983  33.485  46.275  0.00  0.00    +0.000 N 
ATOM      6  C   UNL     1      39.957  33.610  44.943  0.00  0.00    +0.000 A 
ATOM      7  N   UNL     1      39.046  32.800  44.389  0.00  0.00    +0.000 NA
ATOM      8  C   UNL     1      38.449  32.115  45.398  0.00  0.00    +0.000 A 
ATOM      9  C   UNL     1      37.456  31.153  45.502  0.00  0.00    +0.000 A 
ATOM     10  H   UNL     1      36.305  29.914  46.750  0.00  0.00    +0.000 HD
ATOM     11  H   UNL     1      39.195  32.453  48.742  0.00  0.00    +0.000 HD
ATOM     12  H   UNL     1      40.629  34.032  46.904  0.00  0.00    +0.000 HD
ATOM     13  H   UNL     1      36.985  30.803  44.613  0.00  0.00    +0.000 HD
ENDROOT
BRANCH   2  16
ATOM     14  C   UNL     1      37.423  30.109  51.524  0.00  0.00    +0.000 A 
ATOM     15  C   UNL     1      37.959  30.688  50.377  0.00  0.00    +0.000 A 
ATOM     16  C   UNL     1      37.266  30.566  49.185  0.00  0.00    +0.000 A 
ATOM     17  N   UNL     1      36.083  29.882  49.179  0.00  0.00    +0.000 NA
ATOM     18  C   UNL     1      35.581  29.327  50.307  0.00  0.00    +0.000 A 
ATOM     19  N   UNL     1      36.257  29.446  51.470  0.00  0.00    +0.000 NA
ATOM     20  H   UNL     1      38.039  30.258  52.413  0.00  0.00    +0.000 HD
ATOM     21  H   UNL     1      38.874  31.225  50.348  0.00  0.00    +0.000 HD
ATOM     22  H   UNL     1      34.650  28.785  50.319  0.00  0.00    +0.000 HD
ENDBRANCH   2  16
BRANCH   6  23
ATOM     23  C   UNL     1      40.803  34.517  44.096  0.00  0.00    +0.000 C 
BRANCH  23  24
ATOM     24  C   UNL     1      40.872  35.911  44.699  0.00  0.00    +0.000 C 
ATOM     25  H   UNL     1      40.564  36.676  43.952  0.00  0.00    +0.000 HD
ENDBRANCH  23  24
ENDBRANCH   6  23
TORSDOF 3
