
 OpenBabel03272504513D

 36 38  0  0  1  0  0  0  0  0999 V2000
   37.4880   27.9600   35.1100 C   0  0  0  0  0  0  0  0  0  0  0  0
   36.9730   27.7010   33.8490 C   0  0  0  0  0  0  0  0  0  0  0  0
   37.0330   26.3920   33.4080 C   0  0  0  0  0  0  0  0  0  0  0  0
   37.5810   25.4350   34.2080 N   0  0  0  0  0  0  0  0  0  0  0  0
   38.0710   25.7300   35.4290 C   0  0  0  0  0  0  0  0  0  0  0  0
   38.0190   26.9900   35.8680 N   0  0  0  0  0  0  0  0  0  0  0  0
   37.4860   28.9360   35.5360 H   0  0  0  0  0  0  0  0  0  0  0  0
   36.6660   26.0730   32.4470 H   0  0  0  0  0  0  0  0  0  0  0  0
   36.4200   28.7420   33.0560 N   0  0  0  0  0  0  0  0  0  0  0  0
   36.5980   28.6000   31.6110 C   0  0  0  0  0  0  0  0  0  0  0  0
   35.9640   29.7280   30.8590 C   0  0  0  0  0  0  0  0  0  0  0  0
   36.2400   31.0430   31.5950 C   0  0  0  0  0  0  0  0  0  0  0  0
   35.3940   30.9600   32.8450 C   0  0  0  0  0  0  0  0  0  0  0  0
   35.7390   29.8120   33.7180 C   0  0  1  0  0  0  0  0  0  0  0  0
   37.6830   28.5990   31.4030 H   0  0  0  0  0  0  0  0  0  0  0  0
   36.1410   27.6440   31.2750 H   0  0  0  0  0  0  0  0  0  0  0  0
   36.3540   29.7320   29.8270 H   0  0  0  0  0  0  0  0  0  0  0  0
   34.8680   29.5620   30.8600 H   0  0  0  0  0  0  0  0  0  0  0  0
   37.2920   31.1390   31.8790 H   0  0  0  0  0  0  0  0  0  0  0  0
   35.8480   31.8630   30.9870 H   0  0  0  0  0  0  0  0  0  0  0  0
   35.5560   31.9210   33.3780 H   0  0  0  0  0  0  0  0  0  0  0  0
   34.3240   30.9740   32.5190 H   0  0  0  0  0  0  0  0  0  0  0  0
   36.2700   30.1780   34.6220 H   0  0  0  0  0  0  0  0  0  0  0  0
   34.4060   29.2400   34.2210 C   0  0  0  0  0  2  0  0  0  0  0  0
   33.2280   29.7710   33.4750 C   0  0  0  0  0  2  0  0  0  0  0  0
   32.4110   29.0200   33.4530 H   0  0  0  0  0  0  0  0  0  0  0  0
   38.6490   24.6880   36.2550 C   0  0  0  0  0  0  0  0  0  0  0  0
   38.1030   24.3920   37.4880 C   0  0  0  0  0  0  0  0  0  0  0  0
   38.6110   23.4170   38.3080 C   0  0  0  0  0  0  0  0  0  0  0  0
   39.7000   22.7520   37.8280 C   0  0  0  0  0  0  0  0  0  0  0  0
   40.2960   23.0200   36.5700 C   0  0  0  0  0  0  0  0  0  0  0  0
   39.7280   24.0120   35.8070 N   0  0  0  0  0  0  0  0  0  0  0  0
   37.2350   24.9690   37.7970 H   0  0  0  0  0  0  0  0  0  0  0  0
   38.1980   23.1730   39.2720 H   0  0  0  0  0  0  0  0  0  0  0  0
   40.2080   21.9500   38.3760 H   0  0  0  0  0  0  0  0  0  0  0  0
   41.1560   22.4750   36.2200 H   0  0  0  0  0  0  0  0  0  0  0  0
  1  7  1  0  0  0  0
  1  6  1  0  0  0  0
  2  1  2  0  0  0  0
  3  2  1  0  0  0  0
  3  4  2  0  0  0  0
  4  5  1  0  0  0  0
  5  6  2  0  0  0  0
  5 27  1  0  0  0  0
  8  3  1  0  0  0  0
  9 14  1  0  0  0  0
  9  2  1  0  0  0  0
 10  9  1  0  0  0  0
 11 18  1  0  0  0  0
 11 12  1  0  0  0  0
 11 10  1  0  0  0  0
 12 19  1  0  0  0  0
 12 13  1  0  0  0  0
 13 21  1  0  0  0  0
 13 14  1  0  0  0  0
 14 24  1  0  0  0  0
 14 23  1  1  0  0  0
 15 10  1  0  0  0  0
 16 10  1  0  0  0  0
 17 11  1  0  0  0  0
 20 12  1  0  0  0  0
 22 13  1  0  0  0  0
 25 24  1  0  0  0  0
 26 25  1  0  0  0  0
 27 28  1  0  0  0  0
 28 33  1  0  0  0  0
 28 29  2  0  0  0  0
 29 34  1  0  0  0  0
 30 29  1  0  0  0  0
 30 35  1  0  0  0  0
 31 30  2  0  0  0  0
 32 27  2  0  0  0  0
 32 31  1  0  0  0  0
 36 31  1  0  0  0  0
M  END
>  <minimizedAffinity>
-5.08883286

$$$$

 OpenBabel03272504513D

 36 38  0  0  1  0  0  0  0  0999 V2000
   35.2690   25.6320   30.8820 C   0  0  0  0  0  0  0  0  0  0  0  0
   36.1670   26.3400   31.6650 C   0  0  0  0  0  0  0  0  0  0  0  0
   37.0340   25.5980   32.4450 C   0  0  0  0  0  0  0  0  0  0  0  0
   36.9720   24.2370   32.4140 N   0  0  0  0  0  0  0  0  0  0  0  0
   36.0820   23.5870   31.6380 C   0  0  0  0  0  0  0  0  0  0  0  0
   35.2390   24.2920   30.8790 N   0  0  0  0  0  0  0  0  0  0  0  0
   34.5620   26.1160   30.2480 H   0  0  0  0  0  0  0  0  0  0  0  0
   37.7730   26.0380   33.0930 H   0  0  0  0  0  0  0  0  0  0  0  0
   36.1800   27.7610   31.6610 N   0  0  0  0  0  0  0  0  0  0  0  0
   35.8140   28.4000   32.9250 C   0  0  0  0  0  0  0  0  0  0  0  0
   35.8790   29.8930   32.8330 C   0  0  0  0  0  0  0  0  0  0  0  0
   35.2990   30.3400   31.4880 C   0  0  0  0  0  0  0  0  0  0  0  0
   36.3250   29.8990   30.4690 C   0  0  0  0  0  0  0  0  0  0  0  0
   36.5540   28.4340   30.4570 C   0  0  1  0  0  0  0  0  0  0  0  0
   34.7770   28.1030   33.1660 H   0  0  0  0  0  0  0  0  0  0  0  0
   36.5060   28.0610   33.7260 H   0  0  0  0  0  0  0  0  0  0  0  0
   35.3380   30.3270   33.6910 H   0  0  0  0  0  0  0  0  0  0  0  0
   36.9460   30.1870   32.8570 H   0  0  0  0  0  0  0  0  0  0  0  0
   34.3450   29.8500   31.2710 H   0  0  0  0  0  0  0  0  0  0  0  0
   35.2710   31.4340   31.4740 H   0  0  0  0  0  0  0  0  0  0  0  0
   35.9370   30.2440   29.4870 H   0  0  0  0  0  0  0  0  0  0  0  0
   37.2510   30.5000   30.6550 H   0  0  0  0  0  0  0  0  0  0  0  0
   36.0960   27.9930   29.5460 H   0  0  0  0  0  0  0  0  0  0  0  0
   38.0690   28.2390   30.2950 C   0  0  0  0  0  2  0  0  0  0  0  0
   38.7070   29.3050   29.4690 C   0  0  0  0  0  2  0  0  0  0  0  0
   39.7570   29.4680   29.7880 H   0  0  0  0  0  0  0  0  0  0  0  0
   36.0400   22.1380   31.6300 C   0  0  0  0  0  0  0  0  0  0  0  0
   35.0660   21.4640   32.3380 C   0  0  0  0  0  0  0  0  0  0  0  0
   34.9830   20.0940   32.3630 C   0  0  0  0  0  0  0  0  0  0  0  0
   35.9300   19.4330   31.6390 C   0  0  0  0  0  0  0  0  0  0  0  0
   36.9490   20.0810   30.8960 C   0  0  0  0  0  0  0  0  0  0  0  0
   36.9640   21.4550   30.9220 N   0  0  0  0  0  0  0  0  0  0  0  0
   34.3480   22.0650   32.8900 H   0  0  0  0  0  0  0  0  0  0  0  0
   34.2300   19.5530   32.9110 H   0  0  0  0  0  0  0  0  0  0  0  0
   35.9830   18.3400   31.5690 H   0  0  0  0  0  0  0  0  0  0  0  0
   37.6820   19.5280   30.3340 H   0  0  0  0  0  0  0  0  0  0  0  0
  1  2  1  0  0  0  0
  2  3  2  0  0  0  0
  3  8  1  0  0  0  0
  4  3  1  0  0  0  0
  5  4  2  0  0  0  0
  6  1  2  0  0  0  0
  6  5  1  0  0  0  0
  7  1  1  0  0  0  0
  9  2  1  0  0  0  0
  9 10  1  0  0  0  0
 10 15  1  0  0  0  0
 10 16  1  0  0  0  0
 11 18  1  0  0  0  0
 11 10  1  0  0  0  0
 11 17  1  0  0  0  0
 12 11  1  0  0  0  0
 13 22  1  0  0  0  0
 13 12  1  0  0  0  0
 14 23  1  6  0  0  0
 14 13  1  0  0  0  0
 14  9  1  0  0  0  0
 19 12  1  0  0  0  0
 20 12  1  0  0  0  0
 21 13  1  0  0  0  0
 24 14  1  0  0  0  0
 25 26  1  0  0  0  0
 25 24  1  0  0  0  0
 27  5  1  0  0  0  0
 27 28  1  0  0  0  0
 28 29  2  0  0  0  0
 28 33  1  0  0  0  0
 29 34  1  0  0  0  0
 30 29  1  0  0  0  0
 31 32  1  0  0  0  0
 31 30  2  0  0  0  0
 32 27  2  0  0  0  0
 35 30  1  0  0  0  0
 36 31  1  0  0  0  0
M  END
>  <minimizedAffinity>
-5.0289979

$$$$

 OpenBabel03272504513D

 36 38  0  0  1  0  0  0  0  0999 V2000
   39.9380   25.7840   35.2850 C   0  0  0  0  0  0  0  0  0  0  0  0
   39.7460   24.4120   35.2960 C   0  0  0  0  0  0  0  0  0  0  0  0
   38.6400   23.9320   34.6200 C   0  0  0  0  0  0  0  0  0  0  0  0
   37.8060   24.8040   33.9870 N   0  0  0  0  0  0  0  0  0  0  0  0
   38.0290   26.1330   34.0010 C   0  0  0  0  0  0  0  0  0  0  0  0
   39.0950   26.6100   34.6510 N   0  0  0  0  0  0  0  0  0  0  0  0
   40.7620   26.2470   35.7780 H   0  0  0  0  0  0  0  0  0  0  0  0
   38.3890   22.8860   34.5610 H   0  0  0  0  0  0  0  0  0  0  0  0
   40.6470   23.5520   35.9800 N   0  0  0  0  0  0  0  0  0  0  0  0
   42.0650   23.7630   35.6920 C   0  0  0  0  0  0  0  0  0  0  0  0
   42.9370   22.8300   36.4730 C   0  0  0  0  0  0  0  0  0  0  0  0
   42.3000   21.4370   36.4870 C   0  0  0  0  0  0  0  0  0  0  0  0
   41.0880   21.5850   37.3770 C   0  0  0  0  0  0  0  0  0  0  0  0
   40.1080   22.5820   36.8830 C   0  0  1  0  0  0  0  0  0  0  0  0
   42.2220   23.5770   34.6140 H   0  0  0  0  0  0  0  0  0  0  0  0
   42.3420   24.8090   35.9460 H   0  0  0  0  0  0  0  0  0  0  0  0
   43.9460   22.8280   36.0280 H   0  0  0  0  0  0  0  0  0  0  0  0
   42.9730   23.1970   37.5180 H   0  0  0  0  0  0  0  0  0  0  0  0
   41.9760   21.1270   35.4890 H   0  0  0  0  0  0  0  0  0  0  0  0
   42.9920   20.7500   36.9830 H   0  0  0  0  0  0  0  0  0  0  0  0
   40.6290   20.5740   37.4260 H   0  0  0  0  0  0  0  0  0  0  0  0
   41.4640   21.7940   38.4110 H   0  0  0  0  0  0  0  0  0  0  0  0
   39.2140   22.0590   36.4840 H   0  0  0  0  0  0  0  0  0  0  0  0
   39.6220   23.3540   38.1190 C   0  0  0  0  0  2  0  0  0  0  0  0
   38.1420   23.2910   38.2970 C   0  0  0  0  0  2  0  0  0  0  0  0
   37.8770   23.3540   39.3730 H   0  0  0  0  0  0  0  0  0  0  0  0
   37.1210   27.0340   33.3200 C   0  0  0  0  0  0  0  0  0  0  0  0
   36.5660   28.1050   33.9920 C   0  0  0  0  0  0  0  0  0  0  0  0
   35.7020   28.9870   33.3930 C   0  0  0  0  0  0  0  0  0  0  0  0
   35.4210   28.7400   32.0820 C   0  0  0  0  0  0  0  0  0  0  0  0
   35.9660   27.6540   31.3510 C   0  0  0  0  0  0  0  0  0  0  0  0
   36.8230   26.8150   32.0220 N   0  0  0  0  0  0  0  0  0  0  0  0
   36.8420   28.2330   35.0350 H   0  0  0  0  0  0  0  0  0  0  0  0
   35.2600   29.8270   33.9020 H   0  0  0  0  0  0  0  0  0  0  0  0
   34.7480   29.3620   31.4810 H   0  0  0  0  0  0  0  0  0  0  0  0
   35.7230   27.4860   30.3150 H   0  0  0  0  0  0  0  0  0  0  0  0
  1  2  1  0  0  0  0
  1  7  1  0  0  0  0
  2  9  1  0  0  0  0
  3  2  2  0  0  0  0
  4  5  2  0  0  0  0
  4  3  1  0  0  0  0
  5  6  1  0  0  0  0
  6  1  2  0  0  0  0
  8  3  1  0  0  0  0
  9 14  1  0  0  0  0
 10 16  1  0  0  0  0
 10  9  1  0  0  0  0
 10 11  1  0  0  0  0
 11 12  1  0  0  0  0
 11 18  1  0  0  0  0
 12 20  1  0  0  0  0
 12 13  1  0  0  0  0
 13 21  1  0  0  0  0
 13 22  1  0  0  0  0
 14 23  1  6  0  0  0
 14 13  1  0  0  0  0
 14 24  1  0  0  0  0
 15 10  1  0  0  0  0
 17 11  1  0  0  0  0
 19 12  1  0  0  0  0
 24 25  1  0  0  0  0
 25 26  1  0  0  0  0
 27 28  1  0  0  0  0
 27  5  1  0  0  0  0
 28 33  1  0  0  0  0
 29 34  1  0  0  0  0
 29 28  2  0  0  0  0
 30 29  1  0  0  0  0
 31 32  1  0  0  0  0
 31 30  2  0  0  0  0
 32 27  2  0  0  0  0
 35 30  1  0  0  0  0
 36 31  1  0  0  0  0
M  END
>  <minimizedAffinity>
-5.01218891

$$$$

 OpenBabel03272504513D

 36 38  0  0  1  0  0  0  0  0999 V2000
   37.5620   25.6410   33.8370 C   0  0  0  0  0  0  0  0  0  0  0  0
   38.3250   25.6980   34.9920 C   0  0  0  0  0  0  0  0  0  0  0  0
   38.2830   26.8790   35.7090 C   0  0  0  0  0  0  0  0  0  0  0  0
   37.5140   27.9110   35.2630 N   0  0  0  0  0  0  0  0  0  0  0  0
   36.7860   27.8150   34.1330 C   0  0  0  0  0  0  0  0  0  0  0  0
   36.8180   26.6780   33.4310 N   0  0  0  0  0  0  0  0  0  0  0  0
   37.5300   24.7730   33.2190 H   0  0  0  0  0  0  0  0  0  0  0  0
   38.8350   27.0400   36.6210 H   0  0  0  0  0  0  0  0  0  0  0  0
   39.1140   24.5910   35.4040 N   0  0  0  0  0  0  0  0  0  0  0  0
   40.5570   24.7350   35.2100 C   0  0  0  0  0  0  0  0  0  0  0  0
   41.3060   23.5330   35.6940 C   0  0  0  0  0  0  0  0  0  0  0  0
   40.5460   22.2670   35.2870 C   0  0  0  0  0  0  0  0  0  0  0  0
   39.3150   22.2680   36.1650 C   0  0  0  0  0  0  0  0  0  0  0  0
   38.4520   23.4590   35.9740 C   0  0  1  0  0  0  0  0  0  0  0  0
   40.7420   24.8580   34.1280 H   0  0  0  0  0  0  0  0  0  0  0  0
   40.9180   25.6280   35.7660 H   0  0  0  0  0  0  0  0  0  0  0  0
   42.3300   23.5600   35.2820 H   0  0  0  0  0  0  0  0  0  0  0  0
   41.3310   23.5720   36.8010 H   0  0  0  0  0  0  0  0  0  0  0  0
   40.2370   22.2960   34.2380 H   0  0  0  0  0  0  0  0  0  0  0  0
   41.1500   21.4000   35.5680 H   0  0  0  0  0  0  0  0  0  0  0  0
   38.7640   21.3380   35.9070 H   0  0  0  0  0  0  0  0  0  0  0  0
   39.6640   22.1270   37.2190 H   0  0  0  0  0  0  0  0  0  0  0  0
   37.5310   23.1660   35.4260 H   0  0  0  0  0  0  0  0  0  0  0  0
   37.9860   23.8790   37.3750 C   0  0  0  0  0  2  0  0  0  0  0  0
   38.8480   23.3320   38.4620 C   0  0  0  0  0  2  0  0  0  0  0  0
   38.8570   24.0180   39.3350 H   0  0  0  0  0  0  0  0  0  0  0  0
   35.9790   28.9320   33.6840 C   0  0  0  0  0  0  0  0  0  0  0  0
   35.6430   29.9450   34.5600 C   0  0  0  0  0  0  0  0  0  0  0  0
   34.8820   31.0240   34.1870 C   0  0  0  0  0  0  0  0  0  0  0  0
   34.4740   31.0360   32.8860 C   0  0  0  0  0  0  0  0  0  0  0  0
   34.7940   30.0200   31.9500 C   0  0  0  0  0  0  0  0  0  0  0  0
   35.5600   28.9720   32.4020 N   0  0  0  0  0  0  0  0  0  0  0  0
   36.0070   29.8600   35.5810 H   0  0  0  0  0  0  0  0  0  0  0  0
   34.6090   31.8220   34.8570 H   0  0  0  0  0  0  0  0  0  0  0  0
   33.8620   31.8350   32.4520 H   0  0  0  0  0  0  0  0  0  0  0  0
   34.4560   30.0600   30.9290 H   0  0  0  0  0  0  0  0  0  0  0  0
  1  2  1  0  0  0  0
  2  9  1  0  0  0  0
  2  3  2  0  0  0  0
  3  8  1  0  0  0  0
  4  3  1  0  0  0  0
  5  4  2  0  0  0  0
  6  1  2  0  0  0  0
  6  5  1  0  0  0  0
  7  1  1  0  0  0  0
  9 14  1  0  0  0  0
 10  9  1  0  0  0  0
 10 11  1  0  0  0  0
 10 16  1  0  0  0  0
 11 18  1  0  0  0  0
 12 20  1  0  0  0  0
 12 11  1  0  0  0  0
 12 13  1  0  0  0  0
 13 22  1  0  0  0  0
 14 23  1  6  0  0  0
 14 13  1  0  0  0  0
 14 24  1  0  0  0  0
 15 10  1  0  0  0  0
 17 11  1  0  0  0  0
 19 12  1  0  0  0  0
 21 13  1  0  0  0  0
 24 25  1  0  0  0  0
 25 26  1  0  0  0  0
 27  5  1  0  0  0  0
 27 28  1  0  0  0  0
 28 33  1  0  0  0  0
 29 28  2  0  0  0  0
 29 34  1  0  0  0  0
 30 29  1  0  0  0  0
 31 32  1  0  0  0  0
 31 30  2  0  0  0  0
 32 27  2  0  0  0  0
 35 30  1  0  0  0  0
 36 31  1  0  0  0  0
M  END
>  <minimizedAffinity>
-4.93122196

$$$$

 OpenBabel03272504513D

 36 38  0  0  1  0  0  0  0  0999 V2000
   38.4690   26.7180   35.5300 C   0  0  0  0  0  0  0  0  0  0  0  0
   38.5270   25.4700   34.9300 C   0  0  0  0  0  0  0  0  0  0  0  0
   37.7730   25.2930   33.7840 C   0  0  0  0  0  0  0  0  0  0  0  0
   37.0240   26.3250   33.3050 N   0  0  0  0  0  0  0  0  0  0  0  0
   36.9950   27.5240   33.9200 C   0  0  0  0  0  0  0  0  0  0  0  0
   37.7200   27.7080   35.0270 N   0  0  0  0  0  0  0  0  0  0  0  0
   39.0150   26.9490   36.4150 H   0  0  0  0  0  0  0  0  0  0  0  0
   37.7390   24.3680   33.2340 H   0  0  0  0  0  0  0  0  0  0  0  0
   39.3220   24.4280   35.4800 N   0  0  0  0  0  0  0  0  0  0  0  0
   40.7670   24.5750   35.3040 C   0  0  0  0  0  0  0  0  0  0  0  0
   41.5210   23.4470   35.9360 C   0  0  0  0  0  0  0  0  0  0  0  0
   40.7890   22.1310   35.6560 C   0  0  0  0  0  0  0  0  0  0  0  0
   39.5380   22.2090   36.5010 C   0  0  0  0  0  0  0  0  0  0  0  0
   38.6620   23.3560   36.1580 C   0  0  1  0  0  0  0  0  0  0  0  0
   40.9760   24.5800   34.2200 H   0  0  0  0  0  0  0  0  0  0  0  0
   41.1000   25.5300   35.7640 H   0  0  0  0  0  0  0  0  0  0  0  0
   42.5540   23.4460   35.5470 H   0  0  0  0  0  0  0  0  0  0  0  0
   41.5190   23.6100   37.0320 H   0  0  0  0  0  0  0  0  0  0  0  0
   40.5060   22.0370   34.6030 H   0  0  0  0  0  0  0  0  0  0  0  0
   41.3990   21.3110   36.0460 H   0  0  0  0  0  0  0  0  0  0  0  0
   39.0070   21.2460   36.3350 H   0  0  0  0  0  0  0  0  0  0  0  0
   39.8630   22.1930   37.5710 H   0  0  0  0  0  0  0  0  0  0  0  0
   37.7600   22.9880   35.6250 H   0  0  0  0  0  0  0  0  0  0  0  0
   38.1560   23.9220   37.4930 C   0  0  0  0  0  2  0  0  0  0  0  0
   38.8980   23.3840   38.6700 C   0  0  0  0  0  2  0  0  0  0  0  0
   38.9200   24.1320   39.4900 H   0  0  0  0  0  0  0  0  0  0  0  0
   36.1860   28.6010   33.3850 C   0  0  0  0  0  0  0  0  0  0  0  0
   36.2700   28.9380   32.0490 C   0  0  0  0  0  0  0  0  0  0  0  0
   35.5260   29.9490   31.4920 C   0  0  0  0  0  0  0  0  0  0  0  0
   34.6920   30.6060   32.3470 C   0  0  0  0  0  0  0  0  0  0  0  0
   34.5720   30.2960   33.7260 C   0  0  0  0  0  0  0  0  0  0  0  0
   35.3500   29.2710   34.2060 N   0  0  0  0  0  0  0  0  0  0  0  0
   36.9590   28.3650   31.4340 H   0  0  0  0  0  0  0  0  0  0  0  0
   35.5790   30.2250   30.4530 H   0  0  0  0  0  0  0  0  0  0  0  0
   34.0410   31.4330   32.0400 H   0  0  0  0  0  0  0  0  0  0  0  0
   33.9020   30.8350   34.3740 H   0  0  0  0  0  0  0  0  0  0  0  0
  1  7  1  0  0  0  0
  2  9  1  0  0  0  0
  2  1  2  0  0  0  0
  3  2  1  0  0  0  0
  4  3  2  0  0  0  0
  4  5  1  0  0  0  0
  5  6  2  0  0  0  0
  6  1  1  0  0  0  0
  8  3  1  0  0  0  0
  9 14  1  0  0  0  0
 10  9  1  0  0  0  0
 10 16  1  0  0  0  0
 10 11  1  0  0  0  0
 11 18  1  0  0  0  0
 12 11  1  0  0  0  0
 12 20  1  0  0  0  0
 12 13  1  0  0  0  0
 13 22  1  0  0  0  0
 14 23  1  6  0  0  0
 14 13  1  0  0  0  0
 14 24  1  0  0  0  0
 15 10  1  0  0  0  0
 17 11  1  0  0  0  0
 19 12  1  0  0  0  0
 21 13  1  0  0  0  0
 24 25  1  0  0  0  0
 25 26  1  0  0  0  0
 27  5  1  0  0  0  0
 27 32  1  0  0  0  0
 28 27  2  0  0  0  0
 29 28  1  0  0  0  0
 29 30  2  0  0  0  0
 30 31  1  0  0  0  0
 31 32  2  0  0  0  0
 31 36  1  0  0  0  0
 33 28  1  0  0  0  0
 34 29  1  0  0  0  0
 35 30  1  0  0  0  0
M  END
>  <minimizedAffinity>
-4.85195875

$$$$

 OpenBabel03272504513D

 36 38  0  0  1  0  0  0  0  0999 V2000
   37.4050   24.6220   32.6010 C   0  0  0  0  0  0  0  0  0  0  0  0
   36.7000   23.8890   31.6600 C   0  0  0  0  0  0  0  0  0  0  0  0
   35.7470   24.5700   30.9250 C   0  0  0  0  0  0  0  0  0  0  0  0
   35.5450   25.8980   31.1500 N   0  0  0  0  0  0  0  0  0  0  0  0
   36.2530   26.5750   32.0760 C   0  0  0  0  0  0  0  0  0  0  0  0
   37.1770   25.9290   32.7920 N   0  0  0  0  0  0  0  0  0  0  0  0
   38.1590   24.1850   33.2140 H   0  0  0  0  0  0  0  0  0  0  0  0
   35.1380   24.1040   30.1680 H   0  0  0  0  0  0  0  0  0  0  0  0
   36.9500   22.5020   31.4750 N   0  0  0  0  0  0  0  0  0  0  0  0
   38.3570   22.1050   31.4970 C   0  0  0  0  0  0  0  0  0  0  0  0
   38.5210   20.6280   31.3180 C   0  0  0  0  0  0  0  0  0  0  0  0
   37.5460   20.1380   30.2430 C   0  0  0  0  0  0  0  0  0  0  0  0
   36.1850   20.2460   30.8900 C   0  0  0  0  0  0  0  0  0  0  0  0
   35.8320   21.6280   31.3000 C   0  0  1  0  0  0  0  0  0  0  0  0
   38.8670   22.6220   30.6650 H   0  0  0  0  0  0  0  0  0  0  0  0
   38.8100   22.4000   32.4680 H   0  0  0  0  0  0  0  0  0  0  0  0
   39.5730   20.4140   31.0630 H   0  0  0  0  0  0  0  0  0  0  0  0
   38.2450   20.1390   32.2740 H   0  0  0  0  0  0  0  0  0  0  0  0
   37.5700   20.7720   29.3510 H   0  0  0  0  0  0  0  0  0  0  0  0
   37.7410   19.0770   30.0620 H   0  0  0  0  0  0  0  0  0  0  0  0
   35.4650   19.8650   30.1350 H   0  0  0  0  0  0  0  0  0  0  0  0
   36.1610   19.5060   31.7300 H   0  0  0  0  0  0  0  0  0  0  0  0
   35.0590   22.0330   30.6130 H   0  0  0  0  0  0  0  0  0  0  0  0
   35.1490   21.5070   32.6700 C   0  0  0  0  0  2  0  0  0  0  0  0
   35.5240   20.2600   33.3980 C   0  0  0  0  0  2  0  0  0  0  0  0
   35.4880   20.4240   34.4950 H   0  0  0  0  0  0  0  0  0  0  0  0
   36.0120   27.9880   32.2920 C   0  0  0  0  0  0  0  0  0  0  0  0
   35.8990   28.4880   33.5740 C   0  0  0  0  0  0  0  0  0  0  0  0
   35.6710   29.8160   33.8330 C   0  0  0  0  0  0  0  0  0  0  0  0
   35.5620   30.6200   32.7370 C   0  0  0  0  0  0  0  0  0  0  0  0
   35.6720   30.1530   31.4030 C   0  0  0  0  0  0  0  0  0  0  0  0
   35.9000   28.8090   31.2270 N   0  0  0  0  0  0  0  0  0  0  0  0
   35.9980   27.7810   34.3930 H   0  0  0  0  0  0  0  0  0  0  0  0
   35.5790   30.2230   34.8260 H   0  0  0  0  0  0  0  0  0  0  0  0
   35.3810   31.7000   32.7960 H   0  0  0  0  0  0  0  0  0  0  0  0
   35.5810   30.8150   30.5590 H   0  0  0  0  0  0  0  0  0  0  0  0
  1  6  1  0  0  0  0
  1  7  1  0  0  0  0
  2  1  2  0  0  0  0
  3  4  2  0  0  0  0
  3  2  1  0  0  0  0
  4  5  1  0  0  0  0
  5 27  1  0  0  0  0
  5  6  2  0  0  0  0
  8  3  1  0  0  0  0
  9 10  1  0  0  0  0
  9  2  1  0  0  0  0
 10 16  1  0  0  0  0
 11 10  1  0  0  0  0
 11 18  1  0  0  0  0
 12 13  1  0  0  0  0
 12 11  1  0  0  0  0
 13 14  1  0  0  0  0
 13 22  1  0  0  0  0
 14 23  1  6  0  0  0
 14  9  1  0  0  0  0
 14 24  1  0  0  0  0
 15 10  1  0  0  0  0
 17 11  1  0  0  0  0
 19 12  1  0  0  0  0
 20 12  1  0  0  0  0
 21 13  1  0  0  0  0
 24 25  1  0  0  0  0
 25 26  1  0  0  0  0
 27 28  1  0  0  0  0
 28 29  2  0  0  0  0
 28 33  1  0  0  0  0
 29 34  1  0  0  0  0
 30 35  1  0  0  0  0
 30 29  1  0  0  0  0
 31 30  2  0  0  0  0
 32 31  1  0  0  0  0
 32 27  2  0  0  0  0
 36 31  1  0  0  0  0
M  END
>  <minimizedAffinity>
-4.83802795

$$$$

 OpenBabel03272504513D

 36 38  0  0  1  0  0  0  0  0999 V2000
   37.1430   26.0700   33.7270 C   0  0  0  0  0  0  0  0  0  0  0  0
   37.0930   27.3470   34.2630 C   0  0  0  0  0  0  0  0  0  0  0  0
   37.8140   27.5660   35.4220 C   0  0  0  0  0  0  0  0  0  0  0  0
   38.5250   26.5440   35.9760 N   0  0  0  0  0  0  0  0  0  0  0  0
   38.5460   25.3150   35.4230 C   0  0  0  0  0  0  0  0  0  0  0  0
   37.8540   25.0910   34.3020 N   0  0  0  0  0  0  0  0  0  0  0  0
   36.6210   25.8060   32.8360 H   0  0  0  0  0  0  0  0  0  0  0  0
   37.8490   28.5160   35.9280 H   0  0  0  0  0  0  0  0  0  0  0  0
   36.3280   28.3720   33.6430 N   0  0  0  0  0  0  0  0  0  0  0  0
   35.8900   29.4550   34.5240 C   0  0  0  0  0  0  0  0  0  0  0  0
   35.1130   30.4970   33.7810 C   0  0  0  0  0  0  0  0  0  0  0  0
   34.1670   29.8100   32.7910 C   0  0  0  0  0  0  0  0  0  0  0  0
   35.0790   29.2510   31.7240 C   0  0  0  0  0  0  0  0  0  0  0  0
   36.0650   28.2710   32.2410 C   0  0  1  0  0  0  0  0  0  0  0  0
   35.2420   29.0160   35.3030 H   0  0  0  0  0  0  0  0  0  0  0  0
   36.7780   29.9350   34.9890 H   0  0  0  0  0  0  0  0  0  0  0  0
   34.5760   31.1280   34.5090 H   0  0  0  0  0  0  0  0  0  0  0  0
   35.8330   31.1030   33.1960 H   0  0  0  0  0  0  0  0  0  0  0  0
   33.6150   28.9880   33.2570 H   0  0  0  0  0  0  0  0  0  0  0  0
   33.5460   30.5790   32.3230 H   0  0  0  0  0  0  0  0  0  0  0  0
   34.4070   28.7740   30.9780 H   0  0  0  0  0  0  0  0  0  0  0  0
   35.5420   30.1230   31.1980 H   0  0  0  0  0  0  0  0  0  0  0  0
   35.7760   27.2480   31.9210 H   0  0  0  0  0  0  0  0  0  0  0  0
   37.3880   28.5740   31.5220 C   0  0  0  0  0  2  0  0  0  0  0  0
   37.2170   29.4790   30.3490 C   0  0  0  0  0  2  0  0  0  0  0  0
   38.1310   30.0880   30.1910 H   0  0  0  0  0  0  0  0  0  0  0  0
   39.3110   24.2490   36.0380 C   0  0  0  0  0  0  0  0  0  0  0  0
   38.9460   23.7520   37.2730 C   0  0  0  0  0  0  0  0  0  0  0  0
   39.6360   22.7450   37.9000 C   0  0  0  0  0  0  0  0  0  0  0  0
   40.7150   22.2590   37.2220 C   0  0  0  0  0  0  0  0  0  0  0  0
   41.1280   22.7370   35.9530 C   0  0  0  0  0  0  0  0  0  0  0  0
   40.3850   23.7480   35.3920 N   0  0  0  0  0  0  0  0  0  0  0  0
   38.0730   24.1940   37.7480 H   0  0  0  0  0  0  0  0  0  0  0  0
   39.3650   22.3460   38.8630 H   0  0  0  0  0  0  0  0  0  0  0  0
   41.3550   21.4550   37.6020 H   0  0  0  0  0  0  0  0  0  0  0  0
   41.9860   22.3310   35.4430 H   0  0  0  0  0  0  0  0  0  0  0  0
  1  2  2  0  0  0  0
  1  6  1  0  0  0  0
  2  3  1  0  0  0  0
  3  8  1  0  0  0  0
  3  4  2  0  0  0  0
  5  4  1  0  0  0  0
  5 27  1  0  0  0  0
  6  5  2  0  0  0  0
  7  1  1  0  0  0  0
  9  2  1  0  0  0  0
  9 10  1  0  0  0  0
 10 16  1  0  0  0  0
 10 15  1  0  0  0  0
 11 17  1  0  0  0  0
 11 10  1  0  0  0  0
 12 19  1  0  0  0  0
 12 11  1  0  0  0  0
 13 14  1  0  0  0  0
 13 12  1  0  0  0  0
 14 23  1  6  0  0  0
 14  9  1  0  0  0  0
 18 11  1  0  0  0  0
 20 12  1  0  0  0  0
 21 13  1  0  0  0  0
 22 13  1  0  0  0  0
 24 14  1  0  0  0  0
 25 24  1  0  0  0  0
 26 25  1  0  0  0  0
 27 28  1  0  0  0  0
 28 33  1  0  0  0  0
 28 29  2  0  0  0  0
 29 34  1  0  0  0  0
 30 35  1  0  0  0  0
 30 29  1  0  0  0  0
 31 30  2  0  0  0  0
 32 31  1  0  0  0  0
 32 27  2  0  0  0  0
 36 31  1  0  0  0  0
M  END
>  <minimizedAffinity>
-4.79527378

$$$$

 OpenBabel03272504513D

 36 38  0  0  1  0  0  0  0  0999 V2000
   37.4190   24.5990   32.6290 C   0  0  0  0  0  0  0  0  0  0  0  0
   36.7440   23.9040   31.6380 C   0  0  0  0  0  0  0  0  0  0  0  0
   35.8320   24.6200   30.8850 C   0  0  0  0  0  0  0  0  0  0  0  0
   35.6390   25.9440   31.1410 N   0  0  0  0  0  0  0  0  0  0  0  0
   36.3170   26.5830   32.1150 C   0  0  0  0  0  0  0  0  0  0  0  0
   37.2020   25.9020   32.8490 N   0  0  0  0  0  0  0  0  0  0  0  0
   38.1410   24.1330   33.2590 H   0  0  0  0  0  0  0  0  0  0  0  0
   35.2490   24.1850   30.0900 H   0  0  0  0  0  0  0  0  0  0  0  0
   36.9820   22.5200   31.4220 N   0  0  0  0  0  0  0  0  0  0  0  0
   38.3870   22.1090   31.4400 C   0  0  0  0  0  0  0  0  0  0  0  0
   38.5380   20.6350   31.2290 C   0  0  0  0  0  0  0  0  0  0  0  0
   37.5630   20.1790   30.1390 C   0  0  0  0  0  0  0  0  0  0  0  0
   36.2000   20.2840   30.7840 C   0  0  0  0  0  0  0  0  0  0  0  0
   35.8580   21.6590   31.2240 C   0  0  1  0  0  0  0  0  0  0  0  0
   38.9040   22.6410   30.6220 H   0  0  0  0  0  0  0  0  0  0  0  0
   38.8380   22.3780   32.4190 H   0  0  0  0  0  0  0  0  0  0  0  0
   39.5890   20.4180   30.9720 H   0  0  0  0  0  0  0  0  0  0  0  0
   38.2550   20.1270   32.1720 H   0  0  0  0  0  0  0  0  0  0  0  0
   37.5960   20.8320   29.2620 H   0  0  0  0  0  0  0  0  0  0  0  0
   37.7490   19.1210   29.9350 H   0  0  0  0  0  0  0  0  0  0  0  0
   35.4800   19.9260   30.0180 H   0  0  0  0  0  0  0  0  0  0  0  0
   36.1670   19.5250   31.6060 H   0  0  0  0  0  0  0  0  0  0  0  0
   35.0910   22.0870   30.5440 H   0  0  0  0  0  0  0  0  0  0  0  0
   35.1690   21.5130   32.5880 C   0  0  0  0  0  2  0  0  0  0  0  0
   35.4740   20.2150   33.2570 C   0  0  0  0  0  2  0  0  0  0  0  0
   35.4470   20.3300   34.3610 H   0  0  0  0  0  0  0  0  0  0  0  0
   36.0870   27.9920   32.3630 C   0  0  0  0  0  0  0  0  0  0  0  0
   36.1080   28.8960   31.3190 C   0  0  0  0  0  0  0  0  0  0  0  0
   35.8960   30.2400   31.4990 C   0  0  0  0  0  0  0  0  0  0  0  0
   35.6620   30.6330   32.7840 C   0  0  0  0  0  0  0  0  0  0  0  0
   35.6310   29.7420   33.8870 C   0  0  0  0  0  0  0  0  0  0  0  0
   35.8520   28.4120   33.6240 N   0  0  0  0  0  0  0  0  0  0  0  0
   36.3010   28.5020   30.3250 H   0  0  0  0  0  0  0  0  0  0  0  0
   35.9090   30.9580   30.6970 H   0  0  0  0  0  0  0  0  0  0  0  0
   35.4770   31.6740   33.0730 H   0  0  0  0  0  0  0  0  0  0  0  0
   35.4430   30.0850   34.8900 H   0  0  0  0  0  0  0  0  0  0  0  0
  1  6  1  0  0  0  0
  1  7  1  0  0  0  0
  2  1  2  0  0  0  0
  3  4  2  0  0  0  0
  3  2  1  0  0  0  0
  4  5  1  0  0  0  0
  5 27  1  0  0  0  0
  5  6  2  0  0  0  0
  8  3  1  0  0  0  0
  9 10  1  0  0  0  0
  9  2  1  0  0  0  0
 10 16  1  0  0  0  0
 11 10  1  0  0  0  0
 11 18  1  0  0  0  0
 12 13  1  0  0  0  0
 12 11  1  0  0  0  0
 13 14  1  0  0  0  0
 13 22  1  0  0  0  0
 14 23  1  6  0  0  0
 14  9  1  0  0  0  0
 14 24  1  0  0  0  0
 15 10  1  0  0  0  0
 17 11  1  0  0  0  0
 19 12  1  0  0  0  0
 20 12  1  0  0  0  0
 21 13  1  0  0  0  0
 24 25  1  0  0  0  0
 25 26  1  0  0  0  0
 27 32  1  0  0  0  0
 28 29  1  0  0  0  0
 28 27  2  0  0  0  0
 29 30  2  0  0  0  0
 30 35  1  0  0  0  0
 30 31  1  0  0  0  0
 31 36  1  0  0  0  0
 32 31  2  0  0  0  0
 33 28  1  0  0  0  0
 34 29  1  0  0  0  0
M  END
>  <minimizedAffinity>
-4.78034782

$$$$

 OpenBabel03272504513D

 36 38  0  0  1  0  0  0  0  0999 V2000
   37.2760   26.2840   34.7790 C   0  0  0  0  0  0  0  0  0  0  0  0
   38.2470   25.3080   34.6220 C   0  0  0  0  0  0  0  0  0  0  0  0
   38.9660   25.3280   33.4410 C   0  0  0  0  0  0  0  0  0  0  0  0
   38.6980   26.2800   32.5050 N   0  0  0  0  0  0  0  0  0  0  0  0
   37.7440   27.2130   32.6970 C   0  0  0  0  0  0  0  0  0  0  0  0
   37.0420   27.2050   33.8340 N   0  0  0  0  0  0  0  0  0  0  0  0
   36.6720   26.3500   35.6540 H   0  0  0  0  0  0  0  0  0  0  0  0
   39.7440   24.6190   33.2090 H   0  0  0  0  0  0  0  0  0  0  0  0
   38.4770   24.3350   35.6310 N   0  0  0  0  0  0  0  0  0  0  0  0
   38.1540   24.7510   36.9960 C   0  0  0  0  0  0  0  0  0  0  0  0
   38.4050   23.6560   37.9860 C   0  0  0  0  0  0  0  0  0  0  0  0
   39.7160   22.9470   37.6320 C   0  0  0  0  0  0  0  0  0  0  0  0
   39.4020   22.1850   36.3650 C   0  0  0  0  0  0  0  0  0  0  0  0
   38.9790   23.0540   35.2400 C   0  0  1  0  0  0  0  0  0  0  0  0
   38.7990   25.6120   37.2480 H   0  0  0  0  0  0  0  0  0  0  0  0
   37.0840   25.0430   37.0510 H   0  0  0  0  0  0  0  0  0  0  0  0
   38.4210   24.0890   39.0000 H   0  0  0  0  0  0  0  0  0  0  0  0
   37.5840   22.9180   37.8900 H   0  0  0  0  0  0  0  0  0  0  0  0
   40.5240   23.6570   37.4310 H   0  0  0  0  0  0  0  0  0  0  0  0
   39.9290   22.2110   38.4130 H   0  0  0  0  0  0  0  0  0  0  0  0
   40.3340   21.6360   36.1080 H   0  0  0  0  0  0  0  0  0  0  0  0
   38.6530   21.3970   36.6320 H   0  0  0  0  0  0  0  0  0  0  0  0
   39.7950   23.1130   34.4880 H   0  0  0  0  0  0  0  0  0  0  0  0
   37.8240   22.3220   34.5430 C   0  0  0  0  0  2  0  0  0  0  0  0
   36.9980   21.5120   35.4850 C   0  0  0  0  0  2  0  0  0  0  0  0
   35.9490   21.4490   35.1270 H   0  0  0  0  0  0  0  0  0  0  0  0
   37.4820   28.2120   31.6800 C   0  0  0  0  0  0  0  0  0  0  0  0
   36.4950   29.1580   31.8700 C   0  0  0  0  0  0  0  0  0  0  0  0
   36.2070   30.1250   30.9390 C   0  0  0  0  0  0  0  0  0  0  0  0
   36.9620   30.0940   29.8040 C   0  0  0  0  0  0  0  0  0  0  0  0
   37.9860   29.1420   29.5650 C   0  0  0  0  0  0  0  0  0  0  0  0
   38.2130   28.2070   30.5460 N   0  0  0  0  0  0  0  0  0  0  0  0
   35.9380   29.1140   32.8020 H   0  0  0  0  0  0  0  0  0  0  0  0
   35.4410   30.8700   31.0710 H   0  0  0  0  0  0  0  0  0  0  0  0
   36.8410   30.8040   28.9790 H   0  0  0  0  0  0  0  0  0  0  0  0
   38.5650   29.1460   28.6570 H   0  0  0  0  0  0  0  0  0  0  0  0
  1  7  1  0  0  0  0
  2  1  1  0  0  0  0
  2  9  1  0  0  0  0
  3  2  2  0  0  0  0
  4  5  2  0  0  0  0
  4  3  1  0  0  0  0
  5  6  1  0  0  0  0
  6  1  2  0  0  0  0
  8  3  1  0  0  0  0
  9 10  1  0  0  0  0
 10 16  1  0  0  0  0
 10 15  1  0  0  0  0
 10 11  1  0  0  0  0
 11 17  1  0  0  0  0
 12 11  1  0  0  0  0
 12 20  1  0  0  0  0
 13 22  1  0  0  0  0
 13 12  1  0  0  0  0
 14 23  1  6  0  0  0
 14  9  1  0  0  0  0
 14 13  1  0  0  0  0
 18 11  1  0  0  0  0
 19 12  1  0  0  0  0
 21 13  1  0  0  0  0
 24 14  1  0  0  0  0
 24 25  1  0  0  0  0
 26 25  1  0  0  0  0
 27 28  1  0  0  0  0
 27  5  1  0  0  0  0
 28 33  1  0  0  0  0
 29 34  1  0  0  0  0
 29 28  2  0  0  0  0
 30 29  1  0  0  0  0
 31 30  2  0  0  0  0
 31 32  1  0  0  0  0
 32 27  2  0  0  0  0
 35 30  1  0  0  0  0
 36 31  1  0  0  0  0
M  END
>  <minimizedAffinity>
-4.76676083

$$$$
