
 OpenBabel03272510233D

 25 27  0  0  0  0  0  0  0  0999 V2000
   36.2900   30.2230   46.9380 C   0  0  0  0  0  0  0  0  0  0  0  0
   37.1090   30.7470   47.9290 C   0  0  0  0  0  0  0  0  0  0  0  0
   38.1270   31.6430   47.6220 C   0  0  0  0  0  0  0  0  0  0  0  0
   38.2640   31.9750   46.2650 C   0  0  0  0  0  0  0  0  0  0  0  0
   39.1800   32.8250   45.7370 N   0  0  0  0  0  0  0  0  0  0  0  0
   38.9400   32.8360   44.4200 C   0  0  0  0  0  0  0  0  0  0  0  0
   37.9170   32.0340   44.0980 N   0  0  0  0  0  0  0  0  0  0  0  0
   37.4660   31.4730   45.2500 C   0  0  0  0  0  0  0  0  0  0  0  0
   36.4650   30.5820   45.6020 C   0  0  0  0  0  0  0  0  0  0  0  0
   35.4840   29.5220   47.1290 H   0  0  0  0  0  0  0  0  0  0  0  0
   38.7670   32.0550   48.3840 H   0  0  0  0  0  0  0  0  0  0  0  0
   39.9430   33.3860   46.2000 H   0  0  0  0  0  0  0  0  0  0  0  0
   35.8400   30.1840   44.8370 H   0  0  0  0  0  0  0  0  0  0  0  0
   37.3690   30.0870   51.6280 C   0  0  0  0  0  0  0  0  0  0  0  0
   37.7310   30.5380   50.3610 C   0  0  0  0  0  0  0  0  0  0  0  0
   36.8600   30.3260   49.3060 C   0  0  0  0  0  0  0  0  0  0  0  0
   35.6790   29.6820   49.5480 N   0  0  0  0  0  0  0  0  0  0  0  0
   35.3480   29.2530   50.7890 C   0  0  0  0  0  0  0  0  0  0  0  0
   36.1980   29.4600   51.8180 N   0  0  0  0  0  0  0  0  0  0  0  0
   38.1180   30.3000   52.3930 H   0  0  0  0  0  0  0  0  0  0  0  0
   38.6400   31.0400   50.1400 H   0  0  0  0  0  0  0  0  0  0  0  0
   34.4210   28.7450   50.9960 H   0  0  0  0  0  0  0  0  0  0  0  0
   39.6720   33.6170   43.3670 C   0  0  0  0  0  2  0  0  0  0  0  0
   39.0750   33.3620   41.9920 C   0  0  0  0  0  2  0  0  0  0  0  0
   39.8630   33.0280   41.2800 H   0  0  0  0  0  0  0  0  0  0  0  0
  1 10  1  0  0  0  0
  1  2  1  0  0  0  0
  2 16  1  0  0  0  0
  3  2  2  0  0  0  0
  3 11  1  0  0  0  0
  4  3  1  0  0  0  0
  5 12  1  0  0  0  0
  5  4  1  0  0  0  0
  6  5  1  0  0  0  0
  7  6  2  0  0  0  0
  7  8  1  0  0  0  0
  8  9  1  0  0  0  0
  8  4  2  0  0  0  0
  9  1  2  0  0  0  0
 13  9  1  0  0  0  0
 14 19  1  0  0  0  0
 14 20  1  0  0  0  0
 15 14  2  0  0  0  0
 16 17  2  0  0  0  0
 16 15  1  0  0  0  0
 17 18  1  0  0  0  0
 18 22  1  0  0  0  0
 18 19  2  0  0  0  0
 21 15  1  0  0  0  0
 23  6  1  0  0  0  0
 24 23  1  0  0  0  0
 25 24  1  0  0  0  0
M  END
>  <minimizedAffinity>
-5.19927788

>  <minimizedRMSD>
1.17721474

$$$$
