
 OpenBabel03272502373D

 24 25  0  0  1  0  0  0  0  0999 V2000
   35.2070   29.4560   48.2550 N   0  0  0  0  0  0  0  0  0  0  0  0
   35.9770   30.3080   47.3610 C   0  0  0  0  0  0  0  0  0  0  0  0
   36.8110   31.1220   48.3290 C   0  0  0  0  0  0  0  0  0  0  0  0
   36.4670   30.6310   49.7120 C   0  0  1  0  0  0  0  0  0  0  0  0
   36.0210   29.2160   49.4450 C   0  0  0  0  0  0  0  0  0  0  0  0
   36.5880   29.7160   46.6580 H   0  0  0  0  0  0  0  0  0  0  0  0
   35.3210   31.0150   46.8250 H   0  0  0  0  0  0  0  0  0  0  0  0
   36.5760   32.2240   48.2560 H   0  0  0  0  0  0  0  0  0  0  0  0
   37.8960   31.0690   48.0890 H   0  0  0  0  0  0  0  0  0  0  0  0
   35.6850   31.2170   50.2030 H   0  0  0  0  0  0  0  0  0  0  0  0
   35.4270   28.8010   50.2710 H   0  0  0  0  0  0  0  0  0  0  0  0
   36.8570   28.5490   49.2360 H   0  0  0  0  0  0  0  0  0  0  0  0
   33.9100   28.9420   48.0350 C   0  0  0  0  0  0  0  0  0  0  0  0
   33.2780   29.2830   46.8430 C   0  0  0  0  0  0  0  0  0  0  0  0
   31.9940   28.8120   46.5540 C   0  0  0  0  0  0  0  0  0  0  0  0
   31.4210   28.0140   47.5020 N   0  0  0  0  0  0  0  0  0  0  0  0
   32.0560   27.6980   48.6530 C   0  0  0  0  0  0  0  0  0  0  0  0
   33.3060   28.1620   48.9240 N   0  0  0  0  0  0  0  0  0  0  0  0
   33.6800   29.9040   46.0650 H   0  0  0  0  0  0  0  0  0  0  0  0
   31.4540   29.0430   45.6470 H   0  0  0  0  0  0  0  0  0  0  0  0
   31.4980   27.0700   49.3010 H   0  0  0  0  0  0  0  0  0  0  0  0
   37.6680   30.6220   50.6300 C   0  0  0  0  0  0  0  0  0  0  0  0
   37.4270   29.9260   51.9260 C   0  0  0  0  0  0  0  0  0  0  0  0
   36.5120   29.2820   51.9100 H   0  0  0  0  0  0  0  0  0  0  0  0
  1  5  1  0  0  0  0
  2  1  1  0  0  0  0
  2  3  1  0  0  0  0
  3  4  1  0  0  0  0
  4 10  1  1  0  0  0
  4 22  1  0  0  0  0
  5  4  1  0  0  0  0
  5 11  1  0  0  0  0
  6  2  1  0  0  0  0
  7  2  1  0  0  0  0
  8  3  1  0  0  0  0
  9  3  1  0  0  0  0
 12  5  1  0  0  0  0
 13  1  1  0  0  0  0
 13 18  1  0  0  0  0
 14 13  2  0  0  0  0
 15 14  1  0  0  0  0
 15 16  2  0  0  0  0
 16 17  1  0  0  0  0
 17 18  2  0  0  0  0
 17 21  1  0  0  0  0
 19 14  1  0  0  0  0
 20 15  1  0  0  0  0
 22 23  1  0  0  0  0
 24 23  1  0  0  0  0
M  END
>  <minimizedAffinity>
-4.29978085

>  <minimizedRMSD>
1.89742088

$$$$
