
 OpenBabel03272510223D

 25 27  0  0  0  0  0  0  0  0999 V2000
   36.3370   30.2530   46.9770 C   0  0  0  0  0  0  0  0  0  0  0  0
   37.1440   30.7620   47.9850 C   0  0  0  0  0  0  0  0  0  0  0  0
   38.1690   31.6590   47.7020 C   0  0  0  0  0  0  0  0  0  0  0  0
   38.3250   32.0070   46.3510 C   0  0  0  0  0  0  0  0  0  0  0  0
   39.2500   32.8600   45.8450 N   0  0  0  0  0  0  0  0  0  0  0  0
   39.0280   32.8880   44.5260 C   0  0  0  0  0  0  0  0  0  0  0  0
   38.0070   32.0930   44.1810 N   0  0  0  0  0  0  0  0  0  0  0  0
   37.5400   31.5200   45.3200 C   0  0  0  0  0  0  0  0  0  0  0  0
   36.5310   30.6270   45.6480 C   0  0  0  0  0  0  0  0  0  0  0  0
   35.5270   29.5520   47.1490 H   0  0  0  0  0  0  0  0  0  0  0  0
   38.8000   32.0610   48.4780 H   0  0  0  0  0  0  0  0  0  0  0  0
   40.0090   33.4140   46.3250 H   0  0  0  0  0  0  0  0  0  0  0  0
   35.9150   30.2400   44.8700 H   0  0  0  0  0  0  0  0  0  0  0  0
   37.3540   30.0570   51.6780 C   0  0  0  0  0  0  0  0  0  0  0  0
   37.7340   30.5210   50.4220 C   0  0  0  0  0  0  0  0  0  0  0  0
   36.8760   30.3260   49.3540 C   0  0  0  0  0  0  0  0  0  0  0  0
   35.6890   29.6850   49.5730 N   0  0  0  0  0  0  0  0  0  0  0  0
   35.3400   29.2420   50.8030 C   0  0  0  0  0  0  0  0  0  0  0  0
   36.1780   29.4330   51.8460 N   0  0  0  0  0  0  0  0  0  0  0  0
   38.0940   30.2570   52.4560 H   0  0  0  0  0  0  0  0  0  0  0  0
   38.6480   31.0220   50.2190 H   0  0  0  0  0  0  0  0  0  0  0  0
   34.4090   28.7350   50.9920 H   0  0  0  0  0  0  0  0  0  0  0  0
   39.7760   33.6790   43.4920 C   0  0  0  0  0  2  0  0  0  0  0  0
   39.1910   33.4480   42.1070 C   0  0  0  0  0  2  0  0  0  0  0  0
   39.9820   33.1180   41.3980 H   0  0  0  0  0  0  0  0  0  0  0  0
  1 10  1  0  0  0  0
  1  2  1  0  0  0  0
  2 16  1  0  0  0  0
  3  2  2  0  0  0  0
  3 11  1  0  0  0  0
  4  3  1  0  0  0  0
  5 12  1  0  0  0  0
  5  4  1  0  0  0  0
  6  5  1  0  0  0  0
  7  6  2  0  0  0  0
  7  8  1  0  0  0  0
  8  9  1  0  0  0  0
  8  4  2  0  0  0  0
  9  1  2  0  0  0  0
 13  9  1  0  0  0  0
 14 19  1  0  0  0  0
 14 20  1  0  0  0  0
 15 14  2  0  0  0  0
 16 17  2  0  0  0  0
 16 15  1  0  0  0  0
 17 18  1  0  0  0  0
 18 22  1  0  0  0  0
 18 19  2  0  0  0  0
 21 15  1  0  0  0  0
 23  6  1  0  0  0  0
 24 23  1  0  0  0  0
 25 24  1  0  0  0  0
M  END
>  <minimizedAffinity>
-5.20490694

>  <minimizedRMSD>
0.970149636

$$$$
