
 OpenBabel03272510013D

 15 15  0  0  0  0  0  0  0  0999 V2000
   38.2690   31.3210   50.1630 C   0  0  0  0  0  0  0  0  0  0  0  0
   38.4260   31.4390   48.7820 C   0  0  0  0  0  0  0  0  0  0  0  0
   37.4610   30.8480   47.9460 C   0  0  0  0  0  0  0  0  0  0  0  0
   36.4310   30.1960   48.5470 N   0  0  0  0  0  0  0  0  0  0  0  0
   36.3110   30.1020   49.8720 C   0  0  0  0  0  0  0  0  0  0  0  0
   37.2300   30.6640   50.6760 N   0  0  0  0  0  0  0  0  0  0  0  0
   39.0150   31.7780   50.7750 H   0  0  0  0  0  0  0  0  0  0  0  0
   39.2340   31.9510   48.2770 H   0  0  0  0  0  0  0  0  0  0  0  0
   35.1510   29.3660   50.4330 C   0  0  0  0  0  0  0  0  0  0  0  0
   35.2620   29.1170   51.7850 F   0  0  0  0  0  0  0  0  0  0  0  0
   33.9750   30.0730   50.2600 F   0  0  0  0  0  0  0  0  0  0  0  0
   34.9400   28.1490   49.8150 F   0  0  0  0  0  0  0  0  0  0  0  0
   37.4600   30.8680   46.4790 C   0  0  0  0  0  2  0  0  0  0  0  0
   38.8080   30.6160   45.8680 C   0  0  0  0  0  2  0  0  0  0  0  0
   39.1030   29.5490   45.9330 H   0  0  0  0  0  0  0  0  0  0  0  0
  1  6  1  0  0  0  0
  1  7  1  0  0  0  0
  2  1  2  0  0  0  0
  3  4  2  0  0  0  0
  3  2  1  0  0  0  0
  4  5  1  0  0  0  0
  5  9  1  0  0  0  0
  5  6  2  0  0  0  0
  8  2  1  0  0  0  0
  9 10  1  0  0  0  0
 11  9  1  0  0  0  0
 12  9  1  0  0  0  0
 13  3  1  0  0  0  0
 14 15  1  0  0  0  0
 14 13  1  0  0  0  0
M  END
>  <minimizedAffinity>
-4.59534311

>  <minimizedRMSD>
0.466330796

$$$$
