
 OpenBabel03272505333D

 34 36  0  0  0  0  0  0  0  0999 V2000
   37.1780   25.0070   32.2500 N   0  0  0  0  0  0  0  0  0  0  0  0
   37.9880   24.7320   33.3060 C   0  0  0  0  0  0  0  0  0  0  0  0
   38.0840   23.4600   33.8570 C   0  0  0  0  0  0  0  0  0  0  0  0
   37.3040   22.4610   33.2760 C   0  0  0  0  0  0  0  0  0  0  0  0
   37.3570   21.2870   33.7420 O   0  0  0  0  0  0  0  0  0  0  0  0
   36.4870   22.7300   32.2130 N   0  0  0  0  0  0  0  0  0  0  0  0
   36.4830   23.9790   31.7780 C   0  0  0  0  0  0  0  0  0  0  0  0
   35.7230   24.1950   30.8030 O   0  0  0  0  0  0  0  0  0  0  0  0
   38.6020   25.5120   33.7650 H   0  0  0  0  0  0  0  0  0  0  0  0
   37.9240   28.0390   30.2450 C   0  0  0  0  0  0  0  0  0  0  0  0
   38.0210   26.7500   30.7880 C   0  0  0  0  0  0  0  0  0  0  0  0
   37.0890   26.2890   31.7040 C   0  0  0  0  0  0  0  0  0  0  0  0
   36.0900   27.1270   32.0490 N   0  0  0  0  0  0  0  0  0  0  0  0
   35.9700   28.3840   31.5380 C   0  0  0  0  0  0  0  0  0  0  0  0
   36.9120   28.8200   30.6280 N   0  0  0  0  0  0  0  0  0  0  0  0
   38.6580   28.4000   29.5260 H   0  0  0  0  0  0  0  0  0  0  0  0
   38.8560   26.1420   30.4550 H   0  0  0  0  0  0  0  0  0  0  0  0
   35.1320   28.9810   31.8790 H   0  0  0  0  0  0  0  0  0  0  0  0
   38.9300   23.1260   34.9760 C   0  0  0  0  0  0  0  0  0  0  0  0
   40.1630   22.5340   34.8440 C   0  0  0  0  0  0  0  0  0  0  0  0
   40.9970   22.2030   35.8900 C   0  0  0  0  0  0  0  0  0  0  0  0
   40.5780   22.4780   37.1850 C   0  0  0  0  0  0  0  0  0  0  0  0
   39.3180   23.0820   37.2860 C   0  0  0  0  0  0  0  0  0  0  0  0
   38.5590   23.3780   36.2330 N   0  0  0  0  0  0  0  0  0  0  0  0
   40.5310   22.3000   33.8490 H   0  0  0  0  0  0  0  0  0  0  0  0
   41.9610   21.7370   35.7420 H   0  0  0  0  0  0  0  0  0  0  0  0
   41.1830   22.2450   38.0600 H   0  0  0  0  0  0  0  0  0  0  0  0
   38.8920   23.3680   38.6880 C   0  0  0  0  0  2  0  0  0  0  0  0
   37.9130   24.4860   38.7910 C   0  0  0  0  0  2  0  0  0  0  0  0
   37.1510   24.5210   38.0150 H   0  0  0  0  0  0  0  0  0  0  0  0
   35.6920   21.6750   31.6330 C   0  0  0  0  0  0  0  0  0  0  0  0
   36.4490   20.5830   31.3710 F   0  0  0  0  0  0  0  0  0  0  0  0
   35.0850   22.0340   30.4390 F   0  0  0  0  0  0  0  0  0  0  0  0
   34.7030   21.3090   32.5620 F   0  0  0  0  0  0  0  0  0  0  0  0
  1  2  1  0  0  0  0
  2  9  1  0  0  0  0
  2  3  2  0  0  0  0
  3 19  1  0  0  0  0
  4  5  2  0  0  0  0
  4  3  1  0  0  0  0
  6  4  1  0  0  0  0
  7  6  1  0  0  0  0
  7  1  1  0  0  0  0
  8  7  2  0  0  0  0
 10 15  2  0  0  0  0
 10 11  1  0  0  0  0
 11 12  2  0  0  0  0
 12 13  1  0  0  0  0
 12  1  1  0  0  0  0
 14 18  1  0  0  0  0
 14 13  2  0  0  0  0
 15 14  1  0  0  0  0
 16 10  1  0  0  0  0
 17 11  1  0  0  0  0
 19 24  1  0  0  0  0
 20 19  2  0  0  0  0
 20 21  1  0  0  0  0
 21 22  2  0  0  0  0
 22 23  1  0  0  0  0
 22 27  1  0  0  0  0
 23 28  1  0  0  0  0
 24 23  2  0  0  0  0
 25 20  1  0  0  0  0
 26 21  1  0  0  0  0
 28 29  1  0  0  0  0
 30 29  1  0  0  0  0
 31  6  1  0  0  0  0
 31 34  1  0  0  0  0
 32 31  1  0  0  0  0
 33 31  1  0  0  0  0
M  END
>  <minimizedAffinity>
-6.03514004

$$$$

 OpenBabel03272505333D

 34 36  0  0  0  0  0  0  0  0999 V2000
   37.2420   25.3830   32.5090 N   0  0  0  0  0  0  0  0  0  0  0  0
   37.8550   25.1360   33.6970 C   0  0  0  0  0  0  0  0  0  0  0  0
   38.0010   23.8520   34.2050 C   0  0  0  0  0  0  0  0  0  0  0  0
   37.4870   22.8080   33.4370 C   0  0  0  0  0  0  0  0  0  0  0  0
   37.5960   21.6210   33.8560 O   0  0  0  0  0  0  0  0  0  0  0  0
   36.8700   23.0480   32.2410 N   0  0  0  0  0  0  0  0  0  0  0  0
   36.7920   24.3140   31.8640 C   0  0  0  0  0  0  0  0  0  0  0  0
   36.2200   24.5020   30.7640 O   0  0  0  0  0  0  0  0  0  0  0  0
   38.2600   25.9520   34.3040 H   0  0  0  0  0  0  0  0  0  0  0  0
   37.9170   28.5510   30.6990 C   0  0  0  0  0  0  0  0  0  0  0  0
   38.0680   27.2490   31.1970 C   0  0  0  0  0  0  0  0  0  0  0  0
   37.1010   26.6790   32.0090 C   0  0  0  0  0  0  0  0  0  0  0  0
   36.0140   27.4240   32.2970 N   0  0  0  0  0  0  0  0  0  0  0  0
   35.8400   28.6910   31.8280 C   0  0  0  0  0  0  0  0  0  0  0  0
   36.8180   29.2370   31.0210 N   0  0  0  0  0  0  0  0  0  0  0  0
   38.6790   28.9980   30.0610 H   0  0  0  0  0  0  0  0  0  0  0  0
   38.9730   26.7200   30.9150 H   0  0  0  0  0  0  0  0  0  0  0  0
   34.9320   29.2080   32.1170 H   0  0  0  0  0  0  0  0  0  0  0  0
   38.6440   23.5470   35.4590 C   0  0  0  0  0  0  0  0  0  0  0  0
   38.0030   23.6020   36.6740 C   0  0  0  0  0  0  0  0  0  0  0  0
   38.5870   23.3170   37.8890 C   0  0  0  0  0  0  0  0  0  0  0  0
   39.9240   22.9450   37.9120 C   0  0  0  0  0  0  0  0  0  0  0  0
   40.5490   22.8990   36.6590 C   0  0  0  0  0  0  0  0  0  0  0  0
   39.9280   23.1860   35.5170 N   0  0  0  0  0  0  0  0  0  0  0  0
   36.9550   23.8880   36.7030 H   0  0  0  0  0  0  0  0  0  0  0  0
   38.0450   23.3720   38.8230 H   0  0  0  0  0  0  0  0  0  0  0  0
   40.4510   22.7050   38.8330 H   0  0  0  0  0  0  0  0  0  0  0  0
   41.9860   22.4970   36.7110 C   0  0  0  0  0  2  0  0  0  0  0  0
   42.1870   21.0740   37.1040 C   0  0  0  0  0  2  0  0  0  0  0  0
   41.4790   20.3630   36.6840 H   0  0  0  0  0  0  0  0  0  0  0  0
   36.3470   21.9480   31.4680 C   0  0  0  0  0  0  0  0  0  0  0  0
   35.3080   22.3460   30.6950 F   0  0  0  0  0  0  0  0  0  0  0  0
   35.8840   20.8970   32.2450 F   0  0  0  0  0  0  0  0  0  0  0  0
   37.3680   21.4820   30.6210 F   0  0  0  0  0  0  0  0  0  0  0  0
  1  2  1  0  0  0  0
  2  3  2  0  0  0  0
  2  9  1  0  0  0  0
  3 19  1  0  0  0  0
  4  5  2  0  0  0  0
  4  3  1  0  0  0  0
  6  4  1  0  0  0  0
  7  6  1  0  0  0  0
  7  1  1  0  0  0  0
  8  7  2  0  0  0  0
 10 15  2  0  0  0  0
 10 11  1  0  0  0  0
 11 12  2  0  0  0  0
 12 13  1  0  0  0  0
 12  1  1  0  0  0  0
 14 18  1  0  0  0  0
 14 13  2  0  0  0  0
 15 14  1  0  0  0  0
 16 10  1  0  0  0  0
 17 11  1  0  0  0  0
 19 24  2  0  0  0  0
 19 20  1  0  0  0  0
 20 25  1  0  0  0  0
 20 21  2  0  0  0  0
 21 22  1  0  0  0  0
 21 26  1  0  0  0  0
 22 27  1  0  0  0  0
 23 28  1  0  0  0  0
 23 22  2  0  0  0  0
 24 23  1  0  0  0  0
 28 29  1  0  0  0  0
 30 29  1  0  0  0  0
 31  6  1  0  0  0  0
 31 33  1  0  0  0  0
 32 31  1  0  0  0  0
 34 31  1  0  0  0  0
M  END
>  <minimizedAffinity>
-5.94574881

$$$$

 OpenBabel03272505333D

 34 36  0  0  0  0  0  0  0  0999 V2000
   36.0350   29.1690   34.2030 N   0  0  0  0  0  0  0  0  0  0  0  0
   36.7470   28.1850   34.8130 C   0  0  0  0  0  0  0  0  0  0  0  0
   37.4430   27.2200   34.0980 C   0  0  0  0  0  0  0  0  0  0  0  0
   37.3850   27.3000   32.7070 C   0  0  0  0  0  0  0  0  0  0  0  0
   38.0030   26.4450   32.0120 O   0  0  0  0  0  0  0  0  0  0  0  0
   36.6720   28.2880   32.0860 N   0  0  0  0  0  0  0  0  0  0  0  0
   36.0510   29.1480   32.8760 C   0  0  0  0  0  0  0  0  0  0  0  0
   35.4040   30.0420   32.2770 O   0  0  0  0  0  0  0  0  0  0  0  0
   36.7960   28.1170   35.9040 H   0  0  0  0  0  0  0  0  0  0  0  0
   35.2910   32.1100   36.3400 C   0  0  0  0  0  0  0  0  0  0  0  0
   36.0010   31.1450   35.6100 C   0  0  0  0  0  0  0  0  0  0  0  0
   35.3380   30.1350   34.9320 C   0  0  0  0  0  0  0  0  0  0  0  0
   33.9920   30.1190   35.0020 N   0  0  0  0  0  0  0  0  0  0  0  0
   33.2760   31.0430   35.7030 C   0  0  0  0  0  0  0  0  0  0  0  0
   33.9590   32.0390   36.3700 N   0  0  0  0  0  0  0  0  0  0  0  0
   35.8140   32.9040   36.8730 H   0  0  0  0  0  0  0  0  0  0  0  0
   37.0820   31.2330   35.6070 H   0  0  0  0  0  0  0  0  0  0  0  0
   32.1960   30.9440   35.6980 H   0  0  0  0  0  0  0  0  0  0  0  0
   38.2090   26.1600   34.7060 C   0  0  0  0  0  0  0  0  0  0  0  0
   39.5420   25.9440   34.4500 C   0  0  0  0  0  0  0  0  0  0  0  0
   40.3030   24.9420   35.0130 C   0  0  0  0  0  0  0  0  0  0  0  0
   39.6970   24.0730   35.9100 C   0  0  0  0  0  0  0  0  0  0  0  0
   38.3380   24.3190   36.1500 C   0  0  0  0  0  0  0  0  0  0  0  0
   37.6580   25.3070   35.5720 N   0  0  0  0  0  0  0  0  0  0  0  0
   40.0570   26.6000   33.7540 H   0  0  0  0  0  0  0  0  0  0  0  0
   41.3510   24.8080   34.7840 H   0  0  0  0  0  0  0  0  0  0  0  0
   40.2340   23.2600   36.3940 H   0  0  0  0  0  0  0  0  0  0  0  0
   37.7110   23.3710   37.1180 C   0  0  0  0  0  2  0  0  0  0  0  0
   38.2910   23.4550   38.4870 C   0  0  0  0  0  2  0  0  0  0  0  0
   38.5240   24.4570   38.8420 H   0  0  0  0  0  0  0  0  0  0  0  0
   36.6290   28.3460   30.6450 C   0  0  0  0  0  0  0  0  0  0  0  0
   37.8780   28.3670   30.1220 F   0  0  0  0  0  0  0  0  0  0  0  0
   35.9740   29.4660   30.1560 F   0  0  0  0  0  0  0  0  0  0  0  0
   35.9790   27.1900   30.1780 F   0  0  0  0  0  0  0  0  0  0  0  0
  1  2  1  0  0  0  0
  1 12  1  0  0  0  0
  2  9  1  0  0  0  0
  3 19  1  0  0  0  0
  3  2  2  0  0  0  0
  4  3  1  0  0  0  0
  5  4  2  0  0  0  0
  6  4  1  0  0  0  0
  6  7  1  0  0  0  0
  7  1  1  0  0  0  0
  8  7  2  0  0  0  0
 10 15  1  0  0  0  0
 10 16  1  0  0  0  0
 11 10  2  0  0  0  0
 12 13  2  0  0  0  0
 12 11  1  0  0  0  0
 13 14  1  0  0  0  0
 14 15  2  0  0  0  0
 17 11  1  0  0  0  0
 18 14  1  0  0  0  0
 19 24  1  0  0  0  0
 20 19  2  0  0  0  0
 20 21  1  0  0  0  0
 21 22  2  0  0  0  0
 22 23  1  0  0  0  0
 22 27  1  0  0  0  0
 23 28  1  0  0  0  0
 24 23  2  0  0  0  0
 25 20  1  0  0  0  0
 26 21  1  0  0  0  0
 28 29  1  0  0  0  0
 29 30  1  0  0  0  0
 31  6  1  0  0  0  0
 32 31  1  0  0  0  0
 33 31  1  0  0  0  0
 34 31  1  0  0  0  0
M  END
>  <minimizedAffinity>
-5.90371943

$$$$

 OpenBabel03272505333D

 34 36  0  0  0  0  0  0  0  0999 V2000
   38.0860   23.6170   34.2670 N   0  0  0  0  0  0  0  0  0  0  0  0
   38.0260   24.8940   33.8040 C   0  0  0  0  0  0  0  0  0  0  0  0
   37.3510   25.2300   32.6380 C   0  0  0  0  0  0  0  0  0  0  0  0
   36.7260   24.1910   31.9490 C   0  0  0  0  0  0  0  0  0  0  0  0
   36.0980   24.4460   30.8820 O   0  0  0  0  0  0  0  0  0  0  0  0
   36.7810   22.9040   32.4090 N   0  0  0  0  0  0  0  0  0  0  0  0
   37.4540   22.7110   33.5310 C   0  0  0  0  0  0  0  0  0  0  0  0
   37.4880   21.5210   33.9270 O   0  0  0  0  0  0  0  0  0  0  0  0
   38.5140   25.7130   34.3410 H   0  0  0  0  0  0  0  0  0  0  0  0
   38.9200   23.2270   37.8620 C   0  0  0  0  0  0  0  0  0  0  0  0
   38.2270   23.5590   36.6890 C   0  0  0  0  0  0  0  0  0  0  0  0
   38.7670   23.2910   35.4410 C   0  0  0  0  0  0  0  0  0  0  0  0
   39.9790   22.7000   35.4020 N   0  0  0  0  0  0  0  0  0  0  0  0
   40.6750   22.3660   36.5260 C   0  0  0  0  0  0  0  0  0  0  0  0
   40.1160   22.6440   37.7560 N   0  0  0  0  0  0  0  0  0  0  0  0
   38.4940   23.4390   38.8420 H   0  0  0  0  0  0  0  0  0  0  0  0
   37.2580   24.0310   36.8110 H   0  0  0  0  0  0  0  0  0  0  0  0
   41.6430   21.8950   36.3890 H   0  0  0  0  0  0  0  0  0  0  0  0
   37.2630   26.5700   32.1130 C   0  0  0  0  0  0  0  0  0  0  0  0
   38.0650   27.0440   31.1020 C   0  0  0  0  0  0  0  0  0  0  0  0
   38.0070   28.3160   30.5780 C   0  0  0  0  0  0  0  0  0  0  0  0
   37.0750   29.2060   31.0950 C   0  0  0  0  0  0  0  0  0  0  0  0
   36.2730   28.6940   32.1230 C   0  0  0  0  0  0  0  0  0  0  0  0
   36.3780   27.4500   32.5870 N   0  0  0  0  0  0  0  0  0  0  0  0
   38.8090   26.3820   30.6680 H   0  0  0  0  0  0  0  0  0  0  0  0
   38.6580   28.6480   29.7810 H   0  0  0  0  0  0  0  0  0  0  0  0
   36.9720   30.2260   30.7300 H   0  0  0  0  0  0  0  0  0  0  0  0
   35.2790   29.6690   32.6620 C   0  0  0  0  0  2  0  0  0  0  0  0
   35.3580   29.8380   34.1400 C   0  0  0  0  0  2  0  0  0  0  0  0
   36.3620   29.8550   34.5600 H   0  0  0  0  0  0  0  0  0  0  0  0
   36.1250   21.8500   31.6740 C   0  0  0  0  0  0  0  0  0  0  0  0
   35.2670   22.3570   30.7570 F   0  0  0  0  0  0  0  0  0  0  0  0
   35.3880   20.9930   32.4780 F   0  0  0  0  0  0  0  0  0  0  0  0
   37.1080   21.1120   30.9920 F   0  0  0  0  0  0  0  0  0  0  0  0
  1 12  1  0  0  0  0
  2  1  1  0  0  0  0
  2  9  1  0  0  0  0
  3  2  2  0  0  0  0
  4  6  1  0  0  0  0
  4  3  1  0  0  0  0
  5  4  2  0  0  0  0
  6  7  1  0  0  0  0
  7  8  2  0  0  0  0
  7  1  1  0  0  0  0
 10 16  1  0  0  0  0
 11 17  1  0  0  0  0
 11 10  2  0  0  0  0
 12 11  1  0  0  0  0
 13 12  2  0  0  0  0
 13 14  1  0  0  0  0
 14 15  2  0  0  0  0
 15 10  1  0  0  0  0
 18 14  1  0  0  0  0
 19 24  1  0  0  0  0
 19  3  1  0  0  0  0
 20 19  2  0  0  0  0
 21 22  2  0  0  0  0
 21 20  1  0  0  0  0
 22 23  1  0  0  0  0
 23 24  2  0  0  0  0
 23 28  1  0  0  0  0
 25 20  1  0  0  0  0
 26 21  1  0  0  0  0
 27 22  1  0  0  0  0
 28 29  1  0  0  0  0
 29 30  1  0  0  0  0
 31  6  1  0  0  0  0
 31 33  1  0  0  0  0
 32 31  1  0  0  0  0
 34 31  1  0  0  0  0
M  END
>  <minimizedAffinity>
-5.8945899

$$$$

 OpenBabel03272505333D

 34 36  0  0  0  0  0  0  0  0999 V2000
   36.7390   26.8480   32.7530 N   0  0  0  0  0  0  0  0  0  0  0  0
   36.6490   25.6510   32.1160 C   0  0  0  0  0  0  0  0  0  0  0  0
   37.1450   24.4760   32.6670 C   0  0  0  0  0  0  0  0  0  0  0  0
   37.7490   24.5740   33.9200 C   0  0  0  0  0  0  0  0  0  0  0  0
   38.2150   23.5320   34.4640 O   0  0  0  0  0  0  0  0  0  0  0  0
   37.8430   25.7740   34.5670 N   0  0  0  0  0  0  0  0  0  0  0  0
   37.3340   26.8210   33.9400 C   0  0  0  0  0  0  0  0  0  0  0  0
   37.4370   27.9080   34.5580 O   0  0  0  0  0  0  0  0  0  0  0  0
   36.1750   25.5680   31.1330 H   0  0  0  0  0  0  0  0  0  0  0  0
   36.3840   29.8450   30.5940 C   0  0  0  0  0  0  0  0  0  0  0  0
   36.8970   28.6650   31.1540 C   0  0  0  0  0  0  0  0  0  0  0  0
   36.2380   28.0220   32.1890 C   0  0  0  0  0  0  0  0  0  0  0  0
   35.0900   28.5740   32.6340 N   0  0  0  0  0  0  0  0  0  0  0  0
   34.5690   29.7200   32.1090 C   0  0  0  0  0  0  0  0  0  0  0  0
   35.2450   30.3410   31.0790 N   0  0  0  0  0  0  0  0  0  0  0  0
   36.9040   30.3500   29.7810 H   0  0  0  0  0  0  0  0  0  0  0  0
   37.8250   28.2900   30.7360 H   0  0  0  0  0  0  0  0  0  0  0  0
   33.6410   30.0840   32.5360 H   0  0  0  0  0  0  0  0  0  0  0  0
   37.0680   23.1870   32.0250 C   0  0  0  0  0  0  0  0  0  0  0  0
   38.0080   22.7250   31.1350 C   0  0  0  0  0  0  0  0  0  0  0  0
   37.9660   21.5010   30.5050 C   0  0  0  0  0  0  0  0  0  0  0  0
   36.9000   20.6520   30.7750 C   0  0  0  0  0  0  0  0  0  0  0  0
   35.9590   21.1510   31.6860 C   0  0  0  0  0  0  0  0  0  0  0  0
   36.0580   22.3470   32.2620 N   0  0  0  0  0  0  0  0  0  0  0  0
   38.8590   23.3570   30.8940 H   0  0  0  0  0  0  0  0  0  0  0  0
   38.7280   21.1760   29.8110 H   0  0  0  0  0  0  0  0  0  0  0  0
   36.8010   19.6700   30.3150 H   0  0  0  0  0  0  0  0  0  0  0  0
   34.8250   20.2200   31.9580 C   0  0  0  0  0  2  0  0  0  0  0  0
   35.2480   18.9480   32.6070 C   0  0  0  0  0  2  0  0  0  0  0  0
   36.0200   19.0390   33.3690 H   0  0  0  0  0  0  0  0  0  0  0  0
   38.4740   25.8440   35.8630 C   0  0  0  0  0  0  0  0  0  0  0  0
   37.8650   25.0170   36.7460 F   0  0  0  0  0  0  0  0  0  0  0  0
   38.4480   27.1130   36.4220 F   0  0  0  0  0  0  0  0  0  0  0  0
   39.8100   25.4280   35.7240 F   0  0  0  0  0  0  0  0  0  0  0  0
  1  7  1  0  0  0  0
  2  3  2  0  0  0  0
  2  1  1  0  0  0  0
  3  4  1  0  0  0  0
  4  5  2  0  0  0  0
  4  6  1  0  0  0  0
  6 31  1  0  0  0  0
  7  8  2  0  0  0  0
  7  6  1  0  0  0  0
  9  2  1  0  0  0  0
 10 15  2  0  0  0  0
 10 11  1  0  0  0  0
 11 12  2  0  0  0  0
 12 13  1  0  0  0  0
 12  1  1  0  0  0  0
 14 18  1  0  0  0  0
 14 13  2  0  0  0  0
 15 14  1  0  0  0  0
 16 10  1  0  0  0  0
 17 11  1  0  0  0  0
 19 24  1  0  0  0  0
 19  3  1  0  0  0  0
 20 19  2  0  0  0  0
 21 22  2  0  0  0  0
 21 20  1  0  0  0  0
 22 23  1  0  0  0  0
 23 28  1  0  0  0  0
 23 24  2  0  0  0  0
 25 20  1  0  0  0  0
 26 21  1  0  0  0  0
 27 22  1  0  0  0  0
 28 29  1  0  0  0  0
 29 30  1  0  0  0  0
 31 33  1  0  0  0  0
 31 32  1  0  0  0  0
 34 31  1  0  0  0  0
M  END
>  <minimizedAffinity>
-5.82422161

$$$$

 OpenBabel03272505333D

 34 36  0  0  0  0  0  0  0  0999 V2000
   37.0990   26.3370   32.5760 N   0  0  0  0  0  0  0  0  0  0  0  0
   38.1220   25.9500   33.3830 C   0  0  0  0  0  0  0  0  0  0  0  0
   38.4440   24.6140   33.5840 C   0  0  0  0  0  0  0  0  0  0  0  0
   37.6660   23.6700   32.9160 C   0  0  0  0  0  0  0  0  0  0  0  0
   37.9200   22.4410   33.0670 O   0  0  0  0  0  0  0  0  0  0  0  0
   36.6350   24.0520   32.1030 N   0  0  0  0  0  0  0  0  0  0  0  0
   36.4270   25.3530   31.9910 C   0  0  0  0  0  0  0  0  0  0  0  0
   35.4740   25.6720   31.2400 O   0  0  0  0  0  0  0  0  0  0  0  0
   38.7360   26.6870   33.9090 H   0  0  0  0  0  0  0  0  0  0  0  0
   35.7310   29.7450   33.1060 C   0  0  0  0  0  0  0  0  0  0  0  0
   36.0430   28.3940   33.3120 C   0  0  0  0  0  0  0  0  0  0  0  0
   36.7830   27.6830   32.3810 C   0  0  0  0  0  0  0  0  0  0  0  0
   37.1900   28.3420   31.2760 N   0  0  0  0  0  0  0  0  0  0  0  0
   36.9010   29.6540   31.0500 C   0  0  0  0  0  0  0  0  0  0  0  0
   36.1620   30.3400   31.9920 N   0  0  0  0  0  0  0  0  0  0  0  0
   35.1480   30.3020   33.8390 H   0  0  0  0  0  0  0  0  0  0  0  0
   35.6760   27.9420   34.2280 H   0  0  0  0  0  0  0  0  0  0  0  0
   37.2730   30.0940   30.1310 H   0  0  0  0  0  0  0  0  0  0  0  0
   39.5210   24.1610   34.4310 C   0  0  0  0  0  0  0  0  0  0  0  0
   40.8390   24.1520   34.0430 C   0  0  0  0  0  0  0  0  0  0  0  0
   41.8900   23.7270   34.8250 C   0  0  0  0  0  0  0  0  0  0  0  0
   41.6200   23.2690   36.1080 C   0  0  0  0  0  0  0  0  0  0  0  0
   40.2680   23.2910   36.4740 C   0  0  0  0  0  0  0  0  0  0  0  0
   39.2960   23.7150   35.6680 N   0  0  0  0  0  0  0  0  0  0  0  0
   41.0960   24.5020   33.0470 H   0  0  0  0  0  0  0  0  0  0  0  0
   42.9150   23.7360   34.4800 H   0  0  0  0  0  0  0  0  0  0  0  0
   42.3990   22.9180   36.7820 H   0  0  0  0  0  0  0  0  0  0  0  0
   40.0050   22.7940   37.8560 C   0  0  0  0  0  2  0  0  0  0  0  0
   38.7370   23.3150   38.4400 C   0  0  0  0  0  2  0  0  0  0  0  0
   37.8930   23.3780   37.7570 H   0  0  0  0  0  0  0  0  0  0  0  0
   35.8470   23.0510   31.4240 C   0  0  0  0  0  0  0  0  0  0  0  0
   36.6390   22.1590   30.7840 F   0  0  0  0  0  0  0  0  0  0  0  0
   34.9890   23.5780   30.4700 F   0  0  0  0  0  0  0  0  0  0  0  0
   35.0960   22.3570   32.3880 F   0  0  0  0  0  0  0  0  0  0  0  0
  1  2  1  0  0  0  0
  2  3  2  0  0  0  0
  2  9  1  0  0  0  0
  3 19  1  0  0  0  0
  4  5  2  0  0  0  0
  4  3  1  0  0  0  0
  6  4  1  0  0  0  0
  7  6  1  0  0  0  0
  7  1  1  0  0  0  0
  8  7  2  0  0  0  0
 10 11  1  0  0  0  0
 10 16  1  0  0  0  0
 11 17  1  0  0  0  0
 12  1  1  0  0  0  0
 12 11  2  0  0  0  0
 13 12  1  0  0  0  0
 14 13  2  0  0  0  0
 14 15  1  0  0  0  0
 15 10  2  0  0  0  0
 18 14  1  0  0  0  0
 19 24  1  0  0  0  0
 20 19  2  0  0  0  0
 20 21  1  0  0  0  0
 21 22  2  0  0  0  0
 22 23  1  0  0  0  0
 22 27  1  0  0  0  0
 23 28  1  0  0  0  0
 24 23  2  0  0  0  0
 25 20  1  0  0  0  0
 26 21  1  0  0  0  0
 28 29  1  0  0  0  0
 30 29  1  0  0  0  0
 31  6  1  0  0  0  0
 31 34  1  0  0  0  0
 32 31  1  0  0  0  0
 33 31  1  0  0  0  0
M  END
>  <minimizedAffinity>
-5.67558622

$$$$

 OpenBabel03272505333D

 34 36  0  0  0  0  0  0  0  0999 V2000
   38.1520   23.5880   34.2240 N   0  0  0  0  0  0  0  0  0  0  0  0
   38.1200   24.8470   33.7130 C   0  0  0  0  0  0  0  0  0  0  0  0
   37.3830   25.1710   32.5820 C   0  0  0  0  0  0  0  0  0  0  0  0
   36.6650   24.1380   31.9800 C   0  0  0  0  0  0  0  0  0  0  0  0
   35.9780   24.3830   30.9470 O   0  0  0  0  0  0  0  0  0  0  0  0
   36.6920   22.8690   32.4880 N   0  0  0  0  0  0  0  0  0  0  0  0
   37.4310   22.6860   33.5690 C   0  0  0  0  0  0  0  0  0  0  0  0
   37.4370   21.5120   34.0110 O   0  0  0  0  0  0  0  0  0  0  0  0
   38.6810   25.6620   34.1820 H   0  0  0  0  0  0  0  0  0  0  0  0
   40.9390   22.4930   36.4160 C   0  0  0  0  0  0  0  0  0  0  0  0
   40.1990   22.8070   35.2670 C   0  0  0  0  0  0  0  0  0  0  0  0
   38.8970   23.2740   35.3620 C   0  0  0  0  0  0  0  0  0  0  0  0
   38.3760   23.4130   36.5970 N   0  0  0  0  0  0  0  0  0  0  0  0
   39.0710   23.1160   37.7320 C   0  0  0  0  0  0  0  0  0  0  0  0
   40.3650   22.6530   37.6100 N   0  0  0  0  0  0  0  0  0  0  0  0
   41.9620   22.1260   36.3400 H   0  0  0  0  0  0  0  0  0  0  0  0
   40.6950   22.6660   34.3130 H   0  0  0  0  0  0  0  0  0  0  0  0
   38.5630   23.2620   38.6780 H   0  0  0  0  0  0  0  0  0  0  0  0
   37.3210   26.4930   32.0090 C   0  0  0  0  0  0  0  0  0  0  0  0
   36.4300   27.4560   32.4160 C   0  0  0  0  0  0  0  0  0  0  0  0
   36.3450   28.7280   31.8910 C   0  0  0  0  0  0  0  0  0  0  0  0
   37.2160   29.0840   30.8710 C   0  0  0  0  0  0  0  0  0  0  0  0
   38.1120   28.0810   30.4770 C   0  0  0  0  0  0  0  0  0  0  0  0
   38.1440   26.8680   31.0270 N   0  0  0  0  0  0  0  0  0  0  0  0
   35.7290   27.2210   33.2130 H   0  0  0  0  0  0  0  0  0  0  0  0
   35.6270   29.4560   32.2430 H   0  0  0  0  0  0  0  0  0  0  0  0
   37.2070   30.0690   30.4080 H   0  0  0  0  0  0  0  0  0  0  0  0
   39.0370   28.4890   29.3790 C   0  0  0  0  0  2  0  0  0  0  0  0
   39.0550   29.9590   29.1380 C   0  0  0  0  0  2  0  0  0  0  0  0
   39.0210   30.5840   30.0280 H   0  0  0  0  0  0  0  0  0  0  0  0
   35.9400   21.8210   31.8430 C   0  0  0  0  0  0  0  0  0  0  0  0
   36.7350   20.7670   31.5390 F   0  0  0  0  0  0  0  0  0  0  0  0
   35.3390   22.2200   30.6580 F   0  0  0  0  0  0  0  0  0  0  0  0
   34.9490   21.3780   32.7370 F   0  0  0  0  0  0  0  0  0  0  0  0
  1 12  1  0  0  0  0
  2  9  1  0  0  0  0
  2  1  1  0  0  0  0
  3  2  2  0  0  0  0
  4  6  1  0  0  0  0
  4  3  1  0  0  0  0
  5  4  2  0  0  0  0
  6  7  1  0  0  0  0
  7  8  2  0  0  0  0
  7  1  1  0  0  0  0
 10 15  1  0  0  0  0
 11 12  1  0  0  0  0
 11 10  2  0  0  0  0
 12 13  2  0  0  0  0
 13 14  1  0  0  0  0
 14 18  1  0  0  0  0
 15 14  2  0  0  0  0
 16 10  1  0  0  0  0
 17 11  1  0  0  0  0
 19 20  1  0  0  0  0
 19  3  1  0  0  0  0
 20 25  1  0  0  0  0
 21 26  1  0  0  0  0
 21 20  2  0  0  0  0
 22 21  1  0  0  0  0
 23 22  2  0  0  0  0
 23 24  1  0  0  0  0
 24 19  2  0  0  0  0
 27 22  1  0  0  0  0
 28 23  1  0  0  0  0
 29 28  1  0  0  0  0
 29 30  1  0  0  0  0
 31  6  1  0  0  0  0
 31 34  1  0  0  0  0
 32 31  1  0  0  0  0
 33 31  1  0  0  0  0
M  END
>  <minimizedAffinity>
-5.65592813

$$$$

 OpenBabel03272505333D

 34 36  0  0  0  0  0  0  0  0999 V2000
   38.1880   24.6060   34.2050 N   0  0  0  0  0  0  0  0  0  0  0  0
   37.8080   25.9110   34.2260 C   0  0  0  0  0  0  0  0  0  0  0  0
   37.0030   26.4660   33.2400 C   0  0  0  0  0  0  0  0  0  0  0  0
   36.5900   25.6190   32.2120 C   0  0  0  0  0  0  0  0  0  0  0  0
   35.8550   26.0780   31.2910 O   0  0  0  0  0  0  0  0  0  0  0  0
   36.9680   24.3050   32.1840 N   0  0  0  0  0  0  0  0  0  0  0  0
   37.7360   23.8950   33.1790 C   0  0  0  0  0  0  0  0  0  0  0  0
   38.0670   22.6860   33.1260 O   0  0  0  0  0  0  0  0  0  0  0  0
   38.1280   26.5800   35.0310 H   0  0  0  0  0  0  0  0  0  0  0  0
   41.1760   23.3950   36.0430 C   0  0  0  0  0  0  0  0  0  0  0  0
   40.3700   23.9470   35.0360 C   0  0  0  0  0  0  0  0  0  0  0  0
   38.9990   24.0590   35.2010 C   0  0  0  0  0  0  0  0  0  0  0  0
   38.4750   23.6180   36.3630 N   0  0  0  0  0  0  0  0  0  0  0  0
   39.2330   23.0780   37.3590 C   0  0  0  0  0  0  0  0  0  0  0  0
   40.5960   22.9770   37.1700 N   0  0  0  0  0  0  0  0  0  0  0  0
   42.2540   23.3080   35.9110 H   0  0  0  0  0  0  0  0  0  0  0  0
   40.8730   24.2770   34.1330 H   0  0  0  0  0  0  0  0  0  0  0  0
   38.7170   22.7520   38.2550 H   0  0  0  0  0  0  0  0  0  0  0  0
   36.5770   27.8440   33.2250 C   0  0  0  0  0  0  0  0  0  0  0  0
   35.9900   28.4690   34.2990 C   0  0  0  0  0  0  0  0  0  0  0  0
   35.5730   29.7820   34.3180 C   0  0  0  0  0  0  0  0  0  0  0  0
   35.7490   30.5510   33.1760 C   0  0  0  0  0  0  0  0  0  0  0  0
   36.3510   29.8860   32.0990 C   0  0  0  0  0  0  0  0  0  0  0  0
   36.7330   28.6110   32.1440 N   0  0  0  0  0  0  0  0  0  0  0  0
   35.8320   27.9050   35.2140 H   0  0  0  0  0  0  0  0  0  0  0  0
   35.1140   30.2350   35.1860 H   0  0  0  0  0  0  0  0  0  0  0  0
   35.4450   31.5950   33.1180 H   0  0  0  0  0  0  0  0  0  0  0  0
   36.5290   30.7350   30.8840 C   0  0  0  0  0  2  0  0  0  0  0  0
   35.4840   31.7860   30.7390 C   0  0  0  0  0  2  0  0  0  0  0  0
   35.1800   32.2800   31.6600 H   0  0  0  0  0  0  0  0  0  0  0  0
   36.5260   23.4530   31.1070 C   0  0  0  0  0  0  0  0  0  0  0  0
   35.2720   23.7790   30.7120 F   0  0  0  0  0  0  0  0  0  0  0  0
   36.5020   22.1080   31.4420 F   0  0  0  0  0  0  0  0  0  0  0  0
   37.3910   23.6420   30.0150 F   0  0  0  0  0  0  0  0  0  0  0  0
  1  2  1  0  0  0  0
  1 12  1  0  0  0  0
  2  9  1  0  0  0  0
  3  2  2  0  0  0  0
  4  3  1  0  0  0  0
  5  4  2  0  0  0  0
  6  4  1  0  0  0  0
  6  7  1  0  0  0  0
  7  1  1  0  0  0  0
  8  7  2  0  0  0  0
 10 15  1  0  0  0  0
 11 12  1  0  0  0  0
 11 10  2  0  0  0  0
 12 13  2  0  0  0  0
 13 14  1  0  0  0  0
 14 18  1  0  0  0  0
 15 14  2  0  0  0  0
 16 10  1  0  0  0  0
 17 11  1  0  0  0  0
 19  3  1  0  0  0  0
 19 20  1  0  0  0  0
 20 21  2  0  0  0  0
 20 25  1  0  0  0  0
 21 26  1  0  0  0  0
 22 21  1  0  0  0  0
 23 24  1  0  0  0  0
 23 22  2  0  0  0  0
 24 19  2  0  0  0  0
 27 22  1  0  0  0  0
 28 23  1  0  0  0  0
 29 28  1  0  0  0  0
 29 30  1  0  0  0  0
 31 33  1  0  0  0  0
 31  6  1  0  0  0  0
 32 31  1  0  0  0  0
 34 31  1  0  0  0  0
M  END
>  <minimizedAffinity>
-5.58465385

$$$$

 OpenBabel03272505333D

 34 36  0  0  0  0  0  0  0  0999 V2000
   37.1850   22.8820   32.9440 N   0  0  0  0  0  0  0  0  0  0  0  0
   37.0140   24.0970   32.3590 C   0  0  0  0  0  0  0  0  0  0  0  0
   37.5220   25.2660   32.9130 C   0  0  0  0  0  0  0  0  0  0  0  0
   38.2250   25.1420   34.1110 C   0  0  0  0  0  0  0  0  0  0  0  0
   38.7070   26.1770   34.6540 O   0  0  0  0  0  0  0  0  0  0  0  0
   38.4010   23.9230   34.7050 N   0  0  0  0  0  0  0  0  0  0  0  0
   37.8700   22.8850   34.0810 C   0  0  0  0  0  0  0  0  0  0  0  0
   38.0480   21.7810   34.6500 O   0  0  0  0  0  0  0  0  0  0  0  0
   36.4640   24.2000   31.4190 H   0  0  0  0  0  0  0  0  0  0  0  0
   34.8620   20.1280   32.0540 C   0  0  0  0  0  0  0  0  0  0  0  0
   35.3700   21.3040   32.6270 C   0  0  0  0  0  0  0  0  0  0  0  0
   36.6700   21.7140   32.3790 C   0  0  0  0  0  0  0  0  0  0  0  0
   37.4220   20.9410   31.5690 N   0  0  0  0  0  0  0  0  0  0  0  0
   36.9550   19.7940   30.9990 C   0  0  0  0  0  0  0  0  0  0  0  0
   35.6570   19.4070   31.2620 N   0  0  0  0  0  0  0  0  0  0  0  0
   33.8400   19.8070   32.2500 H   0  0  0  0  0  0  0  0  0  0  0  0
   34.6970   21.8660   33.2660 H   0  0  0  0  0  0  0  0  0  0  0  0
   37.6380   19.2420   30.3630 H   0  0  0  0  0  0  0  0  0  0  0  0
   37.3640   26.5730   32.3260 C   0  0  0  0  0  0  0  0  0  0  0  0
   38.0890   27.0120   31.2440 C   0  0  0  0  0  0  0  0  0  0  0  0
   37.9630   28.2530   30.6590 C   0  0  0  0  0  0  0  0  0  0  0  0
   37.0380   29.1450   31.1860 C   0  0  0  0  0  0  0  0  0  0  0  0
   36.3150   28.6680   32.2870 C   0  0  0  0  0  0  0  0  0  0  0  0
   36.4840   27.4540   32.8080 N   0  0  0  0  0  0  0  0  0  0  0  0
   38.8240   26.3470   30.7990 H   0  0  0  0  0  0  0  0  0  0  0  0
   38.5550   28.5590   29.8070 H   0  0  0  0  0  0  0  0  0  0  0  0
   36.8840   30.1410   30.7760 H   0  0  0  0  0  0  0  0  0  0  0  0
   35.3280   29.6450   32.8350 C   0  0  0  0  0  2  0  0  0  0  0  0
   35.1020   29.4980   34.3000 C   0  0  0  0  0  2  0  0  0  0  0  0
   35.9870   29.2870   34.8960 H   0  0  0  0  0  0  0  0  0  0  0  0
   39.1330   23.8270   35.9450 C   0  0  0  0  0  0  0  0  0  0  0  0
   40.4400   24.1320   35.7630 F   0  0  0  0  0  0  0  0  0  0  0  0
   39.0940   22.5620   36.5120 F   0  0  0  0  0  0  0  0  0  0  0  0
   38.5890   24.7550   36.8490 F   0  0  0  0  0  0  0  0  0  0  0  0
  1  7  1  0  0  0  0
  2  3  2  0  0  0  0
  2  1  1  0  0  0  0
  3  4  1  0  0  0  0
  4  5  2  0  0  0  0
  4  6  1  0  0  0  0
  6 31  1  0  0  0  0
  7  8  2  0  0  0  0
  7  6  1  0  0  0  0
  9  2  1  0  0  0  0
 10 16  1  0  0  0  0
 10 11  1  0  0  0  0
 11 17  1  0  0  0  0
 12 11  2  0  0  0  0
 12  1  1  0  0  0  0
 13 12  1  0  0  0  0
 14 15  1  0  0  0  0
 14 13  2  0  0  0  0
 15 10  2  0  0  0  0
 18 14  1  0  0  0  0
 19 24  1  0  0  0  0
 19  3  1  0  0  0  0
 20 19  2  0  0  0  0
 21 22  2  0  0  0  0
 21 20  1  0  0  0  0
 22 23  1  0  0  0  0
 23 24  2  0  0  0  0
 23 28  1  0  0  0  0
 25 20  1  0  0  0  0
 26 21  1  0  0  0  0
 27 22  1  0  0  0  0
 28 29  1  0  0  0  0
 29 30  1  0  0  0  0
 31 33  1  0  0  0  0
 31 34  1  0  0  0  0
 32 31  1  0  0  0  0
M  END
>  <minimizedAffinity>
-5.57834244

$$$$
