
 OpenBabel03272510003D

 15 15  0  0  0  0  0  0  0  0999 V2000
   38.2690   31.3210   50.1630 C   0  0  0  0  0  0  0  0  0  0  0  0
   38.4260   31.4390   48.7820 C   0  0  0  0  0  0  0  0  0  0  0  0
   37.4600   30.8490   47.9460 C   0  0  0  0  0  0  0  0  0  0  0  0
   36.4300   30.1960   48.5470 N   0  0  0  0  0  0  0  0  0  0  0  0
   36.3100   30.1020   49.8720 C   0  0  0  0  0  0  0  0  0  0  0  0
   37.2300   30.6640   50.6760 N   0  0  0  0  0  0  0  0  0  0  0  0
   39.0150   31.7770   50.7750 H   0  0  0  0  0  0  0  0  0  0  0  0
   39.2330   31.9510   48.2770 H   0  0  0  0  0  0  0  0  0  0  0  0
   35.1510   29.3660   50.4330 C   0  0  0  0  0  0  0  0  0  0  0  0
   35.2620   29.1160   51.7850 F   0  0  0  0  0  0  0  0  0  0  0  0
   33.9750   30.0730   50.2600 F   0  0  0  0  0  0  0  0  0  0  0  0
   34.9390   28.1490   49.8140 F   0  0  0  0  0  0  0  0  0  0  0  0
   37.4580   30.8700   46.4790 C   0  0  0  0  0  2  0  0  0  0  0  0
   38.8060   30.6150   45.8670 C   0  0  0  0  0  2  0  0  0  0  0  0
   39.1000   29.5480   45.9310 H   0  0  0  0  0  0  0  0  0  0  0  0
  1  6  1  0  0  0  0
  1  7  1  0  0  0  0
  2  1  2  0  0  0  0
  3  4  2  0  0  0  0
  3  2  1  0  0  0  0
  4  5  1  0  0  0  0
  5  9  1  0  0  0  0
  5  6  2  0  0  0  0
  8  2  1  0  0  0  0
  9 10  1  0  0  0  0
 11  9  1  0  0  0  0
 12  9  1  0  0  0  0
 13  3  1  0  0  0  0
 14 15  1  0  0  0  0
 14 13  1  0  0  0  0
M  END
>  <minimizedAffinity>
-4.59557056

>  <minimizedRMSD>
0.545586467

$$$$
