
 OpenBabel03272510223D

 25 27  0  0  0  0  0  0  0  0999 V2000
   36.2870   30.2230   46.9310 C   0  0  0  0  0  0  0  0  0  0  0  0
   37.1080   30.7460   47.9200 C   0  0  0  0  0  0  0  0  0  0  0  0
   38.1280   31.6400   47.6100 C   0  0  0  0  0  0  0  0  0  0  0  0
   38.2630   31.9710   46.2530 C   0  0  0  0  0  0  0  0  0  0  0  0
   39.1790   32.8180   45.7220 N   0  0  0  0  0  0  0  0  0  0  0  0
   38.9370   32.8280   44.4060 C   0  0  0  0  0  0  0  0  0  0  0  0
   37.9120   32.0280   44.0870 N   0  0  0  0  0  0  0  0  0  0  0  0
   37.4620   31.4700   45.2400 C   0  0  0  0  0  0  0  0  0  0  0  0
   36.4600   30.5800   45.5950 C   0  0  0  0  0  0  0  0  0  0  0  0
   35.4800   29.5240   47.1250 H   0  0  0  0  0  0  0  0  0  0  0  0
   38.7700   32.0520   48.3710 H   0  0  0  0  0  0  0  0  0  0  0  0
   39.9450   33.3790   46.1830 H   0  0  0  0  0  0  0  0  0  0  0  0
   35.8320   30.1830   44.8310 H   0  0  0  0  0  0  0  0  0  0  0  0
   37.3720   30.0950   51.6200 C   0  0  0  0  0  0  0  0  0  0  0  0
   37.7320   30.5440   50.3520 C   0  0  0  0  0  0  0  0  0  0  0  0
   36.8610   30.3270   49.2990 C   0  0  0  0  0  0  0  0  0  0  0  0
   35.6820   29.6810   49.5420 N   0  0  0  0  0  0  0  0  0  0  0  0
   35.3530   29.2530   50.7830 C   0  0  0  0  0  0  0  0  0  0  0  0
   36.2030   29.4640   51.8120 N   0  0  0  0  0  0  0  0  0  0  0  0
   38.1200   30.3110   52.3850 H   0  0  0  0  0  0  0  0  0  0  0  0
   38.6390   31.0480   50.1300 H   0  0  0  0  0  0  0  0  0  0  0  0
   34.4280   28.7420   50.9920 H   0  0  0  0  0  0  0  0  0  0  0  0
   39.6690   33.6070   43.3510 C   0  0  0  0  0  2  0  0  0  0  0  0
   39.0620   33.3580   41.9770 C   0  0  0  0  0  2  0  0  0  0  0  0
   39.8430   33.0200   41.2610 H   0  0  0  0  0  0  0  0  0  0  0  0
  1 10  1  0  0  0  0
  1  2  1  0  0  0  0
  2 16  1  0  0  0  0
  3  2  2  0  0  0  0
  3 11  1  0  0  0  0
  4  3  1  0  0  0  0
  5 12  1  0  0  0  0
  5  4  1  0  0  0  0
  6  5  1  0  0  0  0
  7  6  2  0  0  0  0
  7  8  1  0  0  0  0
  8  9  1  0  0  0  0
  8  4  2  0  0  0  0
  9  1  2  0  0  0  0
 13  9  1  0  0  0  0
 14 19  1  0  0  0  0
 14 20  1  0  0  0  0
 15 14  2  0  0  0  0
 16 17  2  0  0  0  0
 16 15  1  0  0  0  0
 17 18  1  0  0  0  0
 18 22  1  0  0  0  0
 18 19  2  0  0  0  0
 21 15  1  0  0  0  0
 23  6  1  0  0  0  0
 24 23  1  0  0  0  0
 25 24  1  0  0  0  0
M  END
>  <minimizedAffinity>
-5.1979475

>  <minimizedRMSD>
1.03359818

$$$$
