
 OpenBabel03272506333D

 13 13  0  0  0  0  0  0  0  0999 V2000
   37.3140   29.9370   51.3730 C   0  0  0  0  0  0  0  0  0  0  0  0
   37.8460   30.9590   50.5660 C   0  0  0  0  0  0  0  0  0  0  0  0
   37.0970   31.3990   49.4700 C   0  0  0  0  0  0  0  0  0  0  0  0
   35.8920   30.8100   49.2470 N   0  0  0  0  0  0  0  0  0  0  0  0
   35.3940   29.8210   50.0420 C   0  0  0  0  0  0  0  0  0  0  0  0
   36.1170   29.4030   51.0920 N   0  0  0  0  0  0  0  0  0  0  0  0
   38.7780   31.4690   50.6730 H   0  0  0  0  0  0  0  0  0  0  0  0
   37.4400   32.1810   48.8030 H   0  0  0  0  0  0  0  0  0  0  0  0
   38.1610   29.6080   52.4120 O   0  0  0  0  0  0  0  0  0  0  0  0
   37.9450   28.8160   52.9760 H   0  0  0  0  0  0  0  0  0  0  0  0
   34.0840   29.2450   49.7220 C   0  0  0  0  0  0  0  0  0  0  0  0
   34.3590   27.9450   48.9500 C   0  0  0  0  0  0  0  0  0  0  0  0
   34.7020   28.2490   47.9510 H   0  0  0  0  0  0  0  0  0  0  0  0
  1  9  1  0  0  0  0
  2  7  1  0  0  0  0
  2  1  2  0  0  0  0
  3  2  1  0  0  0  0
  4  3  2  0  0  0  0
  4  5  1  0  0  0  0
  5  6  2  0  0  0  0
  6  1  1  0  0  0  0
  8  3  1  0  0  0  0
  9 10  1  0  0  0  0
 11  5  1  0  0  0  0
 12 11  1  0  0  0  0
 13 12  1  0  0  0  0
M  END
>  <minimizedAffinity>
-4.01014471

>  <minimizedRMSD>
0.305358768

$$$$
