
 OpenBabel03272510233D

 25 27  0  0  0  0  0  0  0  0999 V2000
   36.2910   30.2230   46.9390 C   0  0  0  0  0  0  0  0  0  0  0  0
   37.1090   30.7470   47.9300 C   0  0  0  0  0  0  0  0  0  0  0  0
   38.1270   31.6440   47.6240 C   0  0  0  0  0  0  0  0  0  0  0  0
   38.2650   31.9760   46.2670 C   0  0  0  0  0  0  0  0  0  0  0  0
   39.1810   32.8260   45.7390 N   0  0  0  0  0  0  0  0  0  0  0  0
   38.9410   32.8380   44.4230 C   0  0  0  0  0  0  0  0  0  0  0  0
   37.9190   32.0360   44.1000 N   0  0  0  0  0  0  0  0  0  0  0  0
   37.4680   31.4750   45.2510 C   0  0  0  0  0  0  0  0  0  0  0  0
   36.4660   30.5820   45.6030 C   0  0  0  0  0  0  0  0  0  0  0  0
   35.4860   29.5220   47.1300 H   0  0  0  0  0  0  0  0  0  0  0  0
   38.7670   32.0560   48.3860 H   0  0  0  0  0  0  0  0  0  0  0  0
   39.9430   33.3880   46.2020 H   0  0  0  0  0  0  0  0  0  0  0  0
   35.8410   30.1840   44.8370 H   0  0  0  0  0  0  0  0  0  0  0  0
   37.3690   30.0860   51.6290 C   0  0  0  0  0  0  0  0  0  0  0  0
   37.7310   30.5370   50.3620 C   0  0  0  0  0  0  0  0  0  0  0  0
   36.8600   30.3250   49.3070 C   0  0  0  0  0  0  0  0  0  0  0  0
   35.6790   29.6820   49.5490 N   0  0  0  0  0  0  0  0  0  0  0  0
   35.3480   29.2520   50.7890 C   0  0  0  0  0  0  0  0  0  0  0  0
   36.1970   29.4590   51.8180 N   0  0  0  0  0  0  0  0  0  0  0  0
   38.1180   30.2990   52.3950 H   0  0  0  0  0  0  0  0  0  0  0  0
   38.6400   31.0390   50.1420 H   0  0  0  0  0  0  0  0  0  0  0  0
   34.4210   28.7440   50.9960 H   0  0  0  0  0  0  0  0  0  0  0  0
   39.6730   33.6200   43.3700 C   0  0  0  0  0  2  0  0  0  0  0  0
   39.0780   33.3630   41.9930 C   0  0  0  0  0  2  0  0  0  0  0  0
   39.8660   33.0290   41.2830 H   0  0  0  0  0  0  0  0  0  0  0  0
  1 10  1  0  0  0  0
  1  2  1  0  0  0  0
  2 16  1  0  0  0  0
  3  2  2  0  0  0  0
  3 11  1  0  0  0  0
  4  3  1  0  0  0  0
  5 12  1  0  0  0  0
  5  4  1  0  0  0  0
  6  5  1  0  0  0  0
  7  6  2  0  0  0  0
  7  8  1  0  0  0  0
  8  9  1  0  0  0  0
  8  4  2  0  0  0  0
  9  1  2  0  0  0  0
 13  9  1  0  0  0  0
 14 19  1  0  0  0  0
 14 20  1  0  0  0  0
 15 14  2  0  0  0  0
 16 17  2  0  0  0  0
 16 15  1  0  0  0  0
 17 18  1  0  0  0  0
 18 22  1  0  0  0  0
 18 19  2  0  0  0  0
 21 15  1  0  0  0  0
 23  6  1  0  0  0  0
 24 23  1  0  0  0  0
 25 24  1  0  0  0  0
M  END
>  <minimizedAffinity>
-5.19852972

>  <minimizedRMSD>
1.08270621

$$$$
