
 OpenBabel03272510223D

 25 27  0  0  0  0  0  0  0  0999 V2000
   36.2850   30.2230   46.9340 C   0  0  0  0  0  0  0  0  0  0  0  0
   37.1070   30.7460   47.9230 C   0  0  0  0  0  0  0  0  0  0  0  0
   38.1270   31.6390   47.6130 C   0  0  0  0  0  0  0  0  0  0  0  0
   38.2630   31.9700   46.2560 C   0  0  0  0  0  0  0  0  0  0  0  0
   39.1800   32.8160   45.7250 N   0  0  0  0  0  0  0  0  0  0  0  0
   38.9370   32.8270   44.4090 C   0  0  0  0  0  0  0  0  0  0  0  0
   37.9120   32.0280   44.0900 N   0  0  0  0  0  0  0  0  0  0  0  0
   37.4620   31.4690   45.2430 C   0  0  0  0  0  0  0  0  0  0  0  0
   36.4580   30.5810   45.5970 C   0  0  0  0  0  0  0  0  0  0  0  0
   35.4780   29.5250   47.1270 H   0  0  0  0  0  0  0  0  0  0  0  0
   38.7700   32.0500   48.3740 H   0  0  0  0  0  0  0  0  0  0  0  0
   39.9450   33.3760   46.1860 H   0  0  0  0  0  0  0  0  0  0  0  0
   35.8310   30.1840   44.8340 H   0  0  0  0  0  0  0  0  0  0  0  0
   37.3710   30.0920   51.6230 C   0  0  0  0  0  0  0  0  0  0  0  0
   37.7310   30.5410   50.3550 C   0  0  0  0  0  0  0  0  0  0  0  0
   36.8600   30.3260   49.3010 C   0  0  0  0  0  0  0  0  0  0  0  0
   35.6800   29.6810   49.5450 N   0  0  0  0  0  0  0  0  0  0  0  0
   35.3510   29.2530   50.7860 C   0  0  0  0  0  0  0  0  0  0  0  0
   36.2010   29.4630   51.8140 N   0  0  0  0  0  0  0  0  0  0  0  0
   38.1200   30.3080   52.3870 H   0  0  0  0  0  0  0  0  0  0  0  0
   38.6390   31.0450   50.1330 H   0  0  0  0  0  0  0  0  0  0  0  0
   34.4250   28.7440   50.9940 H   0  0  0  0  0  0  0  0  0  0  0  0
   39.6690   33.6060   43.3540 C   0  0  0  0  0  2  0  0  0  0  0  0
   39.0630   33.3590   41.9810 C   0  0  0  0  0  2  0  0  0  0  0  0
   39.8440   33.0200   41.2640 H   0  0  0  0  0  0  0  0  0  0  0  0
  1 10  1  0  0  0  0
  1  2  1  0  0  0  0
  2 16  1  0  0  0  0
  3  2  2  0  0  0  0
  3 11  1  0  0  0  0
  4  3  1  0  0  0  0
  5 12  1  0  0  0  0
  5  4  1  0  0  0  0
  6  5  1  0  0  0  0
  7  6  2  0  0  0  0
  7  8  1  0  0  0  0
  8  9  1  0  0  0  0
  8  4  2  0  0  0  0
  9  1  2  0  0  0  0
 13  9  1  0  0  0  0
 14 19  1  0  0  0  0
 14 20  1  0  0  0  0
 15 14  2  0  0  0  0
 16 17  2  0  0  0  0
 16 15  1  0  0  0  0
 17 18  1  0  0  0  0
 18 22  1  0  0  0  0
 18 19  2  0  0  0  0
 21 15  1  0  0  0  0
 23  6  1  0  0  0  0
 24 23  1  0  0  0  0
 25 24  1  0  0  0  0
M  END
>  <minimizedAffinity>
-5.19662905

>  <minimizedRMSD>
1.13361502

$$$$
