
 OpenBabel03272510013D

 15 15  0  0  0  0  0  0  0  0999 V2000
   38.2330   32.0610   49.7690 C   0  0  0  0  0  0  0  0  0  0  0  0
   38.6150   31.8820   48.4390 C   0  0  0  0  0  0  0  0  0  0  0  0
   37.9590   30.8930   47.6830 C   0  0  0  0  0  0  0  0  0  0  0  0
   36.9900   30.1720   48.3070 N   0  0  0  0  0  0  0  0  0  0  0  0
   36.6500   30.3690   49.5800 C   0  0  0  0  0  0  0  0  0  0  0  0
   37.2720   31.3130   50.3080 N   0  0  0  0  0  0  0  0  0  0  0  0
   38.7460   32.8180   50.3200 H   0  0  0  0  0  0  0  0  0  0  0  0
   39.3810   32.4400   47.9180 H   0  0  0  0  0  0  0  0  0  0  0  0
   35.5800   29.5290   50.1730 C   0  0  0  0  0  0  0  0  0  0  0  0
   35.7600   29.2790   51.5170 F   0  0  0  0  0  0  0  0  0  0  0  0
   34.3410   30.1310   50.0480 F   0  0  0  0  0  0  0  0  0  0  0  0
   35.4550   28.3040   49.5470 F   0  0  0  0  0  0  0  0  0  0  0  0
   38.2240   30.5620   46.2780 C   0  0  0  0  0  2  0  0  0  0  0  0
   37.0380   30.7540   45.3770 C   0  0  0  0  0  2  0  0  0  0  0  0
   36.8390   31.8270   45.1710 H   0  0  0  0  0  0  0  0  0  0  0  0
  1  6  1  0  0  0  0
  1  7  1  0  0  0  0
  2  1  2  0  0  0  0
  3  4  2  0  0  0  0
  3  2  1  0  0  0  0
  4  5  1  0  0  0  0
  5  9  1  0  0  0  0
  5  6  2  0  0  0  0
  8  2  1  0  0  0  0
  9 10  1  0  0  0  0
 11  9  1  0  0  0  0
 12  9  1  0  0  0  0
 13  3  1  0  0  0  0
 14 13  1  0  0  0  0
 15 14  1  0  0  0  0
M  END
>  <minimizedAffinity>
-4.32388401

>  <minimizedRMSD>
1.02520704

$$$$
