
     RDKit          3D

 26 27  0  0  0  0  0  0  0  0999 V2000
   38.0075   33.1016   49.4803 C   0  0  0  0  0  0  0  0  0  0  0  0
   38.9753   33.2107   48.4656 C   0  0  0  0  0  0  0  0  0  0  0  0
   38.9513   32.2206   47.4571 C   0  0  0  0  0  0  0  0  0  0  0  0
   38.0163   31.2479   47.5296 N   0  0  0  0  0  0  0  0  0  0  0  0
   37.1009   31.1800   48.5261 C   0  0  0  0  0  0  0  0  0  0  0  0
   37.1088   32.1131   49.4935 N   0  0  0  0  0  0  0  0  0  0  0  0
   36.0922   30.1327   48.6057 C   0  0  0  0  0  0  0  0  0  0  0  0
   35.2810   29.9533   47.5088 C   0  0  0  0  0  0  0  0  0  0  0  0
   34.2970   28.9807   47.5021 C   0  0  0  0  0  0  0  0  0  0  0  0
   34.1524   28.1942   48.6297 C   0  0  0  0  0  0  0  0  0  0  0  0
   34.9555   28.3611   49.7340 C   0  0  0  0  0  0  0  0  0  0  0  0
   35.9467   29.3401   49.7417 C   0  0  0  0  0  0  0  0  0  0  0  0
   37.9556   33.8246   50.2983 H   0  0  0  0  0  0  0  0  0  0  0  0
   39.6826   34.0053   48.4712 H   0  0  0  0  0  0  0  0  0  0  0  0
   39.6772   32.2654   46.6573 H   0  0  0  0  0  0  0  0  0  0  0  0
   35.3479   30.5384   46.5975 H   0  0  0  0  0  0  0  0  0  0  0  0
   33.6399   28.8077   46.6638 H   0  0  0  0  0  0  0  0  0  0  0  0
   33.4133   27.3994   48.7366 H   0  0  0  0  0  0  0  0  0  0  0  0
   34.8829   27.7720   50.6409 H   0  0  0  0  0  0  0  0  0  0  0  0
   36.8209   29.5334   50.9247 C   0  0  0  0  0  0  0  0  0  0  0  0
   36.1554   30.2341   52.0630 C   0  0  0  0  0  0  0  0  0  0  0  0
   35.1510   30.6303   51.7498 H   0  0  0  0  0  0  0  0  0  0  0  0
   37.6695   30.2077   50.6022 H   0  0  0  0  0  0  0  0  0  0  0  0
   37.3222   28.5810   51.1830 H   0  0  0  0  0  0  0  0  0  0  0  0
   36.7246   31.1151   52.4289 H   0  0  0  0  0  0  0  0  0  0  0  0
   36.0573   29.5490   52.9289 H   0  0  0  0  0  0  0  0  0  0  0  0
  1  6  2  0
  2  1  1  0
  3  4  1  0
  3  2  2  0
  4  5  2  0
  5  7  1  0
  5  6  1  0
  7 12  1  0
  8  7  2  0
  9  8  1  0
  9 10  2  0
 10 11  1  0
 12 11  2  0
  1 13  1  0
  2 14  1  0
  3 15  1  0
  8 16  1  0
  9 17  1  0
 10 18  1  0
 11 19  1  0
 20 21  1  0
 21 22  1  0
 20 23  1  0
 20 24  1  0
 21 25  1  0
 21 26  1  0
 12 20  1  0
M  ISO  8  13  14  14  14  15  14  16  14  17  14  18  14  19  14  22   8
M  END
>  <DihAtoms>  (1) 
6,11,19,20

>  <DihDeg>  (1) 
-75.80112255985158

$$$$
