
 OpenBabel03272510093D

 21 22  0  0  0  0  0  0  0  0999 V2000
   38.2020   31.2280   48.2700 C   0  0  0  0  0  0  0  0  0  0  0  0
   38.7290   32.5000   48.4180 C   0  0  0  0  0  0  0  0  0  0  0  0
   39.4270   33.1820   47.4390 C   0  0  0  0  0  0  0  0  0  0  0  0
   39.6210   32.5700   46.2270 C   0  0  0  0  0  0  0  0  0  0  0  0
   39.0880   31.2940   46.0900 C   0  0  0  0  0  0  0  0  0  0  0  0
   38.4210   30.6760   47.0670 N   0  0  0  0  0  0  0  0  0  0  0  0
   38.6020   33.0260   49.3580 H   0  0  0  0  0  0  0  0  0  0  0  0
   39.8240   34.1710   47.5860 H   0  0  0  0  0  0  0  0  0  0  0  0
   39.1680   30.6990   45.1890 H   0  0  0  0  0  0  0  0  0  0  0  0
   37.7670   30.6720   50.6920 C   0  0  0  0  0  0  0  0  0  0  0  0
   37.4770   30.5540   49.3260 C   0  0  0  0  0  0  0  0  0  0  0  0
   36.4160   29.7300   48.9370 C   0  0  0  0  0  0  0  0  0  0  0  0
   35.7240   29.0870   49.9410 N   0  0  0  0  0  0  0  0  0  0  0  0
   36.0340   29.2270   51.2350 C   0  0  0  0  0  0  0  0  0  0  0  0
   37.0500   30.0150   51.6230 N   0  0  0  0  0  0  0  0  0  0  0  0
   38.6080   31.3330   50.9170 H   0  0  0  0  0  0  0  0  0  0  0  0
   36.0840   29.5470   47.9240 H   0  0  0  0  0  0  0  0  0  0  0  0
   35.4760   28.7120   51.9880 H   0  0  0  0  0  0  0  0  0  0  0  0
   40.3360   33.1510   45.0880 C   0  0  0  0  0  0  0  0  0  0  0  0
   39.6210   33.0030   43.7680 C   0  0  0  0  0  0  0  0  0  0  0  0
   40.3140   33.3650   42.9810 H   0  0  0  0  0  0  0  0  0  0  0  0
  1  2  1  0  0  0  0
  1 11  1  0  0  0  0
  2  7  1  0  0  0  0
  3  8  1  0  0  0  0
  3  2  2  0  0  0  0
  4  3  1  0  0  0  0
  5  4  2  0  0  0  0
  5  6  1  0  0  0  0
  6  1  2  0  0  0  0
  9  5  1  0  0  0  0
 10 16  1  0  0  0  0
 10 15  1  0  0  0  0
 11 10  2  0  0  0  0
 12 11  1  0  0  0  0
 12 13  2  0  0  0  0
 13 14  1  0  0  0  0
 14 15  2  0  0  0  0
 14 18  1  0  0  0  0
 17 12  1  0  0  0  0
 19  4  1  0  0  0  0
 20 19  1  0  0  0  0
 21 20  1  0  0  0  0
M  END
>  <minimizedAffinity>
-5.09989214

>  <minimizedRMSD>
1.48212862

$$$$
