
 OpenBabel03272505043D

 39 41  0  0  1  0  0  0  0  0999 V2000
   38.2880   23.7190   34.2390 O   0  0  0  0  0  0  0  0  0  0  0  0
   38.6630   23.2250   35.2200 C   0  0  1  0  0  0  0  0  0  0  0  0
   40.0310   24.1060   35.3060 C   0  0  0  0  0  0  0  0  0  0  0  0
   40.9280   23.0120   35.3820 C   0  0  0  0  0  0  0  0  0  0  0  0
   40.7640   22.3050   36.7280 C   0  0  0  0  0  0  0  0  0  0  0  0
   39.6140   22.8960   37.4570 C   0  0  0  0  0  0  0  0  0  0  0  0
   38.4100   23.1080   36.5700 C   0  0  1  0  0  0  0  0  0  0  0  0
   38.9240   22.2050   34.9240 H   0  0  0  0  0  0  0  0  0  0  0  0
   40.0220   24.7470   36.1540 H   0  0  0  0  0  0  0  0  0  0  0  0
   40.1590   24.7000   34.4130 H   0  0  0  0  0  0  0  0  0  0  0  0
   41.9960   23.4090   35.3750 H   0  0  0  0  0  0  0  0  0  0  0  0
   40.9580   22.1740   34.7140 H   0  0  0  0  0  0  0  0  0  0  0  0
   40.6230   21.2300   36.6800 H   0  0  0  0  0  0  0  0  0  0  0  0
   41.6790   22.4580   37.3620 H   0  0  0  0  0  0  0  0  0  0  0  0
   39.9650   23.8200   37.9620 H   0  0  0  0  0  0  0  0  0  0  0  0
   39.3890   22.1980   38.3120 H   0  0  0  0  0  0  0  0  0  0  0  0
   37.6960   22.2670   36.8280 H   0  0  0  0  0  0  0  0  0  0  0  0
   37.6850   24.3040   37.2090 C   0  0  0  0  0  2  0  0  0  0  0  0
   38.0030   24.4730   38.6410 C   0  0  0  0  0  2  0  0  0  0  0  0
   38.8370   23.8380   39.0080 H   0  0  0  0  0  0  0  0  0  0  0  0
   38.2600   26.6850   33.8000 Cl  0  0  0  0  0  0  0  0  0  0  0  0
   37.4560   25.4920   32.8610 C   0  0  0  0  0  0  0  0  0  0  0  0
   36.7100   25.8790   31.7990 C   0  0  0  0  0  0  0  0  0  0  0  0
   36.1300   24.8520   31.0530 C   0  0  0  0  0  0  0  0  0  0  0  0
   36.3380   23.5300   31.4210 C   0  0  0  0  0  0  0  0  0  0  0  0
   37.0890   23.1800   32.4930 C   0  0  0  0  0  0  0  0  0  0  0  0
   37.6230   24.1800   33.1870 C   0  0  0  0  0  0  0  0  0  0  0  0
   35.5350   25.1170   30.2100 H   0  0  0  0  0  0  0  0  0  0  0  0
   35.8450   22.8100   30.7730 H   0  0  0  0  0  0  0  0  0  0  0  0
   37.1530   22.1090   32.6410 H   0  0  0  0  0  0  0  0  0  0  0  0
   35.5120   28.0260   32.1660 C   0  0  0  0  0  0  0  0  0  0  0  0
   36.4360   27.2730   31.4490 C   0  0  0  0  0  0  0  0  0  0  0  0
   37.1000   27.8930   30.3780 C   0  0  0  0  0  0  0  0  0  0  0  0
   36.8160   29.1800   30.0900 N   0  0  0  0  0  0  0  0  0  0  0  0
   35.9190   29.8740   30.8030 C   0  0  0  0  0  0  0  0  0  0  0  0
   35.2660   29.3100   31.8370 N   0  0  0  0  0  0  0  0  0  0  0  0
   34.9720   27.6110   32.9970 H   0  0  0  0  0  0  0  0  0  0  0  0
   37.8050   27.3040   29.8390 H   0  0  0  0  0  0  0  0  0  0  0  0
   35.8310   30.8860   30.4180 H   0  0  0  0  0  0  0  0  0  0  0  0
  1  2  1  0  0  0  0
  2  8  1  6  0  0  0
  2  3  1  0  0  0  0
  2  7  1  0  0  0  0
  3  4  1  0  0  0  0
  3  9  1  0  0  0  0
  4  5  1  0  0  0  0
  5 14  1  0  0  0  0
  5  6  1  0  0  0  0
  6 15  1  0  0  0  0
  6 16  1  0  0  0  0
  7 17  1  1  0  0  0
  7 18  1  0  0  0  0
  7  6  1  0  0  0  0
 10  3  1  0  0  0  0
 11  4  1  0  0  0  0
 12  4  1  0  0  0  0
 13  5  1  0  0  0  0
 18 19  1  0  0  0  0
 19 20  1  0  0  0  0
 22 27  1  0  0  0  0
 22 21  1  0  0  0  0
 23 22  2  0  0  0  0
 24 25  2  0  0  0  0
 24 23  1  0  0  0  0
 25 26  1  0  0  0  0
 26 30  1  0  0  0  0
 26 27  2  0  0  0  0
 27  1  1  0  0  0  0
 28 24  1  0  0  0  0
 29 25  1  0  0  0  0
 31 37  1  0  0  0  0
 32 23  1  0  0  0  0
 32 31  2  0  0  0  0
 33 32  1  0  0  0  0
 34 33  2  0  0  0  0
 34 35  1  0  0  0  0
 35 36  2  0  0  0  0
 36 31  1  0  0  0  0
 38 33  1  0  0  0  0
 39 35  1  0  0  0  0
M  END
>  <minimizedAffinity>
-5.40466118

$$$$

 OpenBabel03272505043D

 39 41  0  0  1  0  0  0  0  0999 V2000
   38.3300   24.4610   35.0720 O   0  0  0  0  0  0  0  0  0  0  0  0
   38.9260   24.1190   36.0070 C   0  0  1  0  0  0  0  0  0  0  0  0
   37.7630   23.1200   36.5570 C   0  0  0  0  0  0  0  0  0  0  0  0
   37.6560   23.6880   37.8510 C   0  0  0  0  0  0  0  0  0  0  0  0
   38.9230   23.3840   38.6520 C   0  0  0  0  0  0  0  0  0  0  0  0
   39.9180   22.7280   37.7680 C   0  0  0  0  0  0  0  0  0  0  0  0
   40.0270   23.3960   36.4180 C   0  0  1  0  0  0  0  0  0  0  0  0
   38.9550   25.0050   36.6470 H   0  0  0  0  0  0  0  0  0  0  0  0
   38.0820   22.1060   36.5300 H   0  0  0  0  0  0  0  0  0  0  0  0
   36.8620   23.2250   35.9710 H   0  0  0  0  0  0  0  0  0  0  0  0
   36.8100   23.1700   38.4120 H   0  0  0  0  0  0  0  0  0  0  0  0
   37.5180   24.7270   38.0740 H   0  0  0  0  0  0  0  0  0  0  0  0
   39.3960   24.2390   39.1240 H   0  0  0  0  0  0  0  0  0  0  0  0
   38.6930   22.6700   39.4880 H   0  0  0  0  0  0  0  0  0  0  0  0
   39.6690   21.6480   37.7130 H   0  0  0  0  0  0  0  0  0  0  0  0
   40.8960   22.7450   38.3250 H   0  0  0  0  0  0  0  0  0  0  0  0
   40.9810   24.0060   36.4610 H   0  0  0  0  0  0  0  0  0  0  0  0
   40.4550   22.2590   35.4750 C   0  0  0  0  0  2  0  0  0  0  0  0
   41.7170   21.6140   35.8880 C   0  0  0  0  0  2  0  0  0  0  0  0
   42.0820   21.9100   36.8940 H   0  0  0  0  0  0  0  0  0  0  0  0
   37.8120   27.3890   34.6860 Cl  0  0  0  0  0  0  0  0  0  0  0  0
   37.5480   26.1320   33.5450 C   0  0  0  0  0  0  0  0  0  0  0  0
   37.0470   26.4410   32.3260 C   0  0  0  0  0  0  0  0  0  0  0  0
   36.9080   25.3760   31.4340 C   0  0  0  0  0  0  0  0  0  0  0  0
   37.2790   24.0970   31.8260 C   0  0  0  0  0  0  0  0  0  0  0  0
   37.7740   23.8250   33.0570 C   0  0  0  0  0  0  0  0  0  0  0  0
   37.8880   24.8580   33.8860 C   0  0  0  0  0  0  0  0  0  0  0  0
   36.5160   25.5790   30.4650 H   0  0  0  0  0  0  0  0  0  0  0  0
   37.1330   23.3430   31.0570 H   0  0  0  0  0  0  0  0  0  0  0  0
   38.0140   22.7780   33.2010 H   0  0  0  0  0  0  0  0  0  0  0  0
   35.3490   28.2570   32.3250 C   0  0  0  0  0  0  0  0  0  0  0  0
   36.5960   27.7770   31.9350 C   0  0  0  0  0  0  0  0  0  0  0  0
   37.4090   28.6160   31.1560 C   0  0  0  0  0  0  0  0  0  0  0  0
   36.9530   29.8390   30.8190 N   0  0  0  0  0  0  0  0  0  0  0  0
   35.7460   30.2680   31.2110 C   0  0  0  0  0  0  0  0  0  0  0  0
   34.9420   29.4890   31.9600 N   0  0  0  0  0  0  0  0  0  0  0  0
   34.6810   27.6660   32.9220 H   0  0  0  0  0  0  0  0  0  0  0  0
   38.3610   28.2350   30.8660 H   0  0  0  0  0  0  0  0  0  0  0  0
   35.5620   31.2720   30.8410 H   0  0  0  0  0  0  0  0  0  0  0  0
  1  2  1  0  0  0  0
  2  7  1  0  0  0  0
  2  3  1  0  0  0  0
  2  8  1  1  0  0  0
  3  4  1  0  0  0  0
  4 12  1  0  0  0  0
  4 11  1  0  0  0  0
  4  5  1  0  0  0  0
  5 13  1  0  0  0  0
  5 14  1  0  0  0  0
  6 16  1  0  0  0  0
  6  5  1  0  0  0  0
  7 17  1  1  0  0  0
  7  6  1  0  0  0  0
  9  3  1  0  0  0  0
 10  3  1  0  0  0  0
 15  6  1  0  0  0  0
 18 19  1  0  0  0  0
 18  7  1  0  0  0  0
 19 20  1  0  0  0  0
 22 27  1  0  0  0  0
 22 21  1  0  0  0  0
 23 22  2  0  0  0  0
 24 25  2  0  0  0  0
 24 23  1  0  0  0  0
 25 26  1  0  0  0  0
 26 30  1  0  0  0  0
 26 27  2  0  0  0  0
 27  1  1  0  0  0  0
 28 24  1  0  0  0  0
 29 25  1  0  0  0  0
 31 37  1  0  0  0  0
 32 31  2  0  0  0  0
 32 23  1  0  0  0  0
 33 32  1  0  0  0  0
 34 33  2  0  0  0  0
 34 35  1  0  0  0  0
 35 36  2  0  0  0  0
 36 31  1  0  0  0  0
 38 33  1  0  0  0  0
 39 35  1  0  0  0  0
M  END
>  <minimizedAffinity>
-5.19058895

$$$$

 OpenBabel03272505043D

 39 41  0  0  1  0  0  0  0  0999 V2000
   35.6960   31.4100   33.6090 O   0  0  0  0  0  0  0  0  0  0  0  0
   35.5320   32.3160   34.3150 C   0  0  1  0  0  0  0  0  0  0  0  0
   36.1390   31.5770   35.6340 C   0  0  0  0  0  0  0  0  0  0  0  0
   35.0100   31.7730   36.4670 C   0  0  0  0  0  0  0  0  0  0  0  0
   34.8740   33.2580   36.8080 C   0  0  0  0  0  0  0  0  0  0  0  0
   35.8740   34.0330   36.0330 C   0  0  0  0  0  0  0  0  0  0  0  0
   35.9540   33.6000   34.5880 C   0  0  1  0  0  0  0  0  0  0  0  0
   34.4460   32.3800   34.4210 H   0  0  0  0  0  0  0  0  0  0  0  0
   37.0340   32.0490   35.9620 H   0  0  0  0  0  0  0  0  0  0  0  0
   36.3400   30.5360   35.4290 H   0  0  0  0  0  0  0  0  0  0  0  0
   35.1900   31.2480   37.4630 H   0  0  0  0  0  0  0  0  0  0  0  0
   33.9950   31.5260   36.2240 H   0  0  0  0  0  0  0  0  0  0  0  0
   33.8940   33.6920   36.6340 H   0  0  0  0  0  0  0  0  0  0  0  0
   35.0870   33.4280   37.8980 H   0  0  0  0  0  0  0  0  0  0  0  0
   36.8430   33.9780   36.5700 H   0  0  0  0  0  0  0  0  0  0  0  0
   35.5800   35.1160   36.1310 H   0  0  0  0  0  0  0  0  0  0  0  0
   35.3960   34.3960   34.0050 H   0  0  0  0  0  0  0  0  0  0  0  0
   37.4040   33.9150   34.1870 C   0  0  0  0  0  2  0  0  0  0  0  0
   38.1600   34.6060   35.2510 C   0  0  0  0  0  2  0  0  0  0  0  0
   37.6450   34.6450   36.2330 H   0  0  0  0  0  0  0  0  0  0  0  0
   35.6150   28.4790   34.2360 Cl  0  0  0  0  0  0  0  0  0  0  0  0
   36.0000   29.2040   32.7270 C   0  0  0  0  0  0  0  0  0  0  0  0
   36.3130   28.4120   31.6750 C   0  0  0  0  0  0  0  0  0  0  0  0
   36.5630   29.0690   30.4690 C   0  0  0  0  0  0  0  0  0  0  0  0
   36.4800   30.4530   30.4080 C   0  0  0  0  0  0  0  0  0  0  0  0
   36.1660   31.2140   31.4840 C   0  0  0  0  0  0  0  0  0  0  0  0
   35.9400   30.5600   32.6190 C   0  0  0  0  0  0  0  0  0  0  0  0
   36.8150   28.4800   29.6180 H   0  0  0  0  0  0  0  0  0  0  0  0
   36.6900   30.8630   29.4230 H   0  0  0  0  0  0  0  0  0  0  0  0
   36.1420   32.2740   31.2660 H   0  0  0  0  0  0  0  0  0  0  0  0
   35.4940   26.1050   31.2420 C   0  0  0  0  0  0  0  0  0  0  0  0
   36.4660   26.9590   31.7540 C   0  0  0  0  0  0  0  0  0  0  0  0
   37.6000   26.3820   32.3480 C   0  0  0  0  0  0  0  0  0  0  0  0
   37.6990   25.0380   32.3990 N   0  0  0  0  0  0  0  0  0  0  0  0
   36.7430   24.2470   31.8970 C   0  0  0  0  0  0  0  0  0  0  0  0
   35.6420   24.7680   31.3190 N   0  0  0  0  0  0  0  0  0  0  0  0
   34.6040   26.4830   30.7750 H   0  0  0  0  0  0  0  0  0  0  0  0
   38.3360   27.0480   32.7340 H   0  0  0  0  0  0  0  0  0  0  0  0
   37.0040   23.2020   32.0340 H   0  0  0  0  0  0  0  0  0  0  0  0
  1  2  1  0  0  0  0
  2  8  1  1  0  0  0
  2  7  1  0  0  0  0
  2  3  1  0  0  0  0
  3  9  1  0  0  0  0
  3  4  1  0  0  0  0
  4  5  1  0  0  0  0
  4 11  1  0  0  0  0
  5 14  1  0  0  0  0
  6 16  1  0  0  0  0
  6 15  1  0  0  0  0
  6  5  1  0  0  0  0
  7 17  1  6  0  0  0
  7  6  1  0  0  0  0
 10  3  1  0  0  0  0
 12  4  1  0  0  0  0
 13  5  1  0  0  0  0
 18  7  1  0  0  0  0
 18 19  1  0  0  0  0
 19 20  1  0  0  0  0
 22 21  1  0  0  0  0
 23 32  1  0  0  0  0
 23 22  2  0  0  0  0
 24 23  1  0  0  0  0
 25 24  2  0  0  0  0
 25 26  1  0  0  0  0
 26 27  2  0  0  0  0
 27 22  1  0  0  0  0
 27  1  1  0  0  0  0
 28 24  1  0  0  0  0
 29 25  1  0  0  0  0
 30 26  1  0  0  0  0
 31 36  2  0  0  0  0
 31 32  1  0  0  0  0
 32 33  2  0  0  0  0
 33 34  1  0  0  0  0
 33 38  1  0  0  0  0
 35 39  1  0  0  0  0
 35 34  2  0  0  0  0
 36 35  1  0  0  0  0
 37 31  1  0  0  0  0
M  END
>  <minimizedAffinity>
-5.18073177

$$$$

 OpenBabel03272505043D

 39 41  0  0  1  0  0  0  0  0999 V2000
   38.1250   24.6600   34.1700 O   0  0  0  0  0  0  0  0  0  0  0  0
   38.5160   23.8790   34.9340 C   0  0  1  0  0  0  0  0  0  0  0  0
   39.9330   24.6390   35.1970 C   0  0  0  0  0  0  0  0  0  0  0  0
   40.7700   23.5370   34.8890 C   0  0  0  0  0  0  0  0  0  0  0  0
   40.6290   22.4660   35.9710 C   0  0  0  0  0  0  0  0  0  0  0  0
   39.5480   22.8560   36.9100 C   0  0  0  0  0  0  0  0  0  0  0  0
   38.3180   23.3720   36.2010 C   0  0  1  0  0  0  0  0  0  0  0  0
   38.7060   22.9860   34.3330 H   0  0  0  0  0  0  0  0  0  0  0  0
   39.9990   24.9950   36.1960 H   0  0  0  0  0  0  0  0  0  0  0  0
   40.0540   25.4680   34.5150 H   0  0  0  0  0  0  0  0  0  0  0  0
   41.8570   23.8760   34.9370 H   0  0  0  0  0  0  0  0  0  0  0  0
   40.7230   22.9380   34.0010 H   0  0  0  0  0  0  0  0  0  0  0  0
   40.4250   21.4610   35.6130 H   0  0  0  0  0  0  0  0  0  0  0  0
   41.5780   22.3850   36.5650 H   0  0  0  0  0  0  0  0  0  0  0  0
   39.9730   23.5700   37.6450 H   0  0  0  0  0  0  0  0  0  0  0  0
   39.3230   21.9430   37.5300 H   0  0  0  0  0  0  0  0  0  0  0  0
   37.5710   22.5210   36.2390 H   0  0  0  0  0  0  0  0  0  0  0  0
   37.6910   24.3480   37.2100 C   0  0  0  0  0  2  0  0  0  0  0  0
   38.1350   24.1080   38.5970 C   0  0  0  0  0  2  0  0  0  0  0  0
   38.9740   23.3880   38.6970 H   0  0  0  0  0  0  0  0  0  0  0  0
   37.7740   27.5520   34.8800 Cl  0  0  0  0  0  0  0  0  0  0  0  0
   37.1410   26.7400   33.5050 C   0  0  0  0  0  0  0  0  0  0  0  0
   36.3900   27.4320   32.6170 C   0  0  0  0  0  0  0  0  0  0  0  0
   35.9530   26.7190   31.4980 C   0  0  0  0  0  0  0  0  0  0  0  0
   36.3000   25.3830   31.3550 C   0  0  0  0  0  0  0  0  0  0  0  0
   37.0510   24.7210   32.2680 C   0  0  0  0  0  0  0  0  0  0  0  0
   37.4460   25.4240   33.3240 C   0  0  0  0  0  0  0  0  0  0  0  0
   35.3590   27.2300   30.7770 H   0  0  0  0  0  0  0  0  0  0  0  0
   35.9120   24.9230   30.4490 H   0  0  0  0  0  0  0  0  0  0  0  0
   37.2310   23.6860   32.0050 H   0  0  0  0  0  0  0  0  0  0  0  0
   36.4030   29.8230   31.9360 C   0  0  0  0  0  0  0  0  0  0  0  0
   35.9700   28.8220   32.7990 C   0  0  0  0  0  0  0  0  0  0  0  0
   35.1140   29.1860   33.8510 C   0  0  0  0  0  0  0  0  0  0  0  0
   34.7530   30.4790   33.9820 N   0  0  0  0  0  0  0  0  0  0  0  0
   35.1910   31.4160   33.1320 C   0  0  0  0  0  0  0  0  0  0  0  0
   36.0110   31.1010   32.1110 N   0  0  0  0  0  0  0  0  0  0  0  0
   37.0570   29.6100   31.1110 H   0  0  0  0  0  0  0  0  0  0  0  0
   34.7900   28.4080   34.5040 H   0  0  0  0  0  0  0  0  0  0  0  0
   34.7920   32.3900   33.4030 H   0  0  0  0  0  0  0  0  0  0  0  0
  1  2  1  0  0  0  0
  2  8  1  6  0  0  0
  2  3  1  0  0  0  0
  2  7  1  0  0  0  0
  3  9  1  0  0  0  0
  4 11  1  0  0  0  0
  4  3  1  0  0  0  0
  4  5  1  0  0  0  0
  5 14  1  0  0  0  0
  5  6  1  0  0  0  0
  6 16  1  0  0  0  0
  6 15  1  0  0  0  0
  7 17  1  6  0  0  0
  7  6  1  0  0  0  0
  7 18  1  0  0  0  0
 10  3  1  0  0  0  0
 12  4  1  0  0  0  0
 13  5  1  0  0  0  0
 18 19  1  0  0  0  0
 19 20  1  0  0  0  0
 22 21  1  0  0  0  0
 23 32  1  0  0  0  0
 23 22  2  0  0  0  0
 24 23  1  0  0  0  0
 25 24  2  0  0  0  0
 25 26  1  0  0  0  0
 26 27  2  0  0  0  0
 27 22  1  0  0  0  0
 27  1  1  0  0  0  0
 28 24  1  0  0  0  0
 29 25  1  0  0  0  0
 30 26  1  0  0  0  0
 31 36  2  0  0  0  0
 31 32  1  0  0  0  0
 32 33  2  0  0  0  0
 33 34  1  0  0  0  0
 33 38  1  0  0  0  0
 35 39  1  0  0  0  0
 35 34  2  0  0  0  0
 36 35  1  0  0  0  0
 37 31  1  0  0  0  0
M  END
>  <minimizedAffinity>
-5.18018913

$$$$

 OpenBabel03272505043D

 39 41  0  0  1  0  0  0  0  0999 V2000
   36.4820   23.0500   31.8150 O   0  0  0  0  0  0  0  0  0  0  0  0
   36.3520   22.0310   31.2760 C   0  0  1  0  0  0  0  0  0  0  0  0
   37.8200   21.4620   31.6960 C   0  0  0  0  0  0  0  0  0  0  0  0
   38.2640   21.1660   30.3840 C   0  0  0  0  0  0  0  0  0  0  0  0
   37.4690   19.9850   29.8250 C   0  0  0  0  0  0  0  0  0  0  0  0
   36.3860   19.6300   30.7750 C   0  0  0  0  0  0  0  0  0  0  0  0
   35.6560   20.8410   31.3050 C   0  0  1  0  0  0  0  0  0  0  0  0
   36.3690   22.2850   30.2130 H   0  0  0  0  0  0  0  0  0  0  0  0
   37.7360   20.6260   32.3480 H   0  0  0  0  0  0  0  0  0  0  0  0
   38.4030   22.2330   32.1800 H   0  0  0  0  0  0  0  0  0  0  0  0
   39.3450   20.8090   30.4320 H   0  0  0  0  0  0  0  0  0  0  0  0
   38.2500   21.8360   29.5470 H   0  0  0  0  0  0  0  0  0  0  0  0
   37.0290   20.1370   28.8450 H   0  0  0  0  0  0  0  0  0  0  0  0
   38.1320   19.0850   29.7190 H   0  0  0  0  0  0  0  0  0  0  0  0
   36.8210   18.9870   31.5680 H   0  0  0  0  0  0  0  0  0  0  0  0
   35.6960   18.9330   30.2210 H   0  0  0  0  0  0  0  0  0  0  0  0
   34.6750   20.8730   30.7380 H   0  0  0  0  0  0  0  0  0  0  0  0
   35.1670   20.4000   32.6950 C   0  0  0  0  0  2  0  0  0  0  0  0
   35.3780   18.9610   32.9500 C   0  0  0  0  0  2  0  0  0  0  0  0
   36.0040   18.4430   32.1940 H   0  0  0  0  0  0  0  0  0  0  0  0
   35.0030   25.4270   30.7410 Cl  0  0  0  0  0  0  0  0  0  0  0  0
   36.3150   25.4390   31.8500 C   0  0  0  0  0  0  0  0  0  0  0  0
   36.7750   26.6240   32.3170 C   0  0  0  0  0  0  0  0  0  0  0  0
   37.8070   26.5530   33.2540 C   0  0  0  0  0  0  0  0  0  0  0  0
   38.2950   25.3140   33.6490 C   0  0  0  0  0  0  0  0  0  0  0  0
   37.8120   24.1480   33.1570 C   0  0  0  0  0  0  0  0  0  0  0  0
   36.8340   24.2490   32.2620 C   0  0  0  0  0  0  0  0  0  0  0  0
   38.1960   27.4640   33.6440 H   0  0  0  0  0  0  0  0  0  0  0  0
   39.0950   25.3710   34.3830 H   0  0  0  0  0  0  0  0  0  0  0  0
   38.3000   23.2740   33.5700 H   0  0  0  0  0  0  0  0  0  0  0  0
   36.8470   28.5250   30.7180 C   0  0  0  0  0  0  0  0  0  0  0  0
   36.3060   27.9300   31.8530 C   0  0  0  0  0  0  0  0  0  0  0  0
   35.2950   28.6210   32.5390 C   0  0  0  0  0  0  0  0  0  0  0  0
   34.8940   29.8220   32.0770 N   0  0  0  0  0  0  0  0  0  0  0  0
   35.4380   30.3660   30.9800 C   0  0  0  0  0  0  0  0  0  0  0  0
   36.4090   29.7290   30.2970 N   0  0  0  0  0  0  0  0  0  0  0  0
   37.6220   28.0490   30.1480 H   0  0  0  0  0  0  0  0  0  0  0  0
   34.8900   28.1520   33.4060 H   0  0  0  0  0  0  0  0  0  0  0  0
   34.9840   31.3300   30.7700 H   0  0  0  0  0  0  0  0  0  0  0  0
  1 27  1  0  0  0  0
  2  8  1  6  0  0  0
  2  7  1  0  0  0  0
  2  3  1  0  0  0  0
  2  1  1  0  0  0  0
  3 10  1  0  0  0  0
  3  9  1  0  0  0  0
  4 11  1  0  0  0  0
  4  3  1  0  0  0  0
  5  4  1  0  0  0  0
  5  6  1  0  0  0  0
  6  7  1  0  0  0  0
  6 15  1  0  0  0  0
  7 17  1  6  0  0  0
  7 18  1  0  0  0  0
 12  4  1  0  0  0  0
 13  5  1  0  0  0  0
 14  5  1  0  0  0  0
 16  6  1  0  0  0  0
 18 19  1  0  0  0  0
 20 19  1  0  0  0  0
 21 22  1  0  0  0  0
 22 27  2  0  0  0  0
 22 23  1  0  0  0  0
 23 24  2  0  0  0  0
 24 28  1  0  0  0  0
 24 25  1  0  0  0  0
 25 29  1  0  0  0  0
 26 30  1  0  0  0  0
 26 25  2  0  0  0  0
 27 26  1  0  0  0  0
 31 32  1  0  0  0  0
 32 23  1  0  0  0  0
 32 33  2  0  0  0  0
 33 38  1  0  0  0  0
 34 33  1  0  0  0  0
 35 34  2  0  0  0  0
 36 31  2  0  0  0  0
 36 35  1  0  0  0  0
 37 31  1  0  0  0  0
 39 35  1  0  0  0  0
M  END
>  <minimizedAffinity>
-5.13087988

$$$$

 OpenBabel03272505043D

 39 41  0  0  1  0  0  0  0  0999 V2000
   38.0380   25.3060   34.6750 O   0  0  0  0  0  0  0  0  0  0  0  0
   38.3370   24.2730   35.1090 C   0  0  1  0  0  0  0  0  0  0  0  0
   39.9060   24.6570   35.3200 C   0  0  0  0  0  0  0  0  0  0  0  0
   40.4420   23.5790   34.5730 C   0  0  0  0  0  0  0  0  0  0  0  0
   40.1980   22.2660   35.3190 C   0  0  0  0  0  0  0  0  0  0  0  0
   39.3450   22.5260   36.5050 C   0  0  0  0  0  0  0  0  0  0  0  0
   38.1830   23.4400   36.1970 C   0  0  1  0  0  0  0  0  0  0  0  0
   38.2570   23.5910   34.2580 H   0  0  0  0  0  0  0  0  0  0  0  0
   40.1640   24.6700   36.3510 H   0  0  0  0  0  0  0  0  0  0  0  0
   40.1230   25.6230   34.8870 H   0  0  0  0  0  0  0  0  0  0  0  0
   41.5750   23.6930   34.5220 H   0  0  0  0  0  0  0  0  0  0  0  0
   40.1630   23.3010   33.5760 H   0  0  0  0  0  0  0  0  0  0  0  0
   39.7410   21.4720   34.7360 H   0  0  0  0  0  0  0  0  0  0  0  0
   41.1700   21.8430   35.6900 H   0  0  0  0  0  0  0  0  0  0  0  0
   39.9970   22.8930   37.3240 H   0  0  0  0  0  0  0  0  0  0  0  0
   39.0010   21.5190   36.8740 H   0  0  0  0  0  0  0  0  0  0  0  0
   37.2780   22.7610   36.1260 H   0  0  0  0  0  0  0  0  0  0  0  0
   37.9050   24.1490   37.5330 C   0  0  0  0  0  2  0  0  0  0  0  0
   38.6150   23.5330   38.6710 C   0  0  0  0  0  2  0  0  0  0  0  0
   39.3720   22.7720   38.3880 H   0  0  0  0  0  0  0  0  0  0  0  0
   38.9940   25.4960   31.8390 Cl  0  0  0  0  0  0  0  0  0  0  0  0
   38.0140   26.6300   32.6790 C   0  0  0  0  0  0  0  0  0  0  0  0
   37.6070   27.7520   32.0400 C   0  0  0  0  0  0  0  0  0  0  0  0
   36.7710   28.6010   32.7690 C   0  0  0  0  0  0  0  0  0  0  0  0
   36.4100   28.2660   34.0670 C   0  0  0  0  0  0  0  0  0  0  0  0
   36.8410   27.1350   34.6750 C   0  0  0  0  0  0  0  0  0  0  0  0
   37.6400   26.3500   33.9590 C   0  0  0  0  0  0  0  0  0  0  0  0
   36.4300   29.4950   32.3000 H   0  0  0  0  0  0  0  0  0  0  0  0
   35.7560   28.9920   34.5420 H   0  0  0  0  0  0  0  0  0  0  0  0
   36.4670   27.0230   35.6850 H   0  0  0  0  0  0  0  0  0  0  0  0
   39.3860   28.1560   30.3530 C   0  0  0  0  0  0  0  0  0  0  0  0
   38.0390   28.1380   30.6970 C   0  0  0  0  0  0  0  0  0  0  0  0
   37.1040   28.5010   29.7140 C   0  0  0  0  0  0  0  0  0  0  0  0
   37.5470   28.8510   28.4890 N   0  0  0  0  0  0  0  0  0  0  0  0
   38.8530   28.8570   28.1930 C   0  0  0  0  0  0  0  0  0  0  0  0
   39.7760   28.5130   29.1130 N   0  0  0  0  0  0  0  0  0  0  0  0
   40.1500   27.8880   31.0590 H   0  0  0  0  0  0  0  0  0  0  0  0
   36.0760   28.4820   29.9920 H   0  0  0  0  0  0  0  0  0  0  0  0
   39.0070   29.1660   27.1630 H   0  0  0  0  0  0  0  0  0  0  0  0
  1  2  1  0  0  0  0
  2  8  1  6  0  0  0
  2  3  1  0  0  0  0
  2  7  1  0  0  0  0
  3  9  1  0  0  0  0
  4  5  1  0  0  0  0
  4  3  1  0  0  0  0
  5 14  1  0  0  0  0
  5  6  1  0  0  0  0
  6 16  1  0  0  0  0
  6 15  1  0  0  0  0
  7 17  1  6  0  0  0
  7  6  1  0  0  0  0
  7 18  1  0  0  0  0
 10  3  1  0  0  0  0
 11  4  1  0  0  0  0
 12  4  1  0  0  0  0
 13  5  1  0  0  0  0
 18 19  1  0  0  0  0
 20 19  1  0  0  0  0
 21 22  1  0  0  0  0
 22 27  1  0  0  0  0
 23 22  2  0  0  0  0
 23 24  1  0  0  0  0
 24 25  2  0  0  0  0
 25 29  1  0  0  0  0
 25 26  1  0  0  0  0
 26 30  1  0  0  0  0
 27 26  2  0  0  0  0
 27  1  1  0  0  0  0
 28 24  1  0  0  0  0
 31 32  1  0  0  0  0
 31 37  1  0  0  0  0
 32 23  1  0  0  0  0
 33 38  1  0  0  0  0
 33 32  2  0  0  0  0
 34 33  1  0  0  0  0
 35 34  2  0  0  0  0
 35 36  1  0  0  0  0
 36 31  2  0  0  0  0
 39 35  1  0  0  0  0
M  END
>  <minimizedAffinity>
-5.11304903

$$$$

 OpenBabel03272505043D

 39 41  0  0  1  0  0  0  0  0999 V2000
   37.1450   26.9850   31.9260 O   0  0  0  0  0  0  0  0  0  0  0  0
   37.4630   25.9170   31.6040 C   0  0  1  0  0  0  0  0  0  0  0  0
   37.8280   25.4200   33.1130 C   0  0  0  0  0  0  0  0  0  0  0  0
   39.1560   25.0090   32.8340 C   0  0  0  0  0  0  0  0  0  0  0  0
   39.1320   23.7640   31.9460 C   0  0  0  0  0  0  0  0  0  0  0  0
   37.7350   23.4800   31.5350 C   0  0  0  0  0  0  0  0  0  0  0  0
   36.9900   24.7210   31.1050 C   0  0  1  0  0  0  0  0  0  0  0  0
   38.3950   26.0680   31.0530 H   0  0  0  0  0  0  0  0  0  0  0  0
   37.1710   24.6490   33.4330 H   0  0  0  0  0  0  0  0  0  0  0  0
   37.7760   26.2450   33.8090 H   0  0  0  0  0  0  0  0  0  0  0  0
   39.6510   24.6790   33.8060 H   0  0  0  0  0  0  0  0  0  0  0  0
   39.9080   25.5940   32.3440 H   0  0  0  0  0  0  0  0  0  0  0  0
   39.7480   23.8120   31.0530 H   0  0  0  0  0  0  0  0  0  0  0  0
   39.5030   22.8710   32.5170 H   0  0  0  0  0  0  0  0  0  0  0  0
   37.2400   22.9250   32.3590 H   0  0  0  0  0  0  0  0  0  0  0  0
   37.7970   22.7200   30.7060 H   0  0  0  0  0  0  0  0  0  0  0  0
   36.9660   24.6800   29.9720 H   0  0  0  0  0  0  0  0  0  0  0  0
   35.5220   24.4060   31.4350 C   0  0  0  0  0  2  0  0  0  0  0  0
   34.5700   25.2500   30.6860 C   0  0  0  0  0  2  0  0  0  0  0  0
   35.0260   25.8580   29.8770 H   0  0  0  0  0  0  0  0  0  0  0  0
   36.4700   27.8510   34.7160 Cl  0  0  0  0  0  0  0  0  0  0  0  0
   36.1960   28.7290   33.2650 C   0  0  0  0  0  0  0  0  0  0  0  0
   35.6090   29.9480   33.3310 C   0  0  0  0  0  0  0  0  0  0  0  0
   35.4660   30.6240   32.1180 C   0  0  0  0  0  0  0  0  0  0  0  0
   35.9180   30.0360   30.9440 C   0  0  0  0  0  0  0  0  0  0  0  0
   36.4980   28.8120   30.9170 C   0  0  0  0  0  0  0  0  0  0  0  0
   36.6140   28.1910   32.0860 C   0  0  0  0  0  0  0  0  0  0  0  0
   35.0080   31.5850   32.1290 H   0  0  0  0  0  0  0  0  0  0  0  0
   35.7610   30.6470   30.0590 H   0  0  0  0  0  0  0  0  0  0  0  0
   36.7950   28.5010   29.9230 H   0  0  0  0  0  0  0  0  0  0  0  0
   33.7370   30.3790   34.9090 C   0  0  0  0  0  0  0  0  0  0  0  0
   35.0740   30.5390   34.5570 C   0  0  0  0  0  0  0  0  0  0  0  0
   35.8950   31.2860   35.4180 C   0  0  0  0  0  0  0  0  0  0  0  0
   35.3590   31.8140   36.5370 N   0  0  0  0  0  0  0  0  0  0  0  0
   34.0680   31.6390   36.8440 C   0  0  0  0  0  0  0  0  0  0  0  0
   33.2530   30.9270   36.0410 N   0  0  0  0  0  0  0  0  0  0  0  0
   33.0580   29.8180   34.2950 H   0  0  0  0  0  0  0  0  0  0  0  0
   36.9160   31.4000   35.1360 H   0  0  0  0  0  0  0  0  0  0  0  0
   33.8290   32.1380   37.7790 H   0  0  0  0  0  0  0  0  0  0  0  0
  1 27  1  0  0  0  0
  2  8  1  6  0  0  0
  2  1  1  0  0  0  0
  2  3  1  0  0  0  0
  3  9  1  0  0  0  0
  3 10  1  0  0  0  0
  4  3  1  0  0  0  0
  4 11  1  0  0  0  0
  5 14  1  0  0  0  0
  5  4  1  0  0  0  0
  6  5  1  0  0  0  0
  6 15  1  0  0  0  0
  7 17  1  6  0  0  0
  7 18  1  0  0  0  0
  7  6  1  0  0  0  0
  7  2  1  0  0  0  0
 12  4  1  0  0  0  0
 13  5  1  0  0  0  0
 16  6  1  0  0  0  0
 19 18  1  0  0  0  0
 20 19  1  0  0  0  0
 22 23  1  0  0  0  0
 22 21  1  0  0  0  0
 23 32  1  0  0  0  0
 24 28  1  0  0  0  0
 24 23  2  0  0  0  0
 25 24  1  0  0  0  0
 26 25  2  0  0  0  0
 26 27  1  0  0  0  0
 27 22  2  0  0  0  0
 29 25  1  0  0  0  0
 30 26  1  0  0  0  0
 31 36  1  0  0  0  0
 32 31  2  0  0  0  0
 32 33  1  0  0  0  0
 33 34  2  0  0  0  0
 34 35  1  0  0  0  0
 35 39  1  0  0  0  0
 36 35  2  0  0  0  0
 37 31  1  0  0  0  0
 38 33  1  0  0  0  0
M  END
>  <minimizedAffinity>
-5.0921874

$$$$

 OpenBabel03272505043D

 39 41  0  0  1  0  0  0  0  0999 V2000
   39.2410   23.9500   35.3310 O   0  0  0  0  0  0  0  0  0  0  0  0
   39.7800   23.0450   35.8150 C   0  0  1  0  0  0  0  0  0  0  0  0
   41.2630   23.7170   35.7580 C   0  0  0  0  0  0  0  0  0  0  0  0
   41.8950   22.6640   35.0510 C   0  0  0  0  0  0  0  0  0  0  0  0
   41.9970   21.4300   35.9490 C   0  0  0  0  0  0  0  0  0  0  0  0
   41.2650   21.6820   37.2150 C   0  0  0  0  0  0  0  0  0  0  0  0
   39.9230   22.3370   36.9910 C   0  0  1  0  0  0  0  0  0  0  0  0
   39.7240   22.2610   35.0560 H   0  0  0  0  0  0  0  0  0  0  0  0
   41.6410   23.9000   36.7350 H   0  0  0  0  0  0  0  0  0  0  0  0
   41.2390   24.6460   35.2070 H   0  0  0  0  0  0  0  0  0  0  0  0
   42.9700   22.9650   34.8250 H   0  0  0  0  0  0  0  0  0  0  0  0
   41.5510   22.2230   34.1360 H   0  0  0  0  0  0  0  0  0  0  0  0
   41.6280   20.5050   35.5180 H   0  0  0  0  0  0  0  0  0  0  0  0
   43.0700   21.2300   36.2140 H   0  0  0  0  0  0  0  0  0  0  0  0
   41.9340   22.2540   37.8910 H   0  0  0  0  0  0  0  0  0  0  0  0
   41.1650   20.6840   37.7260 H   0  0  0  0  0  0  0  0  0  0  0  0
   39.1590   21.5090   37.1180 H   0  0  0  0  0  0  0  0  0  0  0  0
   39.6850   23.1450   38.2770 C   0  0  0  0  0  2  0  0  0  0  0  0
   38.2530   23.3390   38.5800 C   0  0  0  0  0  2  0  0  0  0  0  0
   37.5620   22.7390   37.9510 H   0  0  0  0  0  0  0  0  0  0  0  0
   38.8220   24.4640   32.4070 Cl  0  0  0  0  0  0  0  0  0  0  0  0
   38.5260   25.5540   33.7020 C   0  0  0  0  0  0  0  0  0  0  0  0
   38.0570   26.7940   33.4280 C   0  0  0  0  0  0  0  0  0  0  0  0
   37.7920   27.6050   34.5330 C   0  0  0  0  0  0  0  0  0  0  0  0
   38.0110   27.1180   35.8140 C   0  0  0  0  0  0  0  0  0  0  0  0
   38.4850   25.8710   36.0500 C   0  0  0  0  0  0  0  0  0  0  0  0
   38.7340   25.1250   34.9780 C   0  0  0  0  0  0  0  0  0  0  0  0
   37.4230   28.5890   34.3580 H   0  0  0  0  0  0  0  0  0  0  0  0
   37.7700   27.8280   36.6010 H   0  0  0  0  0  0  0  0  0  0  0  0
   38.5970   25.6470   37.1030 H   0  0  0  0  0  0  0  0  0  0  0  0
   36.6250   27.4630   31.5100 C   0  0  0  0  0  0  0  0  0  0  0  0
   37.8880   27.3310   32.0780 C   0  0  0  0  0  0  0  0  0  0  0  0
   38.9970   27.7310   31.3150 C   0  0  0  0  0  0  0  0  0  0  0  0
   38.7950   28.2210   30.0740 N   0  0  0  0  0  0  0  0  0  0  0  0
   37.5640   28.3320   29.5590 C   0  0  0  0  0  0  0  0  0  0  0  0
   36.4780   27.9590   30.2650 N   0  0  0  0  0  0  0  0  0  0  0  0
   35.7370   27.1760   32.0410 H   0  0  0  0  0  0  0  0  0  0  0  0
   39.9580   27.6250   31.7630 H   0  0  0  0  0  0  0  0  0  0  0  0
   37.6080   28.7450   28.5550 H   0  0  0  0  0  0  0  0  0  0  0  0
  1  2  1  0  0  0  0
  2  8  1  6  0  0  0
  2  7  1  0  0  0  0
  3  2  1  0  0  0  0
  3  9  1  0  0  0  0
  4  3  1  0  0  0  0
  4  5  1  0  0  0  0
  5 14  1  0  0  0  0
  5  6  1  0  0  0  0
  6 16  1  0  0  0  0
  6 15  1  0  0  0  0
  7 17  1  6  0  0  0
  7  6  1  0  0  0  0
  7 18  1  0  0  0  0
 10  3  1  0  0  0  0
 11  4  1  0  0  0  0
 12  4  1  0  0  0  0
 13  5  1  0  0  0  0
 18 19  1  0  0  0  0
 20 19  1  0  0  0  0
 21 22  1  0  0  0  0
 22 27  1  0  0  0  0
 23 22  2  0  0  0  0
 23 24  1  0  0  0  0
 24 25  2  0  0  0  0
 25 26  1  0  0  0  0
 25 29  1  0  0  0  0
 26 30  1  0  0  0  0
 27  1  1  0  0  0  0
 27 26  2  0  0  0  0
 28 24  1  0  0  0  0
 31 37  1  0  0  0  0
 31 32  1  0  0  0  0
 32 23  1  0  0  0  0
 33 38  1  0  0  0  0
 33 32  2  0  0  0  0
 34 33  1  0  0  0  0
 35 34  2  0  0  0  0
 35 36  1  0  0  0  0
 36 31  2  0  0  0  0
 39 35  1  0  0  0  0
M  END
>  <minimizedAffinity>
-5.08287048

$$$$

 OpenBabel03272505043D

 39 41  0  0  1  0  0  0  0  0999 V2000
   36.6610   27.4040   33.3310 O   0  0  0  0  0  0  0  0  0  0  0  0
   36.5140   28.5450   33.1780 C   0  0  1  0  0  0  0  0  0  0  0  0
   35.6870   28.3930   31.7830 C   0  0  0  0  0  0  0  0  0  0  0  0
   36.5230   29.2300   31.0030 C   0  0  0  0  0  0  0  0  0  0  0  0
   36.3680   30.6810   31.4600 C   0  0  0  0  0  0  0  0  0  0  0  0
   35.5110   30.7260   32.6720 C   0  0  0  0  0  0  0  0  0  0  0  0
   35.8690   29.6580   33.6770 C   0  0  1  0  0  0  0  0  0  0  0  0
   37.5160   28.9170   32.9500 H   0  0  0  0  0  0  0  0  0  0  0  0
   34.6830   28.7270   31.8920 H   0  0  0  0  0  0  0  0  0  0  0  0
   35.6850   27.3650   31.4500 H   0  0  0  0  0  0  0  0  0  0  0  0
   36.1600   29.2110   29.9230 H   0  0  0  0  0  0  0  0  0  0  0  0
   37.5890   29.1560   30.9200 H   0  0  0  0  0  0  0  0  0  0  0  0
   37.2920   31.2070   31.6760 H   0  0  0  0  0  0  0  0  0  0  0  0
   35.8570   31.2880   30.6650 H   0  0  0  0  0  0  0  0  0  0  0  0
   34.4520   30.6950   32.3450 H   0  0  0  0  0  0  0  0  0  0  0  0
   35.6240   31.7610   33.1010 H   0  0  0  0  0  0  0  0  0  0  0  0
   36.4500   30.1930   34.4900 H   0  0  0  0  0  0  0  0  0  0  0  0
   34.5460   29.3770   34.4080 C   0  0  0  0  0  2  0  0  0  0  0  0
   33.8220   30.6090   34.7810 C   0  0  0  0  0  2  0  0  0  0  0  0
   34.2340   31.5400   34.3400 H   0  0  0  0  0  0  0  0  0  0  0  0
   38.0670   26.6470   35.8690 Cl  0  0  0  0  0  0  0  0  0  0  0  0
   37.7860   25.6440   34.5030 C   0  0  0  0  0  0  0  0  0  0  0  0
   38.2330   24.3660   34.5190 C   0  0  0  0  0  0  0  0  0  0  0  0
   37.9230   23.5970   33.3960 C   0  0  0  0  0  0  0  0  0  0  0  0
   37.1960   24.1580   32.3550 C   0  0  0  0  0  0  0  0  0  0  0  0
   36.7690   25.4430   32.3730 C   0  0  0  0  0  0  0  0  0  0  0  0
   37.0840   26.1520   33.4520 C   0  0  0  0  0  0  0  0  0  0  0  0
   38.2580   22.5860   33.3710 H   0  0  0  0  0  0  0  0  0  0  0  0
   37.0070   23.4740   31.5320 H   0  0  0  0  0  0  0  0  0  0  0  0
   36.2150   25.7230   31.4850 H   0  0  0  0  0  0  0  0  0  0  0  0
   38.4900   23.4000   36.7950 C   0  0  0  0  0  0  0  0  0  0  0  0
   39.0540   23.7940   35.5850 C   0  0  0  0  0  0  0  0  0  0  0  0
   40.4380   23.6220   35.4190 C   0  0  0  0  0  0  0  0  0  0  0  0
   41.1570   23.0910   36.4290 N   0  0  0  0  0  0  0  0  0  0  0  0
   40.5790   22.7240   37.5800 C   0  0  0  0  0  0  0  0  0  0  0  0
   39.2540   22.8730   37.7720 N   0  0  0  0  0  0  0  0  0  0  0  0
   37.4380   23.5040   36.9840 H   0  0  0  0  0  0  0  0  0  0  0  0
   40.8560   23.9280   34.4880 H   0  0  0  0  0  0  0  0  0  0  0  0
   41.3200   22.3200   38.2640 H   0  0  0  0  0  0  0  0  0  0  0  0
  1 27  1  0  0  0  0
  2  8  1  6  0  0  0
  2  1  1  0  0  0  0
  2  7  1  0  0  0  0
  3  9  1  0  0  0  0
  3  2  1  0  0  0  0
  4  5  1  0  0  0  0
  4  3  1  0  0  0  0
  5 13  1  0  0  0  0
  5  6  1  0  0  0  0
  6 16  1  0  0  0  0
  6  7  1  0  0  0  0
  7 18  1  0  0  0  0
  7 17  1  1  0  0  0
 10  3  1  0  0  0  0
 11  4  1  0  0  0  0
 12  4  1  0  0  0  0
 14  5  1  0  0  0  0
 15  6  1  0  0  0  0
 18 19  1  0  0  0  0
 20 19  1  0  0  0  0
 22 23  1  0  0  0  0
 22 21  1  0  0  0  0
 23 32  1  0  0  0  0
 24 23  2  0  0  0  0
 25 26  2  0  0  0  0
 25 24  1  0  0  0  0
 26 27  1  0  0  0  0
 27 22  2  0  0  0  0
 28 24  1  0  0  0  0
 29 25  1  0  0  0  0
 30 26  1  0  0  0  0
 31 37  1  0  0  0  0
 31 36  1  0  0  0  0
 32 31  2  0  0  0  0
 33 32  1  0  0  0  0
 33 34  2  0  0  0  0
 34 35  1  0  0  0  0
 35 36  2  0  0  0  0
 35 39  1  0  0  0  0
 38 33  1  0  0  0  0
M  END
>  <minimizedAffinity>
-5.06634092

$$$$
