
 OpenBabel03272504323D

 34 36  0  0  0  0  0  0  0  0999 V2000
   35.0830   29.6190   47.5570 C   0  0  0  0  0  0  0  0  0  0  0  0
   35.2400   30.0450   46.2520 C   0  0  0  0  0  0  0  0  0  0  0  0
   34.2090   29.8960   45.3410 C   0  0  0  0  0  0  0  0  0  0  0  0
   33.0560   29.3250   45.7830 N   0  0  0  0  0  0  0  0  0  0  0  0
   32.9220   28.9130   47.0730 C   0  0  0  0  0  0  0  0  0  0  0  0
   33.9280   29.0540   47.9700 N   0  0  0  0  0  0  0  0  0  0  0  0
   36.1510   30.4870   45.9370 H   0  0  0  0  0  0  0  0  0  0  0  0
   34.2400   30.1940   44.3190 H   0  0  0  0  0  0  0  0  0  0  0  0
   36.1110   29.7460   48.5410 N   0  0  0  0  0  0  0  0  0  0  0  0
   36.1740   28.8860   49.7200 C   0  0  0  0  0  0  0  0  0  0  0  0
   36.4690   29.5980   50.9930 C   0  0  0  0  0  0  0  0  0  0  0  0
   37.2020   30.8060   50.9310 N   0  0  0  0  0  0  0  0  0  0  0  0
   36.9430   31.6000   49.7360 C   0  0  0  0  0  0  0  0  0  0  0  0
   37.1880   30.6640   48.5560 C   0  0  0  0  0  0  0  0  0  0  0  0
   35.1950   28.3450   49.7850 H   0  0  0  0  0  0  0  0  0  0  0  0
   36.9450   28.1160   49.4990 H   0  0  0  0  0  0  0  0  0  0  0  0
   37.0000   28.8860   51.6620 H   0  0  0  0  0  0  0  0  0  0  0  0
   35.4920   29.8200   51.5040 H   0  0  0  0  0  0  0  0  0  0  0  0
   38.2240   30.7200   51.0860 H   0  0  0  0  0  0  0  0  0  0  0  0
   35.9550   32.0600   49.7180 H   0  0  0  0  0  0  0  0  0  0  0  0
   37.7550   32.3670   49.6930 H   0  0  0  0  0  0  0  0  0  0  0  0
   38.1630   30.1710   48.7380 H   0  0  0  0  0  0  0  0  0  0  0  0
   37.2430   31.2050   47.5940 H   0  0  0  0  0  0  0  0  0  0  0  0
   31.6680   28.3040   47.5010 C   0  0  0  0  0  0  0  0  0  0  0  0
   31.6430   27.4170   48.5420 C   0  0  0  0  0  0  0  0  0  0  0  0
   30.4710   26.8140   48.9830 C   0  0  0  0  0  0  0  0  0  0  0  0
   29.3320   27.1590   48.3160 N   0  0  0  0  0  0  0  0  0  0  0  0
   29.3740   28.0400   47.2890 C   0  0  0  0  0  0  0  0  0  0  0  0
   30.5310   28.6040   46.8880 N   0  0  0  0  0  0  0  0  0  0  0  0
   32.5470   27.1490   49.0650 H   0  0  0  0  0  0  0  0  0  0  0  0
   30.4670   26.1130   49.8080 H   0  0  0  0  0  0  0  0  0  0  0  0
   28.1410   28.4000   46.5790 C   0  0  0  0  0  0  0  0  0  0  0  0
   26.9580   27.8220   47.3220 C   0  0  0  0  0  0  0  0  0  0  0  0
   26.8600   26.7470   47.0170 H   0  0  0  0  0  0  0  0  0  0  0  0
  1  6  1  0  0  0  0
  1  9  1  0  0  0  0
  2  1  2  0  0  0  0
  3  4  2  0  0  0  0
  3  2  1  0  0  0  0
  4  5  1  0  0  0  0
  5 24  1  0  0  0  0
  5  6  2  0  0  0  0
  7  2  1  0  0  0  0
  8  3  1  0  0  0  0
  9 14  1  0  0  0  0
  9 10  1  0  0  0  0
 10 15  1  0  0  0  0
 10 11  1  0  0  0  0
 11 18  1  0  0  0  0
 11 17  1  0  0  0  0
 12 11  1  0  0  0  0
 12 19  1  0  0  0  0
 13 12  1  0  0  0  0
 14 22  1  0  0  0  0
 14 13  1  0  0  0  0
 16 10  1  0  0  0  0
 20 13  1  0  0  0  0
 21 13  1  0  0  0  0
 23 14  1  0  0  0  0
 24 25  1  0  0  0  0
 25 26  2  0  0  0  0
 25 30  1  0  0  0  0
 26 31  1  0  0  0  0
 27 26  1  0  0  0  0
 28 27  2  0  0  0  0
 29 28  1  0  0  0  0
 29 24  2  0  0  0  0
 32 28  1  0  0  0  0
 32 33  1  0  0  0  0
 34 33  1  0  0  0  0
M  END
>  <minimizedAffinity>
-4.74916172

>  <minimizedRMSD>
0.370811909

$$$$
