
 OpenBabel03272510193D

 30 32  0  0  0  0  0  0  0  0999 V2000
   37.4510   29.2060   50.8490 Br  0  0  0  0  0  0  0  0  0  0  0  0
   36.0280   29.2800   49.5760 C   0  0  0  0  0  0  0  0  0  0  0  0
   36.0020   30.2700   48.5860 C   0  0  0  0  0  0  0  0  0  0  0  0
   34.9510   30.2580   47.7100 C   0  0  0  0  0  0  0  0  0  0  0  0
   33.9340   29.3360   47.7520 C   0  0  0  0  0  0  0  0  0  0  0  0
   33.9760   28.3740   48.7270 C   0  0  0  0  0  0  0  0  0  0  0  0
   35.0220   28.3590   49.6250 C   0  0  0  0  0  0  0  0  0  0  0  0
   34.8630   30.9980   46.9140 H   0  0  0  0  0  0  0  0  0  0  0  0
   33.1840   27.6330   48.7820 H   0  0  0  0  0  0  0  0  0  0  0  0
   35.0040   27.5710   50.3790 H   0  0  0  0  0  0  0  0  0  0  0  0
   38.0150   33.1830   49.4500 C   0  0  0  0  0  0  0  0  0  0  0  0
   39.0270   33.1970   48.4560 C   0  0  0  0  0  0  0  0  0  0  0  0
   38.9970   32.1890   47.4930 C   0  0  0  0  0  0  0  0  0  0  0  0
   38.0020   31.2390   47.5490 N   0  0  0  0  0  0  0  0  0  0  0  0
   37.0610   31.2630   48.5090 C   0  0  0  0  0  0  0  0  0  0  0  0
   37.0710   32.2450   49.4660 N   0  0  0  0  0  0  0  0  0  0  0  0
   37.9890   33.9430   50.2250 H   0  0  0  0  0  0  0  0  0  0  0  0
   39.7800   33.9580   48.4550 H   0  0  0  0  0  0  0  0  0  0  0  0
   39.7340   32.1410   46.7100 H   0  0  0  0  0  0  0  0  0  0  0  0
   32.8130   29.3260   46.8150 C   0  0  0  0  0  0  0  0  0  0  0  0
   31.8620   28.3390   46.7310 C   0  0  0  0  0  0  0  0  0  0  0  0
   30.8170   28.3730   45.8260 C   0  0  0  0  0  0  0  0  0  0  0  0
   30.7150   29.4030   44.9930 N   0  0  0  0  0  0  0  0  0  0  0  0
   31.6380   30.3890   45.0530 C   0  0  0  0  0  0  0  0  0  0  0  0
   32.6430   30.3340   45.9400 N   0  0  0  0  0  0  0  0  0  0  0  0
   31.9480   27.4930   47.4190 H   0  0  0  0  0  0  0  0  0  0  0  0
   30.0840   27.5720   45.7910 H   0  0  0  0  0  0  0  0  0  0  0  0
   31.5650   31.5620   44.1400 C   0  0  0  0  0  0  0  0  0  0  0  0
   31.5690   32.8780   44.9090 C   0  0  0  0  0  0  0  0  0  0  0  0
   31.2260   33.6660   44.2110 H   0  0  0  0  0  0  0  0  0  0  0  0
  2  7  1  0  0  0  0
  2  1  1  0  0  0  0
  3  2  2  0  0  0  0
  4  5  2  0  0  0  0
  4  3  1  0  0  0  0
  5  6  1  0  0  0  0
  6  9  1  0  0  0  0
  6  7  2  0  0  0  0
  7 10  1  0  0  0  0
  8  4  1  0  0  0  0
 11 16  1  0  0  0  0
 11 17  1  0  0  0  0
 12 11  2  0  0  0  0
 13 14  2  0  0  0  0
 13 12  1  0  0  0  0
 14 15  1  0  0  0  0
 15  3  1  0  0  0  0
 15 16  2  0  0  0  0
 18 12  1  0  0  0  0
 19 13  1  0  0  0  0
 20  5  1  0  0  0  0
 21 20  1  0  0  0  0
 21 26  1  0  0  0  0
 22 21  2  0  0  0  0
 23 24  2  0  0  0  0
 23 22  1  0  0  0  0
 24 25  1  0  0  0  0
 25 20  2  0  0  0  0
 27 22  1  0  0  0  0
 28 29  1  0  0  0  0
 28 24  1  0  0  0  0
 30 29  1  0  0  0  0
M  END
>  <minimizedAffinity>
-5.88197803

>  <minimizedRMSD>
0.481213719

$$$$
