
 OpenBabel03272510103D

 21 22  0  0  0  0  0  0  0  0999 V2000
   38.3750   25.4690   35.4290 C   0  0  0  0  0  0  0  0  0  0  0  0
   38.2670   26.7560   35.9280 C   0  0  0  0  0  0  0  0  0  0  0  0
   37.6080   27.7920   35.2950 C   0  0  0  0  0  0  0  0  0  0  0  0
   37.0120   27.5470   34.0850 C   0  0  0  0  0  0  0  0  0  0  0  0
   37.1260   26.2510   33.5940 C   0  0  0  0  0  0  0  0  0  0  0  0
   37.7750   25.2820   34.2440 N   0  0  0  0  0  0  0  0  0  0  0  0
   38.7230   27.0000   36.8810 H   0  0  0  0  0  0  0  0  0  0  0  0
   37.5420   28.7820   35.7090 H   0  0  0  0  0  0  0  0  0  0  0  0
   36.7040   25.9210   32.6530 H   0  0  0  0  0  0  0  0  0  0  0  0
   40.2360   23.7800   35.6600 C   0  0  0  0  0  0  0  0  0  0  0  0
   39.0770   24.4140   36.1300 C   0  0  0  0  0  0  0  0  0  0  0  0
   38.5490   24.0120   37.3600 C   0  0  0  0  0  0  0  0  0  0  0  0
   39.2160   23.0090   38.0290 N   0  0  0  0  0  0  0  0  0  0  0  0
   40.3210   22.4290   37.5450 C   0  0  0  0  0  0  0  0  0  0  0  0
   40.8400   22.8050   36.3640 N   0  0  0  0  0  0  0  0  0  0  0  0
   40.5890   24.1490   34.6930 H   0  0  0  0  0  0  0  0  0  0  0  0
   37.6660   24.4120   37.8400 H   0  0  0  0  0  0  0  0  0  0  0  0
   40.8130   21.6520   38.0910 H   0  0  0  0  0  0  0  0  0  0  0  0
   36.2760   28.5300   33.2860 C   0  0  0  0  0  2  0  0  0  0  0  0
   35.5200   29.5490   34.1010 C   0  0  0  0  0  2  0  0  0  0  0  0
   34.9130   30.1480   33.3900 H   0  0  0  0  0  0  0  0  0  0  0  0
  1  2  1  0  0  0  0
  1 11  1  0  0  0  0
  2  7  1  0  0  0  0
  3  8  1  0  0  0  0
  3  2  2  0  0  0  0
  4  3  1  0  0  0  0
  5  4  2  0  0  0  0
  5  6  1  0  0  0  0
  6  1  2  0  0  0  0
  9  5  1  0  0  0  0
 10 11  2  0  0  0  0
 10 15  1  0  0  0  0
 11 12  1  0  0  0  0
 12 17  1  0  0  0  0
 12 13  2  0  0  0  0
 14 13  1  0  0  0  0
 14 18  1  0  0  0  0
 15 14  2  0  0  0  0
 16 10  1  0  0  0  0
 19  4  1  0  0  0  0
 19 20  1  0  0  0  0
 21 20  1  0  0  0  0
M  END
>  <minimizedAffinity>
-4.3290143

$$$$

 OpenBabel03272510103D

 21 22  0  0  0  0  0  0  0  0999 V2000
   38.4040   25.3980   35.4170 C   0  0  0  0  0  0  0  0  0  0  0  0
   38.2950   26.6870   35.9090 C   0  0  0  0  0  0  0  0  0  0  0  0
   37.6460   27.7240   35.2650 C   0  0  0  0  0  0  0  0  0  0  0  0
   37.0630   27.4760   34.0490 C   0  0  0  0  0  0  0  0  0  0  0  0
   37.1780   26.1780   33.5640 C   0  0  0  0  0  0  0  0  0  0  0  0
   37.8160   25.2090   34.2250 N   0  0  0  0  0  0  0  0  0  0  0  0
   38.7410   26.9340   36.8660 H   0  0  0  0  0  0  0  0  0  0  0  0
   37.5800   28.7160   35.6740 H   0  0  0  0  0  0  0  0  0  0  0  0
   36.7650   25.8460   32.6210 H   0  0  0  0  0  0  0  0  0  0  0  0
   38.6800   23.8090   37.3570 C   0  0  0  0  0  0  0  0  0  0  0  0
   39.0940   24.3440   36.1290 C   0  0  0  0  0  0  0  0  0  0  0  0
   40.2530   23.8340   35.5350 C   0  0  0  0  0  0  0  0  0  0  0  0
   40.9110   22.8300   36.2110 N   0  0  0  0  0  0  0  0  0  0  0  0
   40.4830   22.3470   37.3840 C   0  0  0  0  0  0  0  0  0  0  0  0
   39.3710   22.8270   37.9660 N   0  0  0  0  0  0  0  0  0  0  0  0
   37.7670   24.2580   37.7570 H   0  0  0  0  0  0  0  0  0  0  0  0
   40.6850   24.1510   34.5950 H   0  0  0  0  0  0  0  0  0  0  0  0
   41.0190   21.5670   37.8820 H   0  0  0  0  0  0  0  0  0  0  0  0
   36.3400   28.4590   33.2380 C   0  0  0  0  0  2  0  0  0  0  0  0
   35.4340   29.3690   34.0290 C   0  0  0  0  0  2  0  0  0  0  0  0
   34.8590   29.9710   33.2970 H   0  0  0  0  0  0  0  0  0  0  0  0
  1  2  1  0  0  0  0
  1 11  1  0  0  0  0
  2  7  1  0  0  0  0
  3  8  1  0  0  0  0
  3  2  2  0  0  0  0
  4  3  1  0  0  0  0
  5  4  2  0  0  0  0
  5  6  1  0  0  0  0
  6  1  2  0  0  0  0
  9  5  1  0  0  0  0
 10 16  1  0  0  0  0
 10 15  1  0  0  0  0
 11 10  2  0  0  0  0
 12 11  1  0  0  0  0
 12 13  2  0  0  0  0
 13 14  1  0  0  0  0
 14 18  1  0  0  0  0
 14 15  2  0  0  0  0
 17 12  1  0  0  0  0
 19 20  1  0  0  0  0
 19  4  1  0  0  0  0
 21 20  1  0  0  0  0
M  END
>  <minimizedAffinity>
-4.28771734

$$$$

 OpenBabel03272510103D

 21 22  0  0  0  0  0  0  0  0999 V2000
   37.3860   21.8670   34.9810 C   0  0  0  0  0  0  0  0  0  0  0  0
   36.2720   21.0490   35.0680 C   0  0  0  0  0  0  0  0  0  0  0  0
   35.5730   20.5530   33.9840 C   0  0  0  0  0  0  0  0  0  0  0  0
   35.9990   20.8840   32.7230 C   0  0  0  0  0  0  0  0  0  0  0  0
   37.1180   21.7050   32.6470 C   0  0  0  0  0  0  0  0  0  0  0  0
   37.7600   22.1600   33.7260 N   0  0  0  0  0  0  0  0  0  0  0  0
   35.8960   20.7610   36.0430 H   0  0  0  0  0  0  0  0  0  0  0  0
   34.7100   19.9200   34.0860 H   0  0  0  0  0  0  0  0  0  0  0  0
   37.5590   22.0420   31.7180 H   0  0  0  0  0  0  0  0  0  0  0  0
   39.4640   22.2230   36.3660 C   0  0  0  0  0  0  0  0  0  0  0  0
   38.0870   22.3630   36.1460 C   0  0  0  0  0  0  0  0  0  0  0  0
   37.3200   23.0250   37.1100 C   0  0  0  0  0  0  0  0  0  0  0  0
   37.9850   23.4990   38.2190 N   0  0  0  0  0  0  0  0  0  0  0  0
   39.3030   23.3450   38.3930 C   0  0  0  0  0  0  0  0  0  0  0  0
   40.0530   22.7100   37.4750 N   0  0  0  0  0  0  0  0  0  0  0  0
   39.9950   21.6950   35.5700 H   0  0  0  0  0  0  0  0  0  0  0  0
   36.2540   23.2030   37.0690 H   0  0  0  0  0  0  0  0  0  0  0  0
   39.7870   23.7250   39.2670 H   0  0  0  0  0  0  0  0  0  0  0  0
   35.3730   20.4440   31.4740 C   0  0  0  0  0  2  0  0  0  0  0  0
   36.3250   19.7990   30.4980 C   0  0  0  0  0  2  0  0  0  0  0  0
   35.7610   19.6290   29.5580 H   0  0  0  0  0  0  0  0  0  0  0  0
  1  2  1  0  0  0  0
  1 11  1  0  0  0  0
  2  7  1  0  0  0  0
  3  8  1  0  0  0  0
  3  2  2  0  0  0  0
  4  3  1  0  0  0  0
  5  4  2  0  0  0  0
  5  6  1  0  0  0  0
  6  1  2  0  0  0  0
  9  5  1  0  0  0  0
 10 15  1  0  0  0  0
 11 10  2  0  0  0  0
 11 12  1  0  0  0  0
 12 13  2  0  0  0  0
 13 14  1  0  0  0  0
 14 18  1  0  0  0  0
 15 14  2  0  0  0  0
 16 10  1  0  0  0  0
 17 12  1  0  0  0  0
 19  4  1  0  0  0  0
 20 19  1  0  0  0  0
 21 20  1  0  0  0  0
M  END
>  <minimizedAffinity>
-4.18475723

$$$$

 OpenBabel03272510103D

 21 22  0  0  0  0  0  0  0  0999 V2000
   37.7240   25.4880   33.9880 C   0  0  0  0  0  0  0  0  0  0  0  0
   37.7150   25.9910   35.2780 C   0  0  0  0  0  0  0  0  0  0  0  0
   38.1610   25.3060   36.3930 C   0  0  0  0  0  0  0  0  0  0  0  0
   38.6500   24.0360   36.2290 C   0  0  0  0  0  0  0  0  0  0  0  0
   38.6540   23.5410   34.9300 C   0  0  0  0  0  0  0  0  0  0  0  0
   38.2110   24.2420   33.8830 N   0  0  0  0  0  0  0  0  0  0  0  0
   37.3370   26.9910   35.4590 H   0  0  0  0  0  0  0  0  0  0  0  0
   38.1400   25.7260   37.3830 H   0  0  0  0  0  0  0  0  0  0  0  0
   39.0110   22.5560   34.6590 H   0  0  0  0  0  0  0  0  0  0  0  0
   36.2980   25.7790   31.9260 C   0  0  0  0  0  0  0  0  0  0  0  0
   37.2460   26.2430   32.8500 C   0  0  0  0  0  0  0  0  0  0  0  0
   37.7770   27.5240   32.6730 C   0  0  0  0  0  0  0  0  0  0  0  0
   37.3230   28.2460   31.5910 N   0  0  0  0  0  0  0  0  0  0  0  0
   36.4160   27.7660   30.7320 C   0  0  0  0  0  0  0  0  0  0  0  0
   35.8970   26.5360   30.8880 N   0  0  0  0  0  0  0  0  0  0  0  0
   35.9290   24.7700   32.1310 H   0  0  0  0  0  0  0  0  0  0  0  0
   38.5120   28.0060   33.3050 H   0  0  0  0  0  0  0  0  0  0  0  0
   36.0870   28.3530   29.9010 H   0  0  0  0  0  0  0  0  0  0  0  0
   39.1590   23.1780   37.3010 C   0  0  0  0  0  2  0  0  0  0  0  0
   38.6030   23.4960   38.6660 C   0  0  0  0  0  2  0  0  0  0  0  0
   39.1550   22.8690   39.3960 H   0  0  0  0  0  0  0  0  0  0  0  0
  1  2  1  0  0  0  0
  2  7  1  0  0  0  0
  2  3  2  0  0  0  0
  3  8  1  0  0  0  0
  4  3  1  0  0  0  0
  4 19  1  0  0  0  0
  5  4  2  0  0  0  0
  6  1  2  0  0  0  0
  6  5  1  0  0  0  0
  9  5  1  0  0  0  0
 10 16  1  0  0  0  0
 10 11  1  0  0  0  0
 11  1  1  0  0  0  0
 12 11  2  0  0  0  0
 12 17  1  0  0  0  0
 13 12  1  0  0  0  0
 14 15  1  0  0  0  0
 14 13  2  0  0  0  0
 15 10  2  0  0  0  0
 18 14  1  0  0  0  0
 19 20  1  0  0  0  0
 20 21  1  0  0  0  0
M  END
>  <minimizedAffinity>
-4.10096025

$$$$

 OpenBabel03272510103D

 21 22  0  0  0  0  0  0  0  0999 V2000
   38.3160   25.1240   35.3050 C   0  0  0  0  0  0  0  0  0  0  0  0
   37.8530   24.6850   36.5340 C   0  0  0  0  0  0  0  0  0  0  0  0
   38.5020   23.7650   37.3360 C   0  0  0  0  0  0  0  0  0  0  0  0
   39.6900   23.2380   36.9000 C   0  0  0  0  0  0  0  0  0  0  0  0
   40.1450   23.6850   35.6650 C   0  0  0  0  0  0  0  0  0  0  0  0
   39.4810   24.5770   34.9260 N   0  0  0  0  0  0  0  0  0  0  0  0
   36.9180   25.0710   36.9230 H   0  0  0  0  0  0  0  0  0  0  0  0
   38.1150   23.4440   38.2870 H   0  0  0  0  0  0  0  0  0  0  0  0
   41.0650   23.3530   35.2030 H   0  0  0  0  0  0  0  0  0  0  0  0
   37.1920   27.3540   34.9490 C   0  0  0  0  0  0  0  0  0  0  0  0
   37.6010   26.0910   34.5000 C   0  0  0  0  0  0  0  0  0  0  0  0
   37.3070   25.7220   33.1830 C   0  0  0  0  0  0  0  0  0  0  0  0
   36.6280   26.6410   32.4140 N   0  0  0  0  0  0  0  0  0  0  0  0
   36.2530   27.8380   32.8810 C   0  0  0  0  0  0  0  0  0  0  0  0
   36.5290   28.2060   34.1440 N   0  0  0  0  0  0  0  0  0  0  0  0
   37.4580   27.5700   35.9870 H   0  0  0  0  0  0  0  0  0  0  0  0
   37.5610   24.7840   32.7080 H   0  0  0  0  0  0  0  0  0  0  0  0
   35.7260   28.5280   32.2560 H   0  0  0  0  0  0  0  0  0  0  0  0
   40.5000   22.2560   37.6250 C   0  0  0  0  0  2  0  0  0  0  0  0
   41.5600   21.5870   36.7860 C   0  0  0  0  0  2  0  0  0  0  0  0
   42.0120   20.7890   37.4090 H   0  0  0  0  0  0  0  0  0  0  0  0
  1  2  1  0  0  0  0
  2  7  1  0  0  0  0
  2  3  2  0  0  0  0
  3  8  1  0  0  0  0
  4  3  1  0  0  0  0
  4 19  1  0  0  0  0
  5  4  2  0  0  0  0
  6  1  2  0  0  0  0
  6  5  1  0  0  0  0
  9  5  1  0  0  0  0
 10 16  1  0  0  0  0
 11 10  1  0  0  0  0
 11  1  1  0  0  0  0
 12 11  2  0  0  0  0
 13 14  2  0  0  0  0
 13 12  1  0  0  0  0
 14 15  1  0  0  0  0
 15 10  2  0  0  0  0
 17 12  1  0  0  0  0
 18 14  1  0  0  0  0
 20 21  1  0  0  0  0
 20 19  1  0  0  0  0
M  END
>  <minimizedAffinity>
-4.0798912

$$$$

 OpenBabel03272510103D

 21 22  0  0  0  0  0  0  0  0999 V2000
   35.1940   29.8810   34.6390 C   0  0  0  0  0  0  0  0  0  0  0  0
   35.9560   30.7930   35.3500 C   0  0  0  0  0  0  0  0  0  0  0  0
   35.4460   31.7210   36.2380 C   0  0  0  0  0  0  0  0  0  0  0  0
   34.0910   31.7560   36.4440 C   0  0  0  0  0  0  0  0  0  0  0  0
   33.3360   30.8360   35.7250 C   0  0  0  0  0  0  0  0  0  0  0  0
   33.8750   29.9580   34.8760 N   0  0  0  0  0  0  0  0  0  0  0  0
   37.0320   30.8050   35.2210 H   0  0  0  0  0  0  0  0  0  0  0  0
   36.0660   32.4170   36.7750 H   0  0  0  0  0  0  0  0  0  0  0  0
   32.2590   30.7540   35.7910 H   0  0  0  0  0  0  0  0  0  0  0  0
   36.6720   27.9140   34.0810 C   0  0  0  0  0  0  0  0  0  0  0  0
   35.7730   28.9260   33.7180 C   0  0  0  0  0  0  0  0  0  0  0  0
   35.3970   29.0360   32.3760 C   0  0  0  0  0  0  0  0  0  0  0  0
   35.9470   28.1270   31.4970 N   0  0  0  0  0  0  0  0  0  0  0  0
   36.8030   27.1750   31.8840 C   0  0  0  0  0  0  0  0  0  0  0  0
   37.1730   27.0580   33.1710 N   0  0  0  0  0  0  0  0  0  0  0  0
   36.9170   27.8920   35.1460 H   0  0  0  0  0  0  0  0  0  0  0  0
   34.7160   29.7650   31.9580 H   0  0  0  0  0  0  0  0  0  0  0  0
   37.2120   26.4870   31.1750 H   0  0  0  0  0  0  0  0  0  0  0  0
   33.3930   32.6730   37.3470 C   0  0  0  0  0  2  0  0  0  0  0  0
   34.1630   33.9290   37.6710 C   0  0  0  0  0  2  0  0  0  0  0  0
   33.5880   34.4700   38.4500 H   0  0  0  0  0  0  0  0  0  0  0  0
  1  6  2  0  0  0  0
  1  2  1  0  0  0  0
  2  3  2  0  0  0  0
  3  4  1  0  0  0  0
  3  8  1  0  0  0  0
  4 19  1  0  0  0  0
  5  9  1  0  0  0  0
  5  4  2  0  0  0  0
  6  5  1  0  0  0  0
  7  2  1  0  0  0  0
 10 16  1  0  0  0  0
 11 10  1  0  0  0  0
 11  1  1  0  0  0  0
 12 11  2  0  0  0  0
 13 14  2  0  0  0  0
 13 12  1  0  0  0  0
 14 15  1  0  0  0  0
 15 10  2  0  0  0  0
 17 12  1  0  0  0  0
 18 14  1  0  0  0  0
 19 20  1  0  0  0  0
 20 21  1  0  0  0  0
M  END
>  <minimizedAffinity>
-4.06471395

$$$$

 OpenBabel03272510103D

 21 22  0  0  0  0  0  0  0  0999 V2000
   37.6450   26.7090   33.8840 C   0  0  0  0  0  0  0  0  0  0  0  0
   37.8840   27.1750   35.1660 C   0  0  0  0  0  0  0  0  0  0  0  0
   38.1920   26.3750   36.2500 C   0  0  0  0  0  0  0  0  0  0  0  0
   38.2700   25.0190   36.0610 C   0  0  0  0  0  0  0  0  0  0  0  0
   38.0280   24.5620   34.7710 C   0  0  0  0  0  0  0  0  0  0  0  0
   37.7340   25.3760   33.7550 N   0  0  0  0  0  0  0  0  0  0  0  0
   37.8320   28.2390   35.3660 H   0  0  0  0  0  0  0  0  0  0  0  0
   38.3720   26.7680   37.2340 H   0  0  0  0  0  0  0  0  0  0  0  0
   38.0580   23.5190   34.4830 H   0  0  0  0  0  0  0  0  0  0  0  0
   36.1960   28.4160   32.7210 C   0  0  0  0  0  0  0  0  0  0  0  0
   37.3250   27.5870   32.7790 C   0  0  0  0  0  0  0  0  0  0  0  0
   38.2160   27.5960   31.7010 C   0  0  0  0  0  0  0  0  0  0  0  0
   37.9140   28.4320   30.6480 N   0  0  0  0  0  0  0  0  0  0  0  0
   36.8250   29.2090   30.6310 C   0  0  0  0  0  0  0  0  0  0  0  0
   35.9590   29.2100   31.6600 N   0  0  0  0  0  0  0  0  0  0  0  0
   35.5480   28.3540   33.5990 H   0  0  0  0  0  0  0  0  0  0  0  0
   39.1220   27.0110   31.6130 H   0  0  0  0  0  0  0  0  0  0  0  0
   36.6210   29.8450   29.7970 H   0  0  0  0  0  0  0  0  0  0  0  0
   38.5840   24.0340   37.1000 C   0  0  0  0  0  2  0  0  0  0  0  0
   37.9510   24.3220   38.4380 C   0  0  0  0  0  2  0  0  0  0  0  0
   38.3630   23.5850   39.1570 H   0  0  0  0  0  0  0  0  0  0  0  0
  1  2  1  0  0  0  0
  2  7  1  0  0  0  0
  2  3  2  0  0  0  0
  3  8  1  0  0  0  0
  4  3  1  0  0  0  0
  4 19  1  0  0  0  0
  5  4  2  0  0  0  0
  6  1  2  0  0  0  0
  6  5  1  0  0  0  0
  9  5  1  0  0  0  0
 10 11  1  0  0  0  0
 10 16  1  0  0  0  0
 11  1  1  0  0  0  0
 12 11  2  0  0  0  0
 13 12  1  0  0  0  0
 14 13  2  0  0  0  0
 14 15  1  0  0  0  0
 15 10  2  0  0  0  0
 17 12  1  0  0  0  0
 18 14  1  0  0  0  0
 19 20  1  0  0  0  0
 20 21  1  0  0  0  0
M  END
>  <minimizedAffinity>
-4.04731941

$$$$

 OpenBabel03272510103D

 21 22  0  0  0  0  0  0  0  0999 V2000
   37.6550   26.7500   33.9100 C   0  0  0  0  0  0  0  0  0  0  0  0
   37.8750   27.1820   35.2070 C   0  0  0  0  0  0  0  0  0  0  0  0
   38.1860   26.3550   36.2700 C   0  0  0  0  0  0  0  0  0  0  0  0
   38.2880   25.0070   36.0420 C   0  0  0  0  0  0  0  0  0  0  0  0
   38.0650   24.5840   34.7370 C   0  0  0  0  0  0  0  0  0  0  0  0
   37.7660   25.4230   33.7420 N   0  0  0  0  0  0  0  0  0  0  0  0
   37.8050   28.2390   35.4370 H   0  0  0  0  0  0  0  0  0  0  0  0
   38.3510   26.7220   37.2670 H   0  0  0  0  0  0  0  0  0  0  0  0
   38.1130   23.5510   34.4190 H   0  0  0  0  0  0  0  0  0  0  0  0
   37.9430   27.6400   31.5660 C   0  0  0  0  0  0  0  0  0  0  0  0
   37.3310   27.6550   32.8280 C   0  0  0  0  0  0  0  0  0  0  0  0
   36.3350   28.6050   33.0750 C   0  0  0  0  0  0  0  0  0  0  0  0
   36.0240   29.4660   32.0450 N   0  0  0  0  0  0  0  0  0  0  0  0
   36.6340   29.4190   30.8550 C   0  0  0  0  0  0  0  0  0  0  0  0
   37.5920   28.5120   30.6030 N   0  0  0  0  0  0  0  0  0  0  0  0
   38.7100   26.8700   31.4490 H   0  0  0  0  0  0  0  0  0  0  0  0
   35.7820   28.7300   33.9970 H   0  0  0  0  0  0  0  0  0  0  0  0
   36.3680   30.1050   30.0780 H   0  0  0  0  0  0  0  0  0  0  0  0
   38.6080   23.9970   37.0540 C   0  0  0  0  0  2  0  0  0  0  0  0
   37.9960   24.2600   38.4070 C   0  0  0  0  0  2  0  0  0  0  0  0
   38.4120   23.5040   39.1040 H   0  0  0  0  0  0  0  0  0  0  0  0
  1  2  1  0  0  0  0
  2  7  1  0  0  0  0
  2  3  2  0  0  0  0
  3  8  1  0  0  0  0
  4  3  1  0  0  0  0
  4 19  1  0  0  0  0
  5  4  2  0  0  0  0
  6  1  2  0  0  0  0
  6  5  1  0  0  0  0
  9  5  1  0  0  0  0
 10 11  1  0  0  0  0
 11 12  2  0  0  0  0
 11  1  1  0  0  0  0
 12 17  1  0  0  0  0
 13 12  1  0  0  0  0
 14 13  2  0  0  0  0
 15 14  1  0  0  0  0
 15 10  2  0  0  0  0
 16 10  1  0  0  0  0
 18 14  1  0  0  0  0
 19 20  1  0  0  0  0
 20 21  1  0  0  0  0
M  END
>  <minimizedAffinity>
-4.02628946

$$$$

 OpenBabel03272510103D

 21 22  0  0  0  0  0  0  0  0999 V2000
   36.2090   22.8730   31.9730 C   0  0  0  0  0  0  0  0  0  0  0  0
   35.4070   23.7330   31.2420 C   0  0  0  0  0  0  0  0  0  0  0  0
   35.5640   25.1060   31.1960 C   0  0  0  0  0  0  0  0  0  0  0  0
   36.5810   25.6740   31.9200 C   0  0  0  0  0  0  0  0  0  0  0  0
   37.3790   24.8000   32.6490 C   0  0  0  0  0  0  0  0  0  0  0  0
   37.1880   23.4790   32.6620 N   0  0  0  0  0  0  0  0  0  0  0  0
   34.5890   23.3330   30.6550 H   0  0  0  0  0  0  0  0  0  0  0  0
   34.9230   25.7480   30.6190 H   0  0  0  0  0  0  0  0  0  0  0  0
   38.2150   25.1130   33.2620 H   0  0  0  0  0  0  0  0  0  0  0  0
   36.1420   20.6020   30.8740 C   0  0  0  0  0  0  0  0  0  0  0  0
   36.0060   21.4400   31.9900 C   0  0  0  0  0  0  0  0  0  0  0  0
   35.6500   20.8660   33.2150 C   0  0  0  0  0  0  0  0  0  0  0  0
   35.4580   19.5020   33.2340 N   0  0  0  0  0  0  0  0  0  0  0  0
   35.5970   18.7380   32.1450 C   0  0  0  0  0  0  0  0  0  0  0  0
   35.9390   19.2740   30.9610 N   0  0  0  0  0  0  0  0  0  0  0  0
   36.4220   21.1220   29.9540 H   0  0  0  0  0  0  0  0  0  0  0  0
   35.5110   21.3900   34.1520 H   0  0  0  0  0  0  0  0  0  0  0  0
   35.4390   17.6810   32.1950 H   0  0  0  0  0  0  0  0  0  0  0  0
   36.8830   27.1060   31.9800 C   0  0  0  0  0  2  0  0  0  0  0  0
   38.3250   27.4220   32.2880 C   0  0  0  0  0  2  0  0  0  0  0  0
   38.3940   28.5200   32.4290 H   0  0  0  0  0  0  0  0  0  0  0  0
  1 11  1  0  0  0  0
  1  6  1  0  0  0  0
  2  1  2  0  0  0  0
  3  2  1  0  0  0  0
  3  4  2  0  0  0  0
  4 19  1  0  0  0  0
  4  5  1  0  0  0  0
  5  6  2  0  0  0  0
  5  9  1  0  0  0  0
  7  2  1  0  0  0  0
  8  3  1  0  0  0  0
 10 15  2  0  0  0  0
 10 11  1  0  0  0  0
 11 12  2  0  0  0  0
 12 13  1  0  0  0  0
 12 17  1  0  0  0  0
 14 18  1  0  0  0  0
 14 13  2  0  0  0  0
 15 14  1  0  0  0  0
 16 10  1  0  0  0  0
 19 20  1  0  0  0  0
 20 21  1  0  0  0  0
M  END
>  <minimizedAffinity>
-3.92755389

$$$$
