
 OpenBabel03272504343D

 34 36  0  0  0  0  0  0  0  0999 V2000
   39.0150   25.1310   35.3540 C   0  0  0  0  0  0  0  0  0  0  0  0
   40.2890   25.4370   34.9140 C   0  0  0  0  0  0  0  0  0  0  0  0
   40.4910   26.4950   34.0450 C   0  0  0  0  0  0  0  0  0  0  0  0
   39.3980   27.2050   33.6530 N   0  0  0  0  0  0  0  0  0  0  0  0
   38.1530   26.8870   34.0980 C   0  0  0  0  0  0  0  0  0  0  0  0
   37.9470   25.8520   34.9490 N   0  0  0  0  0  0  0  0  0  0  0  0
   41.1210   24.8650   35.2370 H   0  0  0  0  0  0  0  0  0  0  0  0
   41.4330   26.8030   33.6550 H   0  0  0  0  0  0  0  0  0  0  0  0
   38.7460   24.0520   36.2500 N   0  0  0  0  0  0  0  0  0  0  0  0
   37.7390   24.1450   37.3040 C   0  0  0  0  0  0  0  0  0  0  0  0
   38.1680   23.6090   38.6240 C   0  0  0  0  0  0  0  0  0  0  0  0
   39.1560   22.5980   38.6460 N   0  0  0  0  0  0  0  0  0  0  0  0
   40.1510   22.7110   37.5860 C   0  0  0  0  0  0  0  0  0  0  0  0
   39.3600   22.7780   36.2830 C   0  0  0  0  0  0  0  0  0  0  0  0
   37.4500   25.2250   37.3880 H   0  0  0  0  0  0  0  0  0  0  0  0
   36.8420   23.6090   36.9220 H   0  0  0  0  0  0  0  0  0  0  0  0
   37.2610   23.2410   39.1500 H   0  0  0  0  0  0  0  0  0  0  0  0
   38.5480   24.4680   39.2430 H   0  0  0  0  0  0  0  0  0  0  0  0
   38.8020   21.6240   38.6990 H   0  0  0  0  0  0  0  0  0  0  0  0
   40.8360   23.5480   37.7130 H   0  0  0  0  0  0  0  0  0  0  0  0
   40.6940   21.7350   37.5660 H   0  0  0  0  0  0  0  0  0  0  0  0
   38.6230   21.9510   36.3150 H   0  0  0  0  0  0  0  0  0  0  0  0
   40.0020   22.6390   35.3940 H   0  0  0  0  0  0  0  0  0  0  0  0
   37.0120   27.6760   33.6500 C   0  0  0  0  0  0  0  0  0  0  0  0
   36.4810   27.4880   32.4040 C   0  0  0  0  0  0  0  0  0  0  0  0
   35.3930   28.2180   31.9360 C   0  0  0  0  0  0  0  0  0  0  0  0
   34.8770   29.1420   32.7970 N   0  0  0  0  0  0  0  0  0  0  0  0
   35.4140   29.3140   34.0270 C   0  0  0  0  0  0  0  0  0  0  0  0
   36.4700   28.5880   34.4470 N   0  0  0  0  0  0  0  0  0  0  0  0
   36.8940   26.7560   31.7290 H   0  0  0  0  0  0  0  0  0  0  0  0
   34.9840   28.0580   30.9470 H   0  0  0  0  0  0  0  0  0  0  0  0
   34.8490   30.3130   34.9430 C   0  0  0  0  0  2  0  0  0  0  0  0
   35.9780   31.0590   35.6160 C   0  0  0  0  0  2  0  0  0  0  0  0
   36.3370   30.4290   36.4710 H   0  0  0  0  0  0  0  0  0  0  0  0
  1  9  1  0  0  0  0
  2  7  1  0  0  0  0
  2  1  2  0  0  0  0
  3  2  1  0  0  0  0
  4  3  2  0  0  0  0
  4  5  1  0  0  0  0
  5  6  2  0  0  0  0
  6  1  1  0  0  0  0
  8  3  1  0  0  0  0
  9 14  1  0  0  0  0
  9 10  1  0  0  0  0
 10 15  1  0  0  0  0
 10 11  1  0  0  0  0
 11 12  1  0  0  0  0
 11 17  1  0  0  0  0
 11 18  1  0  0  0  0
 12 19  1  0  0  0  0
 13 20  1  0  0  0  0
 13 12  1  0  0  0  0
 14 22  1  0  0  0  0
 14 13  1  0  0  0  0
 16 10  1  0  0  0  0
 21 13  1  0  0  0  0
 23 14  1  0  0  0  0
 24  5  1  0  0  0  0
 24 29  1  0  0  0  0
 25 24  2  0  0  0  0
 26 25  1  0  0  0  0
 26 27  2  0  0  0  0
 27 28  1  0  0  0  0
 28 29  2  0  0  0  0
 28 32  1  0  0  0  0
 30 25  1  0  0  0  0
 31 26  1  0  0  0  0
 32 33  1  0  0  0  0
 33 34  1  0  0  0  0
M  END
>  <minimizedAffinity>
-5.60095072

$$$$

 OpenBabel03272504343D

 34 36  0  0  0  0  0  0  0  0999 V2000
   39.5250   24.8810   35.1960 C   0  0  0  0  0  0  0  0  0  0  0  0
   40.8110   25.3880   35.1720 C   0  0  0  0  0  0  0  0  0  0  0  0
   41.1740   26.3230   34.2190 C   0  0  0  0  0  0  0  0  0  0  0  0
   40.2250   26.7130   33.3260 N   0  0  0  0  0  0  0  0  0  0  0  0
   38.9650   26.2030   33.3670 C   0  0  0  0  0  0  0  0  0  0  0  0
   38.6020   25.2860   34.2970 N   0  0  0  0  0  0  0  0  0  0  0  0
   41.5290   25.0640   35.8820 H   0  0  0  0  0  0  0  0  0  0  0  0
   42.1380   26.7660   34.1260 H   0  0  0  0  0  0  0  0  0  0  0  0
   39.0920   23.9150   36.1540 N   0  0  0  0  0  0  0  0  0  0  0  0
   37.9830   24.1670   37.0700 C   0  0  0  0  0  0  0  0  0  0  0  0
   38.2300   23.7480   38.4770 C   0  0  0  0  0  0  0  0  0  0  0  0
   39.1450   22.6950   38.7100 N   0  0  0  0  0  0  0  0  0  0  0  0
   40.2550   22.6490   37.7670 C   0  0  0  0  0  0  0  0  0  0  0  0
   39.6190   22.6220   36.3800 C   0  0  0  0  0  0  0  0  0  0  0  0
   37.7540   25.2630   37.0170 H   0  0  0  0  0  0  0  0  0  0  0  0
   37.1020   23.6400   36.6410 H   0  0  0  0  0  0  0  0  0  0  0  0
   37.2490   23.4830   38.9270 H   0  0  0  0  0  0  0  0  0  0  0  0
   38.5910   24.6460   39.0500 H   0  0  0  0  0  0  0  0  0  0  0  0
   38.7270   21.7510   38.8150 H   0  0  0  0  0  0  0  0  0  0  0  0
   40.9730   23.4590   37.8910 H   0  0  0  0  0  0  0  0  0  0  0  0
   40.7360   21.6500   37.9040 H   0  0  0  0  0  0  0  0  0  0  0  0
   38.8330   21.8410   36.4060 H   0  0  0  0  0  0  0  0  0  0  0  0
   40.3450   22.3600   35.5890 H   0  0  0  0  0  0  0  0  0  0  0  0
   37.9820   26.6500   32.3880 C   0  0  0  0  0  0  0  0  0  0  0  0
   38.0970   27.8790   31.7960 C   0  0  0  0  0  0  0  0  0  0  0  0
   37.1830   28.3450   30.8580 C   0  0  0  0  0  0  0  0  0  0  0  0
   36.1540   27.5040   30.5530 N   0  0  0  0  0  0  0  0  0  0  0  0
   36.0560   26.2910   31.1470 C   0  0  0  0  0  0  0  0  0  0  0  0
   36.9610   25.8720   32.0540 N   0  0  0  0  0  0  0  0  0  0  0  0
   38.9130   28.5390   32.0410 H   0  0  0  0  0  0  0  0  0  0  0  0
   37.2860   29.3210   30.3990 H   0  0  0  0  0  0  0  0  0  0  0  0
   34.9420   25.3960   30.8110 C   0  0  0  0  0  2  0  0  0  0  0  0
   35.2650   24.0030   31.3010 C   0  0  0  0  0  2  0  0  0  0  0  0
   35.9280   23.5210   30.5360 H   0  0  0  0  0  0  0  0  0  0  0  0
  1  9  1  0  0  0  0
  2  1  1  0  0  0  0
  2  7  1  0  0  0  0
  3  2  2  0  0  0  0
  4  5  2  0  0  0  0
  4  3  1  0  0  0  0
  5  6  1  0  0  0  0
  6  1  2  0  0  0  0
  8  3  1  0  0  0  0
  9 14  1  0  0  0  0
  9 10  1  0  0  0  0
 10 11  1  0  0  0  0
 11 12  1  0  0  0  0
 11 17  1  0  0  0  0
 11 18  1  0  0  0  0
 12 19  1  0  0  0  0
 13 20  1  0  0  0  0
 13 21  1  0  0  0  0
 13 12  1  0  0  0  0
 14 22  1  0  0  0  0
 14 13  1  0  0  0  0
 15 10  1  0  0  0  0
 16 10  1  0  0  0  0
 23 14  1  0  0  0  0
 24  5  1  0  0  0  0
 25 30  1  0  0  0  0
 25 24  2  0  0  0  0
 26 25  1  0  0  0  0
 27 26  2  0  0  0  0
 27 28  1  0  0  0  0
 28 29  2  0  0  0  0
 29 24  1  0  0  0  0
 31 26  1  0  0  0  0
 32 28  1  0  0  0  0
 32 33  1  0  0  0  0
 34 33  1  0  0  0  0
M  END
>  <minimizedAffinity>
-5.4389329

$$$$

 OpenBabel03272504343D

 34 36  0  0  0  0  0  0  0  0999 V2000
   38.1000   24.6880   34.7580 C   0  0  0  0  0  0  0  0  0  0  0  0
   37.9610   23.7360   33.7660 C   0  0  0  0  0  0  0  0  0  0  0  0
   37.3950   24.0750   32.5500 C   0  0  0  0  0  0  0  0  0  0  0  0
   36.9930   25.3640   32.3800 N   0  0  0  0  0  0  0  0  0  0  0  0
   37.1390   26.2860   33.3690 C   0  0  0  0  0  0  0  0  0  0  0  0
   37.6920   25.9610   34.5640 N   0  0  0  0  0  0  0  0  0  0  0  0
   38.2840   22.7400   33.9280 H   0  0  0  0  0  0  0  0  0  0  0  0
   37.2480   23.4110   31.7300 H   0  0  0  0  0  0  0  0  0  0  0  0
   38.6750   24.3970   36.0330 N   0  0  0  0  0  0  0  0  0  0  0  0
   39.9480   23.6950   36.1730 C   0  0  0  0  0  0  0  0  0  0  0  0
   39.9620   22.6350   37.2170 C   0  0  0  0  0  0  0  0  0  0  0  0
   39.0730   22.7590   38.3090 N   0  0  0  0  0  0  0  0  0  0  0  0
   37.8010   23.3870   37.9750 C   0  0  0  0  0  0  0  0  0  0  0  0
   38.1570   24.7140   37.3110 C   0  0  0  0  0  0  0  0  0  0  0  0
   40.2010   23.2680   35.1680 H   0  0  0  0  0  0  0  0  0  0  0  0
   40.7110   24.4780   36.3820 H   0  0  0  0  0  0  0  0  0  0  0  0
   41.0020   22.5540   37.6020 H   0  0  0  0  0  0  0  0  0  0  0  0
   39.7490   21.6500   36.7160 H   0  0  0  0  0  0  0  0  0  0  0  0
   39.4700   23.1910   39.1650 H   0  0  0  0  0  0  0  0  0  0  0  0
   37.1490   22.7650   37.3630 H   0  0  0  0  0  0  0  0  0  0  0  0
   37.3210   23.6510   38.9490 H   0  0  0  0  0  0  0  0  0  0  0  0
   38.9060   25.2060   37.9630 H   0  0  0  0  0  0  0  0  0  0  0  0
   37.2840   25.3840   37.2140 H   0  0  0  0  0  0  0  0  0  0  0  0
   36.6920   27.6540   33.1420 C   0  0  0  0  0  0  0  0  0  0  0  0
   36.8840   28.2570   31.9280 C   0  0  0  0  0  0  0  0  0  0  0  0
   36.4730   29.5600   31.6680 C   0  0  0  0  0  0  0  0  0  0  0  0
   35.8610   30.2130   32.6970 N   0  0  0  0  0  0  0  0  0  0  0  0
   35.6780   29.6010   33.8910 C   0  0  0  0  0  0  0  0  0  0  0  0
   36.0910   28.3360   34.1080 N   0  0  0  0  0  0  0  0  0  0  0  0
   37.3680   27.7350   31.1190 H   0  0  0  0  0  0  0  0  0  0  0  0
   36.6320   30.0240   30.7030 H   0  0  0  0  0  0  0  0  0  0  0  0
   35.0190   30.3160   34.9900 C   0  0  0  0  0  2  0  0  0  0  0  0
   36.0330   31.2000   35.6800 C   0  0  0  0  0  2  0  0  0  0  0  0
   36.6090   30.5590   36.3970 H   0  0  0  0  0  0  0  0  0  0  0  0
  1  9  1  0  0  0  0
  2  7  1  0  0  0  0
  2  1  2  0  0  0  0
  3  2  1  0  0  0  0
  4  3  2  0  0  0  0
  4  5  1  0  0  0  0
  5  6  2  0  0  0  0
  6  1  1  0  0  0  0
  8  3  1  0  0  0  0
  9 10  1  0  0  0  0
  9 14  1  0  0  0  0
 10 16  1  0  0  0  0
 10 11  1  0  0  0  0
 11 17  1  0  0  0  0
 11 12  1  0  0  0  0
 12 19  1  0  0  0  0
 13 12  1  0  0  0  0
 13 21  1  0  0  0  0
 14 22  1  0  0  0  0
 14 13  1  0  0  0  0
 15 10  1  0  0  0  0
 18 11  1  0  0  0  0
 20 13  1  0  0  0  0
 23 14  1  0  0  0  0
 24  5  1  0  0  0  0
 24 29  1  0  0  0  0
 25 24  2  0  0  0  0
 26 25  1  0  0  0  0
 26 27  2  0  0  0  0
 27 28  1  0  0  0  0
 28 29  2  0  0  0  0
 28 32  1  0  0  0  0
 30 25  1  0  0  0  0
 31 26  1  0  0  0  0
 32 33  1  0  0  0  0
 33 34  1  0  0  0  0
M  END
>  <minimizedAffinity>
-5.42992687

$$$$

 OpenBabel03272504343D

 34 36  0  0  0  0  0  0  0  0999 V2000
   38.9700   24.5140   34.8720 C   0  0  0  0  0  0  0  0  0  0  0  0
   40.0500   24.3300   34.0300 C   0  0  0  0  0  0  0  0  0  0  0  0
   40.2570   25.1890   32.9650 C   0  0  0  0  0  0  0  0  0  0  0  0
   39.3670   26.2030   32.7920 N   0  0  0  0  0  0  0  0  0  0  0  0
   38.3100   26.3670   33.6330 C   0  0  0  0  0  0  0  0  0  0  0  0
   38.1000   25.5290   34.6780 N   0  0  0  0  0  0  0  0  0  0  0  0
   40.7270   23.5310   34.1910 H   0  0  0  0  0  0  0  0  0  0  0  0
   41.0590   25.1250   32.2670 H   0  0  0  0  0  0  0  0  0  0  0  0
   38.7050   23.6610   35.9860 N   0  0  0  0  0  0  0  0  0  0  0  0
   37.6920   23.9780   36.9900 C   0  0  0  0  0  0  0  0  0  0  0  0
   38.1200   23.7540   38.3980 C   0  0  0  0  0  0  0  0  0  0  0  0
   39.1160   22.7820   38.6480 N   0  0  0  0  0  0  0  0  0  0  0  0
   40.1140   22.6650   37.5930 C   0  0  0  0  0  0  0  0  0  0  0  0
   39.3290   22.4320   36.3050 C   0  0  0  0  0  0  0  0  0  0  0  0
   37.3940   25.0470   36.8300 H   0  0  0  0  0  0  0  0  0  0  0  0
   36.8020   23.3620   36.7350 H   0  0  0  0  0  0  0  0  0  0  0  0
   37.2120   23.5060   38.9900 H   0  0  0  0  0  0  0  0  0  0  0  0
   38.4890   24.7330   38.8100 H   0  0  0  0  0  0  0  0  0  0  0  0
   38.7680   21.8420   38.9160 H   0  0  0  0  0  0  0  0  0  0  0  0
   40.7920   23.5150   37.5310 H   0  0  0  0  0  0  0  0  0  0  0  0
   40.6650   21.7130   37.7930 H   0  0  0  0  0  0  0  0  0  0  0  0
   38.5980   21.6270   36.5190 H   0  0  0  0  0  0  0  0  0  0  0  0
   39.9760   22.1030   35.4710 H   0  0  0  0  0  0  0  0  0  0  0  0
   37.3820   27.4670   33.4060 C   0  0  0  0  0  0  0  0  0  0  0  0
   36.6440   27.9800   34.4390 C   0  0  0  0  0  0  0  0  0  0  0  0
   35.7480   29.0300   34.2680 C   0  0  0  0  0  0  0  0  0  0  0  0
   35.6410   29.5280   33.0020 N   0  0  0  0  0  0  0  0  0  0  0  0
   36.3800   29.0090   31.9930 C   0  0  0  0  0  0  0  0  0  0  0  0
   37.2390   27.9900   32.1960 N   0  0  0  0  0  0  0  0  0  0  0  0
   36.7330   27.5830   35.4360 H   0  0  0  0  0  0  0  0  0  0  0  0
   35.1700   29.4250   35.0940 H   0  0  0  0  0  0  0  0  0  0  0  0
   36.2540   29.5530   30.6360 C   0  0  0  0  0  2  0  0  0  0  0  0
   37.1290   28.7510   29.7000 C   0  0  0  0  0  2  0  0  0  0  0  0
   38.1750   29.1430   29.7970 H   0  0  0  0  0  0  0  0  0  0  0  0
  1  9  1  0  0  0  0
  2  7  1  0  0  0  0
  2  1  2  0  0  0  0
  3  2  1  0  0  0  0
  4  3  2  0  0  0  0
  4  5  1  0  0  0  0
  5  6  2  0  0  0  0
  6  1  1  0  0  0  0
  8  3  1  0  0  0  0
  9 14  1  0  0  0  0
  9 10  1  0  0  0  0
 10 11  1  0  0  0  0
 11 12  1  0  0  0  0
 11 18  1  0  0  0  0
 11 17  1  0  0  0  0
 12 19  1  0  0  0  0
 13 21  1  0  0  0  0
 13 12  1  0  0  0  0
 14 22  1  0  0  0  0
 14 13  1  0  0  0  0
 15 10  1  0  0  0  0
 16 10  1  0  0  0  0
 20 13  1  0  0  0  0
 23 14  1  0  0  0  0
 24  5  1  0  0  0  0
 24 25  1  0  0  0  0
 25 30  1  0  0  0  0
 26 25  2  0  0  0  0
 26 31  1  0  0  0  0
 27 26  1  0  0  0  0
 28 29  1  0  0  0  0
 28 27  2  0  0  0  0
 29 24  2  0  0  0  0
 32 28  1  0  0  0  0
 33 34  1  0  0  0  0
 33 32  1  0  0  0  0
M  END
>  <minimizedAffinity>
-5.32673311

$$$$

 OpenBabel03272504343D

 34 36  0  0  0  0  0  0  0  0999 V2000
   36.3410   23.0800   31.8380 C   0  0  0  0  0  0  0  0  0  0  0  0
   35.5140   23.7560   30.9600 C   0  0  0  0  0  0  0  0  0  0  0  0
   35.4430   25.1380   30.9940 C   0  0  0  0  0  0  0  0  0  0  0  0
   36.2110   25.7860   31.9110 N   0  0  0  0  0  0  0  0  0  0  0  0
   37.0190   25.1010   32.7660 C   0  0  0  0  0  0  0  0  0  0  0  0
   37.0930   23.7480   32.7390 N   0  0  0  0  0  0  0  0  0  0  0  0
   34.9270   23.2240   30.2570 H   0  0  0  0  0  0  0  0  0  0  0  0
   34.8360   25.7400   30.3590 H   0  0  0  0  0  0  0  0  0  0  0  0
   36.4560   21.6570   31.8500 N   0  0  0  0  0  0  0  0  0  0  0  0
   37.2010   20.9240   30.8290 C   0  0  0  0  0  0  0  0  0  0  0  0
   36.5160   19.7080   30.3130 C   0  0  0  0  0  0  0  0  0  0  0  0
   35.5950   19.0480   31.1580 N   0  0  0  0  0  0  0  0  0  0  0  0
   34.8550   19.9380   32.0440 C   0  0  0  0  0  0  0  0  0  0  0  0
   35.9080   20.7510   32.7900 C   0  0  0  0  0  0  0  0  0  0  0  0
   37.4140   21.6440   29.9970 H   0  0  0  0  0  0  0  0  0  0  0  0
   38.1830   20.6720   31.2860 H   0  0  0  0  0  0  0  0  0  0  0  0
   37.3020   18.9870   29.9980 H   0  0  0  0  0  0  0  0  0  0  0  0
   35.9710   19.9890   29.3700 H   0  0  0  0  0  0  0  0  0  0  0  0
   35.9740   18.2450   31.6960 H   0  0  0  0  0  0  0  0  0  0  0  0
   34.1200   20.5580   31.5320 H   0  0  0  0  0  0  0  0  0  0  0  0
   34.3750   19.2810   32.8110 H   0  0  0  0  0  0  0  0  0  0  0  0
   36.6580   20.0290   33.1690 H   0  0  0  0  0  0  0  0  0  0  0  0
   35.4850   21.3010   33.6500 H   0  0  0  0  0  0  0  0  0  0  0  0
   37.8230   25.8390   33.7320 C   0  0  0  0  0  0  0  0  0  0  0  0
   37.2320   26.6890   34.6270 C   0  0  0  0  0  0  0  0  0  0  0  0
   37.9600   27.4100   35.5660 C   0  0  0  0  0  0  0  0  0  0  0  0
   39.3110   27.2240   35.5490 N   0  0  0  0  0  0  0  0  0  0  0  0
   39.8790   26.3780   34.6580 C   0  0  0  0  0  0  0  0  0  0  0  0
   39.1410   25.6950   33.7610 N   0  0  0  0  0  0  0  0  0  0  0  0
   36.1630   26.8310   34.6350 H   0  0  0  0  0  0  0  0  0  0  0  0
   37.4780   28.0800   36.2670 H   0  0  0  0  0  0  0  0  0  0  0  0
   41.3350   26.1890   34.6500 C   0  0  0  0  0  2  0  0  0  0  0  0
   41.9570   27.1890   33.7030 C   0  0  0  0  0  2  0  0  0  0  0  0
   41.8640   26.7750   32.6650 H   0  0  0  0  0  0  0  0  0  0  0  0
  1  9  1  0  0  0  0
  1  6  1  0  0  0  0
  2  3  1  0  0  0  0
  2  1  2  0  0  0  0
  3  4  2  0  0  0  0
  4  5  1  0  0  0  0
  5 24  1  0  0  0  0
  6  5  2  0  0  0  0
  7  2  1  0  0  0  0
  8  3  1  0  0  0  0
  9 14  1  0  0  0  0
 10 16  1  0  0  0  0
 10  9  1  0  0  0  0
 11 10  1  0  0  0  0
 11 12  1  0  0  0  0
 12 19  1  0  0  0  0
 12 13  1  0  0  0  0
 13 14  1  0  0  0  0
 13 21  1  0  0  0  0
 14 22  1  0  0  0  0
 14 23  1  0  0  0  0
 15 10  1  0  0  0  0
 17 11  1  0  0  0  0
 18 11  1  0  0  0  0
 20 13  1  0  0  0  0
 24 29  2  0  0  0  0
 24 25  1  0  0  0  0
 25 30  1  0  0  0  0
 25 26  2  0  0  0  0
 26 31  1  0  0  0  0
 27 26  1  0  0  0  0
 28 27  2  0  0  0  0
 29 28  1  0  0  0  0
 32 28  1  0  0  0  0
 33 32  1  0  0  0  0
 34 33  1  0  0  0  0
M  END
>  <minimizedAffinity>
-5.19738865

$$$$

 OpenBabel03272504343D

 34 36  0  0  0  0  0  0  0  0999 V2000
   38.1810   23.9620   34.6840 C   0  0  0  0  0  0  0  0  0  0  0  0
   37.8830   22.7870   34.0190 C   0  0  0  0  0  0  0  0  0  0  0  0
   37.3620   22.8230   32.7390 C   0  0  0  0  0  0  0  0  0  0  0  0
   37.1610   24.0450   32.1750 N   0  0  0  0  0  0  0  0  0  0  0  0
   37.4610   25.1900   32.8460 C   0  0  0  0  0  0  0  0  0  0  0  0
   37.9720   25.1620   34.1010 N   0  0  0  0  0  0  0  0  0  0  0  0
   38.0500   21.8490   34.4850 H   0  0  0  0  0  0  0  0  0  0  0  0
   37.1030   21.9720   32.1530 H   0  0  0  0  0  0  0  0  0  0  0  0
   38.7210   23.9870   36.0060 N   0  0  0  0  0  0  0  0  0  0  0  0
   40.0230   23.4100   36.3290 C   0  0  0  0  0  0  0  0  0  0  0  0
   40.0530   22.6000   37.5770 C   0  0  0  0  0  0  0  0  0  0  0  0
   39.1160   22.9020   38.5920 N   0  0  0  0  0  0  0  0  0  0  0  0
   37.8260   23.3650   38.0960 C   0  0  0  0  0  0  0  0  0  0  0  0
   38.1360   24.5380   37.1700 C   0  0  0  0  0  0  0  0  0  0  0  0
   40.3370   22.7930   35.4470 H   0  0  0  0  0  0  0  0  0  0  0  0
   40.7330   24.2640   36.3840 H   0  0  0  0  0  0  0  0  0  0  0  0
   41.0790   22.6680   37.9980 H   0  0  0  0  0  0  0  0  0  0  0  0
   39.9130   21.5200   37.2960 H   0  0  0  0  0  0  0  0  0  0  0  0
   39.4560   23.5310   39.3450 H   0  0  0  0  0  0  0  0  0  0  0  0
   37.2330   22.5880   37.6170 H   0  0  0  0  0  0  0  0  0  0  0  0
   37.2950   23.8020   38.9770 H   0  0  0  0  0  0  0  0  0  0  0  0
   38.8320   25.2030   37.7210 H   0  0  0  0  0  0  0  0  0  0  0  0
   37.2330   25.1170   36.9080 H   0  0  0  0  0  0  0  0  0  0  0  0
   37.2290   26.4770   32.2010 C   0  0  0  0  0  0  0  0  0  0  0  0
   37.6200   26.6890   30.9080 C   0  0  0  0  0  0  0  0  0  0  0  0
   37.4170   27.8990   30.2540 C   0  0  0  0  0  0  0  0  0  0  0  0
   36.8000   28.8760   30.9790 N   0  0  0  0  0  0  0  0  0  0  0  0
   36.4190   28.6490   32.2580 C   0  0  0  0  0  0  0  0  0  0  0  0
   36.6320   27.4610   32.8600 N   0  0  0  0  0  0  0  0  0  0  0  0
   38.1070   25.9120   30.3400 H   0  0  0  0  0  0  0  0  0  0  0  0
   37.7330   28.0530   29.2300 H   0  0  0  0  0  0  0  0  0  0  0  0
   35.7570   29.7090   33.0270 C   0  0  0  0  0  2  0  0  0  0  0  0
   35.5350   29.2260   34.4430 C   0  0  0  0  0  2  0  0  0  0  0  0
   34.6060   28.5990   34.4440 H   0  0  0  0  0  0  0  0  0  0  0  0
  1  9  1  0  0  0  0
  2  7  1  0  0  0  0
  2  1  2  0  0  0  0
  3  2  1  0  0  0  0
  4  3  2  0  0  0  0
  4  5  1  0  0  0  0
  5  6  2  0  0  0  0
  6  1  1  0  0  0  0
  8  3  1  0  0  0  0
  9 10  1  0  0  0  0
  9 14  1  0  0  0  0
 10 16  1  0  0  0  0
 10 11  1  0  0  0  0
 11 17  1  0  0  0  0
 11 12  1  0  0  0  0
 12 19  1  0  0  0  0
 13 12  1  0  0  0  0
 13 21  1  0  0  0  0
 14 22  1  0  0  0  0
 14 13  1  0  0  0  0
 15 10  1  0  0  0  0
 18 11  1  0  0  0  0
 20 13  1  0  0  0  0
 23 14  1  0  0  0  0
 24  5  1  0  0  0  0
 24 29  1  0  0  0  0
 25 24  2  0  0  0  0
 26 25  1  0  0  0  0
 26 27  2  0  0  0  0
 27 28  1  0  0  0  0
 28 29  2  0  0  0  0
 28 32  1  0  0  0  0
 30 25  1  0  0  0  0
 31 26  1  0  0  0  0
 32 33  1  0  0  0  0
 33 34  1  0  0  0  0
M  END
>  <minimizedAffinity>
-5.18582439

$$$$

 OpenBabel03272504343D

 34 36  0  0  0  0  0  0  0  0999 V2000
   38.1560   24.5920   34.8290 C   0  0  0  0  0  0  0  0  0  0  0  0
   38.0360   23.6380   33.8360 C   0  0  0  0  0  0  0  0  0  0  0  0
   37.4670   23.9690   32.6180 C   0  0  0  0  0  0  0  0  0  0  0  0
   37.0440   25.2510   32.4480 N   0  0  0  0  0  0  0  0  0  0  0  0
   37.1730   26.1740   33.4380 C   0  0  0  0  0  0  0  0  0  0  0  0
   37.7280   25.8580   34.6340 N   0  0  0  0  0  0  0  0  0  0  0  0
   38.3750   22.6470   33.9980 H   0  0  0  0  0  0  0  0  0  0  0  0
   37.3340   23.3020   31.7980 H   0  0  0  0  0  0  0  0  0  0  0  0
   38.7330   24.3100   36.1050 N   0  0  0  0  0  0  0  0  0  0  0  0
   39.9920   23.5830   36.2490 C   0  0  0  0  0  0  0  0  0  0  0  0
   39.9890   22.5400   37.3100 C   0  0  0  0  0  0  0  0  0  0  0  0
   39.1100   22.7010   38.4060 N   0  0  0  0  0  0  0  0  0  0  0  0
   37.8500   23.3510   38.0680 C   0  0  0  0  0  0  0  0  0  0  0  0
   38.2300   24.6590   37.3800 C   0  0  0  0  0  0  0  0  0  0  0  0
   40.2290   23.1340   35.2500 H   0  0  0  0  0  0  0  0  0  0  0  0
   40.7720   24.3520   36.4410 H   0  0  0  0  0  0  0  0  0  0  0  0
   41.0290   22.4430   37.6910 H   0  0  0  0  0  0  0  0  0  0  0  0
   39.7520   21.5520   36.8270 H   0  0  0  0  0  0  0  0  0  0  0  0
   39.5220   23.1390   39.2520 H   0  0  0  0  0  0  0  0  0  0  0  0
   37.1810   22.7330   37.4710 H   0  0  0  0  0  0  0  0  0  0  0  0
   37.3820   23.6410   39.0410 H   0  0  0  0  0  0  0  0  0  0  0  0
   38.9930   25.1450   38.0200 H   0  0  0  0  0  0  0  0  0  0  0  0
   37.3700   25.3460   37.2780 H   0  0  0  0  0  0  0  0  0  0  0  0
   36.7040   27.5350   33.2100 C   0  0  0  0  0  0  0  0  0  0  0  0
   36.1910   28.2770   34.2390 C   0  0  0  0  0  0  0  0  0  0  0  0
   35.7340   29.5790   34.0670 C   0  0  0  0  0  0  0  0  0  0  0  0
   35.8240   30.0840   32.8020 N   0  0  0  0  0  0  0  0  0  0  0  0
   36.3350   29.3360   31.7970 C   0  0  0  0  0  0  0  0  0  0  0  0
   36.7690   28.0760   32.0010 N   0  0  0  0  0  0  0  0  0  0  0  0
   36.1230   27.8720   35.2360 H   0  0  0  0  0  0  0  0  0  0  0  0
   35.3300   30.1540   34.8900 H   0  0  0  0  0  0  0  0  0  0  0  0
   36.4250   29.8920   30.4410 C   0  0  0  0  0  2  0  0  0  0  0  0
   36.2470   31.3910   30.5110 C   0  0  0  0  0  2  0  0  0  0  0  0
   35.1460   31.5990   30.5590 H   0  0  0  0  0  0  0  0  0  0  0  0
  1  9  1  0  0  0  0
  2  7  1  0  0  0  0
  2  1  2  0  0  0  0
  3  2  1  0  0  0  0
  4  3  2  0  0  0  0
  4  5  1  0  0  0  0
  5  6  2  0  0  0  0
  6  1  1  0  0  0  0
  8  3  1  0  0  0  0
  9 10  1  0  0  0  0
  9 14  1  0  0  0  0
 10 16  1  0  0  0  0
 10 11  1  0  0  0  0
 11 17  1  0  0  0  0
 11 12  1  0  0  0  0
 12 19  1  0  0  0  0
 13 12  1  0  0  0  0
 13 21  1  0  0  0  0
 14 22  1  0  0  0  0
 14 13  1  0  0  0  0
 15 10  1  0  0  0  0
 18 11  1  0  0  0  0
 20 13  1  0  0  0  0
 23 14  1  0  0  0  0
 24  5  1  0  0  0  0
 24 25  1  0  0  0  0
 25 30  1  0  0  0  0
 26 25  2  0  0  0  0
 26 31  1  0  0  0  0
 27 26  1  0  0  0  0
 28 29  1  0  0  0  0
 28 27  2  0  0  0  0
 29 24  2  0  0  0  0
 32 33  1  0  0  0  0
 32 28  1  0  0  0  0
 33 34  1  0  0  0  0
M  END
>  <minimizedAffinity>
-5.16576719

$$$$

 OpenBabel03272504343D

 34 36  0  0  0  0  0  0  0  0999 V2000
   36.6930   22.2730   32.2650 C   0  0  0  0  0  0  0  0  0  0  0  0
   36.4910   23.5600   31.8010 C   0  0  0  0  0  0  0  0  0  0  0  0
   37.0900   24.6320   32.4390 C   0  0  0  0  0  0  0  0  0  0  0  0
   37.8720   24.3650   33.5200 N   0  0  0  0  0  0  0  0  0  0  0  0
   38.0580   23.0920   33.9590 C   0  0  0  0  0  0  0  0  0  0  0  0
   37.4740   22.0360   33.3410 N   0  0  0  0  0  0  0  0  0  0  0  0
   35.8760   23.7360   30.9560 H   0  0  0  0  0  0  0  0  0  0  0  0
   36.9920   25.6540   32.1530 H   0  0  0  0  0  0  0  0  0  0  0  0
   36.1010   21.1290   31.6490 N   0  0  0  0  0  0  0  0  0  0  0  0
   34.8340   20.5630   32.1060 C   0  0  0  0  0  0  0  0  0  0  0  0
   34.8170   19.0790   32.2100 C   0  0  0  0  0  0  0  0  0  0  0  0
   35.6880   18.3390   31.3760 N   0  0  0  0  0  0  0  0  0  0  0  0
   36.9580   19.0010   31.1030 C   0  0  0  0  0  0  0  0  0  0  0  0
   36.5970   20.3790   30.5560 C   0  0  0  0  0  0  0  0  0  0  0  0
   34.6020   21.0330   33.0960 H   0  0  0  0  0  0  0  0  0  0  0  0
   34.0600   20.9270   31.3960 H   0  0  0  0  0  0  0  0  0  0  0  0
   33.7730   18.7400   32.0340 H   0  0  0  0  0  0  0  0  0  0  0  0
   35.0490   18.8010   33.2750 H   0  0  0  0  0  0  0  0  0  0  0  0
   35.2730   17.9870   30.4930 H   0  0  0  0  0  0  0  0  0  0  0  0
   37.6260   19.0450   31.9630 H   0  0  0  0  0  0  0  0  0  0  0  0
   37.4200   18.4440   30.2520 H   0  0  0  0  0  0  0  0  0  0  0  0
   35.8320   20.2190   29.7700 H   0  0  0  0  0  0  0  0  0  0  0  0
   37.4640   20.8920   30.1020 H   0  0  0  0  0  0  0  0  0  0  0  0
   38.9040   22.8550   35.1230 C   0  0  0  0  0  0  0  0  0  0  0  0
   40.1310   22.2650   34.9840 C   0  0  0  0  0  0  0  0  0  0  0  0
   40.9700   22.0210   36.0650 C   0  0  0  0  0  0  0  0  0  0  0  0
   40.5010   22.4060   37.2870 N   0  0  0  0  0  0  0  0  0  0  0  0
   39.2850   22.9890   37.4060 C   0  0  0  0  0  0  0  0  0  0  0  0
   38.4980   23.2100   36.3340 N   0  0  0  0  0  0  0  0  0  0  0  0
   40.4960   21.9630   34.0150 H   0  0  0  0  0  0  0  0  0  0  0  0
   41.9380   21.5520   35.9400 H   0  0  0  0  0  0  0  0  0  0  0  0
   38.7920   23.3970   38.7270 C   0  0  0  0  0  2  0  0  0  0  0  0
   37.9070   24.6120   38.5690 C   0  0  0  0  0  2  0  0  0  0  0  0
   38.5740   25.5110   38.5030 H   0  0  0  0  0  0  0  0  0  0  0  0
  1  6  1  0  0  0  0
  2  1  2  0  0  0  0
  2  3  1  0  0  0  0
  3  4  2  0  0  0  0
  4  5  1  0  0  0  0
  5 24  1  0  0  0  0
  6  5  2  0  0  0  0
  7  2  1  0  0  0  0
  8  3  1  0  0  0  0
  9 10  1  0  0  0  0
  9  1  1  0  0  0  0
 10 11  1  0  0  0  0
 10 15  1  0  0  0  0
 11 18  1  0  0  0  0
 12 11  1  0  0  0  0
 13 12  1  0  0  0  0
 13 20  1  0  0  0  0
 14 13  1  0  0  0  0
 14  9  1  0  0  0  0
 16 10  1  0  0  0  0
 17 11  1  0  0  0  0
 19 12  1  0  0  0  0
 21 13  1  0  0  0  0
 22 14  1  0  0  0  0
 23 14  1  0  0  0  0
 24 29  1  0  0  0  0
 25 24  2  0  0  0  0
 25 26  1  0  0  0  0
 26 27  2  0  0  0  0
 27 28  1  0  0  0  0
 28 32  1  0  0  0  0
 29 28  2  0  0  0  0
 30 25  1  0  0  0  0
 31 26  1  0  0  0  0
 33 32  1  0  0  0  0
 34 33  1  0  0  0  0
M  END
>  <minimizedAffinity>
-5.16146612

$$$$

 OpenBabel03272504343D

 34 36  0  0  0  0  0  0  0  0999 V2000
   37.3490   25.9780   33.2130 C   0  0  0  0  0  0  0  0  0  0  0  0
   37.2110   25.0410   32.2050 C   0  0  0  0  0  0  0  0  0  0  0  0
   37.4870   23.7080   32.4510 C   0  0  0  0  0  0  0  0  0  0  0  0
   37.8900   23.3690   33.7060 N   0  0  0  0  0  0  0  0  0  0  0  0
   38.0180   24.3060   34.6840 C   0  0  0  0  0  0  0  0  0  0  0  0
   37.7500   25.6140   34.4500 N   0  0  0  0  0  0  0  0  0  0  0  0
   36.8960   25.3360   31.2380 H   0  0  0  0  0  0  0  0  0  0  0  0
   37.4100   22.9200   31.7390 H   0  0  0  0  0  0  0  0  0  0  0  0
   37.0790   27.3670   33.0190 N   0  0  0  0  0  0  0  0  0  0  0  0
   36.4150   28.1820   34.0330 C   0  0  0  0  0  0  0  0  0  0  0  0
   35.3580   29.0890   33.5080 C   0  0  0  0  0  0  0  0  0  0  0  0
   35.4590   29.5290   32.1680 N   0  0  0  0  0  0  0  0  0  0  0  0
   36.0480   28.5520   31.2610 C   0  0  0  0  0  0  0  0  0  0  0  0
   37.3830   28.1590   31.8870 C   0  0  0  0  0  0  0  0  0  0  0  0
   35.9930   27.4790   34.7960 H   0  0  0  0  0  0  0  0  0  0  0  0
   37.2210   28.7540   34.5440 H   0  0  0  0  0  0  0  0  0  0  0  0
   35.3100   29.9740   34.1790 H   0  0  0  0  0  0  0  0  0  0  0  0
   34.3670   28.5700   33.6220 H   0  0  0  0  0  0  0  0  0  0  0  0
   35.9050   30.4560   32.0320 H   0  0  0  0  0  0  0  0  0  0  0  0
   35.4040   27.6970   31.0560 H   0  0  0  0  0  0  0  0  0  0  0  0
   36.3000   29.1100   30.3270 H   0  0  0  0  0  0  0  0  0  0  0  0
   37.8990   29.1030   32.1550 H   0  0  0  0  0  0  0  0  0  0  0  0
   38.0260   27.5960   31.1870 H   0  0  0  0  0  0  0  0  0  0  0  0
   38.4530   23.8960   36.0130 C   0  0  0  0  0  0  0  0  0  0  0  0
   37.7820   24.3190   37.1270 C   0  0  0  0  0  0  0  0  0  0  0  0
   38.1620   23.9510   38.4140 C   0  0  0  0  0  0  0  0  0  0  0  0
   39.2520   23.1370   38.5070 N   0  0  0  0  0  0  0  0  0  0  0  0
   39.9040   22.7270   37.3940 C   0  0  0  0  0  0  0  0  0  0  0  0
   39.5070   23.1040   36.1620 N   0  0  0  0  0  0  0  0  0  0  0  0
   36.9200   24.9620   37.0460 H   0  0  0  0  0  0  0  0  0  0  0  0
   37.6210   24.2940   39.2870 H   0  0  0  0  0  0  0  0  0  0  0  0
   41.0770   21.8520   37.5090 C   0  0  0  0  0  2  0  0  0  0  0  0
   42.1840   22.3940   36.6340 C   0  0  0  0  0  2  0  0  0  0  0  0
   41.9870   22.0480   35.5860 H   0  0  0  0  0  0  0  0  0  0  0  0
  1  6  1  0  0  0  0
  2  3  1  0  0  0  0
  2  1  2  0  0  0  0
  3  4  2  0  0  0  0
  4  5  1  0  0  0  0
  5 24  1  0  0  0  0
  6  5  2  0  0  0  0
  7  2  1  0  0  0  0
  8  3  1  0  0  0  0
  9  1  1  0  0  0  0
  9 10  1  0  0  0  0
 10 16  1  0  0  0  0
 10 15  1  0  0  0  0
 11 18  1  0  0  0  0
 11 10  1  0  0  0  0
 11 17  1  0  0  0  0
 12 11  1  0  0  0  0
 13 14  1  0  0  0  0
 13 12  1  0  0  0  0
 14 22  1  0  0  0  0
 14  9  1  0  0  0  0
 19 12  1  0  0  0  0
 20 13  1  0  0  0  0
 21 13  1  0  0  0  0
 23 14  1  0  0  0  0
 24 29  2  0  0  0  0
 24 25  1  0  0  0  0
 25 26  2  0  0  0  0
 26 27  1  0  0  0  0
 26 31  1  0  0  0  0
 28 32  1  0  0  0  0
 28 27  2  0  0  0  0
 29 28  1  0  0  0  0
 30 25  1  0  0  0  0
 33 32  1  0  0  0  0
 34 33  1  0  0  0  0
M  END
>  <minimizedAffinity>
-5.15997124

$$$$
