
 OpenBabel03272509343D

 35 38  0  0  1  0  0  0  0  0999 V2000
   38.3460   26.3560   34.3620 C   0  0  1  0  0  0  0  0  0  0  0  0
   37.8840   26.9420   35.6310 C   0  0  0  0  0  0  0  0  0  0  0  0
   37.5620   25.5080   35.4010 C   0  0  2  0  0  0  0  0  0  0  0  0
   39.3730   26.0290   34.2580 H   0  0  0  0  0  0  0  0  0  0  0  0
   38.6770   27.3880   36.2010 H   0  0  0  0  0  0  0  0  0  0  0  0
   36.9830   27.6340   35.4970 H   0  0  0  0  0  0  0  0  0  0  0  0
   36.7690   24.9780   34.9010 H   0  0  0  0  0  0  0  0  0  0  0  0
   38.3220   24.6450   36.3420 C   0  0  0  0  0  0  0  0  0  0  0  0
   37.8400   24.8000   37.6460 C   0  0  0  0  0  0  0  0  0  0  0  0
   38.3320   24.0350   38.6830 C   0  0  0  0  0  0  0  0  0  0  0  0
   39.3240   23.0840   38.4560 C   0  0  0  0  0  0  0  0  0  0  0  0
   39.7820   22.9490   37.1650 C   0  0  0  0  0  0  0  0  0  0  0  0
   40.7680   22.0580   36.8010 C   0  0  0  0  0  0  0  0  0  0  0  0
   41.2460   21.9170   35.5120 C   0  0  0  0  0  0  0  0  0  0  0  0
   40.7080   22.7190   34.5140 C   0  0  0  0  0  0  0  0  0  0  0  0
   39.7240   23.6140   34.8630 C   0  0  0  0  0  0  0  0  0  0  0  0
   39.2790   23.7180   36.1600 C   0  0  0  0  0  0  0  0  0  0  0  0
   37.1030   25.3940   38.1480 H   0  0  0  0  0  0  0  0  0  0  0  0
   38.0740   24.0290   39.7310 H   0  0  0  0  0  0  0  0  0  0  0  0
   39.8160   22.4080   39.1490 H   0  0  0  0  0  0  0  0  0  0  0  0
   41.2100   21.4150   37.5530 H   0  0  0  0  0  0  0  0  0  0  0  0
   42.0240   21.2000   35.2750 H   0  0  0  0  0  0  0  0  0  0  0  0
   41.0300   22.6680   33.4840 H   0  0  0  0  0  0  0  0  0  0  0  0
   39.3120   24.2400   34.0510 H   0  0  0  0  0  0  0  0  0  0  0  0
   36.8950   28.0880   31.3480 C   0  0  0  0  0  0  0  0  0  0  0  0
   37.6530   27.8570   32.5310 C   0  0  0  0  0  0  0  0  0  0  0  0
   37.5790   26.6200   33.1280 C   0  0  0  0  0  0  0  0  0  0  0  0
   36.7660   25.6820   32.5280 N   0  0  0  0  0  0  0  0  0  0  0  0
   36.0630   25.9190   31.4170 C   0  0  0  0  0  0  0  0  0  0  0  0
   36.1130   27.1220   30.8070 N   0  0  0  0  0  0  0  0  0  0  0  0
   36.9330   29.0400   30.8640 H   0  0  0  0  0  0  0  0  0  0  0  0
   38.2640   28.6770   32.9170 H   0  0  0  0  0  0  0  0  0  0  0  0
   35.2180   24.7930   30.8780 C   0  0  0  0  0  2  0  0  0  0  0  0
   35.6370   23.5250   31.6330 C   0  0  0  0  0  2  0  0  0  0  0  0
   35.0010   22.7130   31.2610 H   0  0  0  0  0  0  0  0  0  0  0  0
  1  4  1  6  0  0  0
  1  3  1  0  0  0  0
  1  2  1  0  0  0  0
  2  5  1  0  0  0  0
  3  7  1  6  0  0  0
  3  2  1  0  0  0  0
  3  8  1  0  0  0  0
  6  2  1  0  0  0  0
  8  9  1  0  0  0  0
  9 18  1  0  0  0  0
  9 10  2  0  0  0  0
 10 19  1  0  0  0  0
 11 10  1  0  0  0  0
 11 20  1  0  0  0  0
 12 11  2  0  0  0  0
 13 12  1  0  0  0  0
 13 21  1  0  0  0  0
 14 13  2  0  0  0  0
 15 16  2  0  0  0  0
 15 14  1  0  0  0  0
 16 17  1  0  0  0  0
 17  8  2  0  0  0  0
 17 12  1  0  0  0  0
 22 14  1  0  0  0  0
 23 15  1  0  0  0  0
 24 16  1  0  0  0  0
 25 26  1  0  0  0  0
 26 32  1  0  0  0  0
 26 27  2  0  0  0  0
 27  1  1  0  0  0  0
 28 27  1  0  0  0  0
 29 28  2  0  0  0  0
 30 25  2  0  0  0  0
 30 29  1  0  0  0  0
 31 25  1  0  0  0  0
 33 29  1  0  0  0  0
 33 34  1  0  0  0  0
 35 34  1  0  0  0  0
M  END
>  <minimizedAffinity>
-5.9272871

$$$$

 OpenBabel03272509343D

 35 38  0  0  1  0  0  0  0  0999 V2000
   39.0530   26.7330   34.6500 C   0  0  1  0  0  0  0  0  0  0  0  0
   37.7450   26.6810   35.3220 C   0  0  0  0  0  0  0  0  0  0  0  0
   38.3400   25.3790   34.9160 C   0  0  2  0  0  0  0  0  0  0  0  0
   39.9580   26.8410   35.2340 H   0  0  0  0  0  0  0  0  0  0  0  0
   37.7430   27.1710   36.2780 H   0  0  0  0  0  0  0  0  0  0  0  0
   36.8860   27.0140   34.6440 H   0  0  0  0  0  0  0  0  0  0  0  0
   38.3420   24.7930   34.0140 H   0  0  0  0  0  0  0  0  0  0  0  0
   38.7280   24.5880   36.1130 C   0  0  0  0  0  0  0  0  0  0  0  0
   37.8700   24.8660   37.1830 C   0  0  0  0  0  0  0  0  0  0  0  0
   37.9780   24.1850   38.3780 C   0  0  0  0  0  0  0  0  0  0  0  0
   38.9470   23.2000   38.5490 C   0  0  0  0  0  0  0  0  0  0  0  0
   39.7790   22.9430   37.4830 C   0  0  0  0  0  0  0  0  0  0  0  0
   40.7870   22.0050   37.5180 C   0  0  0  0  0  0  0  0  0  0  0  0
   41.6370   21.7430   36.4610 C   0  0  0  0  0  0  0  0  0  0  0  0
   41.4750   22.4640   35.2850 C   0  0  0  0  0  0  0  0  0  0  0  0
   40.4730   23.4050   35.2350 C   0  0  0  0  0  0  0  0  0  0  0  0
   39.6510   23.6300   36.3140 C   0  0  0  0  0  0  0  0  0  0  0  0
   37.0410   25.5150   37.3790 H   0  0  0  0  0  0  0  0  0  0  0  0
   37.4060   24.2770   39.2880 H   0  0  0  0  0  0  0  0  0  0  0  0
   39.1670   22.5770   39.4120 H   0  0  0  0  0  0  0  0  0  0  0  0
   40.9430   21.4230   38.4190 H   0  0  0  0  0  0  0  0  0  0  0  0
   42.4170   20.9930   36.5370 H   0  0  0  0  0  0  0  0  0  0  0  0
   42.1000   22.3160   34.4170 H   0  0  0  0  0  0  0  0  0  0  0  0
   40.3650   23.9650   34.2900 H   0  0  0  0  0  0  0  0  0  0  0  0
   40.3280   27.3260   31.1560 C   0  0  0  0  0  0  0  0  0  0  0  0
   40.2980   26.9660   32.5330 C   0  0  0  0  0  0  0  0  0  0  0  0
   39.1110   27.0890   33.2180 C   0  0  0  0  0  0  0  0  0  0  0  0
   38.0240   27.5560   32.5110 N   0  0  0  0  0  0  0  0  0  0  0  0
   38.0740   27.8890   31.2170 C   0  0  0  0  0  0  0  0  0  0  0  0
   39.2220   27.7810   30.5170 N   0  0  0  0  0  0  0  0  0  0  0  0
   41.2370   27.2420   30.5990 H   0  0  0  0  0  0  0  0  0  0  0  0
   41.2230   26.6060   32.9900 H   0  0  0  0  0  0  0  0  0  0  0  0
   36.8010   28.3850   30.5790 C   0  0  0  0  0  2  0  0  0  0  0  0
   35.9690   29.0290   31.6950 C   0  0  0  0  0  2  0  0  0  0  0  0
   35.0570   29.4160   31.2250 H   0  0  0  0  0  0  0  0  0  0  0  0
  1  3  1  0  0  0  0
  1  4  1  1  0  0  0
  1  2  1  0  0  0  0
  2  5  1  0  0  0  0
  3  7  1  6  0  0  0
  3  2  1  0  0  0  0
  3  8  1  0  0  0  0
  6  2  1  0  0  0  0
  8 17  2  0  0  0  0
  8  9  1  0  0  0  0
  9 18  1  0  0  0  0
  9 10  2  0  0  0  0
 10 11  1  0  0  0  0
 10 19  1  0  0  0  0
 11 20  1  0  0  0  0
 12 13  1  0  0  0  0
 12 11  2  0  0  0  0
 13 21  1  0  0  0  0
 14 22  1  0  0  0  0
 14 13  2  0  0  0  0
 15 14  1  0  0  0  0
 16 15  2  0  0  0  0
 16 17  1  0  0  0  0
 17 12  1  0  0  0  0
 23 15  1  0  0  0  0
 24 16  1  0  0  0  0
 25 26  1  0  0  0  0
 26 32  1  0  0  0  0
 26 27  2  0  0  0  0
 27  1  1  0  0  0  0
 28 27  1  0  0  0  0
 29 28  2  0  0  0  0
 30 25  2  0  0  0  0
 30 29  1  0  0  0  0
 31 25  1  0  0  0  0
 33 29  1  0  0  0  0
 33 34  1  0  0  0  0
 35 34  1  0  0  0  0
M  END
>  <minimizedAffinity>
-5.8738637

$$$$

 OpenBabel03272509343D

 35 38  0  0  1  0  0  0  0  0999 V2000
   38.6000   26.6320   35.2680 C   0  0  1  0  0  0  0  0  0  0  0  0
   39.3950   26.9580   34.0740 C   0  0  0  0  0  0  0  0  0  0  0  0
   37.9900   26.5300   33.8430 C   0  0  2  0  0  0  0  0  0  0  0  0
   38.1470   27.4240   35.8520 H   0  0  0  0  0  0  0  0  0  0  0  0
   39.8200   27.9450   34.1090 H   0  0  0  0  0  0  0  0  0  0  0  0
   40.1610   26.1490   33.8180 H   0  0  0  0  0  0  0  0  0  0  0  0
   37.4920   25.5820   33.7360 H   0  0  0  0  0  0  0  0  0  0  0  0
   37.1770   27.6640   33.3290 C   0  0  0  0  0  0  0  0  0  0  0  0
   36.4090   28.2200   34.3570 C   0  0  0  0  0  0  0  0  0  0  0  0
   35.6370   29.3440   34.1410 C   0  0  0  0  0  0  0  0  0  0  0  0
   35.6050   29.9540   32.8900 C   0  0  0  0  0  0  0  0  0  0  0  0
   36.3690   29.3890   31.8950 C   0  0  0  0  0  0  0  0  0  0  0  0
   36.4230   29.8810   30.6090 C   0  0  0  0  0  0  0  0  0  0  0  0
   37.1760   29.3200   29.5960 C   0  0  0  0  0  0  0  0  0  0  0  0
   37.9310   28.1890   29.8800 C   0  0  0  0  0  0  0  0  0  0  0  0
   37.8880   27.6860   31.1590 C   0  0  0  0  0  0  0  0  0  0  0  0
   37.1220   28.2790   32.1350 C   0  0  0  0  0  0  0  0  0  0  0  0
   36.2240   28.0280   35.3940 H   0  0  0  0  0  0  0  0  0  0  0  0
   34.9950   29.8900   34.8150 H   0  0  0  0  0  0  0  0  0  0  0  0
   35.0590   30.8310   32.5530 H   0  0  0  0  0  0  0  0  0  0  0  0
   35.8470   30.7630   30.3520 H   0  0  0  0  0  0  0  0  0  0  0  0
   37.1850   29.7450   28.5990 H   0  0  0  0  0  0  0  0  0  0  0  0
   38.5440   27.6940   29.1410 H   0  0  0  0  0  0  0  0  0  0  0  0
   38.4960   26.7860   31.3590 H   0  0  0  0  0  0  0  0  0  0  0  0
   38.1010   23.6350   37.4950 C   0  0  0  0  0  0  0  0  0  0  0  0
   37.8930   24.9020   36.8780 C   0  0  0  0  0  0  0  0  0  0  0  0
   38.7840   25.3190   35.9170 C   0  0  0  0  0  0  0  0  0  0  0  0
   39.8280   24.4680   35.6180 N   0  0  0  0  0  0  0  0  0  0  0  0
   40.0050   23.2830   36.2100 C   0  0  0  0  0  0  0  0  0  0  0  0
   39.1480   22.8440   37.1560 N   0  0  0  0  0  0  0  0  0  0  0  0
   37.4240   23.2860   38.2450 H   0  0  0  0  0  0  0  0  0  0  0  0
   37.0290   25.4910   37.1950 H   0  0  0  0  0  0  0  0  0  0  0  0
   41.1930   22.4630   35.7770 C   0  0  0  0  0  2  0  0  0  0  0  0
   41.6790   21.7000   37.0160 C   0  0  0  0  0  2  0  0  0  0  0  0
   42.5250   21.0810   36.6930 H   0  0  0  0  0  0  0  0  0  0  0  0
  1  4  1  1  0  0  0
  1 27  1  0  0  0  0
  2  5  1  0  0  0  0
  2  1  1  0  0  0  0
  3  7  1  6  0  0  0
  3  2  1  0  0  0  0
  3  1  1  0  0  0  0
  6  2  1  0  0  0  0
  8  3  1  0  0  0  0
  8  9  1  0  0  0  0
  9 18  1  0  0  0  0
 10  9  2  0  0  0  0
 10 19  1  0  0  0  0
 11 10  1  0  0  0  0
 12 17  1  0  0  0  0
 12 11  2  0  0  0  0
 13 12  1  0  0  0  0
 14 15  1  0  0  0  0
 14 13  2  0  0  0  0
 15 16  2  0  0  0  0
 16 24  1  0  0  0  0
 16 17  1  0  0  0  0
 17  8  2  0  0  0  0
 20 11  1  0  0  0  0
 21 13  1  0  0  0  0
 22 14  1  0  0  0  0
 23 15  1  0  0  0  0
 25 31  1  0  0  0  0
 26 32  1  0  0  0  0
 26 25  2  0  0  0  0
 27 26  1  0  0  0  0
 28 27  2  0  0  0  0
 28 29  1  0  0  0  0
 29 30  2  0  0  0  0
 30 25  1  0  0  0  0
 33 29  1  0  0  0  0
 33 34  1  0  0  0  0
 35 34  1  0  0  0  0
M  END
>  <minimizedAffinity>
-5.83529854

$$$$

 OpenBabel03272509343D

 35 38  0  0  1  0  0  0  0  0999 V2000
   37.8210   27.4750   34.1680 C   0  0  1  0  0  0  0  0  0  0  0  0
   38.0060   27.5140   35.6270 C   0  0  0  0  0  0  0  0  0  0  0  0
   37.4030   26.2770   35.0650 C   0  0  2  0  0  0  0  0  0  0  0  0
   38.6540   27.2310   33.5210 H   0  0  0  0  0  0  0  0  0  0  0  0
   39.0210   27.7170   35.9170 H   0  0  0  0  0  0  0  0  0  0  0  0
   37.2470   28.1890   36.1520 H   0  0  0  0  0  0  0  0  0  0  0  0
   36.4040   25.9690   34.8040 H   0  0  0  0  0  0  0  0  0  0  0  0
   38.3360   25.1290   35.2080 C   0  0  0  0  0  0  0  0  0  0  0  0
   38.9970   24.8830   34.0000 C   0  0  0  0  0  0  0  0  0  0  0  0
   39.9800   23.9190   33.9100 C   0  0  0  0  0  0  0  0  0  0  0  0
   40.3400   23.1650   35.0230 C   0  0  0  0  0  0  0  0  0  0  0  0
   39.6770   23.4250   36.2000 C   0  0  0  0  0  0  0  0  0  0  0  0
   39.9230   22.7480   37.3750 C   0  0  0  0  0  0  0  0  0  0  0  0
   39.2580   22.9900   38.5620 C   0  0  0  0  0  0  0  0  0  0  0  0
   38.2790   23.9740   38.5850 C   0  0  0  0  0  0  0  0  0  0  0  0
   38.0210   24.6580   37.4200 C   0  0  0  0  0  0  0  0  0  0  0  0
   38.7090   24.3830   36.2620 C   0  0  0  0  0  0  0  0  0  0  0  0
   38.9850   25.2720   33.0020 H   0  0  0  0  0  0  0  0  0  0  0  0
   40.5780   23.6080   33.0670 H   0  0  0  0  0  0  0  0  0  0  0  0
   41.0820   22.3780   35.1250 H   0  0  0  0  0  0  0  0  0  0  0  0
   40.6810   21.9730   37.3940 H   0  0  0  0  0  0  0  0  0  0  0  0
   39.4880   22.4280   39.4610 H   0  0  0  0  0  0  0  0  0  0  0  0
   37.7160   24.2190   39.4740 H   0  0  0  0  0  0  0  0  0  0  0  0
   37.2380   25.4360   37.4640 H   0  0  0  0  0  0  0  0  0  0  0  0
   35.3680   28.8470   31.6600 C   0  0  0  0  0  0  0  0  0  0  0  0
   36.4780   28.1450   32.2100 C   0  0  0  0  0  0  0  0  0  0  0  0
   36.6710   28.1840   33.5710 C   0  0  0  0  0  0  0  0  0  0  0  0
   35.7630   28.9090   34.3130 N   0  0  0  0  0  0  0  0  0  0  0  0
   34.7270   29.5610   33.7760 C   0  0  0  0  0  0  0  0  0  0  0  0
   34.5100   29.5430   32.4450 N   0  0  0  0  0  0  0  0  0  0  0  0
   35.1940   28.8340   30.6050 H   0  0  0  0  0  0  0  0  0  0  0  0
   37.1330   27.6020   31.5240 H   0  0  0  0  0  0  0  0  0  0  0  0
   33.8180   30.3110   34.7170 C   0  0  0  0  0  2  0  0  0  0  0  0
   32.7450   29.3180   35.1810 C   0  0  0  0  0  2  0  0  0  0  0  0
   32.1020   29.8570   35.8870 H   0  0  0  0  0  0  0  0  0  0  0  0
  1  4  1  6  0  0  0
  1  3  1  0  0  0  0
  1  2  1  0  0  0  0
  2  5  1  0  0  0  0
  2  6  1  0  0  0  0
  3  7  1  1  0  0  0
  3  8  1  0  0  0  0
  3  2  1  0  0  0  0
  8 17  1  0  0  0  0
  9  8  2  0  0  0  0
 10  9  1  0  0  0  0
 10 11  2  0  0  0  0
 11 20  1  0  0  0  0
 11 12  1  0  0  0  0
 12 17  2  0  0  0  0
 12 13  1  0  0  0  0
 13 21  1  0  0  0  0
 13 14  2  0  0  0  0
 14 15  1  0  0  0  0
 14 22  1  0  0  0  0
 15 23  1  0  0  0  0
 16 24  1  0  0  0  0
 16 15  2  0  0  0  0
 17 16  1  0  0  0  0
 18  9  1  0  0  0  0
 19 10  1  0  0  0  0
 25 26  2  0  0  0  0
 25 30  1  0  0  0  0
 26 27  1  0  0  0  0
 27  1  1  0  0  0  0
 27 28  2  0  0  0  0
 29 28  1  0  0  0  0
 29 33  1  0  0  0  0
 30 29  2  0  0  0  0
 31 25  1  0  0  0  0
 32 26  1  0  0  0  0
 33 34  1  0  0  0  0
 34 35  1  0  0  0  0
M  END
>  <minimizedAffinity>
-5.68603849

$$$$

 OpenBabel03272509343D

 35 38  0  0  1  0  0  0  0  0999 V2000
   38.2590   25.7330   33.0740 C   0  0  1  0  0  0  0  0  0  0  0  0
   37.8800   25.4290   31.6850 C   0  0  0  0  0  0  0  0  0  0  0  0
   36.8920   26.1900   32.4950 C   0  0  2  0  0  0  0  0  0  0  0  0
   38.9130   26.5680   33.2870 H   0  0  0  0  0  0  0  0  0  0  0  0
   38.5990   25.7770   30.9670 H   0  0  0  0  0  0  0  0  0  0  0  0
   37.5910   24.3320   31.5350 H   0  0  0  0  0  0  0  0  0  0  0  0
   36.1080   25.9250   33.1830 H   0  0  0  0  0  0  0  0  0  0  0  0
   36.7590   27.5800   31.9840 C   0  0  0  0  0  0  0  0  0  0  0  0
   37.0500   27.6280   30.6160 C   0  0  0  0  0  0  0  0  0  0  0  0
   36.9090   28.7980   29.8990 C   0  0  0  0  0  0  0  0  0  0  0  0
   36.4710   29.9640   30.5210 C   0  0  0  0  0  0  0  0  0  0  0  0
   36.1910   29.8920   31.8660 C   0  0  0  0  0  0  0  0  0  0  0  0
   35.7610   30.9710   32.6090 C   0  0  0  0  0  0  0  0  0  0  0  0
   35.4850   30.9180   33.9620 C   0  0  0  0  0  0  0  0  0  0  0  0
   35.6480   29.7080   34.6250 C   0  0  0  0  0  0  0  0  0  0  0  0
   36.0760   28.6230   33.8970 C   0  0  0  0  0  0  0  0  0  0  0  0
   36.3380   28.7240   32.5510 C   0  0  0  0  0  0  0  0  0  0  0  0
   37.3740   26.9470   29.8560 H   0  0  0  0  0  0  0  0  0  0  0  0
   37.0890   29.0040   28.8550 H   0  0  0  0  0  0  0  0  0  0  0  0
   36.3090   30.9570   30.1110 H   0  0  0  0  0  0  0  0  0  0  0  0
   35.6230   31.9300   32.1250 H   0  0  0  0  0  0  0  0  0  0  0  0
   35.1490   31.7960   34.5030 H   0  0  0  0  0  0  0  0  0  0  0  0
   35.4530   29.5890   35.6810 H   0  0  0  0  0  0  0  0  0  0  0  0
   36.1980   27.6730   34.4470 H   0  0  0  0  0  0  0  0  0  0  0  0
   37.9140   22.3650   34.7250 C   0  0  0  0  0  0  0  0  0  0  0  0
   38.0450   23.3610   33.7150 C   0  0  0  0  0  0  0  0  0  0  0  0
   38.1320   24.6780   34.1000 C   0  0  0  0  0  0  0  0  0  0  0  0
   38.0860   24.9410   35.4520 N   0  0  0  0  0  0  0  0  0  0  0  0
   37.9620   23.9920   36.3840 C   0  0  0  0  0  0  0  0  0  0  0  0
   37.8740   22.6890   36.0400 N   0  0  0  0  0  0  0  0  0  0  0  0
   37.8430   21.3330   34.4550 H   0  0  0  0  0  0  0  0  0  0  0  0
   38.0720   23.0340   32.6730 H   0  0  0  0  0  0  0  0  0  0  0  0
   37.9260   24.4340   37.8250 C   0  0  0  0  0  2  0  0  0  0  0  0
   38.7270   23.3990   38.6250 C   0  0  0  0  0  2  0  0  0  0  0  0
   38.7260   23.7380   39.6680 H   0  0  0  0  0  0  0  0  0  0  0  0
  1  4  1  1  0  0  0
  1 27  1  0  0  0  0
  2  3  1  0  0  0  0
  2  1  1  0  0  0  0
  3  1  1  0  0  0  0
  3  7  1  1  0  0  0
  5  2  1  0  0  0  0
  6  2  1  0  0  0  0
  8  3  1  0  0  0  0
  8 17  1  0  0  0  0
  9  8  2  0  0  0  0
 10 11  2  0  0  0  0
 10  9  1  0  0  0  0
 11 12  1  0  0  0  0
 12 17  2  0  0  0  0
 12 13  1  0  0  0  0
 13 14  2  0  0  0  0
 14 22  1  0  0  0  0
 14 15  1  0  0  0  0
 15 23  1  0  0  0  0
 16 24  1  0  0  0  0
 16 15  2  0  0  0  0
 17 16  1  0  0  0  0
 18  9  1  0  0  0  0
 19 10  1  0  0  0  0
 20 11  1  0  0  0  0
 21 13  1  0  0  0  0
 25 30  1  0  0  0  0
 26 27  1  0  0  0  0
 26 25  2  0  0  0  0
 27 28  2  0  0  0  0
 28 29  1  0  0  0  0
 29 33  1  0  0  0  0
 30 29  2  0  0  0  0
 31 25  1  0  0  0  0
 32 26  1  0  0  0  0
 33 34  1  0  0  0  0
 34 35  1  0  0  0  0
M  END
>  <minimizedAffinity>
-5.65321922

$$$$

 OpenBabel03272509343D

 35 38  0  0  1  0  0  0  0  0999 V2000
   39.4000   25.7000   34.5330 C   0  0  1  0  0  0  0  0  0  0  0  0
   39.7050   25.0870   33.2310 C   0  0  0  0  0  0  0  0  0  0  0  0
   38.3050   25.5450   33.4420 C   0  0  2  0  0  0  0  0  0  0  0  0
   39.6510   26.7370   34.7170 H   0  0  0  0  0  0  0  0  0  0  0  0
   40.5190   25.5680   32.7200 H   0  0  0  0  0  0  0  0  0  0  0  0
   39.8220   23.9510   33.2930 H   0  0  0  0  0  0  0  0  0  0  0  0
   37.4230   25.1130   33.8830 H   0  0  0  0  0  0  0  0  0  0  0  0
   37.9980   26.7040   32.5650 C   0  0  0  0  0  0  0  0  0  0  0  0
   38.6030   26.5460   31.3140 C   0  0  0  0  0  0  0  0  0  0  0  0
   38.3890   27.4550   30.2990 C   0  0  0  0  0  0  0  0  0  0  0  0
   37.5610   28.5560   30.4950 C   0  0  0  0  0  0  0  0  0  0  0  0
   36.9760   28.6910   31.7330 C   0  0  0  0  0  0  0  0  0  0  0  0
   36.1440   29.7380   32.0690 C   0  0  0  0  0  0  0  0  0  0  0  0
   35.5570   29.8930   33.3100 C   0  0  0  0  0  0  0  0  0  0  0  0
   35.8150   28.9420   34.2880 C   0  0  0  0  0  0  0  0  0  0  0  0
   36.6430   27.8920   33.9690 C   0  0  0  0  0  0  0  0  0  0  0  0
   37.2040   27.7790   32.7190 C   0  0  0  0  0  0  0  0  0  0  0  0
   39.2510   25.8390   30.8370 H   0  0  0  0  0  0  0  0  0  0  0  0
   38.7740   27.4800   29.2910 H   0  0  0  0  0  0  0  0  0  0  0  0
   37.2880   29.3570   29.8130 H   0  0  0  0  0  0  0  0  0  0  0  0
   35.9210   30.4990   31.3300 H   0  0  0  0  0  0  0  0  0  0  0  0
   34.9100   30.7360   33.5250 H   0  0  0  0  0  0  0  0  0  0  0  0
   35.3940   28.9950   35.2820 H   0  0  0  0  0  0  0  0  0  0  0  0
   36.8320   27.1490   34.7640 H   0  0  0  0  0  0  0  0  0  0  0  0
   37.9310   24.2060   37.6640 C   0  0  0  0  0  0  0  0  0  0  0  0
   38.1110   25.0570   36.5360 C   0  0  0  0  0  0  0  0  0  0  0  0
   39.1830   24.8270   35.7040 C   0  0  0  0  0  0  0  0  0  0  0  0
   40.0140   23.7760   36.0280 N   0  0  0  0  0  0  0  0  0  0  0  0
   39.8270   22.9900   37.0920 C   0  0  0  0  0  0  0  0  0  0  0  0
   38.7860   23.1880   37.9290 N   0  0  0  0  0  0  0  0  0  0  0  0
   37.1080   24.3620   38.3280 H   0  0  0  0  0  0  0  0  0  0  0  0
   37.3870   25.8600   36.3780 H   0  0  0  0  0  0  0  0  0  0  0  0
   40.8210   21.8780   37.3170 C   0  0  0  0  0  2  0  0  0  0  0  0
   42.1330   22.3190   36.6550 C   0  0  0  0  0  2  0  0  0  0  0  0
   42.8640   21.5230   36.8440 H   0  0  0  0  0  0  0  0  0  0  0  0
  1  4  1  1  0  0  0
  1 27  1  0  0  0  0
  2  6  1  0  0  0  0
  2  3  1  0  0  0  0
  2  1  1  0  0  0  0
  3  7  1  1  0  0  0
  3  1  1  0  0  0  0
  5  2  1  0  0  0  0
  8 17  1  0  0  0  0
  8  3  1  0  0  0  0
  9  8  2  0  0  0  0
 10 11  2  0  0  0  0
 10  9  1  0  0  0  0
 11 12  1  0  0  0  0
 12 13  2  0  0  0  0
 12 17  1  0  0  0  0
 13 14  1  0  0  0  0
 14 22  1  0  0  0  0
 14 15  2  0  0  0  0
 15 23  1  0  0  0  0
 16 15  1  0  0  0  0
 16 24  1  0  0  0  0
 17 16  2  0  0  0  0
 18  9  1  0  0  0  0
 19 10  1  0  0  0  0
 20 11  1  0  0  0  0
 21 13  1  0  0  0  0
 25 30  1  0  0  0  0
 25 31  1  0  0  0  0
 26 25  2  0  0  0  0
 27 28  2  0  0  0  0
 27 26  1  0  0  0  0
 28 29  1  0  0  0  0
 29 33  1  0  0  0  0
 29 30  2  0  0  0  0
 32 26  1  0  0  0  0
 34 35  1  0  0  0  0
 34 33  1  0  0  0  0
M  END
>  <minimizedAffinity>
-5.63753891

$$$$

 OpenBabel03272509343D

 35 38  0  0  1  0  0  0  0  0999 V2000
   38.8430   26.7030   34.6830 C   0  0  1  0  0  0  0  0  0  0  0  0
   37.5080   26.4400   35.2420 C   0  0  0  0  0  0  0  0  0  0  0  0
   38.3240   25.2520   34.8740 C   0  0  2  0  0  0  0  0  0  0  0  0
   39.6720   26.9320   35.3410 H   0  0  0  0  0  0  0  0  0  0  0  0
   37.3550   26.9020   36.2000 H   0  0  0  0  0  0  0  0  0  0  0  0
   36.6660   26.6570   34.4990 H   0  0  0  0  0  0  0  0  0  0  0  0
   38.4870   24.6940   33.9680 H   0  0  0  0  0  0  0  0  0  0  0  0
   38.7290   24.5000   36.0900 C   0  0  0  0  0  0  0  0  0  0  0  0
   37.8620   24.7820   37.1510 C   0  0  0  0  0  0  0  0  0  0  0  0
   37.9840   24.1340   38.3620 C   0  0  0  0  0  0  0  0  0  0  0  0
   38.9770   23.1780   38.5590 C   0  0  0  0  0  0  0  0  0  0  0  0
   39.8170   22.9160   37.5020 C   0  0  0  0  0  0  0  0  0  0  0  0
   40.8480   22.0040   37.5600 C   0  0  0  0  0  0  0  0  0  0  0  0
   41.7070   21.7370   36.5110 C   0  0  0  0  0  0  0  0  0  0  0  0
   41.5290   22.4250   35.3180 C   0  0  0  0  0  0  0  0  0  0  0  0
   40.5040   23.3390   35.2440 C   0  0  0  0  0  0  0  0  0  0  0  0
   39.6750   23.5710   36.3160 C   0  0  0  0  0  0  0  0  0  0  0  0
   37.0170   25.4150   37.3300 H   0  0  0  0  0  0  0  0  0  0  0  0
   37.4080   24.2330   39.2700 H   0  0  0  0  0  0  0  0  0  0  0  0
   39.2110   22.5820   39.4380 H   0  0  0  0  0  0  0  0  0  0  0  0
   41.0170   21.4480   38.4760 H   0  0  0  0  0  0  0  0  0  0  0  0
   42.5050   21.0090   36.6070 H   0  0  0  0  0  0  0  0  0  0  0  0
   42.1600   22.2720   34.4540 H   0  0  0  0  0  0  0  0  0  0  0  0
   40.3840   23.8740   34.2850 H   0  0  0  0  0  0  0  0  0  0  0  0
   37.9840   27.8500   31.1990 C   0  0  0  0  0  0  0  0  0  0  0  0
   37.8420   27.4850   32.5690 C   0  0  0  0  0  0  0  0  0  0  0  0
   38.9630   27.0970   33.2650 C   0  0  0  0  0  0  0  0  0  0  0  0
   40.1570   27.0900   32.5770 N   0  0  0  0  0  0  0  0  0  0  0  0
   40.2690   27.4360   31.2910 C   0  0  0  0  0  0  0  0  0  0  0  0
   39.1890   27.8210   30.5790 N   0  0  0  0  0  0  0  0  0  0  0  0
   37.1300   28.1550   30.6340 H   0  0  0  0  0  0  0  0  0  0  0  0
   36.8430   27.5300   33.0100 H   0  0  0  0  0  0  0  0  0  0  0  0
   41.6430   27.3780   30.6740 C   0  0  0  0  0  2  0  0  0  0  0  0
   42.5510   28.2680   31.5330 C   0  0  0  0  0  2  0  0  0  0  0  0
   43.5570   28.2020   31.1010 H   0  0  0  0  0  0  0  0  0  0  0  0
  1  3  1  0  0  0  0
  1  2  1  0  0  0  0
  1  4  1  1  0  0  0
  2  5  1  0  0  0  0
  3  7  1  6  0  0  0
  3  2  1  0  0  0  0
  3  8  1  0  0  0  0
  6  2  1  0  0  0  0
  8 17  2  0  0  0  0
  8  9  1  0  0  0  0
  9 18  1  0  0  0  0
  9 10  2  0  0  0  0
 10 11  1  0  0  0  0
 10 19  1  0  0  0  0
 11 20  1  0  0  0  0
 12 13  1  0  0  0  0
 12 11  2  0  0  0  0
 13 21  1  0  0  0  0
 14 22  1  0  0  0  0
 14 13  2  0  0  0  0
 15 14  1  0  0  0  0
 16 15  2  0  0  0  0
 16 17  1  0  0  0  0
 17 12  1  0  0  0  0
 23 15  1  0  0  0  0
 24 16  1  0  0  0  0
 25 26  1  0  0  0  0
 26 32  1  0  0  0  0
 26 27  2  0  0  0  0
 27  1  1  0  0  0  0
 28 27  1  0  0  0  0
 29 28  2  0  0  0  0
 30 25  2  0  0  0  0
 30 29  1  0  0  0  0
 31 25  1  0  0  0  0
 33 29  1  0  0  0  0
 33 34  1  0  0  0  0
 35 34  1  0  0  0  0
M  END
>  <minimizedAffinity>
-5.61848831

$$$$

 OpenBabel03272509343D

 35 38  0  0  1  0  0  0  0  0999 V2000
   38.4400   26.5990   34.6150 C   0  0  1  0  0  0  0  0  0  0  0  0
   38.1250   27.0360   35.9840 C   0  0  0  0  0  0  0  0  0  0  0  0
   37.7080   25.6580   35.6110 C   0  0  2  0  0  0  0  0  0  0  0  0
   39.4350   26.2460   34.3730 H   0  0  0  0  0  0  0  0  0  0  0  0
   38.9890   27.3730   36.5270 H   0  0  0  0  0  0  0  0  0  0  0  0
   37.2540   27.7760   36.0230 H   0  0  0  0  0  0  0  0  0  0  0  0
   36.8470   25.2290   35.1280 H   0  0  0  0  0  0  0  0  0  0  0  0
   38.5030   24.6510   36.3620 C   0  0  0  0  0  0  0  0  0  0  0  0
   38.0960   24.6060   37.6990 C   0  0  0  0  0  0  0  0  0  0  0  0
   38.6300   23.6830   38.5750 C   0  0  0  0  0  0  0  0  0  0  0  0
   39.5900   22.7700   38.1470 C   0  0  0  0  0  0  0  0  0  0  0  0
   39.9750   22.8340   36.8270 C   0  0  0  0  0  0  0  0  0  0  0  0
   40.9220   22.0010   36.2730 C   0  0  0  0  0  0  0  0  0  0  0  0
   41.3260   22.0590   34.9530 C   0  0  0  0  0  0  0  0  0  0  0  0
   40.7490   23.0120   34.1240 C   0  0  0  0  0  0  0  0  0  0  0  0
   39.8020   23.8510   34.6630 C   0  0  0  0  0  0  0  0  0  0  0  0
   39.4320   23.7550   35.9830 C   0  0  0  0  0  0  0  0  0  0  0  0
   37.3990   25.1200   38.3290 H   0  0  0  0  0  0  0  0  0  0  0  0
   38.4300   23.5160   39.6230 H   0  0  0  0  0  0  0  0  0  0  0  0
   40.1080   21.9880   38.6970 H   0  0  0  0  0  0  0  0  0  0  0  0
   41.3940   21.2440   36.8900 H   0  0  0  0  0  0  0  0  0  0  0  0
   42.0770   21.3800   34.5630 H   0  0  0  0  0  0  0  0  0  0  0  0
   41.0140   23.1190   33.0820 H   0  0  0  0  0  0  0  0  0  0  0  0
   39.3590   24.6000   33.9840 H   0  0  0  0  0  0  0  0  0  0  0  0
   36.7890   26.8470   31.2380 C   0  0  0  0  0  0  0  0  0  0  0  0
   37.6200   26.3850   32.2990 C   0  0  0  0  0  0  0  0  0  0  0  0
   37.5810   27.0500   33.5020 C   0  0  0  0  0  0  0  0  0  0  0  0
   36.7280   28.1290   33.5950 N   0  0  0  0  0  0  0  0  0  0  0  0
   35.9560   28.5460   32.5870 C   0  0  0  0  0  0  0  0  0  0  0  0
   35.9710   27.9170   31.3940 N   0  0  0  0  0  0  0  0  0  0  0  0
   36.8000   26.3500   30.2920 H   0  0  0  0  0  0  0  0  0  0  0  0
   38.2570   25.5170   32.1100 H   0  0  0  0  0  0  0  0  0  0  0  0
   35.0730   29.7420   32.8400 C   0  0  0  0  0  2  0  0  0  0  0  0
   35.0830   29.9870   34.3540 C   0  0  0  0  0  2  0  0  0  0  0  0
   34.4650   30.8750   34.5340 H   0  0  0  0  0  0  0  0  0  0  0  0
  1  4  1  6  0  0  0
  1  3  1  0  0  0  0
  1  2  1  0  0  0  0
  2  6  1  0  0  0  0
  2  5  1  0  0  0  0
  3  7  1  6  0  0  0
  3  2  1  0  0  0  0
  3  8  1  0  0  0  0
  8  9  1  0  0  0  0
  9 18  1  0  0  0  0
  9 10  2  0  0  0  0
 10 19  1  0  0  0  0
 11 10  1  0  0  0  0
 11 20  1  0  0  0  0
 12 11  2  0  0  0  0
 13 12  1  0  0  0  0
 13 21  1  0  0  0  0
 14 13  2  0  0  0  0
 15 16  2  0  0  0  0
 15 14  1  0  0  0  0
 16 17  1  0  0  0  0
 17  8  2  0  0  0  0
 17 12  1  0  0  0  0
 22 14  1  0  0  0  0
 23 15  1  0  0  0  0
 24 16  1  0  0  0  0
 25 30  2  0  0  0  0
 25 26  1  0  0  0  0
 26 27  2  0  0  0  0
 27 28  1  0  0  0  0
 27  1  1  0  0  0  0
 29 33  1  0  0  0  0
 29 28  2  0  0  0  0
 30 29  1  0  0  0  0
 31 25  1  0  0  0  0
 32 26  1  0  0  0  0
 33 34  1  0  0  0  0
 34 35  1  0  0  0  0
M  END
>  <minimizedAffinity>
-5.61577559

$$$$

 OpenBabel03272509343D

 35 38  0  0  1  0  0  0  0  0999 V2000
   34.8330   29.8230   34.6550 C   0  0  1  0  0  0  0  0  0  0  0  0
   34.5870   29.7890   33.2050 C   0  0  0  0  0  0  0  0  0  0  0  0
   35.9810   29.5260   33.6510 C   0  0  2  0  0  0  0  0  0  0  0  0
   34.5910   28.9640   35.2670 H   0  0  0  0  0  0  0  0  0  0  0  0
   33.8100   29.1010   32.9270 H   0  0  0  0  0  0  0  0  0  0  0  0
   34.4460   30.8300   32.7550 H   0  0  0  0  0  0  0  0  0  0  0  0
   36.8310   30.1420   33.8910 H   0  0  0  0  0  0  0  0  0  0  0  0
   36.3550   28.1120   33.3890 C   0  0  0  0  0  0  0  0  0  0  0  0
   35.8470   27.6930   32.1550 C   0  0  0  0  0  0  0  0  0  0  0  0
   36.1400   26.4410   31.6530 C   0  0  0  0  0  0  0  0  0  0  0  0
   36.9510   25.5620   32.3650 C   0  0  0  0  0  0  0  0  0  0  0  0
   37.4390   25.9960   33.5760 C   0  0  0  0  0  0  0  0  0  0  0  0
   38.2420   25.2270   34.3890 C   0  0  0  0  0  0  0  0  0  0  0  0
   38.7320   25.6450   35.6120 C   0  0  0  0  0  0  0  0  0  0  0  0
   38.4000   26.9170   36.0600 C   0  0  0  0  0  0  0  0  0  0  0  0
   37.5990   27.6960   35.2590 C   0  0  0  0  0  0  0  0  0  0  0  0
   37.1350   27.2370   34.0490 C   0  0  0  0  0  0  0  0  0  0  0  0
   35.2380   28.1010   31.3740 H   0  0  0  0  0  0  0  0  0  0  0  0
   35.8330   25.9690   30.7320 H   0  0  0  0  0  0  0  0  0  0  0  0
   37.2750   24.5540   32.1190 H   0  0  0  0  0  0  0  0  0  0  0  0
   38.5220   24.2290   34.0720 H   0  0  0  0  0  0  0  0  0  0  0  0
   39.3610   25.0010   36.2160 H   0  0  0  0  0  0  0  0  0  0  0  0
   38.7440   27.3130   37.0040 H   0  0  0  0  0  0  0  0  0  0  0  0
   37.3480   28.7030   35.6380 H   0  0  0  0  0  0  0  0  0  0  0  0
   34.1980   32.7840   36.8950 C   0  0  0  0  0  0  0  0  0  0  0  0
   34.0450   31.5140   36.2690 C   0  0  0  0  0  0  0  0  0  0  0  0
   34.9720   31.1300   35.3280 C   0  0  0  0  0  0  0  0  0  0  0  0
   35.9950   32.0140   35.0580 N   0  0  0  0  0  0  0  0  0  0  0  0
   36.1200   33.2020   35.6580 C   0  0  0  0  0  0  0  0  0  0  0  0
   35.2280   33.6090   36.5840 N   0  0  0  0  0  0  0  0  0  0  0  0
   33.4920   33.1090   37.6290 H   0  0  0  0  0  0  0  0  0  0  0  0
   33.1940   30.8960   36.5640 H   0  0  0  0  0  0  0  0  0  0  0  0
   37.2930   34.0610   35.2580 C   0  0  0  0  0  2  0  0  0  0  0  0
   37.4100   33.9670   33.7310 C   0  0  0  0  0  2  0  0  0  0  0  0
   38.2440   34.6150   33.4380 H   0  0  0  0  0  0  0  0  0  0  0  0
  1  4  1  1  0  0  0
  1 27  1  0  0  0  0
  2  3  1  0  0  0  0
  2  1  1  0  0  0  0
  3  7  1  6  0  0  0
  3  1  1  0  0  0  0
  5  2  1  0  0  0  0
  6  2  1  0  0  0  0
  8  3  1  0  0  0  0
  8 17  1  0  0  0  0
  9  8  2  0  0  0  0
 10  9  1  0  0  0  0
 10 11  2  0  0  0  0
 11 12  1  0  0  0  0
 12 17  2  0  0  0  0
 12 13  1  0  0  0  0
 13 14  2  0  0  0  0
 14 15  1  0  0  0  0
 14 22  1  0  0  0  0
 15 23  1  0  0  0  0
 16 24  1  0  0  0  0
 16 15  2  0  0  0  0
 17 16  1  0  0  0  0
 18  9  1  0  0  0  0
 19 10  1  0  0  0  0
 20 11  1  0  0  0  0
 21 13  1  0  0  0  0
 25 31  1  0  0  0  0
 26 32  1  0  0  0  0
 26 25  2  0  0  0  0
 27 26  1  0  0  0  0
 28 27  2  0  0  0  0
 28 29  1  0  0  0  0
 29 30  2  0  0  0  0
 30 25  1  0  0  0  0
 33 29  1  0  0  0  0
 34 33  1  0  0  0  0
 35 34  1  0  0  0  0
M  END
>  <minimizedAffinity>
-5.58137369

$$$$
