
 OpenBabel03272510333D

 22 23  0  0  0  0  0  0  0  0999 V2000
   36.1240   30.2030   48.6360 C   0  0  0  0  0  0  0  0  0  0  0  0
   35.0380   30.2680   47.7940 C   0  0  0  0  0  0  0  0  0  0  0  0
   33.9900   29.3730   47.9120 C   0  0  0  0  0  0  0  0  0  0  0  0
   34.0660   28.4100   48.9030 C   0  0  0  0  0  0  0  0  0  0  0  0
   35.1450   28.3320   49.7520 C   0  0  0  0  0  0  0  0  0  0  0  0
   36.2010   29.2330   49.6330 C   0  0  0  0  0  0  0  0  0  0  0  0
   34.9240   30.9990   46.9990 H   0  0  0  0  0  0  0  0  0  0  0  0
   33.1210   29.3900   47.2740 H   0  0  0  0  0  0  0  0  0  0  0  0
   33.3010   27.6550   49.0880 H   0  0  0  0  0  0  0  0  0  0  0  0
   35.2520   27.5990   50.5420 H   0  0  0  0  0  0  0  0  0  0  0  0
   38.1690   33.1690   49.1580 C   0  0  0  0  0  0  0  0  0  0  0  0
   39.1480   33.1070   48.1520 C   0  0  0  0  0  0  0  0  0  0  0  0
   39.0860   32.0000   47.2740 C   0  0  0  0  0  0  0  0  0  0  0  0
   38.1060   31.0870   47.4550 N   0  0  0  0  0  0  0  0  0  0  0  0
   37.1810   31.1860   48.4400 C   0  0  0  0  0  0  0  0  0  0  0  0
   37.2250   32.2310   49.2830 N   0  0  0  0  0  0  0  0  0  0  0  0
   38.1450   33.9910   49.8790 H   0  0  0  0  0  0  0  0  0  0  0  0
   39.8920   33.8620   48.0670 H   0  0  0  0  0  0  0  0  0  0  0  0
   39.8190   31.9110   46.4850 H   0  0  0  0  0  0  0  0  0  0  0  0
   37.3720   29.1630   50.5420 C   0  0  0  0  0  2  0  0  0  0  0  0
   37.1610   29.8380   51.8570 C   0  0  0  0  0  2  0  0  0  0  0  0
   36.1980   30.4180   51.8520 H   0  0  0  0  0  0  0  0  0  0  0  0
  1  6  1  0  0  0  0
  2  3  1  0  0  0  0
  2  1  2  0  0  0  0
  3  4  2  0  0  0  0
  4  9  1  0  0  0  0
  4  5  1  0  0  0  0
  5 10  1  0  0  0  0
  6  5  2  0  0  0  0
  6 20  1  0  0  0  0
  7  2  1  0  0  0  0
  8  3  1  0  0  0  0
 11 16  1  0  0  0  0
 11 17  1  0  0  0  0
 12 11  2  0  0  0  0
 13 14  2  0  0  0  0
 13 12  1  0  0  0  0
 14 15  1  0  0  0  0
 15  1  1  0  0  0  0
 15 16  2  0  0  0  0
 18 12  1  0  0  0  0
 19 13  1  0  0  0  0
 20 21  1  0  0  0  0
 22 21  1  0  0  0  0
M  END
>  <minimizedAffinity>
-5.70045948

>  <minimizedRMSD>
0.48279202

$$$$
