
 OpenBabel03272509293D

 28 29  0  0  1  0  0  0  0  0999 V2000
   39.8280   24.9170   34.3970 C   0  0  2  0  0  0  0  0  0  0  0  0
   41.3390   24.8250   34.3110 C   0  0  0  0  0  0  0  0  0  0  0  0
   41.9830   26.1760   34.4860 C   0  0  0  0  0  0  0  0  0  0  0  0
   41.4840   27.1320   33.4250 C   0  0  0  0  0  0  0  0  0  0  0  0
   39.9900   27.0920   33.2310 C   0  0  0  0  0  0  0  0  0  0  0  0
   39.3050   26.3030   34.3350 C   0  0  2  0  0  0  0  0  0  0  0  0
   39.4580   24.3170   33.5110 H   0  0  0  0  0  0  0  0  0  0  0  0
   41.6640   24.4640   33.3140 H   0  0  0  0  0  0  0  0  0  0  0  0
   41.7840   24.1130   35.0340 H   0  0  0  0  0  0  0  0  0  0  0  0
   43.0800   26.0100   34.2280 H   0  0  0  0  0  0  0  0  0  0  0  0
   42.0110   26.5680   35.4940 H   0  0  0  0  0  0  0  0  0  0  0  0
   41.8690   28.1530   33.5770 H   0  0  0  0  0  0  0  0  0  0  0  0
   41.9430   26.8040   32.4680 H   0  0  0  0  0  0  0  0  0  0  0  0
   39.6120   28.1040   33.1910 H   0  0  0  0  0  0  0  0  0  0  0  0
   39.7130   26.6270   32.2370 H   0  0  0  0  0  0  0  0  0  0  0  0
   38.2560   26.1740   33.8880 H   0  0  0  0  0  0  0  0  0  0  0  0
   39.3420   24.2220   35.5830 C   0  0  0  0  0  0  0  0  0  0  0  0
   40.2150   23.5140   36.4160 C   0  0  0  0  0  0  0  0  0  0  0  0
   39.7240   22.8890   37.5510 C   0  0  0  0  0  0  0  0  0  0  0  0
   38.3910   22.9960   37.8020 N   0  0  0  0  0  0  0  0  0  0  0  0
   37.5430   23.6860   36.9850 C   0  0  0  0  0  0  0  0  0  0  0  0
   38.0700   24.2580   35.9220 N   0  0  0  0  0  0  0  0  0  0  0  0
   41.2720   23.3840   36.2680 H   0  0  0  0  0  0  0  0  0  0  0  0
   40.3410   22.3340   38.2260 H   0  0  0  0  0  0  0  0  0  0  0  0
   36.4840   23.7560   37.2070 H   0  0  0  0  0  0  0  0  0  0  0  0
   39.0870   27.1150   35.5440 C   0  0  0  0  0  2  0  0  0  0  0  0
   37.6990   27.8210   35.5100 C   0  0  0  0  0  2  0  0  0  0  0  0
   37.5220   28.1430   36.5580 H   0  0  0  0  0  0  0  0  0  0  0  0
  1  7  1  6  0  0  0
  1 17  1  0  0  0  0
  2  1  1  0  0  0  0
  2  3  1  0  0  0  0
  2  9  1  0  0  0  0
  3 11  1  0  0  0  0
  4 12  1  0  0  0  0
  4  3  1  0  0  0  0
  5  4  1  0  0  0  0
  5  6  1  0  0  0  0
  6 16  1  6  0  0  0
  6  1  1  0  0  0  0
  6 26  1  0  0  0  0
  8  2  1  0  0  0  0
 10  3  1  0  0  0  0
 13  4  1  0  0  0  0
 14  5  1  0  0  0  0
 15  5  1  0  0  0  0
 17 22  2  0  0  0  0
 17 18  1  0  0  0  0
 18 19  2  0  0  0  0
 19 20  1  0  0  0  0
 19 24  1  0  0  0  0
 21 25  1  0  0  0  0
 21 20  2  0  0  0  0
 22 21  1  0  0  0  0
 23 18  1  0  0  0  0
 27 26  1  0  0  0  0
 27 28  1  0  0  0  0
M  END
>  <minimizedAffinity>
-4.06038952

$$$$

 OpenBabel03272509293D

 28 29  0  0  1  0  0  0  0  0999 V2000
   38.8700   26.4630   34.7180 C   0  0  2  0  0  0  0  0  0  0  0  0
   37.9610   27.4860   35.3710 C   0  0  0  0  0  0  0  0  0  0  0  0
   36.6810   27.6570   34.5950 C   0  0  0  0  0  0  0  0  0  0  0  0
   36.9840   28.0960   33.1790 C   0  0  0  0  0  0  0  0  0  0  0  0
   38.0940   27.3100   32.5290 C   0  0  0  0  0  0  0  0  0  0  0  0
   38.4610   26.0810   33.3450 C   0  0  2  0  0  0  0  0  0  0  0  0
   39.8880   26.9590   34.7010 H   0  0  0  0  0  0  0  0  0  0  0  0
   38.4350   28.4880   35.3940 H   0  0  0  0  0  0  0  0  0  0  0  0
   37.7180   27.2570   36.4270 H   0  0  0  0  0  0  0  0  0  0  0  0
   36.1720   28.5590   35.0700 H   0  0  0  0  0  0  0  0  0  0  0  0
   35.9490   26.8660   34.6930 H   0  0  0  0  0  0  0  0  0  0  0  0
   36.0750   28.1470   32.5590 H   0  0  0  0  0  0  0  0  0  0  0  0
   37.3320   29.1500   33.2450 H   0  0  0  0  0  0  0  0  0  0  0  0
   37.7890   27.0300   31.5300 H   0  0  0  0  0  0  0  0  0  0  0  0
   39.0250   27.9390   32.3950 H   0  0  0  0  0  0  0  0  0  0  0  0
   39.4470   25.7770   32.8450 H   0  0  0  0  0  0  0  0  0  0  0  0
   39.0110   25.2880   35.5720 C   0  0  0  0  0  0  0  0  0  0  0  0
   38.0900   25.0200   36.5910 C   0  0  0  0  0  0  0  0  0  0  0  0
   38.2390   23.8800   37.3640 C   0  0  0  0  0  0  0  0  0  0  0  0
   39.2930   23.0650   37.0900 N   0  0  0  0  0  0  0  0  0  0  0  0
   40.1890   23.3330   36.0960 C   0  0  0  0  0  0  0  0  0  0  0  0
   39.9950   24.4300   35.3960 N   0  0  0  0  0  0  0  0  0  0  0  0
   37.2470   25.6270   36.8630 H   0  0  0  0  0  0  0  0  0  0  0  0
   37.5680   23.6210   38.1570 H   0  0  0  0  0  0  0  0  0  0  0  0
   41.0210   22.6670   35.8990 H   0  0  0  0  0  0  0  0  0  0  0  0
   37.5560   24.9500   33.0810 C   0  0  0  0  0  2  0  0  0  0  0  0
   37.3540   24.7310   31.5520 C   0  0  0  0  0  2  0  0  0  0  0  0
   36.9210   23.7120   31.4690 H   0  0  0  0  0  0  0  0  0  0  0  0
  1  7  1  6  0  0  0
  1  2  1  0  0  0  0
  1 17  1  0  0  0  0
  2  8  1  0  0  0  0
  2  9  1  0  0  0  0
  3 11  1  0  0  0  0
  3 10  1  0  0  0  0
  3  2  1  0  0  0  0
  4 13  1  0  0  0  0
  4  3  1  0  0  0  0
  5  4  1  0  0  0  0
  5  6  1  0  0  0  0
  6 16  1  6  0  0  0
  6  1  1  0  0  0  0
 12  4  1  0  0  0  0
 14  5  1  0  0  0  0
 15  5  1  0  0  0  0
 17 18  1  0  0  0  0
 18 23  1  0  0  0  0
 18 19  2  0  0  0  0
 19 24  1  0  0  0  0
 20 19  1  0  0  0  0
 21 20  2  0  0  0  0
 22 17  2  0  0  0  0
 22 21  1  0  0  0  0
 25 21  1  0  0  0  0
 26  6  1  0  0  0  0
 27 26  1  0  0  0  0
 28 27  1  0  0  0  0
M  END
>  <minimizedAffinity>
-4.00139141

$$$$

 OpenBabel03272509293D

 28 29  0  0  1  0  0  0  0  0999 V2000
   38.1820   23.9870   34.6150 C   0  0  2  0  0  0  0  0  0  0  0  0
   39.0490   23.1420   33.7020 C   0  0  0  0  0  0  0  0  0  0  0  0
   40.0130   23.9930   32.9180 C   0  0  0  0  0  0  0  0  0  0  0  0
   39.2570   25.0070   32.0860 C   0  0  0  0  0  0  0  0  0  0  0  0
   38.1620   25.7120   32.8440 C   0  0  0  0  0  0  0  0  0  0  0  0
   38.2520   25.4410   34.3370 C   0  0  2  0  0  0  0  0  0  0  0  0
   37.1300   23.6040   34.4420 H   0  0  0  0  0  0  0  0  0  0  0  0
   38.4350   22.6090   32.9470 H   0  0  0  0  0  0  0  0  0  0  0  0
   39.6110   22.3470   34.2300 H   0  0  0  0  0  0  0  0  0  0  0  0
   40.4730   23.2830   32.1550 H   0  0  0  0  0  0  0  0  0  0  0  0
   40.8680   24.3760   33.4610 H   0  0  0  0  0  0  0  0  0  0  0  0
   39.9360   25.7020   31.5670 H   0  0  0  0  0  0  0  0  0  0  0  0
   38.7680   24.4370   31.2670 H   0  0  0  0  0  0  0  0  0  0  0  0
   38.2200   26.7720   32.6420 H   0  0  0  0  0  0  0  0  0  0  0  0
   37.1370   25.3920   32.4850 H   0  0  0  0  0  0  0  0  0  0  0  0
   37.2320   25.8320   34.6890 H   0  0  0  0  0  0  0  0  0  0  0  0
   38.4870   23.7020   36.0130 C   0  0  0  0  0  0  0  0  0  0  0  0
   39.6590   23.0300   36.3760 C   0  0  0  0  0  0  0  0  0  0  0  0
   39.9300   22.8010   37.7150 C   0  0  0  0  0  0  0  0  0  0  0  0
   39.0260   23.2480   38.6270 N   0  0  0  0  0  0  0  0  0  0  0  0
   37.8820   23.9020   38.2680 C   0  0  0  0  0  0  0  0  0  0  0  0
   37.6810   24.0890   36.9800 N   0  0  0  0  0  0  0  0  0  0  0  0
   40.4050   22.6430   35.7050 H   0  0  0  0  0  0  0  0  0  0  0  0
   40.8090   22.2930   38.0540 H   0  0  0  0  0  0  0  0  0  0  0  0
   37.1770   24.2480   39.0150 H   0  0  0  0  0  0  0  0  0  0  0  0
   39.2270   26.3220   35.0020 C   0  0  0  0  0  2  0  0  0  0  0  0
   38.5150   27.4430   35.8170 C   0  0  0  0  0  2  0  0  0  0  0  0
   39.3010   27.8420   36.4920 H   0  0  0  0  0  0  0  0  0  0  0  0
  1  7  1  6  0  0  0
  1 17  1  0  0  0  0
  2  9  1  0  0  0  0
  2  1  1  0  0  0  0
  3 11  1  0  0  0  0
  3  2  1  0  0  0  0
  4  5  1  0  0  0  0
  4  3  1  0  0  0  0
  5  6  1  0  0  0  0
  6  1  1  0  0  0  0
  6 16  1  1  0  0  0
  6 26  1  0  0  0  0
  8  2  1  0  0  0  0
 10  3  1  0  0  0  0
 12  4  1  0  0  0  0
 13  4  1  0  0  0  0
 14  5  1  0  0  0  0
 15  5  1  0  0  0  0
 17 18  2  0  0  0  0
 17 22  1  0  0  0  0
 18 19  1  0  0  0  0
 19 24  1  0  0  0  0
 19 20  2  0  0  0  0
 21 20  1  0  0  0  0
 21 25  1  0  0  0  0
 22 21  2  0  0  0  0
 23 18  1  0  0  0  0
 26 27  1  0  0  0  0
 27 28  1  0  0  0  0
M  END
>  <minimizedAffinity>
-3.96587539

$$$$

 OpenBabel03272509293D

 28 29  0  0  1  0  0  0  0  0999 V2000
   38.7970   23.1210   35.5140 C   0  0  2  0  0  0  0  0  0  0  0  0
   38.4210   22.9790   36.9760 C   0  0  0  0  0  0  0  0  0  0  0  0
   39.6210   23.1450   37.8710 C   0  0  0  0  0  0  0  0  0  0  0  0
   40.6740   22.1140   37.5280 C   0  0  0  0  0  0  0  0  0  0  0  0
   40.9220   21.9740   36.0480 C   0  0  0  0  0  0  0  0  0  0  0  0
   40.2580   23.0940   35.2620 C   0  0  2  0  0  0  0  0  0  0  0  0
   38.2950   22.2420   35.0060 H   0  0  0  0  0  0  0  0  0  0  0  0
   38.0230   21.9660   37.1910 H   0  0  0  0  0  0  0  0  0  0  0  0
   37.6240   23.6760   37.3010 H   0  0  0  0  0  0  0  0  0  0  0  0
   39.2550   22.8450   38.9070 H   0  0  0  0  0  0  0  0  0  0  0  0
   39.9820   24.1560   38.0080 H   0  0  0  0  0  0  0  0  0  0  0  0
   41.6010   22.2640   38.1060 H   0  0  0  0  0  0  0  0  0  0  0  0
   40.2830   21.1370   37.8830 H   0  0  0  0  0  0  0  0  0  0  0  0
   41.9880   21.9600   35.8690 H   0  0  0  0  0  0  0  0  0  0  0  0
   40.5370   20.9860   35.6540 H   0  0  0  0  0  0  0  0  0  0  0  0
   40.3400   22.6850   34.1940 H   0  0  0  0  0  0  0  0  0  0  0  0
   38.1860   24.3170   34.9450 C   0  0  0  0  0  0  0  0  0  0  0  0
   37.8680   25.4190   35.7460 C   0  0  0  0  0  0  0  0  0  0  0  0
   37.3140   26.5490   35.1670 C   0  0  0  0  0  0  0  0  0  0  0  0
   37.1020   26.5290   33.8240 N   0  0  0  0  0  0  0  0  0  0  0  0
   37.4120   25.4510   33.0460 C   0  0  0  0  0  0  0  0  0  0  0  0
   37.9350   24.4070   33.6540 N   0  0  0  0  0  0  0  0  0  0  0  0
   38.0010   25.4920   36.8100 H   0  0  0  0  0  0  0  0  0  0  0  0
   37.0510   27.4220   35.7270 H   0  0  0  0  0  0  0  0  0  0  0  0
   37.2320   25.4600   31.9770 H   0  0  0  0  0  0  0  0  0  0  0  0
   41.0750   24.3190   35.2450 C   0  0  0  0  0  2  0  0  0  0  0  0
   42.5660   24.0020   34.9220 C   0  0  0  0  0  2  0  0  0  0  0  0
   43.0070   24.9820   34.6440 H   0  0  0  0  0  0  0  0  0  0  0  0
  1  7  1  6  0  0  0
  1  2  1  0  0  0  0
  2  8  1  0  0  0  0
  2  9  1  0  0  0  0
  2  3  1  0  0  0  0
  3 11  1  0  0  0  0
  3 10  1  0  0  0  0
  4  3  1  0  0  0  0
  4 13  1  0  0  0  0
  4 12  1  0  0  0  0
  5  4  1  0  0  0  0
  6 16  1  6  0  0  0
  6  1  1  0  0  0  0
  6  5  1  0  0  0  0
 14  5  1  0  0  0  0
 15  5  1  0  0  0  0
 17  1  1  0  0  0  0
 17 18  1  0  0  0  0
 18 23  1  0  0  0  0
 19 24  1  0  0  0  0
 19 18  2  0  0  0  0
 20 19  1  0  0  0  0
 21 22  1  0  0  0  0
 21 20  2  0  0  0  0
 22 17  2  0  0  0  0
 25 21  1  0  0  0  0
 26  6  1  0  0  0  0
 27 26  1  0  0  0  0
 28 27  1  0  0  0  0
M  END
>  <minimizedAffinity>
-3.82114244

$$$$

 OpenBabel03272509293D

 28 29  0  0  1  0  0  0  0  0999 V2000
   33.9460   31.7660   36.9650 C   0  0  2  0  0  0  0  0  0  0  0  0
   34.1090   33.2600   37.1720 C   0  0  0  0  0  0  0  0  0  0  0  0
   34.7950   33.9050   35.9970 C   0  0  0  0  0  0  0  0  0  0  0  0
   36.1570   33.2840   35.7820 C   0  0  0  0  0  0  0  0  0  0  0  0
   36.1500   31.7780   35.8430 C   0  0  0  0  0  0  0  0  0  0  0  0
   34.7330   31.2260   35.8310 C   0  0  2  0  0  0  0  0  0  0  0  0
   34.2940   31.3060   37.9400 H   0  0  0  0  0  0  0  0  0  0  0  0
   34.7500   33.4750   38.0510 H   0  0  0  0  0  0  0  0  0  0  0  0
   33.1570   33.7880   37.3740 H   0  0  0  0  0  0  0  0  0  0  0  0
   35.0170   34.9690   36.3390 H   0  0  0  0  0  0  0  0  0  0  0  0
   34.1960   34.0410   35.1050 H   0  0  0  0  0  0  0  0  0  0  0  0
   36.6500   33.6740   34.8760 H   0  0  0  0  0  0  0  0  0  0  0  0
   36.7980   33.6370   36.6180 H   0  0  0  0  0  0  0  0  0  0  0  0
   36.7200   31.3880   35.0120 H   0  0  0  0  0  0  0  0  0  0  0  0
   36.6720   31.3980   36.7720 H   0  0  0  0  0  0  0  0  0  0  0  0
   34.9240   30.1350   36.1320 H   0  0  0  0  0  0  0  0  0  0  0  0
   32.5340   31.4210   36.8400 C   0  0  0  0  0  0  0  0  0  0  0  0
   31.5650   32.4050   36.6220 C   0  0  0  0  0  0  0  0  0  0  0  0
   30.2370   32.0380   36.4800 C   0  0  0  0  0  0  0  0  0  0  0  0
   29.9360   30.7140   36.5620 N   0  0  0  0  0  0  0  0  0  0  0  0
   30.8860   29.7570   36.7780 C   0  0  0  0  0  0  0  0  0  0  0  0
   32.1300   30.1680   36.9040 N   0  0  0  0  0  0  0  0  0  0  0  0
   31.7360   33.4640   36.5580 H   0  0  0  0  0  0  0  0  0  0  0  0
   29.4500   32.7440   36.3110 H   0  0  0  0  0  0  0  0  0  0  0  0
   30.6200   28.7080   36.8400 H   0  0  0  0  0  0  0  0  0  0  0  0
   34.1850   31.1350   34.4670 C   0  0  0  0  0  2  0  0  0  0  0  0
   34.2240   29.6710   33.9370 C   0  0  0  0  0  2  0  0  0  0  0  0
   33.5370   29.6700   33.0640 H   0  0  0  0  0  0  0  0  0  0  0  0
  1  2  1  0  0  0  0
  1  7  1  1  0  0  0
  2  9  1  0  0  0  0
  2  8  1  0  0  0  0
  3 10  1  0  0  0  0
  3  2  1  0  0  0  0
  4  5  1  0  0  0  0
  4  3  1  0  0  0  0
  4 13  1  0  0  0  0
  5 15  1  0  0  0  0
  6  5  1  0  0  0  0
  6 16  1  1  0  0  0
  6  1  1  0  0  0  0
 11  3  1  0  0  0  0
 12  4  1  0  0  0  0
 14  5  1  0  0  0  0
 17 22  1  0  0  0  0
 17  1  1  0  0  0  0
 18 17  2  0  0  0  0
 19 20  2  0  0  0  0
 19 18  1  0  0  0  0
 20 21  1  0  0  0  0
 21 25  1  0  0  0  0
 21 22  2  0  0  0  0
 23 18  1  0  0  0  0
 24 19  1  0  0  0  0
 26  6  1  0  0  0  0
 27 26  1  0  0  0  0
 28 27  1  0  0  0  0
M  END
>  <minimizedAffinity>
-3.77445436

$$$$

 OpenBabel03272509293D

 28 29  0  0  1  0  0  0  0  0999 V2000
   34.8550   30.3760   34.8690 C   0  0  2  0  0  0  0  0  0  0  0  0
   33.3570   30.5920   34.9710 C   0  0  0  0  0  0  0  0  0  0  0  0
   33.0320   32.0180   35.3300 C   0  0  0  0  0  0  0  0  0  0  0  0
   33.6760   32.3850   36.6490 C   0  0  0  0  0  0  0  0  0  0  0  0
   35.1150   31.9500   36.7590 C   0  0  0  0  0  0  0  0  0  0  0  0
   35.6630   31.4910   35.4170 C   0  0  2  0  0  0  0  0  0  0  0  0
   35.0450   29.4270   35.4580 H   0  0  0  0  0  0  0  0  0  0  0  0
   32.9160   29.9710   35.7770 H   0  0  0  0  0  0  0  0  0  0  0  0
   32.8030   30.3110   34.0550 H   0  0  0  0  0  0  0  0  0  0  0  0
   31.9140   32.0140   35.5500 H   0  0  0  0  0  0  0  0  0  0  0  0
   33.1360   32.7490   34.5390 H   0  0  0  0  0  0  0  0  0  0  0  0
   33.5290   33.4480   36.8980 H   0  0  0  0  0  0  0  0  0  0  0  0
   33.1130   31.8370   37.4350 H   0  0  0  0  0  0  0  0  0  0  0  0
   35.7010   32.7670   37.1540 H   0  0  0  0  0  0  0  0  0  0  0  0
   35.2370   31.1040   37.5010 H   0  0  0  0  0  0  0  0  0  0  0  0
   36.6370   30.9820   35.7460 H   0  0  0  0  0  0  0  0  0  0  0  0
   35.2330   30.0760   33.4930 C   0  0  0  0  0  0  0  0  0  0  0  0
   36.1630   29.0730   33.2000 C   0  0  0  0  0  0  0  0  0  0  0  0
   36.4780   28.7960   31.8790 C   0  0  0  0  0  0  0  0  0  0  0  0
   35.8570   29.5290   30.9160 N   0  0  0  0  0  0  0  0  0  0  0  0
   34.9520   30.5080   31.2070 C   0  0  0  0  0  0  0  0  0  0  0  0
   34.6940   30.7250   32.4800 N   0  0  0  0  0  0  0  0  0  0  0  0
   36.6940   28.4690   33.9130 H   0  0  0  0  0  0  0  0  0  0  0  0
   37.1800   28.0410   31.5920 H   0  0  0  0  0  0  0  0  0  0  0  0
   34.4710   31.0790   30.4210 H   0  0  0  0  0  0  0  0  0  0  0  0
   36.1080   32.6220   34.5850 C   0  0  0  0  0  2  0  0  0  0  0  0
   37.0480   33.5760   35.3810 C   0  0  0  0  0  2  0  0  0  0  0  0
   37.5440   34.1940   34.6030 H   0  0  0  0  0  0  0  0  0  0  0  0
  1  2  1  0  0  0  0
  1  6  1  0  0  0  0
  1  7  1  1  0  0  0
  2  3  1  0  0  0  0
  2  8  1  0  0  0  0
  3 10  1  0  0  0  0
  3  4  1  0  0  0  0
  4  5  1  0  0  0  0
  4 12  1  0  0  0  0
  4 13  1  0  0  0  0
  5 14  1  0  0  0  0
  5 15  1  0  0  0  0
  6 16  1  1  0  0  0
  6  5  1  0  0  0  0
  9  2  1  0  0  0  0
 11  3  1  0  0  0  0
 17  1  1  0  0  0  0
 18 17  1  0  0  0  0
 18 23  1  0  0  0  0
 19 18  2  0  0  0  0
 20 21  2  0  0  0  0
 20 19  1  0  0  0  0
 21 22  1  0  0  0  0
 22 17  2  0  0  0  0
 24 19  1  0  0  0  0
 25 21  1  0  0  0  0
 26 27  1  0  0  0  0
 26  6  1  0  0  0  0
 28 27  1  0  0  0  0
M  END
>  <minimizedAffinity>
-3.75908828

$$$$

 OpenBabel03272509293D

 28 29  0  0  1  0  0  0  0  0999 V2000
   37.9570   26.4350   33.2810 C   0  0  2  0  0  0  0  0  0  0  0  0
   36.9940   27.1840   34.1820 C   0  0  0  0  0  0  0  0  0  0  0  0
   37.7110   27.8200   35.3440 C   0  0  0  0  0  0  0  0  0  0  0  0
   38.4290   26.7650   36.1550 C   0  0  0  0  0  0  0  0  0  0  0  0
   39.2010   25.7800   35.3150 C   0  0  0  0  0  0  0  0  0  0  0  0
   39.3040   26.2390   33.8690 C   0  0  2  0  0  0  0  0  0  0  0  0
   37.4570   25.4350   33.1010 H   0  0  0  0  0  0  0  0  0  0  0  0
   36.2470   26.4970   34.6290 H   0  0  0  0  0  0  0  0  0  0  0  0
   36.3980   27.9540   33.6550 H   0  0  0  0  0  0  0  0  0  0  0  0
   36.8800   28.1910   36.0290 H   0  0  0  0  0  0  0  0  0  0  0  0
   38.2820   28.7130   35.1250 H   0  0  0  0  0  0  0  0  0  0  0  0
   39.0350   27.2070   36.9630 H   0  0  0  0  0  0  0  0  0  0  0  0
   37.6410   26.1880   36.6860 H   0  0  0  0  0  0  0  0  0  0  0  0
   40.1840   25.6430   35.7450 H   0  0  0  0  0  0  0  0  0  0  0  0
   38.7200   24.7550   35.3300 H   0  0  0  0  0  0  0  0  0  0  0  0
   39.6800   25.2800   33.3650 H   0  0  0  0  0  0  0  0  0  0  0  0
   38.0410   27.0820   31.9760 C   0  0  0  0  0  0  0  0  0  0  0  0
   37.4080   28.3060   31.7330 C   0  0  0  0  0  0  0  0  0  0  0  0
   37.5320   28.9050   30.4900 C   0  0  0  0  0  0  0  0  0  0  0  0
   38.2760   28.2620   29.5510 N   0  0  0  0  0  0  0  0  0  0  0  0
   38.8900   27.0660   29.7920 C   0  0  0  0  0  0  0  0  0  0  0  0
   38.7350   26.5470   30.9920 N   0  0  0  0  0  0  0  0  0  0  0  0
   36.8000   28.8570   32.4270 H   0  0  0  0  0  0  0  0  0  0  0  0
   37.0730   29.8400   30.2450 H   0  0  0  0  0  0  0  0  0  0  0  0
   39.4760   26.5730   29.0260 H   0  0  0  0  0  0  0  0  0  0  0  0
   40.3960   27.2060   33.6710 C   0  0  0  0  0  2  0  0  0  0  0  0
   41.7420   26.6650   34.2410 C   0  0  0  0  0  2  0  0  0  0  0  0
   42.5200   27.3120   33.7830 H   0  0  0  0  0  0  0  0  0  0  0  0
  1  7  1  6  0  0  0
  1  6  1  0  0  0  0
  1  2  1  0  0  0  0
  2  8  1  0  0  0  0
  2  3  1  0  0  0  0
  3 10  1  0  0  0  0
  3  4  1  0  0  0  0
  4 13  1  0  0  0  0
  4 12  1  0  0  0  0
  5 15  1  0  0  0  0
  5 14  1  0  0  0  0
  5  4  1  0  0  0  0
  6 16  1  6  0  0  0
  6  5  1  0  0  0  0
  9  2  1  0  0  0  0
 11  3  1  0  0  0  0
 17  1  1  0  0  0  0
 18 17  1  0  0  0  0
 18 23  1  0  0  0  0
 19 18  2  0  0  0  0
 20 21  2  0  0  0  0
 20 19  1  0  0  0  0
 21 22  1  0  0  0  0
 22 17  2  0  0  0  0
 24 19  1  0  0  0  0
 25 21  1  0  0  0  0
 26  6  1  0  0  0  0
 26 27  1  0  0  0  0
 28 27  1  0  0  0  0
M  END
>  <minimizedAffinity>
-3.70297098

$$$$

 OpenBabel03272509293D

 28 29  0  0  1  0  0  0  0  0999 V2000
   39.0020   26.1160   34.6400 C   0  0  2  0  0  0  0  0  0  0  0  0
   38.5080   26.1340   33.2070 C   0  0  0  0  0  0  0  0  0  0  0  0
   39.6440   25.9620   32.2320 C   0  0  0  0  0  0  0  0  0  0  0  0
   40.6640   27.0650   32.4190 C   0  0  0  0  0  0  0  0  0  0  0  0
   41.0160   27.3220   33.8620 C   0  0  0  0  0  0  0  0  0  0  0  0
   40.4740   26.2310   34.7720 C   0  0  2  0  0  0  0  0  0  0  0  0
   38.4930   27.0040   35.1260 H   0  0  0  0  0  0  0  0  0  0  0  0
   38.0420   27.1080   32.9550 H   0  0  0  0  0  0  0  0  0  0  0  0
   37.7280   25.3770   32.9940 H   0  0  0  0  0  0  0  0  0  0  0  0
   39.1850   26.1690   31.2110 H   0  0  0  0  0  0  0  0  0  0  0  0
   40.0480   24.9620   32.1360 H   0  0  0  0  0  0  0  0  0  0  0  0
   41.5500   26.9190   31.7810 H   0  0  0  0  0  0  0  0  0  0  0  0
   40.1940   27.9940   32.0310 H   0  0  0  0  0  0  0  0  0  0  0  0
   42.0900   27.4010   33.9550 H   0  0  0  0  0  0  0  0  0  0  0  0
   40.6090   28.3160   34.2170 H   0  0  0  0  0  0  0  0  0  0  0  0
   40.6150   26.7200   35.8010 H   0  0  0  0  0  0  0  0  0  0  0  0
   38.5010   24.9360   35.3360 C   0  0  0  0  0  0  0  0  0  0  0  0
   38.1610   24.9860   36.6920 C   0  0  0  0  0  0  0  0  0  0  0  0
   37.6610   23.8530   37.3140 C   0  0  0  0  0  0  0  0  0  0  0  0
   37.5240   22.7280   36.5620 N   0  0  0  0  0  0  0  0  0  0  0  0
   37.8600   22.6850   35.2390 C   0  0  0  0  0  0  0  0  0  0  0  0
   38.3290   23.7930   34.7040 N   0  0  0  0  0  0  0  0  0  0  0  0
   38.2540   25.8370   37.3420 H   0  0  0  0  0  0  0  0  0  0  0  0
   37.3830   23.8290   38.3470 H   0  0  0  0  0  0  0  0  0  0  0  0
   37.7420   21.7750   34.6610 H   0  0  0  0  0  0  0  0  0  0  0  0
   41.3550   25.0510   34.8080 C   0  0  0  0  0  2  0  0  0  0  0  0
   42.8370   25.4570   35.0630 C   0  0  0  0  0  2  0  0  0  0  0  0
   43.3390   24.5130   35.3630 H   0  0  0  0  0  0  0  0  0  0  0  0
  1  6  1  0  0  0  0
  1  7  1  1  0  0  0
  1 17  1  0  0  0  0
  2  1  1  0  0  0  0
  3  4  1  0  0  0  0
  3  2  1  0  0  0  0
  4  5  1  0  0  0  0
  5 14  1  0  0  0  0
  5 15  1  0  0  0  0
  5  6  1  0  0  0  0
  6 26  1  0  0  0  0
  6 16  1  1  0  0  0
  8  2  1  0  0  0  0
  9  2  1  0  0  0  0
 10  3  1  0  0  0  0
 11  3  1  0  0  0  0
 12  4  1  0  0  0  0
 13  4  1  0  0  0  0
 17 18  1  0  0  0  0
 18 19  2  0  0  0  0
 18 23  1  0  0  0  0
 19 24  1  0  0  0  0
 20 19  1  0  0  0  0
 21 20  2  0  0  0  0
 22 21  1  0  0  0  0
 22 17  2  0  0  0  0
 25 21  1  0  0  0  0
 26 27  1  0  0  0  0
 27 28  1  0  0  0  0
M  END
>  <minimizedAffinity>
-3.68675232

$$$$

 OpenBabel03272509293D

 28 29  0  0  1  0  0  0  0  0999 V2000
   39.5950   24.7240   35.3700 C   0  0  2  0  0  0  0  0  0  0  0  0
   39.7550   23.6690   34.2930 C   0  0  0  0  0  0  0  0  0  0  0  0
   39.2320   22.3330   34.7510 C   0  0  0  0  0  0  0  0  0  0  0  0
   39.9640   21.8850   35.9970 C   0  0  0  0  0  0  0  0  0  0  0  0
   40.1100   22.9690   37.0330 C   0  0  0  0  0  0  0  0  0  0  0  0
   39.2470   24.1770   36.7030 C   0  0  2  0  0  0  0  0  0  0  0  0
   40.6000   25.2450   35.4080 H   0  0  0  0  0  0  0  0  0  0  0  0
   40.8240   23.5050   34.0480 H   0  0  0  0  0  0  0  0  0  0  0  0
   39.2770   23.9370   33.3300 H   0  0  0  0  0  0  0  0  0  0  0  0
   39.5630   21.5990   33.9450 H   0  0  0  0  0  0  0  0  0  0  0  0
   38.1550   22.2200   34.7740 H   0  0  0  0  0  0  0  0  0  0  0  0
   39.5450   20.9520   36.4080 H   0  0  0  0  0  0  0  0  0  0  0  0
   40.9900   21.6080   35.6740 H   0  0  0  0  0  0  0  0  0  0  0  0
   39.8510   22.5670   38.0030 H   0  0  0  0  0  0  0  0  0  0  0  0
   41.1840   23.3130   37.1260 H   0  0  0  0  0  0  0  0  0  0  0  0
   39.6760   24.9530   37.4320 H   0  0  0  0  0  0  0  0  0  0  0  0
   38.6340   25.7390   34.9490 C   0  0  0  0  0  0  0  0  0  0  0  0
   38.4830   26.9330   35.6630 C   0  0  0  0  0  0  0  0  0  0  0  0
   37.5810   27.8860   35.2190 C   0  0  0  0  0  0  0  0  0  0  0  0
   36.8730   27.6070   34.0910 N   0  0  0  0  0  0  0  0  0  0  0  0
   37.0230   26.4400   33.3990 C   0  0  0  0  0  0  0  0  0  0  0  0
   37.8950   25.5730   33.8710 N   0  0  0  0  0  0  0  0  0  0  0  0
   39.0020   27.2060   36.5630 H   0  0  0  0  0  0  0  0  0  0  0  0
   37.4220   28.8170   35.7210 H   0  0  0  0  0  0  0  0  0  0  0  0
   36.4460   26.2420   32.5030 H   0  0  0  0  0  0  0  0  0  0  0  0
   37.8530   23.9990   37.1400 C   0  0  0  0  0  2  0  0  0  0  0  0
   37.7780   23.5800   38.6390 C   0  0  0  0  0  2  0  0  0  0  0  0
   36.7220   23.7650   38.9300 H   0  0  0  0  0  0  0  0  0  0  0  0
  1  7  1  1  0  0  0
  1  6  1  0  0  0  0
  2  3  1  0  0  0  0
  2  1  1  0  0  0  0
  3 11  1  0  0  0  0
  3  4  1  0  0  0  0
  4 12  1  0  0  0  0
  4  5  1  0  0  0  0
  5 15  1  0  0  0  0
  5 14  1  0  0  0  0
  6  5  1  0  0  0  0
  6 26  1  0  0  0  0
  6 16  1  1  0  0  0
  8  2  1  0  0  0  0
  9  2  1  0  0  0  0
 10  3  1  0  0  0  0
 13  4  1  0  0  0  0
 17  1  1  0  0  0  0
 17 18  1  0  0  0  0
 18 23  1  0  0  0  0
 19 18  2  0  0  0  0
 19 24  1  0  0  0  0
 20 19  1  0  0  0  0
 21 22  1  0  0  0  0
 21 20  2  0  0  0  0
 22 17  2  0  0  0  0
 25 21  1  0  0  0  0
 26 27  1  0  0  0  0
 27 28  1  0  0  0  0
M  END
>  <minimizedAffinity>
-3.67390108

$$$$
