
 OpenBabel03272507223D

 37 40  0  0  1  0  0  0  0  0999 V2000
   38.4400   24.2910   34.9810 C   0  0  0  0  0  0  0  0  0  0  0  0
   39.0420   23.5470   33.9950 C   0  0  0  0  0  0  0  0  0  0  0  0
   38.9460   24.0750   32.7030 C   0  0  0  0  0  0  0  0  0  0  0  0
   38.2920   25.2500   32.4800 N   0  0  0  0  0  0  0  0  0  0  0  0
   37.7090   25.9590   33.4760 C   0  0  0  0  0  0  0  0  0  0  0  0
   37.7910   25.4620   34.7410 N   0  0  0  0  0  0  0  0  0  0  0  0
   39.5590   22.6310   34.1360 H   0  0  0  0  0  0  0  0  0  0  0  0
   39.4020   23.5360   31.8700 H   0  0  0  0  0  0  0  0  0  0  0  0
   36.5440   27.9210   34.3150 C   0  0  0  0  0  0  0  0  0  0  0  0
   37.0080   27.2200   33.2250 C   0  0  0  0  0  0  0  0  0  0  0  0
   36.7940   27.7180   31.9570 C   0  0  0  0  0  0  0  0  0  0  0  0
   36.1280   28.9050   31.7120 C   0  0  0  0  0  0  0  0  0  0  0  0
   35.7930   29.5900   30.5960 N   0  0  0  0  0  0  0  0  0  0  0  0
   35.1370   30.6900   31.0310 C   0  0  0  0  0  0  0  0  0  0  0  0
   35.0610   30.6930   32.3740 N   0  0  0  0  0  0  0  0  0  0  0  0
   35.6750   29.5830   32.8420 C   0  0  0  0  0  0  0  0  0  0  0  0
   35.8720   29.1130   34.1150 C   0  0  0  0  0  0  0  0  0  0  0  0
   36.6510   27.6320   35.3540 H   0  0  0  0  0  0  0  0  0  0  0  0
   37.1590   27.1670   31.0920 H   0  0  0  0  0  0  0  0  0  0  0  0
   36.0090   29.3100   29.6050 H   0  0  0  0  0  0  0  0  0  0  0  0
   34.7150   31.4780   30.4230 H   0  0  0  0  0  0  0  0  0  0  0  0
   35.4890   29.7000   34.9430 H   0  0  0  0  0  0  0  0  0  0  0  0
   38.5050   23.7550   36.3930 C   0  0  1  0  0  0  0  0  0  0  0  0
   37.7610   22.5790   36.7810 C   0  0  2  0  0  0  0  0  0  0  0  0
   39.2700   22.4450   36.4750 C   0  0  2  0  0  0  0  0  0  0  0  0
   38.6700   24.5640   37.1420 H   0  0  0  0  0  0  0  0  0  0  0  0
   37.7750   22.2310   37.8760 H   0  0  0  0  0  0  0  0  0  0  0  0
   39.5280   21.9150   35.5590 H   0  0  0  0  0  0  0  0  0  0  0  0
   36.9690   21.9600   35.8760 O   0  0  0  0  0  0  0  0  0  0  0  0
   35.9560   21.0990   35.8670 C   0  0  0  0  0  0  0  0  0  0  0  0
   35.6180   20.6820   34.7140 O   0  0  0  0  0  0  0  0  0  0  0  0
   35.4230   20.7850   37.0920 N   0  0  0  0  0  0  0  0  0  0  0  0
   35.6170   19.9860   37.7280 H   0  0  0  0  0  0  0  0  0  0  0  0
   34.6910   21.4520   37.4770 H   0  0  0  0  0  0  0  0  0  0  0  0
   40.2870   22.4150   37.5600 C   0  0  0  0  0  2  0  0  0  0  0  0
   41.5100   21.6090   37.2760 C   0  0  0  0  0  2  0  0  0  0  0  0
   41.7510   21.6710   36.1970 H   0  0  0  0  0  0  0  0  0  0  0  0
  1 23  1  0  0  0  0
  2  7  1  0  0  0  0
  2  1  2  0  0  0  0
  3  2  1  0  0  0  0
  4  3  2  0  0  0  0
  4  5  1  0  0  0  0
  5  6  2  0  0  0  0
  6  1  1  0  0  0  0
  8  3  1  0  0  0  0
  9 18  1  0  0  0  0
 10  5  1  0  0  0  0
 10  9  2  0  0  0  0
 11 10  1  0  0  0  0
 12 11  2  0  0  0  0
 12 16  1  0  0  0  0
 13 14  1  0  0  0  0
 13 12  1  0  0  0  0
 14 15  2  0  0  0  0
 15 16  1  0  0  0  0
 16 17  2  0  0  0  0
 17  9  1  0  0  0  0
 17 22  1  0  0  0  0
 19 11  1  0  0  0  0
 20 13  1  0  0  0  0
 21 14  1  0  0  0  0
 23 25  1  0  0  0  0
 23 24  1  0  0  0  0
 23 26  1  1  0  0  0
 24 27  1  1  0  0  0
 25 28  1  6  0  0  0
 25 24  1  0  0  0  0
 25 35  1  0  0  0  0
 29 24  1  0  0  0  0
 30 29  1  0  0  0  0
 30 32  1  0  0  0  0
 31 30  2  0  0  0  0
 32 34  1  0  0  0  0
 32 33  1  0  0  0  0
 36 35  1  0  0  0  0
 37 36  1  0  0  0  0
M  END
>  <minimizedAffinity>
-5.91626167

$$$$

 OpenBabel03272507223D

 37 40  0  0  1  0  0  0  0  0999 V2000
   39.3390   24.4390   34.4990 C   0  0  0  0  0  0  0  0  0  0  0  0
   40.5620   24.9310   34.8910 C   0  0  0  0  0  0  0  0  0  0  0  0
   40.7010   26.3210   34.8120 C   0  0  0  0  0  0  0  0  0  0  0  0
   39.6720   27.0980   34.3720 N   0  0  0  0  0  0  0  0  0  0  0  0
   38.4790   26.5800   33.9930 C   0  0  0  0  0  0  0  0  0  0  0  0
   38.3230   25.2290   34.0620 N   0  0  0  0  0  0  0  0  0  0  0  0
   41.3810   24.3530   35.2380 H   0  0  0  0  0  0  0  0  0  0  0  0
   41.6470   26.7810   35.1090 H   0  0  0  0  0  0  0  0  0  0  0  0
   37.1770   27.5090   32.1620 C   0  0  0  0  0  0  0  0  0  0  0  0
   37.3800   27.4250   33.5210 C   0  0  0  0  0  0  0  0  0  0  0  0
   36.5600   28.1320   34.3740 C   0  0  0  0  0  0  0  0  0  0  0  0
   35.5230   28.9370   33.9350 C   0  0  0  0  0  0  0  0  0  0  0  0
   34.6040   29.7140   34.5480 N   0  0  0  0  0  0  0  0  0  0  0  0
   33.8630   30.2520   33.5520 C   0  0  0  0  0  0  0  0  0  0  0  0
   34.3060   29.8260   32.3550 N   0  0  0  0  0  0  0  0  0  0  0  0
   35.3520   28.9940   32.5540 C   0  0  0  0  0  0  0  0  0  0  0  0
   36.1520   28.3020   31.6800 C   0  0  0  0  0  0  0  0  0  0  0  0
   37.7540   27.0030   31.3970 H   0  0  0  0  0  0  0  0  0  0  0  0
   36.7160   28.0690   35.4490 H   0  0  0  0  0  0  0  0  0  0  0  0
   34.5010   29.8580   35.5850 H   0  0  0  0  0  0  0  0  0  0  0  0
   33.0290   30.9310   33.6560 H   0  0  0  0  0  0  0  0  0  0  0  0
   35.9540   28.3990   30.6180 H   0  0  0  0  0  0  0  0  0  0  0  0
   39.1440   22.9410   34.5530 C   0  0  1  0  0  0  0  0  0  0  0  0
   38.5210   22.3080   35.6910 C   0  0  2  0  0  0  0  0  0  0  0  0
   37.6840   22.5460   34.4140 C   0  0  2  0  0  0  0  0  0  0  0  0
   39.9420   22.3940   33.9970 H   0  0  0  0  0  0  0  0  0  0  0  0
   38.4450   21.1630   35.7370 H   0  0  0  0  0  0  0  0  0  0  0  0
   36.9120   23.3110   34.4830 H   0  0  0  0  0  0  0  0  0  0  0  0
   38.1290   23.0630   36.7430 O   0  0  0  0  0  0  0  0  0  0  0  0
   38.5520   23.3550   37.9690 C   0  0  0  0  0  0  0  0  0  0  0  0
   37.8870   24.2600   38.5640 O   0  0  0  0  0  0  0  0  0  0  0  0
   39.6390   22.6450   38.4150 N   0  0  0  0  0  0  0  0  0  0  0  0
   39.6910   21.7860   38.9980 H   0  0  0  0  0  0  0  0  0  0  0  0
   40.5960   23.0100   38.1310 H   0  0  0  0  0  0  0  0  0  0  0  0
   37.4490   21.4640   33.4210 C   0  0  0  0  0  2  0  0  0  0  0  0
   36.0430   20.9810   33.3140 C   0  0  0  0  0  2  0  0  0  0  0  0
   35.3480   21.8230   33.4930 H   0  0  0  0  0  0  0  0  0  0  0  0
  1 23  1  0  0  0  0
  1  2  1  0  0  0  0
  2  7  1  0  0  0  0
  3  2  2  0  0  0  0
  3  8  1  0  0  0  0
  4  3  1  0  0  0  0
  5  6  1  0  0  0  0
  5  4  2  0  0  0  0
  6  1  2  0  0  0  0
  9 10  1  0  0  0  0
 10  5  1  0  0  0  0
 10 11  2  0  0  0  0
 11 19  1  0  0  0  0
 12 11  1  0  0  0  0
 12 13  1  0  0  0  0
 13 20  1  0  0  0  0
 14 21  1  0  0  0  0
 14 13  1  0  0  0  0
 15 16  1  0  0  0  0
 15 14  2  0  0  0  0
 16 12  2  0  0  0  0
 17  9  2  0  0  0  0
 17 16  1  0  0  0  0
 18  9  1  0  0  0  0
 22 17  1  0  0  0  0
 23 26  1  6  0  0  0
 23 24  1  0  0  0  0
 24 27  1  1  0  0  0
 24 29  1  0  0  0  0
 25 28  1  1  0  0  0
 25 23  1  0  0  0  0
 25 24  1  0  0  0  0
 29 30  1  0  0  0  0
 30 32  1  0  0  0  0
 30 31  2  0  0  0  0
 32 33  1  0  0  0  0
 34 32  1  0  0  0  0
 35 25  1  0  0  0  0
 36 35  1  0  0  0  0
 36 37  1  0  0  0  0
M  END
>  <minimizedAffinity>
-5.74644804

$$$$

 OpenBabel03272507223D

 37 40  0  0  1  0  0  0  0  0999 V2000
   37.3530   28.0470   31.6020 C   0  0  0  0  0  0  0  0  0  0  0  0
   37.6670   28.8200   30.5090 C   0  0  0  0  0  0  0  0  0  0  0  0
   37.1010   30.1000   30.4990 C   0  0  0  0  0  0  0  0  0  0  0  0
   36.3010   30.5130   31.5220 N   0  0  0  0  0  0  0  0  0  0  0  0
   36.0120   29.7250   32.5850 C   0  0  0  0  0  0  0  0  0  0  0  0
   36.5520   28.4760   32.6140 N   0  0  0  0  0  0  0  0  0  0  0  0
   38.2870   28.5280   29.6990 H   0  0  0  0  0  0  0  0  0  0  0  0
   37.3090   30.7690   29.6610 H   0  0  0  0  0  0  0  0  0  0  0  0
   33.8160   29.8410   33.6220 C   0  0  0  0  0  0  0  0  0  0  0  0
   35.1490   30.1800   33.6770 C   0  0  0  0  0  0  0  0  0  0  0  0
   35.6160   30.9280   34.7370 C   0  0  0  0  0  0  0  0  0  0  0  0
   34.8060   31.3660   35.7700 C   0  0  0  0  0  0  0  0  0  0  0  0
   35.0100   32.0950   36.8890 N   0  0  0  0  0  0  0  0  0  0  0  0
   33.8010   32.1820   37.4900 C   0  0  0  0  0  0  0  0  0  0  0  0
   32.8700   31.5300   36.7690 N   0  0  0  0  0  0  0  0  0  0  0  0
   33.4650   31.0020   35.6760 C   0  0  0  0  0  0  0  0  0  0  0  0
   32.9710   30.2580   34.6350 C   0  0  0  0  0  0  0  0  0  0  0  0
   33.3360   29.2600   32.8440 H   0  0  0  0  0  0  0  0  0  0  0  0
   36.6690   31.1990   34.7850 H   0  0  0  0  0  0  0  0  0  0  0  0
   35.9260   32.5010   37.2100 H   0  0  0  0  0  0  0  0  0  0  0  0
   33.5690   32.6920   38.4140 H   0  0  0  0  0  0  0  0  0  0  0  0
   31.9140   30.0150   34.6340 H   0  0  0  0  0  0  0  0  0  0  0  0
   37.9290   26.6510   31.6530 C   0  0  1  0  0  0  0  0  0  0  0  0
   38.6460   26.1780   32.8140 C   0  0  2  0  0  0  0  0  0  0  0  0
   37.1730   25.7510   32.6160 C   0  0  2  0  0  0  0  0  0  0  0  0
   38.2320   26.2850   30.6430 H   0  0  0  0  0  0  0  0  0  0  0  0
   39.1310   25.1370   32.8010 H   0  0  0  0  0  0  0  0  0  0  0  0
   36.4510   26.1890   33.3040 H   0  0  0  0  0  0  0  0  0  0  0  0
   38.8310   27.0070   33.8680 O   0  0  0  0  0  0  0  0  0  0  0  0
   39.4880   27.0130   35.0230 C   0  0  0  0  0  0  0  0  0  0  0  0
   40.6560   26.5130   34.9770 O   0  0  0  0  0  0  0  0  0  0  0  0
   38.8200   27.5530   36.0930 N   0  0  0  0  0  0  0  0  0  0  0  0
   38.8470   28.5120   36.4930 H   0  0  0  0  0  0  0  0  0  0  0  0
   38.1570   26.9060   36.6160 H   0  0  0  0  0  0  0  0  0  0  0  0
   36.8150   24.4280   32.0410 C   0  0  0  0  0  2  0  0  0  0  0  0
   35.4760   24.3500   31.3880 C   0  0  0  0  0  2  0  0  0  0  0  0
   35.2390   25.3210   30.9120 H   0  0  0  0  0  0  0  0  0  0  0  0
  1 23  1  0  0  0  0
  1  6  1  0  0  0  0
  2  1  2  0  0  0  0
  3  2  1  0  0  0  0
  3  4  2  0  0  0  0
  4  5  1  0  0  0  0
  5  6  2  0  0  0  0
  5 10  1  0  0  0  0
  7  2  1  0  0  0  0
  8  3  1  0  0  0  0
  9 10  2  0  0  0  0
  9 17  1  0  0  0  0
 10 11  1  0  0  0  0
 11 19  1  0  0  0  0
 11 12  2  0  0  0  0
 12 13  1  0  0  0  0
 13 20  1  0  0  0  0
 13 14  1  0  0  0  0
 14 21  1  0  0  0  0
 15 14  2  0  0  0  0
 16 12  1  0  0  0  0
 16 15  1  0  0  0  0
 17 16  2  0  0  0  0
 18  9  1  0  0  0  0
 22 17  1  0  0  0  0
 23 26  1  6  0  0  0
 23 25  1  0  0  0  0
 23 24  1  0  0  0  0
 24 27  1  6  0  0  0
 24 29  1  0  0  0  0
 25 24  1  0  0  0  0
 25 28  1  1  0  0  0
 29 30  1  0  0  0  0
 30 32  1  0  0  0  0
 31 30  2  0  0  0  0
 32 33  1  0  0  0  0
 32 34  1  0  0  0  0
 35 25  1  0  0  0  0
 36 35  1  0  0  0  0
 37 36  1  0  0  0  0
M  END
>  <minimizedAffinity>
-5.51634455

$$$$

 OpenBabel03272507223D

 37 40  0  0  1  0  0  0  0  0999 V2000
   37.2920   26.0280   33.5410 C   0  0  0  0  0  0  0  0  0  0  0  0
   37.0590   27.2280   34.1700 C   0  0  0  0  0  0  0  0  0  0  0  0
   37.8690   27.4890   35.2810 C   0  0  0  0  0  0  0  0  0  0  0  0
   38.8120   26.5890   35.6800 N   0  0  0  0  0  0  0  0  0  0  0  0
   39.0140   25.4150   35.0370 C   0  0  0  0  0  0  0  0  0  0  0  0
   38.2370   25.1410   33.9530 N   0  0  0  0  0  0  0  0  0  0  0  0
   36.3350   27.9490   33.8840 H   0  0  0  0  0  0  0  0  0  0  0  0
   37.7400   28.4260   35.8280 H   0  0  0  0  0  0  0  0  0  0  0  0
   41.2790   24.5420   34.9040 C   0  0  0  0  0  0  0  0  0  0  0  0
   40.0300   24.4540   35.4750 C   0  0  0  0  0  0  0  0  0  0  0  0
   39.7810   23.4800   36.4180 C   0  0  0  0  0  0  0  0  0  0  0  0
   40.7340   22.5660   36.8320 C   0  0  0  0  0  0  0  0  0  0  0  0
   40.7420   21.5400   37.7110 N   0  0  0  0  0  0  0  0  0  0  0  0
   41.9930   21.0280   37.6570 C   0  0  0  0  0  0  0  0  0  0  0  0
   42.7420   21.7100   36.7720 N   0  0  0  0  0  0  0  0  0  0  0  0
   41.9840   22.6880   36.2300 C   0  0  0  0  0  0  0  0  0  0  0  0
   42.2620   23.6470   35.2900 C   0  0  0  0  0  0  0  0  0  0  0  0
   41.5920   25.2610   34.1560 H   0  0  0  0  0  0  0  0  0  0  0  0
   38.7950   23.4070   36.8720 H   0  0  0  0  0  0  0  0  0  0  0  0
   39.9340   21.2220   38.3060 H   0  0  0  0  0  0  0  0  0  0  0  0
   42.3780   20.1910   38.2240 H   0  0  0  0  0  0  0  0  0  0  0  0
   43.2600   23.6780   34.8670 H   0  0  0  0  0  0  0  0  0  0  0  0
   36.4320   25.6940   32.3440 C   0  0  1  0  0  0  0  0  0  0  0  0
   36.9760   25.7060   31.0060 C   0  0  2  0  0  0  0  0  0  0  0  0
   36.7970   24.3520   31.7310 C   0  0  2  0  0  0  0  0  0  0  0  0
   35.3670   25.9840   32.4980 H   0  0  0  0  0  0  0  0  0  0  0  0
   36.2860   25.5130   30.1080 H   0  0  0  0  0  0  0  0  0  0  0  0
   37.7120   23.8500   32.0420 H   0  0  0  0  0  0  0  0  0  0  0  0
   38.2710   26.0480   30.8140 O   0  0  0  0  0  0  0  0  0  0  0  0
   38.9660   27.0710   30.3260 C   0  0  0  0  0  0  0  0  0  0  0  0
   39.7920   27.5940   31.1380 O   0  0  0  0  0  0  0  0  0  0  0  0
   38.6960   27.4150   29.0250 N   0  0  0  0  0  0  0  0  0  0  0  0
   39.1720   27.1450   28.1420 H   0  0  0  0  0  0  0  0  0  0  0  0
   37.8680   28.0620   28.8660 H   0  0  0  0  0  0  0  0  0  0  0  0
   35.6230   23.4760   31.4700 C   0  0  0  0  0  2  0  0  0  0  0  0
   35.8430   22.0190   31.6980 C   0  0  0  0  0  2  0  0  0  0  0  0
   36.5510   21.8780   32.5360 H   0  0  0  0  0  0  0  0  0  0  0  0
  1  6  2  0  0  0  0
  1  2  1  0  0  0  0
  2  3  2  0  0  0  0
  3  4  1  0  0  0  0
  3  8  1  0  0  0  0
  5 10  1  0  0  0  0
  5  4  2  0  0  0  0
  6  5  1  0  0  0  0
  7  2  1  0  0  0  0
  9 17  2  0  0  0  0
  9 10  1  0  0  0  0
 10 11  2  0  0  0  0
 11 12  1  0  0  0  0
 11 19  1  0  0  0  0
 12 13  1  0  0  0  0
 13 20  1  0  0  0  0
 14 13  1  0  0  0  0
 14 21  1  0  0  0  0
 15 14  2  0  0  0  0
 16 15  1  0  0  0  0
 16 12  2  0  0  0  0
 17 16  1  0  0  0  0
 18  9  1  0  0  0  0
 22 17  1  0  0  0  0
 23 26  1  1  0  0  0
 23  1  1  0  0  0  0
 24 27  1  6  0  0  0
 24 25  1  0  0  0  0
 24 23  1  0  0  0  0
 25 28  1  1  0  0  0
 25 23  1  0  0  0  0
 29 24  1  0  0  0  0
 30 29  1  0  0  0  0
 30 31  2  0  0  0  0
 32 30  1  0  0  0  0
 33 32  1  0  0  0  0
 34 32  1  0  0  0  0
 35 36  1  0  0  0  0
 35 25  1  0  0  0  0
 36 37  1  0  0  0  0
M  END
>  <minimizedAffinity>
-5.48122597

$$$$

 OpenBabel03272507223D

 37 40  0  0  1  0  0  0  0  0999 V2000
   35.2960   30.1110   33.2650 C   0  0  0  0  0  0  0  0  0  0  0  0
   35.2630   30.1350   31.8910 C   0  0  0  0  0  0  0  0  0  0  0  0
   35.9390   29.0860   31.2580 C   0  0  0  0  0  0  0  0  0  0  0  0
   36.5740   28.1270   31.9890 N   0  0  0  0  0  0  0  0  0  0  0  0
   36.5860   28.1340   33.3430 C   0  0  0  0  0  0  0  0  0  0  0  0
   35.9340   29.1460   33.9790 N   0  0  0  0  0  0  0  0  0  0  0  0
   34.7780   30.8660   31.2940 H   0  0  0  0  0  0  0  0  0  0  0  0
   35.9530   29.0420   30.1660 H   0  0  0  0  0  0  0  0  0  0  0  0
   37.7680   27.4490   35.3540 C   0  0  0  0  0  0  0  0  0  0  0  0
   37.2720   27.0990   34.1190 C   0  0  0  0  0  0  0  0  0  0  0  0
   37.4410   25.8090   33.6610 C   0  0  0  0  0  0  0  0  0  0  0  0
   38.0940   24.8280   34.3860 C   0  0  0  0  0  0  0  0  0  0  0  0
   38.3880   23.5270   34.1660 N   0  0  0  0  0  0  0  0  0  0  0  0
   39.0530   23.1160   35.2700 C   0  0  0  0  0  0  0  0  0  0  0  0
   39.1730   24.1260   36.1510 N   0  0  0  0  0  0  0  0  0  0  0  0
   38.5800   25.2240   35.6300 C   0  0  0  0  0  0  0  0  0  0  0  0
   38.4270   26.4980   36.1120 C   0  0  0  0  0  0  0  0  0  0  0  0
   37.6980   28.4260   35.8180 H   0  0  0  0  0  0  0  0  0  0  0  0
   37.0520   25.5270   32.6850 H   0  0  0  0  0  0  0  0  0  0  0  0
   38.1410   22.9680   33.3100 H   0  0  0  0  0  0  0  0  0  0  0  0
   39.4510   22.1290   35.4600 H   0  0  0  0  0  0  0  0  0  0  0  0
   38.8340   26.7290   37.0910 H   0  0  0  0  0  0  0  0  0  0  0  0
   34.5910   31.2310   33.9950 C   0  0  1  0  0  0  0  0  0  0  0  0
   33.3480   31.0030   34.6940 C   0  0  2  0  0  0  0  0  0  0  0  0
   34.6630   31.0680   35.5040 C   0  0  2  0  0  0  0  0  0  0  0  0
   34.7690   32.2220   33.5160 H   0  0  0  0  0  0  0  0  0  0  0  0
   32.7990   31.8850   35.1850 H   0  0  0  0  0  0  0  0  0  0  0  0
   35.0130   30.1270   35.9270 H   0  0  0  0  0  0  0  0  0  0  0  0
   32.7870   29.7720   34.6750 O   0  0  0  0  0  0  0  0  0  0  0  0
   31.7570   29.1600   34.0990 C   0  0  0  0  0  0  0  0  0  0  0  0
   30.8600   28.7500   34.9020 O   0  0  0  0  0  0  0  0  0  0  0  0
   31.8060   29.0570   32.7310 N   0  0  0  0  0  0  0  0  0  0  0  0
   31.3890   29.6580   31.9930 H   0  0  0  0  0  0  0  0  0  0  0  0
   32.3560   28.2370   32.3350 H   0  0  0  0  0  0  0  0  0  0  0  0
   35.0790   32.3050   36.2190 C   0  0  0  0  0  2  0  0  0  0  0  0
   36.2830   32.9930   35.6690 C   0  0  0  0  0  2  0  0  0  0  0  0
   36.3090   32.8700   34.5700 H   0  0  0  0  0  0  0  0  0  0  0  0
  1  6  1  0  0  0  0
  1 23  1  0  0  0  0
  2  1  2  0  0  0  0
  3  2  1  0  0  0  0
  3  4  2  0  0  0  0
  4  5  1  0  0  0  0
  5  6  2  0  0  0  0
  5 10  1  0  0  0  0
  7  2  1  0  0  0  0
  8  3  1  0  0  0  0
  9 18  1  0  0  0  0
  9 17  1  0  0  0  0
 10  9  2  0  0  0  0
 11 10  1  0  0  0  0
 11 12  2  0  0  0  0
 12 16  1  0  0  0  0
 13 12  1  0  0  0  0
 13 14  1  0  0  0  0
 14 21  1  0  0  0  0
 14 15  2  0  0  0  0
 16 17  2  0  0  0  0
 16 15  1  0  0  0  0
 17 22  1  0  0  0  0
 19 11  1  0  0  0  0
 20 13  1  0  0  0  0
 23 26  1  6  0  0  0
 23 24  1  0  0  0  0
 23 25  1  0  0  0  0
 24 27  1  1  0  0  0
 24 25  1  0  0  0  0
 25 28  1  1  0  0  0
 25 35  1  0  0  0  0
 29 24  1  0  0  0  0
 30 29  1  0  0  0  0
 30 31  2  0  0  0  0
 32 30  1  0  0  0  0
 33 32  1  0  0  0  0
 34 32  1  0  0  0  0
 36 35  1  0  0  0  0
 37 36  1  0  0  0  0
M  END
>  <minimizedAffinity>
-5.45970678

$$$$

 OpenBabel03272507223D

 37 40  0  0  1  0  0  0  0  0999 V2000
   38.3700   26.7250   33.3050 C   0  0  0  0  0  0  0  0  0  0  0  0
   37.5880   27.4200   34.1970 C   0  0  0  0  0  0  0  0  0  0  0  0
   37.7350   27.0470   35.5380 C   0  0  0  0  0  0  0  0  0  0  0  0
   38.6040   26.0600   35.8930 N   0  0  0  0  0  0  0  0  0  0  0  0
   39.3600   25.3950   34.9880 C   0  0  0  0  0  0  0  0  0  0  0  0
   39.2330   25.7420   33.6770 N   0  0  0  0  0  0  0  0  0  0  0  0
   36.9040   28.1930   33.9530 H   0  0  0  0  0  0  0  0  0  0  0  0
   37.1450   27.5580   36.3020 H   0  0  0  0  0  0  0  0  0  0  0  0
   41.4600   24.2120   34.6640 C   0  0  0  0  0  0  0  0  0  0  0  0
   40.2910   24.3340   35.3810 C   0  0  0  0  0  0  0  0  0  0  0  0
   40.0390   23.4660   36.4220 C   0  0  0  0  0  0  0  0  0  0  0  0
   40.9100   22.4580   36.7950 C   0  0  0  0  0  0  0  0  0  0  0  0
   40.8960   21.4990   37.7470 N   0  0  0  0  0  0  0  0  0  0  0  0
   42.0540   20.8180   37.5900 C   0  0  0  0  0  0  0  0  0  0  0  0
   42.7680   21.3320   36.5720 N   0  0  0  0  0  0  0  0  0  0  0  0
   42.0810   22.3680   36.0450 C   0  0  0  0  0  0  0  0  0  0  0  0
   42.3590   23.2180   35.0040 C   0  0  0  0  0  0  0  0  0  0  0  0
   41.7660   24.8320   33.8300 H   0  0  0  0  0  0  0  0  0  0  0  0
   39.1160   23.5580   36.9910 H   0  0  0  0  0  0  0  0  0  0  0  0
   40.1350   21.3350   38.4550 H   0  0  0  0  0  0  0  0  0  0  0  0
   42.3970   19.9740   38.1740 H   0  0  0  0  0  0  0  0  0  0  0  0
   43.2930   23.0840   34.4680 H   0  0  0  0  0  0  0  0  0  0  0  0
   38.2380   27.0810   31.8420 C   0  0  1  0  0  0  0  0  0  0  0  0
   37.2370   26.4580   31.0080 C   0  0  2  0  0  0  0  0  0  0  0  0
   36.9770   27.8790   31.5570 C   0  0  2  0  0  0  0  0  0  0  0  0
   39.2150   27.3720   31.3910 H   0  0  0  0  0  0  0  0  0  0  0  0
   37.2010   26.6970   29.8850 H   0  0  0  0  0  0  0  0  0  0  0  0
   36.2090   27.9630   32.3250 H   0  0  0  0  0  0  0  0  0  0  0  0
   36.4200   25.5170   31.5350 O   0  0  0  0  0  0  0  0  0  0  0  0
   35.4520   24.7020   31.1280 C   0  0  0  0  0  0  0  0  0  0  0  0
   34.5170   25.2640   30.4750 O   0  0  0  0  0  0  0  0  0  0  0  0
   35.5970   23.3800   31.4670 N   0  0  0  0  0  0  0  0  0  0  0  0
   35.9920   22.5830   30.9280 H   0  0  0  0  0  0  0  0  0  0  0  0
   35.2600   23.0970   32.4340 H   0  0  0  0  0  0  0  0  0  0  0  0
   37.2120   29.0920   30.7280 C   0  0  0  0  0  2  0  0  0  0  0  0
   36.0900   30.0730   30.6880 C   0  0  0  0  0  2  0  0  0  0  0  0
   35.5670   30.0770   31.6640 H   0  0  0  0  0  0  0  0  0  0  0  0
  1  6  2  0  0  0  0
  1  2  1  0  0  0  0
  2  3  2  0  0  0  0
  3  4  1  0  0  0  0
  3  8  1  0  0  0  0
  5 10  1  0  0  0  0
  5  4  2  0  0  0  0
  6  5  1  0  0  0  0
  7  2  1  0  0  0  0
  9 17  2  0  0  0  0
  9 10  1  0  0  0  0
 10 11  2  0  0  0  0
 11 12  1  0  0  0  0
 11 19  1  0  0  0  0
 12 13  1  0  0  0  0
 13 20  1  0  0  0  0
 14 13  1  0  0  0  0
 14 21  1  0  0  0  0
 15 14  2  0  0  0  0
 16 15  1  0  0  0  0
 16 12  2  0  0  0  0
 17 16  1  0  0  0  0
 18  9  1  0  0  0  0
 22 17  1  0  0  0  0
 23 26  1  6  0  0  0
 23  1  1  0  0  0  0
 24 27  1  6  0  0  0
 24 29  1  0  0  0  0
 24 25  1  0  0  0  0
 24 23  1  0  0  0  0
 25 23  1  0  0  0  0
 25 28  1  1  0  0  0
 30 32  1  0  0  0  0
 30 29  1  0  0  0  0
 31 30  2  0  0  0  0
 32 34  1  0  0  0  0
 33 32  1  0  0  0  0
 35 25  1  0  0  0  0
 36 35  1  0  0  0  0
 36 37  1  0  0  0  0
M  END
>  <minimizedAffinity>
-5.41032457

$$$$

 OpenBabel03272507223D

 37 40  0  0  1  0  0  0  0  0999 V2000
   34.3720   29.8450   33.2950 C   0  0  0  0  0  0  0  0  0  0  0  0
   34.7100   30.3540   32.0630 C   0  0  0  0  0  0  0  0  0  0  0  0
   35.8850   29.8400   31.5050 C   0  0  0  0  0  0  0  0  0  0  0  0
   36.6170   28.9010   32.1690 N   0  0  0  0  0  0  0  0  0  0  0  0
   36.2540   28.4210   33.3820 C   0  0  0  0  0  0  0  0  0  0  0  0
   35.1130   28.9070   33.9430 N   0  0  0  0  0  0  0  0  0  0  0  0
   34.1620   31.0840   31.5210 H   0  0  0  0  0  0  0  0  0  0  0  0
   36.2140   30.2000   30.5270 H   0  0  0  0  0  0  0  0  0  0  0  0
   37.6440   27.7800   35.2710 C   0  0  0  0  0  0  0  0  0  0  0  0
   37.0490   27.4110   34.0870 C   0  0  0  0  0  0  0  0  0  0  0  0
   37.2220   26.1290   33.6100 C   0  0  0  0  0  0  0  0  0  0  0  0
   37.9760   25.1730   34.2670 C   0  0  0  0  0  0  0  0  0  0  0  0
   38.2970   23.8840   34.0160 N   0  0  0  0  0  0  0  0  0  0  0  0
   39.0770   23.4980   35.0520 C   0  0  0  0  0  0  0  0  0  0  0  0
   39.2410   24.5130   35.9210 N   0  0  0  0  0  0  0  0  0  0  0  0
   38.5610   25.5870   35.4620 C   0  0  0  0  0  0  0  0  0  0  0  0
   38.4060   26.8550   35.9610 C   0  0  0  0  0  0  0  0  0  0  0  0
   37.5810   28.7540   35.7430 H   0  0  0  0  0  0  0  0  0  0  0  0
   36.7540   25.8330   32.6740 H   0  0  0  0  0  0  0  0  0  0  0  0
   37.9920   23.3170   33.1840 H   0  0  0  0  0  0  0  0  0  0  0  0
   39.5280   22.5270   35.2000 H   0  0  0  0  0  0  0  0  0  0  0  0
   38.8940   27.1000   36.8980 H   0  0  0  0  0  0  0  0  0  0  0  0
   33.1160   30.3780   33.9460 C   0  0  1  0  0  0  0  0  0  0  0  0
   33.1750   31.4340   34.9290 C   0  0  2  0  0  0  0  0  0  0  0  0
   32.7780   31.7830   33.4770 C   0  0  2  0  0  0  0  0  0  0  0  0
   32.3260   29.5970   34.0350 H   0  0  0  0  0  0  0  0  0  0  0  0
   32.2130   31.7760   35.4570 H   0  0  0  0  0  0  0  0  0  0  0  0
   33.5120   32.3490   32.9030 H   0  0  0  0  0  0  0  0  0  0  0  0
   34.3750   31.9390   35.2980 O   0  0  0  0  0  0  0  0  0  0  0  0
   35.2410   31.8100   36.2980 C   0  0  0  0  0  0  0  0  0  0  0  0
   36.3480   31.2710   35.9820 O   0  0  0  0  0  0  0  0  0  0  0  0
   34.8220   32.2740   37.5200 N   0  0  0  0  0  0  0  0  0  0  0  0
   34.9810   33.1890   37.9860 H   0  0  0  0  0  0  0  0  0  0  0  0
   34.2360   31.6080   38.1060 H   0  0  0  0  0  0  0  0  0  0  0  0
   31.3570   31.9520   33.0740 C   0  0  0  0  0  2  0  0  0  0  0  0
   31.0480   31.6350   31.6500 C   0  0  0  0  0  2  0  0  0  0  0  0
   31.6990   30.8090   31.3050 H   0  0  0  0  0  0  0  0  0  0  0  0
  1  6  1  0  0  0  0
  1 23  1  0  0  0  0
  2  1  2  0  0  0  0
  3  2  1  0  0  0  0
  3  4  2  0  0  0  0
  4  5  1  0  0  0  0
  5  6  2  0  0  0  0
  5 10  1  0  0  0  0
  7  2  1  0  0  0  0
  8  3  1  0  0  0  0
  9 18  1  0  0  0  0
  9 17  1  0  0  0  0
 10  9  2  0  0  0  0
 11 10  1  0  0  0  0
 11 12  2  0  0  0  0
 12 16  1  0  0  0  0
 13 12  1  0  0  0  0
 13 14  1  0  0  0  0
 14 21  1  0  0  0  0
 14 15  2  0  0  0  0
 16 15  1  0  0  0  0
 16 17  2  0  0  0  0
 17 22  1  0  0  0  0
 19 11  1  0  0  0  0
 20 13  1  0  0  0  0
 23 26  1  1  0  0  0
 23 24  1  0  0  0  0
 24 29  1  0  0  0  0
 24 27  1  1  0  0  0
 25 28  1  6  0  0  0
 25 23  1  0  0  0  0
 25 24  1  0  0  0  0
 29 30  1  0  0  0  0
 30 32  1  0  0  0  0
 31 30  2  0  0  0  0
 32 33  1  0  0  0  0
 32 34  1  0  0  0  0
 35 25  1  0  0  0  0
 36 35  1  0  0  0  0
 37 36  1  0  0  0  0
M  END
>  <minimizedAffinity>
-5.3502965

$$$$

 OpenBabel03272507223D

 37 40  0  0  1  0  0  0  0  0999 V2000
   37.6880   25.8280   33.4300 C   0  0  0  0  0  0  0  0  0  0  0  0
   36.8930   26.7230   32.7520 C   0  0  0  0  0  0  0  0  0  0  0  0
   36.0450   26.1620   31.7920 C   0  0  0  0  0  0  0  0  0  0  0  0
   36.0370   24.8170   31.5730 N   0  0  0  0  0  0  0  0  0  0  0  0
   36.8330   23.9630   32.2590 C   0  0  0  0  0  0  0  0  0  0  0  0
   37.6660   24.4880   33.1990 N   0  0  0  0  0  0  0  0  0  0  0  0
   36.8760   27.7740   32.9000 H   0  0  0  0  0  0  0  0  0  0  0  0
   35.3850   26.8150   31.2160 H   0  0  0  0  0  0  0  0  0  0  0  0
   37.5880   22.0370   30.9820 C   0  0  0  0  0  0  0  0  0  0  0  0
   36.8160   22.5190   32.0150 C   0  0  0  0  0  0  0  0  0  0  0  0
   36.0620   21.6420   32.7660 C   0  0  0  0  0  0  0  0  0  0  0  0
   36.0360   20.2780   32.5370 C   0  0  0  0  0  0  0  0  0  0  0  0
   35.3970   19.2340   33.1090 N   0  0  0  0  0  0  0  0  0  0  0  0
   35.7940   18.1430   32.4160 C   0  0  0  0  0  0  0  0  0  0  0  0
   36.6530   18.4920   31.4400 N   0  0  0  0  0  0  0  0  0  0  0  0
   36.8310   19.8310   31.4840 C   0  0  0  0  0  0  0  0  0  0  0  0
   37.5920   20.6790   30.7190 C   0  0  0  0  0  0  0  0  0  0  0  0
   38.2190   22.6250   30.3260 H   0  0  0  0  0  0  0  0  0  0  0  0
   35.4500   22.0180   33.5820 H   0  0  0  0  0  0  0  0  0  0  0  0
   34.7340   19.2810   33.9240 H   0  0  0  0  0  0  0  0  0  0  0  0
   35.4900   17.1190   32.5840 H   0  0  0  0  0  0  0  0  0  0  0  0
   38.1850   20.2540   29.9170 H   0  0  0  0  0  0  0  0  0  0  0  0
   38.6320   26.3870   34.4690 C   0  0  1  0  0  0  0  0  0  0  0  0
   38.7050   25.8200   35.7950 C   0  0  2  0  0  0  0  0  0  0  0  0
   39.7900   25.4470   34.7590 C   0  0  2  0  0  0  0  0  0  0  0  0
   38.8010   27.4810   34.3370 H   0  0  0  0  0  0  0  0  0  0  0  0
   39.3830   26.3060   36.5870 H   0  0  0  0  0  0  0  0  0  0  0  0
   39.7590   24.4250   34.3810 H   0  0  0  0  0  0  0  0  0  0  0  0
   37.8960   24.7880   36.1270 O   0  0  0  0  0  0  0  0  0  0  0  0
   37.6790   23.9910   37.1680 C   0  0  0  0  0  0  0  0  0  0  0  0
   37.1510   22.8700   36.8840 O   0  0  0  0  0  0  0  0  0  0  0  0
   38.0520   24.4860   38.3930 N   0  0  0  0  0  0  0  0  0  0  0  0
   38.9270   24.3510   38.9380 H   0  0  0  0  0  0  0  0  0  0  0  0
   37.3510   25.1150   38.8850 H   0  0  0  0  0  0  0  0  0  0  0  0
   41.1190   26.1130   34.7440 C   0  0  0  0  0  2  0  0  0  0  0  0
   41.3290   27.1080   33.6530 C   0  0  0  0  0  2  0  0  0  0  0  0
   40.3730   27.6190   33.4290 H   0  0  0  0  0  0  0  0  0  0  0  0
  1 23  1  0  0  0  0
  2  7  1  0  0  0  0
  2  1  2  0  0  0  0
  3  2  1  0  0  0  0
  4  3  2  0  0  0  0
  4  5  1  0  0  0  0
  5  6  2  0  0  0  0
  6  1  1  0  0  0  0
  8  3  1  0  0  0  0
  9 10  1  0  0  0  0
 10  5  1  0  0  0  0
 10 11  2  0  0  0  0
 11 19  1  0  0  0  0
 12 11  1  0  0  0  0
 12 13  1  0  0  0  0
 13 20  1  0  0  0  0
 14 21  1  0  0  0  0
 14 13  1  0  0  0  0
 15 16  1  0  0  0  0
 15 14  2  0  0  0  0
 16 12  2  0  0  0  0
 17  9  2  0  0  0  0
 17 16  1  0  0  0  0
 18  9  1  0  0  0  0
 22 17  1  0  0  0  0
 23 26  1  6  0  0  0
 23 25  1  0  0  0  0
 23 24  1  0  0  0  0
 24 29  1  0  0  0  0
 24 27  1  1  0  0  0
 25 28  1  6  0  0  0
 25 24  1  0  0  0  0
 29 30  1  0  0  0  0
 30 32  1  0  0  0  0
 31 30  2  0  0  0  0
 32 34  1  0  0  0  0
 32 33  1  0  0  0  0
 35 25  1  0  0  0  0
 36 35  1  0  0  0  0
 37 36  1  0  0  0  0
M  END
>  <minimizedAffinity>
-5.34430647

$$$$

 OpenBabel03272507223D

 37 40  0  0  1  0  0  0  0  0999 V2000
   38.0370   24.5790   33.6090 C   0  0  0  0  0  0  0  0  0  0  0  0
   38.2170   23.9260   32.4130 C   0  0  0  0  0  0  0  0  0  0  0  0
   37.7700   24.6160   31.2810 C   0  0  0  0  0  0  0  0  0  0  0  0
   37.2020   25.8490   31.3980 N   0  0  0  0  0  0  0  0  0  0  0  0
   37.0390   26.4650   32.5940 C   0  0  0  0  0  0  0  0  0  0  0  0
   37.4670   25.8100   33.7080 N   0  0  0  0  0  0  0  0  0  0  0  0
   38.6560   22.9680   32.2880 H   0  0  0  0  0  0  0  0  0  0  0  0
   37.8820   24.1570   30.2960 H   0  0  0  0  0  0  0  0  0  0  0  0
   36.2430   28.3010   33.9730 C   0  0  0  0  0  0  0  0  0  0  0  0
   36.4260   27.7900   32.7080 C   0  0  0  0  0  0  0  0  0  0  0  0
   36.0280   28.5270   31.6130 C   0  0  0  0  0  0  0  0  0  0  0  0
   35.4420   29.7770   31.7140 C   0  0  0  0  0  0  0  0  0  0  0  0
   34.9720   30.6760   30.8230 N   0  0  0  0  0  0  0  0  0  0  0  0
   34.5150   31.7130   31.5620 C   0  0  0  0  0  0  0  0  0  0  0  0
   34.6920   31.4690   32.8730 N   0  0  0  0  0  0  0  0  0  0  0  0
   35.2750   30.2580   33.0110 C   0  0  0  0  0  0  0  0  0  0  0  0
   35.6610   29.5480   34.1190 C   0  0  0  0  0  0  0  0  0  0  0  0
   36.5130   27.8180   34.9040 H   0  0  0  0  0  0  0  0  0  0  0  0
   36.1710   28.1270   30.6120 H   0  0  0  0  0  0  0  0  0  0  0  0
   34.9710   30.5740   29.7760 H   0  0  0  0  0  0  0  0  0  0  0  0
   34.0630   32.6240   31.1950 H   0  0  0  0  0  0  0  0  0  0  0  0
   35.4970   29.9910   35.0950 H   0  0  0  0  0  0  0  0  0  0  0  0
   38.4910   23.8680   34.8630 C   0  0  1  0  0  0  0  0  0  0  0  0
   39.6860   24.2780   35.5640 C   0  0  2  0  0  0  0  0  0  0  0  0
   38.3080   24.7230   36.1060 C   0  0  2  0  0  0  0  0  0  0  0  0
   38.2060   22.7900   34.8610 H   0  0  0  0  0  0  0  0  0  0  0  0
   40.0450   23.6790   36.4760 H   0  0  0  0  0  0  0  0  0  0  0  0
   38.0710   25.7810   36.0010 H   0  0  0  0  0  0  0  0  0  0  0  0
   40.4300   25.2970   35.0770 O   0  0  0  0  0  0  0  0  0  0  0  0
   41.5700   25.4670   34.4160 C   0  0  0  0  0  0  0  0  0  0  0  0
   41.8270   24.5700   33.5520 O   0  0  0  0  0  0  0  0  0  0  0  0
   42.3040   26.5760   34.7560 N   0  0  0  0  0  0  0  0  0  0  0  0
   42.3390   27.5210   34.3250 H   0  0  0  0  0  0  0  0  0  0  0  0
   42.9480   26.4810   35.5960 H   0  0  0  0  0  0  0  0  0  0  0  0
   37.6430   24.0090   37.2290 C   0  0  0  0  0  2  0  0  0  0  0  0
   37.9390   24.5340   38.5930 C   0  0  0  0  0  2  0  0  0  0  0  0
   38.0740   25.6310   38.5450 H   0  0  0  0  0  0  0  0  0  0  0  0
  1  6  1  0  0  0  0
  1 23  1  0  0  0  0
  2  1  2  0  0  0  0
  3  4  2  0  0  0  0
  3  2  1  0  0  0  0
  4  5  1  0  0  0  0
  5 10  1  0  0  0  0
  5  6  2  0  0  0  0
  7  2  1  0  0  0  0
  8  3  1  0  0  0  0
  9 17  1  0  0  0  0
  9 18  1  0  0  0  0
 10  9  2  0  0  0  0
 11 12  2  0  0  0  0
 11 10  1  0  0  0  0
 12 16  1  0  0  0  0
 13 14  1  0  0  0  0
 13 12  1  0  0  0  0
 14 15  2  0  0  0  0
 15 16  1  0  0  0  0
 16 17  2  0  0  0  0
 17 22  1  0  0  0  0
 19 11  1  0  0  0  0
 20 13  1  0  0  0  0
 21 14  1  0  0  0  0
 23 26  1  1  0  0  0
 23 24  1  0  0  0  0
 23 25  1  0  0  0  0
 24 25  1  0  0  0  0
 24 27  1  1  0  0  0
 25 28  1  6  0  0  0
 25 35  1  0  0  0  0
 29 24  1  0  0  0  0
 30 32  1  0  0  0  0
 30 29  1  0  0  0  0
 31 30  2  0  0  0  0
 32 34  1  0  0  0  0
 33 32  1  0  0  0  0
 35 36  1  0  0  0  0
 37 36  1  0  0  0  0
M  END
>  <minimizedAffinity>
-5.26957607

$$$$
