REMARK  Name = 
REMARK  4 active torsions:
REMARK  status: ('A' for Active; 'I' for Inactive)
REMARK    1  A    between atoms: C_3  and  C_12
REMARK    2  A    between atoms: C_5  and  C_14
REMARK    3  A    between atoms: C_18  and  C_28
REMARK    4  A    between atoms: C_28  and  C_29
REMARK                            x       y       z     vdW  Elec       q    Type
REMARK                         _______ _______ _______ _____ _____    ______ ____
ROOT
ATOM      1 BR   UNL     1      37.317  29.339  51.029  0.00  0.00    +0.000 Br
ATOM      2  C   UNL     1      35.964  29.330  49.680  0.00  0.00    +0.000 A 
ATOM      3  C   UNL     1      35.991  30.258  48.631  0.00  0.00    +0.000 A 
ATOM      4  C   UNL     1      34.988  30.189  47.702  0.00  0.00    +0.000 A 
ATOM      5  C   UNL     1      33.970  29.268  47.747  0.00  0.00    +0.000 A 
ATOM      6  C   UNL     1      33.960  28.368  48.780  0.00  0.00    +0.000 A 
ATOM      7  C   UNL     1      34.957  28.411  49.732  0.00  0.00    +0.000 A 
ATOM      8  H   UNL     1      34.943  30.878  46.859  0.00  0.00    +0.000 HD
ATOM      9  H   UNL     1      33.166  27.629  48.838  0.00  0.00    +0.000 HD
ATOM     10  H   UNL     1      34.898  27.671  50.531  0.00  0.00    +0.000 HD
ENDROOT
BRANCH   3  15
ATOM     11  C   UNL     1      37.988  33.193  49.457  0.00  0.00    +0.000 A 
ATOM     12  C   UNL     1      39.022  33.178  48.486  0.00  0.00    +0.000 A 
ATOM     13  C   UNL     1      39.012  32.143  47.551  0.00  0.00    +0.000 A 
ATOM     14  N   UNL     1      38.015  31.196  47.612  0.00  0.00    +0.000 NA
ATOM     15  C   UNL     1      37.053  31.248  48.550  0.00  0.00    +0.000 A 
ATOM     16  N   UNL     1      37.042  32.256  49.478  0.00  0.00    +0.000 NA
ATOM     17  H   UNL     1      37.945  33.975  50.209  0.00  0.00    +0.000 HD
ATOM     18  H   UNL     1      39.776  33.938  48.480  0.00  0.00    +0.000 HD
ATOM     19  H   UNL     1      39.767  32.072  46.787  0.00  0.00    +0.000 HD
ENDBRANCH   3  15
BRANCH   5  20
ATOM     20  C   UNL     1      32.901  29.197  46.754  0.00  0.00    +0.000 A 
ATOM     21  C   UNL     1      32.265  28.046  46.358  0.00  0.00    +0.000 A 
ATOM     22  C   UNL     1      31.256  28.028  45.413  0.00  0.00    +0.000 A 
ATOM     23  N   UNL     1      30.873  29.170  44.852  0.00  0.00    +0.000 NA
ATOM     24  C   UNL     1      31.483  30.319  45.222  0.00  0.00    +0.000 A 
ATOM     25  N   UNL     1      32.459  30.311  46.142  0.00  0.00    +0.000 NA
ATOM     26  H   UNL     1      32.582  27.107  46.822  0.00  0.00    +0.000 HD
ATOM     27  H   UNL     1      30.777  27.095  45.127  0.00  0.00    +0.000 HD
BRANCH  24  28
ATOM     28  C   UNL     1      31.088  31.622  44.622  0.00  0.00    +0.000 C 
BRANCH  28  29
ATOM     29  C   UNL     1      32.124  32.706  44.898  0.00  0.00    +0.000 C 
ATOM     30  H   UNL     1      31.641  33.680  44.686  0.00  0.00    +0.000 HD
ENDBRANCH  28  29
ENDBRANCH  24  28
ENDBRANCH   5  20
TORSDOF 4
