
 OpenBabel03272505143D

 22 23  0  0  0  0  0  0  0  0999 V2000
   36.5610   32.0110   50.1570 Cl  0  0  0  0  0  0  0  0  0  0  0  0
   37.4580   31.7360   48.6850 C   0  0  0  0  0  0  0  0  0  0  0  0
   37.0850   30.7440   47.8190 C   0  0  0  0  0  0  0  0  0  0  0  0
   37.8470   30.5960   46.6920 C   0  0  0  0  0  0  0  0  0  0  0  0
   38.9340   31.3590   46.3820 C   0  0  0  0  0  0  0  0  0  0  0  0
   39.2880   32.3510   47.2750 C   0  0  0  0  0  0  0  0  0  0  0  0
   38.5500   32.5530   48.4430 C   0  0  0  0  0  0  0  0  0  0  0  0
   37.5650   29.8120   45.9900 H   0  0  0  0  0  0  0  0  0  0  0  0
   39.5150   31.2110   45.4770 H   0  0  0  0  0  0  0  0  0  0  0  0
   40.1560   32.9870   47.0650 H   0  0  0  0  0  0  0  0  0  0  0  0
   34.7770   28.2640   49.5070 C   0  0  0  0  0  0  0  0  0  0  0  0
   35.9180   29.0290   49.2150 C   0  0  0  0  0  0  0  0  0  0  0  0
   35.9280   29.9380   48.1560 C   0  0  0  0  0  0  0  0  0  0  0  0
   34.7690   30.0150   47.4500 N   0  0  0  0  0  0  0  0  0  0  0  0
   33.6900   29.2840   47.7360 C   0  0  0  0  0  0  0  0  0  0  0  0
   33.6800   28.4110   48.7500 N   0  0  0  0  0  0  0  0  0  0  0  0
   34.8320   27.5740   50.3420 H   0  0  0  0  0  0  0  0  0  0  0  0
   36.8420   28.9650   49.7770 H   0  0  0  0  0  0  0  0  0  0  0  0
   32.7660   29.3490   47.1730 H   0  0  0  0  0  0  0  0  0  0  0  0
   38.9210   33.6170   49.4180 C   0  0  0  0  0  0  0  0  0  0  0  0
   39.8770   34.6120   48.8110 C   0  0  0  0  0  0  0  0  0  0  0  0
   39.5290   34.8520   47.7960 H   0  0  0  0  0  0  0  0  0  0  0  0
  2  1  1  0  0  0  0
  3 13  1  0  0  0  0
  3  2  2  0  0  0  0
  4  3  1  0  0  0  0
  5  4  2  0  0  0  0
  5  6  1  0  0  0  0
  6  7  2  0  0  0  0
  7  2  1  0  0  0  0
  7 20  1  0  0  0  0
  8  4  1  0  0  0  0
  9  5  1  0  0  0  0
 10  6  1  0  0  0  0
 11 17  1  0  0  0  0
 12 11  1  0  0  0  0
 12 18  1  0  0  0  0
 13 12  2  0  0  0  0
 14 15  2  0  0  0  0
 14 13  1  0  0  0  0
 15 16  1  0  0  0  0
 16 11  2  0  0  0  0
 19 15  1  0  0  0  0
 21 20  1  0  0  0  0
 22 21  1  0  0  0  0
M  END
>  <minimizedAffinity>
-5.66629791

>  <minimizedRMSD>
2.17111969

$$$$
