REMARK  Name = 
REMARK  3 active torsions:
REMARK  status: ('A' for Active; 'I' for Inactive)
REMARK    1  A    between atoms: C_5  and  C_7
REMARK    2  A    between atoms: C_12  and  C_20
REMARK    3  A    between atoms: C_20  and  C_21
REMARK                            x       y       z     vdW  Elec       q    Type
REMARK                         _______ _______ _______ _____ _____    ______ ____
ROOT
ATOM      1  C   UNL     1      36.092  30.133  48.606  0.00  0.00    +0.000 A 
ATOM      2  C   UNL     1      35.281  29.953  47.509  0.00  0.00    +0.000 A 
ATOM      3  C   UNL     1      34.297  28.981  47.502  0.00  0.00    +0.000 A 
ATOM      4  C   UNL     1      34.152  28.194  48.630  0.00  0.00    +0.000 A 
ATOM      5  C   UNL     1      34.956  28.361  49.734  0.00  0.00    +0.000 A 
ATOM      6  C   UNL     1      35.947  29.340  49.742  0.00  0.00    +0.000 A 
ATOM      7  H   UNL     1      35.348  30.538  46.597  0.00  0.00    +0.000 HD
ATOM      8  H   UNL     1      33.640  28.808  46.664  0.00  0.00    +0.000 HD
ATOM      9  H   UNL     1      33.413  27.399  48.737  0.00  0.00    +0.000 HD
ATOM     10  H   UNL     1      34.883  27.772  50.641  0.00  0.00    +0.000 HD
ENDROOT
BRANCH   1  15
ATOM     11  C   UNL     1      38.008  33.102  49.480  0.00  0.00    +0.000 A 
ATOM     12  C   UNL     1      38.975  33.211  48.466  0.00  0.00    +0.000 A 
ATOM     13  C   UNL     1      38.951  32.221  47.457  0.00  0.00    +0.000 A 
ATOM     14  N   UNL     1      38.016  31.248  47.530  0.00  0.00    +0.000 NA
ATOM     15  C   UNL     1      37.101  31.180  48.526  0.00  0.00    +0.000 A 
ATOM     16  N   UNL     1      37.109  32.113  49.493  0.00  0.00    +0.000 NA
ATOM     17  H   UNL     1      37.956  33.825  50.298  0.00  0.00    +0.000 HD
ATOM     18  H   UNL     1      39.683  34.005  48.471  0.00  0.00    +0.000 HD
ATOM     19  H   UNL     1      39.677  32.265  46.657  0.00  0.00    +0.000 HD
ENDBRANCH   1  15
BRANCH   6  20
ATOM     20  C   UNL     1      36.821  29.533  50.925  0.00  0.00    +0.000 C 
BRANCH  20  21
ATOM     21  C   UNL     1      37.840  30.612  50.757  0.00  0.00    +0.000 C 
ATOM     22  H   UNL     1      37.858  30.975  49.693  0.00  0.00    +0.000 HD
ENDBRANCH  20  21
ENDBRANCH   6  20
TORSDOF 3
