
 OpenBabel03272510333D

 22 23  0  0  0  0  0  0  0  0999 V2000
   35.9970   30.1820   48.6790 C   0  0  0  0  0  0  0  0  0  0  0  0
   35.2900   29.9580   47.5200 C   0  0  0  0  0  0  0  0  0  0  0  0
   34.3020   28.9920   47.4640 C   0  0  0  0  0  0  0  0  0  0  0  0
   34.0460   28.2560   48.6070 C   0  0  0  0  0  0  0  0  0  0  0  0
   34.7460   28.4670   49.7720 C   0  0  0  0  0  0  0  0  0  0  0  0
   35.7410   29.4400   49.8300 C   0  0  0  0  0  0  0  0  0  0  0  0
   35.4460   30.5020   46.5940 H   0  0  0  0  0  0  0  0  0  0  0  0
   33.7230   28.7860   46.5770 H   0  0  0  0  0  0  0  0  0  0  0  0
   33.2930   27.4700   48.6790 H   0  0  0  0  0  0  0  0  0  0  0  0
   34.5840   27.9190   50.6930 H   0  0  0  0  0  0  0  0  0  0  0  0
   37.8290   33.1980   49.5730 C   0  0  0  0  0  0  0  0  0  0  0  0
   38.9070   33.2380   48.6720 C   0  0  0  0  0  0  0  0  0  0  0  0
   38.9900   32.1830   47.7350 C   0  0  0  0  0  0  0  0  0  0  0  0
   38.0440   31.2190   47.7620 N   0  0  0  0  0  0  0  0  0  0  0  0
   37.0190   31.2190   48.6480 C   0  0  0  0  0  0  0  0  0  0  0  0
   36.9250   32.2140   49.5460 N   0  0  0  0  0  0  0  0  0  0  0  0
   37.6900   33.9740   50.3300 H   0  0  0  0  0  0  0  0  0  0  0  0
   39.6180   34.0290   48.7070 H   0  0  0  0  0  0  0  0  0  0  0  0
   39.8040   32.1720   47.0230 H   0  0  0  0  0  0  0  0  0  0  0  0
   36.5030   29.6800   51.0800 C   0  0  0  0  0  2  0  0  0  0  0  0
   37.7690   28.8930   51.1790 C   0  0  0  0  0  2  0  0  0  0  0  0
   37.8280   28.1360   50.3490 H   0  0  0  0  0  0  0  0  0  0  0  0
  1  6  1  0  0  0  0
  2  1  2  0  0  0  0
  3  2  1  0  0  0  0
  3  4  2  0  0  0  0
  4  9  1  0  0  0  0
  4  5  1  0  0  0  0
  5  6  2  0  0  0  0
  5 10  1  0  0  0  0
  6 20  1  0  0  0  0
  7  2  1  0  0  0  0
  8  3  1  0  0  0  0
 11 17  1  0  0  0  0
 12 18  1  0  0  0  0
 12 11  2  0  0  0  0
 13 14  2  0  0  0  0
 13 12  1  0  0  0  0
 14 15  1  0  0  0  0
 15  1  1  0  0  0  0
 15 16  2  0  0  0  0
 16 11  1  0  0  0  0
 19 13  1  0  0  0  0
 20 21  1  0  0  0  0
 22 21  1  0  0  0  0
M  END
>  <minimizedAffinity>
-5.4343214

>  <minimizedRMSD>
0.414032191

$$$$
