
 OpenBabel03272507363D

 13 13  0  0  0  0  0  0  0  0999 V2000
   36.8220   29.8460   51.2110 C   0  0  0  0  0  0  0  0  0  0  0  0
   37.1220   30.7080   50.1570 C   0  0  0  0  0  0  0  0  0  0  0  0
   36.1640   30.9240   49.1750 C   0  0  0  0  0  0  0  0  0  0  0  0
   34.9740   30.2820   49.2910 N   0  0  0  0  0  0  0  0  0  0  0  0
   34.6980   29.4480   50.3220 C   0  0  0  0  0  0  0  0  0  0  0  0
   35.6270   29.2440   51.2660 N   0  0  0  0  0  0  0  0  0  0  0  0
   36.3140   31.5810   48.3210 H   0  0  0  0  0  0  0  0  0  0  0  0
   33.7380   28.9530   50.3880 H   0  0  0  0  0  0  0  0  0  0  0  0
   37.8830   29.7370   52.1100 O   0  0  0  0  0  0  0  0  0  0  0  0
   38.3210   28.8080   52.1240 H   0  0  0  0  0  0  0  0  0  0  0  0
   38.3930   31.4280   49.9900 C   0  0  0  0  0  0  0  0  0  0  0  0
   38.1030   32.7680   49.3460 C   0  0  0  0  0  0  0  0  0  0  0  0
   37.4560   33.3300   50.0530 H   0  0  0  0  0  0  0  0  0  0  0  0
  1  6  1  0  0  0  0
  1  9  1  0  0  0  0
  2  1  2  0  0  0  0
  3  4  2  0  0  0  0
  3  2  1  0  0  0  0
  4  5  1  0  0  0  0
  5  8  1  0  0  0  0
  5  6  2  0  0  0  0
  7  3  1  0  0  0  0
  9 10  1  0  0  0  0
 11  2  1  0  0  0  0
 12 11  1  0  0  0  0
 12 13  1  0  0  0  0
M  END
>  <minimizedAffinity>
-4.26504135

>  <minimizedRMSD>
1.48621881

$$$$
