
 OpenBabel03272505423D

 39 41  0  0  0  0  0  0  0  0999 V2000
   37.9300   23.4160   33.6720 C   0  0  0  0  0  0  0  0  0  0  0  0
   37.4020   22.3630   32.9280 C   0  0  0  0  0  0  0  0  0  0  0  0
   36.7040   22.6440   31.7620 C   0  0  0  0  0  0  0  0  0  0  0  0
   36.4930   23.9180   31.2870 C   0  0  0  0  0  0  0  0  0  0  0  0
   37.0210   24.9640   32.0310 C   0  0  0  0  0  0  0  0  0  0  0  0
   37.7160   24.6690   33.1910 C   0  0  0  0  0  0  0  0  0  0  0  0
   37.5200   21.3240   33.2270 H   0  0  0  0  0  0  0  0  0  0  0  0
   36.3080   21.7990   31.2100 H   0  0  0  0  0  0  0  0  0  0  0  0
   35.9360   24.0860   30.3650 H   0  0  0  0  0  0  0  0  0  0  0  0
   36.8310   25.9370   31.6200 H   0  0  0  0  0  0  0  0  0  0  0  0
   38.1770   25.8640   33.8130 N   0  0  0  0  0  0  0  0  0  0  0  0
   39.3910   26.6150   33.9240 C   0  0  0  0  0  0  0  0  0  0  0  0
   39.6790   26.7980   35.3950 C   0  0  0  0  0  0  0  0  0  0  0  0
   38.6840   27.6930   35.9430 N   0  0  0  0  0  0  0  0  0  0  0  0
   37.4920   27.7650   35.1680 C   0  0  0  0  0  0  0  0  0  0  0  0
   37.0970   26.4790   34.5200 C   0  0  0  0  0  0  0  0  0  0  0  0
   40.2450   26.1620   33.3950 H   0  0  0  0  0  0  0  0  0  0  0  0
   39.1810   27.6490   33.5290 H   0  0  0  0  0  0  0  0  0  0  0  0
   40.0820   26.0250   35.9680 H   0  0  0  0  0  0  0  0  0  0  0  0
   40.5820   27.5010   35.3110 H   0  0  0  0  0  0  0  0  0  0  0  0
   38.9990   28.6020   36.2630 H   0  0  0  0  0  0  0  0  0  0  0  0
   37.6040   28.5850   34.4210 H   0  0  0  0  0  0  0  0  0  0  0  0
   36.6390   28.0840   35.8320 H   0  0  0  0  0  0  0  0  0  0  0  0
   36.4210   26.8260   33.6740 H   0  0  0  0  0  0  0  0  0  0  0  0
   36.4400   25.8490   35.1050 H   0  0  0  0  0  0  0  0  0  0  0  0
   38.8350   23.2780   37.2030 C   0  0  0  0  0  0  0  0  0  0  0  0
   40.0950   22.6420   37.1720 C   0  0  0  0  0  0  0  0  0  0  0  0
   40.6040   22.2720   35.9270 C   0  0  0  0  0  0  0  0  0  0  0  0
   39.8380   22.5550   34.8450 N   0  0  0  0  0  0  0  0  0  0  0  0
   38.6570   23.1520   34.8870 C   0  0  0  0  0  0  0  0  0  0  0  0
   38.1440   23.5200   36.0790 N   0  0  0  0  0  0  0  0  0  0  0  0
   40.6610   22.4400   38.0520 H   0  0  0  0  0  0  0  0  0  0  0  0
   38.3140   23.6720   38.5600 C   0  0  0  0  0  0  0  0  0  0  0  0
   37.8810   25.0100   38.4810 F   0  0  0  0  0  0  0  0  0  0  0  0
   37.3170   22.8450   38.8930 F   0  0  0  0  0  0  0  0  0  0  0  0
   39.3580   23.6670   39.4450 F   0  0  0  0  0  0  0  0  0  0  0  0
   41.8950   21.6060   35.7450 C   0  0  0  0  0  2  0  0  0  0  0  0
   42.3310   20.8950   37.0180 C   0  0  0  0  0  2  0  0  0  0  0  0
   41.5620   20.2300   37.4090 H   0  0  0  0  0  0  0  0  0  0  0  0
  1 30  1  0  0  0  0
  2  7  1  0  0  0  0
  2  1  2  0  0  0  0
  3  2  1  0  0  0  0
  4  3  2  0  0  0  0
  4  5  1  0  0  0  0
  5  6  2  0  0  0  0
  6  1  1  0  0  0  0
  6 11  1  0  0  0  0
  8  3  1  0  0  0  0
  9  4  1  0  0  0  0
 10  5  1  0  0  0  0
 11 12  1  0  0  0  0
 11 16  1  0  0  0  0
 12 13  1  0  0  0  0
 13 14  1  0  0  0  0
 13 19  1  0  0  0  0
 14 21  1  0  0  0  0
 15 23  1  0  0  0  0
 15 14  1  0  0  0  0
 16 25  1  0  0  0  0
 16 15  1  0  0  0  0
 17 12  1  0  0  0  0
 18 12  1  0  0  0  0
 20 13  1  0  0  0  0
 22 15  1  0  0  0  0
 24 16  1  0  0  0  0
 26 33  1  0  0  0  0
 27 26  1  0  0  0  0
 27 32  1  0  0  0  0
 28 27  2  0  0  0  0
 29 30  2  0  0  0  0
 29 28  1  0  0  0  0
 30 31  1  0  0  0  0
 31 26  2  0  0  0  0
 33 35  1  0  0  0  0
 33 36  1  0  0  0  0
 34 33  1  0  0  0  0
 37 28  1  0  0  0  0
 37 38  1  0  0  0  0
 38 39  1  0  0  0  0
M  END
>  <minimizedAffinity>
-6.4576931

$$$$

 OpenBabel03272505423D

 39 41  0  0  0  0  0  0  0  0999 V2000
   36.9110   21.6260   33.7870 C   0  0  0  0  0  0  0  0  0  0  0  0
   36.1910   20.4660   34.0680 C   0  0  0  0  0  0  0  0  0  0  0  0
   35.1980   20.0600   33.1890 C   0  0  0  0  0  0  0  0  0  0  0  0
   34.8720   20.7400   32.0380 C   0  0  0  0  0  0  0  0  0  0  0  0
   35.5910   21.8950   31.7620 C   0  0  0  0  0  0  0  0  0  0  0  0
   36.5790   22.2880   32.6480 C   0  0  0  0  0  0  0  0  0  0  0  0
   36.3810   19.8650   34.9540 H   0  0  0  0  0  0  0  0  0  0  0  0
   34.6600   19.1530   33.4400 H   0  0  0  0  0  0  0  0  0  0  0  0
   34.0810   20.3790   31.3800 H   0  0  0  0  0  0  0  0  0  0  0  0
   35.3000   22.3890   30.8550 H   0  0  0  0  0  0  0  0  0  0  0  0
   37.2010   23.4880   32.1990 N   0  0  0  0  0  0  0  0  0  0  0  0
   37.3520   24.8440   32.6320 C   0  0  0  0  0  0  0  0  0  0  0  0
   36.8640   25.7350   31.5150 C   0  0  0  0  0  0  0  0  0  0  0  0
   37.7980   25.6320   30.4150 N   0  0  0  0  0  0  0  0  0  0  0  0
   38.5830   24.4450   30.4410 C   0  0  0  0  0  0  0  0  0  0  0  0
   37.8690   23.2410   30.9590 C   0  0  0  0  0  0  0  0  0  0  0  0
   36.8420   25.0680   33.5830 H   0  0  0  0  0  0  0  0  0  0  0  0
   38.4570   25.0470   32.7160 H   0  0  0  0  0  0  0  0  0  0  0  0
   35.8460   25.8820   31.3460 H   0  0  0  0  0  0  0  0  0  0  0  0
   37.1610   26.7510   31.9580 H   0  0  0  0  0  0  0  0  0  0  0  0
   38.3400   26.4570   30.1830 H   0  0  0  0  0  0  0  0  0  0  0  0
   39.5150   24.6510   31.0180 H   0  0  0  0  0  0  0  0  0  0  0  0
   38.9300   24.2090   29.3950 H   0  0  0  0  0  0  0  0  0  0  0  0
   38.7240   22.5620   31.2750 H   0  0  0  0  0  0  0  0  0  0  0  0
   37.3590   22.6480   30.2110 H   0  0  0  0  0  0  0  0  0  0  0  0
   38.5960   22.9750   36.7280 C   0  0  0  0  0  0  0  0  0  0  0  0
   39.9560   22.9280   36.3500 C   0  0  0  0  0  0  0  0  0  0  0  0
   40.2600   22.4270   35.0850 C   0  0  0  0  0  0  0  0  0  0  0  0
   39.2170   22.0240   34.3200 N   0  0  0  0  0  0  0  0  0  0  0  0
   37.9460   22.0730   34.6850 C   0  0  0  0  0  0  0  0  0  0  0  0
   37.6250   22.5520   35.9040 N   0  0  0  0  0  0  0  0  0  0  0  0
   40.7430   23.2570   36.9890 H   0  0  0  0  0  0  0  0  0  0  0  0
   38.2970   23.5250   38.0970 C   0  0  0  0  0  0  0  0  0  0  0  0
   38.0560   24.9060   37.9610 F   0  0  0  0  0  0  0  0  0  0  0  0
   37.2370   22.8810   38.5960 F   0  0  0  0  0  0  0  0  0  0  0  0
   39.4250   23.4150   38.8660 F   0  0  0  0  0  0  0  0  0  0  0  0
   41.6240   22.3200   34.5620 C   0  0  0  0  0  2  0  0  0  0  0  0
   42.6490   22.7030   35.6200 C   0  0  0  0  0  2  0  0  0  0  0  0
   42.5090   22.1600   36.5540 H   0  0  0  0  0  0  0  0  0  0  0  0
  1  2  1  0  0  0  0
  1 30  1  0  0  0  0
  2  7  1  0  0  0  0
  3  8  1  0  0  0  0
  3  2  2  0  0  0  0
  4  3  1  0  0  0  0
  5  4  2  0  0  0  0
  5  6  1  0  0  0  0
  6  1  2  0  0  0  0
  9  4  1  0  0  0  0
 10  5  1  0  0  0  0
 11 12  1  0  0  0  0
 11  6  1  0  0  0  0
 12 18  1  0  0  0  0
 12 17  1  0  0  0  0
 13 20  1  0  0  0  0
 13 12  1  0  0  0  0
 14 15  1  0  0  0  0
 14 13  1  0  0  0  0
 15 16  1  0  0  0  0
 15 22  1  0  0  0  0
 16 24  1  0  0  0  0
 16 11  1  0  0  0  0
 19 13  1  0  0  0  0
 21 14  1  0  0  0  0
 23 15  1  0  0  0  0
 25 16  1  0  0  0  0
 26 33  1  0  0  0  0
 27 26  1  0  0  0  0
 27 32  1  0  0  0  0
 28 27  2  0  0  0  0
 29 30  2  0  0  0  0
 29 28  1  0  0  0  0
 30 31  1  0  0  0  0
 31 26  2  0  0  0  0
 33 35  1  0  0  0  0
 33 36  1  0  0  0  0
 34 33  1  0  0  0  0
 37 28  1  0  0  0  0
 37 38  1  0  0  0  0
 38 39  1  0  0  0  0
M  END
>  <minimizedAffinity>
-6.00740385

$$$$

 OpenBabel03272505423D

 39 41  0  0  0  0  0  0  0  0999 V2000
   38.0610   24.5630   33.8710 C   0  0  0  0  0  0  0  0  0  0  0  0
   37.9200   25.6420   33.0010 C   0  0  0  0  0  0  0  0  0  0  0  0
   37.9990   26.9310   33.5070 C   0  0  0  0  0  0  0  0  0  0  0  0
   38.2110   27.2180   34.8360 C   0  0  0  0  0  0  0  0  0  0  0  0
   38.3520   26.1400   35.6990 C   0  0  0  0  0  0  0  0  0  0  0  0
   38.2710   24.8600   35.1800 C   0  0  0  0  0  0  0  0  0  0  0  0
   37.7490   25.5100   31.9350 H   0  0  0  0  0  0  0  0  0  0  0  0
   37.8830   27.7450   32.8000 H   0  0  0  0  0  0  0  0  0  0  0  0
   38.2650   28.2500   35.1840 H   0  0  0  0  0  0  0  0  0  0  0  0
   38.5160   26.4150   36.7240 H   0  0  0  0  0  0  0  0  0  0  0  0
   38.4390   23.8930   36.2130 N   0  0  0  0  0  0  0  0  0  0  0  0
   37.6250   23.1530   37.1300 C   0  0  0  0  0  0  0  0  0  0  0  0
   38.1520   23.4180   38.5200 C   0  0  0  0  0  0  0  0  0  0  0  0
   39.4480   22.7860   38.6400 N   0  0  0  0  0  0  0  0  0  0  0  0
   40.0810   22.5390   37.3900 C   0  0  0  0  0  0  0  0  0  0  0  0
   39.8270   23.5800   36.3510 C   0  0  0  0  0  0  0  0  0  0  0  0
   36.5490   23.3780   37.0540 H   0  0  0  0  0  0  0  0  0  0  0  0
   37.8180   22.0600   36.9400 H   0  0  0  0  0  0  0  0  0  0  0  0
   37.9390   24.3090   39.0190 H   0  0  0  0  0  0  0  0  0  0  0  0
   37.4950   22.6800   39.1020 H   0  0  0  0  0  0  0  0  0  0  0  0
   39.5290   22.0060   39.2820 H   0  0  0  0  0  0  0  0  0  0  0  0
   39.7840   21.5240   37.0370 H   0  0  0  0  0  0  0  0  0  0  0  0
   41.1960   22.4820   37.5450 H   0  0  0  0  0  0  0  0  0  0  0  0
   40.0470   23.0240   35.3830 H   0  0  0  0  0  0  0  0  0  0  0  0
   40.5410   24.3920   36.3250 H   0  0  0  0  0  0  0  0  0  0  0  0
   36.8180   21.2130   33.1380 C   0  0  0  0  0  0  0  0  0  0  0  0
   37.8870   20.6400   32.4160 C   0  0  0  0  0  0  0  0  0  0  0  0
   39.0160   21.4290   32.1940 C   0  0  0  0  0  0  0  0  0  0  0  0
   38.9900   22.6880   32.6960 N   0  0  0  0  0  0  0  0  0  0  0  0
   37.9810   23.2130   33.3720 C   0  0  0  0  0  0  0  0  0  0  0  0
   36.8770   22.4710   33.5990 N   0  0  0  0  0  0  0  0  0  0  0  0
   37.8600   19.6430   32.0400 H   0  0  0  0  0  0  0  0  0  0  0  0
   35.6140   20.3370   33.3660 C   0  0  0  0  0  0  0  0  0  0  0  0
   35.9540   19.0290   32.9660 F   0  0  0  0  0  0  0  0  0  0  0  0
   35.2830   20.3910   34.6610 F   0  0  0  0  0  0  0  0  0  0  0  0
   34.6160   20.7400   32.5210 F   0  0  0  0  0  0  0  0  0  0  0  0
   40.1970   20.9660   31.4620 C   0  0  0  0  0  2  0  0  0  0  0  0
   40.3510   19.4550   31.5670 C   0  0  0  0  0  2  0  0  0  0  0  0
   39.4420   18.9220   31.2890 H   0  0  0  0  0  0  0  0  0  0  0  0
  1  6  1  0  0  0  0
  2  3  1  0  0  0  0
  2  1  2  0  0  0  0
  3  4  2  0  0  0  0
  4  9  1  0  0  0  0
  4  5  1  0  0  0  0
  5 10  1  0  0  0  0
  6  5  2  0  0  0  0
  6 11  1  0  0  0  0
  7  2  1  0  0  0  0
  8  3  1  0  0  0  0
 11 16  1  0  0  0  0
 11 12  1  0  0  0  0
 12 13  1  0  0  0  0
 13 14  1  0  0  0  0
 13 19  1  0  0  0  0
 13 20  1  0  0  0  0
 14 21  1  0  0  0  0
 15 23  1  0  0  0  0
 15 14  1  0  0  0  0
 16 15  1  0  0  0  0
 17 12  1  0  0  0  0
 18 12  1  0  0  0  0
 22 15  1  0  0  0  0
 24 16  1  0  0  0  0
 25 16  1  0  0  0  0
 26 33  1  0  0  0  0
 26 31  1  0  0  0  0
 27 26  2  0  0  0  0
 28 27  1  0  0  0  0
 28 29  2  0  0  0  0
 29 30  1  0  0  0  0
 30 31  2  0  0  0  0
 30  1  1  0  0  0  0
 32 27  1  0  0  0  0
 33 35  1  0  0  0  0
 34 33  1  0  0  0  0
 36 33  1  0  0  0  0
 37 38  1  0  0  0  0
 37 28  1  0  0  0  0
 39 38  1  0  0  0  0
M  END
>  <minimizedAffinity>
-5.7922287

$$$$

 OpenBabel03272505423D

 39 41  0  0  0  0  0  0  0  0999 V2000
   38.1550   22.8360   34.0950 C   0  0  0  0  0  0  0  0  0  0  0  0
   37.5550   21.7040   33.5470 C   0  0  0  0  0  0  0  0  0  0  0  0
   36.7610   21.8420   32.4170 C   0  0  0  0  0  0  0  0  0  0  0  0
   36.5250   23.0450   31.7930 C   0  0  0  0  0  0  0  0  0  0  0  0
   37.1250   24.1700   32.3420 C   0  0  0  0  0  0  0  0  0  0  0  0
   37.9140   24.0170   33.4680 C   0  0  0  0  0  0  0  0  0  0  0  0
   37.6860   20.7130   33.9730 H   0  0  0  0  0  0  0  0  0  0  0  0
   36.3110   20.9400   32.0190 H   0  0  0  0  0  0  0  0  0  0  0  0
   35.8920   23.1010   30.9070 H   0  0  0  0  0  0  0  0  0  0  0  0
   36.9100   25.0830   31.8200 H   0  0  0  0  0  0  0  0  0  0  0  0
   38.4390   25.2750   33.8820 N   0  0  0  0  0  0  0  0  0  0  0  0
   39.6580   26.0170   33.7670 C   0  0  0  0  0  0  0  0  0  0  0  0
   40.1040   26.3790   35.1640 C   0  0  0  0  0  0  0  0  0  0  0  0
   39.1730   27.3490   35.6980 N   0  0  0  0  0  0  0  0  0  0  0  0
   37.9040   27.3390   35.0530 C   0  0  0  0  0  0  0  0  0  0  0  0
   37.4420   25.9880   34.6170 C   0  0  0  0  0  0  0  0  0  0  0  0
   40.4510   25.4890   33.2110 H   0  0  0  0  0  0  0  0  0  0  0  0
   39.4070   26.9960   33.2700 H   0  0  0  0  0  0  0  0  0  0  0  0
   40.5660   25.6780   35.7830 H   0  0  0  0  0  0  0  0  0  0  0  0
   40.9920   27.0530   34.8960 H   0  0  0  0  0  0  0  0  0  0  0  0
   39.5210   28.2860   35.8660 H   0  0  0  0  0  0  0  0  0  0  0  0
   37.9350   28.0580   34.2010 H   0  0  0  0  0  0  0  0  0  0  0  0
   37.1280   27.7510   35.7590 H   0  0  0  0  0  0  0  0  0  0  0  0
   36.6780   26.2350   33.8120 H   0  0  0  0  0  0  0  0  0  0  0  0
   36.8530   25.4440   35.3440 H   0  0  0  0  0  0  0  0  0  0  0  0
   40.9780   22.0860   36.2810 C   0  0  0  0  0  0  0  0  0  0  0  0
   40.5080   22.5070   37.5430 C   0  0  0  0  0  0  0  0  0  0  0  0
   39.2230   23.0450   37.6110 C   0  0  0  0  0  0  0  0  0  0  0  0
   38.5300   23.1190   36.4480 N   0  0  0  0  0  0  0  0  0  0  0  0
   38.9820   22.7210   35.2700 C   0  0  0  0  0  0  0  0  0  0  0  0
   40.2210   22.1970   35.1780 N   0  0  0  0  0  0  0  0  0  0  0  0
   41.0920   22.4280   38.4310 H   0  0  0  0  0  0  0  0  0  0  0  0
   42.3660   21.5040   36.2390 C   0  0  0  0  0  0  0  0  0  0  0  0
   42.5250   20.6930   37.3800 F   0  0  0  0  0  0  0  0  0  0  0  0
   42.5040   20.8040   35.1080 F   0  0  0  0  0  0  0  0  0  0  0  0
   43.2690   22.5230   36.3750 F   0  0  0  0  0  0  0  0  0  0  0  0
   38.6080   23.5210   38.8520 C   0  0  0  0  0  2  0  0  0  0  0  0
   37.8580   24.8270   38.6270 C   0  0  0  0  0  2  0  0  0  0  0  0
   37.1520   24.7670   37.7990 H   0  0  0  0  0  0  0  0  0  0  0  0
  1 30  1  0  0  0  0
  2  7  1  0  0  0  0
  2  1  1  0  0  0  0
  3  2  2  0  0  0  0
  4  5  2  0  0  0  0
  4  3  1  0  0  0  0
  5  6  1  0  0  0  0
  6 11  1  0  0  0  0
  6  1  2  0  0  0  0
  8  3  1  0  0  0  0
  9  4  1  0  0  0  0
 10  5  1  0  0  0  0
 11 16  1  0  0  0  0
 12 11  1  0  0  0  0
 12 13  1  0  0  0  0
 13 14  1  0  0  0  0
 13 19  1  0  0  0  0
 14 21  1  0  0  0  0
 15 14  1  0  0  0  0
 15 23  1  0  0  0  0
 16 15  1  0  0  0  0
 16 25  1  0  0  0  0
 17 12  1  0  0  0  0
 18 12  1  0  0  0  0
 20 13  1  0  0  0  0
 22 15  1  0  0  0  0
 24 16  1  0  0  0  0
 26 27  1  0  0  0  0
 27 28  2  0  0  0  0
 27 32  1  0  0  0  0
 28 37  1  0  0  0  0
 29 28  1  0  0  0  0
 30 29  2  0  0  0  0
 31 30  1  0  0  0  0
 31 26  2  0  0  0  0
 33 26  1  0  0  0  0
 33 36  1  0  0  0  0
 33 34  1  0  0  0  0
 35 33  1  0  0  0  0
 38 37  1  0  0  0  0
 39 38  1  0  0  0  0
M  END
>  <minimizedAffinity>
-5.71067095

$$$$

 OpenBabel03272505423D

 39 41  0  0  0  0  0  0  0  0999 V2000
   37.3710   26.4110   33.9740 C   0  0  0  0  0  0  0  0  0  0  0  0
   37.0480   27.6540   34.5140 C   0  0  0  0  0  0  0  0  0  0  0  0
   36.2630   28.5270   33.7740 C   0  0  0  0  0  0  0  0  0  0  0  0
   35.7750   28.2390   32.5200 C   0  0  0  0  0  0  0  0  0  0  0  0
   36.0980   26.9980   31.9870 C   0  0  0  0  0  0  0  0  0  0  0  0
   36.8820   26.1380   32.7360 C   0  0  0  0  0  0  0  0  0  0  0  0
   37.3900   27.9670   35.4970 H   0  0  0  0  0  0  0  0  0  0  0  0
   36.0340   29.4850   34.2250 H   0  0  0  0  0  0  0  0  0  0  0  0
   35.1620   28.9600   31.9790 H   0  0  0  0  0  0  0  0  0  0  0  0
   35.6940   26.8200   31.0080 H   0  0  0  0  0  0  0  0  0  0  0  0
   37.1060   24.9230   32.0270 N   0  0  0  0  0  0  0  0  0  0  0  0
   36.6580   23.5640   32.0620 C   0  0  0  0  0  0  0  0  0  0  0  0
   37.8810   22.6850   32.1680 C   0  0  0  0  0  0  0  0  0  0  0  0
   38.6040   22.7640   30.9170 N   0  0  0  0  0  0  0  0  0  0  0  0
   38.3060   23.9320   30.1580 C   0  0  0  0  0  0  0  0  0  0  0  0
   38.0480   25.1530   30.9770 C   0  0  0  0  0  0  0  0  0  0  0  0
   35.9350   23.3530   32.8670 H   0  0  0  0  0  0  0  0  0  0  0  0
   36.2100   23.3340   31.0550 H   0  0  0  0  0  0  0  0  0  0  0  0
   38.3840   22.5630   33.0740 H   0  0  0  0  0  0  0  0  0  0  0  0
   37.3730   21.6620   32.0610 H   0  0  0  0  0  0  0  0  0  0  0  0
   38.6470   21.9270   30.3480 H   0  0  0  0  0  0  0  0  0  0  0  0
   37.4520   23.7030   29.4790 H   0  0  0  0  0  0  0  0  0  0  0  0
   39.1730   24.1590   29.4760 H   0  0  0  0  0  0  0  0  0  0  0  0
   37.4580   25.8110   30.2620 H   0  0  0  0  0  0  0  0  0  0  0  0
   38.9190   25.7580   31.1920 H   0  0  0  0  0  0  0  0  0  0  0  0
   38.5570   24.1990   36.6220 C   0  0  0  0  0  0  0  0  0  0  0  0
   39.7900   23.7410   36.1090 C   0  0  0  0  0  0  0  0  0  0  0  0
   40.1840   24.2070   34.8540 C   0  0  0  0  0  0  0  0  0  0  0  0
   39.3410   25.0640   34.2290 N   0  0  0  0  0  0  0  0  0  0  0  0
   38.1870   25.4870   34.7210 C   0  0  0  0  0  0  0  0  0  0  0  0
   37.7840   25.0510   35.9320 N   0  0  0  0  0  0  0  0  0  0  0  0
   40.4200   23.0640   36.6400 H   0  0  0  0  0  0  0  0  0  0  0  0
   38.1610   23.6850   37.9800 C   0  0  0  0  0  0  0  0  0  0  0  0
   37.8250   24.7960   38.7790 F   0  0  0  0  0  0  0  0  0  0  0  0
   37.1300   22.8450   37.8370 F   0  0  0  0  0  0  0  0  0  0  0  0
   39.2600   23.1190   38.5690 F   0  0  0  0  0  0  0  0  0  0  0  0
   41.4350   23.8160   34.2010 C   0  0  0  0  0  2  0  0  0  0  0  0
   41.4480   24.2410   32.7400 C   0  0  0  0  0  2  0  0  0  0  0  0
   41.2120   25.2960   32.6090 H   0  0  0  0  0  0  0  0  0  0  0  0
  1  2  1  0  0  0  0
  1 30  1  0  0  0  0
  2  7  1  0  0  0  0
  3  8  1  0  0  0  0
  3  2  2  0  0  0  0
  4  3  1  0  0  0  0
  5  4  2  0  0  0  0
  5  6  1  0  0  0  0
  6  1  2  0  0  0  0
  9  4  1  0  0  0  0
 10  5  1  0  0  0  0
 11 12  1  0  0  0  0
 11  6  1  0  0  0  0
 12 13  1  0  0  0  0
 12 17  1  0  0  0  0
 13 19  1  0  0  0  0
 14 13  1  0  0  0  0
 15 14  1  0  0  0  0
 15 16  1  0  0  0  0
 16 25  1  0  0  0  0
 16 11  1  0  0  0  0
 18 12  1  0  0  0  0
 20 13  1  0  0  0  0
 21 14  1  0  0  0  0
 22 15  1  0  0  0  0
 23 15  1  0  0  0  0
 24 16  1  0  0  0  0
 26 33  1  0  0  0  0
 27 26  1  0  0  0  0
 27 32  1  0  0  0  0
 28 27  2  0  0  0  0
 29 30  2  0  0  0  0
 29 28  1  0  0  0  0
 30 31  1  0  0  0  0
 31 26  2  0  0  0  0
 33 36  1  0  0  0  0
 33 34  1  0  0  0  0
 35 33  1  0  0  0  0
 37 28  1  0  0  0  0
 38 37  1  0  0  0  0
 39 38  1  0  0  0  0
M  END
>  <minimizedAffinity>
-5.61846066

$$$$

 OpenBabel03272505423D

 39 41  0  0  0  0  0  0  0  0999 V2000
   37.4070   24.2790   33.0460 C   0  0  0  0  0  0  0  0  0  0  0  0
   37.1510   25.5950   32.6650 C   0  0  0  0  0  0  0  0  0  0  0  0
   36.2600   25.8350   31.6290 C   0  0  0  0  0  0  0  0  0  0  0  0
   35.6030   24.8410   30.9410 C   0  0  0  0  0  0  0  0  0  0  0  0
   35.8610   23.5320   31.3250 C   0  0  0  0  0  0  0  0  0  0  0  0
   36.7520   23.3070   32.3600 C   0  0  0  0  0  0  0  0  0  0  0  0
   37.6240   26.4440   33.1520 H   0  0  0  0  0  0  0  0  0  0  0  0
   36.0850   26.8700   31.3600 H   0  0  0  0  0  0  0  0  0  0  0  0
   34.9120   25.0820   30.1330 H   0  0  0  0  0  0  0  0  0  0  0  0
   35.3250   22.7930   30.7590 H   0  0  0  0  0  0  0  0  0  0  0  0
   36.8870   21.9110   32.6060 N   0  0  0  0  0  0  0  0  0  0  0  0
   37.9240   20.9240   32.6400 C   0  0  0  0  0  0  0  0  0  0  0  0
   37.5240   19.8120   31.7010 C   0  0  0  0  0  0  0  0  0  0  0  0
   36.3890   19.1220   32.2740 N   0  0  0  0  0  0  0  0  0  0  0  0
   35.6700   19.8980   33.2260 C   0  0  0  0  0  0  0  0  0  0  0  0
   35.6050   21.3570   32.9140 C   0  0  0  0  0  0  0  0  0  0  0  0
   38.9240   21.3200   32.4000 H   0  0  0  0  0  0  0  0  0  0  0  0
   37.9140   20.4660   33.6690 H   0  0  0  0  0  0  0  0  0  0  0  0
   37.6270   19.9130   30.6680 H   0  0  0  0  0  0  0  0  0  0  0  0
   38.3690   19.0720   31.9330 H   0  0  0  0  0  0  0  0  0  0  0  0
   36.5280   18.1630   32.5740 H   0  0  0  0  0  0  0  0  0  0  0  0
   36.1050   19.7120   34.2360 H   0  0  0  0  0  0  0  0  0  0  0  0
   34.6100   19.5190   33.2870 H   0  0  0  0  0  0  0  0  0  0  0  0
   35.3790   21.8180   33.9280 H   0  0  0  0  0  0  0  0  0  0  0  0
   34.7560   21.6650   32.3190 H   0  0  0  0  0  0  0  0  0  0  0  0
   38.7710   23.7340   36.3850 C   0  0  0  0  0  0  0  0  0  0  0  0
   40.1360   23.4880   36.1220 C   0  0  0  0  0  0  0  0  0  0  0  0
   40.5560   23.5140   34.7920 C   0  0  0  0  0  0  0  0  0  0  0  0
   39.6090   23.7740   33.8580 N   0  0  0  0  0  0  0  0  0  0  0  0
   38.3310   24.0020   34.1170 C   0  0  0  0  0  0  0  0  0  0  0  0
   37.9010   23.9820   35.3950 N   0  0  0  0  0  0  0  0  0  0  0  0
   40.8450   23.2880   36.8920 H   0  0  0  0  0  0  0  0  0  0  0  0
   38.3490   23.7050   37.8300 C   0  0  0  0  0  0  0  0  0  0  0  0
   39.3970   23.1250   38.5720 F   0  0  0  0  0  0  0  0  0  0  0  0
   38.0910   24.9560   38.2260 F   0  0  0  0  0  0  0  0  0  0  0  0
   37.2850   22.8530   37.9550 F   0  0  0  0  0  0  0  0  0  0  0  0
   41.9390   23.2780   34.3730 C   0  0  0  0  0  2  0  0  0  0  0  0
   42.9170   24.0490   35.2490 C   0  0  0  0  0  2  0  0  0  0  0  0
   42.7580   23.8680   36.3120 H   0  0  0  0  0  0  0  0  0  0  0  0
  1 30  1  0  0  0  0
  2  1  1  0  0  0  0
  2  7  1  0  0  0  0
  3  2  2  0  0  0  0
  4  5  2  0  0  0  0
  4  3  1  0  0  0  0
  5  6  1  0  0  0  0
  6 11  1  0  0  0  0
  6  1  2  0  0  0  0
  8  3  1  0  0  0  0
  9  4  1  0  0  0  0
 10  5  1  0  0  0  0
 11 12  1  0  0  0  0
 11 16  1  0  0  0  0
 12 18  1  0  0  0  0
 13 20  1  0  0  0  0
 13 14  1  0  0  0  0
 13 12  1  0  0  0  0
 14 21  1  0  0  0  0
 14 15  1  0  0  0  0
 15 23  1  0  0  0  0
 15 22  1  0  0  0  0
 16 15  1  0  0  0  0
 16 24  1  0  0  0  0
 17 12  1  0  0  0  0
 19 13  1  0  0  0  0
 25 16  1  0  0  0  0
 26 33  1  0  0  0  0
 27 26  1  0  0  0  0
 27 32  1  0  0  0  0
 28 27  2  0  0  0  0
 29 30  2  0  0  0  0
 29 28  1  0  0  0  0
 30 31  1  0  0  0  0
 31 26  2  0  0  0  0
 33 36  1  0  0  0  0
 33 35  1  0  0  0  0
 33 34  1  0  0  0  0
 37 28  1  0  0  0  0
 37 38  1  0  0  0  0
 38 39  1  0  0  0  0
M  END
>  <minimizedAffinity>
-5.56382895

$$$$

 OpenBabel03272505423D

 39 41  0  0  0  0  0  0  0  0999 V2000
   36.0520   29.7090   31.3420 C   0  0  0  0  0  0  0  0  0  0  0  0
   36.2710   30.8050   30.5090 C   0  0  0  0  0  0  0  0  0  0  0  0
   37.0350   30.6380   29.3630 C   0  0  0  0  0  0  0  0  0  0  0  0
   37.6010   29.4400   28.9900 C   0  0  0  0  0  0  0  0  0  0  0  0
   37.3790   28.3520   29.8230 C   0  0  0  0  0  0  0  0  0  0  0  0
   36.6150   28.5330   30.9620 C   0  0  0  0  0  0  0  0  0  0  0  0
   35.8630   31.7890   30.7240 H   0  0  0  0  0  0  0  0  0  0  0  0
   37.1850   31.5120   28.7390 H   0  0  0  0  0  0  0  0  0  0  0  0
   38.1940   29.3610   28.0790 H   0  0  0  0  0  0  0  0  0  0  0  0
   37.8400   27.4410   29.4900 H   0  0  0  0  0  0  0  0  0  0  0  0
   36.5010   27.3110   31.6850 N   0  0  0  0  0  0  0  0  0  0  0  0
   36.8610   26.7870   32.9680 C   0  0  0  0  0  0  0  0  0  0  0  0
   37.6750   25.5370   32.7360 C   0  0  0  0  0  0  0  0  0  0  0  0
   36.8000   24.5200   32.1960 N   0  0  0  0  0  0  0  0  0  0  0  0
   35.6250   25.0430   31.5850 C   0  0  0  0  0  0  0  0  0  0  0  0
   35.8210   26.3440   30.8800 C   0  0  0  0  0  0  0  0  0  0  0  0
   37.3940   27.5070   33.6100 H   0  0  0  0  0  0  0  0  0  0  0  0
   35.9110   26.4380   33.4640 H   0  0  0  0  0  0  0  0  0  0  0  0
   38.6780   25.5890   32.4550 H   0  0  0  0  0  0  0  0  0  0  0  0
   37.7720   25.1850   33.8240 H   0  0  0  0  0  0  0  0  0  0  0  0
   36.6130   23.7080   32.7730 H   0  0  0  0  0  0  0  0  0  0  0  0
   34.8250   25.1110   32.3590 H   0  0  0  0  0  0  0  0  0  0  0  0
   35.2410   24.3030   30.8270 H   0  0  0  0  0  0  0  0  0  0  0  0
   34.7660   26.7650   30.8370 H   0  0  0  0  0  0  0  0  0  0  0  0
   36.0890   26.2680   29.8340 H   0  0  0  0  0  0  0  0  0  0  0  0
   33.2680   29.5550   33.6940 C   0  0  0  0  0  0  0  0  0  0  0  0
   33.8010   30.1800   34.8420 C   0  0  0  0  0  0  0  0  0  0  0  0
   35.1170   30.6390   34.7780 C   0  0  0  0  0  0  0  0  0  0  0  0
   35.7760   30.4440   33.6100 N   0  0  0  0  0  0  0  0  0  0  0  0
   35.2650   29.8560   32.5400 C   0  0  0  0  0  0  0  0  0  0  0  0
   33.9950   29.4030   32.5760 N   0  0  0  0  0  0  0  0  0  0  0  0
   33.2420   30.3100   35.7390 H   0  0  0  0  0  0  0  0  0  0  0  0
   31.8440   29.0740   33.7900 C   0  0  0  0  0  0  0  0  0  0  0  0
   31.6850   28.4520   35.0430 F   0  0  0  0  0  0  0  0  0  0  0  0
   31.0270   30.1230   33.6470 F   0  0  0  0  0  0  0  0  0  0  0  0
   31.6530   28.0910   32.8560 F   0  0  0  0  0  0  0  0  0  0  0  0
   35.7980   31.3050   35.8910 C   0  0  0  0  0  2  0  0  0  0  0  0
   34.8000   31.9890   36.8140 C   0  0  0  0  0  2  0  0  0  0  0  0
   34.0060   31.3190   37.1420 H   0  0  0  0  0  0  0  0  0  0  0  0
  1 30  1  0  0  0  0
  2  7  1  0  0  0  0
  2  1  2  0  0  0  0
  3  2  1  0  0  0  0
  4  3  2  0  0  0  0
  4  5  1  0  0  0  0
  5  6  2  0  0  0  0
  6  1  1  0  0  0  0
  6 11  1  0  0  0  0
  8  3  1  0  0  0  0
  9  4  1  0  0  0  0
 10  5  1  0  0  0  0
 11 12  1  0  0  0  0
 12 18  1  0  0  0  0
 12 17  1  0  0  0  0
 13 12  1  0  0  0  0
 13 20  1  0  0  0  0
 14 13  1  0  0  0  0
 14 21  1  0  0  0  0
 15 14  1  0  0  0  0
 15 22  1  0  0  0  0
 16 15  1  0  0  0  0
 16 11  1  0  0  0  0
 19 13  1  0  0  0  0
 23 15  1  0  0  0  0
 24 16  1  0  0  0  0
 25 16  1  0  0  0  0
 26 33  1  0  0  0  0
 26 27  1  0  0  0  0
 27 32  1  0  0  0  0
 28 27  2  0  0  0  0
 28 37  1  0  0  0  0
 29 28  1  0  0  0  0
 30 31  1  0  0  0  0
 30 29  2  0  0  0  0
 31 26  2  0  0  0  0
 33 34  1  0  0  0  0
 35 33  1  0  0  0  0
 36 33  1  0  0  0  0
 37 38  1  0  0  0  0
 38 39  1  0  0  0  0
M  END
>  <minimizedAffinity>
-5.53288221

$$$$

 OpenBabel03272505423D

 39 41  0  0  0  0  0  0  0  0999 V2000
   36.8280   23.5220   32.2900 C   0  0  0  0  0  0  0  0  0  0  0  0
   35.8180   23.1470   31.4050 C   0  0  0  0  0  0  0  0  0  0  0  0
   35.5460   21.7990   31.2260 C   0  0  0  0  0  0  0  0  0  0  0  0
   36.2200   20.7910   31.8760 C   0  0  0  0  0  0  0  0  0  0  0  0
   37.2240   21.1690   32.7560 C   0  0  0  0  0  0  0  0  0  0  0  0
   37.4850   22.5170   32.9250 C   0  0  0  0  0  0  0  0  0  0  0  0
   35.2330   23.8750   30.8490 H   0  0  0  0  0  0  0  0  0  0  0  0
   34.7540   21.5450   30.5300 H   0  0  0  0  0  0  0  0  0  0  0  0
   35.9680   19.7450   31.7000 H   0  0  0  0  0  0  0  0  0  0  0  0
   37.7200   20.3480   33.2380 H   0  0  0  0  0  0  0  0  0  0  0  0
   38.5420   22.7070   33.8610 N   0  0  0  0  0  0  0  0  0  0  0  0
   39.9120   23.1250   33.8600 C   0  0  0  0  0  0  0  0  0  0  0  0
   40.7200   22.0340   34.5220 C   0  0  0  0  0  0  0  0  0  0  0  0
   40.3810   22.0100   35.9280 N   0  0  0  0  0  0  0  0  0  0  0  0
   39.1200   22.6020   36.2210 C   0  0  0  0  0  0  0  0  0  0  0  0
   38.0770   22.3890   35.1750 C   0  0  0  0  0  0  0  0  0  0  0  0
   40.3030   23.3700   32.8590 H   0  0  0  0  0  0  0  0  0  0  0  0
   39.9890   24.0140   34.5470 H   0  0  0  0  0  0  0  0  0  0  0  0
   40.9670   21.1580   34.0120 H   0  0  0  0  0  0  0  0  0  0  0  0
   41.7380   22.5630   34.5520 H   0  0  0  0  0  0  0  0  0  0  0  0
   41.1030   22.2770   36.5870 H   0  0  0  0  0  0  0  0  0  0  0  0
   39.2780   23.6860   36.4300 H   0  0  0  0  0  0  0  0  0  0  0  0
   38.7250   22.1700   37.1850 H   0  0  0  0  0  0  0  0  0  0  0  0
   37.3420   23.2310   35.3810 H   0  0  0  0  0  0  0  0  0  0  0  0
   37.4670   21.5040   35.3030 H   0  0  0  0  0  0  0  0  0  0  0  0
   37.7020   26.6750   33.9040 C   0  0  0  0  0  0  0  0  0  0  0  0
   37.6870   27.5850   32.8260 C   0  0  0  0  0  0  0  0  0  0  0  0
   37.3780   27.0870   31.5600 C   0  0  0  0  0  0  0  0  0  0  0  0
   37.1160   25.7600   31.4730 N   0  0  0  0  0  0  0  0  0  0  0  0
   37.1330   24.9160   32.4920 C   0  0  0  0  0  0  0  0  0  0  0  0
   37.4290   25.3730   33.7260 N   0  0  0  0  0  0  0  0  0  0  0  0
   37.9010   28.6230   32.9440 H   0  0  0  0  0  0  0  0  0  0  0  0
   38.0330   27.2410   35.2590 C   0  0  0  0  0  0  0  0  0  0  0  0
   39.4130   27.5260   35.2790 F   0  0  0  0  0  0  0  0  0  0  0  0
   37.2960   28.3390   35.4570 F   0  0  0  0  0  0  0  0  0  0  0  0
   37.8390   26.2650   36.1990 F   0  0  0  0  0  0  0  0  0  0  0  0
   37.3270   27.9160   30.3530 C   0  0  0  0  0  2  0  0  0  0  0  0
   36.5560   29.2040   30.6040 C   0  0  0  0  0  2  0  0  0  0  0  0
   36.9200   29.7460   31.4760 H   0  0  0  0  0  0  0  0  0  0  0  0
  1 30  1  0  0  0  0
  1  6  1  0  0  0  0
  2  1  2  0  0  0  0
  3  2  1  0  0  0  0
  3  4  2  0  0  0  0
  4  5  1  0  0  0  0
  5  6  2  0  0  0  0
  5 10  1  0  0  0  0
  6 11  1  0  0  0  0
  7  2  1  0  0  0  0
  8  3  1  0  0  0  0
  9  4  1  0  0  0  0
 11 16  1  0  0  0  0
 12 11  1  0  0  0  0
 12 13  1  0  0  0  0
 12 18  1  0  0  0  0
 13 20  1  0  0  0  0
 13 14  1  0  0  0  0
 14 15  1  0  0  0  0
 14 21  1  0  0  0  0
 15 22  1  0  0  0  0
 15 23  1  0  0  0  0
 16 25  1  0  0  0  0
 16 24  1  0  0  0  0
 16 15  1  0  0  0  0
 17 12  1  0  0  0  0
 19 13  1  0  0  0  0
 26 33  1  0  0  0  0
 27 32  1  0  0  0  0
 27 26  2  0  0  0  0
 28 27  1  0  0  0  0
 29 28  2  0  0  0  0
 29 30  1  0  0  0  0
 30 31  2  0  0  0  0
 31 26  1  0  0  0  0
 33 34  1  0  0  0  0
 33 35  1  0  0  0  0
 33 36  1  0  0  0  0
 37 38  1  0  0  0  0
 37 28  1  0  0  0  0
 38 39  1  0  0  0  0
M  END
>  <minimizedAffinity>
-5.52031517

$$$$

 OpenBabel03272505423D

 39 41  0  0  0  0  0  0  0  0999 V2000
   36.1310   29.3070   32.2140 C   0  0  0  0  0  0  0  0  0  0  0  0
   36.0780   29.9120   30.9590 C   0  0  0  0  0  0  0  0  0  0  0  0
   36.9050   29.4420   29.9490 C   0  0  0  0  0  0  0  0  0  0  0  0
   37.7890   28.4000   30.1080 C   0  0  0  0  0  0  0  0  0  0  0  0
   37.8380   27.7990   31.3590 C   0  0  0  0  0  0  0  0  0  0  0  0
   37.0080   28.2790   32.3570 C   0  0  0  0  0  0  0  0  0  0  0  0
   35.4100   30.7420   30.7420 H   0  0  0  0  0  0  0  0  0  0  0  0
   36.8360   29.9370   28.9870 H   0  0  0  0  0  0  0  0  0  0  0  0
   38.4180   28.0680   29.2820 H   0  0  0  0  0  0  0  0  0  0  0  0
   38.5420   26.9920   31.4340 H   0  0  0  0  0  0  0  0  0  0  0  0
   37.2000   27.5420   33.5610 N   0  0  0  0  0  0  0  0  0  0  0  0
   37.1390   27.7640   34.9750 C   0  0  0  0  0  0  0  0  0  0  0  0
   38.4670   27.3450   35.5580 C   0  0  0  0  0  0  0  0  0  0  0  0
   38.5740   25.9060   35.4520 N   0  0  0  0  0  0  0  0  0  0  0  0
   37.7260   25.3420   34.4560 C   0  0  0  0  0  0  0  0  0  0  0  0
   37.5470   26.1920   33.2420 C   0  0  0  0  0  0  0  0  0  0  0  0
   36.8810   28.7990   35.2530 H   0  0  0  0  0  0  0  0  0  0  0  0
   36.3850   27.0390   35.3940 H   0  0  0  0  0  0  0  0  0  0  0  0
   39.3100   27.9550   35.4790 H   0  0  0  0  0  0  0  0  0  0  0  0
   38.2160   27.4630   36.6710 H   0  0  0  0  0  0  0  0  0  0  0  0
   38.5750   25.3730   36.3140 H   0  0  0  0  0  0  0  0  0  0  0  0
   36.7490   25.0860   34.9280 H   0  0  0  0  0  0  0  0  0  0  0  0
   38.1580   24.3580   34.1190 H   0  0  0  0  0  0  0  0  0  0  0  0
   36.5790   25.7920   32.8000 H   0  0  0  0  0  0  0  0  0  0  0  0
   38.2610   26.0200   32.4470 H   0  0  0  0  0  0  0  0  0  0  0  0
   34.9350   31.1540   35.1230 C   0  0  0  0  0  0  0  0  0  0  0  0
   33.6410   30.6240   35.3120 C   0  0  0  0  0  0  0  0  0  0  0  0
   33.2080   29.6390   34.4240 C   0  0  0  0  0  0  0  0  0  0  0  0
   34.0740   29.2720   33.4480 N   0  0  0  0  0  0  0  0  0  0  0  0
   35.2860   29.7770   33.2810 C   0  0  0  0  0  0  0  0  0  0  0  0
   35.7280   30.7310   34.1260 N   0  0  0  0  0  0  0  0  0  0  0  0
   32.9950   30.9450   36.0960 H   0  0  0  0  0  0  0  0  0  0  0  0
   35.3780   32.2120   36.0990 C   0  0  0  0  0  0  0  0  0  0  0  0
   34.8210   31.8980   37.3540 F   0  0  0  0  0  0  0  0  0  0  0  0
   36.7150   32.2280   36.1370 F   0  0  0  0  0  0  0  0  0  0  0  0
   34.8190   33.4060   35.7290 F   0  0  0  0  0  0  0  0  0  0  0  0
   31.8910   29.0010   34.5010 C   0  0  0  0  0  2  0  0  0  0  0  0
   31.4240   28.8770   35.9440 C   0  0  0  0  0  2  0  0  0  0  0  0
   31.4700   29.8240   36.4810 H   0  0  0  0  0  0  0  0  0  0  0  0
  1  6  1  0  0  0  0
  1 30  1  0  0  0  0
  2  1  2  0  0  0  0
  3  4  2  0  0  0  0
  3  2  1  0  0  0  0
  4  5  1  0  0  0  0
  5 10  1  0  0  0  0
  5  6  2  0  0  0  0
  6 11  1  0  0  0  0
  7  2  1  0  0  0  0
  8  3  1  0  0  0  0
  9  4  1  0  0  0  0
 11 12  1  0  0  0  0
 12 17  1  0  0  0  0
 12 18  1  0  0  0  0
 12 13  1  0  0  0  0
 13 20  1  0  0  0  0
 14 13  1  0  0  0  0
 14 21  1  0  0  0  0
 15 22  1  0  0  0  0
 15 14  1  0  0  0  0
 16 11  1  0  0  0  0
 16 15  1  0  0  0  0
 19 13  1  0  0  0  0
 23 15  1  0  0  0  0
 24 16  1  0  0  0  0
 25 16  1  0  0  0  0
 26 27  1  0  0  0  0
 26 33  1  0  0  0  0
 27 32  1  0  0  0  0
 28 37  1  0  0  0  0
 28 27  2  0  0  0  0
 29 28  1  0  0  0  0
 30 29  2  0  0  0  0
 30 31  1  0  0  0  0
 31 26  2  0  0  0  0
 33 35  1  0  0  0  0
 33 34  1  0  0  0  0
 36 33  1  0  0  0  0
 37 38  1  0  0  0  0
 38 39  1  0  0  0  0
M  END
>  <minimizedAffinity>
-5.48999643

$$$$
