
 OpenBabel03272505073D

 27 28  0  0  1  0  0  0  0  0999 V2000
   39.5330   27.1410   34.2910 C   0  0  0  0  0  0  0  0  0  0  0  0
   40.1380   26.0000   34.8310 C   0  0  0  0  0  0  0  0  0  0  0  0
   39.3070   24.8980   35.0780 C   0  0  0  0  0  0  0  0  0  0  0  0
   37.9940   25.0110   34.7790 N   0  0  0  0  0  0  0  0  0  0  0  0
   37.4580   26.1350   34.2570 C   0  0  0  0  0  0  0  0  0  0  0  0
   38.2330   27.2050   34.0110 N   0  0  0  0  0  0  0  0  0  0  0  0
   39.7150   23.6490   35.6220 N   0  0  0  0  0  0  0  0  0  0  0  0
   40.8600   22.9150   35.2180 C   0  0  0  0  0  0  0  0  0  0  0  0
   41.7120   22.3530   36.2850 C   0  0  0  0  0  0  0  0  0  0  0  0
   41.0150   21.8440   37.5010 C   0  0  0  0  0  0  0  0  0  0  0  0
   39.9270   22.8290   37.9040 C   0  0  0  0  0  0  0  0  0  0  0  0
   39.0280   22.9390   36.6680 C   0  0  1  0  0  0  0  0  0  0  0  0
   40.2310   27.9720   34.1190 H   0  0  0  0  0  0  0  0  0  0  0  0
   41.1660   25.8700   35.0820 H   0  0  0  0  0  0  0  0  0  0  0  0
   36.3930   26.1430   34.0450 H   0  0  0  0  0  0  0  0  0  0  0  0
   41.5070   23.5460   34.5570 H   0  0  0  0  0  0  0  0  0  0  0  0
   40.5210   22.0690   34.5540 H   0  0  0  0  0  0  0  0  0  0  0  0
   42.2990   21.4930   35.8510 H   0  0  0  0  0  0  0  0  0  0  0  0
   42.4840   23.1120   36.5660 H   0  0  0  0  0  0  0  0  0  0  0  0
   40.6200   20.8120   37.3870 H   0  0  0  0  0  0  0  0  0  0  0  0
   41.7500   21.8060   38.3360 H   0  0  0  0  0  0  0  0  0  0  0  0
   40.4480   23.7980   38.0800 H   0  0  0  0  0  0  0  0  0  0  0  0
   39.3700   22.5050   38.7840 H   0  0  0  0  0  0  0  0  0  0  0  0
   38.8060   21.8840   36.4040 H   0  0  0  0  0  0  0  0  0  0  0  0
   37.7260   23.5420   37.1040 C   0  0  0  0  0  2  0  0  0  0  0  0
   37.9940   24.2090   38.4600 C   0  0  0  0  0  2  0  0  0  0  0  0
   38.9070   23.7960   38.9430 H   0  0  0  0  0  0  0  0  0  0  0  0
  1  2  1  0  0  0  0
  2  3  2  0  0  0  0
  2 14  1  0  0  0  0
  3  7  1  0  0  0  0
  4  3  1  0  0  0  0
  5  4  2  0  0  0  0
  6  5  1  0  0  0  0
  6  1  2  0  0  0  0
  7 12  1  0  0  0  0
  8  7  1  0  0  0  0
  8  9  1  0  0  0  0
  9 19  1  0  0  0  0
  9 10  1  0  0  0  0
 10 11  1  0  0  0  0
 10 21  1  0  0  0  0
 11 22  1  0  0  0  0
 11 23  1  0  0  0  0
 12 24  1  6  0  0  0
 12 25  1  0  0  0  0
 12 11  1  0  0  0  0
 13  1  1  0  0  0  0
 15  5  1  0  0  0  0
 16  8  1  0  0  0  0
 17  8  1  0  0  0  0
 18  9  1  0  0  0  0
 20 10  1  0  0  0  0
 25 26  1  0  0  0  0
 26 27  1  0  0  0  0
M  END
>  <minimizedAffinity>
-4.42146111

$$$$

 OpenBabel03272505073D

 27 28  0  0  1  0  0  0  0  0999 V2000
   35.6150   23.6140   31.3150 C   0  0  0  0  0  0  0  0  0  0  0  0
   35.6010   25.0140   31.3160 C   0  0  0  0  0  0  0  0  0  0  0  0
   36.5720   25.6570   32.0950 C   0  0  0  0  0  0  0  0  0  0  0  0
   37.4490   24.8910   32.7820 N   0  0  0  0  0  0  0  0  0  0  0  0
   37.4220   23.5410   32.7470 C   0  0  0  0  0  0  0  0  0  0  0  0
   36.5000   22.9010   32.0080 N   0  0  0  0  0  0  0  0  0  0  0  0
   36.7330   27.0640   32.2370 N   0  0  0  0  0  0  0  0  0  0  0  0
   36.7160   28.0010   31.1730 C   0  0  0  0  0  0  0  0  0  0  0  0
   35.9230   29.2310   31.3690 C   0  0  0  0  0  0  0  0  0  0  0  0
   35.9200   29.8130   32.7420 C   0  0  0  0  0  0  0  0  0  0  0  0
   35.7610   28.6930   33.7610 C   0  0  0  0  0  0  0  0  0  0  0  0
   36.9370   27.7500   33.4850 C   0  0  1  0  0  0  0  0  0  0  0  0
   34.8330   23.1640   30.6890 H   0  0  0  0  0  0  0  0  0  0  0  0
   34.9300   25.6550   30.7920 H   0  0  0  0  0  0  0  0  0  0  0  0
   38.1610   23.0000   33.3280 H   0  0  0  0  0  0  0  0  0  0  0  0
   36.3590   27.5080   30.2330 H   0  0  0  0  0  0  0  0  0  0  0  0
   37.7810   28.2980   30.9460 H   0  0  0  0  0  0  0  0  0  0  0  0
   36.3220   30.0220   30.6710 H   0  0  0  0  0  0  0  0  0  0  0  0
   34.8770   29.0440   31.0210 H   0  0  0  0  0  0  0  0  0  0  0  0
   36.8060   30.4490   32.9570 H   0  0  0  0  0  0  0  0  0  0  0  0
   35.0300   30.4750   32.8400 H   0  0  0  0  0  0  0  0  0  0  0  0
   34.8020   28.1870   33.5050 H   0  0  0  0  0  0  0  0  0  0  0  0
   35.7640   29.0550   34.7900 H   0  0  0  0  0  0  0  0  0  0  0  0
   37.8210   28.4220   33.4730 H   0  0  0  0  0  0  0  0  0  0  0  0
   37.1020   26.8650   34.6840 C   0  0  0  0  0  2  0  0  0  0  0  0
   38.2190   27.4920   35.5300 C   0  0  0  0  0  2  0  0  0  0  0  0
   38.8530   28.1750   34.9230 H   0  0  0  0  0  0  0  0  0  0  0  0
  1  2  2  0  0  0  0
  1  6  1  0  0  0  0
  2  3  1  0  0  0  0
  3  7  1  0  0  0  0
  3  4  2  0  0  0  0
  5  4  1  0  0  0  0
  5 15  1  0  0  0  0
  6  5  2  0  0  0  0
  7 12  1  0  0  0  0
  8  9  1  0  0  0  0
  8  7  1  0  0  0  0
  9 10  1  0  0  0  0
 10 21  1  0  0  0  0
 10 20  1  0  0  0  0
 10 11  1  0  0  0  0
 11 23  1  0  0  0  0
 12 24  1  6  0  0  0
 12 11  1  0  0  0  0
 12 25  1  0  0  0  0
 13  1  1  0  0  0  0
 14  2  1  0  0  0  0
 16  8  1  0  0  0  0
 17  8  1  0  0  0  0
 18  9  1  0  0  0  0
 19  9  1  0  0  0  0
 22 11  1  0  0  0  0
 25 26  1  0  0  0  0
 27 26  1  0  0  0  0
M  END
>  <minimizedAffinity>
-4.26770544

$$$$

 OpenBabel03272505073D

 27 28  0  0  1  0  0  0  0  0999 V2000
   37.7990   22.2770   35.6590 C   0  0  0  0  0  0  0  0  0  0  0  0
   38.7240   23.1200   35.0320 C   0  0  0  0  0  0  0  0  0  0  0  0
   39.0220   24.3270   35.6780 C   0  0  0  0  0  0  0  0  0  0  0  0
   38.4040   24.5910   36.8510 N   0  0  0  0  0  0  0  0  0  0  0  0
   37.5180   23.7430   37.4160 C   0  0  0  0  0  0  0  0  0  0  0  0
   37.2150   22.5790   36.8160 N   0  0  0  0  0  0  0  0  0  0  0  0
   39.9280   25.3220   35.2160 N   0  0  0  0  0  0  0  0  0  0  0  0
   41.2290   25.0720   34.7090 C   0  0  0  0  0  0  0  0  0  0  0  0
   41.6190   25.7810   33.4740 C   0  0  0  0  0  0  0  0  0  0  0  0
   41.1230   27.1790   33.3200 C   0  0  0  0  0  0  0  0  0  0  0  0
   39.6640   27.2440   33.7460 C   0  0  0  0  0  0  0  0  0  0  0  0
   39.6610   26.7350   35.1920 C   0  0  1  0  0  0  0  0  0  0  0  0
   37.6040   21.3470   35.1080 H   0  0  0  0  0  0  0  0  0  0  0  0
   39.2320   22.9510   34.1100 H   0  0  0  0  0  0  0  0  0  0  0  0
   37.0660   24.0310   38.3600 H   0  0  0  0  0  0  0  0  0  0  0  0
   41.3680   23.9750   34.5340 H   0  0  0  0  0  0  0  0  0  0  0  0
   41.9770   25.3250   35.5150 H   0  0  0  0  0  0  0  0  0  0  0  0
   42.7460   25.8190   33.4310 H   0  0  0  0  0  0  0  0  0  0  0  0
   41.3200   25.1610   32.5930 H   0  0  0  0  0  0  0  0  0  0  0  0
   41.7450   27.9320   33.8510 H   0  0  0  0  0  0  0  0  0  0  0  0
   41.1630   27.4480   32.2400 H   0  0  0  0  0  0  0  0  0  0  0  0
   39.1260   26.5210   33.0900 H   0  0  0  0  0  0  0  0  0  0  0  0
   39.2450   28.2480   33.6670 H   0  0  0  0  0  0  0  0  0  0  0  0
   40.4520   27.3360   35.6880 H   0  0  0  0  0  0  0  0  0  0  0  0
   38.3650   27.1540   35.8180 C   0  0  0  0  0  2  0  0  0  0  0  0
   37.4230   27.5120   34.6610 C   0  0  0  0  0  2  0  0  0  0  0  0
   37.9900   27.7310   33.7290 H   0  0  0  0  0  0  0  0  0  0  0  0
  1  6  1  0  0  0  0
  2  1  2  0  0  0  0
  2  3  1  0  0  0  0
  3  4  2  0  0  0  0
  4  5  1  0  0  0  0
  5 15  1  0  0  0  0
  6  5  2  0  0  0  0
  7  3  1  0  0  0  0
  8  7  1  0  0  0  0
  8 17  1  0  0  0  0
  9  8  1  0  0  0  0
 10  9  1  0  0  0  0
 10 11  1  0  0  0  0
 10 20  1  0  0  0  0
 11 12  1  0  0  0  0
 12  7  1  0  0  0  0
 12 24  1  1  0  0  0
 12 25  1  0  0  0  0
 13  1  1  0  0  0  0
 14  2  1  0  0  0  0
 16  8  1  0  0  0  0
 18  9  1  0  0  0  0
 19  9  1  0  0  0  0
 21 10  1  0  0  0  0
 22 11  1  0  0  0  0
 23 11  1  0  0  0  0
 26 25  1  0  0  0  0
 27 26  1  0  0  0  0
M  END
>  <minimizedAffinity>
-4.20381832

$$$$

 OpenBabel03272505073D

 27 28  0  0  1  0  0  0  0  0999 V2000
   31.0260   27.8060   36.3590 C   0  0  0  0  0  0  0  0  0  0  0  0
   31.9790   28.8070   36.5750 C   0  0  0  0  0  0  0  0  0  0  0  0
   32.3990   29.5360   35.4540 C   0  0  0  0  0  0  0  0  0  0  0  0
   31.8580   29.2270   34.2540 N   0  0  0  0  0  0  0  0  0  0  0  0
   30.9390   28.2510   34.0970 C   0  0  0  0  0  0  0  0  0  0  0  0
   30.5210   27.5370   35.1570 N   0  0  0  0  0  0  0  0  0  0  0  0
   33.3540   30.5900   35.4520 N   0  0  0  0  0  0  0  0  0  0  0  0
   33.3920   31.6630   36.3790 C   0  0  0  0  0  0  0  0  0  0  0  0
   34.7080   32.0170   36.9470 C   0  0  0  0  0  0  0  0  0  0  0  0
   35.8810   31.9130   36.0330 C   0  0  0  0  0  0  0  0  0  0  0  0
   35.7770   30.6250   35.2290 C   0  0  0  0  0  0  0  0  0  0  0  0
   34.4300   30.7280   34.5070 C   0  0  1  0  0  0  0  0  0  0  0  0
   30.7350   27.2670   37.2710 H   0  0  0  0  0  0  0  0  0  0  0  0
   32.4310   29.0820   37.5010 H   0  0  0  0  0  0  0  0  0  0  0  0
   30.5550   28.0660   33.0990 H   0  0  0  0  0  0  0  0  0  0  0  0
   32.6940   31.4580   37.2300 H   0  0  0  0  0  0  0  0  0  0  0  0
   32.9640   32.5780   35.8780 H   0  0  0  0  0  0  0  0  0  0  0  0
   34.6590   33.0850   37.3080 H   0  0  0  0  0  0  0  0  0  0  0  0
   34.8770   31.4110   37.8710 H   0  0  0  0  0  0  0  0  0  0  0  0
   36.0160   32.8010   35.3800 H   0  0  0  0  0  0  0  0  0  0  0  0
   36.8030   31.8390   36.6540 H   0  0  0  0  0  0  0  0  0  0  0  0
   35.7410   29.8020   35.9800 H   0  0  0  0  0  0  0  0  0  0  0  0
   36.6050   30.4950   34.5300 H   0  0  0  0  0  0  0  0  0  0  0  0
   34.4610   31.7280   34.0250 H   0  0  0  0  0  0  0  0  0  0  0  0
   34.4350   29.7280   33.3900 C   0  0  0  0  0  2  0  0  0  0  0  0
   35.7840   29.0020   33.4680 C   0  0  0  0  0  2  0  0  0  0  0  0
   36.5330   29.5960   34.0380 H   0  0  0  0  0  0  0  0  0  0  0  0
  1  2  1  0  0  0  0
  1 13  1  0  0  0  0
  2 14  1  0  0  0  0
  3  2  2  0  0  0  0
  4  3  1  0  0  0  0
  5  4  2  0  0  0  0
  5  6  1  0  0  0  0
  6  1  2  0  0  0  0
  7  3  1  0  0  0  0
  7  8  1  0  0  0  0
  8  9  1  0  0  0  0
  8 16  1  0  0  0  0
  9 18  1  0  0  0  0
  9 19  1  0  0  0  0
 10 21  1  0  0  0  0
 10  9  1  0  0  0  0
 11 22  1  0  0  0  0
 11 10  1  0  0  0  0
 12 24  1  6  0  0  0
 12 11  1  0  0  0  0
 12  7  1  0  0  0  0
 15  5  1  0  0  0  0
 17  8  1  0  0  0  0
 20 10  1  0  0  0  0
 23 11  1  0  0  0  0
 25 26  1  0  0  0  0
 25 12  1  0  0  0  0
 26 27  1  0  0  0  0
M  END
>  <minimizedAffinity>
-4.18075848

$$$$

 OpenBabel03272505073D

 27 28  0  0  1  0  0  0  0  0999 V2000
   38.1220   24.0170   38.1990 C   0  0  0  0  0  0  0  0  0  0  0  0
   37.9740   24.7010   36.9870 C   0  0  0  0  0  0  0  0  0  0  0  0
   38.9100   24.4220   35.9830 C   0  0  0  0  0  0  0  0  0  0  0  0
   39.8800   23.5180   36.2490 N   0  0  0  0  0  0  0  0  0  0  0  0
   39.9800   22.8830   37.4360 C   0  0  0  0  0  0  0  0  0  0  0  0
   39.0940   23.1340   38.4160 N   0  0  0  0  0  0  0  0  0  0  0  0
   38.9430   25.0040   34.6850 N   0  0  0  0  0  0  0  0  0  0  0  0
   37.8210   25.1690   33.8330 C   0  0  0  0  0  0  0  0  0  0  0  0
   37.6720   26.4740   33.1590 C   0  0  0  0  0  0  0  0  0  0  0  0
   38.9280   27.1420   32.7100 C   0  0  0  0  0  0  0  0  0  0  0  0
   39.9790   27.0220   33.8030 C   0  0  0  0  0  0  0  0  0  0  0  0
   40.1220   25.5140   34.0380 C   0  0  1  0  0  0  0  0  0  0  0  0
   37.3620   24.2750   38.9490 H   0  0  0  0  0  0  0  0  0  0  0  0
   37.2270   25.4190   36.7370 H   0  0  0  0  0  0  0  0  0  0  0  0
   40.7890   22.1720   37.5690 H   0  0  0  0  0  0  0  0  0  0  0  0
   36.8770   24.9650   34.4000 H   0  0  0  0  0  0  0  0  0  0  0  0
   37.8540   24.3640   33.0440 H   0  0  0  0  0  0  0  0  0  0  0  0
   37.0270   26.3270   32.2460 H   0  0  0  0  0  0  0  0  0  0  0  0
   37.0820   27.1560   33.8200 H   0  0  0  0  0  0  0  0  0  0  0  0
   39.3020   26.7710   31.7310 H   0  0  0  0  0  0  0  0  0  0  0  0
   38.7180   28.2270   32.5730 H   0  0  0  0  0  0  0  0  0  0  0  0
   39.5330   27.5040   34.7040 H   0  0  0  0  0  0  0  0  0  0  0  0
   40.9290   27.4830   33.5290 H   0  0  0  0  0  0  0  0  0  0  0  0
   40.2750   25.0990   33.0200 H   0  0  0  0  0  0  0  0  0  0  0  0
   41.4080   25.2890   34.7770 C   0  0  0  0  0  2  0  0  0  0  0  0
   42.4010   26.3260   34.2350 C   0  0  0  0  0  2  0  0  0  0  0  0
   42.0860   26.7110   33.2410 H   0  0  0  0  0  0  0  0  0  0  0  0
  1  6  1  0  0  0  0
  1 13  1  0  0  0  0
  2  1  2  0  0  0  0
  3  4  2  0  0  0  0
  3  2  1  0  0  0  0
  4  5  1  0  0  0  0
  5 15  1  0  0  0  0
  5  6  2  0  0  0  0
  7  3  1  0  0  0  0
  8 16  1  0  0  0  0
  8  7  1  0  0  0  0
  9 19  1  0  0  0  0
  9  8  1  0  0  0  0
 10  9  1  0  0  0  0
 10 11  1  0  0  0  0
 11 12  1  0  0  0  0
 11 22  1  0  0  0  0
 12 24  1  6  0  0  0
 12  7  1  0  0  0  0
 12 25  1  0  0  0  0
 14  2  1  0  0  0  0
 17  8  1  0  0  0  0
 18  9  1  0  0  0  0
 20 10  1  0  0  0  0
 21 10  1  0  0  0  0
 23 11  1  0  0  0  0
 26 25  1  0  0  0  0
 27 26  1  0  0  0  0
M  END
>  <minimizedAffinity>
-4.06174517

$$$$

 OpenBabel03272505073D

 27 28  0  0  1  0  0  0  0  0999 V2000
   36.3850   22.7870   31.7940 C   0  0  0  0  0  0  0  0  0  0  0  0
   37.0750   23.8840   32.3230 C   0  0  0  0  0  0  0  0  0  0  0  0
   37.8510   23.6540   33.4670 C   0  0  0  0  0  0  0  0  0  0  0  0
   37.8800   22.4020   33.9760 N   0  0  0  0  0  0  0  0  0  0  0  0
   37.1950   21.3750   33.4280 C   0  0  0  0  0  0  0  0  0  0  0  0
   36.4450   21.5700   32.3300 N   0  0  0  0  0  0  0  0  0  0  0  0
   38.6260   24.6250   34.1610 N   0  0  0  0  0  0  0  0  0  0  0  0
   39.4930   25.5670   33.5520 C   0  0  0  0  0  0  0  0  0  0  0  0
   39.4200   26.9610   34.0340 C   0  0  0  0  0  0  0  0  0  0  0  0
   39.1800   27.1530   35.4930 C   0  0  0  0  0  0  0  0  0  0  0  0
   38.1030   26.1830   35.9560 C   0  0  0  0  0  0  0  0  0  0  0  0
   38.6460   24.7980   35.5890 C   0  0  1  0  0  0  0  0  0  0  0  0
   35.7940   23.0250   30.8990 H   0  0  0  0  0  0  0  0  0  0  0  0
   37.0790   24.8850   31.9550 H   0  0  0  0  0  0  0  0  0  0  0  0
   37.2730   20.4000   33.8990 H   0  0  0  0  0  0  0  0  0  0  0  0
   39.3310   25.5770   32.4440 H   0  0  0  0  0  0  0  0  0  0  0  0
   40.5540   25.2040   33.6780 H   0  0  0  0  0  0  0  0  0  0  0  0
   40.3950   27.4710   33.7850 H   0  0  0  0  0  0  0  0  0  0  0  0
   38.6500   27.5080   33.4350 H   0  0  0  0  0  0  0  0  0  0  0  0
   40.1020   27.0760   36.1080 H   0  0  0  0  0  0  0  0  0  0  0  0
   38.7850   28.1830   35.6500 H   0  0  0  0  0  0  0  0  0  0  0  0
   37.2040   26.4120   35.3380 H   0  0  0  0  0  0  0  0  0  0  0  0
   37.8890   26.2670   37.0230 H   0  0  0  0  0  0  0  0  0  0  0  0
   39.6730   24.7930   36.0130 H   0  0  0  0  0  0  0  0  0  0  0  0
   37.8680   23.7820   36.3700 C   0  0  0  0  0  2  0  0  0  0  0  0
   38.0280   24.1620   37.8480 C   0  0  0  0  0  2  0  0  0  0  0  0
   38.9170   24.8110   38.0080 H   0  0  0  0  0  0  0  0  0  0  0  0
  1  2  2  0  0  0  0
  1  6  1  0  0  0  0
  2  3  1  0  0  0  0
  3  4  2  0  0  0  0
  3  7  1  0  0  0  0
  5 15  1  0  0  0  0
  5  4  1  0  0  0  0
  6  5  2  0  0  0  0
  7 12  1  0  0  0  0
  8 17  1  0  0  0  0
  8  9  1  0  0  0  0
  8  7  1  0  0  0  0
  9 10  1  0  0  0  0
 10 21  1  0  0  0  0
 10 11  1  0  0  0  0
 10 20  1  0  0  0  0
 11 23  1  0  0  0  0
 12 11  1  0  0  0  0
 12 24  1  1  0  0  0
 12 25  1  0  0  0  0
 13  1  1  0  0  0  0
 14  2  1  0  0  0  0
 16  8  1  0  0  0  0
 18  9  1  0  0  0  0
 19  9  1  0  0  0  0
 22 11  1  0  0  0  0
 25 26  1  0  0  0  0
 26 27  1  0  0  0  0
M  END
>  <minimizedAffinity>
-4.02268791

$$$$

 OpenBabel03272505073D

 27 28  0  0  1  0  0  0  0  0999 V2000
   38.6760   22.1340   35.9210 C   0  0  0  0  0  0  0  0  0  0  0  0
   38.0690   23.0100   35.0140 C   0  0  0  0  0  0  0  0  0  0  0  0
   38.8490   24.0730   34.5390 C   0  0  0  0  0  0  0  0  0  0  0  0
   40.1220   24.1780   34.9840 N   0  0  0  0  0  0  0  0  0  0  0  0
   40.6620   23.3050   35.8610 C   0  0  0  0  0  0  0  0  0  0  0  0
   39.9340   22.2770   36.3310 N   0  0  0  0  0  0  0  0  0  0  0  0
   38.4290   25.0730   33.6180 N   0  0  0  0  0  0  0  0  0  0  0  0
   37.7190   24.8310   32.4150 C   0  0  0  0  0  0  0  0  0  0  0  0
   36.5680   25.7080   32.1230 C   0  0  0  0  0  0  0  0  0  0  0  0
   36.7020   27.1400   32.5160 C   0  0  0  0  0  0  0  0  0  0  0  0
   37.3260   27.2240   33.9010 C   0  0  0  0  0  0  0  0  0  0  0  0
   38.6620   26.4840   33.7690 C   0  0  1  0  0  0  0  0  0  0  0  0
   38.0180   21.3220   36.2590 H   0  0  0  0  0  0  0  0  0  0  0  0
   37.0720   22.9650   34.6390 H   0  0  0  0  0  0  0  0  0  0  0  0
   41.6920   23.4600   36.1680 H   0  0  0  0  0  0  0  0  0  0  0  0
   37.3580   23.7710   32.3890 H   0  0  0  0  0  0  0  0  0  0  0  0
   38.4460   24.9010   31.5550 H   0  0  0  0  0  0  0  0  0  0  0  0
   36.3800   25.6830   31.0100 H   0  0  0  0  0  0  0  0  0  0  0  0
   35.6500   25.2620   32.5780 H   0  0  0  0  0  0  0  0  0  0  0  0
   37.2540   27.7550   31.7730 H   0  0  0  0  0  0  0  0  0  0  0  0
   35.6810   27.5810   32.5880 H   0  0  0  0  0  0  0  0  0  0  0  0
   36.6440   26.6540   34.5740 H   0  0  0  0  0  0  0  0  0  0  0  0
   37.4620   28.2510   34.2420 H   0  0  0  0  0  0  0  0  0  0  0  0
   39.1340   26.9450   32.8750 H   0  0  0  0  0  0  0  0  0  0  0  0
   39.5150   26.8730   34.9380 C   0  0  0  0  0  2  0  0  0  0  0  0
   38.5500   27.3080   36.0490 C   0  0  0  0  0  2  0  0  0  0  0  0
   37.5530   27.5790   35.6380 H   0  0  0  0  0  0  0  0  0  0  0  0
  1 13  1  0  0  0  0
  1  6  1  0  0  0  0
  2  1  2  0  0  0  0
  3  4  2  0  0  0  0
  3  2  1  0  0  0  0
  4  5  1  0  0  0  0
  5 15  1  0  0  0  0
  5  6  2  0  0  0  0
  7 12  1  0  0  0  0
  7  3  1  0  0  0  0
  8  7  1  0  0  0  0
  9  8  1  0  0  0  0
  9 10  1  0  0  0  0
  9 19  1  0  0  0  0
 10 21  1  0  0  0  0
 10 11  1  0  0  0  0
 11 23  1  0  0  0  0
 11 22  1  0  0  0  0
 12 24  1  6  0  0  0
 12 11  1  0  0  0  0
 12 25  1  0  0  0  0
 14  2  1  0  0  0  0
 16  8  1  0  0  0  0
 17  8  1  0  0  0  0
 18  9  1  0  0  0  0
 20 10  1  0  0  0  0
 25 26  1  0  0  0  0
 27 26  1  0  0  0  0
M  END
>  <minimizedAffinity>
-3.97403002

$$$$

 OpenBabel03272505073D

 27 28  0  0  1  0  0  0  0  0999 V2000
   38.2100   23.1370   36.4480 C   0  0  0  0  0  0  0  0  0  0  0  0
   37.8590   22.3280   35.3610 C   0  0  0  0  0  0  0  0  0  0  0  0
   37.9940   22.8880   34.0830 C   0  0  0  0  0  0  0  0  0  0  0  0
   38.4500   24.1570   33.9890 N   0  0  0  0  0  0  0  0  0  0  0  0
   38.7770   24.8980   35.0700 C   0  0  0  0  0  0  0  0  0  0  0  0
   38.6570   24.3830   36.3060 N   0  0  0  0  0  0  0  0  0  0  0  0
   37.6930   22.2430   32.8510 N   0  0  0  0  0  0  0  0  0  0  0  0
   38.0800   20.9240   32.5020 C   0  0  0  0  0  0  0  0  0  0  0  0
   37.0540   20.0630   31.8810 C   0  0  0  0  0  0  0  0  0  0  0  0
   36.1020   20.7260   30.9440 C   0  0  0  0  0  0  0  0  0  0  0  0
   35.6510   22.0500   31.5410 C   0  0  0  0  0  0  0  0  0  0  0  0
   36.9490   22.8330   31.7710 C   0  0  1  0  0  0  0  0  0  0  0  0
   38.0850   22.6470   37.4230 H   0  0  0  0  0  0  0  0  0  0  0  0
   37.4960   21.3260   35.3910 H   0  0  0  0  0  0  0  0  0  0  0  0
   39.1360   25.9090   34.9070 H   0  0  0  0  0  0  0  0  0  0  0  0
   38.4770   20.3900   33.4030 H   0  0  0  0  0  0  0  0  0  0  0  0
   38.9610   20.9880   31.8020 H   0  0  0  0  0  0  0  0  0  0  0  0
   37.5810   19.2500   31.3030 H   0  0  0  0  0  0  0  0  0  0  0  0
   36.4980   19.5250   32.6880 H   0  0  0  0  0  0  0  0  0  0  0  0
   36.5040   20.8480   29.9150 H   0  0  0  0  0  0  0  0  0  0  0  0
   35.1970   20.0820   30.8500 H   0  0  0  0  0  0  0  0  0  0  0  0
   35.1850   21.7960   32.5210 H   0  0  0  0  0  0  0  0  0  0  0  0
   34.9590   22.5920   30.8950 H   0  0  0  0  0  0  0  0  0  0  0  0
   37.4740   22.7690   30.7950 H   0  0  0  0  0  0  0  0  0  0  0  0
   36.5840   24.2750   31.9550 C   0  0  0  0  0  2  0  0  0  0  0  0
   35.3000   24.5010   31.1440 C   0  0  0  0  0  2  0  0  0  0  0  0
   35.1670   23.7160   30.3680 H   0  0  0  0  0  0  0  0  0  0  0  0
  1 13  1  0  0  0  0
  2 14  1  0  0  0  0
  2  1  2  0  0  0  0
  3  2  1  0  0  0  0
  4  3  2  0  0  0  0
  4  5  1  0  0  0  0
  5  6  2  0  0  0  0
  6  1  1  0  0  0  0
  7  3  1  0  0  0  0
  8  7  1  0  0  0  0
  8 16  1  0  0  0  0
  9  8  1  0  0  0  0
  9 19  1  0  0  0  0
 10 11  1  0  0  0  0
 10  9  1  0  0  0  0
 11 12  1  0  0  0  0
 11 22  1  0  0  0  0
 12 24  1  6  0  0  0
 12 25  1  0  0  0  0
 12  7  1  0  0  0  0
 15  5  1  0  0  0  0
 17  8  1  0  0  0  0
 18  9  1  0  0  0  0
 20 10  1  0  0  0  0
 21 10  1  0  0  0  0
 23 11  1  0  0  0  0
 26 25  1  0  0  0  0
 27 26  1  0  0  0  0
M  END
>  <minimizedAffinity>
-3.8672936

$$$$

 OpenBabel03272505073D

 27 28  0  0  1  0  0  0  0  0999 V2000
   35.6020   24.1310   31.3170 C   0  0  0  0  0  0  0  0  0  0  0  0
   36.6030   24.9290   31.8820 C   0  0  0  0  0  0  0  0  0  0  0  0
   37.5330   24.2880   32.7110 C   0  0  0  0  0  0  0  0  0  0  0  0
   37.4020   22.9570   32.9050 N   0  0  0  0  0  0  0  0  0  0  0  0
   36.4180   22.2290   32.3360 C   0  0  0  0  0  0  0  0  0  0  0  0
   35.5130   22.8210   31.5360 N   0  0  0  0  0  0  0  0  0  0  0  0
   38.6230   24.9090   33.3820 N   0  0  0  0  0  0  0  0  0  0  0  0
   39.5230   25.8360   32.7970 C   0  0  0  0  0  0  0  0  0  0  0  0
   39.8480   27.0460   33.5780 C   0  0  0  0  0  0  0  0  0  0  0  0
   39.9630   26.8780   35.0550 C   0  0  0  0  0  0  0  0  0  0  0  0
   38.8260   25.9960   35.5500 C   0  0  0  0  0  0  0  0  0  0  0  0
   38.9760   24.6920   34.7590 C   0  0  1  0  0  0  0  0  0  0  0  0
   34.9020   24.6850   30.6770 H   0  0  0  0  0  0  0  0  0  0  0  0
   36.7410   25.9790   31.7560 H   0  0  0  0  0  0  0  0  0  0  0  0
   36.3830   21.1640   32.5430 H   0  0  0  0  0  0  0  0  0  0  0  0
   39.1400   26.1640   31.7980 H   0  0  0  0  0  0  0  0  0  0  0  0
   40.4850   25.2950   32.5650 H   0  0  0  0  0  0  0  0  0  0  0  0
   40.8350   27.4490   33.2090 H   0  0  0  0  0  0  0  0  0  0  0  0
   39.1040   27.8440   33.3320 H   0  0  0  0  0  0  0  0  0  0  0  0
   40.9560   26.5010   35.3830 H   0  0  0  0  0  0  0  0  0  0  0  0
   39.8360   27.8770   35.5330 H   0  0  0  0  0  0  0  0  0  0  0  0
   37.8880   26.5160   35.2470 H   0  0  0  0  0  0  0  0  0  0  0  0
   38.8620   25.8250   36.6270 H   0  0  0  0  0  0  0  0  0  0  0  0
   40.0440   24.4190   34.8970 H   0  0  0  0  0  0  0  0  0  0  0  0
   38.1810   23.6360   35.4680 C   0  0  0  0  0  2  0  0  0  0  0  0
   39.1660   22.9030   36.3890 C   0  0  0  0  0  2  0  0  0  0  0  0
   40.2180   23.0530   36.0610 H   0  0  0  0  0  0  0  0  0  0  0  0
  1  6  2  0  0  0  0
  1  2  1  0  0  0  0
  2  3  2  0  0  0  0
  3  4  1  0  0  0  0
  3  7  1  0  0  0  0
  5 15  1  0  0  0  0
  5  4  2  0  0  0  0
  6  5  1  0  0  0  0
  7 12  1  0  0  0  0
  8  7  1  0  0  0  0
  8  9  1  0  0  0  0
  9 10  1  0  0  0  0
 10 20  1  0  0  0  0
 10 21  1  0  0  0  0
 10 11  1  0  0  0  0
 11 23  1  0  0  0  0
 12 24  1  1  0  0  0
 12 25  1  0  0  0  0
 12 11  1  0  0  0  0
 13  1  1  0  0  0  0
 14  2  1  0  0  0  0
 16  8  1  0  0  0  0
 17  8  1  0  0  0  0
 18  9  1  0  0  0  0
 19  9  1  0  0  0  0
 22 11  1  0  0  0  0
 25 26  1  0  0  0  0
 27 26  1  0  0  0  0
M  END
>  <minimizedAffinity>
-3.84918761

$$$$
