
 OpenBabel03272509493D

 27 28  0  0  0  0  0  0  0  0999 V2000
   33.7220   28.6060   48.7000 C   0  0  0  0  0  0  0  0  0  0  0  0
   34.2840   28.9330   47.7840 H   0  0  0  0  0  0  0  0  0  0  0  0
   33.1030   29.4250   49.1300 H   0  0  0  0  0  0  0  0  0  0  0  0
   32.8060   27.4620   48.3480 C   0  0  0  0  0  0  0  0  0  0  0  0
   33.0980   27.0550   47.3410 H   0  0  0  0  0  0  0  0  0  0  0  0
   32.9520   26.6320   49.0800 H   0  0  0  0  0  0  0  0  0  0  0  0
   31.3810   27.8600   48.3520 C   0  0  0  0  0  0  0  0  0  0  0  0
   30.6930   27.7300   49.5440 C   0  0  0  0  0  0  0  0  0  0  0  0
   29.3650   28.0730   49.6480 C   0  0  0  0  0  0  0  0  0  0  0  0
   28.7010   28.5460   48.5850 N   0  0  0  0  0  0  0  0  0  0  0  0
   29.3890   28.6700   47.4160 C   0  0  0  0  0  0  0  0  0  0  0  0
   30.6820   28.3420   47.2920 N   0  0  0  0  0  0  0  0  0  0  0  0
   31.1150   27.3610   50.4710 H   0  0  0  0  0  0  0  0  0  0  0  0
   28.7820   27.9900   50.5550 H   0  0  0  0  0  0  0  0  0  0  0  0
   29.0120   29.0340   46.4610 H   0  0  0  0  0  0  0  0  0  0  0  0
   34.6230   28.2010   49.7240 O   0  0  0  0  0  0  0  0  0  0  0  0
   37.2200   30.1730   51.3100 C   0  0  0  0  0  0  0  0  0  0  0  0
   37.9000   30.6420   50.1630 C   0  0  0  0  0  0  0  0  0  0  0  0
   37.4160   30.2450   48.9220 C   0  0  0  0  0  0  0  0  0  0  0  0
   36.3210   29.4330   48.8800 N   0  0  0  0  0  0  0  0  0  0  0  0
   35.6990   29.0070   49.9970 C   0  0  0  0  0  0  0  0  0  0  0  0
   36.1620   29.3860   51.1980 N   0  0  0  0  0  0  0  0  0  0  0  0
   37.6210   30.4990   52.2600 H   0  0  0  0  0  0  0  0  0  0  0  0
   38.7750   31.2890   50.1640 H   0  0  0  0  0  0  0  0  0  0  0  0
   38.0760   30.6950   47.6460 C   0  0  0  0  0  2  0  0  0  0  0  0
   38.7690   32.0240   47.8040 C   0  0  0  0  0  2  0  0  0  0  0  0
   38.1300   32.8780   47.5160 H   0  0  0  0  0  0  0  0  0  0  0  0
  1  3  1  0  0  0  0
  1 16  1  0  0  0  0
  2  1  1  0  0  0  0
  4  7  1  0  0  0  0
  4  1  1  0  0  0  0
  4  6  1  0  0  0  0
  5  4  1  0  0  0  0
  7  8  1  0  0  0  0
  8  9  2  0  0  0  0
  8 13  1  0  0  0  0
  9 14  1  0  0  0  0
 10  9  1  0  0  0  0
 11 10  2  0  0  0  0
 12 11  1  0  0  0  0
 12  7  2  0  0  0  0
 15 11  1  0  0  0  0
 16 21  1  0  0  0  0
 17 23  1  0  0  0  0
 18 24  1  0  0  0  0
 18 17  2  0  0  0  0
 19 18  1  0  0  0  0
 20 19  2  0  0  0  0
 20 21  1  0  0  0  0
 21 22  2  0  0  0  0
 22 17  1  0  0  0  0
 25 26  1  0  0  0  0
 25 19  1  0  0  0  0
 27 26  1  0  0  0  0
M  END
>  <minimizedAffinity>
-4.97040987

>  <minimizedRMSD>
0.276862115

$$$$
