
 OpenBabel03272509493D

 27 28  0  0  0  0  0  0  0  0999 V2000
   33.7250   28.6090   48.7000 C   0  0  0  0  0  0  0  0  0  0  0  0
   34.2880   28.9360   47.7850 H   0  0  0  0  0  0  0  0  0  0  0  0
   33.1050   29.4270   49.1290 H   0  0  0  0  0  0  0  0  0  0  0  0
   32.8100   27.4640   48.3460 C   0  0  0  0  0  0  0  0  0  0  0  0
   33.1020   27.0590   47.3390 H   0  0  0  0  0  0  0  0  0  0  0  0
   32.9560   26.6340   49.0770 H   0  0  0  0  0  0  0  0  0  0  0  0
   31.3840   27.8610   48.3500 C   0  0  0  0  0  0  0  0  0  0  0  0
   30.6960   27.7320   49.5420 C   0  0  0  0  0  0  0  0  0  0  0  0
   29.3690   28.0740   49.6470 C   0  0  0  0  0  0  0  0  0  0  0  0
   28.7040   28.5450   48.5840 N   0  0  0  0  0  0  0  0  0  0  0  0
   29.3910   28.6690   47.4150 C   0  0  0  0  0  0  0  0  0  0  0  0
   30.6850   28.3420   47.2910 N   0  0  0  0  0  0  0  0  0  0  0  0
   31.1200   27.3630   50.4700 H   0  0  0  0  0  0  0  0  0  0  0  0
   28.7860   27.9910   50.5550 H   0  0  0  0  0  0  0  0  0  0  0  0
   29.0140   29.0330   46.4600 H   0  0  0  0  0  0  0  0  0  0  0  0
   34.6240   28.2040   49.7250 O   0  0  0  0  0  0  0  0  0  0  0  0
   37.2190   30.1800   51.3090 C   0  0  0  0  0  0  0  0  0  0  0  0
   37.9060   30.6390   50.1620 C   0  0  0  0  0  0  0  0  0  0  0  0
   37.4270   30.2350   48.9210 C   0  0  0  0  0  0  0  0  0  0  0  0
   36.3300   29.4260   48.8800 N   0  0  0  0  0  0  0  0  0  0  0  0
   35.7010   29.0090   49.9970 C   0  0  0  0  0  0  0  0  0  0  0  0
   36.1600   29.3960   51.1980 N   0  0  0  0  0  0  0  0  0  0  0  0
   37.6160   30.5120   52.2590 H   0  0  0  0  0  0  0  0  0  0  0  0
   38.7820   31.2850   50.1630 H   0  0  0  0  0  0  0  0  0  0  0  0
   38.0940   30.6740   47.6460 C   0  0  0  0  0  2  0  0  0  0  0  0
   37.1120   30.8160   46.5120 C   0  0  0  0  0  2  0  0  0  0  0  0
   37.0320   29.9020   45.8970 H   0  0  0  0  0  0  0  0  0  0  0  0
  1  3  1  0  0  0  0
  1 16  1  0  0  0  0
  2  1  1  0  0  0  0
  4  7  1  0  0  0  0
  4  1  1  0  0  0  0
  4  6  1  0  0  0  0
  5  4  1  0  0  0  0
  7  8  1  0  0  0  0
  8  9  2  0  0  0  0
  8 13  1  0  0  0  0
  9 14  1  0  0  0  0
 10  9  1  0  0  0  0
 11 10  2  0  0  0  0
 12 11  1  0  0  0  0
 12  7  2  0  0  0  0
 15 11  1  0  0  0  0
 16 21  1  0  0  0  0
 17 23  1  0  0  0  0
 18 24  1  0  0  0  0
 18 17  2  0  0  0  0
 19 18  1  0  0  0  0
 20 19  2  0  0  0  0
 20 21  1  0  0  0  0
 21 22  2  0  0  0  0
 22 17  1  0  0  0  0
 25 19  1  0  0  0  0
 26 25  1  0  0  0  0
 27 26  1  0  0  0  0
M  END
>  <minimizedAffinity>
-4.87029457

>  <minimizedRMSD>
0.176404148

$$$$
