
 OpenBabel03272509503D

 27 28  0  0  0  0  0  0  0  0999 V2000
   33.7770   28.6260   48.7180 C   0  0  0  0  0  0  0  0  0  0  0  0
   34.3450   28.9510   47.8050 H   0  0  0  0  0  0  0  0  0  0  0  0
   33.1490   29.4430   49.1380 H   0  0  0  0  0  0  0  0  0  0  0  0
   32.8710   27.4740   48.3650 C   0  0  0  0  0  0  0  0  0  0  0  0
   33.2060   27.0300   47.3870 H   0  0  0  0  0  0  0  0  0  0  0  0
   32.9780   26.6700   49.1320 H   0  0  0  0  0  0  0  0  0  0  0  0
   31.4500   27.8780   48.2880 C   0  0  0  0  0  0  0  0  0  0  0  0
   30.6870   27.7220   49.4310 C   0  0  0  0  0  0  0  0  0  0  0  0
   29.3560   28.0690   49.4600 C   0  0  0  0  0  0  0  0  0  0  0  0
   28.7620   28.5700   48.3690 N   0  0  0  0  0  0  0  0  0  0  0  0
   29.5230   28.7210   47.2490 C   0  0  0  0  0  0  0  0  0  0  0  0
   30.8210   28.3900   47.2000 N   0  0  0  0  0  0  0  0  0  0  0  0
   31.0490   27.3280   50.3740 H   0  0  0  0  0  0  0  0  0  0  0  0
   28.7170   27.9650   50.3260 H   0  0  0  0  0  0  0  0  0  0  0  0
   29.2080   29.1100   46.2820 H   0  0  0  0  0  0  0  0  0  0  0  0
   34.6710   28.2330   49.7520 O   0  0  0  0  0  0  0  0  0  0  0  0
   37.2910   30.1940   51.3130 C   0  0  0  0  0  0  0  0  0  0  0  0
   37.9580   30.6660   50.1590 C   0  0  0  0  0  0  0  0  0  0  0  0
   37.4580   30.2750   48.9230 C   0  0  0  0  0  0  0  0  0  0  0  0
   36.3610   29.4650   48.8920 N   0  0  0  0  0  0  0  0  0  0  0  0
   35.7520   29.0360   50.0150 C   0  0  0  0  0  0  0  0  0  0  0  0
   36.2310   29.4100   51.2110 N   0  0  0  0  0  0  0  0  0  0  0  0
   37.7040   30.5150   52.2600 H   0  0  0  0  0  0  0  0  0  0  0  0
   38.8330   31.3120   50.1530 H   0  0  0  0  0  0  0  0  0  0  0  0
   38.1020   30.7290   47.6410 C   0  0  0  0  0  2  0  0  0  0  0  0
   38.7750   32.0690   47.7880 C   0  0  0  0  0  2  0  0  0  0  0  0
   38.1220   32.9130   47.5000 H   0  0  0  0  0  0  0  0  0  0  0  0
  1  3  1  0  0  0  0
  1 16  1  0  0  0  0
  2  1  1  0  0  0  0
  4  1  1  0  0  0  0
  4  6  1  0  0  0  0
  5  4  1  0  0  0  0
  7  4  1  0  0  0  0
  7  8  1  0  0  0  0
  8  9  2  0  0  0  0
  8 13  1  0  0  0  0
  9 14  1  0  0  0  0
 10  9  1  0  0  0  0
 11 10  2  0  0  0  0
 12 11  1  0  0  0  0
 12  7  2  0  0  0  0
 15 11  1  0  0  0  0
 16 21  1  0  0  0  0
 17 23  1  0  0  0  0
 18 17  2  0  0  0  0
 19 18  1  0  0  0  0
 20 19  2  0  0  0  0
 20 21  1  0  0  0  0
 21 22  2  0  0  0  0
 22 17  1  0  0  0  0
 24 18  1  0  0  0  0
 25 26  1  0  0  0  0
 25 19  1  0  0  0  0
 27 26  1  0  0  0  0
M  END
>  <minimizedAffinity>
-4.98013783

>  <minimizedRMSD>
0.276130199

$$$$
