
 OpenBabel03272504313D

 26 27  0  0  0  0  0  0  0  0999 V2000
   38.2960   23.4560   36.0850 N   0  0  0  0  0  0  0  0  0  0  0  0
   37.7140   23.6130   37.4070 C   0  0  0  0  0  0  0  0  0  0  0  0
   38.6700   23.3960   38.5190 C   0  0  0  0  0  0  0  0  0  0  0  0
   39.7490   22.5000   38.2980 N   0  0  0  0  0  0  0  0  0  0  0  0
   40.3060   22.5840   36.9540 C   0  0  0  0  0  0  0  0  0  0  0  0
   39.1570   22.3050   36.0270 C   0  0  0  0  0  0  0  0  0  0  0  0
   37.3240   24.6710   37.4670 H   0  0  0  0  0  0  0  0  0  0  0  0
   36.7960   22.9970   37.5150 H   0  0  0  0  0  0  0  0  0  0  0  0
   38.1020   23.0180   39.3970 H   0  0  0  0  0  0  0  0  0  0  0  0
   39.0720   24.3950   38.8650 H   0  0  0  0  0  0  0  0  0  0  0  0
   40.5320   22.7470   38.9440 H   0  0  0  0  0  0  0  0  0  0  0  0
   41.0570   21.7540   36.8660 H   0  0  0  0  0  0  0  0  0  0  0  0
   40.7530   23.5580   36.7380 H   0  0  0  0  0  0  0  0  0  0  0  0
   39.4500   22.0620   34.9880 H   0  0  0  0  0  0  0  0  0  0  0  0
   38.5890   21.4170   36.4060 H   0  0  0  0  0  0  0  0  0  0  0  0
   38.0330   24.3400   34.9990 C   0  0  0  0  0  0  0  0  0  0  0  0
   38.1640   23.9630   33.6580 C   0  0  0  0  0  0  0  0  0  0  0  0
   37.8800   24.9150   32.6690 C   0  0  0  0  0  0  0  0  0  0  0  0
   37.4910   26.1560   33.0640 N   0  0  0  0  0  0  0  0  0  0  0  0
   37.3770   26.4800   34.3820 C   0  0  0  0  0  0  0  0  0  0  0  0
   37.6420   25.5920   35.3570 N   0  0  0  0  0  0  0  0  0  0  0  0
   38.4730   22.9720   33.4320 H   0  0  0  0  0  0  0  0  0  0  0  0
   37.9700   24.6590   31.6290 H   0  0  0  0  0  0  0  0  0  0  0  0
   36.9480   27.8530   34.7260 C   0  0  0  0  0  2  0  0  0  0  0  0
   36.2230   28.4270   33.5090 C   0  0  0  0  0  2  0  0  0  0  0  0
   36.9630   28.7290   32.7220 H   0  0  0  0  0  0  0  0  0  0  0  0
  1  2  1  0  0  0  0
  2  7  1  0  0  0  0
  2  8  1  0  0  0  0
  2  3  1  0  0  0  0
  3 10  1  0  0  0  0
  3  9  1  0  0  0  0
  4  3  1  0  0  0  0
  4 11  1  0  0  0  0
  5  4  1  0  0  0  0
  6  1  1  0  0  0  0
  6 15  1  0  0  0  0
  6  5  1  0  0  0  0
 12  5  1  0  0  0  0
 13  5  1  0  0  0  0
 14  6  1  0  0  0  0
 16 21  1  0  0  0  0
 16  1  1  0  0  0  0
 17 16  2  0  0  0  0
 18 19  2  0  0  0  0
 18 17  1  0  0  0  0
 19 20  1  0  0  0  0
 20 24  1  0  0  0  0
 20 21  2  0  0  0  0
 22 17  1  0  0  0  0
 23 18  1  0  0  0  0
 25 24  1  0  0  0  0
 26 25  1  0  0  0  0
M  END
>  <minimizedAffinity>
-4.50085258

$$$$

 OpenBabel03272504313D

 26 27  0  0  0  0  0  0  0  0999 V2000
   38.3290   24.0950   36.3870 N   0  0  0  0  0  0  0  0  0  0  0  0
   37.8190   23.9420   37.7390 C   0  0  0  0  0  0  0  0  0  0  0  0
   38.7900   23.3450   38.6870 C   0  0  0  0  0  0  0  0  0  0  0  0
   39.7580   22.4470   38.1670 N   0  0  0  0  0  0  0  0  0  0  0  0
   40.2670   22.8390   36.8590 C   0  0  0  0  0  0  0  0  0  0  0  0
   39.0600   22.9280   35.9690 C   0  0  0  0  0  0  0  0  0  0  0  0
   37.5480   24.9760   38.1020 H   0  0  0  0  0  0  0  0  0  0  0  0
   36.8460   23.4070   37.7410 H   0  0  0  0  0  0  0  0  0  0  0  0
   38.2190   22.7990   39.4700 H   0  0  0  0  0  0  0  0  0  0  0  0
   39.3090   24.1730   39.2580 H   0  0  0  0  0  0  0  0  0  0  0  0
   40.5870   22.4370   38.8010 H   0  0  0  0  0  0  0  0  0  0  0  0
   40.9210   21.9980   36.5050 H   0  0  0  0  0  0  0  0  0  0  0  0
   40.8060   23.7890   36.8790 H   0  0  0  0  0  0  0  0  0  0  0  0
   39.2830   22.9480   34.8860 H   0  0  0  0  0  0  0  0  0  0  0  0
   38.4150   22.0270   36.1360 H   0  0  0  0  0  0  0  0  0  0  0  0
   38.1190   25.2600   35.5930 C   0  0  0  0  0  0  0  0  0  0  0  0
   38.1820   26.5580   36.1090 C   0  0  0  0  0  0  0  0  0  0  0  0
   37.9580   27.6320   35.2370 C   0  0  0  0  0  0  0  0  0  0  0  0
   37.6910   27.3560   33.9330 N   0  0  0  0  0  0  0  0  0  0  0  0
   37.6400   26.0760   33.4720 C   0  0  0  0  0  0  0  0  0  0  0  0
   37.8500   25.0220   34.2820 N   0  0  0  0  0  0  0  0  0  0  0  0
   38.3960   26.6890   37.1420 H   0  0  0  0  0  0  0  0  0  0  0  0
   37.9980   28.6430   35.6000 H   0  0  0  0  0  0  0  0  0  0  0  0
   37.3440   25.8620   32.0400 C   0  0  0  0  0  2  0  0  0  0  0  0
   36.4270   24.6440   31.9350 C   0  0  0  0  0  2  0  0  0  0  0  0
   37.0160   23.7000   32.0760 H   0  0  0  0  0  0  0  0  0  0  0  0
  1  2  1  0  0  0  0
  2  8  1  0  0  0  0
  2  7  1  0  0  0  0
  2  3  1  0  0  0  0
  3 10  1  0  0  0  0
  3  9  1  0  0  0  0
  4  3  1  0  0  0  0
  4 11  1  0  0  0  0
  5 13  1  0  0  0  0
  5  4  1  0  0  0  0
  6 15  1  0  0  0  0
  6  1  1  0  0  0  0
  6  5  1  0  0  0  0
 12  5  1  0  0  0  0
 14  6  1  0  0  0  0
 16 17  1  0  0  0  0
 16  1  1  0  0  0  0
 17 22  1  0  0  0  0
 18 23  1  0  0  0  0
 18 17  2  0  0  0  0
 19 18  1  0  0  0  0
 20 19  2  0  0  0  0
 20 21  1  0  0  0  0
 21 16  2  0  0  0  0
 24 20  1  0  0  0  0
 25 24  1  0  0  0  0
 25 26  1  0  0  0  0
M  END
>  <minimizedAffinity>
-4.40027475

$$$$

 OpenBabel03272504313D

 26 27  0  0  0  0  0  0  0  0999 V2000
   38.8730   23.1650   35.6590 N   0  0  0  0  0  0  0  0  0  0  0  0
   40.1860   22.5980   35.9150 C   0  0  0  0  0  0  0  0  0  0  0  0
   40.3840   22.1390   37.3110 C   0  0  0  0  0  0  0  0  0  0  0  0
   39.6650   22.8070   38.3360 N   0  0  0  0  0  0  0  0  0  0  0  0
   38.3090   23.1740   37.9480 C   0  0  0  0  0  0  0  0  0  0  0  0
   38.4630   24.0370   36.7270 C   0  0  0  0  0  0  0  0  0  0  0  0
   40.2980   21.7120   35.2240 H   0  0  0  0  0  0  0  0  0  0  0  0
   40.9900   23.2860   35.5810 H   0  0  0  0  0  0  0  0  0  0  0  0
   41.4660   22.2270   37.5550 H   0  0  0  0  0  0  0  0  0  0  0  0
   40.1820   21.0270   37.3690 H   0  0  0  0  0  0  0  0  0  0  0  0
   39.5600   22.1630   39.1520 H   0  0  0  0  0  0  0  0  0  0  0  0
   37.8930   23.7960   38.7850 H   0  0  0  0  0  0  0  0  0  0  0  0
   37.6780   22.3080   37.7350 H   0  0  0  0  0  0  0  0  0  0  0  0
   37.5630   24.6220   36.4590 H   0  0  0  0  0  0  0  0  0  0  0  0
   39.2780   24.7850   36.9080 H   0  0  0  0  0  0  0  0  0  0  0  0
   38.1070   22.8820   34.4910 C   0  0  0  0  0  0  0  0  0  0  0  0
   38.1710   23.6570   33.3290 C   0  0  0  0  0  0  0  0  0  0  0  0
   37.3710   23.2870   32.2380 C   0  0  0  0  0  0  0  0  0  0  0  0
   36.5750   22.1930   32.3660 N   0  0  0  0  0  0  0  0  0  0  0  0
   36.5450   21.4660   33.5180 C   0  0  0  0  0  0  0  0  0  0  0  0
   37.2980   21.7930   34.5830 N   0  0  0  0  0  0  0  0  0  0  0  0
   38.8190   24.4990   33.3090 H   0  0  0  0  0  0  0  0  0  0  0  0
   37.3960   23.8600   31.3290 H   0  0  0  0  0  0  0  0  0  0  0  0
   35.6510   20.2900   33.5740 C   0  0  0  0  0  2  0  0  0  0  0  0
   34.8630   20.2470   32.2660 C   0  0  0  0  0  2  0  0  0  0  0  0
   34.0470   21.0150   32.2770 H   0  0  0  0  0  0  0  0  0  0  0  0
  1  2  1  0  0  0  0
  1  6  1  0  0  0  0
  2  3  1  0  0  0  0
  3 10  1  0  0  0  0
  3  9  1  0  0  0  0
  3  4  1  0  0  0  0
  4 11  1  0  0  0  0
  5  4  1  0  0  0  0
  5 12  1  0  0  0  0
  6 15  1  0  0  0  0
  6  5  1  0  0  0  0
  7  2  1  0  0  0  0
  8  2  1  0  0  0  0
 13  5  1  0  0  0  0
 14  6  1  0  0  0  0
 16 21  1  0  0  0  0
 16  1  1  0  0  0  0
 17 16  2  0  0  0  0
 18 19  2  0  0  0  0
 18 17  1  0  0  0  0
 19 20  1  0  0  0  0
 20 24  1  0  0  0  0
 20 21  2  0  0  0  0
 22 17  1  0  0  0  0
 23 18  1  0  0  0  0
 25 26  1  0  0  0  0
 25 24  1  0  0  0  0
M  END
>  <minimizedAffinity>
-4.31009436

$$$$

 OpenBabel03272504313D

 26 27  0  0  0  0  0  0  0  0999 V2000
   38.7750   24.1450   36.0900 N   0  0  0  0  0  0  0  0  0  0  0  0
   40.0580   23.4920   36.2890 C   0  0  0  0  0  0  0  0  0  0  0  0
   40.0750   22.5220   37.4100 C   0  0  0  0  0  0  0  0  0  0  0  0
   39.1970   22.7550   38.5010 N   0  0  0  0  0  0  0  0  0  0  0  0
   37.8970   23.2760   38.0970 C   0  0  0  0  0  0  0  0  0  0  0  0
   38.1900   24.5410   37.3420 C   0  0  0  0  0  0  0  0  0  0  0  0
   40.2950   22.9430   35.3310 H   0  0  0  0  0  0  0  0  0  0  0  0
   40.8770   24.2370   36.3660 H   0  0  0  0  0  0  0  0  0  0  0  0
   41.1080   22.4820   37.8190 H   0  0  0  0  0  0  0  0  0  0  0  0
   39.9050   21.4800   37.0030 H   0  0  0  0  0  0  0  0  0  0  0  0
   39.0010   21.8470   38.9790 H   0  0  0  0  0  0  0  0  0  0  0  0
   37.3470   23.5320   39.0420 H   0  0  0  0  0  0  0  0  0  0  0  0
   37.3320   22.5760   37.4780 H   0  0  0  0  0  0  0  0  0  0  0  0
   37.3180   25.2060   37.1980 H   0  0  0  0  0  0  0  0  0  0  0  0
   38.9460   25.1410   37.9130 H   0  0  0  0  0  0  0  0  0  0  0  0
   38.1900   24.3560   34.8070 C   0  0  0  0  0  0  0  0  0  0  0  0
   38.0110   23.3330   33.8710 C   0  0  0  0  0  0  0  0  0  0  0  0
   37.4250   23.6530   32.6390 C   0  0  0  0  0  0  0  0  0  0  0  0
   37.0600   24.9440   32.4170 N   0  0  0  0  0  0  0  0  0  0  0  0
   37.2530   25.9100   33.3580 C   0  0  0  0  0  0  0  0  0  0  0  0
   37.8130   25.6370   34.5510 N   0  0  0  0  0  0  0  0  0  0  0  0
   38.3230   22.3480   34.1220 H   0  0  0  0  0  0  0  0  0  0  0  0
   37.2720   22.8920   31.8960 H   0  0  0  0  0  0  0  0  0  0  0  0
   36.8280   27.2890   33.0370 C   0  0  0  0  0  2  0  0  0  0  0  0
   36.5820   28.0140   34.3600 C   0  0  0  0  0  2  0  0  0  0  0  0
   35.6050   27.6900   34.8060 H   0  0  0  0  0  0  0  0  0  0  0  0
  1  2  1  0  0  0  0
  1  6  1  0  0  0  0
  2  8  1  0  0  0  0
  2  3  1  0  0  0  0
  3  9  1  0  0  0  0
  3  4  1  0  0  0  0
  4 11  1  0  0  0  0
  5  4  1  0  0  0  0
  5 12  1  0  0  0  0
  6 15  1  0  0  0  0
  6  5  1  0  0  0  0
  7  2  1  0  0  0  0
 10  3  1  0  0  0  0
 13  5  1  0  0  0  0
 14  6  1  0  0  0  0
 16  1  1  0  0  0  0
 17 22  1  0  0  0  0
 17 16  2  0  0  0  0
 18 17  1  0  0  0  0
 19 18  2  0  0  0  0
 19 20  1  0  0  0  0
 20 21  2  0  0  0  0
 21 16  1  0  0  0  0
 23 18  1  0  0  0  0
 24 20  1  0  0  0  0
 24 25  1  0  0  0  0
 25 26  1  0  0  0  0
M  END
>  <minimizedAffinity>
-4.30657434

$$$$

 OpenBabel03272504313D

 26 27  0  0  0  0  0  0  0  0999 V2000
   38.3860   22.7050   36.0840 N   0  0  0  0  0  0  0  0  0  0  0  0
   39.7910   22.3480   36.1690 C   0  0  0  0  0  0  0  0  0  0  0  0
   40.3170   22.2900   37.5540 C   0  0  0  0  0  0  0  0  0  0  0  0
   39.7180   23.1340   38.5260 N   0  0  0  0  0  0  0  0  0  0  0  0
   38.2750   23.2610   38.3720 C   0  0  0  0  0  0  0  0  0  0  0  0
   38.0650   23.7840   36.9790 C   0  0  0  0  0  0  0  0  0  0  0  0
   39.8960   21.3260   35.6990 H   0  0  0  0  0  0  0  0  0  0  0  0
   40.4080   22.9960   35.5110 H   0  0  0  0  0  0  0  0  0  0  0  0
   41.4010   22.5370   37.5240 H   0  0  0  0  0  0  0  0  0  0  0  0
   40.2940   21.2190   37.9160 H   0  0  0  0  0  0  0  0  0  0  0  0
   39.8660   22.7190   39.4720 H   0  0  0  0  0  0  0  0  0  0  0  0
   37.9410   24.0380   39.1100 H   0  0  0  0  0  0  0  0  0  0  0  0
   37.7470   22.3150   38.5150 H   0  0  0  0  0  0  0  0  0  0  0  0
   37.0560   24.1940   36.7860 H   0  0  0  0  0  0  0  0  0  0  0  0
   38.7830   24.6250   36.7930 H   0  0  0  0  0  0  0  0  0  0  0  0
   37.4590   22.0570   35.2150 C   0  0  0  0  0  0  0  0  0  0  0  0
   36.4580   21.1940   35.6730 C   0  0  0  0  0  0  0  0  0  0  0  0
   35.6020   20.6090   34.7300 C   0  0  0  0  0  0  0  0  0  0  0  0
   35.7880   20.9120   33.4170 N   0  0  0  0  0  0  0  0  0  0  0  0
   36.7770   21.7580   33.0160 C   0  0  0  0  0  0  0  0  0  0  0  0
   37.6170   22.3360   33.8940 N   0  0  0  0  0  0  0  0  0  0  0  0
   36.3790   21.0090   36.7170 H   0  0  0  0  0  0  0  0  0  0  0  0
   34.8210   19.9420   35.0460 H   0  0  0  0  0  0  0  0  0  0  0  0
   36.9120   22.0350   31.5700 C   0  0  0  0  0  2  0  0  0  0  0  0
   35.7890   22.9940   31.1780 C   0  0  0  0  0  2  0  0  0  0  0  0
   34.8150   22.4440   31.1030 H   0  0  0  0  0  0  0  0  0  0  0  0
  1  2  1  0  0  0  0
  1  6  1  0  0  0  0
  2  3  1  0  0  0  0
  3 10  1  0  0  0  0
  3  4  1  0  0  0  0
  4 11  1  0  0  0  0
  5 13  1  0  0  0  0
  5  4  1  0  0  0  0
  5 12  1  0  0  0  0
  6  5  1  0  0  0  0
  7  2  1  0  0  0  0
  8  2  1  0  0  0  0
  9  3  1  0  0  0  0
 14  6  1  0  0  0  0
 15  6  1  0  0  0  0
 16 17  1  0  0  0  0
 16  1  1  0  0  0  0
 17 22  1  0  0  0  0
 18 23  1  0  0  0  0
 18 17  2  0  0  0  0
 19 18  1  0  0  0  0
 20 19  2  0  0  0  0
 20 21  1  0  0  0  0
 21 16  2  0  0  0  0
 24 20  1  0  0  0  0
 25 24  1  0  0  0  0
 26 25  1  0  0  0  0
M  END
>  <minimizedAffinity>
-4.30158424

$$$$

 OpenBabel03272504313D

 26 27  0  0  0  0  0  0  0  0999 V2000
   38.6870   24.0870   36.2030 N   0  0  0  0  0  0  0  0  0  0  0  0
   37.8340   24.1780   37.3750 C   0  0  0  0  0  0  0  0  0  0  0  0
   38.4400   23.6240   38.6090 C   0  0  0  0  0  0  0  0  0  0  0  0
   39.3780   22.5680   38.4690 N   0  0  0  0  0  0  0  0  0  0  0  0
   40.2520   22.7180   37.3130 C   0  0  0  0  0  0  0  0  0  0  0  0
   39.3350   22.8050   36.1260 C   0  0  0  0  0  0  0  0  0  0  0  0
   37.6210   25.2750   37.5370 H   0  0  0  0  0  0  0  0  0  0  0  0
   36.8290   23.7510   37.1720 H   0  0  0  0  0  0  0  0  0  0  0  0
   37.6210   23.2540   39.2630 H   0  0  0  0  0  0  0  0  0  0  0  0
   38.9050   24.4660   39.2060 H   0  0  0  0  0  0  0  0  0  0  0  0
   40.0090   22.5620   39.3010 H   0  0  0  0  0  0  0  0  0  0  0  0
   40.8550   21.7740   37.2420 H   0  0  0  0  0  0  0  0  0  0  0  0
   40.8920   23.6020   37.3750 H   0  0  0  0  0  0  0  0  0  0  0  0
   39.8280   22.6500   35.1480 H   0  0  0  0  0  0  0  0  0  0  0  0
   38.5530   22.0070   36.2100 H   0  0  0  0  0  0  0  0  0  0  0  0
   38.8460   25.1440   35.2600 C   0  0  0  0  0  0  0  0  0  0  0  0
   37.7740   25.7230   34.5730 C   0  0  0  0  0  0  0  0  0  0  0  0
   38.0460   26.7570   33.6660 C   0  0  0  0  0  0  0  0  0  0  0  0
   39.3390   27.1450   33.5020 N   0  0  0  0  0  0  0  0  0  0  0  0
   40.3520   26.5530   34.1930 C   0  0  0  0  0  0  0  0  0  0  0  0
   40.1270   25.5580   35.0700 N   0  0  0  0  0  0  0  0  0  0  0  0
   36.7920   25.3620   34.7580 H   0  0  0  0  0  0  0  0  0  0  0  0
   37.2470   27.2250   33.1210 H   0  0  0  0  0  0  0  0  0  0  0  0
   41.7300   27.0340   33.9560 C   0  0  0  0  0  2  0  0  0  0  0  0
   41.7850   27.5890   32.5330 C   0  0  0  0  0  2  0  0  0  0  0  0
   41.8240   26.7510   31.7900 H   0  0  0  0  0  0  0  0  0  0  0  0
  1  2  1  0  0  0  0
  2  7  1  0  0  0  0
  2  3  1  0  0  0  0
  3 10  1  0  0  0  0
  3  9  1  0  0  0  0
  4  3  1  0  0  0  0
  4 11  1  0  0  0  0
  5 13  1  0  0  0  0
  5  4  1  0  0  0  0
  6  1  1  0  0  0  0
  6 15  1  0  0  0  0
  6  5  1  0  0  0  0
  8  2  1  0  0  0  0
 12  5  1  0  0  0  0
 14  6  1  0  0  0  0
 16  1  1  0  0  0  0
 17 22  1  0  0  0  0
 17 16  2  0  0  0  0
 18 17  1  0  0  0  0
 19 18  2  0  0  0  0
 19 20  1  0  0  0  0
 20 21  2  0  0  0  0
 21 16  1  0  0  0  0
 23 18  1  0  0  0  0
 24 20  1  0  0  0  0
 25 24  1  0  0  0  0
 26 25  1  0  0  0  0
M  END
>  <minimizedAffinity>
-4.26189518

$$$$

 OpenBabel03272504313D

 26 27  0  0  0  0  0  0  0  0999 V2000
   38.4230   24.8250   35.6190 N   0  0  0  0  0  0  0  0  0  0  0  0
   39.6390   24.0720   35.3650 C   0  0  0  0  0  0  0  0  0  0  0  0
   39.6270   22.6980   35.9210 C   0  0  0  0  0  0  0  0  0  0  0  0
   38.8520   22.4620   37.0870 N   0  0  0  0  0  0  0  0  0  0  0  0
   37.5910   23.1930   37.1020 C   0  0  0  0  0  0  0  0  0  0  0  0
   37.9670   24.6420   36.9700 C   0  0  0  0  0  0  0  0  0  0  0  0
   39.7540   24.0080   34.2430 H   0  0  0  0  0  0  0  0  0  0  0  0
   40.5370   24.6450   35.6800 H   0  0  0  0  0  0  0  0  0  0  0  0
   40.6750   22.4090   36.1560 H   0  0  0  0  0  0  0  0  0  0  0  0
   39.3200   21.9710   35.1100 H   0  0  0  0  0  0  0  0  0  0  0  0
   38.5930   21.4510   37.1230 H   0  0  0  0  0  0  0  0  0  0  0  0
   37.1350   23.0240   38.1140 H   0  0  0  0  0  0  0  0  0  0  0  0
   36.9150   22.8920   36.2980 H   0  0  0  0  0  0  0  0  0  0  0  0
   37.1630   25.3540   37.2340 H   0  0  0  0  0  0  0  0  0  0  0  0
   38.8180   24.8630   37.6650 H   0  0  0  0  0  0  0  0  0  0  0  0
   37.7810   25.6370   34.6390 C   0  0  0  0  0  0  0  0  0  0  0  0
   37.4500   26.9780   34.8560 C   0  0  0  0  0  0  0  0  0  0  0  0
   36.8180   27.6840   33.8220 C   0  0  0  0  0  0  0  0  0  0  0  0
   36.5600   27.0260   32.6600 N   0  0  0  0  0  0  0  0  0  0  0  0
   36.8990   25.7180   32.4920 C   0  0  0  0  0  0  0  0  0  0  0  0
   37.5060   25.0120   33.4630 N   0  0  0  0  0  0  0  0  0  0  0  0
   37.6870   27.4200   35.7940 H   0  0  0  0  0  0  0  0  0  0  0  0
   36.5500   28.7160   33.9540 H   0  0  0  0  0  0  0  0  0  0  0  0
   36.5830   25.0780   31.1980 C   0  0  0  0  0  2  0  0  0  0  0  0
   35.0770   25.2140   30.9730 C   0  0  0  0  0  2  0  0  0  0  0  0
   34.5200   24.4770   31.6090 H   0  0  0  0  0  0  0  0  0  0  0  0
  1  6  1  0  0  0  0
  2  1  1  0  0  0  0
  2  8  1  0  0  0  0
  2  3  1  0  0  0  0
  3  9  1  0  0  0  0
  3  4  1  0  0  0  0
  4  5  1  0  0  0  0
  4 11  1  0  0  0  0
  5 12  1  0  0  0  0
  6  5  1  0  0  0  0
  6 14  1  0  0  0  0
  6 15  1  0  0  0  0
  7  2  1  0  0  0  0
 10  3  1  0  0  0  0
 13  5  1  0  0  0  0
 16 17  1  0  0  0  0
 16  1  1  0  0  0  0
 17 22  1  0  0  0  0
 18 23  1  0  0  0  0
 18 17  2  0  0  0  0
 19 18  1  0  0  0  0
 20 19  2  0  0  0  0
 20 21  1  0  0  0  0
 21 16  2  0  0  0  0
 24 20  1  0  0  0  0
 25 24  1  0  0  0  0
 25 26  1  0  0  0  0
M  END
>  <minimizedAffinity>
-4.177248

$$$$

 OpenBabel03272504313D

 26 27  0  0  0  0  0  0  0  0999 V2000
   37.1510   25.3840   32.6310 N   0  0  0  0  0  0  0  0  0  0  0  0
   36.2580   26.1550   31.7830 C   0  0  0  0  0  0  0  0  0  0  0  0
   35.2220   25.3440   31.1000 C   0  0  0  0  0  0  0  0  0  0  0  0
   35.5340   23.9940   30.7940 N   0  0  0  0  0  0  0  0  0  0  0  0
   36.3150   23.3300   31.8300 C   0  0  0  0  0  0  0  0  0  0  0  0
   37.5560   24.1630   31.9890 C   0  0  0  0  0  0  0  0  0  0  0  0
   35.7460   26.9080   32.4510 H   0  0  0  0  0  0  0  0  0  0  0  0
   36.8300   26.7900   31.0740 H   0  0  0  0  0  0  0  0  0  0  0  0
   34.9610   25.8490   30.1440 H   0  0  0  0  0  0  0  0  0  0  0  0
   34.2630   25.3850   31.6990 H   0  0  0  0  0  0  0  0  0  0  0  0
   34.6450   23.4490   30.7190 H   0  0  0  0  0  0  0  0  0  0  0  0
   36.5990   22.3240   31.4220 H   0  0  0  0  0  0  0  0  0  0  0  0
   35.7800   23.2460   32.7780 H   0  0  0  0  0  0  0  0  0  0  0  0
   38.3810   23.6650   32.5330 H   0  0  0  0  0  0  0  0  0  0  0  0
   37.9610   24.4130   30.9740 H   0  0  0  0  0  0  0  0  0  0  0  0
   37.5610   25.8030   33.9300 C   0  0  0  0  0  0  0  0  0  0  0  0
   37.6520   27.1470   34.3070 C   0  0  0  0  0  0  0  0  0  0  0  0
   38.0680   27.4460   35.6120 C   0  0  0  0  0  0  0  0  0  0  0  0
   38.3610   26.4120   36.4450 N   0  0  0  0  0  0  0  0  0  0  0  0
   38.2580   25.1170   36.0370 C   0  0  0  0  0  0  0  0  0  0  0  0
   37.8620   24.7950   34.7920 N   0  0  0  0  0  0  0  0  0  0  0  0
   37.4040   27.8960   33.5940 H   0  0  0  0  0  0  0  0  0  0  0  0
   38.1480   28.4670   35.9340 H   0  0  0  0  0  0  0  0  0  0  0  0
   38.5950   24.0530   37.0060 C   0  0  0  0  0  2  0  0  0  0  0  0
   37.9350   24.4160   38.3350 C   0  0  0  0  0  2  0  0  0  0  0  0
   38.5120   25.2290   38.8480 H   0  0  0  0  0  0  0  0  0  0  0  0
  1 16  1  0  0  0  0
  2  7  1  0  0  0  0
  2  1  1  0  0  0  0
  3 10  1  0  0  0  0
  3  2  1  0  0  0  0
  4  3  1  0  0  0  0
  4  5  1  0  0  0  0
  5  6  1  0  0  0  0
  5 13  1  0  0  0  0
  6 14  1  0  0  0  0
  6  1  1  0  0  0  0
  8  2  1  0  0  0  0
  9  3  1  0  0  0  0
 11  4  1  0  0  0  0
 12  5  1  0  0  0  0
 15  6  1  0  0  0  0
 16 17  2  0  0  0  0
 16 21  1  0  0  0  0
 17 18  1  0  0  0  0
 18 23  1  0  0  0  0
 18 19  2  0  0  0  0
 20 19  1  0  0  0  0
 20 24  1  0  0  0  0
 21 20  2  0  0  0  0
 22 17  1  0  0  0  0
 24 25  1  0  0  0  0
 25 26  1  0  0  0  0
M  END
>  <minimizedAffinity>
-4.04254723

$$$$

 OpenBabel03272504313D

 26 27  0  0  0  0  0  0  0  0999 V2000
   37.6770   26.4040   32.4370 N   0  0  0  0  0  0  0  0  0  0  0  0
   38.2230   27.5020   31.6590 C   0  0  0  0  0  0  0  0  0  0  0  0
   37.2640   28.0990   30.6990 C   0  0  0  0  0  0  0  0  0  0  0  0
   36.2520   27.2590   30.1650 N   0  0  0  0  0  0  0  0  0  0  0  0
   35.7150   26.3120   31.1330 C   0  0  0  0  0  0  0  0  0  0  0  0
   36.8970   25.5180   31.6150 C   0  0  0  0  0  0  0  0  0  0  0  0
   38.5390   28.2970   32.3960 H   0  0  0  0  0  0  0  0  0  0  0  0
   39.1780   27.2110   31.1730 H   0  0  0  0  0  0  0  0  0  0  0  0
   37.8410   28.5090   29.8410 H   0  0  0  0  0  0  0  0  0  0  0  0
   36.7890   29.0130   31.1670 H   0  0  0  0  0  0  0  0  0  0  0  0
   35.4430   27.8490   29.8680 H   0  0  0  0  0  0  0  0  0  0  0  0
   35.0240   25.6320   30.5670 H   0  0  0  0  0  0  0  0  0  0  0  0
   35.2080   26.7990   31.9690 H   0  0  0  0  0  0  0  0  0  0  0  0
   36.6400   24.5820   32.1450 H   0  0  0  0  0  0  0  0  0  0  0  0
   37.5170   25.2150   30.7320 H   0  0  0  0  0  0  0  0  0  0  0  0
   37.8990   26.2420   33.8350 C   0  0  0  0  0  0  0  0  0  0  0  0
   38.0960   27.3180   34.7070 C   0  0  0  0  0  0  0  0  0  0  0  0
   38.3070   27.0430   36.0660 C   0  0  0  0  0  0  0  0  0  0  0  0
   38.3090   25.7440   36.4660 N   0  0  0  0  0  0  0  0  0  0  0  0
   38.1130   24.7270   35.5820 C   0  0  0  0  0  0  0  0  0  0  0  0
   37.9080   24.9540   34.2720 N   0  0  0  0  0  0  0  0  0  0  0  0
   38.0800   28.3050   34.3140 H   0  0  0  0  0  0  0  0  0  0  0  0
   38.4620   27.8450   36.7630 H   0  0  0  0  0  0  0  0  0  0  0  0
   38.1300   23.3420   36.1000 C   0  0  0  0  0  2  0  0  0  0  0  0
   38.8030   23.3710   37.4710 C   0  0  0  0  0  2  0  0  0  0  0  0
   39.9150   23.4680   37.3570 H   0  0  0  0  0  0  0  0  0  0  0  0
  1 16  1  0  0  0  0
  2  7  1  0  0  0  0
  2  1  1  0  0  0  0
  3 10  1  0  0  0  0
  3  2  1  0  0  0  0
  4  3  1  0  0  0  0
  4  5  1  0  0  0  0
  5  6  1  0  0  0  0
  5 13  1  0  0  0  0
  6 14  1  0  0  0  0
  6  1  1  0  0  0  0
  8  2  1  0  0  0  0
  9  3  1  0  0  0  0
 11  4  1  0  0  0  0
 12  5  1  0  0  0  0
 15  6  1  0  0  0  0
 16 21  2  0  0  0  0
 16 17  1  0  0  0  0
 17 18  2  0  0  0  0
 18 19  1  0  0  0  0
 18 23  1  0  0  0  0
 20 24  1  0  0  0  0
 20 19  2  0  0  0  0
 21 20  1  0  0  0  0
 22 17  1  0  0  0  0
 24 25  1  0  0  0  0
 26 25  1  0  0  0  0
M  END
>  <minimizedAffinity>
-4.02968454

$$$$
