
 OpenBabel03272500443D

 27 28  0  0  1  0  0  0  0  0999 V2000
   41.8740   21.8540   35.4620 C   0  0  0  0  0  0  0  0  0  0  0  0
   41.6510   21.4330   36.7860 C   0  0  0  0  0  0  0  0  0  0  0  0
   40.7140   22.1140   37.5470 C   0  0  0  0  0  0  0  0  0  0  0  0
   40.0570   23.1540   36.9780 N   0  0  0  0  0  0  0  0  0  0  0  0
   40.2760   23.5460   35.7170 C   0  0  0  0  0  0  0  0  0  0  0  0
   41.1800   22.8920   34.9790 N   0  0  0  0  0  0  0  0  0  0  0  0
   39.5600   24.6590   35.1380 N   0  0  0  0  0  0  0  0  0  0  0  0
   40.2720   25.6650   34.3600 C   0  0  1  0  0  0  0  0  0  0  0  0
   39.6460   27.0410   34.5030 C   0  0  0  0  0  0  0  0  0  0  0  0
   38.8050   27.0670   35.7470 C   0  0  0  0  0  0  0  0  0  0  0  0
   37.6340   26.1550   35.4960 C   0  0  0  0  0  0  0  0  0  0  0  0
   38.1410   24.7500   35.3450 C   0  0  0  0  0  0  0  0  0  0  0  0
   42.5970   21.3240   34.8810 H   0  0  0  0  0  0  0  0  0  0  0  0
   42.2070   20.5940   37.1870 H   0  0  0  0  0  0  0  0  0  0  0  0
   40.5170   21.8180   38.5680 H   0  0  0  0  0  0  0  0  0  0  0  0
   40.1440   25.3650   33.2930 H   0  0  0  0  0  0  0  0  0  0  0  0
   38.9930   27.2770   33.6580 H   0  0  0  0  0  0  0  0  0  0  0  0
   40.4030   27.8430   34.6030 H   0  0  0  0  0  0  0  0  0  0  0  0
   39.3820   26.6690   36.6320 H   0  0  0  0  0  0  0  0  0  0  0  0
   38.4770   28.0620   36.0480 H   0  0  0  0  0  0  0  0  0  0  0  0
   36.8300   26.2440   36.2430 H   0  0  0  0  0  0  0  0  0  0  0  0
   37.1830   26.4460   34.5030 H   0  0  0  0  0  0  0  0  0  0  0  0
   37.5760   24.2020   34.5360 H   0  0  0  0  0  0  0  0  0  0  0  0
   37.8700   24.2240   36.3020 H   0  0  0  0  0  0  0  0  0  0  0  0
   41.7190   25.8120   34.7210 C   0  0  0  0  0  2  0  0  0  0  0  0
   42.2530   26.9740   33.9000 C   0  0  0  0  0  2  0  0  0  0  0  0
   43.2710   26.7390   33.4850 H   0  0  0  0  0  0  0  0  0  0  0  0
  1  2  1  0  0  0  0
  2 14  1  0  0  0  0
  2  3  2  0  0  0  0
  3 15  1  0  0  0  0
  4  3  1  0  0  0  0
  5  4  2  0  0  0  0
  6  1  2  0  0  0  0
  6  5  1  0  0  0  0
  7 12  1  0  0  0  0
  7  5  1  0  0  0  0
  8 16  1  6  0  0  0
  8  9  1  0  0  0  0
  8 25  1  0  0  0  0
  8  7  1  0  0  0  0
  9 18  1  0  0  0  0
  9 10  1  0  0  0  0
 10 20  1  0  0  0  0
 10 19  1  0  0  0  0
 11 10  1  0  0  0  0
 11 21  1  0  0  0  0
 12 11  1  0  0  0  0
 12 24  1  0  0  0  0
 13  1  1  0  0  0  0
 17  9  1  0  0  0  0
 22 11  1  0  0  0  0
 23 12  1  0  0  0  0
 26 25  1  0  0  0  0
 27 26  1  0  0  0  0
M  END
>  <minimizedAffinity>
-4.13752747

$$$$

 OpenBabel03272500443D

 27 28  0  0  1  0  0  0  0  0999 V2000
   40.3170   23.0380   36.7940 C   0  0  0  0  0  0  0  0  0  0  0  0
   39.3240   23.0510   37.7920 C   0  0  0  0  0  0  0  0  0  0  0  0
   38.1490   23.7430   37.5450 C   0  0  0  0  0  0  0  0  0  0  0  0
   38.0120   24.3730   36.3540 N   0  0  0  0  0  0  0  0  0  0  0  0
   38.9630   24.3540   35.4110 C   0  0  0  0  0  0  0  0  0  0  0  0
   40.0990   23.6880   35.6450 N   0  0  0  0  0  0  0  0  0  0  0  0
   38.7880   25.0350   34.1490 N   0  0  0  0  0  0  0  0  0  0  0  0
   39.8680   25.8430   33.5960 C   0  0  1  0  0  0  0  0  0  0  0  0
   39.3430   27.0290   32.8070 C   0  0  0  0  0  0  0  0  0  0  0  0
   37.9240   27.3010   33.2200 C   0  0  0  0  0  0  0  0  0  0  0  0
   37.1010   26.1390   32.7310 C   0  0  0  0  0  0  0  0  0  0  0  0
   37.5360   24.9000   33.4580 C   0  0  0  0  0  0  0  0  0  0  0  0
   41.2200   22.5020   36.9920 H   0  0  0  0  0  0  0  0  0  0  0  0
   39.4900   22.5280   38.7270 H   0  0  0  0  0  0  0  0  0  0  0  0
   37.3640   23.7740   38.2890 H   0  0  0  0  0  0  0  0  0  0  0  0
   40.3940   25.1820   32.8680 H   0  0  0  0  0  0  0  0  0  0  0  0
   39.3400   26.8290   31.7310 H   0  0  0  0  0  0  0  0  0  0  0  0
   39.9220   27.9540   32.9950 H   0  0  0  0  0  0  0  0  0  0  0  0
   37.8350   27.3500   34.3440 H   0  0  0  0  0  0  0  0  0  0  0  0
   37.5250   28.2500   32.8620 H   0  0  0  0  0  0  0  0  0  0  0  0
   36.0150   26.3090   32.7800 H   0  0  0  0  0  0  0  0  0  0  0  0
   37.3520   25.9800   31.6420 H   0  0  0  0  0  0  0  0  0  0  0  0
   37.5480   24.0090   32.7660 H   0  0  0  0  0  0  0  0  0  0  0  0
   36.7210   24.6830   34.2040 H   0  0  0  0  0  0  0  0  0  0  0  0
   40.8110   26.3950   34.6220 C   0  0  0  0  0  2  0  0  0  0  0  0
   41.8770   27.1650   33.8590 C   0  0  0  0  0  2  0  0  0  0  0  0
   42.8990   26.9650   34.2830 H   0  0  0  0  0  0  0  0  0  0  0  0
  1 13  1  0  0  0  0
  1  2  1  0  0  0  0
  2 14  1  0  0  0  0
  3  2  2  0  0  0  0
  3 15  1  0  0  0  0
  4  3  1  0  0  0  0
  5  6  1  0  0  0  0
  5  4  2  0  0  0  0
  6  1  2  0  0  0  0
  7  5  1  0  0  0  0
  8 16  1  6  0  0  0
  8  7  1  0  0  0  0
  8 25  1  0  0  0  0
  9 18  1  0  0  0  0
  9 10  1  0  0  0  0
  9  8  1  0  0  0  0
 10 19  1  0  0  0  0
 11 21  1  0  0  0  0
 11 10  1  0  0  0  0
 11 12  1  0  0  0  0
 12  7  1  0  0  0  0
 12 24  1  0  0  0  0
 17  9  1  0  0  0  0
 20 10  1  0  0  0  0
 22 11  1  0  0  0  0
 23 12  1  0  0  0  0
 26 27  1  0  0  0  0
 26 25  1  0  0  0  0
M  END
>  <minimizedAffinity>
-3.98819065

$$$$

 OpenBabel03272500443D

 27 28  0  0  1  0  0  0  0  0999 V2000
   36.7150   24.3150   30.8930 C   0  0  0  0  0  0  0  0  0  0  0  0
   37.8660   23.5560   30.6100 C   0  0  0  0  0  0  0  0  0  0  0  0
   38.8810   23.5200   31.5540 C   0  0  0  0  0  0  0  0  0  0  0  0
   38.7140   24.2160   32.7040 N   0  0  0  0  0  0  0  0  0  0  0  0
   37.6150   24.9340   32.9630 C   0  0  0  0  0  0  0  0  0  0  0  0
   36.6330   24.9730   32.0550 N   0  0  0  0  0  0  0  0  0  0  0  0
   37.4650   25.6660   34.1990 N   0  0  0  0  0  0  0  0  0  0  0  0
   36.9620   27.0340   34.1860 C   0  0  1  0  0  0  0  0  0  0  0  0
   37.5700   27.8740   35.2950 C   0  0  0  0  0  0  0  0  0  0  0  0
   38.8380   27.2190   35.7650 C   0  0  0  0  0  0  0  0  0  0  0  0
   38.4350   25.9390   36.4490 C   0  0  0  0  0  0  0  0  0  0  0  0
   37.8220   25.0210   35.4320 C   0  0  0  0  0  0  0  0  0  0  0  0
   35.9370   24.3380   30.1610 H   0  0  0  0  0  0  0  0  0  0  0  0
   37.9430   23.0200   29.6720 H   0  0  0  0  0  0  0  0  0  0  0  0
   39.7800   22.9470   31.3700 H   0  0  0  0  0  0  0  0  0  0  0  0
   35.8720   26.9540   34.4060 H   0  0  0  0  0  0  0  0  0  0  0  0
   36.8990   27.9500   36.1560 H   0  0  0  0  0  0  0  0  0  0  0  0
   37.8340   28.8950   34.9580 H   0  0  0  0  0  0  0  0  0  0  0  0
   39.5040   26.9590   34.8910 H   0  0  0  0  0  0  0  0  0  0  0  0
   39.4520   27.8410   36.4140 H   0  0  0  0  0  0  0  0  0  0  0  0
   39.2460   25.4660   37.0240 H   0  0  0  0  0  0  0  0  0  0  0  0
   37.6220   26.1920   37.1900 H   0  0  0  0  0  0  0  0  0  0  0  0
   36.9430   24.4650   35.8690 H   0  0  0  0  0  0  0  0  0  0  0  0
   38.5980   24.2310   35.2280 H   0  0  0  0  0  0  0  0  0  0  0  0
   37.2140   27.7700   32.9050 C   0  0  0  0  0  2  0  0  0  0  0  0
   36.0710   28.7580   32.7420 C   0  0  0  0  0  2  0  0  0  0  0  0
   35.7080   28.7820   31.6780 H   0  0  0  0  0  0  0  0  0  0  0  0
  1  6  1  0  0  0  0
  2  1  2  0  0  0  0
  2  3  1  0  0  0  0
  3  4  2  0  0  0  0
  4  5  1  0  0  0  0
  5  7  1  0  0  0  0
  6  5  2  0  0  0  0
  7 12  1  0  0  0  0
  8  7  1  0  0  0  0
  8 16  1  1  0  0  0
  8  9  1  0  0  0  0
  9 10  1  0  0  0  0
  9 17  1  0  0  0  0
 10 20  1  0  0  0  0
 10 11  1  0  0  0  0
 11 21  1  0  0  0  0
 11 22  1  0  0  0  0
 12 23  1  0  0  0  0
 12 11  1  0  0  0  0
 13  1  1  0  0  0  0
 14  2  1  0  0  0  0
 15  3  1  0  0  0  0
 18  9  1  0  0  0  0
 19 10  1  0  0  0  0
 24 12  1  0  0  0  0
 25  8  1  0  0  0  0
 26 25  1  0  0  0  0
 27 26  1  0  0  0  0
M  END
>  <minimizedAffinity>
-3.95610309

$$$$

 OpenBabel03272500443D

 27 28  0  0  1  0  0  0  0  0999 V2000
   37.8140   24.6550   31.6940 C   0  0  0  0  0  0  0  0  0  0  0  0
   36.7570   23.9650   31.0720 C   0  0  0  0  0  0  0  0  0  0  0  0
   35.5400   24.6120   30.9260 C   0  0  0  0  0  0  0  0  0  0  0  0
   35.4280   25.8810   31.3880 N   0  0  0  0  0  0  0  0  0  0  0  0
   36.4400   26.5290   31.9780 C   0  0  0  0  0  0  0  0  0  0  0  0
   37.6150   25.9080   32.1220 N   0  0  0  0  0  0  0  0  0  0  0  0
   36.2900   27.8830   32.4610 N   0  0  0  0  0  0  0  0  0  0  0  0
   36.8010   28.2540   33.7740 C   0  0  1  0  0  0  0  0  0  0  0  0
   35.9510   29.3250   34.4320 C   0  0  0  0  0  0  0  0  0  0  0  0
   34.5970   29.3420   33.7820 C   0  0  0  0  0  0  0  0  0  0  0  0
   34.7990   29.8440   32.3760 C   0  0  0  0  0  0  0  0  0  0  0  0
   35.6300   28.8460   31.6240 C   0  0  0  0  0  0  0  0  0  0  0  0
   38.7480   24.1490   31.8030 H   0  0  0  0  0  0  0  0  0  0  0  0
   36.9050   22.9500   30.7220 H   0  0  0  0  0  0  0  0  0  0  0  0
   34.7050   24.1120   30.4540 H   0  0  0  0  0  0  0  0  0  0  0  0
   37.8020   28.7090   33.5890 H   0  0  0  0  0  0  0  0  0  0  0  0
   36.3890   30.3200   34.3080 H   0  0  0  0  0  0  0  0  0  0  0  0
   35.7930   29.1380   35.5120 H   0  0  0  0  0  0  0  0  0  0  0  0
   34.1630   28.3020   33.7280 H   0  0  0  0  0  0  0  0  0  0  0  0
   33.8500   29.9340   34.3110 H   0  0  0  0  0  0  0  0  0  0  0  0
   33.8650   30.1050   31.8560 H   0  0  0  0  0  0  0  0  0  0  0  0
   35.4080   30.7920   32.4380 H   0  0  0  0  0  0  0  0  0  0  0  0
   36.3670   29.3650   30.9440 H   0  0  0  0  0  0  0  0  0  0  0  0
   34.9170   28.3140   30.9340 H   0  0  0  0  0  0  0  0  0  0  0  0
   36.8840   27.1160   34.7460 C   0  0  0  0  0  2  0  0  0  0  0  0
   38.0920   27.3880   35.6280 C   0  0  0  0  0  2  0  0  0  0  0  0
   38.6820   26.4470   35.8020 H   0  0  0  0  0  0  0  0  0  0  0  0
  1 13  1  0  0  0  0
  1  6  1  0  0  0  0
  2  1  2  0  0  0  0
  3  2  1  0  0  0  0
  3  4  2  0  0  0  0
  4  5  1  0  0  0  0
  5  6  2  0  0  0  0
  5  7  1  0  0  0  0
  7  8  1  0  0  0  0
  8 16  1  6  0  0  0
  8  9  1  0  0  0  0
  8 25  1  0  0  0  0
  9 18  1  0  0  0  0
 10 20  1  0  0  0  0
 10  9  1  0  0  0  0
 11 22  1  0  0  0  0
 11 10  1  0  0  0  0
 12 11  1  0  0  0  0
 12  7  1  0  0  0  0
 14  2  1  0  0  0  0
 15  3  1  0  0  0  0
 17  9  1  0  0  0  0
 19 10  1  0  0  0  0
 21 11  1  0  0  0  0
 23 12  1  0  0  0  0
 24 12  1  0  0  0  0
 25 26  1  0  0  0  0
 26 27  1  0  0  0  0
M  END
>  <minimizedAffinity>
-3.91313529

$$$$

 OpenBabel03272500443D

 27 28  0  0  1  0  0  0  0  0999 V2000
   30.8600   28.2500   34.2510 C   0  0  0  0  0  0  0  0  0  0  0  0
   30.6490   27.5150   35.4330 C   0  0  0  0  0  0  0  0  0  0  0  0
   31.3740   27.8590   36.5630 C   0  0  0  0  0  0  0  0  0  0  0  0
   32.2510   28.8870   36.4750 N   0  0  0  0  0  0  0  0  0  0  0  0
   32.4450   29.5800   35.3460 C   0  0  0  0  0  0  0  0  0  0  0  0
   31.7470   29.2510   34.2530 N   0  0  0  0  0  0  0  0  0  0  0  0
   33.3880   30.6730   35.2830 N   0  0  0  0  0  0  0  0  0  0  0  0
   34.3010   30.7890   34.1530 C   0  0  1  0  0  0  0  0  0  0  0  0
   35.6300   31.4000   34.5590 C   0  0  0  0  0  0  0  0  0  0  0  0
   35.7990   31.2590   36.0450 C   0  0  0  0  0  0  0  0  0  0  0  0
   34.7710   32.1550   36.6840 C   0  0  0  0  0  0  0  0  0  0  0  0
   33.4040   31.6340   36.3500 C   0  0  0  0  0  0  0  0  0  0  0  0
   30.2970   27.9790   33.3840 H   0  0  0  0  0  0  0  0  0  0  0  0
   29.9330   26.7010   35.4430 H   0  0  0  0  0  0  0  0  0  0  0  0
   31.2380   27.3160   37.4880 H   0  0  0  0  0  0  0  0  0  0  0  0
   33.8190   31.5090   33.4510 H   0  0  0  0  0  0  0  0  0  0  0  0
   35.6720   32.4680   34.3220 H   0  0  0  0  0  0  0  0  0  0  0  0
   36.4930   30.8960   34.0820 H   0  0  0  0  0  0  0  0  0  0  0  0
   35.5980   30.1980   36.3740 H   0  0  0  0  0  0  0  0  0  0  0  0
   36.8020   31.4830   36.4070 H   0  0  0  0  0  0  0  0  0  0  0  0
   34.9230   32.3100   37.7630 H   0  0  0  0  0  0  0  0  0  0  0  0
   34.8580   33.1710   36.1990 H   0  0  0  0  0  0  0  0  0  0  0  0
   32.6880   32.4820   36.1450 H   0  0  0  0  0  0  0  0  0  0  0  0
   33.0250   31.1500   37.2930 H   0  0  0  0  0  0  0  0  0  0  0  0
   34.6160   29.4880   33.4800 C   0  0  0  0  0  2  0  0  0  0  0  0
   35.8370   29.7360   32.6090 C   0  0  0  0  0  2  0  0  0  0  0  0
   35.7250   29.2370   31.6080 H   0  0  0  0  0  0  0  0  0  0  0  0
  1  6  2  0  0  0  0
  1  2  1  0  0  0  0
  2 14  1  0  0  0  0
  2  3  2  0  0  0  0
  3 15  1  0  0  0  0
  4  3  1  0  0  0  0
  5  4  2  0  0  0  0
  6  5  1  0  0  0  0
  7  5  1  0  0  0  0
  7 12  1  0  0  0  0
  8 16  1  6  0  0  0
  8  9  1  0  0  0  0
  8  7  1  0  0  0  0
  9 10  1  0  0  0  0
 10 19  1  0  0  0  0
 10 20  1  0  0  0  0
 10 11  1  0  0  0  0
 11 21  1  0  0  0  0
 12 11  1  0  0  0  0
 12 24  1  0  0  0  0
 13  1  1  0  0  0  0
 17  9  1  0  0  0  0
 18  9  1  0  0  0  0
 22 11  1  0  0  0  0
 23 12  1  0  0  0  0
 25  8  1  0  0  0  0
 26 25  1  0  0  0  0
 27 26  1  0  0  0  0
M  END
>  <minimizedAffinity>
-3.90462804

$$$$

 OpenBabel03272500443D

 27 28  0  0  1  0  0  0  0  0999 V2000
   35.9720   23.8660   31.3620 C   0  0  0  0  0  0  0  0  0  0  0  0
   35.1500   24.9590   31.0300 C   0  0  0  0  0  0  0  0  0  0  0  0
   35.6030   26.2370   31.3170 C   0  0  0  0  0  0  0  0  0  0  0  0
   36.8170   26.3720   31.9020 N   0  0  0  0  0  0  0  0  0  0  0  0
   37.5920   25.3260   32.2130 C   0  0  0  0  0  0  0  0  0  0  0  0
   37.1590   24.0900   31.9390 N   0  0  0  0  0  0  0  0  0  0  0  0
   38.8840   25.5010   32.8360 N   0  0  0  0  0  0  0  0  0  0  0  0
   39.2760   24.6610   33.9610 C   0  0  1  0  0  0  0  0  0  0  0  0
   40.1710   25.4020   34.9380 C   0  0  0  0  0  0  0  0  0  0  0  0
   40.0020   26.8800   34.7310 C   0  0  0  0  0  0  0  0  0  0  0  0
   40.5870   27.1970   33.3810 C   0  0  0  0  0  0  0  0  0  0  0  0
   39.7650   26.5140   32.3270 C   0  0  0  0  0  0  0  0  0  0  0  0
   35.6160   22.8840   31.1380 H   0  0  0  0  0  0  0  0  0  0  0  0
   34.1870   24.7900   30.5630 H   0  0  0  0  0  0  0  0  0  0  0  0
   34.9980   27.1010   31.0770 H   0  0  0  0  0  0  0  0  0  0  0  0
   39.8900   23.8400   33.5230 H   0  0  0  0  0  0  0  0  0  0  0  0
   41.2270   25.1650   34.7760 H   0  0  0  0  0  0  0  0  0  0  0  0
   39.9170   25.1870   35.9940 H   0  0  0  0  0  0  0  0  0  0  0  0
   38.9090   27.1610   34.7190 H   0  0  0  0  0  0  0  0  0  0  0  0
   40.4450   27.4970   35.5120 H   0  0  0  0  0  0  0  0  0  0  0  0
   40.7190   28.2740   33.1930 H   0  0  0  0  0  0  0  0  0  0  0  0
   41.6160   26.7350   33.3400 H   0  0  0  0  0  0  0  0  0  0  0  0
   40.4220   26.1060   31.5050 H   0  0  0  0  0  0  0  0  0  0  0  0
   39.1570   27.3270   31.8410 H   0  0  0  0  0  0  0  0  0  0  0  0
   38.1260   24.1230   34.7580 C   0  0  0  0  0  2  0  0  0  0  0  0
   38.7020   23.6430   36.0790 C   0  0  0  0  0  2  0  0  0  0  0  0
   38.2510   22.6590   36.3820 H   0  0  0  0  0  0  0  0  0  0  0  0
  1  6  1  0  0  0  0
  2  3  1  0  0  0  0
  2  1  2  0  0  0  0
  3  4  2  0  0  0  0
  4  5  1  0  0  0  0
  5  7  1  0  0  0  0
  6  5  2  0  0  0  0
  7  8  1  0  0  0  0
  8 16  1  6  0  0  0
  8 25  1  0  0  0  0
  8  9  1  0  0  0  0
  9 18  1  0  0  0  0
 10  9  1  0  0  0  0
 10 20  1  0  0  0  0
 11 10  1  0  0  0  0
 12  7  1  0  0  0  0
 12 11  1  0  0  0  0
 13  1  1  0  0  0  0
 14  2  1  0  0  0  0
 15  3  1  0  0  0  0
 17  9  1  0  0  0  0
 19 10  1  0  0  0  0
 21 11  1  0  0  0  0
 22 11  1  0  0  0  0
 23 12  1  0  0  0  0
 24 12  1  0  0  0  0
 25 26  1  0  0  0  0
 26 27  1  0  0  0  0
M  END
>  <minimizedAffinity>
-3.86519313

$$$$

 OpenBabel03272500443D

 27 28  0  0  1  0  0  0  0  0999 V2000
   38.6740   27.1320   34.2490 C   0  0  0  0  0  0  0  0  0  0  0  0
   38.5670   26.8820   35.6300 C   0  0  0  0  0  0  0  0  0  0  0  0
   38.1600   25.6230   36.0430 C   0  0  0  0  0  0  0  0  0  0  0  0
   37.8840   24.6940   35.0970 N   0  0  0  0  0  0  0  0  0  0  0  0
   37.9890   24.9420   33.7860 C   0  0  0  0  0  0  0  0  0  0  0  0
   38.3820   26.1550   33.3820 N   0  0  0  0  0  0  0  0  0  0  0  0
   37.6890   23.9300   32.7990 N   0  0  0  0  0  0  0  0  0  0  0  0
   36.8860   24.2610   31.6290 C   0  0  1  0  0  0  0  0  0  0  0  0
   36.0400   23.0870   31.1700 C   0  0  0  0  0  0  0  0  0  0  0  0
   35.9040   22.1100   32.3030 C   0  0  0  0  0  0  0  0  0  0  0  0
   37.2690   21.5160   32.5280 C   0  0  0  0  0  0  0  0  0  0  0  0
   38.1950   22.6000   32.9970 C   0  0  0  0  0  0  0  0  0  0  0  0
   38.9890   28.1040   33.9380 H   0  0  0  0  0  0  0  0  0  0  0  0
   38.8010   27.6650   36.3410 H   0  0  0  0  0  0  0  0  0  0  0  0
   38.0670   25.3950   37.0960 H   0  0  0  0  0  0  0  0  0  0  0  0
   37.6160   24.4680   30.8130 H   0  0  0  0  0  0  0  0  0  0  0  0
   36.5060   22.5580   30.3330 H   0  0  0  0  0  0  0  0  0  0  0  0
   35.0170   23.3900   30.8740 H   0  0  0  0  0  0  0  0  0  0  0  0
   35.5860   22.6350   33.2500 H   0  0  0  0  0  0  0  0  0  0  0  0
   35.1550   21.3360   32.1420 H   0  0  0  0  0  0  0  0  0  0  0  0
   37.2700   20.6340   33.1870 H   0  0  0  0  0  0  0  0  0  0  0  0
   37.6570   21.1690   31.5270 H   0  0  0  0  0  0  0  0  0  0  0  0
   39.2190   22.4830   32.5380 H   0  0  0  0  0  0  0  0  0  0  0  0
   38.3440   22.4180   34.0980 H   0  0  0  0  0  0  0  0  0  0  0  0
   35.9460   25.4110   31.8330 C   0  0  0  0  0  2  0  0  0  0  0  0
   34.8470   25.2600   30.7950 C   0  0  0  0  0  2  0  0  0  0  0  0
   34.5890   26.2530   30.3340 H   0  0  0  0  0  0  0  0  0  0  0  0
  1  2  1  0  0  0  0
  2  3  2  0  0  0  0
  2 14  1  0  0  0  0
  3 15  1  0  0  0  0
  4  3  1  0  0  0  0
  5  4  2  0  0  0  0
  6  5  1  0  0  0  0
  6  1  2  0  0  0  0
  7 12  1  0  0  0  0
  7  5  1  0  0  0  0
  8 16  1  6  0  0  0
  8 25  1  0  0  0  0
  8  7  1  0  0  0  0
  9  8  1  0  0  0  0
  9 10  1  0  0  0  0
 10 11  1  0  0  0  0
 10 19  1  0  0  0  0
 11 12  1  0  0  0  0
 11 21  1  0  0  0  0
 12 24  1  0  0  0  0
 13  1  1  0  0  0  0
 17  9  1  0  0  0  0
 18  9  1  0  0  0  0
 20 10  1  0  0  0  0
 22 11  1  0  0  0  0
 23 12  1  0  0  0  0
 26 25  1  0  0  0  0
 27 26  1  0  0  0  0
M  END
>  <minimizedAffinity>
-3.84668183

$$$$

 OpenBabel03272500443D

 27 28  0  0  1  0  0  0  0  0999 V2000
   37.4160   26.2510   33.6720 C   0  0  0  0  0  0  0  0  0  0  0  0
   38.3890   27.1340   33.1680 C   0  0  0  0  0  0  0  0  0  0  0  0
   39.7250   26.8400   33.3900 C   0  0  0  0  0  0  0  0  0  0  0  0
   40.0300   25.7160   34.0810 N   0  0  0  0  0  0  0  0  0  0  0  0
   39.0960   24.8820   34.5550 C   0  0  0  0  0  0  0  0  0  0  0  0
   37.8050   25.1610   34.3440 N   0  0  0  0  0  0  0  0  0  0  0  0
   39.4520   23.6890   35.2880 N   0  0  0  0  0  0  0  0  0  0  0  0
   38.7430   23.3420   36.5140 C   0  0  1  0  0  0  0  0  0  0  0  0
   39.6440   22.6340   37.5090 C   0  0  0  0  0  0  0  0  0  0  0  0
   41.0770   22.9220   37.1630 C   0  0  0  0  0  0  0  0  0  0  0  0
   41.3530   22.2260   35.8560 C   0  0  0  0  0  0  0  0  0  0  0  0
   40.5120   22.8590   34.7860 C   0  0  0  0  0  0  0  0  0  0  0  0
   36.3880   26.4840   33.4970 H   0  0  0  0  0  0  0  0  0  0  0  0
   38.0850   28.0200   32.6230 H   0  0  0  0  0  0  0  0  0  0  0  0
   40.5000   27.4960   33.0180 H   0  0  0  0  0  0  0  0  0  0  0  0
   37.9610   22.6070   36.2100 H   0  0  0  0  0  0  0  0  0  0  0  0
   39.5080   21.5480   37.4750 H   0  0  0  0  0  0  0  0  0  0  0  0
   39.4820   22.9790   38.5490 H   0  0  0  0  0  0  0  0  0  0  0  0
   41.2400   24.0290   37.0170 H   0  0  0  0  0  0  0  0  0  0  0  0
   41.7930   22.6270   37.9290 H   0  0  0  0  0  0  0  0  0  0  0  0
   42.4210   22.1790   35.5920 H   0  0  0  0  0  0  0  0  0  0  0  0
   41.0000   21.1590   35.9580 H   0  0  0  0  0  0  0  0  0  0  0  0
   40.1150   22.0800   34.0720 H   0  0  0  0  0  0  0  0  0  0  0  0
   41.2180   23.4870   34.1750 H   0  0  0  0  0  0  0  0  0  0  0  0
   38.1480   24.5140   37.2330 C   0  0  0  0  0  2  0  0  0  0  0  0
   37.9270   24.0720   38.6700 C   0  0  0  0  0  2  0  0  0  0  0  0
   36.9330   24.4320   39.0540 H   0  0  0  0  0  0  0  0  0  0  0  0
  1  6  1  0  0  0  0
  2  3  1  0  0  0  0
  2  1  2  0  0  0  0
  3  4  2  0  0  0  0
  4  5  1  0  0  0  0
  5  7  1  0  0  0  0
  6  5  2  0  0  0  0
  7  8  1  0  0  0  0
  8 16  1  6  0  0  0
  8 25  1  0  0  0  0
  8  9  1  0  0  0  0
  9 18  1  0  0  0  0
 10  9  1  0  0  0  0
 10 20  1  0  0  0  0
 11 22  1  0  0  0  0
 11 10  1  0  0  0  0
 12  7  1  0  0  0  0
 12 11  1  0  0  0  0
 13  1  1  0  0  0  0
 14  2  1  0  0  0  0
 15  3  1  0  0  0  0
 17  9  1  0  0  0  0
 19 10  1  0  0  0  0
 21 11  1  0  0  0  0
 23 12  1  0  0  0  0
 24 12  1  0  0  0  0
 25 26  1  0  0  0  0
 26 27  1  0  0  0  0
M  END
>  <minimizedAffinity>
-3.83813047

$$$$

 OpenBabel03272500443D

 27 28  0  0  1  0  0  0  0  0999 V2000
   43.0860   24.0980   34.1700 C   0  0  0  0  0  0  0  0  0  0  0  0
   43.9160   23.6270   35.2040 C   0  0  0  0  0  0  0  0  0  0  0  0
   43.3240   23.2050   36.3850 C   0  0  0  0  0  0  0  0  0  0  0  0
   41.9750   23.2670   36.4860 N   0  0  0  0  0  0  0  0  0  0  0  0
   41.1940   23.7170   35.4960 C   0  0  0  0  0  0  0  0  0  0  0  0
   41.7610   24.1250   34.3550 N   0  0  0  0  0  0  0  0  0  0  0  0
   39.7570   23.7710   35.6320 N   0  0  0  0  0  0  0  0  0  0  0  0
   39.0230   24.9540   35.2010 C   0  0  1  0  0  0  0  0  0  0  0  0
   37.7950   25.2040   36.0580 C   0  0  0  0  0  0  0  0  0  0  0  0
   37.9530   24.4750   37.3620 C   0  0  0  0  0  0  0  0  0  0  0  0
   37.8890   23.0040   37.0460 C   0  0  0  0  0  0  0  0  0  0  0  0
   39.0740   22.6410   36.1990 C   0  0  0  0  0  0  0  0  0  0  0  0
   43.5490   24.4210   33.2630 H   0  0  0  0  0  0  0  0  0  0  0  0
   44.9900   23.6010   35.0670 H   0  0  0  0  0  0  0  0  0  0  0  0
   43.9310   22.8370   37.2020 H   0  0  0  0  0  0  0  0  0  0  0  0
   38.6550   24.7210   34.1740 H   0  0  0  0  0  0  0  0  0  0  0  0
   36.8860   24.8280   35.5780 H   0  0  0  0  0  0  0  0  0  0  0  0
   37.6550   26.2760   36.2960 H   0  0  0  0  0  0  0  0  0  0  0  0
   38.9580   24.6950   37.8260 H   0  0  0  0  0  0  0  0  0  0  0  0
   37.2230   24.7500   38.1230 H   0  0  0  0  0  0  0  0  0  0  0  0
   37.7800   22.3610   37.9330 H   0  0  0  0  0  0  0  0  0  0  0  0
   36.9720   22.8330   36.4110 H   0  0  0  0  0  0  0  0  0  0  0  0
   38.7860   21.8980   35.4000 H   0  0  0  0  0  0  0  0  0  0  0  0
   39.7760   22.0850   36.8800 H   0  0  0  0  0  0  0  0  0  0  0  0
   39.8260   26.2190   35.2240 C   0  0  0  0  0  2  0  0  0  0  0  0
   38.8380   27.3540   35.4340 C   0  0  0  0  0  2  0  0  0  0  0  0
   39.0830   28.2300   34.7730 H   0  0  0  0  0  0  0  0  0  0  0  0
  1  6  2  0  0  0  0
  1  2  1  0  0  0  0
  2  3  2  0  0  0  0
  3  4  1  0  0  0  0
  3 15  1  0  0  0  0
  5  7  1  0  0  0  0
  5  4  2  0  0  0  0
  6  5  1  0  0  0  0
  7 12  1  0  0  0  0
  8 16  1  6  0  0  0
  8 25  1  0  0  0  0
  8  7  1  0  0  0  0
  8  9  1  0  0  0  0
  9 18  1  0  0  0  0
  9 10  1  0  0  0  0
 10 19  1  0  0  0  0
 10 20  1  0  0  0  0
 11 10  1  0  0  0  0
 11 21  1  0  0  0  0
 12 24  1  0  0  0  0
 12 11  1  0  0  0  0
 13  1  1  0  0  0  0
 14  2  1  0  0  0  0
 17  9  1  0  0  0  0
 22 11  1  0  0  0  0
 23 12  1  0  0  0  0
 25 26  1  0  0  0  0
 27 26  1  0  0  0  0
M  END
>  <minimizedAffinity>
-3.82933354

$$$$
