
 OpenBabel03272505053D

 27 28  0  0  1  0  0  0  0  0999 V2000
   36.8670   29.7190   51.4940 C   0  0  0  0  0  0  0  0  0  0  0  0
   37.5930   30.7350   50.8620 C   0  0  0  0  0  0  0  0  0  0  0  0
   37.1020   31.1930   49.6310 C   0  0  0  0  0  0  0  0  0  0  0  0
   35.9720   30.6310   49.1460 N   0  0  0  0  0  0  0  0  0  0  0  0
   35.3070   29.6520   49.7960 C   0  0  0  0  0  0  0  0  0  0  0  0
   35.7580   29.1950   50.9780 N   0  0  0  0  0  0  0  0  0  0  0  0
   37.6840   32.2120   48.8260 N   0  0  0  0  0  0  0  0  0  0  0  0
   38.1530   33.4630   49.3010 C   0  0  0  0  0  0  0  0  0  0  0  0
   39.4660   33.9230   48.8080 C   0  0  0  0  0  0  0  0  0  0  0  0
   39.7950   33.6070   47.3880 C   0  0  0  0  0  0  0  0  0  0  0  0
   39.3830   32.1740   47.0850 C   0  0  0  0  0  0  0  0  0  0  0  0
   37.8860   32.1260   47.4050 C   0  0  1  0  0  0  0  0  0  0  0  0
   37.2970   29.3990   52.4530 H   0  0  0  0  0  0  0  0  0  0  0  0
   38.4850   31.2040   51.2070 H   0  0  0  0  0  0  0  0  0  0  0  0
   34.4080   29.2530   49.3370 H   0  0  0  0  0  0  0  0  0  0  0  0
   38.1880   33.4590   50.4210 H   0  0  0  0  0  0  0  0  0  0  0  0
   37.3840   34.2480   49.0480 H   0  0  0  0  0  0  0  0  0  0  0  0
   39.5110   35.0440   48.9200 H   0  0  0  0  0  0  0  0  0  0  0  0
   40.2630   33.5350   49.4900 H   0  0  0  0  0  0  0  0  0  0  0  0
   39.3620   34.3270   46.6610 H   0  0  0  0  0  0  0  0  0  0  0  0
   40.9010   33.6650   47.2640 H   0  0  0  0  0  0  0  0  0  0  0  0
   39.9440   31.5390   47.8090 H   0  0  0  0  0  0  0  0  0  0  0  0
   39.5880   31.8850   46.0530 H   0  0  0  0  0  0  0  0  0  0  0  0
   37.4670   32.9940   46.8520 H   0  0  0  0  0  0  0  0  0  0  0  0
   37.3190   30.9030   46.7480 C   0  0  0  0  0  0  0  0  0  0  0  0
   38.3620   30.4440   45.7210 C   0  0  0  0  0  0  0  0  0  0  0  0
   39.0580   31.2690   45.4510 H   0  0  0  0  0  0  0  0  0  0  0  0
  1 13  1  0  0  0  0
  2 14  1  0  0  0  0
  2  1  2  0  0  0  0
  3  2  1  0  0  0  0
  4  3  2  0  0  0  0
  4  5  1  0  0  0  0
  5  6  2  0  0  0  0
  6  1  1  0  0  0  0
  7  8  1  0  0  0  0
  7  3  1  0  0  0  0
  8 16  1  0  0  0  0
  9 18  1  0  0  0  0
  9  8  1  0  0  0  0
  9 19  1  0  0  0  0
 10  9  1  0  0  0  0
 11 10  1  0  0  0  0
 11 12  1  0  0  0  0
 11 22  1  0  0  0  0
 12 24  1  6  0  0  0
 12  7  1  0  0  0  0
 15  5  1  0  0  0  0
 17  8  1  0  0  0  0
 20 10  1  0  0  0  0
 21 10  1  0  0  0  0
 23 11  1  0  0  0  0
 25 12  1  0  0  0  0
 26 25  1  0  0  0  0
 27 26  1  0  0  0  0
M  END
>  <minimizedAffinity>
-5.07832909

>  <minimizedRMSD>
0.983804762

$$$$
