REMARK  Name = 
REMARK  6 active torsions:
REMARK  status: ('A' for Active; 'I' for Inactive)
REMARK    1  A    between atoms: C_1  and  C_2
REMARK    2  A    between atoms: C_1  and  O_9
REMARK    3  A    between atoms: C_2  and  C_3
REMARK    4  A    between atoms: O_9  and  C_14
REMARK    5  A    between atoms: C_12  and  C_25
REMARK    6  A    between atoms: C_25  and  C_26
REMARK                            x       y       z     vdW  Elec       q    Type
REMARK                         _______ _______ _______ _____ _____    ______ ____
ROOT
ATOM      1  C   UNL     1      33.731  28.593  48.696  0.00  0.00    +0.000 C 
ATOM      2  H   UNL     1      34.301  28.896  47.777  0.00  0.00    +0.000 HD
ATOM      3  H   UNL     1      33.115  29.425  49.104  0.00  0.00    +0.000 HD
ENDROOT
BRANCH   1   4
ATOM      4  C   UNL     1      32.809  27.448  48.363  0.00  0.00    +0.000 C 
ATOM      5  H   UNL     1      33.099  27.022  47.363  0.00  0.00    +0.000 HD
ATOM      6  H   UNL     1      32.949  26.630  49.109  0.00  0.00    +0.000 HD
BRANCH   4   7
ATOM      7  C   UNL     1      31.386  27.854  48.358  0.00  0.00    +0.000 A 
ATOM      8  C   UNL     1      30.692  27.736  49.548  0.00  0.00    +0.000 A 
ATOM      9  C   UNL     1      29.366  28.087  49.645  0.00  0.00    +0.000 A 
ATOM     10  N   UNL     1      28.709  28.556  48.576  0.00  0.00    +0.000 NA
ATOM     11  C   UNL     1      29.402  28.669  47.409  0.00  0.00    +0.000 A 
ATOM     12  N   UNL     1      30.694  28.333  47.293  0.00  0.00    +0.000 NA
ATOM     13  H   UNL     1      31.109  27.370  50.480  0.00  0.00    +0.000 HD
ATOM     14  H   UNL     1      28.779  28.013  50.550  0.00  0.00    +0.000 HD
ATOM     15  H   UNL     1      29.031  29.029  46.450  0.00  0.00    +0.000 HD
ENDBRANCH   4   7
ENDBRANCH   1   4
BRANCH   1  16
ATOM     16  O   UNL     1      34.622  28.204  49.734  0.00  0.00    +0.000 OA
BRANCH  16  21
ATOM     17  C   UNL     1      37.233  30.175  51.298  0.00  0.00    +0.000 A 
ATOM     18  C   UNL     1      37.905  30.642  50.145  0.00  0.00    +0.000 A 
ATOM     19  C   UNL     1      37.411  30.245  48.908  0.00  0.00    +0.000 A 
ATOM     20  N   UNL     1      36.315  29.434  48.876  0.00  0.00    +0.000 NA
ATOM     21  C   UNL     1      35.701  29.009  49.998  0.00  0.00    +0.000 A 
ATOM     22  N   UNL     1      36.174  29.389  51.195  0.00  0.00    +0.000 NA
ATOM     23  H   UNL     1      37.642  30.501  52.245  0.00  0.00    +0.000 HD
ATOM     24  H   UNL     1      38.780  31.289  50.139  0.00  0.00    +0.000 HD
BRANCH  19  25
ATOM     25  C   UNL     1      38.061  30.693  47.627  0.00  0.00    +0.000 C 
BRANCH  25  26
ATOM     26  C   UNL     1      37.359  30.143  46.412  0.00  0.00    +0.000 C 
ATOM     27  H   UNL     1      37.804  29.199  46.050  0.00  0.00    +0.000 HD
ENDBRANCH  25  26
ENDBRANCH  19  25
ENDBRANCH  16  21
ENDBRANCH   1  16
TORSDOF 6
