
 OpenBabel03272500433D

 27 28  0  0  1  0  0  0  0  0999 V2000
   39.1610   32.7440   47.5230 C   0  0  0  0  0  0  0  0  0  0  0  0
   39.6770   32.0590   46.4080 C   0  0  0  0  0  0  0  0  0  0  0  0
   39.0290   30.9110   45.9800 C   0  0  0  0  0  0  0  0  0  0  0  0
   37.9280   30.5050   46.6570 N   0  0  0  0  0  0  0  0  0  0  0  0
   37.4440   31.1650   47.7160 C   0  0  0  0  0  0  0  0  0  0  0  0
   38.0670   32.2730   48.1330 N   0  0  0  0  0  0  0  0  0  0  0  0
   36.2670   30.7080   48.4180 N   0  0  0  0  0  0  0  0  0  0  0  0
   36.2470   30.6760   49.8750 C   0  0  1  0  0  0  0  0  0  0  0  0
   35.3970   29.5360   50.4060 C   0  0  0  0  0  0  0  0  0  0  0  0
   35.2260   28.5080   49.3240 C   0  0  0  0  0  0  0  0  0  0  0  0
   34.3710   29.1410   48.2580 C   0  0  0  0  0  0  0  0  0  0  0  0
   35.1260   30.2880   47.6530 C   0  0  0  0  0  0  0  0  0  0  0  0
   39.6660   33.6280   47.8470 H   0  0  0  0  0  0  0  0  0  0  0  0
   40.5630   32.4310   45.9060 H   0  0  0  0  0  0  0  0  0  0  0  0
   39.3980   30.3580   45.1270 H   0  0  0  0  0  0  0  0  0  0  0  0
   35.7470   31.6220   50.1890 H   0  0  0  0  0  0  0  0  0  0  0  0
   34.3980   29.8790   50.6960 H   0  0  0  0  0  0  0  0  0  0  0  0
   35.8620   29.0260   51.2720 H   0  0  0  0  0  0  0  0  0  0  0  0
   36.2210   28.2380   48.8660 H   0  0  0  0  0  0  0  0  0  0  0  0
   34.8030   27.5630   49.6630 H   0  0  0  0  0  0  0  0  0  0  0  0
   33.9930   28.4300   47.5080 H   0  0  0  0  0  0  0  0  0  0  0  0
   33.4650   29.5820   48.7670 H   0  0  0  0  0  0  0  0  0  0  0  0
   34.4370   31.1570   47.4400 H   0  0  0  0  0  0  0  0  0  0  0  0
   35.4670   29.9290   46.6420 H   0  0  0  0  0  0  0  0  0  0  0  0
   37.5990   30.5300   50.5060 C   0  0  0  0  0  0  0  0  0  0  0  0
   37.3690   29.9590   51.8950 C   0  0  0  0  0  0  0  0  0  0  0  0
   38.0230   30.4700   52.6540 H   0  0  0  0  0  0  0  0  0  0  0  0
  1 13  1  0  0  0  0
  1  6  1  0  0  0  0
  2  1  2  0  0  0  0
  3  2  1  0  0  0  0
  3  4  2  0  0  0  0
  4  5  1  0  0  0  0
  5  6  2  0  0  0  0
  5  7  1  0  0  0  0
  7  8  1  0  0  0  0
  8 16  1  1  0  0  0
  8  9  1  0  0  0  0
  8 25  1  0  0  0  0
  9 17  1  0  0  0  0
  9 18  1  0  0  0  0
 10 20  1  0  0  0  0
 10  9  1  0  0  0  0
 11 22  1  0  0  0  0
 11 10  1  0  0  0  0
 12 11  1  0  0  0  0
 12  7  1  0  0  0  0
 14  2  1  0  0  0  0
 15  3  1  0  0  0  0
 19 10  1  0  0  0  0
 21 11  1  0  0  0  0
 23 12  1  0  0  0  0
 24 12  1  0  0  0  0
 25 26  1  0  0  0  0
 26 27  1  0  0  0  0
M  END
>  <minimizedAffinity>
-5.61793756

>  <minimizedRMSD>
0.650040627

$$$$
