
 OpenBabel03272509113D

 22 23  0  0  0  0  0  0  0  0999 V2000
   35.5260   29.7820   49.8970 C   0  0  0  0  0  0  0  0  0  0  0  0
   36.7780   30.2690   49.3700 C   0  0  0  0  0  0  0  0  0  0  0  0
   36.7350   30.6110   48.0100 C   0  0  0  0  0  0  0  0  0  0  0  0
   35.5870   30.4760   47.2730 N   0  0  0  0  0  0  0  0  0  0  0  0
   34.4410   30.0050   47.8410 C   0  0  0  0  0  0  0  0  0  0  0  0
   34.4130   29.6640   49.1380 N   0  0  0  0  0  0  0  0  0  0  0  0
   35.3970   29.4870   50.9050 H   0  0  0  0  0  0  0  0  0  0  0  0
   33.5630   29.9100   47.2400 H   0  0  0  0  0  0  0  0  0  0  0  0
   37.8970   31.1350   47.3280 C   0  0  0  0  0  0  0  0  0  0  0  0
   38.3370   32.3790   47.6710 C   0  0  0  0  0  0  0  0  0  0  0  0
   39.4510   32.9790   47.0860 C   0  0  0  0  0  0  0  0  0  0  0  0
   40.1110   32.2320   46.1050 C   0  0  0  0  0  0  0  0  0  0  0  0
   39.7140   30.9460   45.6970 C   0  0  0  0  0  0  0  0  0  0  0  0
   38.5920   30.4390   46.3450 C   0  0  0  0  0  0  0  0  0  0  0  0
   37.9600   33.1240   48.3460 H   0  0  0  0  0  0  0  0  0  0  0  0
   39.8920   33.9340   47.2690 H   0  0  0  0  0  0  0  0  0  0  0  0
   41.0020   32.5830   45.5610 H   0  0  0  0  0  0  0  0  0  0  0  0
   40.2460   30.4060   44.9360 H   0  0  0  0  0  0  0  0  0  0  0  0
   38.2430   29.4530   46.0690 H   0  0  0  0  0  0  0  0  0  0  0  0
   37.9040   30.2710   50.2980 C   0  0  0  0  0  0  0  0  0  0  0  0
   37.4120   30.0260   51.7330 C   0  0  0  0  0  0  0  0  0  0  0  0
   37.1890   30.9980   52.2510 H   0  0  0  0  0  0  0  0  0  0  0  0
  1  7  1  0  0  0  0
  2  1  1  0  0  0  0
  2 20  1  0  0  0  0
  3  2  2  0  0  0  0
  4  5  2  0  0  0  0
  4  3  1  0  0  0  0
  5  6  1  0  0  0  0
  6  1  2  0  0  0  0
  8  5  1  0  0  0  0
  9 10  1  0  0  0  0
  9  3  1  0  0  0  0
 10 15  1  0  0  0  0
 11 16  1  0  0  0  0
 11 10  2  0  0  0  0
 12 11  1  0  0  0  0
 13 12  2  0  0  0  0
 13 14  1  0  0  0  0
 14  9  2  0  0  0  0
 17 12  1  0  0  0  0
 18 13  1  0  0  0  0
 19 14  1  0  0  0  0
 20 21  1  0  0  0  0
 21 22  1  0  0  0  0
M  END
>  <minimizedAffinity>
-5.25045204

>  <minimizedRMSD>
1.74787605

$$$$
