
 OpenBabel03272510163D

 22 23  0  0  0  0  0  0  0  0999 V2000
   37.2780   29.3860   51.0800 Br  0  0  0  0  0  0  0  0  0  0  0  0
   35.9670   29.3240   49.6870 C   0  0  0  0  0  0  0  0  0  0  0  0
   36.0060   30.2180   48.6260 C   0  0  0  0  0  0  0  0  0  0  0  0
   35.0330   30.1080   47.6700 C   0  0  0  0  0  0  0  0  0  0  0  0
   34.0240   29.1660   47.7050 C   0  0  0  0  0  0  0  0  0  0  0  0
   34.0100   28.2930   48.7670 C   0  0  0  0  0  0  0  0  0  0  0  0
   34.9820   28.3810   49.7500 C   0  0  0  0  0  0  0  0  0  0  0  0
   35.0630   30.8030   46.8440 H   0  0  0  0  0  0  0  0  0  0  0  0
   33.2280   27.5430   48.8190 H   0  0  0  0  0  0  0  0  0  0  0  0
   34.9760   27.6890   50.5990 H   0  0  0  0  0  0  0  0  0  0  0  0
   37.9870   33.1750   49.4320 C   0  0  0  0  0  0  0  0  0  0  0  0
   39.0220   33.1740   48.4690 C   0  0  0  0  0  0  0  0  0  0  0  0
   39.0160   32.1380   47.5470 C   0  0  0  0  0  0  0  0  0  0  0  0
   38.0340   31.1760   47.5990 N   0  0  0  0  0  0  0  0  0  0  0  0
   37.0530   31.2240   48.5530 C   0  0  0  0  0  0  0  0  0  0  0  0
   37.0360   32.2320   49.4700 N   0  0  0  0  0  0  0  0  0  0  0  0
   37.9820   33.9830   50.1600 H   0  0  0  0  0  0  0  0  0  0  0  0
   39.7900   33.9100   48.4140 H   0  0  0  0  0  0  0  0  0  0  0  0
   39.7530   32.0180   46.7540 H   0  0  0  0  0  0  0  0  0  0  0  0
   33.0290   29.1510   46.6070 C   0  0  0  0  0  2  0  0  0  0  0  0
   33.5860   28.5980   45.3160 C   0  0  0  0  0  2  0  0  0  0  0  0
   33.6480   27.5110   45.3680 H   0  0  0  0  0  0  0  0  0  0  0  0
  2  7  1  0  0  0  0
  2  1  1  0  0  0  0
  3  2  2  0  0  0  0
  4  5  2  0  0  0  0
  4  3  1  0  0  0  0
  5  6  1  0  0  0  0
  6  9  1  0  0  0  0
  6  7  2  0  0  0  0
  7 10  1  0  0  0  0
  8  4  1  0  0  0  0
 11 16  1  0  0  0  0
 11 17  1  0  0  0  0
 12 11  2  0  0  0  0
 13 14  2  0  0  0  0
 13 12  1  0  0  0  0
 14 15  1  0  0  0  0
 15  3  1  0  0  0  0
 15 16  2  0  0  0  0
 18 12  1  0  0  0  0
 19 13  1  0  0  0  0
 20  5  1  0  0  0  0
 21 22  1  0  0  0  0
 21 20  1  0  0  0  0
M  END
>  <minimizedAffinity>
-5.43632984

>  <minimizedRMSD>
0.0287248008

$$$$
