
 OpenBabel03272505223D

 22 23  0  0  0  0  0  0  0  0999 V2000
   40.7370   24.3610   34.2150 Br  0  0  0  0  0  0  0  0  0  0  0  0
   39.7260   23.9780   35.7970 C   0  0  0  0  0  0  0  0  0  0  0  0
   38.4640   24.4990   35.9550 C   0  0  0  0  0  0  0  0  0  0  0  0
   37.7740   24.1930   37.1200 C   0  0  0  0  0  0  0  0  0  0  0  0
   38.3570   23.3870   38.0770 C   0  0  0  0  0  0  0  0  0  0  0  0
   39.6410   22.8550   37.9200 C   0  0  0  0  0  0  0  0  0  0  0  0
   40.3290   23.1680   36.7440 C   0  0  0  0  0  0  0  0  0  0  0  0
   36.7810   24.6070   37.2340 H   0  0  0  0  0  0  0  0  0  0  0  0
   37.8090   23.1530   38.9870 H   0  0  0  0  0  0  0  0  0  0  0  0
   40.0900   22.2360   38.6560 H   0  0  0  0  0  0  0  0  0  0  0  0
   37.3340   27.5090   33.9600 C   0  0  0  0  0  0  0  0  0  0  0  0
   37.8360   26.7150   34.9990 C   0  0  0  0  0  0  0  0  0  0  0  0
   37.9440   25.3360   34.8830 C   0  0  0  0  0  0  0  0  0  0  0  0
   37.5310   24.8290   33.7020 N   0  0  0  0  0  0  0  0  0  0  0  0
   37.0500   25.5880   32.7060 C   0  0  0  0  0  0  0  0  0  0  0  0
   36.9540   26.9100   32.8360 N   0  0  0  0  0  0  0  0  0  0  0  0
   37.2640   28.6000   34.0870 H   0  0  0  0  0  0  0  0  0  0  0  0
   38.1570   27.1620   35.9310 H   0  0  0  0  0  0  0  0  0  0  0  0
   36.7280   25.1200   31.7650 H   0  0  0  0  0  0  0  0  0  0  0  0
   41.6960   22.6320   36.5130 C   0  0  0  0  0  2  0  0  0  0  0  0
   41.9390   21.3070   37.1650 C   0  0  0  0  0  2  0  0  0  0  0  0
   41.1990   20.5750   36.8020 H   0  0  0  0  0  0  0  0  0  0  0  0
  1  2  1  0  0  0  0
  2  3  2  0  0  0  0
  2  7  1  0  0  0  0
  3  4  1  0  0  0  0
  4  8  1  0  0  0  0
  4  5  2  0  0  0  0
  5  9  1  0  0  0  0
  6  5  1  0  0  0  0
  6 10  1  0  0  0  0
  7  6  2  0  0  0  0
 11 17  1  0  0  0  0
 11 12  1  0  0  0  0
 12 18  1  0  0  0  0
 13 12  2  0  0  0  0
 13  3  1  0  0  0  0
 14 13  1  0  0  0  0
 15 16  1  0  0  0  0
 15 14  2  0  0  0  0
 16 11  2  0  0  0  0
 19 15  1  0  0  0  0
 20  7  1  0  0  0  0
 20 21  1  0  0  0  0
 22 21  1  0  0  0  0
M  END
>  <minimizedAffinity>
-4.4582572

$$$$

 OpenBabel03272505223D

 22 23  0  0  0  0  0  0  0  0999 V2000
   38.6440   26.8780   35.6570 Br  0  0  0  0  0  0  0  0  0  0  0  0
   38.2200   25.5650   34.3250 C   0  0  0  0  0  0  0  0  0  0  0  0
   38.1810   24.2320   34.6550 C   0  0  0  0  0  0  0  0  0  0  0  0
   37.8710   23.3220   33.6540 C   0  0  0  0  0  0  0  0  0  0  0  0
   37.6130   23.7660   32.3730 C   0  0  0  0  0  0  0  0  0  0  0  0
   37.6520   25.1210   32.0330 C   0  0  0  0  0  0  0  0  0  0  0  0
   37.9650   26.0320   33.0480 C   0  0  0  0  0  0  0  0  0  0  0  0
   37.8420   22.2750   33.9250 H   0  0  0  0  0  0  0  0  0  0  0  0
   37.3710   23.0450   31.5940 H   0  0  0  0  0  0  0  0  0  0  0  0
   37.4540   25.4640   31.0470 H   0  0  0  0  0  0  0  0  0  0  0  0
   39.9210   22.9240   37.7510 C   0  0  0  0  0  0  0  0  0  0  0  0
   39.6560   23.2640   36.4180 C   0  0  0  0  0  0  0  0  0  0  0  0
   38.4680   23.8730   36.0370 C   0  0  0  0  0  0  0  0  0  0  0  0
   37.6000   24.1090   37.0430 N   0  0  0  0  0  0  0  0  0  0  0  0
   37.8520   23.7840   38.3200 C   0  0  0  0  0  0  0  0  0  0  0  0
   38.9980   23.2000   38.6660 N   0  0  0  0  0  0  0  0  0  0  0  0
   40.8740   22.4420   38.0150 H   0  0  0  0  0  0  0  0  0  0  0  0
   40.3800   23.0570   35.6400 H   0  0  0  0  0  0  0  0  0  0  0  0
   37.1070   24.0000   39.0990 H   0  0  0  0  0  0  0  0  0  0  0  0
   38.0200   27.4870   32.7540 C   0  0  0  0  0  2  0  0  0  0  0  0
   36.6730   28.1160   32.5780 C   0  0  0  0  0  2  0  0  0  0  0  0
   36.0680   27.9540   33.4860 H   0  0  0  0  0  0  0  0  0  0  0  0
  2  3  1  0  0  0  0
  2  1  1  0  0  0  0
  3 13  1  0  0  0  0
  4  8  1  0  0  0  0
  4  3  2  0  0  0  0
  5  4  1  0  0  0  0
  6  5  2  0  0  0  0
  6  7  1  0  0  0  0
  7  2  2  0  0  0  0
  9  5  1  0  0  0  0
 10  6  1  0  0  0  0
 11 17  1  0  0  0  0
 11 16  1  0  0  0  0
 12 11  2  0  0  0  0
 13 12  1  0  0  0  0
 13 14  2  0  0  0  0
 14 15  1  0  0  0  0
 15 16  2  0  0  0  0
 15 19  1  0  0  0  0
 18 12  1  0  0  0  0
 20  7  1  0  0  0  0
 21 20  1  0  0  0  0
 21 22  1  0  0  0  0
M  END
>  <minimizedAffinity>
-4.34439564

$$$$

 OpenBabel03272505223D

 22 23  0  0  0  0  0  0  0  0999 V2000
   37.7900   22.7380   33.5640 Br  0  0  0  0  0  0  0  0  0  0  0  0
   37.6900   24.6460   33.7250 C   0  0  0  0  0  0  0  0  0  0  0  0
   38.1490   25.2710   34.8600 C   0  0  0  0  0  0  0  0  0  0  0  0
   38.0530   26.6540   34.9260 C   0  0  0  0  0  0  0  0  0  0  0  0
   37.5090   27.3600   33.8730 C   0  0  0  0  0  0  0  0  0  0  0  0
   37.0400   26.7290   32.7170 C   0  0  0  0  0  0  0  0  0  0  0  0
   37.1410   25.3350   32.6570 C   0  0  0  0  0  0  0  0  0  0  0  0
   38.4180   27.1350   35.8240 H   0  0  0  0  0  0  0  0  0  0  0  0
   37.4370   28.4440   33.9340 H   0  0  0  0  0  0  0  0  0  0  0  0
   36.6210   27.2710   31.9060 H   0  0  0  0  0  0  0  0  0  0  0  0
   38.5830   23.3740   38.1050 C   0  0  0  0  0  0  0  0  0  0  0  0
   38.0370   24.1840   37.1020 C   0  0  0  0  0  0  0  0  0  0  0  0
   38.7050   24.4300   35.9100 C   0  0  0  0  0  0  0  0  0  0  0  0
   39.9090   23.8300   35.7980 N   0  0  0  0  0  0  0  0  0  0  0  0
   40.4340   23.0530   36.7570 C   0  0  0  0  0  0  0  0  0  0  0  0
   39.7770   22.8290   37.8950 N   0  0  0  0  0  0  0  0  0  0  0  0
   38.0230   23.2010   39.0360 H   0  0  0  0  0  0  0  0  0  0  0  0
   37.0670   24.6480   37.2320 H   0  0  0  0  0  0  0  0  0  0  0  0
   41.4200   22.5900   36.6110 H   0  0  0  0  0  0  0  0  0  0  0  0
   36.6650   24.6030   31.4550 C   0  0  0  0  0  2  0  0  0  0  0  0
   35.2070   24.7910   31.1750 C   0  0  0  0  0  2  0  0  0  0  0  0
   34.9890   25.8650   31.0520 H   0  0  0  0  0  0  0  0  0  0  0  0
  1  2  1  0  0  0  0
  2  3  1  0  0  0  0
  3  4  2  0  0  0  0
  3 13  1  0  0  0  0
  4  8  1  0  0  0  0
  5  9  1  0  0  0  0
  5  4  1  0  0  0  0
  6  5  2  0  0  0  0
  7  6  1  0  0  0  0
  7  2  2  0  0  0  0
 10  6  1  0  0  0  0
 11 17  1  0  0  0  0
 12 18  1  0  0  0  0
 12 11  2  0  0  0  0
 13 12  1  0  0  0  0
 14 13  2  0  0  0  0
 14 15  1  0  0  0  0
 15 16  2  0  0  0  0
 16 11  1  0  0  0  0
 19 15  1  0  0  0  0
 20  7  1  0  0  0  0
 21 20  1  0  0  0  0
 22 21  1  0  0  0  0
M  END
>  <minimizedAffinity>
-4.34187412

$$$$

 OpenBabel03272505223D

 22 23  0  0  0  0  0  0  0  0999 V2000
   37.7570   23.4490   32.9710 Br  0  0  0  0  0  0  0  0  0  0  0  0
   37.4350   25.2690   33.4790 C   0  0  0  0  0  0  0  0  0  0  0  0
   37.7680   25.7060   34.7390 C   0  0  0  0  0  0  0  0  0  0  0  0
   37.5130   27.0330   35.0570 C   0  0  0  0  0  0  0  0  0  0  0  0
   36.9410   27.8700   34.1210 C   0  0  0  0  0  0  0  0  0  0  0  0
   36.6010   27.4300   32.8380 C   0  0  0  0  0  0  0  0  0  0  0  0
   36.8610   26.0910   32.5250 C   0  0  0  0  0  0  0  0  0  0  0  0
   37.7800   27.3650   36.0510 H   0  0  0  0  0  0  0  0  0  0  0  0
   36.7450   28.9080   34.3790 H   0  0  0  0  0  0  0  0  0  0  0  0
   36.1600   28.0740   32.1170 H   0  0  0  0  0  0  0  0  0  0  0  0
   40.2480   23.3820   36.4030 C   0  0  0  0  0  0  0  0  0  0  0  0
   39.6830   24.3130   35.5220 C   0  0  0  0  0  0  0  0  0  0  0  0
   38.3670   24.7390   35.6480 C   0  0  0  0  0  0  0  0  0  0  0  0
   37.6870   24.1890   36.6750 N   0  0  0  0  0  0  0  0  0  0  0  0
   38.2260   23.2980   37.5200 C   0  0  0  0  0  0  0  0  0  0  0  0
   39.4900   22.9010   37.3830 N   0  0  0  0  0  0  0  0  0  0  0  0
   41.2950   23.0690   36.2720 H   0  0  0  0  0  0  0  0  0  0  0  0
   40.2640   24.7300   34.7100 H   0  0  0  0  0  0  0  0  0  0  0  0
   37.6230   22.8830   38.3400 H   0  0  0  0  0  0  0  0  0  0  0  0
   36.5260   25.5610   31.1780 C   0  0  0  0  0  2  0  0  0  0  0  0
   35.0680   25.2860   30.9860 C   0  0  0  0  0  2  0  0  0  0  0  0
   34.4910   26.2090   31.1630 H   0  0  0  0  0  0  0  0  0  0  0  0
  1  2  1  0  0  0  0
  2  3  1  0  0  0  0
  3  4  2  0  0  0  0
  3 13  1  0  0  0  0
  4  8  1  0  0  0  0
  5  9  1  0  0  0  0
  5  4  1  0  0  0  0
  6  5  2  0  0  0  0
  7  6  1  0  0  0  0
  7  2  2  0  0  0  0
 10  6  1  0  0  0  0
 11 16  1  0  0  0  0
 12 13  1  0  0  0  0
 12 11  2  0  0  0  0
 13 14  2  0  0  0  0
 14 15  1  0  0  0  0
 15 19  1  0  0  0  0
 16 15  2  0  0  0  0
 17 11  1  0  0  0  0
 18 12  1  0  0  0  0
 20  7  1  0  0  0  0
 21 22  1  0  0  0  0
 21 20  1  0  0  0  0
M  END
>  <minimizedAffinity>
-4.32093

$$$$

 OpenBabel03272505223D

 22 23  0  0  0  0  0  0  0  0999 V2000
   32.4260   29.4160   34.2470 Br  0  0  0  0  0  0  0  0  0  0  0  0
   33.5700   30.5430   35.2930 C   0  0  0  0  0  0  0  0  0  0  0  0
   34.8960   30.6840   34.9600 C   0  0  0  0  0  0  0  0  0  0  0  0
   35.6820   31.5110   35.7510 C   0  0  0  0  0  0  0  0  0  0  0  0
   35.1270   32.1620   36.8340 C   0  0  0  0  0  0  0  0  0  0  0  0
   33.7790   32.0220   37.1760 C   0  0  0  0  0  0  0  0  0  0  0  0
   32.9930   31.1870   36.3740 C   0  0  0  0  0  0  0  0  0  0  0  0
   36.7240   31.6150   35.4790 H   0  0  0  0  0  0  0  0  0  0  0  0
   35.7510   32.8080   37.4480 H   0  0  0  0  0  0  0  0  0  0  0  0
   33.3510   32.5220   38.0100 H   0  0  0  0  0  0  0  0  0  0  0  0
   36.4590   28.0210   32.7720 C   0  0  0  0  0  0  0  0  0  0  0  0
   36.0000   28.7150   33.8990 C   0  0  0  0  0  0  0  0  0  0  0  0
   35.3770   29.9520   33.7970 C   0  0  0  0  0  0  0  0  0  0  0  0
   35.2520   30.4250   32.5390 N   0  0  0  0  0  0  0  0  0  0  0  0
   35.6900   29.7620   31.4590 C   0  0  0  0  0  0  0  0  0  0  0  0
   36.2850   28.5760   31.5770 N   0  0  0  0  0  0  0  0  0  0  0  0
   36.9470   27.0430   32.8920 H   0  0  0  0  0  0  0  0  0  0  0  0
   36.1210   28.3010   34.8910 H   0  0  0  0  0  0  0  0  0  0  0  0
   35.5600   30.1960   30.4570 H   0  0  0  0  0  0  0  0  0  0  0  0
   31.5520   30.9970   36.6810 C   0  0  0  0  0  2  0  0  0  0  0  0
   30.7190   32.2160   36.4350 C   0  0  0  0  0  2  0  0  0  0  0  0
   30.8260   32.5300   35.3830 H   0  0  0  0  0  0  0  0  0  0  0  0
  1  2  1  0  0  0  0
  2  7  1  0  0  0  0
  3  2  2  0  0  0  0
  3  4  1  0  0  0  0
  4  5  2  0  0  0  0
  5  6  1  0  0  0  0
  5  9  1  0  0  0  0
  6 10  1  0  0  0  0
  7 20  1  0  0  0  0
  7  6  2  0  0  0  0
  8  4  1  0  0  0  0
 11 17  1  0  0  0  0
 11 12  1  0  0  0  0
 12 18  1  0  0  0  0
 13 12  2  0  0  0  0
 13  3  1  0  0  0  0
 14 13  1  0  0  0  0
 15 16  1  0  0  0  0
 15 14  2  0  0  0  0
 16 11  2  0  0  0  0
 19 15  1  0  0  0  0
 21 20  1  0  0  0  0
 22 21  1  0  0  0  0
M  END
>  <minimizedAffinity>
-4.30893135

$$$$

 OpenBabel03272505223D

 22 23  0  0  0  0  0  0  0  0999 V2000
   38.2900   26.8120   35.9450 Br  0  0  0  0  0  0  0  0  0  0  0  0
   38.1200   24.9900   35.3720 C   0  0  0  0  0  0  0  0  0  0  0  0
   38.0930   24.6840   34.0330 C   0  0  0  0  0  0  0  0  0  0  0  0
   37.9670   23.3500   33.6710 C   0  0  0  0  0  0  0  0  0  0  0  0
   37.8720   22.3770   34.6440 C   0  0  0  0  0  0  0  0  0  0  0  0
   37.8980   22.6830   36.0090 C   0  0  0  0  0  0  0  0  0  0  0  0
   38.0260   24.0300   36.3650 C   0  0  0  0  0  0  0  0  0  0  0  0
   37.9480   23.1220   32.6140 H   0  0  0  0  0  0  0  0  0  0  0  0
   37.7730   21.3340   34.3520 H   0  0  0  0  0  0  0  0  0  0  0  0
   37.8250   21.9340   36.7580 H   0  0  0  0  0  0  0  0  0  0  0  0
   39.5060   27.2520   31.6390 C   0  0  0  0  0  0  0  0  0  0  0  0
   39.4140   26.1880   32.5440 C   0  0  0  0  0  0  0  0  0  0  0  0
   38.2010   25.7890   33.0900 C   0  0  0  0  0  0  0  0  0  0  0  0
   37.1310   26.5020   32.6810 N   0  0  0  0  0  0  0  0  0  0  0  0
   37.2160   27.5220   31.8130 C   0  0  0  0  0  0  0  0  0  0  0  0
   38.3890   27.8900   31.3010 N   0  0  0  0  0  0  0  0  0  0  0  0
   40.4840   27.5390   31.2270 H   0  0  0  0  0  0  0  0  0  0  0  0
   40.2980   25.6420   32.8470 H   0  0  0  0  0  0  0  0  0  0  0  0
   36.3100   28.0670   31.5160 H   0  0  0  0  0  0  0  0  0  0  0  0
   38.0640   24.4230   37.7970 C   0  0  0  0  0  2  0  0  0  0  0  0
   38.7490   23.4230   38.6770 C   0  0  0  0  0  2  0  0  0  0  0  0
   39.7800   23.2620   38.3200 H   0  0  0  0  0  0  0  0  0  0  0  0
  2  1  1  0  0  0  0
  2  7  1  0  0  0  0
  3  2  2  0  0  0  0
  4  3  1  0  0  0  0
  4  5  2  0  0  0  0
  5  6  1  0  0  0  0
  6  7  2  0  0  0  0
  6 10  1  0  0  0  0
  7 20  1  0  0  0  0
  8  4  1  0  0  0  0
  9  5  1  0  0  0  0
 11 12  1  0  0  0  0
 12 18  1  0  0  0  0
 12 13  2  0  0  0  0
 13  3  1  0  0  0  0
 14 13  1  0  0  0  0
 15 14  2  0  0  0  0
 16 11  2  0  0  0  0
 16 15  1  0  0  0  0
 17 11  1  0  0  0  0
 19 15  1  0  0  0  0
 20 21  1  0  0  0  0
 22 21  1  0  0  0  0
M  END
>  <minimizedAffinity>
-4.16245699

$$$$

 OpenBabel03272505223D

 22 23  0  0  0  0  0  0  0  0999 V2000
   36.0630   32.2020   35.2370 Br  0  0  0  0  0  0  0  0  0  0  0  0
   34.4170   31.3630   35.7490 C   0  0  0  0  0  0  0  0  0  0  0  0
   33.9580   30.2630   35.0640 C   0  0  0  0  0  0  0  0  0  0  0  0
   32.7610   29.6930   35.4740 C   0  0  0  0  0  0  0  0  0  0  0  0
   32.0690   30.2310   36.5400 C   0  0  0  0  0  0  0  0  0  0  0  0
   32.5330   31.3490   37.2400 C   0  0  0  0  0  0  0  0  0  0  0  0
   33.7400   31.9180   36.8210 C   0  0  0  0  0  0  0  0  0  0  0  0
   32.4100   28.8280   34.9280 H   0  0  0  0  0  0  0  0  0  0  0  0
   31.1310   29.7780   36.8540 H   0  0  0  0  0  0  0  0  0  0  0  0
   32.0010   31.7640   38.0600 H   0  0  0  0  0  0  0  0  0  0  0  0
   36.5230   28.3510   33.0430 C   0  0  0  0  0  0  0  0  0  0  0  0
   35.7510   28.8100   34.1170 C   0  0  0  0  0  0  0  0  0  0  0  0
   34.7680   29.7770   33.9550 C   0  0  0  0  0  0  0  0  0  0  0  0
   34.6190   30.2330   32.6930 N   0  0  0  0  0  0  0  0  0  0  0  0
   35.3570   29.7940   31.6630 C   0  0  0  0  0  0  0  0  0  0  0  0
   36.2960   28.8650   31.8380 N   0  0  0  0  0  0  0  0  0  0  0  0
   37.2930   27.5830   33.2090 H   0  0  0  0  0  0  0  0  0  0  0  0
   35.9020   28.4190   35.1150 H   0  0  0  0  0  0  0  0  0  0  0  0
   35.1920   30.2010   30.6560 H   0  0  0  0  0  0  0  0  0  0  0  0
   34.2900   33.1060   37.5240 C   0  0  0  0  0  2  0  0  0  0  0  0
   33.3220   34.2420   37.6310 C   0  0  0  0  0  2  0  0  0  0  0  0
   32.4110   33.9040   38.1530 H   0  0  0  0  0  0  0  0  0  0  0  0
  1  2  1  0  0  0  0
  2  7  1  0  0  0  0
  3  4  1  0  0  0  0
  3  2  2  0  0  0  0
  4  5  2  0  0  0  0
  5  9  1  0  0  0  0
  5  6  1  0  0  0  0
  6 10  1  0  0  0  0
  7  6  2  0  0  0  0
  7 20  1  0  0  0  0
  8  4  1  0  0  0  0
 11 17  1  0  0  0  0
 11 12  1  0  0  0  0
 12 18  1  0  0  0  0
 13 12  2  0  0  0  0
 13  3  1  0  0  0  0
 14 13  1  0  0  0  0
 15 16  1  0  0  0  0
 15 14  2  0  0  0  0
 16 11  2  0  0  0  0
 19 15  1  0  0  0  0
 20 21  1  0  0  0  0
 21 22  1  0  0  0  0
M  END
>  <minimizedAffinity>
-4.15965176

$$$$

 OpenBabel03272505223D

 22 23  0  0  0  0  0  0  0  0999 V2000
   38.1150   23.0710   33.5180 Br  0  0  0  0  0  0  0  0  0  0  0  0
   36.9320   24.1490   32.4630 C   0  0  0  0  0  0  0  0  0  0  0  0
   36.9080   25.5140   32.6270 C   0  0  0  0  0  0  0  0  0  0  0  0
   36.0320   26.2490   31.8390 C   0  0  0  0  0  0  0  0  0  0  0  0
   35.2200   25.6070   30.9260 C   0  0  0  0  0  0  0  0  0  0  0  0
   35.2420   24.2200   30.7570 C   0  0  0  0  0  0  0  0  0  0  0  0
   36.1270   23.4860   31.5540 C   0  0  0  0  0  0  0  0  0  0  0  0
   36.0220   27.3220   31.9760 H   0  0  0  0  0  0  0  0  0  0  0  0
   34.5370   26.1920   30.3130 H   0  0  0  0  0  0  0  0  0  0  0  0
   34.6170   23.7250   30.0540 H   0  0  0  0  0  0  0  0  0  0  0  0
   38.2880   26.8930   35.8690 C   0  0  0  0  0  0  0  0  0  0  0  0
   37.4130   26.3410   34.9250 C   0  0  0  0  0  0  0  0  0  0  0  0
   37.8070   26.0870   33.6180 C   0  0  0  0  0  0  0  0  0  0  0  0
   39.0870   26.4110   33.3360 N   0  0  0  0  0  0  0  0  0  0  0  0
   39.9270   26.9390   34.2390 C   0  0  0  0  0  0  0  0  0  0  0  0
   39.5290   27.1760   35.4880 N   0  0  0  0  0  0  0  0  0  0  0  0
   37.9400   27.0800   36.8960 H   0  0  0  0  0  0  0  0  0  0  0  0
   36.3930   26.0960   35.1930 H   0  0  0  0  0  0  0  0  0  0  0  0
   40.9590   27.1830   33.9520 H   0  0  0  0  0  0  0  0  0  0  0  0
   36.2020   22.0080   31.4200 C   0  0  0  0  0  2  0  0  0  0  0  0
   35.0870   21.2850   32.1090 C   0  0  0  0  0  2  0  0  0  0  0  0
   34.1190   21.6340   31.7120 H   0  0  0  0  0  0  0  0  0  0  0  0
  2  3  1  0  0  0  0
  2  1  1  0  0  0  0
  3 13  1  0  0  0  0
  4  8  1  0  0  0  0
  4  3  2  0  0  0  0
  5  4  1  0  0  0  0
  6  5  2  0  0  0  0
  6  7  1  0  0  0  0
  7  2  2  0  0  0  0
  9  5  1  0  0  0  0
 10  6  1  0  0  0  0
 11 17  1  0  0  0  0
 12 18  1  0  0  0  0
 12 11  2  0  0  0  0
 13 12  1  0  0  0  0
 14 13  2  0  0  0  0
 14 15  1  0  0  0  0
 15 16  2  0  0  0  0
 16 11  1  0  0  0  0
 19 15  1  0  0  0  0
 20  7  1  0  0  0  0
 20 21  1  0  0  0  0
 22 21  1  0  0  0  0
M  END
>  <minimizedAffinity>
-4.14617014

$$$$

 OpenBabel03272505223D

 22 23  0  0  0  0  0  0  0  0999 V2000
   38.0920   23.0660   33.5850 Br  0  0  0  0  0  0  0  0  0  0  0  0
   36.9770   24.2160   32.5330 C   0  0  0  0  0  0  0  0  0  0  0  0
   36.0600   23.6820   31.6600 C   0  0  0  0  0  0  0  0  0  0  0  0
   35.2770   24.5580   30.9210 C   0  0  0  0  0  0  0  0  0  0  0  0
   35.4330   25.9210   31.0740 C   0  0  0  0  0  0  0  0  0  0  0  0
   36.3650   26.4690   31.9610 C   0  0  0  0  0  0  0  0  0  0  0  0
   37.1500   25.5790   32.7020 C   0  0  0  0  0  0  0  0  0  0  0  0
   34.5580   24.1270   30.2370 H   0  0  0  0  0  0  0  0  0  0  0  0
   34.8160   26.6000   30.4900 H   0  0  0  0  0  0  0  0  0  0  0  0
   36.4860   27.5170   32.0790 H   0  0  0  0  0  0  0  0  0  0  0  0
   34.9740   20.0990   32.2080 C   0  0  0  0  0  0  0  0  0  0  0  0
   35.0430   21.4950   32.2950 C   0  0  0  0  0  0  0  0  0  0  0  0
   35.9770   22.2310   31.5780 C   0  0  0  0  0  0  0  0  0  0  0  0
   36.8020   21.4990   30.8000 N   0  0  0  0  0  0  0  0  0  0  0  0
   36.7370   20.1620   30.7140 C   0  0  0  0  0  0  0  0  0  0  0  0
   35.8340   19.4740   31.4110 N   0  0  0  0  0  0  0  0  0  0  0  0
   34.2200   19.5500   32.7910 H   0  0  0  0  0  0  0  0  0  0  0  0
   34.3620   22.0440   32.9330 H   0  0  0  0  0  0  0  0  0  0  0  0
   37.4360   19.6190   30.0630 H   0  0  0  0  0  0  0  0  0  0  0  0
   38.1560   26.0960   33.6650 C   0  0  0  0  0  2  0  0  0  0  0  0
   37.5610   26.8610   34.8050 C   0  0  0  0  0  2  0  0  0  0  0  0
   36.8420   26.2220   35.3440 H   0  0  0  0  0  0  0  0  0  0  0  0
  2  7  1  0  0  0  0
  2  1  1  0  0  0  0
  3  2  2  0  0  0  0
  4  5  2  0  0  0  0
  4  3  1  0  0  0  0
  5  6  1  0  0  0  0
  6 10  1  0  0  0  0
  6  7  2  0  0  0  0
  7 20  1  0  0  0  0
  8  4  1  0  0  0  0
  9  5  1  0  0  0  0
 11 12  1  0  0  0  0
 11 17  1  0  0  0  0
 12 18  1  0  0  0  0
 13  3  1  0  0  0  0
 13 12  2  0  0  0  0
 14 13  1  0  0  0  0
 15 14  2  0  0  0  0
 15 16  1  0  0  0  0
 16 11  2  0  0  0  0
 19 15  1  0  0  0  0
 20 21  1  0  0  0  0
 21 22  1  0  0  0  0
M  END
>  <minimizedAffinity>
-4.13794088

$$$$
