
     RDKit          3D

 26 27  0  0  0  0  0  0  0  0999 V2000
   37.9819   33.1704   49.4229 C   0  0  0  0  0  0  0  0  0  0  0  0
   39.0229   33.1629   48.4671 C   0  0  0  0  0  0  0  0  0  0  0  0
   39.0192   32.1244   47.5479 C   0  0  0  0  0  0  0  0  0  0  0  0
   38.0333   31.1664   47.5957 N   0  0  0  0  0  0  0  0  0  0  0  0
   37.0464   31.2211   48.5442 C   0  0  0  0  0  0  0  0  0  0  0  0
   37.0273   32.2306   49.4583 N   0  0  0  0  0  0  0  0  0  0  0  0
   37.2784   29.3554   51.0486 Br  0  0  0  0  0  0  0  0  0  0  0  0
   35.9578   29.3138   49.6638 C   0  0  0  0  0  0  0  0  0  0  0  0
   35.9954   30.2189   48.6121 C   0  0  0  0  0  0  0  0  0  0  0  0
   35.0148   30.1237   47.6613 C   0  0  0  0  0  0  0  0  0  0  0  0
   34.0021   29.1862   47.6926 C   0  0  0  0  0  0  0  0  0  0  0  0
   33.9896   28.3024   48.7459 C   0  0  0  0  0  0  0  0  0  0  0  0
   34.9690   28.3749   49.7227 C   0  0  0  0  0  0  0  0  0  0  0  0
   37.9747   33.9801   50.1486 H   0  0  0  0  0  0  0  0  0  0  0  0
   39.7940   33.8961   48.4153 H   0  0  0  0  0  0  0  0  0  0  0  0
   39.7606   31.9988   46.7604 H   0  0  0  0  0  0  0  0  0  0  0  0
   35.0431   30.8269   46.8434 H   0  0  0  0  0  0  0  0  0  0  0  0
   33.2047   27.5551   48.7951 H   0  0  0  0  0  0  0  0  0  0  0  0
   34.9649   27.6737   50.5647 H   0  0  0  0  0  0  0  0  0  0  0  0
   32.9999   29.1880   46.6014 C   0  0  0  0  0  0  0  0  0  0  0  0
   33.5617   29.6818   45.2877 C   0  0  0  0  0  0  0  0  0  0  0  0
   34.1698   28.9046   44.8226 H   0  0  0  0  0  0  0  0  0  0  0  0
   32.6377   28.1419   46.3850 H   0  0  0  0  0  0  0  0  0  0  0  0
   32.0982   29.7774   46.8248 H   0  0  0  0  0  0  0  0  0  0  0  0
   32.6962   29.9330   44.6287 H   0  0  0  0  0  0  0  0  0  0  0  0
   34.1138   30.6576   45.4102 H   0  0  0  0  0  0  0  0  0  0  0  0
  1  6  2  0
  2  1  1  0
  3  4  1  0
  3  2  2  0
  4  5  2  0
  5  9  1  0
  5  6  1  0
  8 13  2  0
  8  7  1  0
  9  8  1  0
 10 11  1  0
 10  9  2  0
 11 12  2  0
 12 13  1  0
  1 14  1  0
  2 15  1  0
  3 16  1  0
 10 17  1  0
 12 18  1  0
 13 19  1  0
 20 21  1  0
 21 22  1  0
 20 23  1  0
 20 24  1  0
 21 25  1  0
 21 26  1  0
 11 20  1  0
M  ISO  7  14  14  15  14  16  14  17  14  18  14  19  14  22   8
M  END
>  <DihAtoms>  (1) 
9,10,19,20

>  <DihDeg>  (1) 
89.99913409966526

$$$$
