
 OpenBabel03272510163D

 22 23  0  0  0  0  0  0  0  0999 V2000
   37.2900   29.3750   51.0810 Br  0  0  0  0  0  0  0  0  0  0  0  0
   35.9650   29.3220   49.7010 C   0  0  0  0  0  0  0  0  0  0  0  0
   35.9970   30.2200   48.6420 C   0  0  0  0  0  0  0  0  0  0  0  0
   35.0130   30.1170   47.6960 C   0  0  0  0  0  0  0  0  0  0  0  0
   34.0020   29.1780   47.7370 C   0  0  0  0  0  0  0  0  0  0  0  0
   33.9950   28.3010   48.7960 C   0  0  0  0  0  0  0  0  0  0  0  0
   34.9770   28.3820   49.7690 C   0  0  0  0  0  0  0  0  0  0  0  0
   35.0370   30.8140   46.8730 H   0  0  0  0  0  0  0  0  0  0  0  0
   33.2120   27.5530   48.8530 H   0  0  0  0  0  0  0  0  0  0  0  0
   34.9780   27.6870   50.6160 H   0  0  0  0  0  0  0  0  0  0  0  0
   37.9850   33.1770   49.4300 C   0  0  0  0  0  0  0  0  0  0  0  0
   39.0190   33.1680   48.4670 C   0  0  0  0  0  0  0  0  0  0  0  0
   39.0110   32.1250   47.5520 C   0  0  0  0  0  0  0  0  0  0  0  0
   38.0260   31.1660   47.6090 N   0  0  0  0  0  0  0  0  0  0  0  0
   37.0460   31.2230   48.5640 C   0  0  0  0  0  0  0  0  0  0  0  0
   37.0310   32.2360   49.4740 N   0  0  0  0  0  0  0  0  0  0  0  0
   37.9820   33.9890   50.1530 H   0  0  0  0  0  0  0  0  0  0  0  0
   39.7890   33.9020   48.4070 H   0  0  0  0  0  0  0  0  0  0  0  0
   39.7480   31.9990   46.7590 H   0  0  0  0  0  0  0  0  0  0  0  0
   32.9960   29.1710   46.6490 C   0  0  0  0  0  2  0  0  0  0  0  0
   33.2750   28.1220   45.5970 C   0  0  0  0  0  2  0  0  0  0  0  0
   32.9890   27.1360   45.9640 H   0  0  0  0  0  0  0  0  0  0  0  0
  2  7  1  0  0  0  0
  2  1  1  0  0  0  0
  3  2  2  0  0  0  0
  4  5  2  0  0  0  0
  4  3  1  0  0  0  0
  5  6  1  0  0  0  0
  6  9  1  0  0  0  0
  6  7  2  0  0  0  0
  7 10  1  0  0  0  0
  8  4  1  0  0  0  0
 11 16  1  0  0  0  0
 11 17  1  0  0  0  0
 12 11  2  0  0  0  0
 13 14  2  0  0  0  0
 13 12  1  0  0  0  0
 14 15  1  0  0  0  0
 15  3  1  0  0  0  0
 15 16  2  0  0  0  0
 18 12  1  0  0  0  0
 19 13  1  0  0  0  0
 20  5  1  0  0  0  0
 21 22  1  0  0  0  0
 21 20  1  0  0  0  0
M  END
>  <minimizedAffinity>
-5.41769552

>  <minimizedRMSD>
0.0415618867

$$$$
