
 OpenBabel03272507073D

 33 36  0  0  0  0  0  0  0  0999 V2000
   38.1770   32.6000   49.3540 C   0  0  0  0  0  0  0  0  0  0  0  0
   38.8720   32.7490   48.1480 C   0  0  0  0  0  0  0  0  0  0  0  0
   38.4390   31.9660   47.0770 C   0  0  0  0  0  0  0  0  0  0  0  0
   37.4010   31.1180   47.2320 N   0  0  0  0  0  0  0  0  0  0  0  0
   36.7590   31.0070   48.4200 C   0  0  0  0  0  0  0  0  0  0  0  0
   37.1500   31.7460   49.4720 N   0  0  0  0  0  0  0  0  0  0  0  0
   38.5180   33.2110   50.1820 H   0  0  0  0  0  0  0  0  0  0  0  0
   39.7070   33.4160   47.9830 H   0  0  0  0  0  0  0  0  0  0  0  0
   35.6640   29.1040   49.5090 C   0  0  0  0  0  0  0  0  0  0  0  0
   35.6370   30.0640   48.5180 C   0  0  0  0  0  0  0  0  0  0  0  0
   34.5880   30.1330   47.6490 C   0  0  0  0  0  0  0  0  0  0  0  0
   33.5410   29.2500   47.7460 C   0  0  0  0  0  0  0  0  0  0  0  0
   32.4010   29.1070   47.0220 N   0  0  0  0  0  0  0  0  0  0  0  0
   31.7730   28.0440   47.6190 C   0  0  0  0  0  0  0  0  0  0  0  0
   32.4900   27.5710   48.6410 N   0  0  0  0  0  0  0  0  0  0  0  0
   33.6090   28.3080   48.7490 C   0  0  0  0  0  0  0  0  0  0  0  0
   34.6300   28.1960   49.6390 C   0  0  0  0  0  0  0  0  0  0  0  0
   36.4960   29.0450   50.2020 H   0  0  0  0  0  0  0  0  0  0  0  0
   34.5350   30.8780   46.8580 H   0  0  0  0  0  0  0  0  0  0  0  0
   32.0740   29.6720   46.2030 H   0  0  0  0  0  0  0  0  0  0  0  0
   30.8130   27.6450   47.2910 H   0  0  0  0  0  0  0  0  0  0  0  0
   34.6230   27.4300   50.4080 H   0  0  0  0  0  0  0  0  0  0  0  0
   39.0510   31.9960   45.7460 C   0  0  0  0  0  0  0  0  0  0  0  0
   39.5280   33.1480   45.1490 C   0  0  0  0  0  0  0  0  0  0  0  0
   40.1080   33.1960   43.8980 C   0  0  0  0  0  0  0  0  0  0  0  0
   40.2090   32.0460   43.2270 N   0  0  0  0  0  0  0  0  0  0  0  0
   39.7560   30.9090   43.7760 C   0  0  0  0  0  0  0  0  0  0  0  0
   39.2040   30.8850   44.9770 N   0  0  0  0  0  0  0  0  0  0  0  0
   39.4460   34.0800   45.6950 H   0  0  0  0  0  0  0  0  0  0  0  0
   40.4600   34.1380   43.4970 H   0  0  0  0  0  0  0  0  0  0  0  0
   39.8790   29.6440   43.0110 C   0  0  0  0  0  0  0  0  0  0  0  0
   41.1920   29.5750   42.2540 C   0  0  0  0  0  0  0  0  0  0  0  0
   41.5290   30.6030   41.9870 H   0  0  0  0  0  0  0  0  0  0  0  0
  1  6  1  0  0  0  0
  1  7  1  0  0  0  0
  2  1  2  0  0  0  0
  3  4  2  0  0  0  0
  3  2  1  0  0  0  0
  4  5  1  0  0  0  0
  5 10  1  0  0  0  0
  5  6  2  0  0  0  0
  8  2  1  0  0  0  0
  9 17  1  0  0  0  0
  9 18  1  0  0  0  0
 10  9  2  0  0  0  0
 11 12  2  0  0  0  0
 11 10  1  0  0  0  0
 12 16  1  0  0  0  0
 13 14  1  0  0  0  0
 13 12  1  0  0  0  0
 14 15  2  0  0  0  0
 15 16  1  0  0  0  0
 16 17  2  0  0  0  0
 17 22  1  0  0  0  0
 19 11  1  0  0  0  0
 20 13  1  0  0  0  0
 21 14  1  0  0  0  0
 23  3  1  0  0  0  0
 24 29  1  0  0  0  0
 24 23  1  0  0  0  0
 25 24  2  0  0  0  0
 26 27  2  0  0  0  0
 26 25  1  0  0  0  0
 27 28  1  0  0  0  0
 28 23  2  0  0  0  0
 30 25  1  0  0  0  0
 31 27  1  0  0  0  0
 32 31  1  0  0  0  0
 33 32  1  0  0  0  0
M  END
>  <minimizedAffinity>
-6.70711136

>  <minimizedRMSD>
0.688324392

$$$$
