REMARK  Name = 
REMARK  3 active torsions:
REMARK  status: ('A' for Active; 'I' for Inactive)
REMARK    1  A    between atoms: C_5  and  C_9
REMARK    2  A    between atoms: C_11  and  C_20
REMARK    3  A    between atoms: C_20  and  C_21
REMARK                            x       y       z     vdW  Elec       q    Type
REMARK                         _______ _______ _______ _____ _____    ______ ____
ROOT
ATOM      1 BR   UNL     1      37.278  29.355  51.049  0.00  0.00    +0.000 Br
ATOM      2  C   UNL     1      35.958  29.314  49.664  0.00  0.00    +0.000 A 
ATOM      3  C   UNL     1      35.995  30.219  48.612  0.00  0.00    +0.000 A 
ATOM      4  C   UNL     1      35.015  30.124  47.661  0.00  0.00    +0.000 A 
ATOM      5  C   UNL     1      34.002  29.186  47.693  0.00  0.00    +0.000 A 
ATOM      6  C   UNL     1      33.990  28.302  48.746  0.00  0.00    +0.000 A 
ATOM      7  C   UNL     1      34.969  28.375  49.723  0.00  0.00    +0.000 A 
ATOM      8  H   UNL     1      35.043  30.827  46.843  0.00  0.00    +0.000 HD
ATOM      9  H   UNL     1      33.205  27.555  48.795  0.00  0.00    +0.000 HD
ATOM     10  H   UNL     1      34.965  27.674  50.565  0.00  0.00    +0.000 HD
ENDROOT
BRANCH   3  15
ATOM     11  C   UNL     1      37.982  33.170  49.423  0.00  0.00    +0.000 A 
ATOM     12  C   UNL     1      39.023  33.163  48.467  0.00  0.00    +0.000 A 
ATOM     13  C   UNL     1      39.019  32.124  47.548  0.00  0.00    +0.000 A 
ATOM     14  N   UNL     1      38.033  31.166  47.596  0.00  0.00    +0.000 NA
ATOM     15  C   UNL     1      37.046  31.221  48.544  0.00  0.00    +0.000 A 
ATOM     16  N   UNL     1      37.027  32.231  49.458  0.00  0.00    +0.000 NA
ATOM     17  H   UNL     1      37.975  33.980  50.149  0.00  0.00    +0.000 HD
ATOM     18  H   UNL     1      39.794  33.896  48.415  0.00  0.00    +0.000 HD
ATOM     19  H   UNL     1      39.761  31.999  46.760  0.00  0.00    +0.000 HD
ENDBRANCH   3  15
BRANCH   5  20
ATOM     20  C   UNL     1      33.000  29.188  46.601  0.00  0.00    +0.000 C 
BRANCH  20  21
ATOM     21  C   UNL     1      31.590  29.413  47.098  0.00  0.00    +0.000 C 
ATOM     22  H   UNL     1      31.438  30.467  47.334  0.00  0.00    +0.000 HD
ENDBRANCH  20  21
ENDBRANCH   5  20
TORSDOF 3
