REMARK  Name = 
REMARK  5 active torsions:
REMARK  status: ('A' for Active; 'I' for Inactive)
REMARK    1  A    between atoms: C_1  and  O_12
REMARK    2  A    between atoms: C_2  and  C_8
REMARK    3  A    between atoms: O_12  and  C_15
REMARK    4  A    between atoms: C_19  and  C_32
REMARK    5  A    between atoms: C_32  and  C_33
REMARK                            x       y       z     vdW  Elec       q    Type
REMARK                         _______ _______ _______ _____ _____    ______ ____
ROOT
ATOM      1  C   UNL     1      38.955  32.367  47.798  0.00  0.00    +0.000 C 
ATOM      2  C   UNL     1      37.996  32.751  48.972  0.00  0.00    +0.000 C 
ATOM      3  C   UNL     1      38.889  33.551  49.795  0.00  0.00    +0.000 C 
ATOM      4  O   UNL     1      39.730  34.267  48.957  0.00  0.00    +0.000 OA
ATOM      5  C   UNL     1      39.628  33.764  47.698  0.00  0.00    +0.000 C 
ATOM      6  H   UNL     1      39.708  31.657  48.140  0.00  0.00    +0.000 HD
ATOM      7  H   UNL     1      37.218  33.356  48.461  0.00  0.00    +0.000 HD
ATOM      8  H   UNL     1      38.309  34.317  50.378  0.00  0.00    +0.000 HD
ATOM      9  H   UNL     1      39.495  33.014  50.517  0.00  0.00    +0.000 HD
ATOM     10  H   UNL     1      40.673  33.553  47.341  0.00  0.00    +0.000 HD
ATOM     11  H   UNL     1      39.083  34.420  47.004  0.00  0.00    +0.000 HD
ENDROOT
BRANCH   2  14
ATOM     12  C   UNL     1      37.358  29.700  51.086  0.00  0.00    +0.000 A 
ATOM     13  C   UNL     1      38.031  30.838  50.564  0.00  0.00    +0.000 A 
ATOM     14  C   UNL     1      37.374  31.594  49.554  0.00  0.00    +0.000 A 
ATOM     15  N   UNL     1      36.116  31.185  49.132  0.00  0.00    +0.000 NA
ATOM     16  C   UNL     1      35.539  30.104  49.665  0.00  0.00    +0.000 A 
ATOM     17  N   UNL     1      36.130  29.359  50.626  0.00  0.00    +0.000 NA
ATOM     18  H   UNL     1      37.776  29.078  51.843  0.00  0.00    +0.000 HD
ATOM     19  H   UNL     1      38.996  31.095  50.937  0.00  0.00    +0.000 HD
ATOM     20  H   UNL     1      34.561  29.890  49.249  0.00  0.00    +0.000 HD
ENDBRANCH   2  14
BRANCH   1  21
ATOM     21  O   UNL     1      38.287  32.124  46.647  0.00  0.00    +0.000 OA
BRANCH  21  24
ATOM     22 CL   UNL     1      40.952  31.251  45.374  0.00  0.00    +0.000 Cl
ATOM     23  C   UNL     1      39.361  30.694  44.896  0.00  0.00    +0.000 A 
ATOM     24  C   UNL     1      38.319  31.238  45.633  0.00  0.00    +0.000 A 
ATOM     25  C   UNL     1      37.060  30.797  45.272  0.00  0.00    +0.000 A 
ATOM     26  C   UNL     1      36.863  29.882  44.252  0.00  0.00    +0.000 A 
ATOM     27  C   UNL     1      37.942  29.391  43.570  0.00  0.00    +0.000 A 
ATOM     28  C   UNL     1      39.214  29.791  43.883  0.00  0.00    +0.000 A 
ATOM     29  H   UNL     1      36.141  31.112  45.736  0.00  0.00    +0.000 HD
ATOM     30  H   UNL     1      35.883  29.518  43.949  0.00  0.00    +0.000 HD
ATOM     31  H   UNL     1      37.816  28.678  42.772  0.00  0.00    +0.000 HD
BRANCH  28  32
ATOM     32  C   UNL     1      40.358  29.239  43.118  0.00  0.00    +0.000 C 
BRANCH  32  33
ATOM     33  C   UNL     1      41.595  30.102  43.301  0.00  0.00    +0.000 C 
ATOM     34  H   UNL     1      42.368  29.642  43.933  0.00  0.00    +0.000 HD
ENDBRANCH  32  33
ENDBRANCH  28  32
ENDBRANCH  21  24
ENDBRANCH   1  21
TORSDOF 5
