
 OpenBabel03272506473D

 36 38  0  0  1  0  0  0  0  0999 V2000
   32.2070   28.6320   47.3990 C   0  0  2  0  0  0  0  0  0  0  0  0
   33.4570   28.3750   48.1930 C   0  0  1  0  0  0  0  0  0  0  0  0
   33.7900   27.0630   48.0420 O   0  0  0  0  0  0  0  0  0  0  0  0
   33.0480   26.5150   46.9990 C   0  0  0  0  0  0  0  0  0  0  0  0
   32.4770   27.6630   46.2050 C   0  0  1  0  0  0  0  0  0  0  0  0
   31.2790   28.3350   47.8730 H   0  0  0  0  0  0  0  0  0  0  0  0
   33.3200   28.6700   49.2640 H   0  0  0  0  0  0  0  0  0  0  0  0
   32.3370   25.8310   47.4330 H   0  0  0  0  0  0  0  0  0  0  0  0
   33.8080   25.9840   46.3560 H   0  0  0  0  0  0  0  0  0  0  0  0
   33.1750   28.1580   45.5370 H   0  0  0  0  0  0  0  0  0  0  0  0
   32.1880   29.9540   46.9090 O   0  0  0  0  0  0  0  0  0  0  0  0
   32.4940   29.9710   45.9710 H   0  0  0  0  0  0  0  0  0  0  0  0
   34.8000   29.3890   47.4440 S   0  0  0  0  0  0  0  0  0  0  0  0
   37.1320   29.3040   50.6440 C   0  0  0  0  0  0  0  0  0  0  0  0
   37.6530   30.5980   50.7620 C   0  0  0  0  0  0  0  0  0  0  0  0
   37.2540   31.5250   49.8020 C   0  0  0  0  0  0  0  0  0  0  0  0
   36.4010   31.1410   48.8190 N   0  0  0  0  0  0  0  0  0  0  0  0
   35.9270   29.8750   48.7530 C   0  0  0  0  0  0  0  0  0  0  0  0
   36.2880   28.9430   49.6650 N   0  0  0  0  0  0  0  0  0  0  0  0
   37.4630   28.6000   51.4110 H   0  0  0  0  0  0  0  0  0  0  0  0
   38.3330   30.9050   51.5450 H   0  0  0  0  0  0  0  0  0  0  0  0
   37.5860   32.5500   49.7850 H   0  0  0  0  0  0  0  0  0  0  0  0
   31.3010   27.2560   45.6200 O   0  0  0  0  0  0  0  0  0  0  0  0
   29.7810   29.5200   44.5110 Cl  0  0  0  0  0  0  0  0  0  0  0  0
   29.2870   28.3670   45.7250 C   0  0  0  0  0  0  0  0  0  0  0  0
   30.0890   27.3350   46.1600 C   0  0  0  0  0  0  0  0  0  0  0  0
   29.5710   26.4610   47.1190 C   0  0  0  0  0  0  0  0  0  0  0  0
   28.2970   26.6320   47.6120 C   0  0  0  0  0  0  0  0  0  0  0  0
   27.4820   27.6650   47.1830 C   0  0  0  0  0  0  0  0  0  0  0  0
   27.9910   28.5420   46.2250 C   0  0  0  0  0  0  0  0  0  0  0  0
   30.1240   25.6260   47.5130 H   0  0  0  0  0  0  0  0  0  0  0  0
   27.8580   25.9900   48.3460 H   0  0  0  0  0  0  0  0  0  0  0  0
   26.4870   27.8160   47.5530 H   0  0  0  0  0  0  0  0  0  0  0  0
   27.1310   29.6460   45.7600 C   0  0  0  0  0  2  0  0  0  0  0  0
   26.9090   30.6340   46.9090 C   0  0  0  0  0  2  0  0  0  0  0  0
   25.8850   30.4940   47.3230 H   0  0  0  0  0  0  0  0  0  0  0  0
  1  6  1  1  0  0  0
  1  2  1  0  0  0  0
  2  7  1  1  0  0  0
  3  2  1  0  0  0  0
  4  8  1  0  0  0  0
  4  3  1  0  0  0  0
  5 10  1  6  0  0  0
  5  4  1  0  0  0  0
  5  1  1  0  0  0  0
  9  4  1  0  0  0  0
 11  1  1  0  0  0  0
 12 11  1  0  0  0  0
 13  2  1  0  0  0  0
 13 18  1  0  0  0  0
 14 15  1  0  0  0  0
 14 20  1  0  0  0  0
 15 21  1  0  0  0  0
 16 15  2  0  0  0  0
 17 16  1  0  0  0  0
 18 17  2  0  0  0  0
 18 19  1  0  0  0  0
 19 14  2  0  0  0  0
 22 16  1  0  0  0  0
 23 26  1  0  0  0  0
 23  5  1  0  0  0  0
 24 25  1  0  0  0  0
 25 26  2  0  0  0  0
 25 30  1  0  0  0  0
 26 27  1  0  0  0  0
 27 31  1  0  0  0  0
 27 28  2  0  0  0  0
 28 32  1  0  0  0  0
 29 33  1  0  0  0  0
 29 28  1  0  0  0  0
 30 29  2  0  0  0  0
 34 30  1  0  0  0  0
 34 35  1  0  0  0  0
 35 36  1  0  0  0  0
M  END
>  <minimizedAffinity>
-4.66628599

>  <minimizedRMSD>
0.282225668

$$$$
