
 OpenBabel03272506473D

 36 38  0  0  1  0  0  0  0  0999 V2000
   32.0050   28.5240   47.4300 C   0  0  2  0  0  0  0  0  0  0  0  0
   33.2490   28.2380   48.2260 C   0  0  1  0  0  0  0  0  0  0  0  0
   33.5290   26.9110   48.1050 O   0  0  0  0  0  0  0  0  0  0  0  0
   32.7610   26.3660   47.0790 C   0  0  0  0  0  0  0  0  0  0  0  0
   32.2310   27.5170   46.2590 C   0  0  1  0  0  0  0  0  0  0  0  0
   31.0690   28.2750   47.9150 H   0  0  0  0  0  0  0  0  0  0  0  0
   33.1290   28.5640   49.2890 H   0  0  0  0  0  0  0  0  0  0  0  0
   32.0260   25.7220   47.5330 H   0  0  0  0  0  0  0  0  0  0  0  0
   33.4960   25.7910   46.4460 H   0  0  0  0  0  0  0  0  0  0  0  0
   32.9440   27.9670   45.5770 H   0  0  0  0  0  0  0  0  0  0  0  0
   32.0350   29.8330   46.9080 O   0  0  0  0  0  0  0  0  0  0  0  0
   32.3370   29.8150   45.9690 H   0  0  0  0  0  0  0  0  0  0  0  0
   34.6270   29.1800   47.4460 S   0  0  0  0  0  0  0  0  0  0  0  0
   36.9830   29.2600   50.6280 C   0  0  0  0  0  0  0  0  0  0  0  0
   37.4020   30.5900   50.7500 C   0  0  0  0  0  0  0  0  0  0  0  0
   36.9230   31.4880   49.7990 C   0  0  0  0  0  0  0  0  0  0  0  0
   36.0950   31.0440   48.8200 N   0  0  0  0  0  0  0  0  0  0  0  0
   35.7220   29.7450   48.7490 C   0  0  0  0  0  0  0  0  0  0  0  0
   36.1620   28.8390   49.6530 N   0  0  0  0  0  0  0  0  0  0  0  0
   37.3750   28.5800   51.3880 H   0  0  0  0  0  0  0  0  0  0  0  0
   38.0610   30.9450   51.5300 H   0  0  0  0  0  0  0  0  0  0  0  0
   37.1730   32.5370   49.7860 H   0  0  0  0  0  0  0  0  0  0  0  0
   31.0370   27.1420   45.6900 O   0  0  0  0  0  0  0  0  0  0  0  0
   29.6240   29.4530   44.5370 Cl  0  0  0  0  0  0  0  0  0  0  0  0
   29.0780   28.3490   45.7750 C   0  0  0  0  0  0  0  0  0  0  0  0
   29.8310   27.2890   46.2290 C   0  0  0  0  0  0  0  0  0  0  0  0
   29.2750   26.4600   47.2060 C   0  0  0  0  0  0  0  0  0  0  0  0
   28.0100   26.7000   47.6970 C   0  0  0  0  0  0  0  0  0  0  0  0
   27.2450   27.7620   47.2490 C   0  0  0  0  0  0  0  0  0  0  0  0
   27.7920   28.5950   46.2730 C   0  0  0  0  0  0  0  0  0  0  0  0
   29.7880   25.6070   47.6160 H   0  0  0  0  0  0  0  0  0  0  0  0
   27.5440   26.0950   48.4450 H   0  0  0  0  0  0  0  0  0  0  0  0
   26.2590   27.9670   47.6170 H   0  0  0  0  0  0  0  0  0  0  0  0
   26.9850   29.7290   45.7870 C   0  0  0  0  0  2  0  0  0  0  0  0
   26.8930   30.7920   46.8870 C   0  0  0  0  0  2  0  0  0  0  0  0
   25.8850   30.7480   47.3580 H   0  0  0  0  0  0  0  0  0  0  0  0
  1  6  1  1  0  0  0
  1  2  1  0  0  0  0
  2  7  1  1  0  0  0
  3  2  1  0  0  0  0
  4  8  1  0  0  0  0
  4  3  1  0  0  0  0
  5 10  1  6  0  0  0
  5  4  1  0  0  0  0
  5  1  1  0  0  0  0
  9  4  1  0  0  0  0
 11  1  1  0  0  0  0
 12 11  1  0  0  0  0
 13  2  1  0  0  0  0
 13 18  1  0  0  0  0
 14 15  1  0  0  0  0
 14 20  1  0  0  0  0
 15 21  1  0  0  0  0
 16 15  2  0  0  0  0
 17 16  1  0  0  0  0
 18 17  2  0  0  0  0
 18 19  1  0  0  0  0
 19 14  2  0  0  0  0
 22 16  1  0  0  0  0
 23 26  1  0  0  0  0
 23  5  1  0  0  0  0
 24 25  1  0  0  0  0
 25 26  2  0  0  0  0
 25 30  1  0  0  0  0
 26 27  1  0  0  0  0
 27 31  1  0  0  0  0
 27 28  2  0  0  0  0
 28 32  1  0  0  0  0
 29 33  1  0  0  0  0
 29 28  1  0  0  0  0
 30 29  2  0  0  0  0
 34 30  1  0  0  0  0
 34 35  1  0  0  0  0
 35 36  1  0  0  0  0
M  END
>  <minimizedAffinity>
-4.68463326

>  <minimizedRMSD>
0.533471465

$$$$
