
 OpenBabel03272509423D

 32 33  0  0  1  0  0  0  0  0999 V2000
   37.0860   30.9350   49.0510 C   0  0  0  0  0  0  0  0  0  0  0  0
   36.8140   31.8670   50.0540 C   0  0  0  0  0  0  0  0  0  0  0  0
   37.4090   33.1190   50.0670 C   0  0  0  0  0  0  0  0  0  0  0  0
   38.3070   33.4660   49.0560 C   0  0  0  0  0  0  0  0  0  0  0  0
   38.5640   32.5430   48.0840 C   0  0  0  0  0  0  0  0  0  0  0  0
   37.9520   31.2980   48.0980 C   0  0  0  0  0  0  0  0  0  0  0  0
   36.1200   31.6100   50.8390 H   0  0  0  0  0  0  0  0  0  0  0  0
   37.1480   33.7770   50.8680 H   0  0  0  0  0  0  0  0  0  0  0  0
   38.7160   34.4480   49.1480 H   0  0  0  0  0  0  0  0  0  0  0  0
   39.2830   32.9540   47.3690 H   0  0  0  0  0  0  0  0  0  0  0  0
   36.4910   29.6160   49.0520 C   0  0  2  0  0  0  0  0  0  0  0  0
   36.9840   29.0590   48.1660 H   0  0  0  0  0  0  0  0  0  0  0  0
   33.6180   29.9620   46.8540 C   0  0  0  0  0  0  0  0  0  0  0  0
   32.8790   28.8180   47.0870 C   0  0  0  0  0  0  0  0  0  0  0  0
   33.3270   27.9380   48.0540 C   0  0  0  0  0  0  0  0  0  0  0  0
   34.4840   28.2270   48.7430 N   0  0  0  0  0  0  0  0  0  0  0  0
   35.1460   29.3330   48.4740 C   0  0  0  0  0  0  0  0  0  0  0  0
   34.7220   30.2080   47.5330 N   0  0  0  0  0  0  0  0  0  0  0  0
   33.2890   30.6680   46.1030 H   0  0  0  0  0  0  0  0  0  0  0  0
   31.9830   28.6510   46.5120 H   0  0  0  0  0  0  0  0  0  0  0  0
   32.7640   27.0280   48.2600 H   0  0  0  0  0  0  0  0  0  0  0  0
   36.9590   28.8640   49.9850 O   0  0  0  0  0  0  0  0  0  0  0  0
   37.1580   29.2020   50.8910 H   0  0  0  0  0  0  0  0  0  0  0  0
   38.3390   30.4120   47.0250 C   0  0  0  0  0  0  0  0  0  0  0  0
   38.7820   30.8290   45.8340 C   0  0  0  0  0  0  0  0  0  0  0  0
   39.2420   30.0130   44.6870 C   0  0  0  0  0  0  0  0  0  0  0  0
   38.3400   29.7670   44.0590 H   0  0  0  0  0  0  0  0  0  0  0  0
   39.6450   29.0220   44.9790 H   0  0  0  0  0  0  0  0  0  0  0  0
   40.4020   30.9600   43.6980 S   0  0  0  0  0  0  0  0  0  0  0  0
   40.6100   30.3390   42.0270 C   0  0  0  0  0  0  0  0  0  0  0  0
   41.5260   29.1530   42.0160 C   0  0  0  0  0  0  0  0  0  0  0  0
   42.5280   29.4300   42.3500 H   0  0  0  0  0  0  0  0  0  0  0  0
  1 11  1  0  0  0  0
  1  2  1  0  0  0  0
  2  3  2  0  0  0  0
  2  7  1  0  0  0  0
  3  8  1  0  0  0  0
  4  9  1  0  0  0  0
  4  3  1  0  0  0  0
  5  6  1  0  0  0  0
  5  4  2  0  0  0  0
  6  1  2  0  0  0  0
 10  5  1  0  0  0  0
 11 12  1  6  0  0  0
 11 22  1  0  0  0  0
 13 14  2  0  0  0  0
 13 18  1  0  0  0  0
 14 15  1  0  0  0  0
 15 21  1  0  0  0  0
 15 16  2  0  0  0  0
 17 16  1  0  0  0  0
 17 11  1  0  0  0  0
 18 17  2  0  0  0  0
 19 13  1  0  0  0  0
 20 14  1  0  0  0  0
 22 23  1  0  0  0  0
 24  6  1  0  0  0  0
 25 24  2  0  0  0  0
 26 28  1  0  0  0  0
 26 25  1  0  0  0  0
 27 26  1  0  0  0  0
 29 26  1  0  0  0  0
 30 29  1  0  0  0  0
 31 30  1  0  0  0  0
 31 32  1  0  0  0  0
M  END
>  <minimizedAffinity>
-5.4833107

>  <minimizedRMSD>
0.474900544

$$$$
