
 OpenBabel03272510113D

 29 31  0  0  0  0  0  0  0  0999 V2000
   33.5760   28.6330   48.2300 C   0  0  0  0  0  0  0  0  0  0  0  0
   34.0530   28.2930   49.4550 C   0  0  0  0  0  0  0  0  0  0  0  0
   35.3020   28.6210   49.9340 C   0  0  0  0  0  0  0  0  0  0  0  0
   36.1610   29.3400   49.1580 C   0  0  0  0  0  0  0  0  0  0  0  0
   35.6820   29.6980   47.8910 C   0  0  0  0  0  0  0  0  0  0  0  0
   34.4510   29.3540   47.4650 N   0  0  0  0  0  0  0  0  0  0  0  0
   33.4370   27.7210   50.1360 H   0  0  0  0  0  0  0  0  0  0  0  0
   35.6730   28.3460   50.9110 H   0  0  0  0  0  0  0  0  0  0  0  0
   36.2650   30.2680   47.1820 H   0  0  0  0  0  0  0  0  0  0  0  0
   31.3420   27.5590   48.4630 C   0  0  0  0  0  0  0  0  0  0  0  0
   32.2830   28.2910   47.7250 C   0  0  0  0  0  0  0  0  0  0  0  0
   31.9160   28.6720   46.4630 C   0  0  0  0  0  0  0  0  0  0  0  0
   30.6800   28.3330   45.9800 N   0  0  0  0  0  0  0  0  0  0  0  0
   29.8050   27.6190   46.7450 C   0  0  0  0  0  0  0  0  0  0  0  0
   30.1240   27.2220   47.9980 N   0  0  0  0  0  0  0  0  0  0  0  0
   31.5810   27.2350   49.4670 H   0  0  0  0  0  0  0  0  0  0  0  0
   32.5950   29.2360   45.8470 H   0  0  0  0  0  0  0  0  0  0  0  0
   28.8630   27.4270   46.2230 H   0  0  0  0  0  0  0  0  0  0  0  0
   37.4490   29.7590   49.4720 O   0  0  0  0  0  0  0  0  0  0  0  0
   37.9640   30.9580   49.0190 C   0  0  0  0  0  0  0  0  0  0  0  0
   37.5380   32.0680   49.7480 C   0  0  0  0  0  0  0  0  0  0  0  0
   38.1350   33.1890   49.1760 C   0  0  0  0  0  0  0  0  0  0  0  0
   38.8780   32.7450   48.1520 N   0  0  0  0  0  0  0  0  0  0  0  0
   38.7770   31.4420   48.0620 N   0  0  0  0  0  0  0  0  0  0  0  0
   36.8860   32.2370   50.6090 H   0  0  0  0  0  0  0  0  0  0  0  0
   38.0570   34.2400   49.4530 H   0  0  0  0  0  0  0  0  0  0  0  0
   39.6740   33.5810   47.2760 C   0  0  0  0  0  2  0  0  0  0  0  0
   40.2670   34.6830   48.1260 C   0  0  0  0  0  2  0  0  0  0  0  0
   39.7020   35.6120   47.9690 H   0  0  0  0  0  0  0  0  0  0  0  0
  1  2  1  0  0  0  0
  2  3  2  0  0  0  0
  2  7  1  0  0  0  0
  3  8  1  0  0  0  0
  4 19  1  0  0  0  0
  4  3  1  0  0  0  0
  5  4  2  0  0  0  0
  6  5  1  0  0  0  0
  6  1  2  0  0  0  0
  9  5  1  0  0  0  0
 10 16  1  0  0  0  0
 11  1  1  0  0  0  0
 11 10  2  0  0  0  0
 12 11  1  0  0  0  0
 13 12  2  0  0  0  0
 13 14  1  0  0  0  0
 14 15  2  0  0  0  0
 15 10  1  0  0  0  0
 17 12  1  0  0  0  0
 18 14  1  0  0  0  0
 20 19  1  0  0  0  0
 20 21  1  0  0  0  0
 21 25  1  0  0  0  0
 22 26  1  0  0  0  0
 22 21  2  0  0  0  0
 23 22  1  0  0  0  0
 24 23  1  0  0  0  0
 24 20  2  0  0  0  0
 27 28  1  0  0  0  0
 27 23  1  0  0  0  0
 29 28  1  0  0  0  0
M  END
>  <minimizedAffinity>
-4.73919821

>  <minimizedRMSD>
0.479649574

$$$$
