
 OpenBabel03272510033D

 28 29  0  0  0  0  0  0  0  0999 V2000
   37.3020   24.8940   32.9690 C   0  0  0  0  0  0  0  0  0  0  0  0
   37.6350   23.6310   33.3530 C   0  0  0  0  0  0  0  0  0  0  0  0
   37.0980   22.5490   32.6940 C   0  0  0  0  0  0  0  0  0  0  0  0
   36.2170   22.6730   31.6440 C   0  0  0  0  0  0  0  0  0  0  0  0
   35.8430   23.9200   31.2230 C   0  0  0  0  0  0  0  0  0  0  0  0
   36.3910   24.9770   31.8910 C   0  0  0  0  0  0  0  0  0  0  0  0
   37.4100   21.5510   33.0490 H   0  0  0  0  0  0  0  0  0  0  0  0
   35.8830   21.7760   31.2230 H   0  0  0  0  0  0  0  0  0  0  0  0
   35.1610   24.0560   30.4190 H   0  0  0  0  0  0  0  0  0  0  0  0
   36.1110   25.9960   31.5780 H   0  0  0  0  0  0  0  0  0  0  0  0
   40.6010   22.8040   35.3870 C   0  0  0  0  0  0  0  0  0  0  0  0
   39.7790   23.0310   34.2850 C   0  0  0  0  0  0  0  0  0  0  0  0
   38.5010   23.4250   34.4830 C   0  0  0  0  0  0  0  0  0  0  0  0
   38.0800   23.5990   35.7750 N   0  0  0  0  0  0  0  0  0  0  0  0
   38.8820   23.3890   36.8310 C   0  0  0  0  0  0  0  0  0  0  0  0
   40.1340   22.9860   36.6240 N   0  0  0  0  0  0  0  0  0  0  0  0
   41.6430   22.4780   35.4390 H   0  0  0  0  0  0  0  0  0  0  0  0
   40.4290   22.9180   33.4480 H   0  0  0  0  0  0  0  0  0  0  0  0
   38.3460   23.7700   38.1570 C   0  0  0  0  0  0  0  0  0  0  0  0
   37.3070   22.9540   38.5520 F   0  0  0  0  0  0  0  0  0  0  0  0
   39.3360   23.5740   39.1820 F   0  0  0  0  0  0  0  0  0  0  0  0
   38.0090   25.0500   38.2940 F   0  0  0  0  0  0  0  0  0  0  0  0
   37.9230   26.3380   33.6810 S   0  0  0  0  0  0  0  0  0  0  0  0
   36.9320   26.8640   34.7220 O   0  0  0  0  0  0  0  0  0  0  0  0
   37.6320   27.3040   32.5860 O   0  0  0  0  0  0  0  0  0  0  0  0
   39.4680   27.0390   33.5960 C   0  0  0  0  0  2  0  0  0  0  0  0
   40.3440   26.6900   34.8550 C   0  0  0  0  0  2  0  0  0  0  0  0
   39.6810   26.9480   35.7260 H   0  0  0  0  0  0  0  0  0  0  0  0
  1  2  1  0  0  0  0
  1 23  1  0  0  0  0
  2 13  1  0  0  0  0
  3  7  1  0  0  0  0
  3  2  2  0  0  0  0
  4  3  1  0  0  0  0
  5  4  2  0  0  0  0
  5  6  1  0  0  0  0
  6  1  2  0  0  0  0
  8  4  1  0  0  0  0
  9  5  1  0  0  0  0
 10  6  1  0  0  0  0
 11 17  1  0  0  0  0
 11 16  1  0  0  0  0
 12 13  1  0  0  0  0
 12 11  2  0  0  0  0
 13 14  2  0  0  0  0
 14 15  1  0  0  0  0
 15 19  1  0  0  0  0
 16 15  2  0  0  0  0
 18 12  1  0  0  0  0
 19 22  1  0  0  0  0
 19 20  1  0  0  0  0
 19 21  1  0  0  0  0
 23 24  2  0  0  0  0
 25 23  2  0  0  0  0
 26 23  1  0  0  0  0
 26 27  1  0  0  0  0
 27 28  1  0  0  0  0
M  END
>  <minimizedAffinity>
-5.45205784

$$$$

 OpenBabel03272510033D

 28 29  0  0  0  0  0  0  0  0999 V2000
   36.9600   25.8910   32.5630 C   0  0  0  0  0  0  0  0  0  0  0  0
   37.4100   26.3200   33.7740 C   0  0  0  0  0  0  0  0  0  0  0  0
   37.0550   27.5660   34.2370 C   0  0  0  0  0  0  0  0  0  0  0  0
   36.2530   28.4290   33.5250 C   0  0  0  0  0  0  0  0  0  0  0  0
   35.7790   28.0510   32.2990 C   0  0  0  0  0  0  0  0  0  0  0  0
   36.1440   26.8090   31.8630 C   0  0  0  0  0  0  0  0  0  0  0  0
   37.4480   27.8540   35.2280 H   0  0  0  0  0  0  0  0  0  0  0  0
   36.0500   29.3450   33.9870 H   0  0  0  0  0  0  0  0  0  0  0  0
   35.1610   28.6910   31.7170 H   0  0  0  0  0  0  0  0  0  0  0  0
   35.7810   26.4730   30.8780 H   0  0  0  0  0  0  0  0  0  0  0  0
   40.4180   24.4700   34.8490 C   0  0  0  0  0  0  0  0  0  0  0  0
   39.5690   25.2940   34.1120 C   0  0  0  0  0  0  0  0  0  0  0  0
   38.3040   25.4970   34.5440 C   0  0  0  0  0  0  0  0  0  0  0  0
   37.9220   24.8850   35.7090 N   0  0  0  0  0  0  0  0  0  0  0  0
   38.7490   24.1020   36.4190 C   0  0  0  0  0  0  0  0  0  0  0  0
   39.9880   23.8970   35.9750 N   0  0  0  0  0  0  0  0  0  0  0  0
   41.4540   24.1760   34.6670 H   0  0  0  0  0  0  0  0  0  0  0  0
   40.1930   25.6900   33.3450 H   0  0  0  0  0  0  0  0  0  0  0  0
   38.2580   23.6390   37.7360 C   0  0  0  0  0  0  0  0  0  0  0  0
   39.2540   23.0490   38.4840 F   0  0  0  0  0  0  0  0  0  0  0  0
   37.8430   24.7520   38.5460 F   0  0  0  0  0  0  0  0  0  0  0  0
   37.1790   22.8600   37.7040 F   0  0  0  0  0  0  0  0  0  0  0  0
   37.2980   24.3450   31.8750 S   0  0  0  0  0  0  0  0  0  0  0  0
   38.3330   24.4960   30.7580 O   0  0  0  0  0  0  0  0  0  0  0  0
   36.0820   24.1730   31.0320 O   0  0  0  0  0  0  0  0  0  0  0  0
   36.8880   22.7840   32.4050 C   0  0  0  0  0  2  0  0  0  0  0  0
   35.5220   22.2950   31.7970 C   0  0  0  0  0  2  0  0  0  0  0  0
   34.8130   23.1420   32.0090 H   0  0  0  0  0  0  0  0  0  0  0  0
  1  2  1  0  0  0  0
  2  3  2  0  0  0  0
  2 13  1  0  0  0  0
  3  7  1  0  0  0  0
  4  8  1  0  0  0  0
  4  3  1  0  0  0  0
  5  4  2  0  0  0  0
  6  5  1  0  0  0  0
  6  1  2  0  0  0  0
  9  5  1  0  0  0  0
 10  6  1  0  0  0  0
 11 16  1  0  0  0  0
 12 13  1  0  0  0  0
 12 11  2  0  0  0  0
 13 14  2  0  0  0  0
 14 15  1  0  0  0  0
 15 19  1  0  0  0  0
 16 15  2  0  0  0  0
 17 11  1  0  0  0  0
 18 12  1  0  0  0  0
 19 20  1  0  0  0  0
 19 21  1  0  0  0  0
 22 19  1  0  0  0  0
 23 26  1  0  0  0  0
 23  1  1  0  0  0  0
 24 23  2  0  0  0  0
 25 23  2  0  0  0  0
 27 28  1  0  0  0  0
 27 26  1  0  0  0  0
M  END
>  <minimizedAffinity>
-5.38746452

$$$$

 OpenBabel03272510033D

 28 29  0  0  0  0  0  0  0  0999 V2000
   38.3630   24.8670   35.9380 C   0  0  0  0  0  0  0  0  0  0  0  0
   38.4070   24.7080   34.5860 C   0  0  0  0  0  0  0  0  0  0  0  0
   38.3930   25.8120   33.7640 C   0  0  0  0  0  0  0  0  0  0  0  0
   38.3300   27.1010   34.2420 C   0  0  0  0  0  0  0  0  0  0  0  0
   38.2760   27.3170   35.5920 C   0  0  0  0  0  0  0  0  0  0  0  0
   38.2930   26.2060   36.3860 C   0  0  0  0  0  0  0  0  0  0  0  0
   38.4360   25.6180   32.6780 H   0  0  0  0  0  0  0  0  0  0  0  0
   38.3310   27.8550   33.5170 H   0  0  0  0  0  0  0  0  0  0  0  0
   38.2220   28.2970   35.9990 H   0  0  0  0  0  0  0  0  0  0  0  0
   38.2500   26.3440   37.4780 H   0  0  0  0  0  0  0  0  0  0  0  0
   39.5610   21.5770   33.0100 C   0  0  0  0  0  0  0  0  0  0  0  0
   39.5720   22.8440   33.5910 C   0  0  0  0  0  0  0  0  0  0  0  0
   38.4090   23.3880   34.0140 C   0  0  0  0  0  0  0  0  0  0  0  0
   37.2670   22.6490   33.8630 N   0  0  0  0  0  0  0  0  0  0  0  0
   37.2650   21.4250   33.3130 C   0  0  0  0  0  0  0  0  0  0  0  0
   38.4150   20.9050   32.8850 N   0  0  0  0  0  0  0  0  0  0  0  0
   40.3770   20.9770   32.6020 H   0  0  0  0  0  0  0  0  0  0  0  0
   40.6080   23.0890   33.6590 H   0  0  0  0  0  0  0  0  0  0  0  0
   35.9890   20.6770   33.3590 C   0  0  0  0  0  0  0  0  0  0  0  0
   36.1240   19.3880   32.8890 F   0  0  0  0  0  0  0  0  0  0  0  0
   35.5530   20.4960   34.7180 F   0  0  0  0  0  0  0  0  0  0  0  0
   34.9520   21.2760   32.7790 F   0  0  0  0  0  0  0  0  0  0  0  0
   38.4070   23.5790   37.0840 S   0  0  0  0  0  0  0  0  0  0  0  0
   37.0680   22.8380   37.0760 O   0  0  0  0  0  0  0  0  0  0  0  0
   38.2250   24.3550   38.3420 O   0  0  0  0  0  0  0  0  0  0  0  0
   39.7090   22.9050   37.9430 C   0  0  0  0  0  2  0  0  0  0  0  0
   40.6250   22.0160   37.0240 C   0  0  0  0  0  2  0  0  0  0  0  0
   39.9020   21.3260   36.5090 H   0  0  0  0  0  0  0  0  0  0  0  0
  1  6  1  0  0  0  0
  1 23  1  0  0  0  0
  2  1  2  0  0  0  0
  3  4  2  0  0  0  0
  3  2  1  0  0  0  0
  4  5  1  0  0  0  0
  5  9  1  0  0  0  0
  5  6  2  0  0  0  0
  6 10  1  0  0  0  0
  7  3  1  0  0  0  0
  8  4  1  0  0  0  0
 11 12  1  0  0  0  0
 12 18  1  0  0  0  0
 12 13  2  0  0  0  0
 13  2  1  0  0  0  0
 14 13  1  0  0  0  0
 15 19  1  0  0  0  0
 15 14  2  0  0  0  0
 16 11  2  0  0  0  0
 16 15  1  0  0  0  0
 17 11  1  0  0  0  0
 19 21  1  0  0  0  0
 20 19  1  0  0  0  0
 22 19  1  0  0  0  0
 23 26  1  0  0  0  0
 23 25  2  0  0  0  0
 24 23  2  0  0  0  0
 27 26  1  0  0  0  0
 28 27  1  0  0  0  0
M  END
>  <minimizedAffinity>
-5.36496592

$$$$

 OpenBabel03272510033D

 28 29  0  0  0  0  0  0  0  0999 V2000
   36.8060   22.9380   32.5970 C   0  0  0  0  0  0  0  0  0  0  0  0
   37.5700   23.8800   33.2160 C   0  0  0  0  0  0  0  0  0  0  0  0
   37.5780   25.1750   32.7470 C   0  0  0  0  0  0  0  0  0  0  0  0
   36.8410   25.5810   31.6580 C   0  0  0  0  0  0  0  0  0  0  0  0
   36.0620   24.6730   30.9950 C   0  0  0  0  0  0  0  0  0  0  0  0
   36.0700   23.3960   31.4800 C   0  0  0  0  0  0  0  0  0  0  0  0
   38.2140   25.8930   33.2940 H   0  0  0  0  0  0  0  0  0  0  0  0
   36.9280   26.5910   31.4030 H   0  0  0  0  0  0  0  0  0  0  0  0
   35.4830   24.9470   30.1460 H   0  0  0  0  0  0  0  0  0  0  0  0
   35.4540   22.6380   30.9690 H   0  0  0  0  0  0  0  0  0  0  0  0
   40.4300   22.5940   35.1630 C   0  0  0  0  0  0  0  0  0  0  0  0
   39.6320   22.9750   34.0850 C   0  0  0  0  0  0  0  0  0  0  0  0
   38.4140   23.5130   34.3210 C   0  0  0  0  0  0  0  0  0  0  0  0
   38.0290   23.6720   35.6260 N   0  0  0  0  0  0  0  0  0  0  0  0
   38.8080   23.3130   36.6580 C   0  0  0  0  0  0  0  0  0  0  0  0
   39.9990   22.7700   36.4130 N   0  0  0  0  0  0  0  0  0  0  0  0
   41.4230   22.1400   35.1830 H   0  0  0  0  0  0  0  0  0  0  0  0
   40.2560   22.8250   33.2340 H   0  0  0  0  0  0  0  0  0  0  0  0
   38.3360   23.6890   38.0090 C   0  0  0  0  0  0  0  0  0  0  0  0
   37.3010   22.8860   38.4400 F   0  0  0  0  0  0  0  0  0  0  0  0
   39.3650   23.4690   38.9900 F   0  0  0  0  0  0  0  0  0  0  0  0
   38.0250   24.9730   38.1710 F   0  0  0  0  0  0  0  0  0  0  0  0
   36.6750   21.2910   33.0950 S   0  0  0  0  0  0  0  0  0  0  0  0
   37.9020   20.5120   32.6180 O   0  0  0  0  0  0  0  0  0  0  0  0
   35.6930   20.8010   32.0890 O   0  0  0  0  0  0  0  0  0  0  0  0
   35.6060   20.5450   34.1840 C   0  0  0  0  0  2  0  0  0  0  0  0
   35.9220   20.9270   35.6770 C   0  0  0  0  0  2  0  0  0  0  0  0
   37.0240   20.7280   35.7790 H   0  0  0  0  0  0  0  0  0  0  0  0
  1 23  1  0  0  0  0
  1  2  1  0  0  0  0
  2 13  1  0  0  0  0
  3  2  2  0  0  0  0
  3  7  1  0  0  0  0
  4  3  1  0  0  0  0
  5  6  1  0  0  0  0
  5  4  2  0  0  0  0
  6  1  2  0  0  0  0
  8  4  1  0  0  0  0
  9  5  1  0  0  0  0
 10  6  1  0  0  0  0
 11 17  1  0  0  0  0
 11 16  1  0  0  0  0
 12 13  1  0  0  0  0
 12 11  2  0  0  0  0
 13 14  2  0  0  0  0
 14 15  1  0  0  0  0
 15 19  1  0  0  0  0
 16 15  2  0  0  0  0
 18 12  1  0  0  0  0
 19 22  1  0  0  0  0
 19 20  1  0  0  0  0
 19 21  1  0  0  0  0
 23 26  1  0  0  0  0
 24 23  2  0  0  0  0
 25 23  2  0  0  0  0
 26 27  1  0  0  0  0
 27 28  1  0  0  0  0
M  END
>  <minimizedAffinity>
-5.35091209

$$$$

 OpenBabel03272510033D

 28 29  0  0  0  0  0  0  0  0999 V2000
   37.4270   23.8850   32.9190 C   0  0  0  0  0  0  0  0  0  0  0  0
   37.6960   22.7130   33.5580 C   0  0  0  0  0  0  0  0  0  0  0  0
   37.0920   21.5490   33.1410 C   0  0  0  0  0  0  0  0  0  0  0  0
   36.2040   21.5000   32.0910 C   0  0  0  0  0  0  0  0  0  0  0  0
   35.8920   22.6500   31.4190 C   0  0  0  0  0  0  0  0  0  0  0  0
   36.5060   23.7910   31.8500 C   0  0  0  0  0  0  0  0  0  0  0  0
   37.3550   20.6310   33.6970 H   0  0  0  0  0  0  0  0  0  0  0  0
   35.8160   20.5550   31.8680 H   0  0  0  0  0  0  0  0  0  0  0  0
   35.2070   22.6530   30.6060 H   0  0  0  0  0  0  0  0  0  0  0  0
   36.2770   24.7360   31.3310 H   0  0  0  0  0  0  0  0  0  0  0  0
   40.6830   22.2830   35.6820 C   0  0  0  0  0  0  0  0  0  0  0  0
   39.8560   22.3230   34.5610 C   0  0  0  0  0  0  0  0  0  0  0  0
   38.5660   22.7000   34.7040 C   0  0  0  0  0  0  0  0  0  0  0  0
   38.1370   23.0440   35.9580 N   0  0  0  0  0  0  0  0  0  0  0  0
   38.9420   23.0140   37.0310 C   0  0  0  0  0  0  0  0  0  0  0  0
   40.2080   22.6260   36.8810 N   0  0  0  0  0  0  0  0  0  0  0  0
   41.7340   22.0010   35.7780 H   0  0  0  0  0  0  0  0  0  0  0  0
   40.5120   22.1110   33.7470 H   0  0  0  0  0  0  0  0  0  0  0  0
   38.3920   23.5640   38.2900 C   0  0  0  0  0  0  0  0  0  0  0  0
   39.3490   23.6560   39.2780 F   0  0  0  0  0  0  0  0  0  0  0  0
   37.9630   24.9250   38.1080 F   0  0  0  0  0  0  0  0  0  0  0  0
   37.3030   22.9560   38.7540 F   0  0  0  0  0  0  0  0  0  0  0  0
   38.1350   25.4080   33.3110 S   0  0  0  0  0  0  0  0  0  0  0  0
   37.0760   26.3220   33.9310 O   0  0  0  0  0  0  0  0  0  0  0  0
   38.1900   26.0180   31.9530 O   0  0  0  0  0  0  0  0  0  0  0  0
   39.7620   25.8940   33.3580 C   0  0  0  0  0  2  0  0  0  0  0  0
   40.2470   26.1870   34.8260 C   0  0  0  0  0  2  0  0  0  0  0  0
   39.4640   26.8810   35.2360 H   0  0  0  0  0  0  0  0  0  0  0  0
  1 23  1  0  0  0  0
  1  2  1  0  0  0  0
  2 13  1  0  0  0  0
  3  2  2  0  0  0  0
  3  7  1  0  0  0  0
  4  3  1  0  0  0  0
  5  6  1  0  0  0  0
  5  4  2  0  0  0  0
  6  1  2  0  0  0  0
  8  4  1  0  0  0  0
  9  5  1  0  0  0  0
 10  6  1  0  0  0  0
 11 17  1  0  0  0  0
 11 16  1  0  0  0  0
 12 13  1  0  0  0  0
 12 11  2  0  0  0  0
 13 14  2  0  0  0  0
 14 15  1  0  0  0  0
 15 19  1  0  0  0  0
 16 15  2  0  0  0  0
 18 12  1  0  0  0  0
 19 22  1  0  0  0  0
 19 20  1  0  0  0  0
 21 19  1  0  0  0  0
 23 26  1  0  0  0  0
 23 24  2  0  0  0  0
 25 23  2  0  0  0  0
 26 27  1  0  0  0  0
 27 28  1  0  0  0  0
M  END
>  <minimizedAffinity>
-5.2593832

$$$$

 OpenBabel03272510033D

 28 29  0  0  0  0  0  0  0  0999 V2000
   37.8140   24.7060   33.8770 C   0  0  0  0  0  0  0  0  0  0  0  0
   37.9720   25.2390   35.1200 C   0  0  0  0  0  0  0  0  0  0  0  0
   37.7380   26.5800   35.3280 C   0  0  0  0  0  0  0  0  0  0  0  0
   37.3480   27.4360   34.3240 C   0  0  0  0  0  0  0  0  0  0  0  0
   37.1810   26.9540   33.0540 C   0  0  0  0  0  0  0  0  0  0  0  0
   37.4170   25.6210   32.8750 C   0  0  0  0  0  0  0  0  0  0  0  0
   37.8790   26.9510   36.3580 H   0  0  0  0  0  0  0  0  0  0  0  0
   37.1970   28.4310   34.6090 H   0  0  0  0  0  0  0  0  0  0  0  0
   36.8850   27.5850   32.2520 H   0  0  0  0  0  0  0  0  0  0  0  0
   37.2930   25.2000   31.8640 H   0  0  0  0  0  0  0  0  0  0  0  0
   38.1430   23.4790   38.3600 C   0  0  0  0  0  0  0  0  0  0  0  0
   37.6680   24.2530   37.3010 C   0  0  0  0  0  0  0  0  0  0  0  0
   38.4400   24.4170   36.2030 C   0  0  0  0  0  0  0  0  0  0  0  0
   39.6580   23.7910   36.1810 N   0  0  0  0  0  0  0  0  0  0  0  0
   40.1030   23.0390   37.1990 C   0  0  0  0  0  0  0  0  0  0  0  0
   39.3410   22.8970   38.2820 N   0  0  0  0  0  0  0  0  0  0  0  0
   37.6850   23.2370   39.3220 H   0  0  0  0  0  0  0  0  0  0  0  0
   36.6690   24.4950   37.5840 H   0  0  0  0  0  0  0  0  0  0  0  0
   41.3620   22.2940   36.9740 C   0  0  0  0  0  0  0  0  0  0  0  0
   41.5230   21.2620   37.8740 F   0  0  0  0  0  0  0  0  0  0  0  0
   41.3400   21.6290   35.6990 F   0  0  0  0  0  0  0  0  0  0  0  0
   42.4650   23.0350   36.9170 F   0  0  0  0  0  0  0  0  0  0  0  0
   38.0390   23.0420   33.4810 S   0  0  0  0  0  0  0  0  0  0  0  0
   39.4110   22.8510   32.8300 O   0  0  0  0  0  0  0  0  0  0  0  0
   37.1960   22.9590   32.2560 O   0  0  0  0  0  0  0  0  0  0  0  0
   37.1470   21.6670   33.9270 C   0  0  0  0  0  2  0  0  0  0  0  0
   36.0050   21.3460   32.8940 C   0  0  0  0  0  2  0  0  0  0  0  0
   35.4650   22.3250   32.7740 H   0  0  0  0  0  0  0  0  0  0  0  0
  1  2  1  0  0  0  0
  2  3  2  0  0  0  0
  2 13  1  0  0  0  0
  3  7  1  0  0  0  0
  4  8  1  0  0  0  0
  4  3  1  0  0  0  0
  5  4  2  0  0  0  0
  6  5  1  0  0  0  0
  6  1  2  0  0  0  0
  9  5  1  0  0  0  0
 10  6  1  0  0  0  0
 11 17  1  0  0  0  0
 12 18  1  0  0  0  0
 12 11  2  0  0  0  0
 13 12  1  0  0  0  0
 14 13  2  0  0  0  0
 14 15  1  0  0  0  0
 15 16  2  0  0  0  0
 16 11  1  0  0  0  0
 19 15  1  0  0  0  0
 19 20  1  0  0  0  0
 21 19  1  0  0  0  0
 22 19  1  0  0  0  0
 23  1  1  0  0  0  0
 23 26  1  0  0  0  0
 24 23  2  0  0  0  0
 25 23  2  0  0  0  0
 27 26  1  0  0  0  0
 28 27  1  0  0  0  0
M  END
>  <minimizedAffinity>
-5.18006706

$$$$

 OpenBabel03272510033D

 28 29  0  0  0  0  0  0  0  0999 V2000
   41.9400   25.0070   34.9070 C   0  0  0  0  0  0  0  0  0  0  0  0
   40.6180   25.2330   34.6720 C   0  0  0  0  0  0  0  0  0  0  0  0
   40.2270   26.3430   33.9580 C   0  0  0  0  0  0  0  0  0  0  0  0
   41.1180   27.2640   33.4580 C   0  0  0  0  0  0  0  0  0  0  0  0
   42.4580   27.0900   33.6720 C   0  0  0  0  0  0  0  0  0  0  0  0
   42.8210   25.9810   34.3820 C   0  0  0  0  0  0  0  0  0  0  0  0
   39.1410   26.4670   33.7970 H   0  0  0  0  0  0  0  0  0  0  0  0
   40.6980   28.0610   32.9280 H   0  0  0  0  0  0  0  0  0  0  0  0
   43.1770   27.7820   33.3070 H   0  0  0  0  0  0  0  0  0  0  0  0
   43.8920   25.8100   34.5730 H   0  0  0  0  0  0  0  0  0  0  0  0
   38.0560   22.5910   34.9520 C   0  0  0  0  0  0  0  0  0  0  0  0
   39.0380   23.4260   34.4210 C   0  0  0  0  0  0  0  0  0  0  0  0
   39.6270   24.3450   35.2180 C   0  0  0  0  0  0  0  0  0  0  0  0
   39.2330   24.3970   36.5290 N   0  0  0  0  0  0  0  0  0  0  0  0
   38.2950   23.5820   37.0360 C   0  0  0  0  0  0  0  0  0  0  0  0
   37.7110   22.6910   36.2360 N   0  0  0  0  0  0  0  0  0  0  0  0
   37.4630   21.8040   34.4790 H   0  0  0  0  0  0  0  0  0  0  0  0
   39.1830   23.0600   33.4300 H   0  0  0  0  0  0  0  0  0  0  0  0
   38.0850   23.6400   38.5000 C   0  0  0  0  0  0  0  0  0  0  0  0
   37.4670   24.8080   38.8910 F   0  0  0  0  0  0  0  0  0  0  0  0
   37.1690   22.6150   38.9240 F   0  0  0  0  0  0  0  0  0  0  0  0
   39.1660   23.4160   39.2430 F   0  0  0  0  0  0  0  0  0  0  0  0
   42.5730   23.6450   35.7560 S   0  0  0  0  0  0  0  0  0  0  0  0
   43.5680   24.1190   36.8170 O   0  0  0  0  0  0  0  0  0  0  0  0
   43.5460   23.1480   34.7430 O   0  0  0  0  0  0  0  0  0  0  0  0
   42.0810   22.0190   35.7640 C   0  0  0  0  0  2  0  0  0  0  0  0
   41.4370   21.6050   37.1380 C   0  0  0  0  0  2  0  0  0  0  0  0
   42.1880   21.9460   37.9020 H   0  0  0  0  0  0  0  0  0  0  0  0
  1 23  1  0  0  0  0
  2  1  1  0  0  0  0
  2 13  1  0  0  0  0
  3  2  2  0  0  0  0
  4  5  2  0  0  0  0
  4  3  1  0  0  0  0
  5  6  1  0  0  0  0
  6 10  1  0  0  0  0
  6  1  2  0  0  0  0
  7  3  1  0  0  0  0
  8  4  1  0  0  0  0
  9  5  1  0  0  0  0
 11 16  1  0  0  0  0
 12 11  2  0  0  0  0
 12 13  1  0  0  0  0
 13 14  2  0  0  0  0
 14 15  1  0  0  0  0
 15 19  1  0  0  0  0
 16 15  2  0  0  0  0
 17 11  1  0  0  0  0
 18 12  1  0  0  0  0
 19 20  1  0  0  0  0
 19 21  1  0  0  0  0
 19 22  1  0  0  0  0
 23 26  1  0  0  0  0
 23 24  2  0  0  0  0
 25 23  2  0  0  0  0
 26 27  1  0  0  0  0
 27 28  1  0  0  0  0
M  END
>  <minimizedAffinity>
-5.11833954

$$$$

 OpenBabel03272510033D

 28 29  0  0  0  0  0  0  0  0999 V2000
   37.7400   24.9160   33.7140 C   0  0  0  0  0  0  0  0  0  0  0  0
   37.9770   23.6420   34.1330 C   0  0  0  0  0  0  0  0  0  0  0  0
   37.6530   22.5800   33.3190 C   0  0  0  0  0  0  0  0  0  0  0  0
   37.0830   22.7360   32.0760 C   0  0  0  0  0  0  0  0  0  0  0  0
   36.8160   23.9940   31.6100 C   0  0  0  0  0  0  0  0  0  0  0  0
   37.1480   25.0310   32.4350 C   0  0  0  0  0  0  0  0  0  0  0  0
   37.8740   21.5720   33.7120 H   0  0  0  0  0  0  0  0  0  0  0  0
   36.8880   21.8530   31.5520 H   0  0  0  0  0  0  0  0  0  0  0  0
   36.3720   24.1550   30.6580 H   0  0  0  0  0  0  0  0  0  0  0  0
   36.9460   26.0580   32.0920 H   0  0  0  0  0  0  0  0  0  0  0  0
   38.2880   23.4390   37.8050 C   0  0  0  0  0  0  0  0  0  0  0  0
   37.7490   23.6460   36.5350 C   0  0  0  0  0  0  0  0  0  0  0  0
   38.5120   23.4020   35.4460 C   0  0  0  0  0  0  0  0  0  0  0  0
   39.7860   22.9430   35.6490 N   0  0  0  0  0  0  0  0  0  0  0  0
   40.2940   22.7360   36.8750 C   0  0  0  0  0  0  0  0  0  0  0  0
   39.5380   22.9940   37.9410 N   0  0  0  0  0  0  0  0  0  0  0  0
   37.8460   23.5840   38.7940 H   0  0  0  0  0  0  0  0  0  0  0  0
   36.7290   23.8890   36.7220 H   0  0  0  0  0  0  0  0  0  0  0  0
   41.6220   22.0870   36.9430 C   0  0  0  0  0  0  0  0  0  0  0  0
   41.6980   21.1660   37.9660 F   0  0  0  0  0  0  0  0  0  0  0  0
   41.8670   21.3000   35.7640 F   0  0  0  0  0  0  0  0  0  0  0  0
   42.6630   22.9140   36.9850 F   0  0  0  0  0  0  0  0  0  0  0  0
   38.1250   26.3370   34.6130 S   0  0  0  0  0  0  0  0  0  0  0  0
   36.8350   27.0500   35.0250 O   0  0  0  0  0  0  0  0  0  0  0  0
   38.5320   27.2370   33.4980 O   0  0  0  0  0  0  0  0  0  0  0  0
   39.5960   26.8590   35.2840 C   0  0  0  0  0  2  0  0  0  0  0  0
   40.8310   26.3930   34.4280 C   0  0  0  0  0  2  0  0  0  0  0  0
   40.6620   25.2900   34.2870 H   0  0  0  0  0  0  0  0  0  0  0  0
  1  2  1  0  0  0  0
  1 23  1  0  0  0  0
  2 13  1  0  0  0  0
  3  7  1  0  0  0  0
  3  2  2  0  0  0  0
  4  3  1  0  0  0  0
  5  4  2  0  0  0  0
  5  6  1  0  0  0  0
  6  1  2  0  0  0  0
  8  4  1  0  0  0  0
  9  5  1  0  0  0  0
 10  6  1  0  0  0  0
 11 16  1  0  0  0  0
 11 17  1  0  0  0  0
 12 18  1  0  0  0  0
 12 11  2  0  0  0  0
 13 14  2  0  0  0  0
 13 12  1  0  0  0  0
 14 15  1  0  0  0  0
 15 19  1  0  0  0  0
 15 16  2  0  0  0  0
 19 22  1  0  0  0  0
 19 20  1  0  0  0  0
 21 19  1  0  0  0  0
 23 24  2  0  0  0  0
 23 26  1  0  0  0  0
 25 23  2  0  0  0  0
 27 26  1  0  0  0  0
 28 27  1  0  0  0  0
M  END
>  <minimizedAffinity>
-4.95600176

$$$$

 OpenBabel03272510033D

 28 29  0  0  0  0  0  0  0  0999 V2000
   37.3560   22.6150   33.4820 C   0  0  0  0  0  0  0  0  0  0  0  0
   37.2660   21.9030   34.6400 C   0  0  0  0  0  0  0  0  0  0  0  0
   36.3900   20.8450   34.7290 C   0  0  0  0  0  0  0  0  0  0  0  0
   35.5750   20.4590   33.6900 C   0  0  0  0  0  0  0  0  0  0  0  0
   35.6190   21.1450   32.5080 C   0  0  0  0  0  0  0  0  0  0  0  0
   36.4970   22.1880   32.4430 C   0  0  0  0  0  0  0  0  0  0  0  0
   36.3670   20.3040   35.6920 H   0  0  0  0  0  0  0  0  0  0  0  0
   34.9570   19.6370   33.8800 H   0  0  0  0  0  0  0  0  0  0  0  0
   35.0010   20.8790   31.6840 H   0  0  0  0  0  0  0  0  0  0  0  0
   36.5580   22.7630   31.5050 H   0  0  0  0  0  0  0  0  0  0  0  0
   38.2210   23.3660   37.8910 C   0  0  0  0  0  0  0  0  0  0  0  0
   37.4530   22.9680   36.7970 C   0  0  0  0  0  0  0  0  0  0  0  0
   38.0430   22.2900   35.7870 C   0  0  0  0  0  0  0  0  0  0  0  0
   39.3790   22.0120   35.9000 N   0  0  0  0  0  0  0  0  0  0  0  0
   40.1090   22.3890   36.9610 C   0  0  0  0  0  0  0  0  0  0  0  0
   39.5200   23.0700   37.9430 N   0  0  0  0  0  0  0  0  0  0  0  0
   37.9400   23.9210   38.7890 H   0  0  0  0  0  0  0  0  0  0  0  0
   36.4570   23.2360   37.0680 H   0  0  0  0  0  0  0  0  0  0  0  0
   41.4980   21.8820   37.0260 C   0  0  0  0  0  0  0  0  0  0  0  0
   41.6900   21.0280   38.0910 F   0  0  0  0  0  0  0  0  0  0  0  0
   41.7970   21.0660   35.8800 F   0  0  0  0  0  0  0  0  0  0  0  0
   42.4490   22.8120   37.0000 F   0  0  0  0  0  0  0  0  0  0  0  0
   38.4300   23.9390   33.2190 S   0  0  0  0  0  0  0  0  0  0  0  0
   37.7200   25.2510   33.5580 O   0  0  0  0  0  0  0  0  0  0  0  0
   38.3640   24.0260   31.7340 O   0  0  0  0  0  0  0  0  0  0  0  0
   40.1040   23.9660   32.9310 C   0  0  0  0  0  2  0  0  0  0  0  0
   40.8890   24.6950   34.0820 C   0  0  0  0  0  2  0  0  0  0  0  0
   40.3460   25.6720   34.2040 H   0  0  0  0  0  0  0  0  0  0  0  0
  1  2  1  0  0  0  0
  2  3  2  0  0  0  0
  2 13  1  0  0  0  0
  3  7  1  0  0  0  0
  4  8  1  0  0  0  0
  4  3  1  0  0  0  0
  5  4  2  0  0  0  0
  6  5  1  0  0  0  0
  6  1  2  0  0  0  0
  9  5  1  0  0  0  0
 10  6  1  0  0  0  0
 11 16  1  0  0  0  0
 11 17  1  0  0  0  0
 12 18  1  0  0  0  0
 12 11  2  0  0  0  0
 13 14  2  0  0  0  0
 13 12  1  0  0  0  0
 14 15  1  0  0  0  0
 15 19  1  0  0  0  0
 15 16  2  0  0  0  0
 19 20  1  0  0  0  0
 21 19  1  0  0  0  0
 22 19  1  0  0  0  0
 23  1  1  0  0  0  0
 23 24  2  0  0  0  0
 25 23  2  0  0  0  0
 26 23  1  0  0  0  0
 26 27  1  0  0  0  0
 27 28  1  0  0  0  0
M  END
>  <minimizedAffinity>
-4.93164825

$$$$
