
 OpenBabel03272509443D

 32 33  0  0  1  0  0  0  0  0999 V2000
   36.5860   28.5510   32.3420 C   0  0  0  0  0  0  0  0  0  0  0  0
   36.0380   29.5960   31.5970 C   0  0  0  0  0  0  0  0  0  0  0  0
   35.3090   30.6130   32.1930 C   0  0  0  0  0  0  0  0  0  0  0  0
   35.1120   30.6010   33.5750 C   0  0  0  0  0  0  0  0  0  0  0  0
   35.6530   29.5720   34.2900 C   0  0  0  0  0  0  0  0  0  0  0  0
   36.3780   28.5680   33.6630 C   0  0  0  0  0  0  0  0  0  0  0  0
   36.1860   29.6160   30.5280 H   0  0  0  0  0  0  0  0  0  0  0  0
   34.9220   31.3790   31.5540 H   0  0  0  0  0  0  0  0  0  0  0  0
   34.5390   31.4230   33.9450 H   0  0  0  0  0  0  0  0  0  0  0  0
   35.4140   29.6960   35.3500 H   0  0  0  0  0  0  0  0  0  0  0  0
   37.3200   27.4710   31.7190 C   0  0  2  0  0  0  0  0  0  0  0  0
   37.2510   27.6720   30.5820 H   0  0  0  0  0  0  0  0  0  0  0  0
   36.9960   23.8600   31.9730 C   0  0  0  0  0  0  0  0  0  0  0  0
   35.7220   23.6050   31.5050 C   0  0  0  0  0  0  0  0  0  0  0  0
   34.9760   24.6680   31.0340 C   0  0  0  0  0  0  0  0  0  0  0  0
   35.5210   25.9330   31.0490 N   0  0  0  0  0  0  0  0  0  0  0  0
   36.7420   26.1130   31.5090 C   0  0  0  0  0  0  0  0  0  0  0  0
   37.4880   25.0840   31.9730 N   0  0  0  0  0  0  0  0  0  0  0  0
   37.6030   23.0460   32.3470 H   0  0  0  0  0  0  0  0  0  0  0  0
   35.3550   22.5920   31.5230 H   0  0  0  0  0  0  0  0  0  0  0  0
   33.9670   24.4960   30.6580 H   0  0  0  0  0  0  0  0  0  0  0  0
   38.5940   27.6160   31.8220 O   0  0  0  0  0  0  0  0  0  0  0  0
   39.0260   27.9580   32.6420 H   0  0  0  0  0  0  0  0  0  0  0  0
   36.8670   27.5280   34.5390 C   0  0  0  0  0  3  0  0  0  0  0  0
   37.8640   27.6940   35.4130 C   0  0  0  0  0  3  0  0  0  0  0  0
   38.4120   26.7150   36.3810 C   0  0  0  0  0  0  0  0  0  0  0  0
   37.8760   26.8660   37.3600 H   0  0  0  0  0  0  0  0  0  0  0  0
   39.4790   26.8860   36.6290 H   0  0  0  0  0  0  0  0  0  0  0  0
   38.1020   25.0480   35.7940 S   0  0  0  0  0  0  0  0  0  0  0  0
   37.5160   23.9260   37.0680 C   0  0  0  0  0  2  0  0  0  0  0  0
   38.0410   24.3330   38.4110 C   0  0  0  0  0  2  0  0  0  0  0  0
   39.1300   24.2640   38.4420 H   0  0  0  0  0  0  0  0  0  0  0  0
  1  6  1  0  0  0  0
  2  3  1  0  0  0  0
  2  1  2  0  0  0  0
  3  4  2  0  0  0  0
  4  9  1  0  0  0  0
  4  5  1  0  0  0  0
  5 10  1  0  0  0  0
  6  5  2  0  0  0  0
  6 24  1  0  0  0  0
  7  2  1  0  0  0  0
  8  3  1  0  0  0  0
 11 12  1  6  0  0  0
 11 22  1  0  0  0  0
 11  1  1  0  0  0  0
 13 18  1  0  0  0  0
 13 19  1  0  0  0  0
 14 20  1  0  0  0  0
 14 13  2  0  0  0  0
 15 16  2  0  0  0  0
 15 14  1  0  0  0  0
 16 17  1  0  0  0  0
 17 11  1  0  0  0  0
 17 18  2  0  0  0  0
 21 15  1  0  0  0  0
 22 23  1  0  0  0  0
 24 25  2  0  0  0  0
 25 26  1  0  0  0  0
 26 28  1  0  0  0  0
 26 27  1  0  0  0  0
 29 26  1  0  0  0  0
 29 30  1  0  0  0  0
 30 31  1  0  0  0  0
 31 32  1  0  0  0  0
M  END
>  <minimizedAffinity>
-5.04269886

$$$$

 OpenBabel03272509443D

 32 33  0  0  1  0  0  0  0  0999 V2000
   38.9550   26.9760   33.1770 C   0  0  0  0  0  0  0  0  0  0  0  0
   39.8040   27.3360   32.1290 C   0  0  0  0  0  0  0  0  0  0  0  0
   41.1760   27.4260   32.3000 C   0  0  0  0  0  0  0  0  0  0  0  0
   41.7340   27.1520   33.5500 C   0  0  0  0  0  0  0  0  0  0  0  0
   40.8910   26.8020   34.5640 C   0  0  0  0  0  0  0  0  0  0  0  0
   39.5210   26.7200   34.3610 C   0  0  0  0  0  0  0  0  0  0  0  0
   39.3830   27.5490   31.1580 H   0  0  0  0  0  0  0  0  0  0  0  0
   41.7590   27.7080   31.4490 H   0  0  0  0  0  0  0  0  0  0  0  0
   42.7980   27.2470   33.5880 H   0  0  0  0  0  0  0  0  0  0  0  0
   41.4690   26.6220   35.4760 H   0  0  0  0  0  0  0  0  0  0  0  0
   37.5190   26.9120   33.0100 C   0  0  2  0  0  0  0  0  0  0  0  0
   37.1170   26.4710   34.0010 H   0  0  0  0  0  0  0  0  0  0  0  0
   36.6330   23.5270   32.0270 C   0  0  0  0  0  0  0  0  0  0  0  0
   35.5200   23.6920   31.2250 C   0  0  0  0  0  0  0  0  0  0  0  0
   35.0950   24.9790   30.9580 C   0  0  0  0  0  0  0  0  0  0  0  0
   35.7860   26.0430   31.4960 N   0  0  0  0  0  0  0  0  0  0  0  0
   36.8390   25.8210   32.2550 C   0  0  0  0  0  0  0  0  0  0  0  0
   37.2710   24.5680   32.5260 N   0  0  0  0  0  0  0  0  0  0  0  0
   36.9880   22.5300   32.2520 H   0  0  0  0  0  0  0  0  0  0  0  0
   35.0250   22.8170   30.8370 H   0  0  0  0  0  0  0  0  0  0  0  0
   34.2210   25.1400   30.3270 H   0  0  0  0  0  0  0  0  0  0  0  0
   36.9580   28.0640   33.1160 O   0  0  0  0  0  0  0  0  0  0  0  0
   37.3580   28.8860   32.7410 H   0  0  0  0  0  0  0  0  0  0  0  0
   38.7480   26.3680   35.5300 C   0  0  0  0  0  3  0  0  0  0  0  0
   38.6220   25.1210   35.9950 C   0  0  0  0  0  3  0  0  0  0  0  0
   37.8940   24.6570   37.1990 C   0  0  0  0  0  0  0  0  0  0  0  0
   36.8680   24.3270   36.8710 H   0  0  0  0  0  0  0  0  0  0  0  0
   37.6970   25.4610   37.9360 H   0  0  0  0  0  0  0  0  0  0  0  0
   38.7540   23.2580   37.9220 S   0  0  0  0  0  0  0  0  0  0  0  0
   39.8250   22.3890   36.7730 C   0  0  0  0  0  2  0  0  0  0  0  0
   41.0460   21.8780   37.4740 C   0  0  0  0  0  2  0  0  0  0  0  0
   41.6470   22.7020   37.8630 H   0  0  0  0  0  0  0  0  0  0  0  0
  1  6  1  0  0  0  0
  2  3  1  0  0  0  0
  2  1  2  0  0  0  0
  3  4  2  0  0  0  0
  4  9  1  0  0  0  0
  4  5  1  0  0  0  0
  5 10  1  0  0  0  0
  6  5  2  0  0  0  0
  6 24  1  0  0  0  0
  7  2  1  0  0  0  0
  8  3  1  0  0  0  0
 11 22  1  0  0  0  0
 11  1  1  0  0  0  0
 11 12  1  1  0  0  0
 13 19  1  0  0  0  0
 13 18  1  0  0  0  0
 14 13  2  0  0  0  0
 15 14  1  0  0  0  0
 15 16  2  0  0  0  0
 16 17  1  0  0  0  0
 17 18  2  0  0  0  0
 17 11  1  0  0  0  0
 20 14  1  0  0  0  0
 21 15  1  0  0  0  0
 23 22  1  0  0  0  0
 24 25  2  0  0  0  0
 25 26  1  0  0  0  0
 26 29  1  0  0  0  0
 26 28  1  0  0  0  0
 27 26  1  0  0  0  0
 30 31  1  0  0  0  0
 30 29  1  0  0  0  0
 31 32  1  0  0  0  0
M  END
>  <minimizedAffinity>
-4.98666143

$$$$

 OpenBabel03272509443D

 32 33  0  0  1  0  0  0  0  0999 V2000
   38.2970   27.0790   34.2670 C   0  0  0  0  0  0  0  0  0  0  0  0
   37.0190   27.5160   33.9170 C   0  0  0  0  0  0  0  0  0  0  0  0
   36.7100   27.9050   32.6220 C   0  0  0  0  0  0  0  0  0  0  0  0
   37.6980   27.8620   31.6360 C   0  0  0  0  0  0  0  0  0  0  0  0
   38.9430   27.4330   31.9950 C   0  0  0  0  0  0  0  0  0  0  0  0
   39.2200   27.0500   33.2990 C   0  0  0  0  0  0  0  0  0  0  0  0
   36.2480   27.5520   34.6700 H   0  0  0  0  0  0  0  0  0  0  0  0
   35.7090   28.2280   32.4320 H   0  0  0  0  0  0  0  0  0  0  0  0
   37.3700   28.1800   30.6710 H   0  0  0  0  0  0  0  0  0  0  0  0
   39.6040   27.4570   31.1240 H   0  0  0  0  0  0  0  0  0  0  0  0
   38.6310   26.7030   35.6240 C   0  0  2  0  0  0  0  0  0  0  0  0
   39.7680   26.4920   35.6110 H   0  0  0  0  0  0  0  0  0  0  0  0
   37.7740   24.1340   38.0480 C   0  0  0  0  0  0  0  0  0  0  0  0
   37.6210   22.9920   37.2860 C   0  0  0  0  0  0  0  0  0  0  0  0
   37.8740   23.0760   35.9300 C   0  0  0  0  0  0  0  0  0  0  0  0
   38.2640   24.2820   35.3900 N   0  0  0  0  0  0  0  0  0  0  0  0
   38.3900   25.3360   36.1690 C   0  0  0  0  0  0  0  0  0  0  0  0
   38.1490   25.2730   37.4980 N   0  0  0  0  0  0  0  0  0  0  0  0
   37.5830   24.0970   39.1130 H   0  0  0  0  0  0  0  0  0  0  0  0
   37.3130   22.0810   37.7710 H   0  0  0  0  0  0  0  0  0  0  0  0
   37.7640   22.1900   35.3040 H   0  0  0  0  0  0  0  0  0  0  0  0
   38.6710   27.7120   36.4200 O   0  0  0  0  0  0  0  0  0  0  0  0
   38.0220   28.4550   36.3700 H   0  0  0  0  0  0  0  0  0  0  0  0
   40.5860   26.6470   33.5430 C   0  0  0  0  0  3  0  0  0  0  0  0
   41.6470   27.4300   33.3270 C   0  0  0  0  0  3  0  0  0  0  0  0
   43.0760   27.1340   33.5800 C   0  0  0  0  0  0  0  0  0  0  0  0
   43.4220   27.8100   34.4130 H   0  0  0  0  0  0  0  0  0  0  0  0
   43.7410   27.3920   32.7310 H   0  0  0  0  0  0  0  0  0  0  0  0
   43.2570   25.4260   34.0990 S   0  0  0  0  0  0  0  0  0  0  0  0
   43.9770   25.2340   35.7320 C   0  0  0  0  0  2  0  0  0  0  0  0
   43.4120   24.0300   36.4200 C   0  0  0  0  0  2  0  0  0  0  0  0
   42.3390   24.1430   36.5870 H   0  0  0  0  0  0  0  0  0  0  0  0
  1 11  1  0  0  0  0
  2  1  1  0  0  0  0
  2  7  1  0  0  0  0
  3  2  2  0  0  0  0
  4  5  2  0  0  0  0
  4  3  1  0  0  0  0
  5  6  1  0  0  0  0
  6 24  1  0  0  0  0
  6  1  2  0  0  0  0
  8  3  1  0  0  0  0
  9  4  1  0  0  0  0
 10  5  1  0  0  0  0
 11 12  1  6  0  0  0
 11 17  1  0  0  0  0
 11 22  1  0  0  0  0
 13 19  1  0  0  0  0
 14 20  1  0  0  0  0
 14 13  2  0  0  0  0
 15 14  1  0  0  0  0
 16 15  2  0  0  0  0
 16 17  1  0  0  0  0
 17 18  2  0  0  0  0
 18 13  1  0  0  0  0
 21 15  1  0  0  0  0
 23 22  1  0  0  0  0
 25 24  2  0  0  0  0
 25 26  1  0  0  0  0
 26 29  1  0  0  0  0
 26 27  1  0  0  0  0
 28 26  1  0  0  0  0
 29 30  1  0  0  0  0
 30 31  1  0  0  0  0
 31 32  1  0  0  0  0
M  END
>  <minimizedAffinity>
-4.88375092

$$$$

 OpenBabel03272509443D

 32 33  0  0  1  0  0  0  0  0999 V2000
   40.0030   26.9020   34.2990 C   0  0  0  0  0  0  0  0  0  0  0  0
   41.3960   26.8330   34.2260 C   0  0  0  0  0  0  0  0  0  0  0  0
   42.0770   27.0580   33.0400 C   0  0  0  0  0  0  0  0  0  0  0  0
   41.3590   27.3600   31.8810 C   0  0  0  0  0  0  0  0  0  0  0  0
   39.9990   27.4230   31.9680 C   0  0  0  0  0  0  0  0  0  0  0  0
   39.3470   27.1930   33.1710 C   0  0  0  0  0  0  0  0  0  0  0  0
   41.9600   26.6010   35.1160 H   0  0  0  0  0  0  0  0  0  0  0  0
   43.1430   26.9870   33.0650 H   0  0  0  0  0  0  0  0  0  0  0  0
   41.9660   27.5170   31.0160 H   0  0  0  0  0  0  0  0  0  0  0  0
   39.5790   27.6650   30.9870 H   0  0  0  0  0  0  0  0  0  0  0  0
   39.2880   26.6370   35.5280 C   0  0  2  0  0  0  0  0  0  0  0  0
   40.1070   26.4160   36.3150 H   0  0  0  0  0  0  0  0  0  0  0  0
   38.5530   23.0910   35.2210 C   0  0  0  0  0  0  0  0  0  0  0  0
   37.8540   22.7930   36.3750 C   0  0  0  0  0  0  0  0  0  0  0  0
   37.5700   23.8250   37.2490 C   0  0  0  0  0  0  0  0  0  0  0  0
   37.9890   25.1010   36.9450 N   0  0  0  0  0  0  0  0  0  0  0  0
   38.6530   25.3220   35.8290 C   0  0  0  0  0  0  0  0  0  0  0  0
   38.9390   24.3250   34.9600 N   0  0  0  0  0  0  0  0  0  0  0  0
   38.7880   22.3020   34.5190 H   0  0  0  0  0  0  0  0  0  0  0  0
   37.5560   21.7730   36.5540 H   0  0  0  0  0  0  0  0  0  0  0  0
   37.0190   23.6190   38.1670 H   0  0  0  0  0  0  0  0  0  0  0  0
   38.8340   27.7080   36.0760 O   0  0  0  0  0  0  0  0  0  0  0  0
   38.4450   28.4500   35.5520 H   0  0  0  0  0  0  0  0  0  0  0  0
   37.9050   27.2630   33.1090 C   0  0  0  0  0  3  0  0  0  0  0  0
   37.2160   27.5430   31.9980 C   0  0  0  0  0  3  0  0  0  0  0  0
   35.7470   27.5980   31.8160 C   0  0  0  0  0  0  0  0  0  0  0  0
   35.2970   26.7590   32.4180 H   0  0  0  0  0  0  0  0  0  0  0  0
   35.4210   27.3890   30.7770 H   0  0  0  0  0  0  0  0  0  0  0  0
   35.1200   29.1620   32.4320 S   0  0  0  0  0  0  0  0  0  0  0  0
   34.9330   29.2180   34.2170 C   0  0  0  0  0  2  0  0  0  0  0  0
   35.6750   30.3870   34.7880 C   0  0  0  0  0  2  0  0  0  0  0  0
   36.7480   30.2920   34.6110 H   0  0  0  0  0  0  0  0  0  0  0  0
  1 11  1  0  0  0  0
  2  1  1  0  0  0  0
  2  7  1  0  0  0  0
  3  8  1  0  0  0  0
  3  2  2  0  0  0  0
  4  5  2  0  0  0  0
  4  3  1  0  0  0  0
  5  6  1  0  0  0  0
  6  1  2  0  0  0  0
  9  4  1  0  0  0  0
 10  5  1  0  0  0  0
 11 17  1  0  0  0  0
 11 22  1  0  0  0  0
 11 12  1  1  0  0  0
 13 14  1  0  0  0  0
 14 20  1  0  0  0  0
 14 15  2  0  0  0  0
 15 21  1  0  0  0  0
 16 15  1  0  0  0  0
 17 16  2  0  0  0  0
 18 13  2  0  0  0  0
 18 17  1  0  0  0  0
 19 13  1  0  0  0  0
 23 22  1  0  0  0  0
 24  6  1  0  0  0  0
 25 24  2  0  0  0  0
 26 25  1  0  0  0  0
 26 27  1  0  0  0  0
 26 29  1  0  0  0  0
 28 26  1  0  0  0  0
 29 30  1  0  0  0  0
 30 31  1  0  0  0  0
 32 31  1  0  0  0  0
M  END
>  <minimizedAffinity>
-4.81731939

$$$$

 OpenBabel03272509443D

 32 33  0  0  1  0  0  0  0  0999 V2000
   38.8130   24.3470   35.8750 C   0  0  0  0  0  0  0  0  0  0  0  0
   37.9400   25.3640   36.2670 C   0  0  0  0  0  0  0  0  0  0  0  0
   38.1830   26.6940   35.9580 C   0  0  0  0  0  0  0  0  0  0  0  0
   39.3290   27.0350   35.2360 C   0  0  0  0  0  0  0  0  0  0  0  0
   40.1720   26.0300   34.8610 C   0  0  0  0  0  0  0  0  0  0  0  0
   39.9010   24.7090   35.1860 C   0  0  0  0  0  0  0  0  0  0  0  0
   37.0520   25.1110   36.8240 H   0  0  0  0  0  0  0  0  0  0  0  0
   37.4670   27.4140   36.2930 H   0  0  0  0  0  0  0  0  0  0  0  0
   39.4330   28.0810   35.0450 H   0  0  0  0  0  0  0  0  0  0  0  0
   41.0190   26.4490   34.3100 H   0  0  0  0  0  0  0  0  0  0  0  0
   38.5790   22.9630   36.2230 C   0  0  2  0  0  0  0  0  0  0  0  0
   39.4830   22.3830   35.7920 H   0  0  0  0  0  0  0  0  0  0  0  0
   35.6980   20.8480   35.5640 C   0  0  0  0  0  0  0  0  0  0  0  0
   35.6970   20.7030   34.1900 C   0  0  0  0  0  0  0  0  0  0  0  0
   36.7270   21.2800   33.4730 C   0  0  0  0  0  0  0  0  0  0  0  0
   37.7090   21.9750   34.1450 N   0  0  0  0  0  0  0  0  0  0  0  0
   37.6540   22.0800   35.4560 C   0  0  0  0  0  0  0  0  0  0  0  0
   36.6550   21.5190   36.1750 N   0  0  0  0  0  0  0  0  0  0  0  0
   34.9040   20.4050   36.1500 H   0  0  0  0  0  0  0  0  0  0  0  0
   34.8980   20.1480   33.7260 H   0  0  0  0  0  0  0  0  0  0  0  0
   36.7530   21.1810   32.3880 H   0  0  0  0  0  0  0  0  0  0  0  0
   38.8180   22.7190   37.4630 O   0  0  0  0  0  0  0  0  0  0  0  0
   38.5760   23.3480   38.1850 H   0  0  0  0  0  0  0  0  0  0  0  0
   40.8950   23.7540   34.7500 C   0  0  0  0  0  3  0  0  0  0  0  0
   42.2040   23.8770   34.9870 C   0  0  0  0  0  3  0  0  0  0  0  0
   43.2960   22.9440   34.6260 C   0  0  0  0  0  0  0  0  0  0  0  0
   44.1450   23.1160   35.3480 H   0  0  0  0  0  0  0  0  0  0  0  0
   43.7430   23.1460   33.6320 H   0  0  0  0  0  0  0  0  0  0  0  0
   42.7240   21.2510   34.7900 S   0  0  0  0  0  0  0  0  0  0  0  0
   42.9630   20.5580   36.4290 C   0  0  0  0  0  2  0  0  0  0  0  0
   41.9460   21.1030   37.3850 C   0  0  0  0  0  2  0  0  0  0  0  0
   42.0630   22.1820   37.5060 H   0  0  0  0  0  0  0  0  0  0  0  0
  1 11  1  0  0  0  0
  1  2  1  0  0  0  0
  2  7  1  0  0  0  0
  3  2  2  0  0  0  0
  3  8  1  0  0  0  0
  4  3  1  0  0  0  0
  5  6  1  0  0  0  0
  5  4  2  0  0  0  0
  6  1  2  0  0  0  0
  9  4  1  0  0  0  0
 10  5  1  0  0  0  0
 11 12  1  6  0  0  0
 11 22  1  0  0  0  0
 13 19  1  0  0  0  0
 13 18  1  0  0  0  0
 14 13  2  0  0  0  0
 15 16  2  0  0  0  0
 15 14  1  0  0  0  0
 16 17  1  0  0  0  0
 17 18  2  0  0  0  0
 17 11  1  0  0  0  0
 20 14  1  0  0  0  0
 21 15  1  0  0  0  0
 22 23  1  0  0  0  0
 24 25  2  0  0  0  0
 24  6  1  0  0  0  0
 26 29  1  0  0  0  0
 26 25  1  0  0  0  0
 26 27  1  0  0  0  0
 28 26  1  0  0  0  0
 29 30  1  0  0  0  0
 30 31  1  0  0  0  0
 31 32  1  0  0  0  0
M  END
>  <minimizedAffinity>
-4.80220366

$$$$

 OpenBabel03272509443D

 32 33  0  0  1  0  0  0  0  0999 V2000
   38.8240   26.9240   34.3130 C   0  0  0  0  0  0  0  0  0  0  0  0
   37.7240   27.2030   33.5000 C   0  0  0  0  0  0  0  0  0  0  0  0
   37.8640   27.4590   32.1450 C   0  0  0  0  0  0  0  0  0  0  0  0
   39.1360   27.4410   31.5690 C   0  0  0  0  0  0  0  0  0  0  0  0
   40.2010   27.1670   32.3770 C   0  0  0  0  0  0  0  0  0  0  0  0
   40.0270   26.9150   33.7300 C   0  0  0  0  0  0  0  0  0  0  0  0
   36.7360   27.2190   33.9350 H   0  0  0  0  0  0  0  0  0  0  0  0
   36.9740   27.6640   31.5900 H   0  0  0  0  0  0  0  0  0  0  0  0
   39.1480   27.6490   30.5220 H   0  0  0  0  0  0  0  0  0  0  0  0
   41.1230   27.1900   31.7890 H   0  0  0  0  0  0  0  0  0  0  0  0
   38.6830   26.6870   35.7340 C   0  0  2  0  0  0  0  0  0  0  0  0
   39.7530   26.4610   36.1120 H   0  0  0  0  0  0  0  0  0  0  0  0
   37.8300   23.1560   35.8250 C   0  0  0  0  0  0  0  0  0  0  0  0
   37.6850   22.8810   37.1710 C   0  0  0  0  0  0  0  0  0  0  0  0
   37.8170   23.9260   38.0670 C   0  0  0  0  0  0  0  0  0  0  0  0
   38.0870   25.1900   37.5930 N   0  0  0  0  0  0  0  0  0  0  0  0
   38.2160   25.3880   36.2970 C   0  0  0  0  0  0  0  0  0  0  0  0
   38.0880   24.3800   35.4050 N   0  0  0  0  0  0  0  0  0  0  0  0
   37.7310   22.3570   35.1020 H   0  0  0  0  0  0  0  0  0  0  0  0
   37.4750   21.8690   37.4760 H   0  0  0  0  0  0  0  0  0  0  0  0
   37.7060   23.7390   39.1350 H   0  0  0  0  0  0  0  0  0  0  0  0
   38.5120   27.7740   36.4000 O   0  0  0  0  0  0  0  0  0  0  0  0
   37.9490   28.5160   36.0720 H   0  0  0  0  0  0  0  0  0  0  0  0
   41.2450   26.6700   34.4700 C   0  0  0  0  0  3  0  0  0  0  0  0
   42.0620   25.6360   34.2430 C   0  0  0  0  0  3  0  0  0  0  0  0
   43.3460   25.3160   34.9080 C   0  0  0  0  0  0  0  0  0  0  0  0
   43.6370   26.2070   35.5340 H   0  0  0  0  0  0  0  0  0  0  0  0
   44.1930   25.1950   34.2030 H   0  0  0  0  0  0  0  0  0  0  0  0
   43.1340   23.8920   35.9780 S   0  0  0  0  0  0  0  0  0  0  0  0
   41.4520   23.2680   36.0340 C   0  0  0  0  0  2  0  0  0  0  0  0
   41.3220   22.1920   37.0680 C   0  0  0  0  0  2  0  0  0  0  0  0
   41.9430   21.3300   36.8140 H   0  0  0  0  0  0  0  0  0  0  0  0
  1 11  1  0  0  0  0
  2  7  1  0  0  0  0
  2  1  2  0  0  0  0
  3  2  1  0  0  0  0
  4  3  2  0  0  0  0
  4  5  1  0  0  0  0
  5  6  2  0  0  0  0
  6  1  1  0  0  0  0
  6 24  1  0  0  0  0
  8  3  1  0  0  0  0
  9  4  1  0  0  0  0
 10  5  1  0  0  0  0
 11 12  1  1  0  0  0
 11 17  1  0  0  0  0
 11 22  1  0  0  0  0
 13 14  1  0  0  0  0
 14 20  1  0  0  0  0
 14 15  2  0  0  0  0
 15 21  1  0  0  0  0
 16 15  1  0  0  0  0
 17 16  2  0  0  0  0
 18 13  2  0  0  0  0
 18 17  1  0  0  0  0
 19 13  1  0  0  0  0
 23 22  1  0  0  0  0
 25 24  2  0  0  0  0
 25 26  1  0  0  0  0
 26 27  1  0  0  0  0
 26 29  1  0  0  0  0
 28 26  1  0  0  0  0
 29 30  1  0  0  0  0
 30 31  1  0  0  0  0
 32 31  1  0  0  0  0
M  END
>  <minimizedAffinity>
-4.79763746

$$$$

 OpenBabel03272509443D

 32 33  0  0  1  0  0  0  0  0999 V2000
   40.1030   26.9560   34.1720 C   0  0  0  0  0  0  0  0  0  0  0  0
   41.4930   27.0770   34.1340 C   0  0  0  0  0  0  0  0  0  0  0  0
   42.1710   27.3440   32.9550 C   0  0  0  0  0  0  0  0  0  0  0  0
   41.4520   27.4970   31.7670 C   0  0  0  0  0  0  0  0  0  0  0  0
   40.0940   27.3750   31.8200 C   0  0  0  0  0  0  0  0  0  0  0  0
   39.4450   27.1070   33.0170 C   0  0  0  0  0  0  0  0  0  0  0  0
   42.0580   26.9620   35.0460 H   0  0  0  0  0  0  0  0  0  0  0  0
   43.2350   27.4230   33.0080 H   0  0  0  0  0  0  0  0  0  0  0  0
   42.0570   27.7000   30.9100 H   0  0  0  0  0  0  0  0  0  0  0  0
   39.6740   27.5160   30.8200 H   0  0  0  0  0  0  0  0  0  0  0  0
   39.3960   26.6450   35.3950 C   0  0  2  0  0  0  0  0  0  0  0  0
   40.2200   26.4750   36.1880 H   0  0  0  0  0  0  0  0  0  0  0  0
   39.1340   23.0210   35.3640 C   0  0  0  0  0  0  0  0  0  0  0  0
   38.1860   22.7450   36.3310 C   0  0  0  0  0  0  0  0  0  0  0  0
   37.5750   23.8100   36.9660 C   0  0  0  0  0  0  0  0  0  0  0  0
   37.9290   25.0950   36.6190 N   0  0  0  0  0  0  0  0  0  0  0  0
   38.8410   25.2930   35.6900 C   0  0  0  0  0  0  0  0  0  0  0  0
   39.4480   24.2640   35.0550 N   0  0  0  0  0  0  0  0  0  0  0  0
   39.6270   22.2060   34.8510 H   0  0  0  0  0  0  0  0  0  0  0  0
   37.9570   21.7170   36.5570 H   0  0  0  0  0  0  0  0  0  0  0  0
   36.8230   23.6230   37.7330 H   0  0  0  0  0  0  0  0  0  0  0  0
   38.8720   27.6860   35.9400 O   0  0  0  0  0  0  0  0  0  0  0  0
   38.4420   28.4030   35.4130 H   0  0  0  0  0  0  0  0  0  0  0  0
   38.0090   26.9750   32.9200 C   0  0  0  0  0  3  0  0  0  0  0  0
   37.3320   27.0030   31.7670 C   0  0  0  0  0  3  0  0  0  0  0  0
   35.8770   26.8350   31.5510 C   0  0  0  0  0  0  0  0  0  0  0  0
   35.5880   27.4700   30.6670 H   0  0  0  0  0  0  0  0  0  0  0  0
   35.2560   27.2310   32.3800 H   0  0  0  0  0  0  0  0  0  0  0  0
   35.5140   25.1170   31.1820 S   0  0  0  0  0  0  0  0  0  0  0  0
   36.9700   24.1250   30.8360 C   0  0  0  0  0  2  0  0  0  0  0  0
   37.3140   23.2640   32.0130 C   0  0  0  0  0  2  0  0  0  0  0  0
   37.5770   23.8740   32.8790 H   0  0  0  0  0  0  0  0  0  0  0  0
  1 11  1  0  0  0  0
  2  1  1  0  0  0  0
  2  7  1  0  0  0  0
  3  8  1  0  0  0  0
  3  2  2  0  0  0  0
  4  5  2  0  0  0  0
  4  3  1  0  0  0  0
  5  6  1  0  0  0  0
  6  1  2  0  0  0  0
  9  4  1  0  0  0  0
 10  5  1  0  0  0  0
 11 17  1  0  0  0  0
 11 22  1  0  0  0  0
 11 12  1  1  0  0  0
 13 14  1  0  0  0  0
 14 20  1  0  0  0  0
 14 15  2  0  0  0  0
 15 21  1  0  0  0  0
 16 15  1  0  0  0  0
 17 16  2  0  0  0  0
 18 13  2  0  0  0  0
 18 17  1  0  0  0  0
 19 13  1  0  0  0  0
 23 22  1  0  0  0  0
 24  6  1  0  0  0  0
 25 24  2  0  0  0  0
 26 25  1  0  0  0  0
 26 28  1  0  0  0  0
 27 26  1  0  0  0  0
 29 26  1  0  0  0  0
 30 29  1  0  0  0  0
 30 31  1  0  0  0  0
 31 32  1  0  0  0  0
M  END
>  <minimizedAffinity>
-4.77447128

$$$$

 OpenBabel03272509443D

 32 33  0  0  1  0  0  0  0  0999 V2000
   38.2840   25.0470   35.7280 C   0  0  0  0  0  0  0  0  0  0  0  0
   38.3560   26.3300   36.2750 C   0  0  0  0  0  0  0  0  0  0  0  0
   38.0870   27.4610   35.5200 C   0  0  0  0  0  0  0  0  0  0  0  0
   37.7360   27.3240   34.1760 C   0  0  0  0  0  0  0  0  0  0  0  0
   37.6710   26.0640   33.6560 C   0  0  0  0  0  0  0  0  0  0  0  0
   37.9450   24.9520   34.4380 C   0  0  0  0  0  0  0  0  0  0  0  0
   38.6250   26.4460   37.3130 H   0  0  0  0  0  0  0  0  0  0  0  0
   38.1630   28.4080   36.0110 H   0  0  0  0  0  0  0  0  0  0  0  0
   37.5470   28.2480   33.6740 H   0  0  0  0  0  0  0  0  0  0  0  0
   37.3880   26.1170   32.6000 H   0  0  0  0  0  0  0  0  0  0  0  0
   38.5950   23.8670   36.5050 C   0  0  2  0  0  0  0  0  0  0  0  0
   38.8260   24.2550   37.5700 H   0  0  0  0  0  0  0  0  0  0  0  0
   42.1320   23.4210   35.7980 C   0  0  0  0  0  0  0  0  0  0  0  0
   42.4840   22.3100   36.5400 C   0  0  0  0  0  0  0  0  0  0  0  0
   41.4920   21.6580   37.2470 C   0  0  0  0  0  0  0  0  0  0  0  0
   40.2000   22.1330   37.1900 N   0  0  0  0  0  0  0  0  0  0  0  0
   39.9270   23.1990   36.4660 C   0  0  0  0  0  0  0  0  0  0  0  0
   40.8840   23.8500   35.7660 N   0  0  0  0  0  0  0  0  0  0  0  0
   42.8880   23.9510   35.2340 H   0  0  0  0  0  0  0  0  0  0  0  0
   43.5130   21.9920   36.5420 H   0  0  0  0  0  0  0  0  0  0  0  0
   41.7400   20.7770   37.8400 H   0  0  0  0  0  0  0  0  0  0  0  0
   37.5460   23.1890   36.8130 O   0  0  0  0  0  0  0  0  0  0  0  0
   36.7960   23.0550   36.1850 H   0  0  0  0  0  0  0  0  0  0  0  0
   37.8670   23.6840   33.7490 C   0  0  0  0  0  3  0  0  0  0  0  0
   37.3290   23.5240   32.5360 C   0  0  0  0  0  3  0  0  0  0  0  0
   37.2360   22.2870   31.7270 C   0  0  0  0  0  0  0  0  0  0  0  0
   38.0190   21.5710   32.1060 H   0  0  0  0  0  0  0  0  0  0  0  0
   37.5000   22.4330   30.6600 H   0  0  0  0  0  0  0  0  0  0  0  0
   35.6160   21.5460   31.9390 S   0  0  0  0  0  0  0  0  0  0  0  0
   35.4950   20.4540   33.3580 C   0  0  0  0  0  2  0  0  0  0  0  0
   35.4370   19.0230   32.9190 C   0  0  0  0  0  2  0  0  0  0  0  0
   34.5390   18.8320   32.3290 H   0  0  0  0  0  0  0  0  0  0  0  0
  1  2  1  0  0  0  0
  1 11  1  0  0  0  0
  2  7  1  0  0  0  0
  3  8  1  0  0  0  0
  3  2  2  0  0  0  0
  4  3  1  0  0  0  0
  5  4  2  0  0  0  0
  5  6  1  0  0  0  0
  6  1  2  0  0  0  0
  9  4  1  0  0  0  0
 10  5  1  0  0  0  0
 11 22  1  0  0  0  0
 11 12  1  1  0  0  0
 13 14  1  0  0  0  0
 14 20  1  0  0  0  0
 14 15  2  0  0  0  0
 15 21  1  0  0  0  0
 16 15  1  0  0  0  0
 17 11  1  0  0  0  0
 17 16  2  0  0  0  0
 18 13  2  0  0  0  0
 18 17  1  0  0  0  0
 19 13  1  0  0  0  0
 23 22  1  0  0  0  0
 24  6  1  0  0  0  0
 25 24  2  0  0  0  0
 26 29  1  0  0  0  0
 26 27  1  0  0  0  0
 26 25  1  0  0  0  0
 28 26  1  0  0  0  0
 29 30  1  0  0  0  0
 31 30  1  0  0  0  0
 32 31  1  0  0  0  0
M  END
>  <minimizedAffinity>
-4.72525501

$$$$

 OpenBabel03272509443D

 32 33  0  0  1  0  0  0  0  0999 V2000
   36.3760   21.8150   32.0930 C   0  0  0  0  0  0  0  0  0  0  0  0
   35.3680   21.1720   31.3720 C   0  0  0  0  0  0  0  0  0  0  0  0
   34.7190   20.0510   31.8650 C   0  0  0  0  0  0  0  0  0  0  0  0
   35.0760   19.5430   33.1160 C   0  0  0  0  0  0  0  0  0  0  0  0
   36.0630   20.1820   33.8080 C   0  0  0  0  0  0  0  0  0  0  0  0
   36.6940   21.3020   33.2870 C   0  0  0  0  0  0  0  0  0  0  0  0
   35.0830   21.5560   30.4040 H   0  0  0  0  0  0  0  0  0  0  0  0
   33.9570   19.6150   31.2540 H   0  0  0  0  0  0  0  0  0  0  0  0
   34.5230   18.6790   33.4140 H   0  0  0  0  0  0  0  0  0  0  0  0
   36.2320   19.6720   34.7610 H   0  0  0  0  0  0  0  0  0  0  0  0
   37.0770   22.9650   31.5660 C   0  0  2  0  0  0  0  0  0  0  0  0
   37.8900   23.2120   32.3510 H   0  0  0  0  0  0  0  0  0  0  0  0
   36.9320   26.4470   32.5970 C   0  0  0  0  0  0  0  0  0  0  0  0
   35.9510   26.9940   31.7920 C   0  0  0  0  0  0  0  0  0  0  0  0
   35.2780   26.1550   30.9240 C   0  0  0  0  0  0  0  0  0  0  0  0
   35.6060   24.8170   30.8900 N   0  0  0  0  0  0  0  0  0  0  0  0
   36.5520   24.3560   31.6810 C   0  0  0  0  0  0  0  0  0  0  0  0
   37.2210   25.1610   32.5380 N   0  0  0  0  0  0  0  0  0  0  0  0
   37.4740   27.0810   33.2870 H   0  0  0  0  0  0  0  0  0  0  0  0
   35.7450   28.0490   31.8680 H   0  0  0  0  0  0  0  0  0  0  0  0
   34.4990   26.5580   30.2780 H   0  0  0  0  0  0  0  0  0  0  0  0
   37.8770   22.6590   30.6070 O   0  0  0  0  0  0  0  0  0  0  0  0
   37.6480   21.9920   29.9150 H   0  0  0  0  0  0  0  0  0  0  0  0
   37.7400   21.8580   34.1140 C   0  0  0  0  0  3  0  0  0  0  0  0
   37.5800   22.1890   35.4000 C   0  0  0  0  0  3  0  0  0  0  0  0
   38.5880   22.7220   36.3450 C   0  0  0  0  0  0  0  0  0  0  0  0
   39.5840   22.7210   35.8180 H   0  0  0  0  0  0  0  0  0  0  0  0
   38.7520   22.0760   37.2310 H   0  0  0  0  0  0  0  0  0  0  0  0
   38.1650   24.4070   36.7930 S   0  0  0  0  0  0  0  0  0  0  0  0
   38.8590   25.6470   35.6960 C   0  0  0  0  0  2  0  0  0  0  0  0
   38.3590   27.0120   36.0590 C   0  0  0  0  0  2  0  0  0  0  0  0
   37.2770   27.0790   35.9250 H   0  0  0  0  0  0  0  0  0  0  0  0
  1  6  1  0  0  0  0
  2  3  1  0  0  0  0
  2  1  2  0  0  0  0
  3  4  2  0  0  0  0
  4  9  1  0  0  0  0
  4  5  1  0  0  0  0
  5 10  1  0  0  0  0
  6  5  2  0  0  0  0
  6 24  1  0  0  0  0
  7  2  1  0  0  0  0
  8  3  1  0  0  0  0
 11 17  1  0  0  0  0
 11  1  1  0  0  0  0
 11 12  1  1  0  0  0
 13 19  1  0  0  0  0
 14 20  1  0  0  0  0
 14 13  2  0  0  0  0
 15 14  1  0  0  0  0
 16 15  2  0  0  0  0
 16 17  1  0  0  0  0
 17 18  2  0  0  0  0
 18 13  1  0  0  0  0
 21 15  1  0  0  0  0
 22 11  1  0  0  0  0
 23 22  1  0  0  0  0
 24 25  2  0  0  0  0
 25 26  1  0  0  0  0
 26 29  1  0  0  0  0
 26 28  1  0  0  0  0
 27 26  1  0  0  0  0
 30 31  1  0  0  0  0
 30 29  1  0  0  0  0
 32 31  1  0  0  0  0
M  END
>  <minimizedAffinity>
-4.65333319

$$$$
