
 OpenBabel03262522243D

 26 27  0  0  0  0  0  0  0  0999 V2000
   38.5590   24.0480   35.9580 C   0  0  0  0  0  0  0  0  0  0  0  0
   37.8140   24.5120   36.9940 C   0  0  0  0  0  0  0  0  0  0  0  0
   38.1030   24.1450   38.2630 C   0  0  0  0  0  0  0  0  0  0  0  0
   39.1680   23.2920   38.4710 C   0  0  0  0  0  0  0  0  0  0  0  0
   39.9210   22.8250   37.4120 C   0  0  0  0  0  0  0  0  0  0  0  0
   39.5860   23.2260   36.1600 N   0  0  0  0  0  0  0  0  0  0  0  0
   36.9990   25.1760   36.7350 H   0  0  0  0  0  0  0  0  0  0  0  0
   37.5300   24.4970   39.1140 H   0  0  0  0  0  0  0  0  0  0  0  0
   39.4780   22.9410   39.4630 H   0  0  0  0  0  0  0  0  0  0  0  0
   41.0770   21.8920   37.6700 C   0  0  0  0  0  0  0  0  0  0  0  0
   41.9730   22.5390   37.7600 H   0  0  0  0  0  0  0  0  0  0  0  0
   41.2530   21.2290   36.8090 H   0  0  0  0  0  0  0  0  0  0  0  0
   40.8850   21.3710   38.6100 H   0  0  0  0  0  0  0  0  0  0  0  0
   38.4030   24.3230   34.5900 O   0  0  0  0  0  0  0  0  0  0  0  0
   37.4550   23.7990   32.5170 C   0  0  0  0  0  0  0  0  0  0  0  0
   37.8360   23.3550   33.8170 C   0  0  0  0  0  0  0  0  0  0  0  0
   37.6040   22.0450   34.1440 C   0  0  0  0  0  0  0  0  0  0  0  0
   37.0260   21.2500   33.2170 N   0  0  0  0  0  0  0  0  0  0  0  0
   36.6750   21.6820   32.0090 C   0  0  0  0  0  0  0  0  0  0  0  0
   36.8780   22.9720   31.6160 N   0  0  0  0  0  0  0  0  0  0  0  0
   37.6100   24.8210   32.1940 H   0  0  0  0  0  0  0  0  0  0  0  0
   37.9050   21.7510   35.1250 H   0  0  0  0  0  0  0  0  0  0  0  0
   35.9340   20.3750   31.0320 S   0  0  0  0  0  0  0  0  0  0  0  0
   34.7230   19.4210   31.9860 C   0  0  0  0  0  2  0  0  0  0  0  0
   35.3480   18.1370   32.5180 C   0  0  0  0  0  2  0  0  0  0  0  0
   36.1250   17.7440   31.8380 H   0  0  0  0  0  0  0  0  0  0  0  0
  1  6  2  0  0  0  0
  1  2  1  0  0  0  0
  2  3  2  0  0  0  0
  3  4  1  0  0  0  0
  3  8  1  0  0  0  0
  4  9  1  0  0  0  0
  5 10  1  0  0  0  0
  5  4  2  0  0  0  0
  6  5  1  0  0  0  0
  7  2  1  0  0  0  0
 10 11  1  0  0  0  0
 10 13  1  0  0  0  0
 12 10  1  0  0  0  0
 14  1  1  0  0  0  0
 15 16  1  0  0  0  0
 16 17  2  0  0  0  0
 16 14  1  0  0  0  0
 17 22  1  0  0  0  0
 18 17  1  0  0  0  0
 19 18  2  0  0  0  0
 20 19  1  0  0  0  0
 20 15  2  0  0  0  0
 21 15  1  0  0  0  0
 23 24  1  0  0  0  0
 23 19  1  0  0  0  0
 24 25  1  0  0  0  0
 26 25  1  0  0  0  0
M  END
>  <minimizedAffinity>
-4.58931971

$$$$

 OpenBabel03262522243D

 26 27  0  0  0  0  0  0  0  0999 V2000
   35.5540   21.1700   31.4310 C   0  0  0  0  0  0  0  0  0  0  0  0
   35.1650   20.7470   32.6610 C   0  0  0  0  0  0  0  0  0  0  0  0
   35.4190   19.4800   33.0610 C   0  0  0  0  0  0  0  0  0  0  0  0
   36.0800   18.6390   32.1900 C   0  0  0  0  0  0  0  0  0  0  0  0
   36.4730   19.0770   30.9400 C   0  0  0  0  0  0  0  0  0  0  0  0
   36.1910   20.3580   30.5920 N   0  0  0  0  0  0  0  0  0  0  0  0
   34.6520   21.4760   33.2770 H   0  0  0  0  0  0  0  0  0  0  0  0
   35.1240   19.1090   34.0370 H   0  0  0  0  0  0  0  0  0  0  0  0
   36.3310   17.5980   32.4260 H   0  0  0  0  0  0  0  0  0  0  0  0
   37.1910   18.1340   30.0090 C   0  0  0  0  0  0  0  0  0  0  0  0
   38.2730   18.3010   30.1840 H   0  0  0  0  0  0  0  0  0  0  0  0
   37.0000   18.3940   28.9560 H   0  0  0  0  0  0  0  0  0  0  0  0
   36.9110   17.1150   30.2800 H   0  0  0  0  0  0  0  0  0  0  0  0
   35.3740   22.4380   30.8570 O   0  0  0  0  0  0  0  0  0  0  0  0
   35.3880   24.7460   31.2410 C   0  0  0  0  0  0  0  0  0  0  0  0
   36.0250   23.4860   31.4360 C   0  0  0  0  0  0  0  0  0  0  0  0
   37.1870   23.4580   32.1620 C   0  0  0  0  0  0  0  0  0  0  0  0
   37.6610   24.6250   32.6490 N   0  0  0  0  0  0  0  0  0  0  0  0
   37.0530   25.7910   32.4570 C   0  0  0  0  0  0  0  0  0  0  0  0
   35.8940   25.8930   31.7460 N   0  0  0  0  0  0  0  0  0  0  0  0
   34.4670   24.8400   30.6770 H   0  0  0  0  0  0  0  0  0  0  0  0
   37.6330   22.4960   32.2870 H   0  0  0  0  0  0  0  0  0  0  0  0
   37.9480   27.1370   33.2340 S   0  0  0  0  0  0  0  0  0  0  0  0
   37.3950   27.4220   34.9370 C   0  0  0  0  0  2  0  0  0  0  0  0
   38.5300   27.1630   35.9200 C   0  0  0  0  0  2  0  0  0  0  0  0
   39.2150   26.3740   35.5620 H   0  0  0  0  0  0  0  0  0  0  0  0
  1  2  1  0  0  0  0
  2  3  2  0  0  0  0
  2  7  1  0  0  0  0
  3  8  1  0  0  0  0
  4  9  1  0  0  0  0
  4  3  1  0  0  0  0
  5  4  2  0  0  0  0
  6  5  1  0  0  0  0
  6  1  2  0  0  0  0
 10 11  1  0  0  0  0
 10 13  1  0  0  0  0
 10  5  1  0  0  0  0
 12 10  1  0  0  0  0
 14  1  1  0  0  0  0
 14 16  1  0  0  0  0
 15 16  2  0  0  0  0
 15 20  1  0  0  0  0
 16 17  1  0  0  0  0
 17 22  1  0  0  0  0
 17 18  2  0  0  0  0
 19 18  1  0  0  0  0
 19 23  1  0  0  0  0
 20 19  2  0  0  0  0
 21 15  1  0  0  0  0
 23 24  1  0  0  0  0
 24 25  1  0  0  0  0
 26 25  1  0  0  0  0
M  END
>  <minimizedAffinity>
-4.44587755

$$$$

 OpenBabel03262522243D

 26 27  0  0  0  0  0  0  0  0999 V2000
   38.6790   24.1850   35.8980 C   0  0  0  0  0  0  0  0  0  0  0  0
   37.7670   24.3890   36.8830 C   0  0  0  0  0  0  0  0  0  0  0  0
   37.9310   23.8140   38.0960 C   0  0  0  0  0  0  0  0  0  0  0  0
   39.0420   23.0210   38.3000 C   0  0  0  0  0  0  0  0  0  0  0  0
   39.9650   22.8200   37.2930 C   0  0  0  0  0  0  0  0  0  0  0  0
   39.7510   23.4220   36.0960 N   0  0  0  0  0  0  0  0  0  0  0  0
   36.9270   25.0250   36.6320 H   0  0  0  0  0  0  0  0  0  0  0  0
   37.2230   23.9550   38.9060 H   0  0  0  0  0  0  0  0  0  0  0  0
   39.2590   22.5150   39.2490 H   0  0  0  0  0  0  0  0  0  0  0  0
   41.1680   21.9470   37.5450 C   0  0  0  0  0  0  0  0  0  0  0  0
   41.9760   22.6310   37.8720 H   0  0  0  0  0  0  0  0  0  0  0  0
   41.5160   21.4720   36.6140 H   0  0  0  0  0  0  0  0  0  0  0  0
   40.9130   21.2450   38.3410 H   0  0  0  0  0  0  0  0  0  0  0  0
   38.6680   24.7000   34.5920 O   0  0  0  0  0  0  0  0  0  0  0  0
   38.0890   26.8310   35.3610 C   0  0  0  0  0  0  0  0  0  0  0  0
   37.9300   25.8230   34.3660 C   0  0  0  0  0  0  0  0  0  0  0  0
   37.0820   26.0770   33.3210 C   0  0  0  0  0  0  0  0  0  0  0  0
   36.4450   27.2680   33.2930 N   0  0  0  0  0  0  0  0  0  0  0  0
   36.6050   28.1970   34.2300 C   0  0  0  0  0  0  0  0  0  0  0  0
   37.4330   28.0120   35.2980 N   0  0  0  0  0  0  0  0  0  0  0  0
   38.7430   26.6960   36.2130 H   0  0  0  0  0  0  0  0  0  0  0  0
   36.9910   25.2980   32.5970 H   0  0  0  0  0  0  0  0  0  0  0  0
   35.6130   29.6520   33.8910 S   0  0  0  0  0  0  0  0  0  0  0  0
   35.7030   30.8610   35.2380 C   0  0  0  0  0  2  0  0  0  0  0  0
   35.3350   32.2520   34.7370 C   0  0  0  0  0  2  0  0  0  0  0  0
   35.6260   32.4020   33.6830 H   0  0  0  0  0  0  0  0  0  0  0  0
  1  6  2  0  0  0  0
  1  2  1  0  0  0  0
  2  3  2  0  0  0  0
  3  4  1  0  0  0  0
  3  8  1  0  0  0  0
  4  9  1  0  0  0  0
  5 10  1  0  0  0  0
  5  4  2  0  0  0  0
  6  5  1  0  0  0  0
  7  2  1  0  0  0  0
 10 11  1  0  0  0  0
 10 13  1  0  0  0  0
 12 10  1  0  0  0  0
 14  1  1  0  0  0  0
 15 21  1  0  0  0  0
 16 14  1  0  0  0  0
 16 15  2  0  0  0  0
 17 16  1  0  0  0  0
 18 17  2  0  0  0  0
 18 19  1  0  0  0  0
 19 20  2  0  0  0  0
 20 15  1  0  0  0  0
 22 17  1  0  0  0  0
 23 19  1  0  0  0  0
 23 24  1  0  0  0  0
 25 24  1  0  0  0  0
 26 25  1  0  0  0  0
M  END
>  <minimizedAffinity>
-4.39914751

$$$$

 OpenBabel03262522243D

 26 27  0  0  0  0  0  0  0  0999 V2000
   36.7210   27.3530   32.2060 C   0  0  0  0  0  0  0  0  0  0  0  0
   35.7480   28.2980   32.2870 C   0  0  0  0  0  0  0  0  0  0  0  0
   35.5190   28.9460   33.4520 C   0  0  0  0  0  0  0  0  0  0  0  0
   36.2960   28.6220   34.5450 C   0  0  0  0  0  0  0  0  0  0  0  0
   37.2840   27.6600   34.4540 C   0  0  0  0  0  0  0  0  0  0  0  0
   37.4700   27.0420   33.2610 N   0  0  0  0  0  0  0  0  0  0  0  0
   35.1890   28.4850   31.3790 H   0  0  0  0  0  0  0  0  0  0  0  0
   34.7520   29.7060   33.5520 H   0  0  0  0  0  0  0  0  0  0  0  0
   36.1850   29.0930   35.5290 H   0  0  0  0  0  0  0  0  0  0  0  0
   38.1160   27.3260   35.6660 C   0  0  0  0  0  0  0  0  0  0  0  0
   39.0170   27.9680   35.6020 H   0  0  0  0  0  0  0  0  0  0  0  0
   38.4700   26.2840   35.6300 H   0  0  0  0  0  0  0  0  0  0  0  0
   37.5310   27.5730   36.5540 H   0  0  0  0  0  0  0  0  0  0  0  0
   37.0920   26.5900   31.0880 O   0  0  0  0  0  0  0  0  0  0  0  0
   37.9090   24.4170   30.8040 C   0  0  0  0  0  0  0  0  0  0  0  0
   36.8020   25.2580   31.1140 C   0  0  0  0  0  0  0  0  0  0  0  0
   35.6000   24.6640   31.3980 C   0  0  0  0  0  0  0  0  0  0  0  0
   35.5350   23.3150   31.3670 N   0  0  0  0  0  0  0  0  0  0  0  0
   36.5780   22.5450   31.0750 C   0  0  0  0  0  0  0  0  0  0  0  0
   37.8040   23.0690   30.7830 N   0  0  0  0  0  0  0  0  0  0  0  0
   38.8870   24.8200   30.5700 H   0  0  0  0  0  0  0  0  0  0  0  0
   34.7970   25.3280   31.6260 H   0  0  0  0  0  0  0  0  0  0  0  0
   36.1460   20.8060   31.1190 S   0  0  0  0  0  0  0  0  0  0  0  0
   34.9250   20.4450   32.4100 C   0  0  0  0  0  2  0  0  0  0  0  0
   35.5780   20.4560   33.7860 C   0  0  0  0  0  2  0  0  0  0  0  0
   36.6300   20.1210   33.7470 H   0  0  0  0  0  0  0  0  0  0  0  0
  1  2  2  0  0  0  0
  1  6  1  0  0  0  0
  2  3  1  0  0  0  0
  3  8  1  0  0  0  0
  3  4  2  0  0  0  0
  4  9  1  0  0  0  0
  5  4  1  0  0  0  0
  5 10  1  0  0  0  0
  6  5  2  0  0  0  0
  7  2  1  0  0  0  0
 10 13  1  0  0  0  0
 11 10  1  0  0  0  0
 12 10  1  0  0  0  0
 14 16  1  0  0  0  0
 14  1  1  0  0  0  0
 15 16  1  0  0  0  0
 16 17  2  0  0  0  0
 17 22  1  0  0  0  0
 18 17  1  0  0  0  0
 19 23  1  0  0  0  0
 19 18  2  0  0  0  0
 20 15  2  0  0  0  0
 20 19  1  0  0  0  0
 21 15  1  0  0  0  0
 23 24  1  0  0  0  0
 24 25  1  0  0  0  0
 26 25  1  0  0  0  0
M  END
>  <minimizedAffinity>
-4.37275839

$$$$

 OpenBabel03262522243D

 26 27  0  0  0  0  0  0  0  0999 V2000
   37.5600   26.3120   33.6180 C   0  0  0  0  0  0  0  0  0  0  0  0
   37.2420   26.4080   34.9360 C   0  0  0  0  0  0  0  0  0  0  0  0
   38.1710   26.8050   35.8350 C   0  0  0  0  0  0  0  0  0  0  0  0
   39.4380   27.1060   35.3790 C   0  0  0  0  0  0  0  0  0  0  0  0
   39.7520   27.0050   34.0380 C   0  0  0  0  0  0  0  0  0  0  0  0
   38.7820   26.6030   33.1800 N   0  0  0  0  0  0  0  0  0  0  0  0
   36.2240   26.1520   35.2010 H   0  0  0  0  0  0  0  0  0  0  0  0
   37.9520   26.8940   36.8950 H   0  0  0  0  0  0  0  0  0  0  0  0
   40.2540   27.4360   36.0330 H   0  0  0  0  0  0  0  0  0  0  0  0
   41.1460   27.3390   33.5700 C   0  0  0  0  0  0  0  0  0  0  0  0
   41.1190   28.4070   33.2760 H   0  0  0  0  0  0  0  0  0  0  0  0
   41.4070   26.7710   32.6630 H   0  0  0  0  0  0  0  0  0  0  0  0
   41.8270   27.1880   34.4090 H   0  0  0  0  0  0  0  0  0  0  0  0
   36.7290   25.9210   32.5570 O   0  0  0  0  0  0  0  0  0  0  0  0
   35.6060   24.1790   31.4720 C   0  0  0  0  0  0  0  0  0  0  0  0
   36.7620   24.6100   32.1850 C   0  0  0  0  0  0  0  0  0  0  0  0
   37.7550   23.6940   32.4160 C   0  0  0  0  0  0  0  0  0  0  0  0
   37.5800   22.4370   31.9550 N   0  0  0  0  0  0  0  0  0  0  0  0
   36.4940   22.0520   31.2910 C   0  0  0  0  0  0  0  0  0  0  0  0
   35.4680   22.9100   31.0250 N   0  0  0  0  0  0  0  0  0  0  0  0
   34.7840   24.8510   31.2550 H   0  0  0  0  0  0  0  0  0  0  0  0
   38.6040   24.0550   32.9520 H   0  0  0  0  0  0  0  0  0  0  0  0
   36.5840   20.3230   30.8270 S   0  0  0  0  0  0  0  0  0  0  0  0
   35.5660   19.2800   31.9050 C   0  0  0  0  0  2  0  0  0  0  0  0
   35.4580   19.8900   33.2960 C   0  0  0  0  0  2  0  0  0  0  0  0
   36.3680   20.4510   33.5730 H   0  0  0  0  0  0  0  0  0  0  0  0
  1  2  1  0  0  0  0
  2  7  1  0  0  0  0
  2  3  2  0  0  0  0
  3  8  1  0  0  0  0
  4  3  1  0  0  0  0
  4  9  1  0  0  0  0
  5  4  2  0  0  0  0
  6  1  2  0  0  0  0
  6  5  1  0  0  0  0
 10  5  1  0  0  0  0
 10 13  1  0  0  0  0
 11 10  1  0  0  0  0
 12 10  1  0  0  0  0
 14  1  1  0  0  0  0
 15 16  1  0  0  0  0
 16 17  2  0  0  0  0
 16 14  1  0  0  0  0
 17 22  1  0  0  0  0
 18 17  1  0  0  0  0
 19 18  2  0  0  0  0
 20 19  1  0  0  0  0
 20 15  2  0  0  0  0
 21 15  1  0  0  0  0
 23 19  1  0  0  0  0
 23 24  1  0  0  0  0
 24 25  1  0  0  0  0
 25 26  1  0  0  0  0
M  END
>  <minimizedAffinity>
-4.33657885

$$$$

 OpenBabel03262522243D

 26 27  0  0  0  0  0  0  0  0999 V2000
   36.5250   22.0530   31.7720 C   0  0  0  0  0  0  0  0  0  0  0  0
   35.5050   21.1670   31.6280 C   0  0  0  0  0  0  0  0  0  0  0  0
   35.0720   20.4440   32.6850 C   0  0  0  0  0  0  0  0  0  0  0  0
   35.6920   20.6310   33.9040 C   0  0  0  0  0  0  0  0  0  0  0  0
   36.7280   21.5340   34.0420 C   0  0  0  0  0  0  0  0  0  0  0  0
   37.1210   22.2330   32.9480 N   0  0  0  0  0  0  0  0  0  0  0  0
   35.0800   21.0870   30.6350 H   0  0  0  0  0  0  0  0  0  0  0  0
   34.2600   19.7290   32.6070 H   0  0  0  0  0  0  0  0  0  0  0  0
   35.4090   20.0920   34.8160 H   0  0  0  0  0  0  0  0  0  0  0  0
   37.3870   21.7160   35.3860 C   0  0  0  0  0  0  0  0  0  0  0  0
   36.8560   22.5580   35.8730 H   0  0  0  0  0  0  0  0  0  0  0  0
   38.4370   22.0280   35.2750 H   0  0  0  0  0  0  0  0  0  0  0  0
   37.2480   20.7950   35.9550 H   0  0  0  0  0  0  0  0  0  0  0  0
   37.0960   22.8790   30.7920 O   0  0  0  0  0  0  0  0  0  0  0  0
   35.5580   24.6290   30.9920 C   0  0  0  0  0  0  0  0  0  0  0  0
   36.9220   24.2240   30.9260 C   0  0  0  0  0  0  0  0  0  0  0  0
   37.8870   25.1940   31.0030 C   0  0  0  0  0  0  0  0  0  0  0  0
   37.4890   26.4780   31.1360 N   0  0  0  0  0  0  0  0  0  0  0  0
   36.2110   26.8380   31.1960 C   0  0  0  0  0  0  0  0  0  0  0  0
   35.1990   25.9260   31.1260 N   0  0  0  0  0  0  0  0  0  0  0  0
   34.7450   23.9150   30.9370 H   0  0  0  0  0  0  0  0  0  0  0  0
   38.8960   24.8490   30.9520 H   0  0  0  0  0  0  0  0  0  0  0  0
   36.0350   28.6140   31.3700 S   0  0  0  0  0  0  0  0  0  0  0  0
   34.8500   29.0520   32.6700 C   0  0  0  0  0  2  0  0  0  0  0  0
   35.5700   29.3020   33.9900 C   0  0  0  0  0  2  0  0  0  0  0  0
   36.4750   28.6790   34.0910 H   0  0  0  0  0  0  0  0  0  0  0  0
  1  6  1  0  0  0  0
  2  1  2  0  0  0  0
  2  3  1  0  0  0  0
  3  4  2  0  0  0  0
  4  5  1  0  0  0  0
  4  9  1  0  0  0  0
  5 10  1  0  0  0  0
  6  5  2  0  0  0  0
  7  2  1  0  0  0  0
  8  3  1  0  0  0  0
 10 11  1  0  0  0  0
 10 13  1  0  0  0  0
 12 10  1  0  0  0  0
 14 16  1  0  0  0  0
 14  1  1  0  0  0  0
 15 20  1  0  0  0  0
 16 15  2  0  0  0  0
 16 17  1  0  0  0  0
 17 18  2  0  0  0  0
 18 19  1  0  0  0  0
 19 23  1  0  0  0  0
 20 19  2  0  0  0  0
 21 15  1  0  0  0  0
 22 17  1  0  0  0  0
 23 24  1  0  0  0  0
 24 25  1  0  0  0  0
 25 26  1  0  0  0  0
M  END
>  <minimizedAffinity>
-4.23057938

$$$$

 OpenBabel03262522243D

 26 27  0  0  0  0  0  0  0  0999 V2000
   36.5560   27.4690   32.2610 C   0  0  0  0  0  0  0  0  0  0  0  0
   37.0930   27.3890   33.5060 C   0  0  0  0  0  0  0  0  0  0  0  0
   36.6220   28.1680   34.5060 C   0  0  0  0  0  0  0  0  0  0  0  0
   35.5880   29.0380   34.2260 C   0  0  0  0  0  0  0  0  0  0  0  0
   35.0470   29.1130   32.9570 C   0  0  0  0  0  0  0  0  0  0  0  0
   35.5590   28.3080   31.9930 N   0  0  0  0  0  0  0  0  0  0  0  0
   37.9010   26.6780   33.6330 H   0  0  0  0  0  0  0  0  0  0  0  0
   37.0260   28.1300   35.5120 H   0  0  0  0  0  0  0  0  0  0  0  0
   35.1400   29.7070   34.9710 H   0  0  0  0  0  0  0  0  0  0  0  0
   33.9190   30.0750   32.6810 C   0  0  0  0  0  0  0  0  0  0  0  0
   32.9850   29.4960   32.8260 H   0  0  0  0  0  0  0  0  0  0  0  0
   33.9260   30.4030   31.6290 H   0  0  0  0  0  0  0  0  0  0  0  0
   33.9850   30.8870   33.4070 H   0  0  0  0  0  0  0  0  0  0  0  0
   36.9180   26.7420   31.1160 O   0  0  0  0  0  0  0  0  0  0  0  0
   37.8470   24.6010   30.9630 C   0  0  0  0  0  0  0  0  0  0  0  0
   36.6780   25.4000   31.1230 C   0  0  0  0  0  0  0  0  0  0  0  0
   35.4740   24.7610   31.2640 C   0  0  0  0  0  0  0  0  0  0  0  0
   35.4650   23.4110   31.2420 N   0  0  0  0  0  0  0  0  0  0  0  0
   36.5650   22.6800   31.0910 C   0  0  0  0  0  0  0  0  0  0  0  0
   37.7960   23.2490   30.9470 N   0  0  0  0  0  0  0  0  0  0  0  0
   38.8300   25.0410   30.8470 H   0  0  0  0  0  0  0  0  0  0  0  0
   34.6240   25.3950   31.3820 H   0  0  0  0  0  0  0  0  0  0  0  0
   36.1970   20.9260   31.1050 S   0  0  0  0  0  0  0  0  0  0  0  0
   34.9480   20.5060   32.3490 C   0  0  0  0  0  2  0  0  0  0  0  0
   35.5770   20.4180   33.7340 C   0  0  0  0  0  2  0  0  0  0  0  0
   36.6230   20.0670   33.6910 H   0  0  0  0  0  0  0  0  0  0  0  0
  1  2  1  0  0  0  0
  2  7  1  0  0  0  0
  2  3  2  0  0  0  0
  3  8  1  0  0  0  0
  4  3  1  0  0  0  0
  4  9  1  0  0  0  0
  5  4  2  0  0  0  0
  6  1  2  0  0  0  0
  6  5  1  0  0  0  0
 10 11  1  0  0  0  0
 10  5  1  0  0  0  0
 10 13  1  0  0  0  0
 12 10  1  0  0  0  0
 14 16  1  0  0  0  0
 14  1  1  0  0  0  0
 15 16  1  0  0  0  0
 16 17  2  0  0  0  0
 17 22  1  0  0  0  0
 18 17  1  0  0  0  0
 19 23  1  0  0  0  0
 19 18  2  0  0  0  0
 20 15  2  0  0  0  0
 20 19  1  0  0  0  0
 21 15  1  0  0  0  0
 23 24  1  0  0  0  0
 24 25  1  0  0  0  0
 26 25  1  0  0  0  0
M  END
>  <minimizedAffinity>
-4.21554661

$$$$

 OpenBabel03262522243D

 26 27  0  0  0  0  0  0  0  0999 V2000
   35.4380   29.7940   34.4520 C   0  0  0  0  0  0  0  0  0  0  0  0
   35.8070   30.8750   35.1880 C   0  0  0  0  0  0  0  0  0  0  0  0
   34.8970   31.5310   35.9430 C   0  0  0  0  0  0  0  0  0  0  0  0
   33.5940   31.0740   35.9430 C   0  0  0  0  0  0  0  0  0  0  0  0
   33.2280   29.9750   35.1920 C   0  0  0  0  0  0  0  0  0  0  0  0
   34.1820   29.3540   34.4540 N   0  0  0  0  0  0  0  0  0  0  0  0
   36.8500   31.1610   35.1260 H   0  0  0  0  0  0  0  0  0  0  0  0
   35.1560   32.3970   36.5430 H   0  0  0  0  0  0  0  0  0  0  0  0
   32.7890   31.5410   36.5230 H   0  0  0  0  0  0  0  0  0  0  0  0
   31.7970   29.5000   35.2100 C   0  0  0  0  0  0  0  0  0  0  0  0
   31.7450   28.7250   36.0010 H   0  0  0  0  0  0  0  0  0  0  0  0
   31.5320   29.0020   34.2650 H   0  0  0  0  0  0  0  0  0  0  0  0
   31.1640   30.3510   35.4650 H   0  0  0  0  0  0  0  0  0  0  0  0
   36.2440   29.0010   33.6210 O   0  0  0  0  0  0  0  0  0  0  0  0
   36.9360   26.7840   33.3430 C   0  0  0  0  0  0  0  0  0  0  0  0
   36.8660   27.9290   34.1880 C   0  0  0  0  0  0  0  0  0  0  0  0
   37.4140   27.8400   35.4410 C   0  0  0  0  0  0  0  0  0  0  0  0
   37.9880   26.6720   35.8030 N   0  0  0  0  0  0  0  0  0  0  0  0
   38.0430   25.6130   35.0010 C   0  0  0  0  0  0  0  0  0  0  0  0
   37.5200   25.6310   33.7420 N   0  0  0  0  0  0  0  0  0  0  0  0
   36.5230   26.7860   32.3420 H   0  0  0  0  0  0  0  0  0  0  0  0
   37.3420   28.7190   36.0420 H   0  0  0  0  0  0  0  0  0  0  0  0
   38.8680   24.2310   35.7920 S   0  0  0  0  0  0  0  0  0  0  0  0
   37.8160   23.4390   37.0380 C   0  0  0  0  0  2  0  0  0  0  0  0
   38.0130   24.0910   38.4010 C   0  0  0  0  0  2  0  0  0  0  0  0
   39.0430   24.4650   38.5350 H   0  0  0  0  0  0  0  0  0  0  0  0
  1  6  2  0  0  0  0
  1  2  1  0  0  0  0
  2  3  2  0  0  0  0
  3  8  1  0  0  0  0
  4  3  1  0  0  0  0
  4  9  1  0  0  0  0
  5 10  1  0  0  0  0
  5  4  2  0  0  0  0
  6  5  1  0  0  0  0
  7  2  1  0  0  0  0
 10 13  1  0  0  0  0
 10 11  1  0  0  0  0
 12 10  1  0  0  0  0
 14 16  1  0  0  0  0
 14  1  1  0  0  0  0
 15 20  2  0  0  0  0
 15 16  1  0  0  0  0
 16 17  2  0  0  0  0
 17 18  1  0  0  0  0
 17 22  1  0  0  0  0
 19 23  1  0  0  0  0
 19 18  2  0  0  0  0
 20 19  1  0  0  0  0
 21 15  1  0  0  0  0
 23 24  1  0  0  0  0
 24 25  1  0  0  0  0
 25 26  1  0  0  0  0
M  END
>  <minimizedAffinity>
-4.21297312

$$$$

 OpenBabel03262522243D

 26 27  0  0  0  0  0  0  0  0999 V2000
   34.9220   31.0520   34.4200 C   0  0  0  0  0  0  0  0  0  0  0  0
   35.9330   31.8370   34.8740 C   0  0  0  0  0  0  0  0  0  0  0  0
   35.8750   32.3810   36.1110 C   0  0  0  0  0  0  0  0  0  0  0  0
   34.7670   32.1160   36.8900 C   0  0  0  0  0  0  0  0  0  0  0  0
   33.7440   31.3170   36.4210 C   0  0  0  0  0  0  0  0  0  0  0  0
   33.8550   30.7970   35.1730 N   0  0  0  0  0  0  0  0  0  0  0  0
   36.7620   31.9900   34.1930 H   0  0  0  0  0  0  0  0  0  0  0  0
   36.6640   33.0120   36.5060 H   0  0  0  0  0  0  0  0  0  0  0  0
   34.6320   32.5120   37.9040 H   0  0  0  0  0  0  0  0  0  0  0  0
   32.5450   31.0470   37.2950 C   0  0  0  0  0  0  0  0  0  0  0  0
   32.7660   30.1020   37.8300 H   0  0  0  0  0  0  0  0  0  0  0  0
   31.6450   30.8610   36.6880 H   0  0  0  0  0  0  0  0  0  0  0  0
   32.4500   31.8740   38.0000 H   0  0  0  0  0  0  0  0  0  0  0  0
   34.8190   30.4120   33.1750 O   0  0  0  0  0  0  0  0  0  0  0  0
   35.6090   28.8250   31.6500 C   0  0  0  0  0  0  0  0  0  0  0  0
   35.5180   29.2540   33.0050 C   0  0  0  0  0  0  0  0  0  0  0  0
   36.1220   28.4870   33.9670 C   0  0  0  0  0  0  0  0  0  0  0  0
   36.7690   27.3680   33.5740 N   0  0  0  0  0  0  0  0  0  0  0  0
   36.8440   26.9820   32.3040 C   0  0  0  0  0  0  0  0  0  0  0  0
   36.2670   27.6970   31.2960 N   0  0  0  0  0  0  0  0  0  0  0  0
   35.1550   29.3840   30.8410 H   0  0  0  0  0  0  0  0  0  0  0  0
   36.0320   28.8430   34.9690 H   0  0  0  0  0  0  0  0  0  0  0  0
   37.7690   25.4560   32.1330 S   0  0  0  0  0  0  0  0  0  0  0  0
   37.0040   24.3320   30.9340 C   0  0  0  0  0  2  0  0  0  0  0  0
   35.5960   23.9520   31.3760 C   0  0  0  0  0  2  0  0  0  0  0  0
   35.5030   23.9220   32.4760 H   0  0  0  0  0  0  0  0  0  0  0  0
  1  2  2  0  0  0  0
  1  6  1  0  0  0  0
  2  3  1  0  0  0  0
  3  8  1  0  0  0  0
  3  4  2  0  0  0  0
  4  9  1  0  0  0  0
  5  4  1  0  0  0  0
  5 10  1  0  0  0  0
  6  5  2  0  0  0  0
  7  2  1  0  0  0  0
 10 11  1  0  0  0  0
 10 13  1  0  0  0  0
 12 10  1  0  0  0  0
 14  1  1  0  0  0  0
 15 16  1  0  0  0  0
 16 14  1  0  0  0  0
 16 17  2  0  0  0  0
 17 22  1  0  0  0  0
 18 17  1  0  0  0  0
 19 18  2  0  0  0  0
 20 15  2  0  0  0  0
 20 19  1  0  0  0  0
 21 15  1  0  0  0  0
 23 19  1  0  0  0  0
 24 25  1  0  0  0  0
 24 23  1  0  0  0  0
 25 26  1  0  0  0  0
M  END
>  <minimizedAffinity>
-4.16452122

$$$$
