
 OpenBabel03272506403D

 13 13  0  0  0  0  0  0  0  0999 V2000
   37.3190   30.2030   51.3820 C   0  0  0  0  0  0  0  0  0  0  0  0
   38.1380   30.7330   50.3850 C   0  0  0  0  0  0  0  0  0  0  0  0
   37.7950   30.5070   49.0280 C   0  0  0  0  0  0  0  0  0  0  0  0
   36.6780   29.7820   48.7640 N   0  0  0  0  0  0  0  0  0  0  0  0
   35.9120   29.2860   49.7620 C   0  0  0  0  0  0  0  0  0  0  0  0
   36.2080   29.4810   51.0600 N   0  0  0  0  0  0  0  0  0  0  0  0
   37.5500   30.3550   52.4150 H   0  0  0  0  0  0  0  0  0  0  0  0
   39.0280   31.3150   50.6080 H   0  0  0  0  0  0  0  0  0  0  0  0
   38.3820   30.8850   48.2080 H   0  0  0  0  0  0  0  0  0  0  0  0
   34.4410   28.3230   49.4310 S   0  0  0  0  0  0  0  0  0  0  0  0
   34.1080   28.2220   47.6560 C   0  0  0  0  0  0  0  0  0  0  0  0
   33.7570   26.8290   47.2000 C   0  0  0  0  0  0  0  0  0  0  0  0
   33.1100   26.9280   46.2990 H   0  0  0  0  0  0  0  0  0  0  0  0
  1  7  1  0  0  0  0
  2  8  1  0  0  0  0
  2  1  2  0  0  0  0
  3  2  1  0  0  0  0
  4  3  2  0  0  0  0
  4  5  1  0  0  0  0
  5  6  2  0  0  0  0
  6  1  1  0  0  0  0
  9  3  1  0  0  0  0
 10  5  1  0  0  0  0
 11 10  1  0  0  0  0
 12 11  1  0  0  0  0
 13 12  1  0  0  0  0
M  END
>  <minimizedAffinity>
-3.32933974

>  <minimizedRMSD>
0.438188732

$$$$
