
 OpenBabel03272510113D

 29 31  0  0  0  0  0  0  0  0999 V2000
   34.0300   28.8190   48.2930 C   0  0  0  0  0  0  0  0  0  0  0  0
   34.6490   28.3760   49.4170 C   0  0  0  0  0  0  0  0  0  0  0  0
   35.8850   28.7980   49.8550 C   0  0  0  0  0  0  0  0  0  0  0  0
   36.5780   29.7290   49.1400 C   0  0  0  0  0  0  0  0  0  0  0  0
   35.9500   30.1960   47.9780 C   0  0  0  0  0  0  0  0  0  0  0  0
   34.7390   29.7520   47.5890 N   0  0  0  0  0  0  0  0  0  0  0  0
   34.1700   27.6360   50.0430 H   0  0  0  0  0  0  0  0  0  0  0  0
   36.3710   28.4400   50.7510 H   0  0  0  0  0  0  0  0  0  0  0  0
   36.3950   30.9340   47.3260 H   0  0  0  0  0  0  0  0  0  0  0  0
   31.9260   27.5140   48.5630 C   0  0  0  0  0  0  0  0  0  0  0  0
   32.7500   28.3810   47.8300 C   0  0  0  0  0  0  0  0  0  0  0  0
   32.2780   28.8000   46.6160 C   0  0  0  0  0  0  0  0  0  0  0  0
   31.0560   28.3700   46.1740 N   0  0  0  0  0  0  0  0  0  0  0  0
   30.2970   27.5260   46.9310 C   0  0  0  0  0  0  0  0  0  0  0  0
   30.7240   27.0860   48.1370 N   0  0  0  0  0  0  0  0  0  0  0  0
   32.2520   27.1540   49.5300 H   0  0  0  0  0  0  0  0  0  0  0  0
   32.8630   29.4670   46.0070 H   0  0  0  0  0  0  0  0  0  0  0  0
   29.3510   27.2720   46.4450 H   0  0  0  0  0  0  0  0  0  0  0  0
   37.8270   30.2690   49.4260 O   0  0  0  0  0  0  0  0  0  0  0  0
   38.3920   31.2660   48.6540 C   0  0  0  0  0  0  0  0  0  0  0  0
   38.4450   32.5080   49.2850 C   0  0  0  0  0  0  0  0  0  0  0  0
   39.0320   33.4000   48.3900 C   0  0  0  0  0  0  0  0  0  0  0  0
   39.3090   32.6990   47.2810 N   0  0  0  0  0  0  0  0  0  0  0  0
   38.9350   31.4530   47.4370 N   0  0  0  0  0  0  0  0  0  0  0  0
   38.1470   32.9070   50.2580 H   0  0  0  0  0  0  0  0  0  0  0  0
   39.2510   34.4600   48.5030 H   0  0  0  0  0  0  0  0  0  0  0  0
   39.9300   33.2380   46.0880 C   0  0  0  0  0  2  0  0  0  0  0  0
   40.6550   32.0990   45.4060 C   0  0  0  0  0  2  0  0  0  0  0  0
   41.7320   32.1730   45.6120 H   0  0  0  0  0  0  0  0  0  0  0  0
  1  2  1  0  0  0  0
  2  3  2  0  0  0  0
  2  7  1  0  0  0  0
  3  8  1  0  0  0  0
  4 19  1  0  0  0  0
  4  3  1  0  0  0  0
  5  4  2  0  0  0  0
  6  5  1  0  0  0  0
  6  1  2  0  0  0  0
  9  5  1  0  0  0  0
 10 16  1  0  0  0  0
 11  1  1  0  0  0  0
 11 10  2  0  0  0  0
 12 11  1  0  0  0  0
 13 12  2  0  0  0  0
 13 14  1  0  0  0  0
 14 15  2  0  0  0  0
 15 10  1  0  0  0  0
 17 12  1  0  0  0  0
 18 14  1  0  0  0  0
 20 21  1  0  0  0  0
 20 19  1  0  0  0  0
 21 25  1  0  0  0  0
 22 26  1  0  0  0  0
 22 21  2  0  0  0  0
 23 24  1  0  0  0  0
 23 22  1  0  0  0  0
 24 20  2  0  0  0  0
 27 23  1  0  0  0  0
 28 29  1  0  0  0  0
 28 27  1  0  0  0  0
M  END
>  <minimizedAffinity>
-5.49705601

>  <minimizedRMSD>
0.66380614

$$$$
