REMARK  Name = 
REMARK  8 active torsions:
REMARK  status: ('A' for Active; 'I' for Inactive)
REMARK    1  A    between atoms: C_1  and  C_7
REMARK    2  A    between atoms: C_6  and  C_15
REMARK    3  A    between atoms: C_7  and  O_8
REMARK    4  A    between atoms: C_7  and  C_13
REMARK    5  A    between atoms: C_16  and  C_17
REMARK    6  A    between atoms: C_17  and  S_18
REMARK    7  A    between atoms: S_18  and  C_32
REMARK    8  A    between atoms: C_32  and  C_33
REMARK                            x       y       z     vdW  Elec       q    Type
REMARK                         _______ _______ _______ _____ _____    ______ ____
ROOT
ATOM      1  C   UNL     1      37.080  30.949  49.030  0.00  0.00    +0.000 A 
ATOM      2  C   UNL     1      36.812  31.879  50.036  0.00  0.00    +0.000 A 
ATOM      3  C   UNL     1      37.425  33.122  50.063  0.00  0.00    +0.000 A 
ATOM      4  C   UNL     1      38.337  33.462  49.062  0.00  0.00    +0.000 A 
ATOM      5  C   UNL     1      38.589  32.542  48.086  0.00  0.00    +0.000 A 
ATOM      6  C   UNL     1      37.959  31.306  48.087  0.00  0.00    +0.000 A 
ATOM      7  H   UNL     1      36.108  31.627  50.814  0.00  0.00    +0.000 HD
ATOM      8  H   UNL     1      37.167  33.779  50.866  0.00  0.00    +0.000 HD
ATOM      9  H   UNL     1      38.759  34.438  49.164  0.00  0.00    +0.000 HD
ATOM     10  H   UNL     1      39.320  32.947  47.380  0.00  0.00    +0.000 HD
ENDROOT
BRANCH   1  11
ATOM     11  C   UNL     1      36.466  29.639  49.017  0.00  0.00    +0.000 C 
ATOM     12  H   UNL     1      37.004  29.059  48.173  0.00  0.00    +0.000 HD
BRANCH  11  17
ATOM     13  C   UNL     1      33.614  30.147  46.823  0.00  0.00    +0.000 A 
ATOM     14  C   UNL     1      32.955  28.933  46.844  0.00  0.00    +0.000 A 
ATOM     15  C   UNL     1      33.449  27.938  47.666  0.00  0.00    +0.000 A 
ATOM     16  N   UNL     1      34.570  28.187  48.427  0.00  0.00    +0.000 NA
ATOM     17  C   UNL     1      35.155  29.365  48.362  0.00  0.00    +0.000 A 
ATOM     18  N   UNL     1      34.685  30.352  47.565  0.00  0.00    +0.000 NA
ATOM     19  H   UNL     1      33.248  30.944  46.189  0.00  0.00    +0.000 HD
ATOM     20  H   UNL     1      32.084  28.803  46.223  0.00  0.00    +0.000 HD
ATOM     21  H   UNL     1      32.949  26.970  47.704  0.00  0.00    +0.000 HD
ENDBRANCH  11  17
BRANCH  11  22
ATOM     22  O   UNL     1      36.864  28.898  49.990  0.00  0.00    +0.000 OA
ATOM     23  H   UNL     1      37.011  29.250  50.901  0.00  0.00    +0.000 HD
ENDBRANCH  11  22
ENDBRANCH   1  11
BRANCH   6  24
ATOM     24  C   UNL     1      38.343  30.421  47.011  0.00  0.00    +0.000 C 
ATOM     25  C   UNL     1      38.825  30.838  45.836  0.00  0.00    +0.000 C 
BRANCH  25  26
ATOM     26  C   UNL     1      39.286  30.022  44.689  0.00  0.00    +0.000 C 
ATOM     27  H   UNL     1      38.599  29.133  44.605  0.00  0.00    +0.000 HD
ATOM     28  H   UNL     1      40.289  29.574  44.837  0.00  0.00    +0.000 HD
BRANCH  26  29
ATOM     29  S   UNL     1      39.181  30.987  43.180  0.00  0.00    +0.000 S 
BRANCH  29  30
ATOM     30  C   UNL     1      39.715  30.102  41.712  0.00  0.00    +0.000 C 
BRANCH  30  31
ATOM     31  C   UNL     1      38.552  29.825  40.811  0.00  0.00    +0.000 C 
ATOM     32  H   UNL     1      37.828  29.168  41.299  0.00  0.00    +0.000 HD
ENDBRANCH  30  31
ENDBRANCH  29  30
ENDBRANCH  26  29
ENDBRANCH  25  26
ENDBRANCH   6  24
TORSDOF 8
