
 OpenBabel03272510033D

 28 29  0  0  0  0  0  0  0  0999 V2000
   36.7680   30.7150   45.4780 C   0  0  0  0  0  0  0  0  0  0  0  0
   36.2180   30.4610   46.6980 C   0  0  0  0  0  0  0  0  0  0  0  0
   34.9460   29.9420   46.7830 C   0  0  0  0  0  0  0  0  0  0  0  0
   34.1760   29.6630   45.6770 C   0  0  0  0  0  0  0  0  0  0  0  0
   34.6760   29.9070   44.4280 C   0  0  0  0  0  0  0  0  0  0  0  0
   35.9410   30.4200   44.3700 C   0  0  0  0  0  0  0  0  0  0  0  0
   34.5580   29.7530   47.7990 H   0  0  0  0  0  0  0  0  0  0  0  0
   33.2280   29.2670   45.8730 H   0  0  0  0  0  0  0  0  0  0  0  0
   34.1100   29.7090   43.5510 H   0  0  0  0  0  0  0  0  0  0  0  0
   36.3750   30.6290   43.3790 H   0  0  0  0  0  0  0  0  0  0  0  0
   38.4110   32.2050   49.1000 C   0  0  0  0  0  0  0  0  0  0  0  0
   37.6880   31.9130   47.9440 C   0  0  0  0  0  0  0  0  0  0  0  0
   36.9410   30.7870   47.8970 C   0  0  0  0  0  0  0  0  0  0  0  0
   36.9200   29.9900   49.0100 N   0  0  0  0  0  0  0  0  0  0  0  0
   37.6100   30.2830   50.1240 C   0  0  0  0  0  0  0  0  0  0  0  0
   38.3550   31.3870   50.1520 N   0  0  0  0  0  0  0  0  0  0  0  0
   39.0700   33.0450   49.3300 H   0  0  0  0  0  0  0  0  0  0  0  0
   37.8300   32.7700   47.3260 H   0  0  0  0  0  0  0  0  0  0  0  0
   37.3680   29.4210   51.3010 C   0  0  0  0  0  0  0  0  0  0  0  0
   37.6520   30.0670   52.4860 F   0  0  0  0  0  0  0  0  0  0  0  0
   35.9710   29.0990   51.4200 F   0  0  0  0  0  0  0  0  0  0  0  0
   37.9580   28.2280   51.2710 F   0  0  0  0  0  0  0  0  0  0  0  0
   38.3580   31.3320   45.2220 S   0  0  0  0  0  0  0  0  0  0  0  0
   38.2760   32.7910   44.7670 O   0  0  0  0  0  0  0  0  0  0  0  0
   38.6630   30.7040   43.9070 O   0  0  0  0  0  0  0  0  0  0  0  0
   39.8750   30.6900   45.6370 C   0  0  0  0  0  0  0  0  0  0  0  0
   41.0450   31.6960   45.3310 C   0  0  0  0  0  0  0  0  0  0  0  0
   40.8630   32.0070   44.2660 H   0  0  0  0  0  0  0  0  0  0  0  0
  1  2  1  0  0  0  0
  2  3  2  0  0  0  0
  2 13  1  0  0  0  0
  3  7  1  0  0  0  0
  4  8  1  0  0  0  0
  4  3  1  0  0  0  0
  5  4  2  0  0  0  0
  6  5  1  0  0  0  0
  6  1  2  0  0  0  0
  9  5  1  0  0  0  0
 10  6  1  0  0  0  0
 11 17  1  0  0  0  0
 11 16  1  0  0  0  0
 12 11  2  0  0  0  0
 13 12  1  0  0  0  0
 13 14  2  0  0  0  0
 14 15  1  0  0  0  0
 15 16  2  0  0  0  0
 15 19  1  0  0  0  0
 18 12  1  0  0  0  0
 19 21  1  0  0  0  0
 19 20  1  0  0  0  0
 22 19  1  0  0  0  0
 23  1  1  0  0  0  0
 23 26  1  0  0  0  0
 24 23  2  0  0  0  0
 25 23  2  0  0  0  0
 27 26  1  0  0  0  0
 28 27  1  0  0  0  0
M  END
>  <minimizedAffinity>
-6.01020479

>  <minimizedRMSD>
2.01552057

$$$$
