
     RDKit          3D

 38 39  0  0  0  0  0  0  0  0999 V2000
   37.0800   30.9486   49.0297 C   0  0  0  0  0  0  0  0  0  0  0  0
   36.8115   31.8793   50.0357 C   0  0  0  0  0  0  0  0  0  0  0  0
   37.4251   33.1220   50.0630 C   0  0  0  0  0  0  0  0  0  0  0  0
   38.3371   33.4615   49.0620 C   0  0  0  0  0  0  0  0  0  0  0  0
   38.5891   32.5417   48.0863 C   0  0  0  0  0  0  0  0  0  0  0  0
   37.9593   31.3061   48.0870 C   0  0  0  0  0  0  0  0  0  0  0  0
   36.4657   29.6389   49.0171 C   0  0  1  0  0  0  0  0  0  0  0  0
   36.8639   28.8977   49.9902 O   0  0  0  0  0  0  0  0  0  0  0  0
   33.6139   30.1473   46.8229 C   0  0  0  0  0  0  0  0  0  0  0  0
   32.9547   28.9329   46.8437 C   0  0  0  0  0  0  0  0  0  0  0  0
   33.4488   27.9383   47.6660 C   0  0  0  0  0  0  0  0  0  0  0  0
   34.5697   28.1873   48.4274 N   0  0  0  0  0  0  0  0  0  0  0  0
   35.1553   29.3652   48.3620 C   0  0  0  0  0  0  0  0  0  0  0  0
   34.6846   30.3515   47.5653 N   0  0  0  0  0  0  0  0  0  0  0  0
   38.3426   30.4207   47.0114 C   0  0  0  0  0  0  0  0  0  0  0  0
   38.8246   30.8381   45.8358 C   0  0  0  0  0  0  0  0  0  0  0  0
   39.2857   30.0217   44.6886 C   0  0  0  0  0  0  0  0  0  0  0  0
   39.1815   30.9871   43.1798 S   0  0  0  0  0  0  0  0  0  0  0  0
   36.1075   31.6266   50.8140 H   0  0  0  0  0  0  0  0  0  0  0  0
   37.1674   33.7790   50.8662 H   0  0  0  0  0  0  0  0  0  0  0  0
   38.7588   34.4380   49.1645 H   0  0  0  0  0  0  0  0  0  0  0  0
   39.3202   32.9469   47.3795 H   0  0  0  0  0  0  0  0  0  0  0  0
   37.0044   29.0588   48.1726 H   0  0  0  0  0  0  0  0  0  0  0  0
   37.0110   29.2500   50.9006 H   0  0  0  0  0  0  0  0  0  0  0  0
   33.2478   30.9439   46.1890 H   0  0  0  0  0  0  0  0  0  0  0  0
   32.0841   28.8031   46.2228 H   0  0  0  0  0  0  0  0  0  0  0  0
   32.9492   26.9699   47.7044 H   0  0  0  0  0  0  0  0  0  0  0  0
   38.3548   29.3299   46.8924 H   0  0  0  0  0  0  0  0  0  0  0  0
   38.9282   31.9333   45.6900 H   0  0  0  0  0  0  0  0  0  0  0  0
   38.5986   29.1331   44.6046 H   0  0  0  0  0  0  0  0  0  0  0  0
   40.2890   29.5736   44.8365 H   0  0  0  0  0  0  0  0  0  0  0  0
   39.7154   30.1019   41.7124 C   0  0  0  0  0  0  0  0  0  0  0  0
   38.5409   29.5098   40.9969 C   0  0  0  0  0  0  0  0  0  0  0  0
   38.0392   28.7649   41.6192 H   0  0  0  0  0  0  0  0  0  0  0  0
   40.1503   30.8790   41.0272 H   0  0  0  0  0  0  0  0  0  0  0  0
   40.5245   29.3733   41.9017 H   0  0  0  0  0  0  0  0  0  0  0  0
   38.8773   29.0600   40.0352 H   0  0  0  0  0  0  0  0  0  0  0  0
   37.8429   30.3600   40.7666 H   0  0  0  0  0  0  0  0  0  0  0  0
  1  7  1  0
  1  2  2  0
  2  3  1  0
  4  3  2  0
  5  6  2  0
  5  4  1  0
  6  1  1  0
  7  8  1  0
  9 10  2  0
  9 14  1  0
 10 11  1  0
 11 12  2  0
 13 12  1  0
 13  7  1  0
 14 13  2  0
 15  6  1  0
 16 15  2  0
 17 16  1  0
 18 17  1  0
  2 19  1  0
  3 20  1  0
  4 21  1  0
  5 22  1  0
  7 23  1  6
  8 24  1  0
  9 25  1  0
 10 26  1  0
 11 27  1  0
 15 28  1  0
 16 29  1  0
 17 30  1  0
 17 31  1  0
 32 33  1  0
 33 34  1  0
 32 35  1  0
 32 36  1  0
 33 37  1  0
 33 38  1  0
 18 32  1  0
M  ISO  8  19  14  20  14  21  14  22  14  23   8  24   3  25  14  26  14
M  ISO  4  27  14  30   8  31   8  34   8
M  END
>  <DihAtoms>  (1) 
16,17,31,32

>  <DihDeg>  (1) 
66.17004263132394

$$$$
