
 OpenBabel03272509263D

 19 19  0  0  0  0  0  0  0  0999 V2000
   37.6570   30.5200   47.7540 C   0  0  0  0  0  0  0  0  0  0  0  0
   36.8990   30.9910   47.1020 H   0  0  0  0  0  0  0  0  0  0  0  0
   38.1490   29.6290   47.3110 H   0  0  0  0  0  0  0  0  0  0  0  0
   37.0450   29.4040   51.2970 C   0  0  0  0  0  0  0  0  0  0  0  0
   37.7380   29.8020   50.1570 C   0  0  0  0  0  0  0  0  0  0  0  0
   37.0280   30.0960   49.0210 C   0  0  0  0  0  0  0  0  0  0  0  0
   35.6670   29.9870   49.0560 N   0  0  0  0  0  0  0  0  0  0  0  0
   35.0080   29.5980   50.1770 C   0  0  0  0  0  0  0  0  0  0  0  0
   35.7050   29.3040   51.3040 N   0  0  0  0  0  0  0  0  0  0  0  0
   37.6230   29.1720   52.1770 H   0  0  0  0  0  0  0  0  0  0  0  0
   38.8140   29.8770   50.1710 H   0  0  0  0  0  0  0  0  0  0  0  0
   33.9310   29.5080   50.2210 H   0  0  0  0  0  0  0  0  0  0  0  0
   38.7530   31.5410   48.0060 C   0  0  0  0  0  0  0  0  0  0  0  0
   38.9880   31.9410   46.9690 H   0  0  0  0  0  0  0  0  0  0  0  0
   39.6940   31.1200   48.3400 H   0  0  0  0  0  0  0  0  0  0  0  0
   38.1200   32.9340   48.9390 S   0  0  0  0  0  0  0  0  0  0  0  0
   39.3830   34.1410   49.3270 C   0  0  0  0  0  0  0  0  0  0  0  0
   40.2250   34.5510   48.1400 C   0  0  0  0  0  0  0  0  0  0  0  0
   41.3030   34.2320   48.2580 H   0  0  0  0  0  0  0  0  0  0  0  0
  1 13  1  0  0  0  0
  1  6  1  0  0  0  0
  2  1  1  0  0  0  0
  3  1  1  0  0  0  0
  4  9  1  0  0  0  0
  4 10  1  0  0  0  0
  5 11  1  0  0  0  0
  5  4  2  0  0  0  0
  6  7  2  0  0  0  0
  6  5  1  0  0  0  0
  7  8  1  0  0  0  0
  8 12  1  0  0  0  0
  8  9  2  0  0  0  0
 13 15  1  0  0  0  0
 13 16  1  0  0  0  0
 14 13  1  0  0  0  0
 16 17  1  0  0  0  0
 18 19  1  0  0  0  0
 18 17  1  0  0  0  0
M  END
>  <minimizedAffinity>
-3.60082507

>  <minimizedRMSD>
0.45132032

$$$$
