
 OpenBabel03272510113D

 29 31  0  0  0  0  0  0  0  0999 V2000
   33.4900   28.7050   48.0160 C   0  0  0  0  0  0  0  0  0  0  0  0
   33.9600   28.2180   49.1930 C   0  0  0  0  0  0  0  0  0  0  0  0
   35.1950   28.5060   49.7290 C   0  0  0  0  0  0  0  0  0  0  0  0
   36.0460   29.3390   49.0670 C   0  0  0  0  0  0  0  0  0  0  0  0
   35.5740   29.8500   47.8500 C   0  0  0  0  0  0  0  0  0  0  0  0
   34.3570   29.5380   47.3650 N   0  0  0  0  0  0  0  0  0  0  0  0
   33.3490   27.5480   49.7840 H   0  0  0  0  0  0  0  0  0  0  0  0
   35.5610   28.1130   50.6670 H   0  0  0  0  0  0  0  0  0  0  0  0
   36.1530   30.5210   47.2310 H   0  0  0  0  0  0  0  0  0  0  0  0
   31.2710   27.5770   48.0810 C   0  0  0  0  0  0  0  0  0  0  0  0
   32.2110   28.4050   47.4510 C   0  0  0  0  0  0  0  0  0  0  0  0
   31.8580   28.9240   46.2350 C   0  0  0  0  0  0  0  0  0  0  0  0
   30.6360   28.6260   45.6950 N   0  0  0  0  0  0  0  0  0  0  0  0
   29.7610   27.8130   46.3550 C   0  0  0  0  0  0  0  0  0  0  0  0
   30.0680   27.2780   47.5590 N   0  0  0  0  0  0  0  0  0  0  0  0
   31.5000   27.1410   49.0450 H   0  0  0  0  0  0  0  0  0  0  0  0
   32.5370   29.5670   45.7020 H   0  0  0  0  0  0  0  0  0  0  0  0
   28.8310   27.6690   45.7980 H   0  0  0  0  0  0  0  0  0  0  0  0
   37.3210   29.7400   49.4520 O   0  0  0  0  0  0  0  0  0  0  0  0
   37.8840   30.9240   49.0120 C   0  0  0  0  0  0  0  0  0  0  0  0
   37.5130   32.0390   49.7630 C   0  0  0  0  0  0  0  0  0  0  0  0
   38.1530   33.1420   49.2020 C   0  0  0  0  0  0  0  0  0  0  0  0
   38.8680   32.6820   48.1650 N   0  0  0  0  0  0  0  0  0  0  0  0
   38.7090   31.3860   48.0560 N   0  0  0  0  0  0  0  0  0  0  0  0
   36.8770   32.2230   50.6320 H   0  0  0  0  0  0  0  0  0  0  0  0
   38.1240   34.1900   49.4960 H   0  0  0  0  0  0  0  0  0  0  0  0
   39.6930   33.4960   47.2950 C   0  0  0  0  0  2  0  0  0  0  0  0
   40.2340   34.6360   48.1280 C   0  0  0  0  0  2  0  0  0  0  0  0
   39.6650   35.5510   47.9130 H   0  0  0  0  0  0  0  0  0  0  0  0
  1  2  1  0  0  0  0
  2  3  2  0  0  0  0
  2  7  1  0  0  0  0
  3  8  1  0  0  0  0
  4 19  1  0  0  0  0
  4  3  1  0  0  0  0
  5  4  2  0  0  0  0
  6  5  1  0  0  0  0
  6  1  2  0  0  0  0
  9  5  1  0  0  0  0
 10 16  1  0  0  0  0
 11  1  1  0  0  0  0
 11 10  2  0  0  0  0
 12 11  1  0  0  0  0
 13 12  2  0  0  0  0
 13 14  1  0  0  0  0
 14 15  2  0  0  0  0
 15 10  1  0  0  0  0
 17 12  1  0  0  0  0
 18 14  1  0  0  0  0
 20 19  1  0  0  0  0
 20 21  1  0  0  0  0
 21 25  1  0  0  0  0
 22 26  1  0  0  0  0
 22 21  2  0  0  0  0
 23 22  1  0  0  0  0
 24 23  1  0  0  0  0
 24 20  2  0  0  0  0
 27 28  1  0  0  0  0
 27 23  1  0  0  0  0
 29 28  1  0  0  0  0
M  END
>  <minimizedAffinity>
-4.80198097

>  <minimizedRMSD>
0.627389967

$$$$
