REMARK  Name = 
REMARK  3 active torsions:
REMARK  status: ('A' for Active; 'I' for Inactive)
REMARK    1  A    between atoms: C_1  and  O_10
REMARK    2  A    between atoms: O_10  and  C_15
REMARK    3  A    between atoms: C_15  and  C_16
REMARK                            x       y       z     vdW  Elec       q    Type
REMARK                         _______ _______ _______ _____ _____    ______ ____
ROOT
ATOM      1  C   UNL     1      37.387  30.128  51.099  0.00  0.00    +0.000 A 
ATOM      2  C   UNL     1      38.213  30.883  50.259  0.00  0.00    +0.000 A 
ATOM      3  C   UNL     1      37.688  31.436  49.089  0.00  0.00    +0.000 A 
ATOM      4  N   UNL     1      36.361  31.204  48.823  0.00  0.00    +0.000 NA
ATOM      5  C   UNL     1      35.593  30.470  49.659  0.00  0.00    +0.000 A 
ATOM      6  N   UNL     1      36.098  29.941  50.779  0.00  0.00    +0.000 NA
ATOM      7  C   UNL     1      33.917  28.840  49.201  0.00  0.00    +0.000 C 
ATOM      8  O   UNL     1      34.697  27.833  49.316  0.00  0.00    +0.000 OA
ATOM      9  N   UNL     1      34.208  30.250  49.343  0.00  0.00    +0.000 N 
ATOM     10  H   UNL     1      39.240  31.107  50.391  0.00  0.00    +0.000 HD
ATOM     11  H   UNL     1      38.273  32.031  48.394  0.00  0.00    +0.000 HD
ATOM     12  H   UNL     1      32.877  28.571  48.957  0.00  0.00    +0.000 HD
ATOM     13  H   UNL     1      33.426  30.920  49.209  0.00  0.00    +0.000 HD
ENDROOT
BRANCH   1  14
ATOM     14  O   UNL     1      38.067  29.663  52.199  0.00  0.00    +0.000 OA
BRANCH  14  15
ATOM     15  C   UNL     1      37.376  28.888  53.140  0.00  0.00    +0.000 C 
BRANCH  15  16
ATOM     16  C   UNL     1      37.391  29.535  54.508  0.00  0.00    +0.000 C 
ATOM     17  H   UNL     1      36.952  28.810  55.220  0.00  0.00    +0.000 HD
ENDBRANCH  15  16
ENDBRANCH  14  15
ENDBRANCH   1  14
TORSDOF 3
