
 OpenBabel03272510103D

 22 23  0  0  0  0  0  0  0  0999 V2000
   35.0340   29.5030   48.0860 C   0  0  0  0  0  0  0  0  0  0  0  0
   35.8000   29.3360   49.2190 C   0  0  0  0  0  0  0  0  0  0  0  0
   37.0490   29.9280   49.3500 C   0  0  0  0  0  0  0  0  0  0  0  0
   37.5770   30.7030   48.3630 C   0  0  0  0  0  0  0  0  0  0  0  0
   36.7790   30.8430   47.2480 C   0  0  0  0  0  0  0  0  0  0  0  0
   35.5680   30.2730   47.1160 N   0  0  0  0  0  0  0  0  0  0  0  0
   35.4290   28.7300   50.0360 H   0  0  0  0  0  0  0  0  0  0  0  0
   37.6510   29.7870   50.2580 H   0  0  0  0  0  0  0  0  0  0  0  0
   37.0740   31.4320   46.3900 H   0  0  0  0  0  0  0  0  0  0  0  0
   33.1410   28.0340   48.8730 C   0  0  0  0  0  0  0  0  0  0  0  0
   33.7280   28.8980   47.9200 C   0  0  0  0  0  0  0  0  0  0  0  0
   33.0040   29.1660   46.7780 C   0  0  0  0  0  0  0  0  0  0  0  0
   31.7750   28.6050   46.6080 N   0  0  0  0  0  0  0  0  0  0  0  0
   31.2470   27.7810   47.5480 C   0  0  0  0  0  0  0  0  0  0  0  0
   31.9250   27.5010   48.6680 N   0  0  0  0  0  0  0  0  0  0  0  0
   33.7650   27.8690   49.7430 H   0  0  0  0  0  0  0  0  0  0  0  0
   33.3500   29.8170   45.9700 H   0  0  0  0  0  0  0  0  0  0  0  0
   30.2710   27.3270   47.4280 H   0  0  0  0  0  0  0  0  0  0  0  0
   38.8080   31.3370   48.3910 O   0  0  0  0  0  0  0  0  0  0  0  0
   38.9420   32.6920   48.0470 C   0  0  0  0  0  2  0  0  0  0  0  0
   38.7790   33.5100   49.3060 C   0  0  0  0  0  2  0  0  0  0  0  0
   38.1080   32.9420   49.9990 H   0  0  0  0  0  0  0  0  0  0  0  0
  1  2  1  0  0  0  0
  2  3  2  0  0  0  0
  2  7  1  0  0  0  0
  3  8  1  0  0  0  0
  4 19  1  0  0  0  0
  4  3  1  0  0  0  0
  5  4  2  0  0  0  0
  6  5  1  0  0  0  0
  6  1  2  0  0  0  0
  9  5  1  0  0  0  0
 10 16  1  0  0  0  0
 11  1  1  0  0  0  0
 11 10  2  0  0  0  0
 12 11  1  0  0  0  0
 13 12  2  0  0  0  0
 13 14  1  0  0  0  0
 14 15  2  0  0  0  0
 15 10  1  0  0  0  0
 17 12  1  0  0  0  0
 18 14  1  0  0  0  0
 20 19  1  0  0  0  0
 20 21  1  0  0  0  0
 21 22  1  0  0  0  0
M  END
>  <minimizedAffinity>
-4.44092607

>  <minimizedRMSD>
3.91032577

$$$$
