REMARK  Name = 
REMARK  4 active torsions:
REMARK  status: ('A' for Active; 'I' for Inactive)
REMARK    1  A    between atoms: C_1  and  C_8
REMARK    2  A    between atoms: C_4  and  O_13
REMARK    3  A    between atoms: O_13  and  C_20
REMARK    4  A    between atoms: C_20  and  C_21
REMARK                            x       y       z     vdW  Elec       q    Type
REMARK                         _______ _______ _______ _____ _____    ______ ____
ROOT
ATOM      1  C   UNL     1      37.563  31.664  48.933  0.00  0.00    +0.000 A 
ATOM      2  C   UNL     1      38.182  32.746  49.519  0.00  0.00    +0.000 A 
ATOM      3  C   UNL     1      39.058  33.558  48.811  0.00  0.00    +0.000 A 
ATOM      4  C   UNL     1      39.347  33.322  47.501  0.00  0.00    +0.000 A 
ATOM      5  C   UNL     1      38.707  32.231  46.955  0.00  0.00    +0.000 A 
ATOM      6  N   UNL     1      37.857  31.441  47.636  0.00  0.00    +0.000 NA
ATOM      7  H   UNL     1      37.989  32.980  50.558  0.00  0.00    +0.000 HD
ATOM      8  H   UNL     1      39.546  34.418  49.289  0.00  0.00    +0.000 HD
ATOM      9  H   UNL     1      38.844  31.929  45.925  0.00  0.00    +0.000 HD
ENDROOT
BRANCH   1  11
ATOM     10  C   UNL     1      36.962  30.162  50.868  0.00  0.00    +0.000 A 
ATOM     11  C   UNL     1      36.645  30.798  49.646  0.00  0.00    +0.000 A 
ATOM     12  C   UNL     1      35.392  30.570  49.120  0.00  0.00    +0.000 A 
ATOM     13  N   UNL     1      34.518  29.759  49.778  0.00  0.00    +0.000 NA
ATOM     14  C   UNL     1      34.862  29.168  50.950  0.00  0.00    +0.000 A 
ATOM     15  N   UNL     1      36.072  29.369  51.487  0.00  0.00    +0.000 NA
ATOM     16  H   UNL     1      37.962  30.386  51.221  0.00  0.00    +0.000 HD
ATOM     17  H   UNL     1      35.030  31.004  48.183  0.00  0.00    +0.000 HD
ATOM     18  H   UNL     1      34.179  28.520  51.487  0.00  0.00    +0.000 HD
ENDBRANCH   1  11
BRANCH   4  19
ATOM     19  O   UNL     1      40.203  34.066  46.706  0.00  0.00    +0.000 OA
BRANCH  19  20
ATOM     20  C   UNL     1      40.881  35.188  47.211  0.00  0.00    +0.000 C 
BRANCH  20  21
ATOM     21  C   UNL     1      40.008  36.399  46.983  0.00  0.00    +0.000 C 
ATOM     22  H   UNL     1      39.384  36.207  46.075  0.00  0.00    +0.000 HD
ENDBRANCH  20  21
ENDBRANCH  19  20
ENDBRANCH   4  19
TORSDOF 4
