REMARK  Name = 
REMARK  4 active torsions:
REMARK  status: ('A' for Active; 'I' for Inactive)
REMARK    1  A    between atoms: C_1  and  O_10
REMARK    2  A    between atoms: C_2  and  N_9
REMARK    3  A    between atoms: O_10  and  C_15
REMARK    4  A    between atoms: C_15  and  C_16
REMARK                            x       y       z     vdW  Elec       q    Type
REMARK                         _______ _______ _______ _____ _____    ______ ____
ROOT
ATOM      1  C   UNL     1      36.791  29.682  51.134  0.00  0.00    +0.000 A 
ATOM      2  C   UNL     1      37.308  30.060  49.888  0.00  0.00    +0.000 A 
ATOM      3  C   UNL     1      36.551  29.852  48.734  0.00  0.00    +0.000 A 
ATOM      4  N   UNL     1      35.318  29.277  48.895  0.00  0.00    +0.000 NA
ATOM      5  C   UNL     1      34.843  28.923  50.099  0.00  0.00    +0.000 A 
ATOM      6  N   UNL     1      35.558  29.118  51.199  0.00  0.00    +0.000 NA
ATOM      7  H   UNL     1      36.905  30.127  47.748  0.00  0.00    +0.000 HD
ATOM      8  H   UNL     1      33.870  28.468  50.236  0.00  0.00    +0.000 HD
ENDROOT
BRANCH   2  11
ATOM      9  C   UNL     1      38.629  32.064  49.505  0.00  0.00    +0.000 C 
ATOM     10  O   UNL     1      37.785  33.042  49.457  0.00  0.00    +0.000 OA
ATOM     11  N   UNL     1      38.554  30.648  49.672  0.00  0.00    +0.000 N 
ATOM     12  H   UNL     1      39.477  32.727  49.364  0.00  0.00    +0.000 HD
ATOM     13  H   UNL     1      39.530  30.287  49.596  0.00  0.00    +0.000 HD
ENDBRANCH   2  11
BRANCH   1  14
ATOM     14  O   UNL     1      37.656  29.953  52.161  0.00  0.00    +0.000 OA
BRANCH  14  15
ATOM     15  C   UNL     1      37.279  29.629  53.484  0.00  0.00    +0.000 C 
BRANCH  15  16
ATOM     16  C   UNL     1      35.856  30.078  53.714  0.00  0.00    +0.000 C 
ATOM     17  H   UNL     1      35.267  29.322  54.294  0.00  0.00    +0.000 HD
ENDBRANCH  15  16
ENDBRANCH  14  15
ENDBRANCH   1  14
TORSDOF 4
