
 OpenBabel03272510103D

 22 23  0  0  0  0  0  0  0  0999 V2000
   35.0060   29.8360   48.4410 C   0  0  0  0  0  0  0  0  0  0  0  0
   35.3600   30.1340   49.7380 C   0  0  0  0  0  0  0  0  0  0  0  0
   36.5230   30.8320   50.0360 C   0  0  0  0  0  0  0  0  0  0  0  0
   37.3700   31.2560   49.0560 C   0  0  0  0  0  0  0  0  0  0  0  0
   36.9770   30.9370   47.7750 C   0  0  0  0  0  0  0  0  0  0  0  0
   35.8520   30.2610   47.4810 N   0  0  0  0  0  0  0  0  0  0  0  0
   34.7240   29.8220   50.5560 H   0  0  0  0  0  0  0  0  0  0  0  0
   36.7960   31.0640   51.0740 H   0  0  0  0  0  0  0  0  0  0  0  0
   37.5550   31.2120   46.9020 H   0  0  0  0  0  0  0  0  0  0  0  0
   33.1850   28.1690   48.9590 C   0  0  0  0  0  0  0  0  0  0  0  0
   33.8000   29.1090   48.1000 C   0  0  0  0  0  0  0  0  0  0  0  0
   33.2060   29.3300   46.8760 C   0  0  0  0  0  0  0  0  0  0  0  0
   32.0720   28.6550   46.5410 N   0  0  0  0  0  0  0  0  0  0  0  0
   31.5140   27.7610   47.3960 C   0  0  0  0  0  0  0  0  0  0  0  0
   32.0670   27.5230   48.5920 N   0  0  0  0  0  0  0  0  0  0  0  0
   33.7060   28.0460   49.9010 H   0  0  0  0  0  0  0  0  0  0  0  0
   33.5860   30.0310   46.1260 H   0  0  0  0  0  0  0  0  0  0  0  0
   30.6120   27.2150   47.1450 H   0  0  0  0  0  0  0  0  0  0  0  0
   38.5500   31.9560   49.2430 O   0  0  0  0  0  0  0  0  0  0  0  0
   38.8970   33.0390   48.4180 C   0  0  0  0  0  2  0  0  0  0  0  0
   39.4110   34.1490   49.3030 C   0  0  0  0  0  2  0  0  0  0  0  0
   38.9090   34.0550   50.2980 H   0  0  0  0  0  0  0  0  0  0  0  0
  1  2  1  0  0  0  0
  2  3  2  0  0  0  0
  2  7  1  0  0  0  0
  3  8  1  0  0  0  0
  4 19  1  0  0  0  0
  4  3  1  0  0  0  0
  5  4  2  0  0  0  0
  6  5  1  0  0  0  0
  6  1  2  0  0  0  0
  9  5  1  0  0  0  0
 10 16  1  0  0  0  0
 11  1  1  0  0  0  0
 11 10  2  0  0  0  0
 12 11  1  0  0  0  0
 13 12  2  0  0  0  0
 13 14  1  0  0  0  0
 14 15  2  0  0  0  0
 15 10  1  0  0  0  0
 17 12  1  0  0  0  0
 18 14  1  0  0  0  0
 20 19  1  0  0  0  0
 20 21  1  0  0  0  0
 21 22  1  0  0  0  0
M  END
>  <minimizedAffinity>
-4.55587673

>  <minimizedRMSD>
3.7408309

$$$$
