
 OpenBabel03272503403D

 35 37  0  0  1  0  0  0  0  0999 V2000
   38.5500   31.0590   45.9930 C   0  0  0  0  0  0  0  0  0  0  0  0
   39.8240   31.3510   46.3850 C   0  0  0  0  0  0  0  0  0  0  0  0
   40.5250   31.5210   45.1870 C   0  0  0  0  0  0  0  0  0  0  0  0
   39.6990   31.3380   44.1540 N   0  0  0  0  0  0  0  0  0  0  0  0
   38.4810   31.0530   44.6390 N   0  0  0  0  0  0  0  0  0  0  0  0
   40.2240   31.4370   47.3700 H   0  0  0  0  0  0  0  0  0  0  0  0
   41.5950   31.7690   45.1500 H   0  0  0  0  0  0  0  0  0  0  0  0
   40.7800   30.1420   42.3110 C   0  0  2  0  0  0  0  0  0  0  0  0
   40.0970   31.4400   42.7760 C   0  0  1  0  0  0  0  0  0  0  0  0
   38.9540   31.4630   41.8130 C   0  0  0  0  0  0  0  0  0  0  0  0
   39.4000   30.9500   40.6230 O   0  0  0  0  0  0  0  0  0  0  0  0
   40.6300   30.3710   40.8050 C   0  0  0  0  0  0  0  0  0  0  0  0
   41.8180   30.0970   42.6200 H   0  0  0  0  0  0  0  0  0  0  0  0
   40.7370   32.3190   42.6200 H   0  0  0  0  0  0  0  0  0  0  0  0
   38.5270   32.4770   41.6480 H   0  0  0  0  0  0  0  0  0  0  0  0
   38.1420   30.7950   42.1750 H   0  0  0  0  0  0  0  0  0  0  0  0
   40.7930   29.4530   40.2210 H   0  0  0  0  0  0  0  0  0  0  0  0
   41.3960   31.1450   40.5630 H   0  0  0  0  0  0  0  0  0  0  0  0
   39.9600   29.1140   42.7080 O   0  0  0  0  0  0  0  0  0  0  0  0
   40.2380   27.8900   42.1420 C   0  0  0  0  0  0  0  0  0  0  0  0
   39.3820   26.8230   42.7800 C   0  0  0  0  0  0  0  0  0  0  0  0
   38.3270   26.9250   42.5080 H   0  0  0  0  0  0  0  0  0  0  0  0
   36.4420   30.6310   49.0570 C   0  0  0  0  0  0  0  0  0  0  0  0
   37.5330   30.8930   48.2590 C   0  0  0  0  0  0  0  0  0  0  0  0
   37.4330   30.7940   46.8840 C   0  0  0  0  0  0  0  0  0  0  0  0
   36.2390   30.4340   46.3710 N   0  0  0  0  0  0  0  0  0  0  0  0
   35.1650   30.1770   47.1750 C   0  0  0  0  0  0  0  0  0  0  0  0
   35.2630   30.2730   48.4970 N   0  0  0  0  0  0  0  0  0  0  0  0
   38.5130   31.1850   48.6230 H   0  0  0  0  0  0  0  0  0  0  0  0
   34.2420   29.8950   46.6950 H   0  0  0  0  0  0  0  0  0  0  0  0
   36.7060   30.7760   50.4170 O   0  0  0  0  0  0  0  0  0  0  0  0
   36.7740   29.6950   51.3160 C   0  0  0  0  0  0  0  0  0  0  0  0
   35.5190   29.1950   51.6270 F   0  0  0  0  0  0  0  0  0  0  0  0
   37.4480   30.0960   52.4380 F   0  0  0  0  0  0  0  0  0  0  0  0
   37.5260   28.6870   50.7150 F   0  0  0  0  0  0  0  0  0  0  0  0
  1  2  1  0  0  0  0
  1 25  1  0  0  0  0
  2  6  1  0  0  0  0
  3  2  2  0  0  0  0
  4  5  1  0  0  0  0
  4  3  1  0  0  0  0
  5  1  2  0  0  0  0
  7  3  1  0  0  0  0
  8 13  1  1  0  0  0
  8 19  1  0  0  0  0
  8  9  1  0  0  0  0
  9 14  1  6  0  0  0
  9  4  1  0  0  0  0
 10 16  1  0  0  0  0
 10  9  1  0  0  0  0
 11 12  1  0  0  0  0
 11 10  1  0  0  0  0
 12  8  1  0  0  0  0
 15 10  1  0  0  0  0
 17 12  1  0  0  0  0
 18 12  1  0  0  0  0
 20 19  1  0  0  0  0
 20 21  1  0  0  0  0
 22 21  1  0  0  0  0
 23 31  1  0  0  0  0
 24 29  1  0  0  0  0
 24 23  2  0  0  0  0
 25 24  1  0  0  0  0
 26 25  2  0  0  0  0
 26 27  1  0  0  0  0
 27 28  2  0  0  0  0
 28 23  1  0  0  0  0
 30 27  1  0  0  0  0
 31 32  1  0  0  0  0
 32 33  1  0  0  0  0
 32 34  1  0  0  0  0
 35 32  1  0  0  0  0
M  END
>  <minimizedAffinity>
-6.03628683

>  <minimizedRMSD>
0.880800784

$$$$
