
 OpenBabel03272506353D

 17 17  0  0  0  0  0  0  0  0999 V2000
   37.3460   30.3470   48.4140 C   0  0  0  0  0  0  0  0  0  0  0  0
   38.2330   30.5860   47.3590 C   0  0  0  0  0  0  0  0  0  0  0  0
   37.7380   30.7360   46.0610 C   0  0  0  0  0  0  0  0  0  0  0  0
   36.3790   30.6390   45.8910 N   0  0  0  0  0  0  0  0  0  0  0  0
   35.5530   30.4080   46.9360 C   0  0  0  0  0  0  0  0  0  0  0  0
   36.0290   30.2640   48.1770 N   0  0  0  0  0  0  0  0  0  0  0  0
   33.6250   29.0190   47.1150 C   0  0  0  0  0  0  0  0  0  0  0  0
   34.2460   28.0170   47.6110 O   0  0  0  0  0  0  0  0  0  0  0  0
   34.1350   30.3120   46.7140 N   0  0  0  0  0  0  0  0  0  0  0  0
   39.2880   30.6740   47.4050 H   0  0  0  0  0  0  0  0  0  0  0  0
   38.3700   30.9230   45.1980 H   0  0  0  0  0  0  0  0  0  0  0  0
   32.5440   28.8500   46.9810 H   0  0  0  0  0  0  0  0  0  0  0  0
   33.4590   30.9990   46.3280 H   0  0  0  0  0  0  0  0  0  0  0  0
   38.0040   30.2260   49.6150 O   0  0  0  0  0  0  0  0  0  0  0  0
   37.5150   29.3170   50.5620 C   0  0  0  0  0  2  0  0  0  0  0  0
   37.3180   29.9750   51.9110 C   0  0  0  0  0  2  0  0  0  0  0  0
   37.0650   29.1750   52.6340 H   0  0  0  0  0  0  0  0  0  0  0  0
  1 14  1  0  0  0  0
  2 10  1  0  0  0  0
  2  1  2  0  0  0  0
  3  2  1  0  0  0  0
  4  3  2  0  0  0  0
  4  5  1  0  0  0  0
  5  6  2  0  0  0  0
  6  1  1  0  0  0  0
  7  8  2  0  0  0  0
  9  5  1  0  0  0  0
  9  7  1  0  0  0  0
 11  3  1  0  0  0  0
 12  7  1  0  0  0  0
 13  9  1  0  0  0  0
 14 15  1  0  0  0  0
 15 16  1  0  0  0  0
 16 17  1  0  0  0  0
M  END
>  <minimizedAffinity>
-3.75746942

>  <minimizedRMSD>
2.64518714

$$$$
