
     RDKit          3D

 21 21  0  0  0  0  0  0  0  0999 V2000
   37.3871   30.1285   51.0987 C   0  0  0  0  0  0  0  0  0  0  0  0
   38.2134   30.8828   50.2586 C   0  0  0  0  0  0  0  0  0  0  0  0
   37.6879   31.4362   49.0889 C   0  0  0  0  0  0  0  0  0  0  0  0
   36.3615   31.2042   48.8232 N   0  0  0  0  0  0  0  0  0  0  0  0
   35.5935   30.4696   49.6592 C   0  0  0  0  0  0  0  0  0  0  0  0
   36.0983   29.9405   50.7786 N   0  0  0  0  0  0  0  0  0  0  0  0
   33.9173   28.8404   49.2006 C   0  0  0  0  0  0  0  0  0  0  0  0
   34.6969   27.8331   49.3155 O   0  0  0  0  0  0  0  0  0  0  0  0
   34.2080   30.2505   49.3430 N   0  0  0  0  0  0  0  0  0  0  0  0
   38.0672   29.6632   52.1986 O   0  0  0  0  0  0  0  0  0  0  0  0
   39.2401   31.1070   50.3910 H   0  0  0  0  0  0  0  0  0  0  0  0
   38.2731   32.0313   48.3936 H   0  0  0  0  0  0  0  0  0  0  0  0
   32.8767   28.5712   48.9574 H   0  0  0  0  0  0  0  0  0  0  0  0
   33.4265   30.9196   49.2089 H   0  0  0  0  0  0  0  0  0  0  0  0
   37.3757   28.8877   53.1396 C   0  0  0  0  0  0  0  0  0  0  0  0
   37.3909   29.5347   54.5080 C   0  0  0  0  0  0  0  0  0  0  0  0
   36.9516   28.8098   55.2197 H   0  0  0  0  0  0  0  0  0  0  0  0
   37.7519   27.8678   53.2519 H   0  0  0  0  0  0  0  0  0  0  0  0
   36.3040   28.8308   52.8465 H   0  0  0  0  0  0  0  0  0  0  0  0
   36.8482   30.4844   54.5693 H   0  0  0  0  0  0  0  0  0  0  0  0
   38.4589   29.6394   54.8274 H   0  0  0  0  0  0  0  0  0  0  0  0
  1 10  1  0
  2  1  2  0
  3  2  1  0
  4  3  2  0
  4  5  1  0
  5  6  2  0
  6  1  1  0
  7  8  2  0
  7  9  1  0
  9  5  1  0
  2 11  1  0
  3 12  1  0
  7 13  1  0
  9 14  1  0
 15 16  1  0
 16 17  1  0
 15 18  1  0
 15 19  1  0
 16 20  1  0
 16 21  1  0
 10 15  1  0
M  ISO  4  11  14  12  14  13   6  17   8
M  END
>  <DihAtoms>  (1) 
0,9,14,15

>  <DihDeg>  (1) 
179.9994603190699

$$$$
