
 OpenBabel03272507153D

 20 21  0  0  1  0  0  0  0  0999 V2000
   36.7830   30.9400   50.6560 C   0  0  1  0  0  0  0  0  0  0  0  0
   36.1080   29.6620   50.7580 C   0  0  2  0  0  0  0  0  0  0  0  0
   37.4440   29.8190   51.4630 C   0  0  0  0  0  0  0  0  0  0  0  0
   36.5890   31.8270   51.2960 H   0  0  0  0  0  0  0  0  0  0  0  0
   35.2100   29.5990   51.3960 H   0  0  0  0  0  0  0  0  0  0  0  0
   38.3240   29.3010   51.0300 H   0  0  0  0  0  0  0  0  0  0  0  0
   37.3930   29.8590   52.5580 H   0  0  0  0  0  0  0  0  0  0  0  0
   37.5770   31.3030   49.4250 C   0  0  0  0  0  0  0  0  0  0  0  0
   38.1810   32.5600   49.4380 C   0  0  0  0  0  0  0  0  0  0  0  0
   38.8920   32.8890   48.2760 C   0  0  0  0  0  0  0  0  0  0  0  0
   38.9620   32.0060   47.2190 N   0  0  0  0  0  0  0  0  0  0  0  0
   38.3450   30.7890   47.2720 C   0  0  0  0  0  0  0  0  0  0  0  0
   37.6470   30.4420   48.3910 N   0  0  0  0  0  0  0  0  0  0  0  0
   38.1140   33.2370   50.2760 H   0  0  0  0  0  0  0  0  0  0  0  0
   39.3910   33.8400   48.2010 H   0  0  0  0  0  0  0  0  0  0  0  0
   38.3760   30.0840   46.4810 H   0  0  0  0  0  0  0  0  0  0  0  0
   36.1310   28.7890   49.6700 O   0  0  0  0  0  0  0  0  0  0  0  0
   34.8990   28.2840   49.3140 C   0  0  0  0  0  0  0  0  0  0  0  0
   34.4070   28.8360   47.9890 C   0  0  0  0  0  0  0  0  0  0  0  0
   35.0600   28.4310   47.1710 H   0  0  0  0  0  0  0  0  0  0  0  0
  1  2  1  0  0  0  0
  1  4  1  1  0  0  0
  1  3  1  0  0  0  0
  2  5  1  1  0  0  0
  2  3  1  0  0  0  0
  3  7  1  0  0  0  0
  6  3  1  0  0  0  0
  8  9  1  0  0  0  0
  8  1  1  0  0  0  0
  9 14  1  0  0  0  0
 10  9  2  0  0  0  0
 11 12  2  0  0  0  0
 11 10  1  0  0  0  0
 12 13  1  0  0  0  0
 13  8  2  0  0  0  0
 15 10  1  0  0  0  0
 16 12  1  0  0  0  0
 17  2  1  0  0  0  0
 18 17  1  0  0  0  0
 19 18  1  0  0  0  0
 20 19  1  0  0  0  0
M  END
>  <minimizedAffinity>
-4.46823597

>  <minimizedRMSD>
0.525203586

$$$$
