
 OpenBabel03272501193D

 24 25  0  0  0  0  0  0  0  0999 V2000
   37.8470   25.3350   33.9450 C   0  0  0  0  0  0  0  0  0  0  0  0
   38.2590   25.5440   35.2500 C   0  0  0  0  0  0  0  0  0  0  0  0
   38.0240   26.8190   35.7400 C   0  0  0  0  0  0  0  0  0  0  0  0
   37.4180   27.8090   34.9650 C   0  0  0  0  0  0  0  0  0  0  0  0
   37.0380   27.4990   33.6580 C   0  0  0  0  0  0  0  0  0  0  0  0
   37.2570   26.2450   33.1440 C   0  0  0  0  0  0  0  0  0  0  0  0
   38.3280   27.0380   36.7590 H   0  0  0  0  0  0  0  0  0  0  0  0
   37.2710   28.7800   35.4220 H   0  0  0  0  0  0  0  0  0  0  0  0
   36.5830   28.3300   33.1570 H   0  0  0  0  0  0  0  0  0  0  0  0
   40.1380   24.0150   35.7090 C   0  0  0  0  0  0  0  0  0  0  0  0
   38.8830   24.5370   36.0600 C   0  0  0  0  0  0  0  0  0  0  0  0
   38.2860   24.0300   37.2190 C   0  0  0  0  0  0  0  0  0  0  0  0
   38.9520   23.0730   37.9280 N   0  0  0  0  0  0  0  0  0  0  0  0
   40.1560   22.6070   37.5460 C   0  0  0  0  0  0  0  0  0  0  0  0
   40.7520   23.0740   36.4390 N   0  0  0  0  0  0  0  0  0  0  0  0
   40.6710   24.3570   34.8180 H   0  0  0  0  0  0  0  0  0  0  0  0
   37.3170   24.4180   37.5090 H   0  0  0  0  0  0  0  0  0  0  0  0
   40.4710   21.8610   38.2660 H   0  0  0  0  0  0  0  0  0  0  0  0
   38.0490   24.0710   33.3790 O   0  0  0  0  0  0  0  0  0  0  0  0
   38.6090   24.0670   32.5360 H   0  0  0  0  0  0  0  0  0  0  0  0
   36.8640   25.9880   31.8510 O   0  0  0  0  0  0  0  0  0  0  0  0
   35.6480   26.3230   31.2730 C   0  0  0  0  0  2  0  0  0  0  0  0
   34.7830   25.1680   30.8620 C   0  0  0  0  0  2  0  0  0  0  0  0
   34.5060   25.1740   29.7960 H   0  0  0  0  0  0  0  0  0  0  0  0
  1  2  1  0  0  0  0
  2  3  2  0  0  0  0
  2 11  1  0  0  0  0
  3  7  1  0  0  0  0
  4  8  1  0  0  0  0
  4  3  1  0  0  0  0
  5  4  2  0  0  0  0
  6  5  1  0  0  0  0
  6  1  2  0  0  0  0
  9  5  1  0  0  0  0
 10 11  2  0  0  0  0
 10 15  1  0  0  0  0
 11 12  1  0  0  0  0
 12 17  1  0  0  0  0
 12 13  2  0  0  0  0
 14 13  1  0  0  0  0
 14 18  1  0  0  0  0
 15 14  2  0  0  0  0
 16 10  1  0  0  0  0
 19  1  1  0  0  0  0
 20 19  1  0  0  0  0
 21  6  1  0  0  0  0
 22 21  1  0  0  0  0
 23 22  1  0  0  0  0
 24 23  1  0  0  0  0
M  END
>  <minimizedAffinity>
-4.6120491

$$$$

 OpenBabel03272501193D

 24 25  0  0  0  0  0  0  0  0999 V2000
   36.9730   24.3670   32.6310 C   0  0  0  0  0  0  0  0  0  0  0  0
   36.1390   23.6820   31.7630 C   0  0  0  0  0  0  0  0  0  0  0  0
   35.3490   24.4840   30.9560 C   0  0  0  0  0  0  0  0  0  0  0  0
   35.3980   25.8770   31.0230 C   0  0  0  0  0  0  0  0  0  0  0  0
   36.2720   26.4750   31.9310 C   0  0  0  0  0  0  0  0  0  0  0  0
   37.0680   25.7080   32.7440 C   0  0  0  0  0  0  0  0  0  0  0  0
   34.6760   23.9970   30.2560 H   0  0  0  0  0  0  0  0  0  0  0  0
   34.7470   26.4320   30.3570 H   0  0  0  0  0  0  0  0  0  0  0  0
   36.2290   27.5450   31.8970 H   0  0  0  0  0  0  0  0  0  0  0  0
   37.0020   21.5390   30.9020 C   0  0  0  0  0  0  0  0  0  0  0  0
   36.0780   22.2500   31.6830 C   0  0  0  0  0  0  0  0  0  0  0  0
   35.1130   21.5010   32.3640 C   0  0  0  0  0  0  0  0  0  0  0  0
   35.1300   20.1440   32.2310 N   0  0  0  0  0  0  0  0  0  0  0  0
   36.0400   19.5100   31.4670 C   0  0  0  0  0  0  0  0  0  0  0  0
   36.9770   20.2020   30.8020 N   0  0  0  0  0  0  0  0  0  0  0  0
   37.7870   22.0490   30.3370 H   0  0  0  0  0  0  0  0  0  0  0  0
   34.3900   22.0300   32.9740 H   0  0  0  0  0  0  0  0  0  0  0  0
   35.8440   18.4470   31.5240 H   0  0  0  0  0  0  0  0  0  0  0  0
   37.8030   23.6270   33.4790 O   0  0  0  0  0  0  0  0  0  0  0  0
   37.6730   23.8070   34.4660 H   0  0  0  0  0  0  0  0  0  0  0  0
   37.9150   26.3440   33.6230 O   0  0  0  0  0  0  0  0  0  0  0  0
   37.5590   26.9790   34.8040 C   0  0  0  0  0  2  0  0  0  0  0  0
   38.6760   27.2250   35.7740 C   0  0  0  0  0  2  0  0  0  0  0  0
   38.5090   26.7840   36.7700 H   0  0  0  0  0  0  0  0  0  0  0  0
  1  6  1  0  0  0  0
  1 19  1  0  0  0  0
  2  1  2  0  0  0  0
  3  4  2  0  0  0  0
  3  2  1  0  0  0  0
  4  5  1  0  0  0  0
  5  6  2  0  0  0  0
  6 21  1  0  0  0  0
  7  3  1  0  0  0  0
  8  4  1  0  0  0  0
  9  5  1  0  0  0  0
 10 11  1  0  0  0  0
 11  2  1  0  0  0  0
 11 12  2  0  0  0  0
 12 17  1  0  0  0  0
 13 12  1  0  0  0  0
 14 18  1  0  0  0  0
 14 13  2  0  0  0  0
 15 10  2  0  0  0  0
 15 14  1  0  0  0  0
 16 10  1  0  0  0  0
 19 20  1  0  0  0  0
 21 22  1  0  0  0  0
 22 23  1  0  0  0  0
 23 24  1  0  0  0  0
M  END
>  <minimizedAffinity>
-4.27903461

$$$$

 OpenBabel03272501193D

 24 25  0  0  0  0  0  0  0  0999 V2000
   39.6130   23.8670   35.8590 C   0  0  0  0  0  0  0  0  0  0  0  0
   40.3560   23.1080   36.7480 C   0  0  0  0  0  0  0  0  0  0  0  0
   39.7680   22.9190   37.9880 C   0  0  0  0  0  0  0  0  0  0  0  0
   38.5210   23.4590   38.3050 C   0  0  0  0  0  0  0  0  0  0  0  0
   37.8490   24.2100   37.3390 C   0  0  0  0  0  0  0  0  0  0  0  0
   38.4050   24.4150   36.1010 C   0  0  0  0  0  0  0  0  0  0  0  0
   40.3080   22.3320   38.7240 H   0  0  0  0  0  0  0  0  0  0  0  0
   38.1310   23.2650   39.2980 H   0  0  0  0  0  0  0  0  0  0  0  0
   36.9040   24.5730   37.6890 H   0  0  0  0  0  0  0  0  0  0  0  0
   42.8040   23.3230   36.5450 C   0  0  0  0  0  0  0  0  0  0  0  0
   41.6400   22.5470   36.4370 C   0  0  0  0  0  0  0  0  0  0  0  0
   41.7970   21.2220   36.0170 C   0  0  0  0  0  0  0  0  0  0  0  0
   43.0550   20.7720   35.7420 N   0  0  0  0  0  0  0  0  0  0  0  0
   44.1400   21.5600   35.8630 C   0  0  0  0  0  0  0  0  0  0  0  0
   44.0200   22.8340   36.2630 N   0  0  0  0  0  0  0  0  0  0  0  0
   42.7680   24.3680   36.8650 H   0  0  0  0  0  0  0  0  0  0  0  0
   40.9120   20.6040   35.9260 H   0  0  0  0  0  0  0  0  0  0  0  0
   45.0110   20.9770   35.5900 H   0  0  0  0  0  0  0  0  0  0  0  0
   40.1400   24.1010   34.5840 O   0  0  0  0  0  0  0  0  0  0  0  0
   40.2530   25.0780   34.3430 H   0  0  0  0  0  0  0  0  0  0  0  0
   37.7040   25.1610   35.1820 O   0  0  0  0  0  0  0  0  0  0  0  0
   37.4300   26.5190   35.2550 C   0  0  0  0  0  2  0  0  0  0  0  0
   38.5770   27.3940   35.6650 C   0  0  0  0  0  2  0  0  0  0  0  0
   38.3740   28.0090   36.5560 H   0  0  0  0  0  0  0  0  0  0  0  0
  1  6  2  0  0  0  0
  1  2  1  0  0  0  0
  2  3  2  0  0  0  0
  3  4  1  0  0  0  0
  3  7  1  0  0  0  0
  4  8  1  0  0  0  0
  5  9  1  0  0  0  0
  5  4  2  0  0  0  0
  6  5  1  0  0  0  0
 10 16  1  0  0  0  0
 11 10  1  0  0  0  0
 11  2  1  0  0  0  0
 12 11  2  0  0  0  0
 13 14  2  0  0  0  0
 13 12  1  0  0  0  0
 14 15  1  0  0  0  0
 15 10  2  0  0  0  0
 17 12  1  0  0  0  0
 18 14  1  0  0  0  0
 19  1  1  0  0  0  0
 20 19  1  0  0  0  0
 21 22  1  0  0  0  0
 21  6  1  0  0  0  0
 22 23  1  0  0  0  0
 23 24  1  0  0  0  0
M  END
>  <minimizedAffinity>
-4.27531528

$$$$

 OpenBabel03272501193D

 24 25  0  0  0  0  0  0  0  0999 V2000
   40.0020   23.9730   35.6990 C   0  0  0  0  0  0  0  0  0  0  0  0
   38.8390   24.6070   36.1030 C   0  0  0  0  0  0  0  0  0  0  0  0
   38.3350   24.1830   37.3210 C   0  0  0  0  0  0  0  0  0  0  0  0
   38.9610   23.1900   38.0760 C   0  0  0  0  0  0  0  0  0  0  0  0
   40.1320   22.6110   37.5830 C   0  0  0  0  0  0  0  0  0  0  0  0
   40.6560   23.0100   36.3790 C   0  0  0  0  0  0  0  0  0  0  0  0
   37.4230   24.6470   37.6850 H   0  0  0  0  0  0  0  0  0  0  0  0
   38.5020   22.9150   39.0180 H   0  0  0  0  0  0  0  0  0  0  0  0
   40.5260   21.8640   38.2420 H   0  0  0  0  0  0  0  0  0  0  0  0
   38.1100   26.9450   35.8210 C   0  0  0  0  0  0  0  0  0  0  0  0
   38.1830   25.6300   35.3380 C   0  0  0  0  0  0  0  0  0  0  0  0
   37.5930   25.3750   34.0950 C   0  0  0  0  0  0  0  0  0  0  0  0
   36.9910   26.4080   33.4380 N   0  0  0  0  0  0  0  0  0  0  0  0
   36.9490   27.6530   33.9460 C   0  0  0  0  0  0  0  0  0  0  0  0
   37.5060   27.9270   35.1360 N   0  0  0  0  0  0  0  0  0  0  0  0
   38.5450   27.2270   36.7830 H   0  0  0  0  0  0  0  0  0  0  0  0
   37.6380   24.3660   33.7030 H   0  0  0  0  0  0  0  0  0  0  0  0
   36.4220   28.2860   33.2430 H   0  0  0  0  0  0  0  0  0  0  0  0
   40.5740   24.3480   34.4790 O   0  0  0  0  0  0  0  0  0  0  0  0
   40.6820   23.5950   33.8100 H   0  0  0  0  0  0  0  0  0  0  0  0
   41.8130   22.4100   35.9370 O   0  0  0  0  0  0  0  0  0  0  0  0
   43.0740   22.5260   36.5010 C   0  0  0  0  0  2  0  0  0  0  0  0
   43.6190   23.9200   36.5970 C   0  0  0  0  0  2  0  0  0  0  0  0
   44.5890   24.0570   36.0930 H   0  0  0  0  0  0  0  0  0  0  0  0
  1  2  2  0  0  0  0
  1  6  1  0  0  0  0
  2  3  1  0  0  0  0
  3  7  1  0  0  0  0
  3  4  2  0  0  0  0
  4  8  1  0  0  0  0
  5  4  1  0  0  0  0
  5  9  1  0  0  0  0
  6  5  2  0  0  0  0
 10 16  1  0  0  0  0
 11 10  1  0  0  0  0
 11  2  1  0  0  0  0
 12 11  2  0  0  0  0
 13 14  2  0  0  0  0
 13 12  1  0  0  0  0
 14 15  1  0  0  0  0
 15 10  2  0  0  0  0
 17 12  1  0  0  0  0
 18 14  1  0  0  0  0
 19  1  1  0  0  0  0
 20 19  1  0  0  0  0
 21  6  1  0  0  0  0
 21 22  1  0  0  0  0
 22 23  1  0  0  0  0
 24 23  1  0  0  0  0
M  END
>  <minimizedAffinity>
-4.26370859

$$$$

 OpenBabel03272501193D

 24 25  0  0  0  0  0  0  0  0999 V2000
   37.7470   25.4950   34.0480 C   0  0  0  0  0  0  0  0  0  0  0  0
   37.7380   26.8690   33.8720 C   0  0  0  0  0  0  0  0  0  0  0  0
   38.0530   27.6050   35.0020 C   0  0  0  0  0  0  0  0  0  0  0  0
   38.3540   26.9960   36.2210 C   0  0  0  0  0  0  0  0  0  0  0  0
   38.3360   25.6030   36.2980 C   0  0  0  0  0  0  0  0  0  0  0  0
   38.0280   24.8460   35.1960 C   0  0  0  0  0  0  0  0  0  0  0  0
   38.0610   28.6880   34.9200 H   0  0  0  0  0  0  0  0  0  0  0  0
   38.5890   27.6440   37.0580 H   0  0  0  0  0  0  0  0  0  0  0  0
   38.5820   25.2440   37.2780 H   0  0  0  0  0  0  0  0  0  0  0  0
   38.4130   27.6430   31.6310 C   0  0  0  0  0  0  0  0  0  0  0  0
   37.4320   27.5090   32.6240 C   0  0  0  0  0  0  0  0  0  0  0  0
   36.1630   28.0250   32.3380 C   0  0  0  0  0  0  0  0  0  0  0  0
   35.9610   28.6170   31.1260 N   0  0  0  0  0  0  0  0  0  0  0  0
   36.9390   28.7200   30.2070 C   0  0  0  0  0  0  0  0  0  0  0  0
   38.1650   28.2350   30.4540 N   0  0  0  0  0  0  0  0  0  0  0  0
   39.4300   27.2680   31.7760 H   0  0  0  0  0  0  0  0  0  0  0  0
   35.3890   27.9320   33.0910 H   0  0  0  0  0  0  0  0  0  0  0  0
   36.5330   29.2250   29.3390 H   0  0  0  0  0  0  0  0  0  0  0  0
   37.4400   24.6820   32.9520 O   0  0  0  0  0  0  0  0  0  0  0  0
   36.6530   24.0610   33.0900 H   0  0  0  0  0  0  0  0  0  0  0  0
   38.0250   23.4750   35.3210 O   0  0  0  0  0  0  0  0  0  0  0  0
   38.4780   22.7420   36.4080 C   0  0  0  0  0  2  0  0  0  0  0  0
   39.8730   22.2010   36.2920 C   0  0  0  0  0  2  0  0  0  0  0  0
   39.9390   21.1070   36.4050 H   0  0  0  0  0  0  0  0  0  0  0  0
  1  6  1  0  0  0  0
  2  1  2  0  0  0  0
  2  3  1  0  0  0  0
  3  4  2  0  0  0  0
  4  5  1  0  0  0  0
  4  8  1  0  0  0  0
  5  9  1  0  0  0  0
  6 21  1  0  0  0  0
  6  5  2  0  0  0  0
  7  3  1  0  0  0  0
 10 16  1  0  0  0  0
 10 11  1  0  0  0  0
 11  2  1  0  0  0  0
 12 11  2  0  0  0  0
 12 17  1  0  0  0  0
 13 12  1  0  0  0  0
 14 15  1  0  0  0  0
 14 13  2  0  0  0  0
 15 10  2  0  0  0  0
 18 14  1  0  0  0  0
 19 20  1  0  0  0  0
 19  1  1  0  0  0  0
 21 22  1  0  0  0  0
 23 24  1  0  0  0  0
 23 22  1  0  0  0  0
M  END
>  <minimizedAffinity>
-4.16166735

$$$$

 OpenBabel03272501193D

 24 25  0  0  0  0  0  0  0  0999 V2000
   38.9400   26.3720   33.2460 C   0  0  0  0  0  0  0  0  0  0  0  0
   39.7580   26.6340   34.3320 C   0  0  0  0  0  0  0  0  0  0  0  0
   39.1180   27.2010   35.4220 C   0  0  0  0  0  0  0  0  0  0  0  0
   37.7510   27.4830   35.4130 C   0  0  0  0  0  0  0  0  0  0  0  0
   37.0110   27.1810   34.2690 C   0  0  0  0  0  0  0  0  0  0  0  0
   37.6160   26.6190   33.1730 C   0  0  0  0  0  0  0  0  0  0  0  0
   39.7130   27.4280   36.3020 H   0  0  0  0  0  0  0  0  0  0  0  0
   37.3270   27.9270   36.3070 H   0  0  0  0  0  0  0  0  0  0  0  0
   35.9760   27.4370   34.3730 H   0  0  0  0  0  0  0  0  0  0  0  0
   42.0830   27.2410   33.7810 C   0  0  0  0  0  0  0  0  0  0  0  0
   41.1650   26.3500   34.3560 C   0  0  0  0  0  0  0  0  0  0  0  0
   41.6860   25.1920   34.9430 C   0  0  0  0  0  0  0  0  0  0  0  0
   43.0370   25.0030   34.9200 N   0  0  0  0  0  0  0  0  0  0  0  0
   43.8750   25.8920   34.3540 C   0  0  0  0  0  0  0  0  0  0  0  0
   43.4040   27.0110   33.7840 N   0  0  0  0  0  0  0  0  0  0  0  0
   41.7570   28.1690   33.3010 H   0  0  0  0  0  0  0  0  0  0  0  0
   40.9950   24.4890   35.3940 H   0  0  0  0  0  0  0  0  0  0  0  0
   44.8850   25.5180   34.4640 H   0  0  0  0  0  0  0  0  0  0  0  0
   39.5120   25.7980   32.1060 O   0  0  0  0  0  0  0  0  0  0  0  0
   39.4020   26.3380   31.2560 H   0  0  0  0  0  0  0  0  0  0  0  0
   36.8440   26.3390   32.0690 O   0  0  0  0  0  0  0  0  0  0  0  0
   36.1450   25.1660   31.8230 C   0  0  0  0  0  2  0  0  0  0  0  0
   34.9730   25.2890   30.8960 C   0  0  0  0  0  2  0  0  0  0  0  0
   34.0200   24.9510   31.3330 H   0  0  0  0  0  0  0  0  0  0  0  0
  1  2  1  0  0  0  0
  2 11  1  0  0  0  0
  2  3  2  0  0  0  0
  3  7  1  0  0  0  0
  4  3  1  0  0  0  0
  4  8  1  0  0  0  0
  5  9  1  0  0  0  0
  5  4  2  0  0  0  0
  6  1  2  0  0  0  0
  6  5  1  0  0  0  0
 10 15  2  0  0  0  0
 10 11  1  0  0  0  0
 11 12  2  0  0  0  0
 12 17  1  0  0  0  0
 13 12  1  0  0  0  0
 14 18  1  0  0  0  0
 14 13  2  0  0  0  0
 15 14  1  0  0  0  0
 16 10  1  0  0  0  0
 19  1  1  0  0  0  0
 20 19  1  0  0  0  0
 21  6  1  0  0  0  0
 22 21  1  0  0  0  0
 23 24  1  0  0  0  0
 23 22  1  0  0  0  0
M  END
>  <minimizedAffinity>
-4.12000608

$$$$

 OpenBabel03272501193D

 24 25  0  0  0  0  0  0  0  0999 V2000
   35.6860   30.0650   32.6940 C   0  0  0  0  0  0  0  0  0  0  0  0
   35.6420   29.7110   34.0320 C   0  0  0  0  0  0  0  0  0  0  0  0
   36.2100   28.4830   34.3310 C   0  0  0  0  0  0  0  0  0  0  0  0
   36.7790   27.6730   33.3480 C   0  0  0  0  0  0  0  0  0  0  0  0
   36.7750   28.1190   32.0250 C   0  0  0  0  0  0  0  0  0  0  0  0
   36.2200   29.3310   31.6980 C   0  0  0  0  0  0  0  0  0  0  0  0
   36.2020   28.1560   35.3660 H   0  0  0  0  0  0  0  0  0  0  0  0
   37.2030   26.7260   33.6640 H   0  0  0  0  0  0  0  0  0  0  0  0
   37.2380   27.4210   31.3570 H   0  0  0  0  0  0  0  0  0  0  0  0
   33.6820   30.4790   35.3160 C   0  0  0  0  0  0  0  0  0  0  0  0
   35.0590   30.5330   35.0550 C   0  0  0  0  0  0  0  0  0  0  0  0
   35.8190   31.4150   35.8310 C   0  0  0  0  0  0  0  0  0  0  0  0
   35.1820   32.1580   36.7810 N   0  0  0  0  0  0  0  0  0  0  0  0
   33.8550   32.0680   36.9910 C   0  0  0  0  0  0  0  0  0  0  0  0
   33.1020   31.2310   36.2620 N   0  0  0  0  0  0  0  0  0  0  0  0
   33.0180   29.8160   34.7540 H   0  0  0  0  0  0  0  0  0  0  0  0
   36.8850   31.4730   35.6460 H   0  0  0  0  0  0  0  0  0  0  0  0
   33.5940   32.7510   37.7890 H   0  0  0  0  0  0  0  0  0  0  0  0
   35.1330   31.2920   32.3130 O   0  0  0  0  0  0  0  0  0  0  0  0
   34.3960   31.2310   31.6210 H   0  0  0  0  0  0  0  0  0  0  0  0
   36.2410   29.7270   30.3800 O   0  0  0  0  0  0  0  0  0  0  0  0
   37.3630   30.0480   29.6290 C   0  0  0  0  0  2  0  0  0  0  0  0
   37.7410   29.0580   28.5680 C   0  0  0  0  0  2  0  0  0  0  0  0
   38.7680   28.6700   28.6640 H   0  0  0  0  0  0  0  0  0  0  0  0
  1  2  1  0  0  0  0
  2  3  2  0  0  0  0
  2 11  1  0  0  0  0
  3  7  1  0  0  0  0
  4  8  1  0  0  0  0
  4  3  1  0  0  0  0
  5  4  2  0  0  0  0
  6  5  1  0  0  0  0
  6  1  2  0  0  0  0
  9  5  1  0  0  0  0
 10 15  1  0  0  0  0
 11 10  2  0  0  0  0
 11 12  1  0  0  0  0
 12 13  2  0  0  0  0
 13 14  1  0  0  0  0
 14 18  1  0  0  0  0
 15 14  2  0  0  0  0
 16 10  1  0  0  0  0
 17 12  1  0  0  0  0
 19  1  1  0  0  0  0
 20 19  1  0  0  0  0
 21  6  1  0  0  0  0
 22 21  1  0  0  0  0
 23 24  1  0  0  0  0
 23 22  1  0  0  0  0
M  END
>  <minimizedAffinity>
-4.10941553

$$$$

 OpenBabel03272501193D

 24 25  0  0  0  0  0  0  0  0999 V2000
   35.9260   25.1750   31.2880 C   0  0  0  0  0  0  0  0  0  0  0  0
   36.5680   26.2690   31.8440 C   0  0  0  0  0  0  0  0  0  0  0  0
   37.5530   25.9610   32.7690 C   0  0  0  0  0  0  0  0  0  0  0  0
   37.8640   24.6430   33.1060 C   0  0  0  0  0  0  0  0  0  0  0  0
   37.1600   23.6080   32.4900 C   0  0  0  0  0  0  0  0  0  0  0  0
   36.1790   23.8810   31.5700 C   0  0  0  0  0  0  0  0  0  0  0  0
   38.0890   26.7820   33.2360 H   0  0  0  0  0  0  0  0  0  0  0  0
   38.6480   24.4870   33.8390 H   0  0  0  0  0  0  0  0  0  0  0  0
   37.4810   22.6410   32.8220 H   0  0  0  0  0  0  0  0  0  0  0  0
   35.3420   28.3640   32.2740 C   0  0  0  0  0  0  0  0  0  0  0  0
   36.2590   27.6300   31.5070 C   0  0  0  0  0  0  0  0  0  0  0  0
   36.8450   28.2840   30.4180 C   0  0  0  0  0  0  0  0  0  0  0  0
   36.4920   29.5780   30.1720 N   0  0  0  0  0  0  0  0  0  0  0  0
   35.6050   30.2380   30.9400 C   0  0  0  0  0  0  0  0  0  0  0  0
   35.0280   29.6360   31.9900 N   0  0  0  0  0  0  0  0  0  0  0  0
   34.8400   27.9260   33.1410 H   0  0  0  0  0  0  0  0  0  0  0  0
   37.5570   27.7350   29.8120 H   0  0  0  0  0  0  0  0  0  0  0  0
   35.4950   31.2390   30.5430 H   0  0  0  0  0  0  0  0  0  0  0  0
   34.9190   25.4040   30.3450 O   0  0  0  0  0  0  0  0  0  0  0  0
   34.0150   25.0170   30.5840 H   0  0  0  0  0  0  0  0  0  0  0  0
   35.5130   22.8260   30.9890 O   0  0  0  0  0  0  0  0  0  0  0  0
   35.7790   21.4770   31.1710 C   0  0  0  0  0  2  0  0  0  0  0  0
   34.8180   20.7370   32.0540 C   0  0  0  0  0  2  0  0  0  0  0  0
   35.2940   20.2390   32.9130 H   0  0  0  0  0  0  0  0  0  0  0  0
  1  6  2  0  0  0  0
  1  2  1  0  0  0  0
  2  3  2  0  0  0  0
  3  4  1  0  0  0  0
  3  7  1  0  0  0  0
  4  8  1  0  0  0  0
  5  9  1  0  0  0  0
  5  4  2  0  0  0  0
  6  5  1  0  0  0  0
 10 16  1  0  0  0  0
 11  2  1  0  0  0  0
 11 10  2  0  0  0  0
 12 11  1  0  0  0  0
 13 12  2  0  0  0  0
 13 14  1  0  0  0  0
 14 15  2  0  0  0  0
 15 10  1  0  0  0  0
 17 12  1  0  0  0  0
 18 14  1  0  0  0  0
 19 20  1  0  0  0  0
 19  1  1  0  0  0  0
 21 22  1  0  0  0  0
 21  6  1  0  0  0  0
 22 23  1  0  0  0  0
 23 24  1  0  0  0  0
M  END
>  <minimizedAffinity>
-4.09875345

$$$$

 OpenBabel03272501193D

 24 25  0  0  0  0  0  0  0  0999 V2000
   37.2350   26.2090   33.7560 C   0  0  0  0  0  0  0  0  0  0  0  0
   37.0760   27.5560   34.0390 C   0  0  0  0  0  0  0  0  0  0  0  0
   37.6840   27.9830   35.2080 C   0  0  0  0  0  0  0  0  0  0  0  0
   38.3990   27.1120   36.0320 C   0  0  0  0  0  0  0  0  0  0  0  0
   38.5030   25.7710   35.6590 C   0  0  0  0  0  0  0  0  0  0  0  0
   37.9130   25.3170   34.5060 C   0  0  0  0  0  0  0  0  0  0  0  0
   37.5890   29.0300   35.4790 H   0  0  0  0  0  0  0  0  0  0  0  0
   38.8430   27.5250   36.9290 H   0  0  0  0  0  0  0  0  0  0  0  0
   39.0730   25.1950   36.3610 H   0  0  0  0  0  0  0  0  0  0  0  0
   35.1530   29.0500   33.6570 C   0  0  0  0  0  0  0  0  0  0  0  0
   36.3440   28.4640   33.2030 C   0  0  0  0  0  0  0  0  0  0  0  0
   36.7690   28.8070   31.9150 C   0  0  0  0  0  0  0  0  0  0  0  0
   36.0110   29.6790   31.1900 N   0  0  0  0  0  0  0  0  0  0  0  0
   34.8740   30.2130   31.6750 C   0  0  0  0  0  0  0  0  0  0  0  0
   34.4410   29.9020   32.9060 N   0  0  0  0  0  0  0  0  0  0  0  0
   34.7510   28.8340   34.6510 H   0  0  0  0  0  0  0  0  0  0  0  0
   37.6870   28.3660   31.5440 H   0  0  0  0  0  0  0  0  0  0  0  0
   34.4600   30.8660   30.9170 H   0  0  0  0  0  0  0  0  0  0  0  0
   36.6520   25.7020   32.5900 O   0  0  0  0  0  0  0  0  0  0  0  0
   35.9950   24.9460   32.7380 H   0  0  0  0  0  0  0  0  0  0  0  0
   38.0440   23.9860   34.1820 O   0  0  0  0  0  0  0  0  0  0  0  0
   38.9090   23.0730   34.7660 C   0  0  0  0  0  2  0  0  0  0  0  0
   38.2700   22.0520   35.6610 C   0  0  0  0  0  2  0  0  0  0  0  0
   38.6710   22.0430   36.6870 H   0  0  0  0  0  0  0  0  0  0  0  0
  1  2  2  0  0  0  0
  1  6  1  0  0  0  0
  2  3  1  0  0  0  0
  3  7  1  0  0  0  0
  3  4  2  0  0  0  0
  4  8  1  0  0  0  0
  5  4  1  0  0  0  0
  5  9  1  0  0  0  0
  6  5  2  0  0  0  0
 10 16  1  0  0  0  0
 11 10  1  0  0  0  0
 11  2  1  0  0  0  0
 12 11  2  0  0  0  0
 13 14  2  0  0  0  0
 13 12  1  0  0  0  0
 14 15  1  0  0  0  0
 15 10  2  0  0  0  0
 17 12  1  0  0  0  0
 18 14  1  0  0  0  0
 19 20  1  0  0  0  0
 19  1  1  0  0  0  0
 21  6  1  0  0  0  0
 21 22  1  0  0  0  0
 22 23  1  0  0  0  0
 23 24  1  0  0  0  0
M  END
>  <minimizedAffinity>
-4.08940887

$$$$
