
 OpenBabel03272507263D

 31 32  0  0  1  0  0  0  0  0999 V2000
   36.9480   29.8970   48.8310 C   0  0  0  0  0  0  0  0  0  0  0  0
   37.9550   30.5050   48.0500 C   0  0  0  0  0  0  0  0  0  0  0  0
   37.6080   30.9190   46.7470 C   0  0  0  0  0  0  0  0  0  0  0  0
   36.3490   30.7100   46.3400 N   0  0  0  0  0  0  0  0  0  0  0  0
   35.4010   30.1230   47.1130 C   0  0  0  0  0  0  0  0  0  0  0  0
   35.7200   29.7240   48.3550 N   0  0  0  0  0  0  0  0  0  0  0  0
   38.5560   31.5270   45.9220 N   0  0  0  0  0  0  0  0  0  0  0  0
   39.7040   32.3180   46.3830 C   0  0  0  0  0  0  0  0  0  0  0  0
   40.2880   32.9740   45.1670 C   0  0  0  0  0  0  0  0  0  0  0  0
   39.1890   32.8910   44.1850 C   0  0  0  0  0  0  0  0  0  0  0  0
   38.6170   31.5140   44.4970 C   0  0  2  0  0  0  0  0  0  0  0  0
   37.2950   29.6060   49.8240 H   0  0  0  0  0  0  0  0  0  0  0  0
   38.9770   30.6700   48.3930 H   0  0  0  0  0  0  0  0  0  0  0  0
   34.3790   29.9620   46.7600 H   0  0  0  0  0  0  0  0  0  0  0  0
   39.4430   33.0050   47.1920 H   0  0  0  0  0  0  0  0  0  0  0  0
   40.4510   31.5720   46.7520 H   0  0  0  0  0  0  0  0  0  0  0  0
   40.3940   34.0610   45.4390 H   0  0  0  0  0  0  0  0  0  0  0  0
   41.2780   32.6560   44.8670 H   0  0  0  0  0  0  0  0  0  0  0  0
   38.3910   33.6190   44.4860 H   0  0  0  0  0  0  0  0  0  0  0  0
   39.4800   33.0030   43.1230 H   0  0  0  0  0  0  0  0  0  0  0  0
   37.3940   31.2350   43.7310 C   0  0  0  0  0  0  0  0  0  0  0  0
   36.5340   32.2990   43.9420 F   0  0  0  0  0  0  0  0  0  0  0  0
   36.7100   30.1020   44.0980 F   0  0  0  0  0  0  0  0  0  0  0  0
   37.7360   31.2790   42.3910 F   0  0  0  0  0  0  0  0  0  0  0  0
   39.6440   30.4670   44.1400 C   0  0  0  0  0  0  0  0  0  0  0  0
   39.9810   30.7760   43.1040 H   0  0  0  0  0  0  0  0  0  0  0  0
   40.5770   30.5960   44.7340 H   0  0  0  0  0  0  0  0  0  0  0  0
   39.0900   29.3900   44.2200 O   0  0  0  0  0  0  0  0  0  0  0  0
   39.2220   28.2950   43.4090 C   0  0  0  0  0  0  0  0  0  0  0  0
   40.1780   28.5880   42.3000 C   0  0  0  0  0  0  0  0  0  0  0  0
   41.1960   28.7120   42.7650 H   0  0  0  0  0  0  0  0  0  0  0  0
  1 12  1  0  0  0  0
  2 13  1  0  0  0  0
  2  1  2  0  0  0  0
  3  2  1  0  0  0  0
  4  3  2  0  0  0  0
  4  5  1  0  0  0  0
  5  6  2  0  0  0  0
  6  1  1  0  0  0  0
  7  8  1  0  0  0  0
  7  3  1  0  0  0  0
  8 16  1  0  0  0  0
  8 15  1  0  0  0  0
  9 17  1  0  0  0  0
  9  8  1  0  0  0  0
 10 19  1  0  0  0  0
 10 11  1  0  0  0  0
 10  9  1  0  0  0  0
 11 21  1  6  0  0  0
 11  7  1  0  0  0  0
 14  5  1  0  0  0  0
 18  9  1  0  0  0  0
 20 10  1  0  0  0  0
 21 22  1  0  0  0  0
 21 23  1  0  0  0  0
 24 21  1  0  0  0  0
 25 28  1  0  0  0  0
 25 11  1  0  0  0  0
 25 27  1  0  0  0  0
 26 25  1  0  0  0  0
 29 28  1  0  0  0  0
 30 31  1  0  0  0  0
 30 29  1  0  0  0  0
M  END
>  <minimizedAffinity>
-4.32296515

>  <minimizedRMSD>
0.566202462

$$$$
