
 OpenBabel03272506443D

 26 27  0  0  1  0  0  0  0  0999 V2000
   38.8300   26.5440   35.6530 C   0  0  2  0  0  0  0  0  0  0  0  0
   38.5470   26.5800   34.1680 C   0  0  1  0  0  0  0  0  0  0  0  0
   38.2800   25.2900   33.7560 O   0  0  0  0  0  0  0  0  0  0  0  0
   38.1490   24.4870   34.8610 C   0  0  0  0  0  0  0  0  0  0  0  0
   37.9140   25.4300   36.0560 C   0  0  1  0  0  0  0  0  0  0  0  0
   39.8890   26.2980   35.7990 H   0  0  0  0  0  0  0  0  0  0  0  0
   39.3910   27.0610   33.6080 H   0  0  0  0  0  0  0  0  0  0  0  0
   37.2890   23.8010   34.7550 H   0  0  0  0  0  0  0  0  0  0  0  0
   39.1030   23.9580   35.0830 H   0  0  0  0  0  0  0  0  0  0  0  0
   36.8670   25.7600   35.9850 H   0  0  0  0  0  0  0  0  0  0  0  0
   38.4720   27.7470   36.2540 O   0  0  0  0  0  0  0  0  0  0  0  0
   37.4640   27.7340   36.2980 H   0  0  0  0  0  0  0  0  0  0  0  0
   37.0200   27.5580   33.9330 S   0  0  0  0  0  0  0  0  0  0  0  0
   36.1620   29.8010   30.7810 C   0  0  0  0  0  0  0  0  0  0  0  0
   37.0240   29.3690   29.7760 C   0  0  0  0  0  0  0  0  0  0  0  0
   37.9120   28.3350   30.0900 C   0  0  0  0  0  0  0  0  0  0  0  0
   37.8930   27.8080   31.3440 N   0  0  0  0  0  0  0  0  0  0  0  0
   37.0350   28.2590   32.2910 C   0  0  0  0  0  0  0  0  0  0  0  0
   36.1690   29.2520   32.0240 N   0  0  0  0  0  0  0  0  0  0  0  0
   35.4700   30.6020   30.5470 H   0  0  0  0  0  0  0  0  0  0  0  0
   37.0660   29.7570   28.7880 H   0  0  0  0  0  0  0  0  0  0  0  0
   38.6350   27.9000   29.4130 H   0  0  0  0  0  0  0  0  0  0  0  0
   38.2330   24.7750   37.2070 O   0  0  0  0  0  0  0  0  0  0  0  0
   38.4040   23.4110   37.1370 C   0  0  0  0  0  2  0  0  0  0  0  0
   39.6600   23.0090   37.9210 C   0  0  0  0  0  2  0  0  0  0  0  0
   40.0860   22.0490   37.5660 H   0  0  0  0  0  0  0  0  0  0  0  0
  1  6  1  1  0  0  0
  1  5  1  0  0  0  0
  1 11  1  0  0  0  0
  2  7  1  6  0  0  0
  2  1  1  0  0  0  0
  3  2  1  0  0  0  0
  3  4  1  0  0  0  0
  4  9  1  0  0  0  0
  4  5  1  0  0  0  0
  5 10  1  1  0  0  0
  5 23  1  0  0  0  0
  8  4  1  0  0  0  0
 11 12  1  0  0  0  0
 13  2  1  0  0  0  0
 14 19  1  0  0  0  0
 15 16  1  0  0  0  0
 15 14  2  0  0  0  0
 16 17  2  0  0  0  0
 17 18  1  0  0  0  0
 18 13  1  0  0  0  0
 19 18  2  0  0  0  0
 20 14  1  0  0  0  0
 21 15  1  0  0  0  0
 22 16  1  0  0  0  0
 24 23  1  0  0  0  0
 24 25  1  0  0  0  0
 26 25  1  0  0  0  0
M  END
>  <minimizedAffinity>
-4.09370232

$$$$

 OpenBabel03272506443D

 26 27  0  0  1  0  0  0  0  0999 V2000
   38.3800   23.1820   35.9880 C   0  0  2  0  0  0  0  0  0  0  0  0
   37.6460   24.3690   36.5720 C   0  0  1  0  0  0  0  0  0  0  0  0
   37.7840   24.3200   37.9440 O   0  0  0  0  0  0  0  0  0  0  0  0
   38.7080   23.3560   38.2660 C   0  0  0  0  0  0  0  0  0  0  0  0
   39.5000   23.0690   36.9770 C   0  0  1  0  0  0  0  0  0  0  0  0
   37.7080   22.3150   36.0060 H   0  0  0  0  0  0  0  0  0  0  0  0
   36.5780   24.3910   36.2320 H   0  0  0  0  0  0  0  0  0  0  0  0
   39.3960   23.7110   39.0540 H   0  0  0  0  0  0  0  0  0  0  0  0
   38.2060   22.3970   38.5260 H   0  0  0  0  0  0  0  0  0  0  0  0
   40.1980   23.9100   36.8520 H   0  0  0  0  0  0  0  0  0  0  0  0
   38.8490   23.4710   34.7100 O   0  0  0  0  0  0  0  0  0  0  0  0
   39.6430   24.0780   34.8480 H   0  0  0  0  0  0  0  0  0  0  0  0
   38.5050   25.8750   35.9890 S   0  0  0  0  0  0  0  0  0  0  0  0
   36.3290   28.3530   33.7920 C   0  0  0  0  0  0  0  0  0  0  0  0
   36.1380   27.6980   32.5790 C   0  0  0  0  0  0  0  0  0  0  0  0
   36.7100   26.4300   32.4340 C   0  0  0  0  0  0  0  0  0  0  0  0
   37.4160   25.9030   33.4710 N   0  0  0  0  0  0  0  0  0  0  0  0
   37.5760   26.5770   34.6360 C   0  0  0  0  0  0  0  0  0  0  0  0
   37.0410   27.7980   34.8090 N   0  0  0  0  0  0  0  0  0  0  0  0
   35.8900   29.3360   33.9140 H   0  0  0  0  0  0  0  0  0  0  0  0
   35.5930   28.0790   31.7500 H   0  0  0  0  0  0  0  0  0  0  0  0
   36.6430   25.8070   31.5520 H   0  0  0  0  0  0  0  0  0  0  0  0
   40.0880   21.8450   37.0810 O   0  0  0  0  0  0  0  0  0  0  0  0
   41.4550   21.8070   37.2480 C   0  0  0  0  0  2  0  0  0  0  0  0
   42.0900   23.0250   36.5650 C   0  0  0  0  0  2  0  0  0  0  0  0
   43.1480   22.8460   36.2890 H   0  0  0  0  0  0  0  0  0  0  0  0
  1  6  1  1  0  0  0
  1  2  1  0  0  0  0
  1  5  1  0  0  0  0
  2  7  1  6  0  0  0
  2  3  1  0  0  0  0
  3  4  1  0  0  0  0
  4  9  1  0  0  0  0
  4  8  1  0  0  0  0
  5 10  1  6  0  0  0
  5 23  1  0  0  0  0
  5  4  1  0  0  0  0
 11 12  1  0  0  0  0
 11  1  1  0  0  0  0
 13  2  1  0  0  0  0
 14 20  1  0  0  0  0
 14 19  1  0  0  0  0
 15 14  2  0  0  0  0
 16 15  1  0  0  0  0
 16 17  2  0  0  0  0
 17 18  1  0  0  0  0
 18 19  2  0  0  0  0
 18 13  1  0  0  0  0
 21 15  1  0  0  0  0
 22 16  1  0  0  0  0
 23 24  1  0  0  0  0
 25 24  1  0  0  0  0
 26 25  1  0  0  0  0
M  END
>  <minimizedAffinity>
-4.01399899

$$$$

 OpenBabel03272506443D

 26 27  0  0  1  0  0  0  0  0999 V2000
   38.3960   23.2100   35.9250 C   0  0  2  0  0  0  0  0  0  0  0  0
   37.6590   24.3920   36.5150 C   0  0  1  0  0  0  0  0  0  0  0  0
   37.7890   24.3310   37.8880 O   0  0  0  0  0  0  0  0  0  0  0  0
   38.7110   23.3640   38.2060 C   0  0  0  0  0  0  0  0  0  0  0  0
   39.5100   23.0880   36.9190 C   0  0  1  0  0  0  0  0  0  0  0  0
   37.7240   22.3430   35.9310 H   0  0  0  0  0  0  0  0  0  0  0  0
   36.5930   24.4160   36.1690 H   0  0  0  0  0  0  0  0  0  0  0  0
   39.3950   23.7120   39.0000 H   0  0  0  0  0  0  0  0  0  0  0  0
   38.2080   22.4030   38.4550 H   0  0  0  0  0  0  0  0  0  0  0  0
   40.2090   23.9310   36.8050 H   0  0  0  0  0  0  0  0  0  0  0  0
   38.8720   23.5100   34.6520 O   0  0  0  0  0  0  0  0  0  0  0  0
   39.6650   24.1170   34.8000 H   0  0  0  0  0  0  0  0  0  0  0  0
   38.5210   25.9030   35.9500 S   0  0  0  0  0  0  0  0  0  0  0  0
   36.7290   26.5100   32.4680 C   0  0  0  0  0  0  0  0  0  0  0  0
   36.1140   27.7540   32.5830 C   0  0  0  0  0  0  0  0  0  0  0  0
   36.2610   28.4360   33.7950 C   0  0  0  0  0  0  0  0  0  0  0  0
   36.9870   27.8610   34.7910 N   0  0  0  0  0  0  0  0  0  0  0  0
   37.5700   26.6470   34.6350 C   0  0  0  0  0  0  0  0  0  0  0  0
   37.4480   25.9640   33.4840 N   0  0  0  0  0  0  0  0  0  0  0  0
   36.6210   25.9740   31.5330 H   0  0  0  0  0  0  0  0  0  0  0  0
   35.5410   28.2320   31.8270 H   0  0  0  0  0  0  0  0  0  0  0  0
   35.8410   29.4060   34.0250 H   0  0  0  0  0  0  0  0  0  0  0  0
   40.0990   21.8640   37.0150 O   0  0  0  0  0  0  0  0  0  0  0  0
   41.4580   21.8260   37.2330 C   0  0  0  0  0  2  0  0  0  0  0  0
   42.1170   23.0480   36.5810 C   0  0  0  0  0  2  0  0  0  0  0  0
   43.1860   22.8700   36.3440 H   0  0  0  0  0  0  0  0  0  0  0  0
  1  6  1  6  0  0  0
  1  2  1  0  0  0  0
  1  5  1  0  0  0  0
  2  7  1  6  0  0  0
  2  3  1  0  0  0  0
  3  4  1  0  0  0  0
  4  9  1  0  0  0  0
  4  8  1  0  0  0  0
  5 10  1  6  0  0  0
  5 23  1  0  0  0  0
  5  4  1  0  0  0  0
 11 12  1  0  0  0  0
 11  1  1  0  0  0  0
 13  2  1  0  0  0  0
 14 15  2  0  0  0  0
 14 19  1  0  0  0  0
 15 16  1  0  0  0  0
 16 22  1  0  0  0  0
 16 17  2  0  0  0  0
 18 17  1  0  0  0  0
 18 13  1  0  0  0  0
 19 18  2  0  0  0  0
 20 14  1  0  0  0  0
 21 15  1  0  0  0  0
 23 24  1  0  0  0  0
 25 24  1  0  0  0  0
 26 25  1  0  0  0  0
M  END
>  <minimizedAffinity>
-4.00889301

$$$$

 OpenBabel03272506443D

 26 27  0  0  1  0  0  0  0  0999 V2000
   38.9020   26.5620   35.5520 C   0  0  2  0  0  0  0  0  0  0  0  0
   38.3360   26.8140   34.1720 C   0  0  1  0  0  0  0  0  0  0  0  0
   38.0210   25.5920   33.6130 O   0  0  0  0  0  0  0  0  0  0  0  0
   38.1240   24.6200   34.5770 C   0  0  0  0  0  0  0  0  0  0  0  0
   38.1060   25.3520   35.9330 C   0  0  1  0  0  0  0  0  0  0  0  0
   39.9750   26.3520   35.4540 H   0  0  0  0  0  0  0  0  0  0  0  0
   39.0440   27.4200   33.5500 H   0  0  0  0  0  0  0  0  0  0  0  0
   37.2750   23.9150   34.5250 H   0  0  0  0  0  0  0  0  0  0  0  0
   39.1140   24.1150   34.5260 H   0  0  0  0  0  0  0  0  0  0  0  0
   37.0580   25.6340   36.1140 H   0  0  0  0  0  0  0  0  0  0  0  0
   38.6420   27.6360   36.3970 O   0  0  0  0  0  0  0  0  0  0  0  0
   37.6620   27.5630   36.6270 H   0  0  0  0  0  0  0  0  0  0  0  0
   36.7710   27.7360   34.3910 S   0  0  0  0  0  0  0  0  0  0  0  0
   36.9880   29.1390   30.6920 C   0  0  0  0  0  0  0  0  0  0  0  0
   35.9850   30.1010   30.6040 C   0  0  0  0  0  0  0  0  0  0  0  0
   35.2060   30.3250   31.7430 C   0  0  0  0  0  0  0  0  0  0  0  0
   35.4600   29.6040   32.8680 N   0  0  0  0  0  0  0  0  0  0  0  0
   36.4480   28.6770   32.9090 C   0  0  0  0  0  0  0  0  0  0  0  0
   37.2150   28.4350   31.8320 N   0  0  0  0  0  0  0  0  0  0  0  0
   37.5970   28.9590   29.8140 H   0  0  0  0  0  0  0  0  0  0  0  0
   35.7600   30.6830   29.7430 H   0  0  0  0  0  0  0  0  0  0  0  0
   34.3960   31.0390   31.8210 H   0  0  0  0  0  0  0  0  0  0  0  0
   38.6560   24.5440   36.8800 O   0  0  0  0  0  0  0  0  0  0  0  0
   39.3870   23.4600   36.4470 C   0  0  0  0  0  2  0  0  0  0  0  0
   40.0200   22.7530   37.6520 C   0  0  0  0  0  2  0  0  0  0  0  0
   40.9240   22.1760   37.3720 H   0  0  0  0  0  0  0  0  0  0  0  0
  1  6  1  6  0  0  0
  1  5  1  0  0  0  0
  1 11  1  0  0  0  0
  2  7  1  6  0  0  0
  2 13  1  0  0  0  0
  2  1  1  0  0  0  0
  3  2  1  0  0  0  0
  3  4  1  0  0  0  0
  4  5  1  0  0  0  0
  5 10  1  1  0  0  0
  5 23  1  0  0  0  0
  8  4  1  0  0  0  0
  9  4  1  0  0  0  0
 11 12  1  0  0  0  0
 14 19  1  0  0  0  0
 15 14  2  0  0  0  0
 15 16  1  0  0  0  0
 16 22  1  0  0  0  0
 16 17  2  0  0  0  0
 17 18  1  0  0  0  0
 18 13  1  0  0  0  0
 19 18  2  0  0  0  0
 20 14  1  0  0  0  0
 21 15  1  0  0  0  0
 24 23  1  0  0  0  0
 24 25  1  0  0  0  0
 26 25  1  0  0  0  0
M  END
>  <minimizedAffinity>
-3.98252869

$$$$

 OpenBabel03272506443D

 26 27  0  0  1  0  0  0  0  0999 V2000
   38.8910   27.0650   35.7770 C   0  0  2  0  0  0  0  0  0  0  0  0
   39.4650   26.9370   34.3840 C   0  0  1  0  0  0  0  0  0  0  0  0
   39.8720   25.6300   34.2110 O   0  0  0  0  0  0  0  0  0  0  0  0
   39.4140   24.8770   35.2640 C   0  0  0  0  0  0  0  0  0  0  0  0
   38.2950   25.6990   35.9290 C   0  0  1  0  0  0  0  0  0  0  0  0
   39.7150   27.2490   36.4770 H   0  0  0  0  0  0  0  0  0  0  0  0
   40.2830   27.6850   34.2140 H   0  0  0  0  0  0  0  0  0  0  0  0
   39.0080   23.9110   34.9150 H   0  0  0  0  0  0  0  0  0  0  0  0
   40.2010   24.7630   36.0420 H   0  0  0  0  0  0  0  0  0  0  0  0
   37.4130   25.6000   35.2780 H   0  0  0  0  0  0  0  0  0  0  0  0
   37.9180   28.0590   35.8220 O   0  0  0  0  0  0  0  0  0  0  0  0
   37.1090   27.6620   35.3680 H   0  0  0  0  0  0  0  0  0  0  0  0
   38.0990   27.2460   33.2070 S   0  0  0  0  0  0  0  0  0  0  0  0
   38.5110   24.5820   30.3030 C   0  0  0  0  0  0  0  0  0  0  0  0
   37.5850   23.5820   30.5870 C   0  0  0  0  0  0  0  0  0  0  0  0
   36.7980   23.7400   31.7320 C   0  0  0  0  0  0  0  0  0  0  0  0
   36.9700   24.8470   32.5030 N   0  0  0  0  0  0  0  0  0  0  0  0
   37.8830   25.7970   32.1870 C   0  0  0  0  0  0  0  0  0  0  0  0
   38.6570   25.6770   31.0950 N   0  0  0  0  0  0  0  0  0  0  0  0
   39.1260   24.4690   29.4180 H   0  0  0  0  0  0  0  0  0  0  0  0
   37.4240   22.7050   30.0080 H   0  0  0  0  0  0  0  0  0  0  0  0
   36.0410   23.0460   32.0750 H   0  0  0  0  0  0  0  0  0  0  0  0
   38.1190   25.2580   37.2050 O   0  0  0  0  0  0  0  0  0  0  0  0
   37.8730   23.9160   37.3870 C   0  0  0  0  0  2  0  0  0  0  0  0
   38.6380   23.4150   38.6190 C   0  0  0  0  0  2  0  0  0  0  0  0
   38.8340   22.3250   38.5750 H   0  0  0  0  0  0  0  0  0  0  0  0
  1 11  1  0  0  0  0
  1  5  1  0  0  0  0
  1  6  1  1  0  0  0
  2  7  1  6  0  0  0
  2  1  1  0  0  0  0
  3  2  1  0  0  0  0
  3  4  1  0  0  0  0
  4  5  1  0  0  0  0
  4  9  1  0  0  0  0
  5 10  1  6  0  0  0
  5 23  1  0  0  0  0
  8  4  1  0  0  0  0
 12 11  1  0  0  0  0
 13  2  1  0  0  0  0
 14 15  2  0  0  0  0
 14 19  1  0  0  0  0
 15 16  1  0  0  0  0
 16 22  1  0  0  0  0
 16 17  2  0  0  0  0
 18 17  1  0  0  0  0
 18 13  1  0  0  0  0
 19 18  2  0  0  0  0
 20 14  1  0  0  0  0
 21 15  1  0  0  0  0
 23 24  1  0  0  0  0
 24 25  1  0  0  0  0
 26 25  1  0  0  0  0
M  END
>  <minimizedAffinity>
-3.97664714

$$$$

 OpenBabel03272506443D

 26 27  0  0  1  0  0  0  0  0999 V2000
   37.1640   26.7530   33.6490 C   0  0  2  0  0  0  0  0  0  0  0  0
   37.5580   25.2950   33.5680 C   0  0  1  0  0  0  0  0  0  0  0  0
   37.6670   24.9580   32.2340 O   0  0  0  0  0  0  0  0  0  0  0  0
   37.6000   26.1020   31.4780 C   0  0  0  0  0  0  0  0  0  0  0  0
   37.8790   27.2730   32.4400 C   0  0  1  0  0  0  0  0  0  0  0  0
   36.0730   26.8230   33.5610 H   0  0  0  0  0  0  0  0  0  0  0  0
   36.8350   24.6500   34.1330 H   0  0  0  0  0  0  0  0  0  0  0  0
   38.3570   26.0940   30.6740 H   0  0  0  0  0  0  0  0  0  0  0  0
   36.5660   26.2680   31.1010 H   0  0  0  0  0  0  0  0  0  0  0  0
   38.9650   27.2720   32.6160 H   0  0  0  0  0  0  0  0  0  0  0  0
   37.6470   27.3300   34.8200 O   0  0  0  0  0  0  0  0  0  0  0  0
   38.6360   27.4560   34.6680 H   0  0  0  0  0  0  0  0  0  0  0  0
   39.2230   25.1420   34.3090 S   0  0  0  0  0  0  0  0  0  0  0  0
   37.9300   24.2780   37.9540 C   0  0  0  0  0  0  0  0  0  0  0  0
   38.7840   23.2830   38.4210 C   0  0  0  0  0  0  0  0  0  0  0  0
   39.8080   22.8610   37.5680 C   0  0  0  0  0  0  0  0  0  0  0  0
   39.9210   23.4330   36.3390 N   0  0  0  0  0  0  0  0  0  0  0  0
   39.0660   24.4000   35.9250 C   0  0  0  0  0  0  0  0  0  0  0  0
   38.0690   24.8290   36.7190 N   0  0  0  0  0  0  0  0  0  0  0  0
   37.1330   24.6120   38.6080 H   0  0  0  0  0  0  0  0  0  0  0  0
   38.7260   22.8160   39.3740 H   0  0  0  0  0  0  0  0  0  0  0  0
   40.5440   22.1010   37.7960 H   0  0  0  0  0  0  0  0  0  0  0  0
   37.3860   28.4200   31.8970 O   0  0  0  0  0  0  0  0  0  0  0  0
   36.0200   28.5940   31.9090 C   0  0  0  0  0  2  0  0  0  0  0  0
   35.6620   29.9010   31.1900 C   0  0  0  0  0  2  0  0  0  0  0  0
   34.6870   30.3090   31.5230 H   0  0  0  0  0  0  0  0  0  0  0  0
  1  6  1  6  0  0  0
  1 11  1  0  0  0  0
  2  1  1  0  0  0  0
  2  7  1  1  0  0  0
  2 13  1  0  0  0  0
  3  2  1  0  0  0  0
  4  3  1  0  0  0  0
  4  5  1  0  0  0  0
  5 10  1  1  0  0  0
  5  1  1  0  0  0  0
  8  4  1  0  0  0  0
  9  4  1  0  0  0  0
 12 11  1  0  0  0  0
 13 18  1  0  0  0  0
 14 15  1  0  0  0  0
 14 20  1  0  0  0  0
 15 21  1  0  0  0  0
 16 22  1  0  0  0  0
 16 15  2  0  0  0  0
 17 16  1  0  0  0  0
 18 17  2  0  0  0  0
 18 19  1  0  0  0  0
 19 14  2  0  0  0  0
 23 24  1  0  0  0  0
 23  5  1  0  0  0  0
 25 26  1  0  0  0  0
 25 24  1  0  0  0  0
M  END
>  <minimizedAffinity>
-3.85322571

$$$$

 OpenBabel03272506443D

 26 27  0  0  1  0  0  0  0  0999 V2000
   36.9130   26.7080   31.2210 C   0  0  2  0  0  0  0  0  0  0  0  0
   37.2120   25.2510   31.4940 C   0  0  1  0  0  0  0  0  0  0  0  0
   37.5240   25.1260   32.8330 O   0  0  0  0  0  0  0  0  0  0  0  0
   37.2380   26.3080   33.4700 C   0  0  0  0  0  0  0  0  0  0  0  0
   36.2980   27.0890   32.5330 C   0  0  1  0  0  0  0  0  0  0  0  0
   37.8600   27.2270   31.0290 H   0  0  0  0  0  0  0  0  0  0  0  0
   38.0140   24.8690   30.8110 H   0  0  0  0  0  0  0  0  0  0  0  0
   36.7340   26.1280   34.4360 H   0  0  0  0  0  0  0  0  0  0  0  0
   38.1510   26.9380   33.5660 H   0  0  0  0  0  0  0  0  0  0  0  0
   35.3070   26.6200   32.6330 H   0  0  0  0  0  0  0  0  0  0  0  0
   36.0080   26.8390   30.1720 O   0  0  0  0  0  0  0  0  0  0  0  0
   35.1130   26.5770   30.5570 H   0  0  0  0  0  0  0  0  0  0  0  0
   35.6650   24.3190   31.2030 S   0  0  0  0  0  0  0  0  0  0  0  0
   37.3360   20.7270   31.2570 C   0  0  0  0  0  0  0  0  0  0  0  0
   36.4750   19.9310   32.0080 C   0  0  0  0  0  0  0  0  0  0  0  0
   35.3240   20.5360   32.5220 C   0  0  0  0  0  0  0  0  0  0  0  0
   35.1020   21.8540   32.2680 N   0  0  0  0  0  0  0  0  0  0  0  0
   35.9680   22.5900   31.5300 C   0  0  0  0  0  0  0  0  0  0  0  0
   37.0840   22.0420   31.0210 N   0  0  0  0  0  0  0  0  0  0  0  0
   38.2310   20.2670   30.8540 H   0  0  0  0  0  0  0  0  0  0  0  0
   36.6170   18.9010   32.2260 H   0  0  0  0  0  0  0  0  0  0  0  0
   34.5690   20.0430   33.1200 H   0  0  0  0  0  0  0  0  0  0  0  0
   36.3440   28.4100   32.8580 O   0  0  0  0  0  0  0  0  0  0  0  0
   35.9750   28.7650   34.1360 C   0  0  0  0  0  2  0  0  0  0  0  0
   35.5330   30.2340   34.1540 C   0  0  0  0  0  2  0  0  0  0  0  0
   35.6390   30.6910   35.1580 H   0  0  0  0  0  0  0  0  0  0  0  0
  1  6  1  6  0  0  0
  1  2  1  0  0  0  0
  1  5  1  0  0  0  0
  2  7  1  6  0  0  0
  2  3  1  0  0  0  0
  3  4  1  0  0  0  0
  4  9  1  0  0  0  0
  4  8  1  0  0  0  0
  5 10  1  1  0  0  0
  5 23  1  0  0  0  0
  5  4  1  0  0  0  0
 11 12  1  0  0  0  0
 11  1  1  0  0  0  0
 13  2  1  0  0  0  0
 13 18  1  0  0  0  0
 14 15  1  0  0  0  0
 15 21  1  0  0  0  0
 15 16  2  0  0  0  0
 16 22  1  0  0  0  0
 17 16  1  0  0  0  0
 18 17  2  0  0  0  0
 19 14  2  0  0  0  0
 19 18  1  0  0  0  0
 20 14  1  0  0  0  0
 23 24  1  0  0  0  0
 24 25  1  0  0  0  0
 25 26  1  0  0  0  0
M  END
>  <minimizedAffinity>
-3.80568886

$$$$

 OpenBabel03272506443D

 26 27  0  0  1  0  0  0  0  0999 V2000
   38.8500   27.0450   33.2090 C   0  0  2  0  0  0  0  0  0  0  0  0
   39.6540   26.3490   34.2850 C   0  0  1  0  0  0  0  0  0  0  0  0
   39.2730   26.8710   35.5040 O   0  0  0  0  0  0  0  0  0  0  0  0
   38.1620   27.6590   35.3240 C   0  0  0  0  0  0  0  0  0  0  0  0
   37.5720   27.2680   33.9560 C   0  0  1  0  0  0  0  0  0  0  0  0
   39.3580   27.9810   32.9460 H   0  0  0  0  0  0  0  0  0  0  0  0
   40.7540   26.4370   34.0870 H   0  0  0  0  0  0  0  0  0  0  0  0
   37.4140   27.4800   36.1170 H   0  0  0  0  0  0  0  0  0  0  0  0
   38.4480   28.7310   35.2290 H   0  0  0  0  0  0  0  0  0  0  0  0
   37.0530   26.3100   34.1090 H   0  0  0  0  0  0  0  0  0  0  0  0
   38.6650   26.2090   32.1120 O   0  0  0  0  0  0  0  0  0  0  0  0
   37.9690   25.5380   32.4020 H   0  0  0  0  0  0  0  0  0  0  0  0
   39.1680   24.5860   34.2670 S   0  0  0  0  0  0  0  0  0  0  0  0
   37.7420   23.8760   37.8960 C   0  0  0  0  0  0  0  0  0  0  0  0
   38.7400   23.1580   38.5490 C   0  0  0  0  0  0  0  0  0  0  0  0
   39.9090   22.8810   37.8320 C   0  0  0  0  0  0  0  0  0  0  0  0
   40.0140   23.3190   36.5490 N   0  0  0  0  0  0  0  0  0  0  0  0
   39.0170   24.0160   35.9530 C   0  0  0  0  0  0  0  0  0  0  0  0
   37.8800   24.3000   36.6110 N   0  0  0  0  0  0  0  0  0  0  0  0
   36.8330   24.0960   38.4430 H   0  0  0  0  0  0  0  0  0  0  0  0
   38.6920   22.8010   39.5490 H   0  0  0  0  0  0  0  0  0  0  0  0
   40.7630   22.3360   38.2100 H   0  0  0  0  0  0  0  0  0  0  0  0
   36.7830   28.2830   33.5080 O   0  0  0  0  0  0  0  0  0  0  0  0
   35.8960   28.0000   32.4930 C   0  0  0  0  0  2  0  0  0  0  0  0
   34.9660   29.2000   32.2730 C   0  0  0  0  0  2  0  0  0  0  0  0
   34.0030   28.9040   31.8100 H   0  0  0  0  0  0  0  0  0  0  0  0
  1  6  1  6  0  0  0
  1  5  1  0  0  0  0
  1  2  1  0  0  0  0
  2  7  1  6  0  0  0
  2  3  1  0  0  0  0
  4  3  1  0  0  0  0
  4  8  1  0  0  0  0
  5 10  1  1  0  0  0
  5  4  1  0  0  0  0
  9  4  1  0  0  0  0
 11 12  1  0  0  0  0
 11  1  1  0  0  0  0
 13  2  1  0  0  0  0
 13 18  1  0  0  0  0
 14 20  1  0  0  0  0
 14 15  1  0  0  0  0
 15 21  1  0  0  0  0
 16 22  1  0  0  0  0
 16 15  2  0  0  0  0
 17 16  1  0  0  0  0
 18 17  2  0  0  0  0
 18 19  1  0  0  0  0
 19 14  2  0  0  0  0
 23  5  1  0  0  0  0
 24 23  1  0  0  0  0
 25 24  1  0  0  0  0
 26 25  1  0  0  0  0
M  END
>  <minimizedAffinity>
-3.77743387

$$$$

 OpenBabel03272506443D

 26 27  0  0  1  0  0  0  0  0999 V2000
   38.1310   25.6890   32.4290 C   0  0  2  0  0  0  0  0  0  0  0  0
   38.9810   25.1780   33.5710 C   0  0  1  0  0  0  0  0  0  0  0  0
   38.9430   26.1170   34.5810 O   0  0  0  0  0  0  0  0  0  0  0  0
   37.9870   27.0560   34.2820 C   0  0  0  0  0  0  0  0  0  0  0  0
   37.0840   26.4260   33.2050 C   0  0  1  0  0  0  0  0  0  0  0  0
   38.7460   26.3520   31.8080 H   0  0  0  0  0  0  0  0  0  0  0  0
   40.0190   24.9360   33.2250 H   0  0  0  0  0  0  0  0  0  0  0  0
   37.3830   27.3080   35.1720 H   0  0  0  0  0  0  0  0  0  0  0  0
   38.4440   27.9490   33.7990 H   0  0  0  0  0  0  0  0  0  0  0  0
   36.4330   25.7100   33.7310 H   0  0  0  0  0  0  0  0  0  0  0  0
   37.5880   24.6310   31.7060 O   0  0  0  0  0  0  0  0  0  0  0  0
   36.8460   24.2650   32.2850 H   0  0  0  0  0  0  0  0  0  0  0  0
   38.1780   23.6610   34.2040 S   0  0  0  0  0  0  0  0  0  0  0  0
   39.7790   22.8340   37.7330 C   0  0  0  0  0  0  0  0  0  0  0  0
   38.9090   23.3840   38.6700 C   0  0  0  0  0  0  0  0  0  0  0  0
   37.7740   24.0430   38.1860 C   0  0  0  0  0  0  0  0  0  0  0  0
   37.5750   24.1130   36.8420 N   0  0  0  0  0  0  0  0  0  0  0  0
   38.4500   23.5610   35.9660 C   0  0  0  0  0  0  0  0  0  0  0  0
   39.5510   22.9220   36.3960 N   0  0  0  0  0  0  0  0  0  0  0  0
   40.6610   22.3220   38.0990 H   0  0  0  0  0  0  0  0  0  0  0  0
   39.0320   23.3480   39.7250 H   0  0  0  0  0  0  0  0  0  0  0  0
   37.0140   24.5160   38.7940 H   0  0  0  0  0  0  0  0  0  0  0  0
   36.4280   27.4160   32.5400 O   0  0  0  0  0  0  0  0  0  0  0  0
   37.1890   28.3240   31.8370 C   0  0  0  0  0  2  0  0  0  0  0  0
   36.2750   29.2010   30.9730 C   0  0  0  0  0  2  0  0  0  0  0  0
   36.8090   29.6290   30.1000 H   0  0  0  0  0  0  0  0  0  0  0  0
  1  6  1  6  0  0  0
  1  5  1  0  0  0  0
  1  2  1  0  0  0  0
  2  7  1  6  0  0  0
  2 13  1  0  0  0  0
  2  3  1  0  0  0  0
  4  3  1  0  0  0  0
  4  8  1  0  0  0  0
  5 10  1  1  0  0  0
  5  4  1  0  0  0  0
  9  4  1  0  0  0  0
 11 12  1  0  0  0  0
 11  1  1  0  0  0  0
 13 18  1  0  0  0  0
 14 20  1  0  0  0  0
 14 15  1  0  0  0  0
 15 21  1  0  0  0  0
 16 15  2  0  0  0  0
 16 22  1  0  0  0  0
 17 16  1  0  0  0  0
 18 19  1  0  0  0  0
 18 17  2  0  0  0  0
 19 14  2  0  0  0  0
 23  5  1  0  0  0  0
 24 23  1  0  0  0  0
 25 24  1  0  0  0  0
 26 25  1  0  0  0  0
M  END
>  <minimizedAffinity>
-3.76490068

$$$$
