
 OpenBabel03272503463D

 18 18  0  0  0  0  0  0  0  0999 V2000
   35.6790   30.5810   49.7390 C   0  0  0  0  0  0  0  0  0  0  0  0
   36.1070   29.6110   50.6580 C   0  0  0  0  0  0  0  0  0  0  0  0
   37.4130   29.6660   51.1240 C   0  0  0  0  0  0  0  0  0  0  0  0
   38.2340   30.6570   50.6770 N   0  0  0  0  0  0  0  0  0  0  0  0
   37.7850   31.5900   49.7790 C   0  0  0  0  0  0  0  0  0  0  0  0
   36.5130   31.5520   49.3110 N   0  0  0  0  0  0  0  0  0  0  0  0
   35.3640   28.8750   50.9370 H   0  0  0  0  0  0  0  0  0  0  0  0
   37.6880   28.9080   51.8190 H   0  0  0  0  0  0  0  0  0  0  0  0
   38.5040   32.3440   49.4760 H   0  0  0  0  0  0  0  0  0  0  0  0
   34.4200   30.6630   49.1820 O   0  0  0  0  0  0  0  0  0  0  0  0
   35.2880   29.6770   46.8430 O   0  0  0  0  0  0  0  0  0  0  0  0
   34.0410   29.9690   47.6520 P   0  0  2  0  0  0  0  0  0  0  0  0
   33.1100   31.0560   46.7550 O   0  0  0  0  0  0  0  0  0  0  0  0
   33.7020   31.6630   46.2390 H   0  0  0  0  0  0  0  0  0  0  0  0
   33.1710   28.5510   47.9960 O   0  0  0  0  0  0  0  0  0  0  0  0
   34.1380   27.5600   48.2380 C   0  0  0  0  0  0  0  0  0  0  0  0
   33.7350   26.2940   47.5020 C   0  0  0  0  0  0  0  0  0  0  0  0
   34.1150   26.3900   46.4690 H   0  0  0  0  0  0  0  0  0  0  0  0
  1  2  1  0  0  0  0
  2  7  1  0  0  0  0
  2  3  2  0  0  0  0
  3  8  1  0  0  0  0
  4  3  1  0  0  0  0
  5  4  2  0  0  0  0
  6  1  2  0  0  0  0
  6  5  1  0  0  0  0
  9  5  1  0  0  0  0
 10  1  1  0  0  0  0
 12 11  2  6  0  0  0
 12 15  1  0  0  0  0
 12 10  1  0  0  0  0
 13 12  1  0  0  0  0
 14 13  1  0  0  0  0
 15 16  1  0  0  0  0
 17 16  1  0  0  0  0
 18 17  1  0  0  0  0
M  END
>  <minimizedAffinity>
-3.83472562

>  <minimizedRMSD>
0.865513682

$$$$
