
 OpenBabel03272510243D

 26 28  0  0  0  0  0  0  0  0999 V2000
   36.9520   30.5940   46.8600 C   0  0  0  0  0  0  0  0  0  0  0  0
   37.5900   31.0740   47.9960 C   0  0  0  0  0  0  0  0  0  0  0  0
   38.5850   32.0430   47.9090 C   0  0  0  0  0  0  0  0  0  0  0  0
   38.8970   32.4940   46.6320 C   0  0  0  0  0  0  0  0  0  0  0  0
   39.8210   33.4250   46.2840 N   0  0  0  0  0  0  0  0  0  0  0  0
   39.7690   33.5310   44.9540 C   0  0  0  0  0  0  0  0  0  0  0  0
   38.8540   32.7100   44.4380 N   0  0  0  0  0  0  0  0  0  0  0  0
   38.2890   32.0450   45.4730 C   0  0  0  0  0  0  0  0  0  0  0  0
   37.2970   31.0740   45.5970 C   0  0  0  0  0  0  0  0  0  0  0  0
   36.1860   29.8540   46.8750 H   0  0  0  0  0  0  0  0  0  0  0  0
   39.0810   32.4190   48.7890 H   0  0  0  0  0  0  0  0  0  0  0  0
   40.4550   33.9580   46.9430 H   0  0  0  0  0  0  0  0  0  0  0  0
   36.8040   30.7050   44.7040 H   0  0  0  0  0  0  0  0  0  0  0  0
   37.3750   30.0970   51.6280 C   0  0  0  0  0  0  0  0  0  0  0  0
   37.8560   30.6600   50.4630 C   0  0  0  0  0  0  0  0  0  0  0  0
   37.1760   30.5260   49.2730 C   0  0  0  0  0  0  0  0  0  0  0  0
   36.0220   29.8160   49.3180 N   0  0  0  0  0  0  0  0  0  0  0  0
   35.5500   29.2650   50.4640 C   0  0  0  0  0  0  0  0  0  0  0  0
   36.2250   29.4060   51.6040 N   0  0  0  0  0  0  0  0  0  0  0  0
   37.9880   30.2630   52.5050 H   0  0  0  0  0  0  0  0  0  0  0  0
   38.7790   31.2220   50.4490 H   0  0  0  0  0  0  0  0  0  0  0  0
   34.6100   28.7010   50.4350 H   0  0  0  0  0  0  0  0  0  0  0  0
   40.6010   34.4160   44.2480 O   0  0  0  0  0  0  0  0  0  0  0  0
   40.0980   35.0950   43.1050 C   0  0  0  0  0  2  0  0  0  0  0  0
   40.9540   36.3250   42.8830 C   0  0  0  0  0  2  0  0  0  0  0  0
   41.4930   36.6450   43.8050 H   0  0  0  0  0  0  0  0  0  0  0  0
  1 10  1  0  0  0  0
  1  2  1  0  0  0  0
  2 16  1  0  0  0  0
  3  2  2  0  0  0  0
  3 11  1  0  0  0  0
  4  3  1  0  0  0  0
  5  4  1  0  0  0  0
  5 12  1  0  0  0  0
  6  5  1  0  0  0  0
  7  6  2  0  0  0  0
  7  8  1  0  0  0  0
  8  9  1  0  0  0  0
  8  4  2  0  0  0  0
  9  1  2  0  0  0  0
 13  9  1  0  0  0  0
 14 20  1  0  0  0  0
 15 14  2  0  0  0  0
 16 17  2  0  0  0  0
 16 15  1  0  0  0  0
 17 18  1  0  0  0  0
 18 19  2  0  0  0  0
 19 14  1  0  0  0  0
 21 15  1  0  0  0  0
 22 18  1  0  0  0  0
 23  6  1  0  0  0  0
 24 23  1  0  0  0  0
 25 24  1  0  0  0  0
 25 26  1  0  0  0  0
M  END
>  <minimizedAffinity>
-4.15840483

>  <minimizedRMSD>
0.369999588

$$$$
