
 OpenBabel03272509173D

 27 28  0  0  0  0  0  0  0  0999 V2000
   38.0030   31.3600   47.6510 C   0  0  0  0  0  0  0  0  0  0  0  0
   37.0720   31.3090   48.6720 C   0  0  0  0  0  0  0  0  0  0  0  0
   37.1950   32.3470   49.5930 C   0  0  0  0  0  0  0  0  0  0  0  0
   38.1750   33.3330   49.4730 C   0  0  0  0  0  0  0  0  0  0  0  0
   39.0730   33.2920   48.3970 C   0  0  0  0  0  0  0  0  0  0  0  0
   38.9640   32.2790   47.4850 C   0  0  0  0  0  0  0  0  0  0  0  0
   36.5070   32.3900   50.4280 H   0  0  0  0  0  0  0  0  0  0  0  0
   38.2580   34.1330   50.1950 H   0  0  0  0  0  0  0  0  0  0  0  0
   39.8340   34.0540   48.3000 H   0  0  0  0  0  0  0  0  0  0  0  0
   34.9280   30.3370   47.9910 C   0  0  0  0  0  0  0  0  0  0  0  0
   36.0680   30.2980   48.7950 C   0  0  0  0  0  0  0  0  0  0  0  0
   36.1850   29.2450   49.7130 C   0  0  0  0  0  0  0  0  0  0  0  0
   35.1880   28.3300   49.7650 N   0  0  0  0  0  0  0  0  0  0  0  0
   34.0920   28.4000   48.9650 C   0  0  0  0  0  0  0  0  0  0  0  0
   33.9660   29.4060   48.0790 N   0  0  0  0  0  0  0  0  0  0  0  0
   34.8570   31.1580   47.2890 H   0  0  0  0  0  0  0  0  0  0  0  0
   33.3160   27.6490   49.0360 H   0  0  0  0  0  0  0  0  0  0  0  0
   37.3630   29.1460   50.5900 C   0  0  0  0  0  0  0  0  0  0  0  0
   38.1570   29.8160   50.2020 H   0  0  0  0  0  0  0  0  0  0  0  0
   37.1740   29.3890   51.6510 H   0  0  0  0  0  0  0  0  0  0  0  0
   37.7120   28.0770   50.5090 H   0  0  0  0  0  0  0  0  0  0  0  0
   37.9620   30.3430   46.6590 O   0  0  0  0  0  0  0  0  0  0  0  0
   37.4740   30.4920   45.7810 H   0  0  0  0  0  0  0  0  0  0  0  0
   39.8730   32.2660   46.4210 O   0  0  0  0  0  0  0  0  0  0  0  0
   40.1370   33.3740   45.6230 C   0  0  0  0  0  2  0  0  0  0  0  0
   39.6900   33.0520   44.1920 C   0  0  0  0  0  2  0  0  0  0  0  0
   38.5950   33.1320   44.1110 H   0  0  0  0  0  0  0  0  0  0  0  0
  1  2  1  0  0  0  0
  2 11  1  0  0  0  0
  2  3  2  0  0  0  0
  3  7  1  0  0  0  0
  4  3  1  0  0  0  0
  4  8  1  0  0  0  0
  5  4  2  0  0  0  0
  6  1  2  0  0  0  0
  6  5  1  0  0  0  0
  9  5  1  0  0  0  0
 10 15  2  0  0  0  0
 10 11  1  0  0  0  0
 11 12  2  0  0  0  0
 12 13  1  0  0  0  0
 12 18  1  0  0  0  0
 14 17  1  0  0  0  0
 14 13  2  0  0  0  0
 15 14  1  0  0  0  0
 16 10  1  0  0  0  0
 18 20  1  0  0  0  0
 19 18  1  0  0  0  0
 21 18  1  0  0  0  0
 22  1  1  0  0  0  0
 23 22  1  0  0  0  0
 24  6  1  0  0  0  0
 25 24  1  0  0  0  0
 26 25  1  0  0  0  0
 27 26  1  0  0  0  0
M  END
>  <minimizedAffinity>
-5.8688736

>  <minimizedRMSD>
0.491025597

$$$$
