
     RDKit          3D

 17 17  0  0  0  0  0  0  0  0999 V2000
   37.3251   30.2305   51.4130 C   0  0  0  0  0  0  0  0  0  0  0  0
   38.0744   30.7335   50.3441 C   0  0  0  0  0  0  0  0  0  0  0  0
   37.6995   30.3742   49.0455 C   0  0  0  0  0  0  0  0  0  0  0  0
   36.6152   29.5476   48.9145 N   0  0  0  0  0  0  0  0  0  0  0  0
   35.9198   29.0842   49.9655 C   0  0  0  0  0  0  0  0  0  0  0  0
   36.2858   29.4338   51.2135 N   0  0  0  0  0  0  0  0  0  0  0  0
   34.8721   28.2711   49.5931 O   0  0  0  0  0  0  0  0  0  0  0  0
   37.6001   30.4982   52.4361 H   0  0  0  0  0  0  0  0  0  0  0  0
   38.9220   31.3819   50.4844 H   0  0  0  0  0  0  0  0  0  0  0  0
   38.2633   30.7516   48.2222 H   0  0  0  0  0  0  0  0  0  0  0  0
   34.0596   27.7173   50.6125 C   0  0  0  0  0  0  0  0  0  0  0  0
   34.0054   28.6271   51.8072 C   0  0  0  0  0  0  0  0  0  0  0  0
   33.3206   29.4712   51.6496 H   0  0  0  0  0  0  0  0  0  0  0  0
   34.5076   26.7427   50.8910 H   0  0  0  0  0  0  0  0  0  0  0  0
   33.0120   27.6166   50.2353 H   0  0  0  0  0  0  0  0  0  0  0  0
   35.0429   29.0026   52.0481 H   0  0  0  0  0  0  0  0  0  0  0  0
   33.6104   28.0184   52.6651 H   0  0  0  0  0  0  0  0  0  0  0  0
  2  1  2  0
  3  2  1  0
  4  3  2  0
  4  5  1  0
  5  6  2  0
  6  1  1  0
  7  5  1  0
  1  8  1  0
  2  9  1  0
  3 10  1  0
 11 12  1  0
 12 13  1  0
 11 14  1  0
 11 15  1  0
 12 16  1  0
 12 17  1  0
  7 11  1  0
M  ISO  4   8  14   9  14  10  14  13   8
M  END
>  <DihAtoms>  (1) 
4,6,10,11

>  <DihDeg>  (1) 
-60.00269600174173

$$$$
