
 OpenBabel03272509173D

 27 28  0  0  0  0  0  0  0  0999 V2000
   38.0030   31.3610   47.6500 C   0  0  0  0  0  0  0  0  0  0  0  0
   37.0740   31.3100   48.6710 C   0  0  0  0  0  0  0  0  0  0  0  0
   37.1970   32.3480   49.5920 C   0  0  0  0  0  0  0  0  0  0  0  0
   38.1770   33.3340   49.4710 C   0  0  0  0  0  0  0  0  0  0  0  0
   39.0740   33.2930   48.3950 C   0  0  0  0  0  0  0  0  0  0  0  0
   38.9640   32.2800   47.4830 C   0  0  0  0  0  0  0  0  0  0  0  0
   36.5090   32.3900   50.4280 H   0  0  0  0  0  0  0  0  0  0  0  0
   38.2600   34.1330   50.1940 H   0  0  0  0  0  0  0  0  0  0  0  0
   39.8350   34.0550   48.2980 H   0  0  0  0  0  0  0  0  0  0  0  0
   34.9290   30.3380   47.9900 C   0  0  0  0  0  0  0  0  0  0  0  0
   36.0690   30.2990   48.7940 C   0  0  0  0  0  0  0  0  0  0  0  0
   36.1860   29.2460   49.7130 C   0  0  0  0  0  0  0  0  0  0  0  0
   35.1890   28.3310   49.7640 N   0  0  0  0  0  0  0  0  0  0  0  0
   34.0930   28.4010   48.9640 C   0  0  0  0  0  0  0  0  0  0  0  0
   33.9670   29.4070   48.0780 N   0  0  0  0  0  0  0  0  0  0  0  0
   34.8580   31.1590   47.2880 H   0  0  0  0  0  0  0  0  0  0  0  0
   33.3170   27.6500   49.0360 H   0  0  0  0  0  0  0  0  0  0  0  0
   37.3640   29.1480   50.5900 C   0  0  0  0  0  0  0  0  0  0  0  0
   38.1580   29.8170   50.2010 H   0  0  0  0  0  0  0  0  0  0  0  0
   37.1750   29.3910   51.6500 H   0  0  0  0  0  0  0  0  0  0  0  0
   37.7130   28.0780   50.5090 H   0  0  0  0  0  0  0  0  0  0  0  0
   37.9610   30.3440   46.6570 O   0  0  0  0  0  0  0  0  0  0  0  0
   37.4730   30.4940   45.7790 H   0  0  0  0  0  0  0  0  0  0  0  0
   39.8730   32.2670   46.4190 O   0  0  0  0  0  0  0  0  0  0  0  0
   40.1320   33.3740   45.6170 C   0  0  0  0  0  0  0  0  0  0  0  0
   39.6800   33.0510   44.1890 C   0  0  0  0  0  0  0  0  0  0  0  0
   38.5830   33.1290   44.1130 H   0  0  0  0  0  0  0  0  0  0  0  0
  1  2  1  0  0  0  0
  2 11  1  0  0  0  0
  2  3  2  0  0  0  0
  3  7  1  0  0  0  0
  4  3  1  0  0  0  0
  4  8  1  0  0  0  0
  5  4  2  0  0  0  0
  6  1  2  0  0  0  0
  6  5  1  0  0  0  0
  9  5  1  0  0  0  0
 10 15  2  0  0  0  0
 10 11  1  0  0  0  0
 11 12  2  0  0  0  0
 12 13  1  0  0  0  0
 12 18  1  0  0  0  0
 14 17  1  0  0  0  0
 14 13  2  0  0  0  0
 15 14  1  0  0  0  0
 16 10  1  0  0  0  0
 18 20  1  0  0  0  0
 19 18  1  0  0  0  0
 21 18  1  0  0  0  0
 22  1  1  0  0  0  0
 23 22  1  0  0  0  0
 24  6  1  0  0  0  0
 25 24  1  0  0  0  0
 26 25  1  0  0  0  0
 27 26  1  0  0  0  0
M  END
>  <minimizedAffinity>
-5.87008381

>  <minimizedRMSD>
0.556847572

$$$$
