
 OpenBabel03272510243D

 26 28  0  0  0  0  0  0  0  0999 V2000
   36.0580   30.1370   46.8710 C   0  0  0  0  0  0  0  0  0  0  0  0
   36.9630   30.7030   47.7580 C   0  0  0  0  0  0  0  0  0  0  0  0
   37.9440   31.5870   47.3200 C   0  0  0  0  0  0  0  0  0  0  0  0
   37.9630   31.8630   45.9590 C   0  0  0  0  0  0  0  0  0  0  0  0
   38.8140   32.6830   45.2900 N   0  0  0  0  0  0  0  0  0  0  0  0
   38.4530   32.6360   44.0050 C   0  0  0  0  0  0  0  0  0  0  0  0
   37.4120   31.8220   43.8240 N   0  0  0  0  0  0  0  0  0  0  0  0
   37.0840   31.3220   45.0380 C   0  0  0  0  0  0  0  0  0  0  0  0
   36.1130   30.4400   45.5110 C   0  0  0  0  0  0  0  0  0  0  0  0
   35.2900   29.4550   47.1570 H   0  0  0  0  0  0  0  0  0  0  0  0
   38.6480   32.0300   48.0060 H   0  0  0  0  0  0  0  0  0  0  0  0
   39.6050   33.2470   45.7120 H   0  0  0  0  0  0  0  0  0  0  0  0
   35.4110   30.0030   44.8100 H   0  0  0  0  0  0  0  0  0  0  0  0
   37.5570   30.2090   51.4460 C   0  0  0  0  0  0  0  0  0  0  0  0
   37.7690   30.6020   50.1390 C   0  0  0  0  0  0  0  0  0  0  0  0
   36.8420   30.3380   49.1560 C   0  0  0  0  0  0  0  0  0  0  0  0
   35.7240   29.6770   49.5470 N   0  0  0  0  0  0  0  0  0  0  0  0
   35.5180   29.2930   50.8310 C   0  0  0  0  0  0  0  0  0  0  0  0
   36.4290   29.5580   51.7670 N   0  0  0  0  0  0  0  0  0  0  0  0
   38.3500   30.4670   52.1360 H   0  0  0  0  0  0  0  0  0  0  0  0
   38.6670   31.1280   49.8470 H   0  0  0  0  0  0  0  0  0  0  0  0
   34.5930   28.7600   51.0850 H   0  0  0  0  0  0  0  0  0  0  0  0
   39.1280   33.3750   43.0190 O   0  0  0  0  0  0  0  0  0  0  0  0
   39.0050   33.0010   41.6530 C   0  0  0  0  0  2  0  0  0  0  0  0
   39.8230   31.7430   41.4430 C   0  0  0  0  0  2  0  0  0  0  0  0
   40.6100   31.6090   42.2190 H   0  0  0  0  0  0  0  0  0  0  0  0
  1 10  1  0  0  0  0
  1  2  1  0  0  0  0
  2 16  1  0  0  0  0
  3  2  2  0  0  0  0
  3 11  1  0  0  0  0
  4  3  1  0  0  0  0
  5 12  1  0  0  0  0
  5  4  1  0  0  0  0
  6  5  1  0  0  0  0
  7  6  2  0  0  0  0
  7  8  1  0  0  0  0
  8  9  1  0  0  0  0
  8  4  2  0  0  0  0
  9  1  2  0  0  0  0
 13  9  1  0  0  0  0
 14 19  1  0  0  0  0
 14 20  1  0  0  0  0
 15 14  2  0  0  0  0
 16 17  2  0  0  0  0
 16 15  1  0  0  0  0
 17 18  1  0  0  0  0
 18 22  1  0  0  0  0
 18 19  2  0  0  0  0
 21 15  1  0  0  0  0
 23  6  1  0  0  0  0
 24 23  1  0  0  0  0
 25 24  1  0  0  0  0
 25 26  1  0  0  0  0
M  END
>  <minimizedAffinity>
-5.01382065

>  <minimizedRMSD>
1.22068727

$$$$
