
 OpenBabel03272508083D

 18 18  0  0  0  0  0  0  0  0999 V2000
   37.3480   30.2290   51.3680 C   0  0  0  0  0  0  0  0  0  0  0  0
   38.0530   30.5860   50.2200 C   0  0  0  0  0  0  0  0  0  0  0  0
   37.5580   30.1860   48.9700 C   0  0  0  0  0  0  0  0  0  0  0  0
   36.4050   29.4660   48.9600 N   0  0  0  0  0  0  0  0  0  0  0  0
   35.7420   29.1330   50.0890 C   0  0  0  0  0  0  0  0  0  0  0  0
   36.2170   29.5160   51.2790 N   0  0  0  0  0  0  0  0  0  0  0  0
   37.8350   30.5980   52.2740 H   0  0  0  0  0  0  0  0  0  0  0  0
   38.9520   31.1440   50.1770 H   0  0  0  0  0  0  0  0  0  0  0  0
   34.8180   28.5520   50.0320 H   0  0  0  0  0  0  0  0  0  0  0  0
   38.0710   30.4180   47.7450 O   0  0  0  0  0  0  0  0  0  0  0  0
   39.0470   32.8740   48.1460 O   0  0  0  0  0  0  0  0  0  0  0  0
   38.7280   31.8370   47.1260 P   0  0  2  0  0  0  0  0  0  0  0  0
   37.7310   32.4770   45.9110 O   0  0  0  0  0  0  0  0  0  0  0  0
   36.7850   32.5420   46.1950 H   0  0  0  0  0  0  0  0  0  0  0  0
   40.1900   31.4350   46.3340 O   0  0  0  0  0  0  0  0  0  0  0  0
   40.3890   32.2500   45.2270 C   0  0  0  0  0  0  0  0  0  0  0  0
   40.4830   31.5050   43.9330 C   0  0  0  0  0  0  0  0  0  0  0  0
   40.0640   30.4830   43.9560 H   0  0  0  0  0  0  0  0  0  0  0  0
  1  7  1  0  0  0  0
  2  1  2  0  0  0  0
  3  2  1  0  0  0  0
  4  3  2  0  0  0  0
  4  5  1  0  0  0  0
  5  6  2  0  0  0  0
  6  1  1  0  0  0  0
  8  2  1  0  0  0  0
  9  5  1  0  0  0  0
 10  3  1  0  0  0  0
 12 10  1  0  0  0  0
 12 11  2  1  0  0  0
 13 14  1  0  0  0  0
 13 12  1  0  0  0  0
 15 12  1  0  0  0  0
 16 15  1  0  0  0  0
 17 18  1  0  0  0  0
 17 16  1  0  0  0  0
M  END
>  <minimizedAffinity>
-4.60785818

>  <minimizedRMSD>
0.351721108

$$$$
