
 OpenBabel03272505263D

 25 26  0  0  0  0  0  0  0  0999 V2000
   37.4220   31.1010   47.0730 N   0  0  0  0  0  0  0  0  0  0  0  0
   36.8090   30.7510   45.9080 C   0  0  0  0  0  0  0  0  0  0  0  0
   37.2640   31.2200   44.6830 C   0  0  0  0  0  0  0  0  0  0  0  0
   38.3790   32.0690   44.6780 C   0  0  0  0  0  0  0  0  0  0  0  0
   38.8250   32.5170   43.5910 O   0  0  0  0  0  0  0  0  0  0  0  0
   38.9830   32.4110   45.8500 N   0  0  0  0  0  0  0  0  0  0  0  0
   38.4630   31.9020   46.9790 C   0  0  0  0  0  0  0  0  0  0  0  0
   39.0490   32.2440   48.0290 O   0  0  0  0  0  0  0  0  0  0  0  0
   35.9490   30.0940   45.9330 H   0  0  0  0  0  0  0  0  0  0  0  0
   37.3250   29.5920   50.4660 C   0  0  0  0  0  0  0  0  0  0  0  0
   37.7950   30.0570   49.2310 C   0  0  0  0  0  0  0  0  0  0  0  0
   36.9580   30.6270   48.3050 C   0  0  0  0  0  0  0  0  0  0  0  0
   35.6580   30.7120   48.6480 N   0  0  0  0  0  0  0  0  0  0  0  0
   35.1510   30.2790   49.8240 C   0  0  0  0  0  0  0  0  0  0  0  0
   35.9910   29.7150   50.7390 N   0  0  0  0  0  0  0  0  0  0  0  0
   37.9360   29.1360   51.2330 H   0  0  0  0  0  0  0  0  0  0  0  0
   38.8390   29.8860   49.1540 H   0  0  0  0  0  0  0  0  0  0  0  0
   34.0830   30.3930   50.0080 H   0  0  0  0  0  0  0  0  0  0  0  0
   40.1400   33.2860   45.8530 C   0  0  0  0  0  0  0  0  0  0  0  0
   39.9950   34.2490   44.8960 F   0  0  0  0  0  0  0  0  0  0  0  0
   41.3160   32.6290   45.5860 F   0  0  0  0  0  0  0  0  0  0  0  0
   40.2100   33.9360   47.0910 F   0  0  0  0  0  0  0  0  0  0  0  0
   36.5780   30.8290   43.4280 C   0  0  0  0  0  0  0  0  0  0  0  0
   36.8540   29.3830   43.0740 C   0  0  0  0  0  0  0  0  0  0  0  0
   36.0470   29.0230   42.4400 H   0  0  0  0  0  0  0  0  0  0  0  0
  1 12  1  0  0  0  0
  2  9  1  0  0  0  0
  2  1  1  0  0  0  0
  3  2  2  0  0  0  0
  4  3  1  0  0  0  0
  4  6  1  0  0  0  0
  5  4  2  0  0  0  0
  6 19  1  0  0  0  0
  6  7  1  0  0  0  0
  7  1  1  0  0  0  0
  7  8  2  0  0  0  0
 10 15  1  0  0  0  0
 10 16  1  0  0  0  0
 11 10  2  0  0  0  0
 12 13  2  0  0  0  0
 12 11  1  0  0  0  0
 13 14  1  0  0  0  0
 14 18  1  0  0  0  0
 14 15  2  0  0  0  0
 17 11  1  0  0  0  0
 19 22  1  0  0  0  0
 20 19  1  0  0  0  0
 21 19  1  0  0  0  0
 23  3  1  0  0  0  0
 24 23  1  0  0  0  0
 25 24  1  0  0  0  0
M  END
>  <minimizedAffinity>
-5.829844

>  <minimizedRMSD>
0.18194598

$$$$
