
 OpenBabel03272505263D

 25 26  0  0  0  0  0  0  0  0999 V2000
   37.4250   31.1010   47.0510 N   0  0  0  0  0  0  0  0  0  0  0  0
   36.8170   30.7470   45.8850 C   0  0  0  0  0  0  0  0  0  0  0  0
   37.2760   31.2130   44.6600 C   0  0  0  0  0  0  0  0  0  0  0  0
   38.3900   32.0640   44.6570 C   0  0  0  0  0  0  0  0  0  0  0  0
   38.8390   32.5090   43.5700 O   0  0  0  0  0  0  0  0  0  0  0  0
   38.9880   32.4100   45.8300 N   0  0  0  0  0  0  0  0  0  0  0  0
   38.4650   31.9040   46.9590 C   0  0  0  0  0  0  0  0  0  0  0  0
   39.0460   32.2500   48.0090 O   0  0  0  0  0  0  0  0  0  0  0  0
   35.9580   30.0890   45.9090 H   0  0  0  0  0  0  0  0  0  0  0  0
   37.3170   29.5980   50.4460 C   0  0  0  0  0  0  0  0  0  0  0  0
   37.7900   30.0610   49.2120 C   0  0  0  0  0  0  0  0  0  0  0  0
   36.9570   30.6310   48.2830 C   0  0  0  0  0  0  0  0  0  0  0  0
   35.6560   30.7190   48.6220 N   0  0  0  0  0  0  0  0  0  0  0  0
   35.1450   30.2890   49.7970 C   0  0  0  0  0  0  0  0  0  0  0  0
   35.9820   29.7240   50.7160 N   0  0  0  0  0  0  0  0  0  0  0  0
   37.9250   29.1430   51.2160 H   0  0  0  0  0  0  0  0  0  0  0  0
   38.8340   29.8870   49.1380 H   0  0  0  0  0  0  0  0  0  0  0  0
   34.0770   30.4040   49.9790 H   0  0  0  0  0  0  0  0  0  0  0  0
   40.1440   33.2870   45.8350 C   0  0  0  0  0  0  0  0  0  0  0  0
   39.9980   34.2500   44.8780 F   0  0  0  0  0  0  0  0  0  0  0  0
   41.3220   32.6320   45.5690 F   0  0  0  0  0  0  0  0  0  0  0  0
   40.2110   33.9370   47.0730 F   0  0  0  0  0  0  0  0  0  0  0  0
   36.5960   30.8170   43.4040 C   0  0  0  0  0  2  0  0  0  0  0  0
   35.0910   30.9390   43.5270 C   0  0  0  0  0  2  0  0  0  0  0  0
   34.6720   31.0580   42.5290 H   0  0  0  0  0  0  0  0  0  0  0  0
  1 12  1  0  0  0  0
  2  9  1  0  0  0  0
  2  1  1  0  0  0  0
  3  2  2  0  0  0  0
  4  3  1  0  0  0  0
  4  6  1  0  0  0  0
  5  4  2  0  0  0  0
  6 19  1  0  0  0  0
  6  7  1  0  0  0  0
  7  1  1  0  0  0  0
  7  8  2  0  0  0  0
 10 15  1  0  0  0  0
 10 16  1  0  0  0  0
 11 10  2  0  0  0  0
 12 13  2  0  0  0  0
 12 11  1  0  0  0  0
 13 14  1  0  0  0  0
 14 18  1  0  0  0  0
 14 15  2  0  0  0  0
 17 11  1  0  0  0  0
 19 22  1  0  0  0  0
 20 19  1  0  0  0  0
 21 19  1  0  0  0  0
 23 24  1  0  0  0  0
 23  3  1  0  0  0  0
 25 24  1  0  0  0  0
M  END
>  <minimizedAffinity>
-5.79434919

>  <minimizedRMSD>
0.164898008

$$$$
