
     RDKit          3D

 42 44  0  0  0  0  0  0  0  0999 V2000
   34.5991   29.5322   48.8946 C   0  0  0  0  0  0  0  0  0  0  0  0
   34.1105   30.1815   47.7588 C   0  0  0  0  0  0  0  0  0  0  0  0
   33.3096   29.4226   46.8935 C   0  0  0  0  0  0  0  0  0  0  0  0
   33.0457   28.0949   47.1987 N   0  0  0  0  0  0  0  0  0  0  0  0
   33.5515   27.5098   48.3276 C   0  0  0  0  0  0  0  0  0  0  0  0
   34.3105   28.2226   49.1504 N   0  0  0  0  0  0  0  0  0  0  0  0
   32.7687   29.9773   45.7125 N   0  0  0  0  0  0  0  0  0  0  0  0
   33.5638   30.4941   44.7261 C   0  0  0  0  0  0  0  0  0  0  0  0
   33.0259   31.0281   43.5863 C   0  0  0  0  0  0  0  0  0  0  0  0
   31.6630   31.0302   43.4611 C   0  0  0  0  0  0  0  0  0  0  0  0
   31.1332   31.5176   42.4174 O   0  0  0  0  0  0  0  0  0  0  0  0
   30.8725   30.5234   44.4275 N   0  0  0  0  0  0  0  0  0  0  0  0
   31.4528   30.0098   45.5292 C   0  0  0  0  0  0  0  0  0  0  0  0
   30.6218   29.5564   46.3822 O   0  0  0  0  0  0  0  0  0  0  0  0
   35.4463   30.3692   49.8072 C   0  0  2  0  0  0  0  0  0  0  0  0
   36.4745   31.1148   48.9601 C   0  0  0  0  0  0  0  0  0  0  0  0
   37.8678   30.6435   49.1722 C   0  0  0  0  0  0  0  0  0  0  0  0
   38.2796   30.6367   50.6217 C   0  0  0  0  0  0  0  0  0  0  0  0
   37.2253   30.0913   51.5378 C   0  0  0  0  0  0  0  0  0  0  0  0
   36.0519   29.4769   50.8120 C   0  0  1  0  0  0  0  0  0  0  0  0
   34.2665   31.1907   47.4602 H   0  0  0  0  0  0  0  0  0  0  0  0
   33.3020   26.4711   48.4979 H   0  0  0  0  0  0  0  0  0  0  0  0
   34.6430   30.4556   44.9005 H   0  0  0  0  0  0  0  0  0  0  0  0
   33.6873   31.4273   42.8288 H   0  0  0  0  0  0  0  0  0  0  0  0
   29.8331   30.5449   44.2913 H   0  0  0  0  0  0  0  0  0  0  0  0
   34.7935   31.1269   50.2873 H   0  0  0  0  0  0  0  0  0  0  0  0
   36.3932   32.2026   49.1297 H   0  0  0  0  0  0  0  0  0  0  0  0
   36.2342   30.9703   47.8823 H   0  0  0  0  0  0  0  0  0  0  0  0
   38.5347   31.3063   48.6059 H   0  0  0  0  0  0  0  0  0  0  0  0
   37.9357   29.6073   48.7959 H   0  0  0  0  0  0  0  0  0  0  0  0
   38.5117   31.6851   50.9693 H   0  0  0  0  0  0  0  0  0  0  0  0
   39.2497   30.0971   50.6746 H   0  0  0  0  0  0  0  0  0  0  0  0
   37.7085   29.2770   52.1185 H   0  0  0  0  0  0  0  0  0  0  0  0
   36.8708   30.8291   52.2876 H   0  0  0  0  0  0  0  0  0  0  0  0
   36.3046   28.5051   50.3752 H   0  0  0  0  0  0  0  0  0  0  0  0
   34.9838   29.2305   51.8871 C   0  0  0  0  0  0  0  0  0  0  0  0
   35.0315   30.2320   52.9937 C   0  0  0  0  0  0  0  0  0  0  0  0
   34.1046   30.8730   52.9382 H   0  0  0  0  0  0  0  0  0  0  0  0
   35.0734   28.2078   52.3196 H   0  0  0  0  0  0  0  0  0  0  0  0
   33.9647   29.2278   51.4020 H   0  0  0  0  0  0  0  0  0  0  0  0
   34.9527   29.7231   53.9861 H   0  0  0  0  0  0  0  0  0  0  0  0
   35.9129   30.9019   52.9858 H   0  0  0  0  0  0  0  0  0  0  0  0
  1  6  1  0
  1 15  1  0
  2  1  2  0
  3  4  2  0
  3  2  1  0
  4  5  1  0
  5  6  2  0
  7  3  1  0
  8  7  1  0
  9  8  2  0
 10  9  1  0
 10 12  1  0
 11 10  2  0
 12 13  1  0
 13  7  1  0
 13 14  2  0
 15 20  1  0
 16 17  1  0
 16 15  1  0
 17 18  1  0
 18 19  1  0
 20 19  1  0
  2 21  1  0
  5 22  1  0
  8 23  1  0
  9 24  1  0
 12 25  1  0
 15 26  1  1
 16 27  1  0
 16 28  1  0
 17 29  1  0
 17 30  1  0
 18 31  1  0
 18 32  1  0
 19 33  1  0
 19 34  1  0
 20 35  1  6
 36 37  1  0
 37 38  1  0
 36 39  1  0
 36 40  1  0
 37 41  1  0
 37 42  1  0
 20 36  1  0
M  ISO  8  21  14  22  14  23  14  24  14  25   9  26  13  27  13  28  13
M  ISO  8  29  13  30  13  31  13  32  13  33  13  34  13  35  13  38   8
M  END
>  <DihAtoms>  (1) 
14,19,35,36

>  <DihDeg>  (1) 
179.99959068273472

$$$$
