
 OpenBabel03272507123D

 34 37  0  0  0  0  0  0  0  0999 V2000
   35.8310   29.1530   49.8400 C   0  0  0  0  0  0  0  0  0  0  0  0
   34.7960   29.6720   50.5440 C   0  0  0  0  0  0  0  0  0  0  0  0
   33.6330   29.0930   50.0320 C   0  0  0  0  0  0  0  0  0  0  0  0
   34.0620   28.2290   49.0140 C   0  0  0  0  0  0  0  0  0  0  0  0
   35.3550   28.3140   48.9570 O   0  0  0  0  0  0  0  0  0  0  0  0
   34.8360   30.4040   51.3600 H   0  0  0  0  0  0  0  0  0  0  0  0
   32.6620   29.3400   50.4230 H   0  0  0  0  0  0  0  0  0  0  0  0
   33.5450   26.4670   47.3350 C   0  0  0  0  0  0  0  0  0  0  0  0
   33.1180   27.4340   48.2350 C   0  0  0  0  0  0  0  0  0  0  0  0
   31.7720   27.6860   48.4360 C   0  0  0  0  0  0  0  0  0  0  0  0
   30.8590   26.9430   47.7130 C   0  0  0  0  0  0  0  0  0  0  0  0
   29.5260   26.9690   47.7050 N   0  0  0  0  0  0  0  0  0  0  0  0
   29.1100   26.0540   46.8330 N   0  0  0  0  0  0  0  0  0  0  0  0
   30.1670   25.4480   46.2890 C   0  0  0  0  0  0  0  0  0  0  0  0
   31.3300   25.9880   46.8260 C   0  0  0  0  0  0  0  0  0  0  0  0
   32.6700   25.7250   46.6140 C   0  0  0  0  0  0  0  0  0  0  0  0
   34.6090   26.2870   47.1930 H   0  0  0  0  0  0  0  0  0  0  0  0
   31.3750   28.4290   49.1250 H   0  0  0  0  0  0  0  0  0  0  0  0
   28.8870   27.5920   48.2740 H   0  0  0  0  0  0  0  0  0  0  0  0
   30.1050   24.6540   45.5410 H   0  0  0  0  0  0  0  0  0  0  0  0
   32.9310   24.9580   45.8970 H   0  0  0  0  0  0  0  0  0  0  0  0
   37.2150   29.5340   50.1030 C   0  0  0  0  0  0  0  0  0  0  0  0
   37.8420   28.9410   51.0220 O   0  0  0  0  0  0  0  0  0  0  0  0
   37.7850   30.5730   49.2890 C   0  0  0  0  0  0  0  0  0  0  0  0
   37.9830   31.8100   49.8700 C   0  0  0  0  0  0  0  0  0  0  0  0
   38.5280   32.8510   49.1380 C   0  0  0  0  0  0  0  0  0  0  0  0
   38.8440   32.5760   47.8450 N   0  0  0  0  0  0  0  0  0  0  0  0
   38.6520   31.3790   47.2850 C   0  0  0  0  0  0  0  0  0  0  0  0
   38.1250   30.3960   48.0160 N   0  0  0  0  0  0  0  0  0  0  0  0
   37.7130   31.9810   50.9110 H   0  0  0  0  0  0  0  0  0  0  0  0
   38.6970   33.8220   49.5500 H   0  0  0  0  0  0  0  0  0  0  0  0
   38.9910   31.0610   45.8770 C   0  0  0  0  0  0  0  0  0  0  0  0
   40.4660   31.2290   45.5920 C   0  0  0  0  0  0  0  0  0  0  0  0
   40.7570   30.5010   44.8130 H   0  0  0  0  0  0  0  0  0  0  0  0
  1 22  1  0  0  0  0
  1  2  2  0  0  0  0
  2  6  1  0  0  0  0
  3  7  1  0  0  0  0
  3  2  1  0  0  0  0
  4  3  2  0  0  0  0
  5  4  1  0  0  0  0
  5  1  1  0  0  0  0
  8  9  1  0  0  0  0
  9 10  2  0  0  0  0
  9  4  1  0  0  0  0
 10 18  1  0  0  0  0
 11 10  1  0  0  0  0
 12 11  1  0  0  0  0
 12 19  1  0  0  0  0
 13 12  1  0  0  0  0
 14 15  1  0  0  0  0
 14 13  2  0  0  0  0
 15 11  2  0  0  0  0
 16 15  1  0  0  0  0
 16  8  2  0  0  0  0
 17  8  1  0  0  0  0
 20 14  1  0  0  0  0
 21 16  1  0  0  0  0
 22 23  2  0  0  0  0
 24 25  1  0  0  0  0
 24 22  1  0  0  0  0
 25 30  1  0  0  0  0
 26 31  1  0  0  0  0
 26 25  2  0  0  0  0
 27 26  1  0  0  0  0
 28 27  2  0  0  0  0
 28 29  1  0  0  0  0
 29 24  2  0  0  0  0
 32 28  1  0  0  0  0
 33 32  1  0  0  0  0
 34 33  1  0  0  0  0
M  END
>  <minimizedAffinity>
-6.27162933

>  <minimizedRMSD>
0.251881748

$$$$
