REMARK  Name = 
REMARK  5 active torsions:
REMARK  status: ('A' for Active; 'I' for Inactive)
REMARK    1  A    between atoms: C_1  and  C_6
REMARK    2  A    between atoms: N_4  and  C_16
REMARK    3  A    between atoms: C_8  and  C_12
REMARK    4  A    between atoms: C_19  and  C_27
REMARK    5  A    between atoms: C_27  and  C_28
REMARK                            x       y       z     vdW  Elec       q    Type
REMARK                         _______ _______ _______ _____ _____    ______ ____
ROOT
ATOM      1  C   UNL     1      38.917  30.911  45.772  0.00  0.00    +0.000 A 
ATOM      2  C   UNL     1      40.105  31.543  46.021  0.00  0.00    +0.000 A 
ATOM      3  C   UNL     1      40.954  31.486  44.908  0.00  0.00    +0.000 A 
ATOM      4  N   UNL     1      40.200  30.797  44.016  0.00  0.00    +0.000 N 
ATOM      5  N   UNL     1      39.027  30.460  44.500  0.00  0.00    +0.000 NA
ATOM      6  H   UNL     1      40.399  32.038  46.946  0.00  0.00    +0.000 HD
ATOM      7  H   UNL     1      41.933  31.858  44.736  0.00  0.00    +0.000 HD
ENDROOT
BRANCH   1   8
ATOM      8  C   UNL     1      37.786  30.755  46.668  0.00  0.00    +0.000 A 
ATOM      9  C   UNL     1      38.014  30.980  48.054  0.00  0.00    +0.000 A 
ATOM     10  C   UNL     1      36.929  30.830  48.913  0.00  0.00    +0.000 A 
ATOM     11  N   UNL     1      35.722  30.477  48.377  0.00  0.00    +0.000 NA
ATOM     12  C   UNL     1      35.538  30.269  47.051  0.00  0.00    +0.000 A 
ATOM     13  N   UNL     1      36.583  30.413  46.210  0.00  0.00    +0.000 NA
ATOM     14  H   UNL     1      38.991  31.253  48.379  0.00  0.00    +0.000 HD
ATOM     15  H   UNL     1      34.548  29.992  46.707  0.00  0.00    +0.000 HD
BRANCH  10  16
ATOM     16  C   UNL     1      37.129  31.058  50.373  0.00  0.00    +0.000 C 
ATOM     17  F   UNL     1      36.594  32.298  50.628  0.00  0.00    +0.000 F 
ATOM     18  F   UNL     1      36.460  30.111  51.148  0.00  0.00    +0.000 F 
ATOM     19  F   UNL     1      38.480  31.062  50.708  0.00  0.00    +0.000 F 
ENDBRANCH  10  16
ENDBRANCH   1   8
BRANCH   4  20
ATOM     20  C   UNL     1      40.553  30.420  42.642  0.00  0.00    +0.000 A 
ATOM     21  C   UNL     1      40.189  31.227  41.549  0.00  0.00    +0.000 A 
ATOM     22  C   UNL     1      40.550  30.827  40.293  0.00  0.00    +0.000 A 
ATOM     23  C   UNL     1      41.274  29.617  40.127  0.00  0.00    +0.000 A 
ATOM     24  S   UNL     1      41.455  29.012  41.876  0.00  0.00    +0.000 S 
ATOM     25  H   UNL     1      39.637  32.150  41.656  0.00  0.00    +0.000 HD
ATOM     26  H   UNL     1      40.354  31.322  39.356  0.00  0.00    +0.000 HD
BRANCH  23  27
ATOM     27  C   UNL     1      41.797  28.909  39.038  0.00  0.00    +0.000 C 
BRANCH  27  28
ATOM     28  C   UNL     1      43.046  28.135  39.475  0.00  0.00    +0.000 C 
ATOM     29  H   UNL     1      42.923  27.870  40.546  0.00  0.00    +0.000 HD
ENDBRANCH  27  28
ENDBRANCH  23  27
ENDBRANCH   4  20
TORSDOF 5
