
     RDKit          3D

 33 35  0  0  0  0  0  0  0  0999 V2000
   38.9173   30.9111   45.7721 C   0  0  0  0  0  0  0  0  0  0  0  0
   40.1051   31.5426   46.0211 C   0  0  0  0  0  0  0  0  0  0  0  0
   40.9536   31.4861   44.9084 C   0  0  0  0  0  0  0  0  0  0  0  0
   40.2005   30.7971   44.0162 N   0  0  0  0  0  0  0  0  0  0  0  0
   39.0273   30.4601   44.4996 N   0  0  0  0  0  0  0  0  0  0  0  0
   37.7857   30.7547   46.6682 C   0  0  0  0  0  0  0  0  0  0  0  0
   38.0136   30.9805   48.0541 C   0  0  0  0  0  0  0  0  0  0  0  0
   36.9287   30.8296   48.9134 C   0  0  0  0  0  0  0  0  0  0  0  0
   35.7218   30.4769   48.3773 N   0  0  0  0  0  0  0  0  0  0  0  0
   35.5382   30.2691   47.0507 C   0  0  0  0  0  0  0  0  0  0  0  0
   36.5828   30.4127   46.2101 N   0  0  0  0  0  0  0  0  0  0  0  0
   37.1291   31.0580   50.3729 C   0  0  0  0  0  0  0  0  0  0  0  0
   36.5943   32.2981   50.6276 F   0  0  0  0  0  0  0  0  0  0  0  0
   36.4604   30.1113   51.1480 F   0  0  0  0  0  0  0  0  0  0  0  0
   38.4802   31.0622   50.7075 F   0  0  0  0  0  0  0  0  0  0  0  0
   40.5535   30.4203   42.6420 C   0  0  0  0  0  0  0  0  0  0  0  0
   40.1894   31.2269   41.5488 C   0  0  0  0  0  0  0  0  0  0  0  0
   40.5499   30.8266   40.2931 C   0  0  0  0  0  0  0  0  0  0  0  0
   41.2744   29.6170   40.1266 C   0  0  0  0  0  0  0  0  0  0  0  0
   41.4552   29.0122   41.8764 S   0  0  0  0  0  0  0  0  0  0  0  0
   40.3987   32.0382   46.9457 H   0  0  0  0  0  0  0  0  0  0  0  0
   41.9328   31.8580   44.7359 H   0  0  0  0  0  0  0  0  0  0  0  0
   38.9910   31.2526   48.3792 H   0  0  0  0  0  0  0  0  0  0  0  0
   34.5480   29.9916   46.7071 H   0  0  0  0  0  0  0  0  0  0  0  0
   39.6371   32.1500   41.6559 H   0  0  0  0  0  0  0  0  0  0  0  0
   40.3543   31.3219   39.3563 H   0  0  0  0  0  0  0  0  0  0  0  0
   41.7965   28.9090   39.0376 C   0  0  0  0  0  0  0  0  0  0  0  0
   40.9325   29.1603   37.7952 C   0  0  0  0  0  0  0  0  0  0  0  0
   40.5000   30.1783   37.8842 H   0  0  0  0  0  0  0  0  0  0  0  0
   41.9171   27.8430   39.2522 H   0  0  0  0  0  0  0  0  0  0  0  0
   42.7976   29.3015   38.7689 H   0  0  0  0  0  0  0  0  0  0  0  0
   41.5117   29.0600   36.8743 H   0  0  0  0  0  0  0  0  0  0  0  0
   40.1002   28.4143   37.8744 H   0  0  0  0  0  0  0  0  0  0  0  0
  1  2  1  0
  1  6  1  0
  3  2  2  0
  4  5  1  0
  4  3  1  0
  5  1  2  0
  6  7  2  0
  7  8  1  0
  8 12  1  0
  9  8  2  0
 10  9  1  0
 11  6  1  0
 11 10  2  0
 12 13  1  0
 12 15  1  0
 12 14  1  0
 16  4  1  0
 17 16  2  0
 18 17  1  0
 19 18  2  0
 19 20  1  0
 20 16  1  0
  2 21  1  0
  3 22  1  0
  7 23  1  0
 10 24  1  0
 17 25  1  0
 18 26  1  0
 27 28  1  0
 28 29  1  0
 27 30  1  0
 27 31  1  0
 28 32  1  0
 28 33  1  0
 19 27  1  0
M  ISO  7  21  14  22  14  23  14  24  14  25  14  26  14  29   8
M  END
>  <DihAtoms>  (1) 
17,18,26,27

>  <DihDeg>  (1) 
90.00055583268119

$$$$
