
 OpenBabel03272508073D

 29 31  0  0  0  0  0  0  0  0999 V2000
   37.4330   26.4750   34.2970 C   0  0  0  0  0  0  0  0  0  0  0  0
   37.5140   26.8820   32.9930 C   0  0  0  0  0  0  0  0  0  0  0  0
   36.7830   28.0580   32.7810 C   0  0  0  0  0  0  0  0  0  0  0  0
   36.2840   28.3040   34.0180 N   0  0  0  0  0  0  0  0  0  0  0  0
   36.6500   27.4020   34.8980 N   0  0  0  0  0  0  0  0  0  0  0  0
   38.0600   26.3900   32.1890 H   0  0  0  0  0  0  0  0  0  0  0  0
   36.6190   28.6520   31.9170 H   0  0  0  0  0  0  0  0  0  0  0  0
   38.0480   25.3110   34.9060 C   0  0  0  0  0  0  0  0  0  0  0  0
   37.8790   25.1400   36.3090 C   0  0  0  0  0  0  0  0  0  0  0  0
   38.4690   24.0230   36.8930 C   0  0  0  0  0  0  0  0  0  0  0  0
   39.1700   23.1670   36.0910 N   0  0  0  0  0  0  0  0  0  0  0  0
   39.3140   23.3580   34.7570 C   0  0  0  0  0  0  0  0  0  0  0  0
   38.7450   24.4370   34.1810 N   0  0  0  0  0  0  0  0  0  0  0  0
   37.3130   25.8610   36.8520 H   0  0  0  0  0  0  0  0  0  0  0  0
   39.8860   22.6310   34.1930 H   0  0  0  0  0  0  0  0  0  0  0  0
   38.3130   23.8100   38.3600 C   0  0  0  0  0  0  0  0  0  0  0  0
   39.5280   23.3380   38.7950 F   0  0  0  0  0  0  0  0  0  0  0  0
   38.0240   24.9970   39.0340 F   0  0  0  0  0  0  0  0  0  0  0  0
   37.3270   22.8680   38.6370 F   0  0  0  0  0  0  0  0  0  0  0  0
   35.4280   29.4210   34.4360 C   0  0  0  0  0  0  0  0  0  0  0  0
   35.9550   30.5170   35.1430 C   0  0  0  0  0  0  0  0  0  0  0  0
   35.1100   31.5290   35.5020 C   0  0  0  0  0  0  0  0  0  0  0  0
   33.7350   31.4460   35.1570 C   0  0  0  0  0  0  0  0  0  0  0  0
   33.6420   29.8210   34.2590 S   0  0  0  0  0  0  0  0  0  0  0  0
   36.9980   30.5970   35.4150 H   0  0  0  0  0  0  0  0  0  0  0  0
   35.3460   32.4330   36.0400 H   0  0  0  0  0  0  0  0  0  0  0  0
   32.6090   32.2560   35.3460 C   0  0  0  0  0  2  0  0  0  0  0  0
   31.9730   31.9480   36.7080 C   0  0  0  0  0  2  0  0  0  0  0  0
   32.7830   31.6230   37.3940 H   0  0  0  0  0  0  0  0  0  0  0  0
  1  5  2  0  0  0  0
  1  8  1  0  0  0  0
  2  1  1  0  0  0  0
  3  2  2  0  0  0  0
  3  4  1  0  0  0  0
  4 20  1  0  0  0  0
  4  5  1  0  0  0  0
  6  2  1  0  0  0  0
  7  3  1  0  0  0  0
  8  9  1  0  0  0  0
  9 14  1  0  0  0  0
  9 10  2  0  0  0  0
 10 16  1  0  0  0  0
 11 10  1  0  0  0  0
 12 11  2  0  0  0  0
 13 12  1  0  0  0  0
 13  8  2  0  0  0  0
 15 12  1  0  0  0  0
 16 19  1  0  0  0  0
 16 17  1  0  0  0  0
 16 18  1  0  0  0  0
 20 21  2  0  0  0  0
 21 25  1  0  0  0  0
 21 22  1  0  0  0  0
 22 26  1  0  0  0  0
 23 27  1  0  0  0  0
 23 22  2  0  0  0  0
 24 20  1  0  0  0  0
 24 23  1  0  0  0  0
 27 28  1  0  0  0  0
 28 29  1  0  0  0  0
M  END
>  <minimizedAffinity>
-5.7523675

$$$$

 OpenBabel03272508073D

 29 31  0  0  0  0  0  0  0  0999 V2000
   37.7750   25.9210   34.0720 C   0  0  0  0  0  0  0  0  0  0  0  0
   36.9940   26.9750   34.4600 C   0  0  0  0  0  0  0  0  0  0  0  0
   36.9020   27.9390   33.4470 C   0  0  0  0  0  0  0  0  0  0  0  0
   37.6610   27.3890   32.4670 N   0  0  0  0  0  0  0  0  0  0  0  0
   38.1700   26.2290   32.8140 N   0  0  0  0  0  0  0  0  0  0  0  0
   36.4910   27.0960   35.4180 H   0  0  0  0  0  0  0  0  0  0  0  0
   36.3940   28.8690   33.3900 H   0  0  0  0  0  0  0  0  0  0  0  0
   38.1110   24.7330   34.8340 C   0  0  0  0  0  0  0  0  0  0  0  0
   38.0130   24.8160   36.2510 C   0  0  0  0  0  0  0  0  0  0  0  0
   38.3350   23.6760   36.9820 C   0  0  0  0  0  0  0  0  0  0  0  0
   38.7240   22.5570   36.3000 N   0  0  0  0  0  0  0  0  0  0  0  0
   38.8090   22.5110   34.9490 C   0  0  0  0  0  0  0  0  0  0  0  0
   38.4970   23.6100   34.2310 N   0  0  0  0  0  0  0  0  0  0  0  0
   37.6990   25.7320   36.6940 H   0  0  0  0  0  0  0  0  0  0  0  0
   39.1260   21.5830   34.4850 H   0  0  0  0  0  0  0  0  0  0  0  0
   38.2430   23.7240   38.4700 C   0  0  0  0  0  0  0  0  0  0  0  0
   39.4990   23.4010   38.9260 F   0  0  0  0  0  0  0  0  0  0  0  0
   37.9100   24.9970   38.9330 F   0  0  0  0  0  0  0  0  0  0  0  0
   37.3250   22.7980   38.9550 F   0  0  0  0  0  0  0  0  0  0  0  0
   37.9460   27.9370   31.1360 C   0  0  0  0  0  0  0  0  0  0  0  0
   37.0320   28.7860   30.4870 C   0  0  0  0  0  0  0  0  0  0  0  0
   37.3540   29.2700   29.2500 C   0  0  0  0  0  0  0  0  0  0  0  0
   38.5920   28.9040   28.6580 C   0  0  0  0  0  0  0  0  0  0  0  0
   39.3460   27.8010   29.9510 S   0  0  0  0  0  0  0  0  0  0  0  0
   36.0850   29.0740   30.9210 H   0  0  0  0  0  0  0  0  0  0  0  0
   36.7740   29.9250   28.6210 H   0  0  0  0  0  0  0  0  0  0  0  0
   39.2430   29.1890   27.4520 C   0  0  0  0  0  2  0  0  0  0  0  0
   39.9740   27.9360   26.9510 C   0  0  0  0  0  2  0  0  0  0  0  0
   39.4050   27.0500   27.3000 H   0  0  0  0  0  0  0  0  0  0  0  0
  1  2  1  0  0  0  0
  1  8  1  0  0  0  0
  2  6  1  0  0  0  0
  3  2  2  0  0  0  0
  4  5  1  0  0  0  0
  4  3  1  0  0  0  0
  5  1  2  0  0  0  0
  7  3  1  0  0  0  0
  8  9  1  0  0  0  0
  9 14  1  0  0  0  0
  9 10  2  0  0  0  0
 10 16  1  0  0  0  0
 11 10  1  0  0  0  0
 12 11  2  0  0  0  0
 13  8  2  0  0  0  0
 13 12  1  0  0  0  0
 15 12  1  0  0  0  0
 16 17  1  0  0  0  0
 16 18  1  0  0  0  0
 16 19  1  0  0  0  0
 20  4  1  0  0  0  0
 21 25  1  0  0  0  0
 21 20  2  0  0  0  0
 22 21  1  0  0  0  0
 23 22  2  0  0  0  0
 23 24  1  0  0  0  0
 24 20  1  0  0  0  0
 26 22  1  0  0  0  0
 27 23  1  0  0  0  0
 28 29  1  0  0  0  0
 28 27  1  0  0  0  0
M  END
>  <minimizedAffinity>
-5.53070688

$$$$

 OpenBabel03272508073D

 29 31  0  0  0  0  0  0  0  0999 V2000
   37.9680   25.0130   34.9250 C   0  0  0  0  0  0  0  0  0  0  0  0
   37.8660   24.5400   33.6450 C   0  0  0  0  0  0  0  0  0  0  0  0
   37.3530   25.5160   32.7820 C   0  0  0  0  0  0  0  0  0  0  0  0
   37.1680   26.5640   33.6220 N   0  0  0  0  0  0  0  0  0  0  0  0
   37.5170   26.2880   34.8580 N   0  0  0  0  0  0  0  0  0  0  0  0
   38.1350   23.5440   33.2950 H   0  0  0  0  0  0  0  0  0  0  0  0
   37.1400   25.5100   31.7420 H   0  0  0  0  0  0  0  0  0  0  0  0
   38.4510   24.3100   36.0990 C   0  0  0  0  0  0  0  0  0  0  0  0
   39.6620   23.5750   35.9690 C   0  0  0  0  0  0  0  0  0  0  0  0
   40.1250   22.9000   37.0950 C   0  0  0  0  0  0  0  0  0  0  0  0
   39.3930   22.9840   38.2470 N   0  0  0  0  0  0  0  0  0  0  0  0
   38.2420   23.6930   38.3380 C   0  0  0  0  0  0  0  0  0  0  0  0
   37.7860   24.3510   37.2520 N   0  0  0  0  0  0  0  0  0  0  0  0
   40.1640   23.5690   35.0290 H   0  0  0  0  0  0  0  0  0  0  0  0
   37.7230   23.7080   39.2890 H   0  0  0  0  0  0  0  0  0  0  0  0
   41.3910   22.1190   36.9970 C   0  0  0  0  0  0  0  0  0  0  0  0
   41.3120   21.4380   35.8060 F   0  0  0  0  0  0  0  0  0  0  0  0
   42.5160   22.9440   36.9700 F   0  0  0  0  0  0  0  0  0  0  0  0
   41.5100   21.2070   38.0420 F   0  0  0  0  0  0  0  0  0  0  0  0
   36.6480   27.8970   33.2960 C   0  0  0  0  0  0  0  0  0  0  0  0
   36.0250   28.6950   34.2730 C   0  0  0  0  0  0  0  0  0  0  0  0
   35.5650   29.9300   33.9120 C   0  0  0  0  0  0  0  0  0  0  0  0
   35.7250   30.3690   32.5710 C   0  0  0  0  0  0  0  0  0  0  0  0
   36.5900   28.9290   31.7750 S   0  0  0  0  0  0  0  0  0  0  0  0
   35.8940   28.3770   35.2980 H   0  0  0  0  0  0  0  0  0  0  0  0
   35.0700   30.6620   34.5290 H   0  0  0  0  0  0  0  0  0  0  0  0
   35.3940   31.5260   31.8540 C   0  0  0  0  0  2  0  0  0  0  0  0
   36.6750   32.2350   31.3970 C   0  0  0  0  0  2  0  0  0  0  0  0
   37.4540   31.4600   31.2440 H   0  0  0  0  0  0  0  0  0  0  0  0
  1  8  1  0  0  0  0
  2  1  1  0  0  0  0
  3  4  1  0  0  0  0
  3  2  2  0  0  0  0
  4  5  1  0  0  0  0
  5  1  2  0  0  0  0
  6  2  1  0  0  0  0
  7  3  1  0  0  0  0
  8 13  1  0  0  0  0
  9  8  2  0  0  0  0
  9 10  1  0  0  0  0
 10 11  2  0  0  0  0
 11 12  1  0  0  0  0
 12 15  1  0  0  0  0
 13 12  2  0  0  0  0
 14  9  1  0  0  0  0
 16 10  1  0  0  0  0
 16 19  1  0  0  0  0
 17 16  1  0  0  0  0
 18 16  1  0  0  0  0
 20  4  1  0  0  0  0
 20 21  2  0  0  0  0
 21 25  1  0  0  0  0
 22 21  1  0  0  0  0
 22 26  1  0  0  0  0
 23 22  2  0  0  0  0
 24 23  1  0  0  0  0
 24 20  1  0  0  0  0
 27 23  1  0  0  0  0
 28 27  1  0  0  0  0
 29 28  1  0  0  0  0
M  END
>  <minimizedAffinity>
-5.46723318

$$$$

 OpenBabel03272508073D

 29 31  0  0  0  0  0  0  0  0999 V2000
   38.1020   25.7670   33.8740 C   0  0  0  0  0  0  0  0  0  0  0  0
   38.9120   26.2230   32.8700 C   0  0  0  0  0  0  0  0  0  0  0  0
   38.3950   27.3890   32.2900 C   0  0  0  0  0  0  0  0  0  0  0  0
   37.2590   27.5770   33.0070 N   0  0  0  0  0  0  0  0  0  0  0  0
   37.0780   26.6520   33.9200 N   0  0  0  0  0  0  0  0  0  0  0  0
   39.8440   25.7740   32.5290 H   0  0  0  0  0  0  0  0  0  0  0  0
   38.7420   28.0110   31.5030 H   0  0  0  0  0  0  0  0  0  0  0  0
   38.2930   24.5950   34.7090 C   0  0  0  0  0  0  0  0  0  0  0  0
   38.1990   24.7730   36.1170 C   0  0  0  0  0  0  0  0  0  0  0  0
   38.3820   23.6490   36.9170 C   0  0  0  0  0  0  0  0  0  0  0  0
   38.6400   22.4530   36.3060 N   0  0  0  0  0  0  0  0  0  0  0  0
   38.7240   22.3170   34.9610 C   0  0  0  0  0  0  0  0  0  0  0  0
   38.5470   23.4010   34.1770 N   0  0  0  0  0  0  0  0  0  0  0  0
   37.9930   25.7450   36.5020 H   0  0  0  0  0  0  0  0  0  0  0  0
   38.9310   21.3330   34.5560 H   0  0  0  0  0  0  0  0  0  0  0  0
   38.2900   23.7960   38.3980 C   0  0  0  0  0  0  0  0  0  0  0  0
   37.3140   22.9140   38.7960 F   0  0  0  0  0  0  0  0  0  0  0  0
   39.4860   23.4600   39.0330 F   0  0  0  0  0  0  0  0  0  0  0  0
   37.9190   25.0870   38.7600 F   0  0  0  0  0  0  0  0  0  0  0  0
   36.2750   28.6570   32.8640 C   0  0  0  0  0  0  0  0  0  0  0  0
   35.4930   29.0780   33.9550 C   0  0  0  0  0  0  0  0  0  0  0  0
   34.5970   30.0920   33.7640 C   0  0  0  0  0  0  0  0  0  0  0  0
   34.4790   30.6860   32.4790 C   0  0  0  0  0  0  0  0  0  0  0  0
   35.7300   29.7390   31.4810 S   0  0  0  0  0  0  0  0  0  0  0  0
   35.5680   28.6380   34.9390 H   0  0  0  0  0  0  0  0  0  0  0  0
   33.9270   30.5320   34.4840 H   0  0  0  0  0  0  0  0  0  0  0  0
   33.7010   31.7080   31.9210 C   0  0  0  0  0  2  0  0  0  0  0  0
   32.2970   31.1760   31.6080 C   0  0  0  0  0  2  0  0  0  0  0  0
   32.0640   30.3800   32.3440 H   0  0  0  0  0  0  0  0  0  0  0  0
  1  5  2  0  0  0  0
  1  8  1  0  0  0  0
  2  1  1  0  0  0  0
  3  2  2  0  0  0  0
  3  4  1  0  0  0  0
  4  5  1  0  0  0  0
  6  2  1  0  0  0  0
  7  3  1  0  0  0  0
  8  9  1  0  0  0  0
  9 14  1  0  0  0  0
  9 10  2  0  0  0  0
 10 16  1  0  0  0  0
 11 10  1  0  0  0  0
 12 11  2  0  0  0  0
 13  8  2  0  0  0  0
 13 12  1  0  0  0  0
 15 12  1  0  0  0  0
 16 19  1  0  0  0  0
 16 17  1  0  0  0  0
 16 18  1  0  0  0  0
 20  4  1  0  0  0  0
 20 21  2  0  0  0  0
 21 25  1  0  0  0  0
 22 21  1  0  0  0  0
 22 26  1  0  0  0  0
 23 22  2  0  0  0  0
 24 23  1  0  0  0  0
 24 20  1  0  0  0  0
 27 23  1  0  0  0  0
 28 27  1  0  0  0  0
 28 29  1  0  0  0  0
M  END
>  <minimizedAffinity>
-5.4562211

$$$$

 OpenBabel03272508073D

 29 31  0  0  0  0  0  0  0  0999 V2000
   36.6300   27.8390   33.8320 C   0  0  0  0  0  0  0  0  0  0  0  0
   37.2760   27.3730   32.7190 C   0  0  0  0  0  0  0  0  0  0  0  0
   38.0830   26.2690   33.0250 C   0  0  0  0  0  0  0  0  0  0  0  0
   37.8690   26.1270   34.3570 N   0  0  0  0  0  0  0  0  0  0  0  0
   37.0370   27.0230   34.8330 N   0  0  0  0  0  0  0  0  0  0  0  0
   37.2050   27.7730   31.7080 H   0  0  0  0  0  0  0  0  0  0  0  0
   38.7160   25.6590   32.4300 H   0  0  0  0  0  0  0  0  0  0  0  0
   35.7130   28.9600   33.9250 C   0  0  0  0  0  0  0  0  0  0  0  0
   36.0110   29.9710   34.8810 C   0  0  0  0  0  0  0  0  0  0  0  0
   35.1300   31.0450   34.9700 C   0  0  0  0  0  0  0  0  0  0  0  0
   34.0420   31.0620   34.1430 N   0  0  0  0  0  0  0  0  0  0  0  0
   33.7860   30.0820   33.2430 C   0  0  0  0  0  0  0  0  0  0  0  0
   34.6340   29.0370   33.1480 N   0  0  0  0  0  0  0  0  0  0  0  0
   36.8840   29.8720   35.4830 H   0  0  0  0  0  0  0  0  0  0  0  0
   32.9010   30.1720   32.6240 H   0  0  0  0  0  0  0  0  0  0  0  0
   35.4090   32.1250   35.9600 C   0  0  0  0  0  0  0  0  0  0  0  0
   36.7750   32.2820   35.9580 F   0  0  0  0  0  0  0  0  0  0  0  0
   34.8170   33.3350   35.5980 F   0  0  0  0  0  0  0  0  0  0  0  0
   34.9890   31.7670   37.2380 F   0  0  0  0  0  0  0  0  0  0  0  0
   38.4460   25.1220   35.2580 C   0  0  0  0  0  0  0  0  0  0  0  0
   37.8470   24.8230   36.4950 C   0  0  0  0  0  0  0  0  0  0  0  0
   38.4260   23.8740   37.2890 C   0  0  0  0  0  0  0  0  0  0  0  0
   39.6090   23.2230   36.8490 C   0  0  0  0  0  0  0  0  0  0  0  0
   39.9120   24.0130   35.1930 S   0  0  0  0  0  0  0  0  0  0  0  0
   36.9480   25.3090   36.8470 H   0  0  0  0  0  0  0  0  0  0  0  0
   38.1010   23.5270   38.2560 H   0  0  0  0  0  0  0  0  0  0  0  0
   40.4570   22.2370   37.3680 C   0  0  0  0  0  2  0  0  0  0  0  0
   41.8780   22.4390   36.8260 C   0  0  0  0  0  2  0  0  0  0  0  0
   42.0190   23.5250   36.6440 H   0  0  0  0  0  0  0  0  0  0  0  0
  1  8  1  0  0  0  0
  1  5  2  0  0  0  0
  2  3  2  0  0  0  0
  2  1  1  0  0  0  0
  3  4  1  0  0  0  0
  4  5  1  0  0  0  0
  4 20  1  0  0  0  0
  6  2  1  0  0  0  0
  7  3  1  0  0  0  0
  8  9  1  0  0  0  0
  9 10  2  0  0  0  0
  9 14  1  0  0  0  0
 10 16  1  0  0  0  0
 11 10  1  0  0  0  0
 12 11  2  0  0  0  0
 13 12  1  0  0  0  0
 13  8  2  0  0  0  0
 15 12  1  0  0  0  0
 16 19  1  0  0  0  0
 17 16  1  0  0  0  0
 18 16  1  0  0  0  0
 20 21  2  0  0  0  0
 21 25  1  0  0  0  0
 21 22  1  0  0  0  0
 22 26  1  0  0  0  0
 23 22  2  0  0  0  0
 23 27  1  0  0  0  0
 24 20  1  0  0  0  0
 24 23  1  0  0  0  0
 28 27  1  0  0  0  0
 29 28  1  0  0  0  0
M  END
>  <minimizedAffinity>
-5.41357994

$$$$

 OpenBabel03272508073D

 29 31  0  0  0  0  0  0  0  0999 V2000
   36.1940   28.3700   33.7500 C   0  0  0  0  0  0  0  0  0  0  0  0
   36.7790   28.0780   32.5480 C   0  0  0  0  0  0  0  0  0  0  0  0
   37.6190   26.9610   32.6500 C   0  0  0  0  0  0  0  0  0  0  0  0
   37.4870   26.6300   33.9580 N   0  0  0  0  0  0  0  0  0  0  0  0
   36.6710   27.4320   34.6020 N   0  0  0  0  0  0  0  0  0  0  0  0
   36.6430   28.6130   31.6090 H   0  0  0  0  0  0  0  0  0  0  0  0
   38.2250   26.4560   31.9400 H   0  0  0  0  0  0  0  0  0  0  0  0
   35.2660   29.4450   34.0510 C   0  0  0  0  0  0  0  0  0  0  0  0
   35.7270   30.4860   34.9040 C   0  0  0  0  0  0  0  0  0  0  0  0
   34.8380   31.5170   35.1930 C   0  0  0  0  0  0  0  0  0  0  0  0
   33.5860   31.4650   34.6460 N   0  0  0  0  0  0  0  0  0  0  0  0
   33.1770   30.4570   33.8380 C   0  0  0  0  0  0  0  0  0  0  0  0
   34.0320   29.4540   33.5510 N   0  0  0  0  0  0  0  0  0  0  0  0
   36.7220   30.4410   35.2830 H   0  0  0  0  0  0  0  0  0  0  0  0
   32.1670   30.4920   33.4440 H   0  0  0  0  0  0  0  0  0  0  0  0
   35.2850   32.6270   36.0830 C   0  0  0  0  0  0  0  0  0  0  0  0
   35.0580   32.1850   37.3640 F   0  0  0  0  0  0  0  0  0  0  0  0
   36.6440   32.9010   35.9350 F   0  0  0  0  0  0  0  0  0  0  0  0
   34.5500   33.7870   35.8590 F   0  0  0  0  0  0  0  0  0  0  0  0
   38.1310   25.5230   34.6750 C   0  0  0  0  0  0  0  0  0  0  0  0
   37.8990   25.3090   36.0460 C   0  0  0  0  0  0  0  0  0  0  0  0
   38.5220   24.2590   36.6580 C   0  0  0  0  0  0  0  0  0  0  0  0
   39.3820   23.4200   35.9010 C   0  0  0  0  0  0  0  0  0  0  0  0
   39.2930   24.1770   34.2050 S   0  0  0  0  0  0  0  0  0  0  0  0
   37.2490   25.9380   36.6380 H   0  0  0  0  0  0  0  0  0  0  0  0
   38.4550   23.9560   37.6900 H   0  0  0  0  0  0  0  0  0  0  0  0
   40.1660   22.2920   36.1710 C   0  0  0  0  0  2  0  0  0  0  0  0
   40.6330   22.3240   37.6320 C   0  0  0  0  0  2  0  0  0  0  0  0
   39.8570   22.8520   38.2240 H   0  0  0  0  0  0  0  0  0  0  0  0
  1  8  1  0  0  0  0
  1  5  2  0  0  0  0
  2  3  2  0  0  0  0
  2  1  1  0  0  0  0
  3  4  1  0  0  0  0
  4  5  1  0  0  0  0
  4 20  1  0  0  0  0
  6  2  1  0  0  0  0
  7  3  1  0  0  0  0
  8  9  1  0  0  0  0
  9 10  2  0  0  0  0
  9 14  1  0  0  0  0
 10 16  1  0  0  0  0
 11 10  1  0  0  0  0
 12 11  2  0  0  0  0
 13 12  1  0  0  0  0
 13  8  2  0  0  0  0
 15 12  1  0  0  0  0
 16 17  1  0  0  0  0
 18 16  1  0  0  0  0
 19 16  1  0  0  0  0
 20 21  2  0  0  0  0
 21 25  1  0  0  0  0
 21 22  1  0  0  0  0
 22 26  1  0  0  0  0
 23 27  1  0  0  0  0
 23 22  2  0  0  0  0
 24 20  1  0  0  0  0
 24 23  1  0  0  0  0
 27 28  1  0  0  0  0
 28 29  1  0  0  0  0
M  END
>  <minimizedAffinity>
-5.32669497

$$$$

 OpenBabel03272508073D

 29 31  0  0  0  0  0  0  0  0999 V2000
   35.5920   29.3460   31.8120 C   0  0  0  0  0  0  0  0  0  0  0  0
   36.3430   29.5000   30.6780 C   0  0  0  0  0  0  0  0  0  0  0  0
   36.7630   28.2610   30.1750 C   0  0  0  0  0  0  0  0  0  0  0  0
   36.2210   27.3980   31.0690 N   0  0  0  0  0  0  0  0  0  0  0  0
   35.5450   28.0080   32.0150 N   0  0  0  0  0  0  0  0  0  0  0  0
   36.6060   30.4390   30.1920 H   0  0  0  0  0  0  0  0  0  0  0  0
   37.3480   27.9940   29.3310 H   0  0  0  0  0  0  0  0  0  0  0  0
   34.9790   30.3830   32.6220 C   0  0  0  0  0  0  0  0  0  0  0  0
   35.5610   30.6500   33.8920 C   0  0  0  0  0  0  0  0  0  0  0  0
   34.9730   31.6440   34.6680 C   0  0  0  0  0  0  0  0  0  0  0  0
   33.8810   32.2960   34.1680 N   0  0  0  0  0  0  0  0  0  0  0  0
   33.3500   32.0180   32.9530 C   0  0  0  0  0  0  0  0  0  0  0  0
   33.9140   31.0570   32.1920 N   0  0  0  0  0  0  0  0  0  0  0  0
   36.4140   30.0890   34.1980 H   0  0  0  0  0  0  0  0  0  0  0  0
   32.4830   32.5820   32.6290 H   0  0  0  0  0  0  0  0  0  0  0  0
   35.5550   31.9520   36.0060 C   0  0  0  0  0  0  0  0  0  0  0  0
   36.6530   31.1350   36.1260 F   0  0  0  0  0  0  0  0  0  0  0  0
   35.9690   33.2800   36.1050 F   0  0  0  0  0  0  0  0  0  0  0  0
   34.6560   31.6690   37.0310 F   0  0  0  0  0  0  0  0  0  0  0  0
   36.3120   25.9330   31.0730 C   0  0  0  0  0  0  0  0  0  0  0  0
   37.5550   25.2800   30.9910 C   0  0  0  0  0  0  0  0  0  0  0  0
   37.5770   23.9130   31.0040 C   0  0  0  0  0  0  0  0  0  0  0  0
   36.3550   23.1960   31.0970 C   0  0  0  0  0  0  0  0  0  0  0  0
   35.0920   24.5590   31.1740 S   0  0  0  0  0  0  0  0  0  0  0  0
   38.4940   25.8090   30.9180 H   0  0  0  0  0  0  0  0  0  0  0  0
   38.4340   23.2620   30.9500 H   0  0  0  0  0  0  0  0  0  0  0  0
   35.9920   21.8450   31.1360 C   0  0  0  0  0  2  0  0  0  0  0  0
   35.3690   21.5150   32.4990 C   0  0  0  0  0  2  0  0  0  0  0  0
   34.8700   22.4330   32.8740 H   0  0  0  0  0  0  0  0  0  0  0  0
  1  5  2  0  0  0  0
  1  8  1  0  0  0  0
  2  1  1  0  0  0  0
  3  2  2  0  0  0  0
  3  4  1  0  0  0  0
  4 20  1  0  0  0  0
  4  5  1  0  0  0  0
  6  2  1  0  0  0  0
  7  3  1  0  0  0  0
  8  9  1  0  0  0  0
  9 14  1  0  0  0  0
  9 10  2  0  0  0  0
 10 16  1  0  0  0  0
 11 10  1  0  0  0  0
 12 11  2  0  0  0  0
 13  8  2  0  0  0  0
 13 12  1  0  0  0  0
 15 12  1  0  0  0  0
 16 18  1  0  0  0  0
 16 17  1  0  0  0  0
 16 19  1  0  0  0  0
 20 24  1  0  0  0  0
 21 22  1  0  0  0  0
 21 20  2  0  0  0  0
 22 23  2  0  0  0  0
 23 27  1  0  0  0  0
 23 24  1  0  0  0  0
 25 21  1  0  0  0  0
 26 22  1  0  0  0  0
 27 28  1  0  0  0  0
 28 29  1  0  0  0  0
M  END
>  <minimizedAffinity>
-5.24149656

$$$$

 OpenBabel03272508073D

 29 31  0  0  0  0  0  0  0  0999 V2000
   38.1090   24.5740   34.6690 C   0  0  0  0  0  0  0  0  0  0  0  0
   37.8430   23.9370   33.4880 C   0  0  0  0  0  0  0  0  0  0  0  0
   37.3750   24.8360   32.5200 C   0  0  0  0  0  0  0  0  0  0  0  0
   37.3880   26.0100   33.1990 N   0  0  0  0  0  0  0  0  0  0  0  0
   37.8070   25.8730   34.4360 N   0  0  0  0  0  0  0  0  0  0  0  0
   37.9610   22.8740   33.2780 H   0  0  0  0  0  0  0  0  0  0  0  0
   37.0750   24.7070   31.5100 H   0  0  0  0  0  0  0  0  0  0  0  0
   38.6050   23.9920   35.9030 C   0  0  0  0  0  0  0  0  0  0  0  0
   39.8170   23.2500   35.8350 C   0  0  0  0  0  0  0  0  0  0  0  0
   40.2920   22.6920   37.0180 C   0  0  0  0  0  0  0  0  0  0  0  0
   39.5700   22.8880   38.1630 N   0  0  0  0  0  0  0  0  0  0  0  0
   38.4180   23.5990   38.1940 C   0  0  0  0  0  0  0  0  0  0  0  0
   37.9500   24.1450   37.0520 N   0  0  0  0  0  0  0  0  0  0  0  0
   40.3100   23.1520   34.8960 H   0  0  0  0  0  0  0  0  0  0  0  0
   37.9070   23.7080   39.1430 H   0  0  0  0  0  0  0  0  0  0  0  0
   41.5600   21.9080   36.9870 C   0  0  0  0  0  0  0  0  0  0  0  0
   42.5690   22.8400   37.0040 F   0  0  0  0  0  0  0  0  0  0  0  0
   41.6920   21.0800   38.1010 F   0  0  0  0  0  0  0  0  0  0  0  0
   41.6590   21.1450   35.8270 F   0  0  0  0  0  0  0  0  0  0  0  0
   37.0020   27.3380   32.7070 C   0  0  0  0  0  0  0  0  0  0  0  0
   37.5020   27.8370   31.4910 C   0  0  0  0  0  0  0  0  0  0  0  0
   37.1040   29.0780   31.0810 C   0  0  0  0  0  0  0  0  0  0  0  0
   36.2050   29.8240   31.8880 C   0  0  0  0  0  0  0  0  0  0  0  0
   35.9060   28.6800   33.3230 S   0  0  0  0  0  0  0  0  0  0  0  0
   38.1880   27.2840   30.8640 H   0  0  0  0  0  0  0  0  0  0  0  0
   37.3880   29.6060   30.1850 H   0  0  0  0  0  0  0  0  0  0  0  0
   35.5960   31.0820   31.8020 C   0  0  0  0  0  2  0  0  0  0  0  0
   36.5480   32.0720   31.1180 C   0  0  0  0  0  2  0  0  0  0  0  0
   37.1790   31.4980   30.4080 H   0  0  0  0  0  0  0  0  0  0  0  0
  1  8  1  0  0  0  0
  2  1  1  0  0  0  0
  3  4  1  0  0  0  0
  3  2  2  0  0  0  0
  4  5  1  0  0  0  0
  5  1  2  0  0  0  0
  6  2  1  0  0  0  0
  7  3  1  0  0  0  0
  8 13  1  0  0  0  0
  9  8  2  0  0  0  0
  9 10  1  0  0  0  0
 10 11  2  0  0  0  0
 11 12  1  0  0  0  0
 12 15  1  0  0  0  0
 13 12  2  0  0  0  0
 14  9  1  0  0  0  0
 16 17  1  0  0  0  0
 16 10  1  0  0  0  0
 16 18  1  0  0  0  0
 19 16  1  0  0  0  0
 20  4  1  0  0  0  0
 20 24  1  0  0  0  0
 21 20  2  0  0  0  0
 22 21  1  0  0  0  0
 22 23  2  0  0  0  0
 23 24  1  0  0  0  0
 25 21  1  0  0  0  0
 26 22  1  0  0  0  0
 27 23  1  0  0  0  0
 28 27  1  0  0  0  0
 29 28  1  0  0  0  0
M  END
>  <minimizedAffinity>
-5.19154787

$$$$

 OpenBabel03272508073D

 29 31  0  0  0  0  0  0  0  0999 V2000
   36.9840   26.9900   32.6870 C   0  0  0  0  0  0  0  0  0  0  0  0
   38.2590   26.7030   33.0920 C   0  0  0  0  0  0  0  0  0  0  0  0
   38.5160   25.3270   33.0280 C   0  0  0  0  0  0  0  0  0  0  0  0
   37.3350   24.8440   32.5700 N   0  0  0  0  0  0  0  0  0  0  0  0
   36.4460   25.7890   32.3700 N   0  0  0  0  0  0  0  0  0  0  0  0
   39.0120   27.4150   33.4300 H   0  0  0  0  0  0  0  0  0  0  0  0
   39.3750   24.7490   33.2590 H   0  0  0  0  0  0  0  0  0  0  0  0
   36.3440   28.2900   32.6120 C   0  0  0  0  0  0  0  0  0  0  0  0
   36.0740   28.9580   33.8390 C   0  0  0  0  0  0  0  0  0  0  0  0
   35.4600   30.2050   33.7660 C   0  0  0  0  0  0  0  0  0  0  0  0
   35.1560   30.7070   32.5310 N   0  0  0  0  0  0  0  0  0  0  0  0
   35.4270   30.0450   31.3810 C   0  0  0  0  0  0  0  0  0  0  0  0
   36.0230   28.8360   31.4400 N   0  0  0  0  0  0  0  0  0  0  0  0
   36.3480   28.4870   34.7540 H   0  0  0  0  0  0  0  0  0  0  0  0
   35.1540   30.5140   30.4420 H   0  0  0  0  0  0  0  0  0  0  0  0
   35.1600   30.9350   35.0310 C   0  0  0  0  0  0  0  0  0  0  0  0
   34.9730   32.2460   34.6630 F   0  0  0  0  0  0  0  0  0  0  0  0
   33.9970   30.4690   35.6430 F   0  0  0  0  0  0  0  0  0  0  0  0
   36.2210   30.8570   35.9290 F   0  0  0  0  0  0  0  0  0  0  0  0
   36.9830   23.4460   32.2900 C   0  0  0  0  0  0  0  0  0  0  0  0
   35.8410   23.1190   31.5380 C   0  0  0  0  0  0  0  0  0  0  0  0
   35.5670   21.8010   31.3050 C   0  0  0  0  0  0  0  0  0  0  0  0
   36.4340   20.8050   31.8280 C   0  0  0  0  0  0  0  0  0  0  0  0
   37.7260   21.8160   32.7040 S   0  0  0  0  0  0  0  0  0  0  0  0
   35.1690   23.8630   31.1330 H   0  0  0  0  0  0  0  0  0  0  0  0
   34.7420   21.3800   30.7540 H   0  0  0  0  0  0  0  0  0  0  0  0
   36.4780   19.4060   31.8000 C   0  0  0  0  0  2  0  0  0  0  0  0
   35.2110   18.8360   32.4480 C   0  0  0  0  0  2  0  0  0  0  0  0
   34.3880   19.5600   32.2770 H   0  0  0  0  0  0  0  0  0  0  0  0
  1  2  1  0  0  0  0
  2  6  1  0  0  0  0
  3  2  2  0  0  0  0
  3  7  1  0  0  0  0
  4  3  1  0  0  0  0
  5  4  1  0  0  0  0
  5  1  2  0  0  0  0
  8  1  1  0  0  0  0
  8  9  1  0  0  0  0
  9 14  1  0  0  0  0
 10  9  2  0  0  0  0
 10 16  1  0  0  0  0
 11 10  1  0  0  0  0
 12 13  1  0  0  0  0
 12 11  2  0  0  0  0
 13  8  2  0  0  0  0
 15 12  1  0  0  0  0
 16 18  1  0  0  0  0
 16 19  1  0  0  0  0
 17 16  1  0  0  0  0
 20  4  1  0  0  0  0
 20 24  1  0  0  0  0
 21 20  2  0  0  0  0
 22 21  1  0  0  0  0
 22 23  2  0  0  0  0
 23 24  1  0  0  0  0
 25 21  1  0  0  0  0
 26 22  1  0  0  0  0
 27 23  1  0  0  0  0
 27 28  1  0  0  0  0
 29 28  1  0  0  0  0
M  END
>  <minimizedAffinity>
-5.11037302

$$$$
