
 OpenBabel03272507543D

 17 17  0  0  0  0  0  0  0  0999 V2000
   35.0090   29.7350   50.1700 C   0  0  0  0  0  0  0  0  0  0  0  0
   36.3730   29.9850   49.9120 C   0  0  0  0  0  0  0  0  0  0  0  0
   36.7420   30.4230   48.6280 C   0  0  0  0  0  0  0  0  0  0  0  0
   35.7220   30.5730   47.7120 N   0  0  0  0  0  0  0  0  0  0  0  0
   34.4330   30.3190   48.0140 C   0  0  0  0  0  0  0  0  0  0  0  0
   34.0630   29.8990   49.2400 N   0  0  0  0  0  0  0  0  0  0  0  0
   33.5860   30.5690   46.9080 N   0  0  0  0  0  0  0  0  0  0  0  0
   34.7500   29.3960   51.1770 H   0  0  0  0  0  0  0  0  0  0  0  0
   32.8760   31.2940   47.1960 H   0  0  0  0  0  0  0  0  0  0  0  0
   33.6160   30.1470   45.9670 H   0  0  0  0  0  0  0  0  0  0  0  0
   37.3710   29.7820   51.0070 C   0  0  0  0  0  0  0  0  0  0  0  0
   38.0780   28.6040   50.8470 F   0  0  0  0  0  0  0  0  0  0  0  0
   38.2680   30.8290   50.9430 F   0  0  0  0  0  0  0  0  0  0  0  0
   36.7920   29.7970   52.2620 F   0  0  0  0  0  0  0  0  0  0  0  0
   38.1450   30.6980   48.3200 C   0  0  0  0  0  0  0  0  0  0  0  0
   38.2830   32.1650   47.9630 C   0  0  0  0  0  0  0  0  0  0  0  0
   37.3570   32.7430   48.1970 H   0  0  0  0  0  0  0  0  0  0  0  0
  1  8  1  0  0  0  0
  2  1  1  0  0  0  0
  2 11  1  0  0  0  0
  3  2  2  0  0  0  0
  4  5  2  0  0  0  0
  4  3  1  0  0  0  0
  5  6  1  0  0  0  0
  6  1  2  0  0  0  0
  7  9  1  0  0  0  0
  7  5  1  0  0  0  0
 10  7  1  0  0  0  0
 11 14  1  0  0  0  0
 12 11  1  0  0  0  0
 13 11  1  0  0  0  0
 15  3  1  0  0  0  0
 16 17  1  0  0  0  0
 16 15  1  0  0  0  0
M  END
>  <minimizedAffinity>
-5.02279472

>  <minimizedRMSD>
1.63295627

$$$$
