
 OpenBabel03272507153D

 34 37  0  0  0  0  0  0  0  0999 V2000
   37.4140   27.5170   33.6620 C   0  0  0  0  0  0  0  0  0  0  0  0
   36.7900   27.8000   32.4930 C   0  0  0  0  0  0  0  0  0  0  0  0
   35.7890   28.7290   32.7870 C   0  0  0  0  0  0  0  0  0  0  0  0
   35.8810   28.9520   34.1690 C   0  0  0  0  0  0  0  0  0  0  0  0
   36.8490   28.2140   34.6140 O   0  0  0  0  0  0  0  0  0  0  0  0
   37.0070   27.3940   31.4970 H   0  0  0  0  0  0  0  0  0  0  0  0
   35.1420   29.1210   32.0230 H   0  0  0  0  0  0  0  0  0  0  0  0
   33.6130   29.8520   34.6560 C   0  0  0  0  0  0  0  0  0  0  0  0
   34.9860   29.8770   34.8570 C   0  0  0  0  0  0  0  0  0  0  0  0
   35.5700   30.7830   35.7250 C   0  0  0  0  0  0  0  0  0  0  0  0
   34.7430   31.6670   36.3910 C   0  0  0  0  0  0  0  0  0  0  0  0
   35.0240   32.6280   37.2710 N   0  0  0  0  0  0  0  0  0  0  0  0
   33.8760   33.2010   37.6240 N   0  0  0  0  0  0  0  0  0  0  0  0
   32.8700   32.6100   36.9760 C   0  0  0  0  0  0  0  0  0  0  0  0
   33.3780   31.6060   36.1610 C   0  0  0  0  0  0  0  0  0  0  0  0
   32.7800   30.7080   35.2970 C   0  0  0  0  0  0  0  0  0  0  0  0
   33.1760   29.1310   33.9680 H   0  0  0  0  0  0  0  0  0  0  0  0
   36.6370   30.8540   35.9250 H   0  0  0  0  0  0  0  0  0  0  0  0
   35.9750   32.9110   37.6410 H   0  0  0  0  0  0  0  0  0  0  0  0
   31.8190   32.8900   37.0850 H   0  0  0  0  0  0  0  0  0  0  0  0
   31.7040   30.7450   35.1890 H   0  0  0  0  0  0  0  0  0  0  0  0
   38.5250   26.5740   33.7380 C   0  0  0  0  0  0  0  0  0  0  0  0
   39.6080   26.8670   33.1660 O   0  0  0  0  0  0  0  0  0  0  0  0
   38.3120   25.3550   34.4700 C   0  0  0  0  0  0  0  0  0  0  0  0
   38.2460   24.1770   33.7530 C   0  0  0  0  0  0  0  0  0  0  0  0
   38.0430   22.9700   34.4020 C   0  0  0  0  0  0  0  0  0  0  0  0
   37.9180   23.0280   35.7540 N   0  0  0  0  0  0  0  0  0  0  0  0
   37.9830   24.1670   36.4450 C   0  0  0  0  0  0  0  0  0  0  0  0
   38.1790   25.3140   35.7930 N   0  0  0  0  0  0  0  0  0  0  0  0
   38.3520   24.1830   32.6690 H   0  0  0  0  0  0  0  0  0  0  0  0
   37.9850   22.0370   33.8840 H   0  0  0  0  0  0  0  0  0  0  0  0
   37.8490   24.2490   37.9200 C   0  0  0  0  0  2  0  0  0  0  0  0
   38.8590   23.3800   38.6340 C   0  0  0  0  0  2  0  0  0  0  0  0
   39.1110   23.8580   39.5990 H   0  0  0  0  0  0  0  0  0  0  0  0
  1 22  1  0  0  0  0
  1  5  1  0  0  0  0
  2  3  1  0  0  0  0
  2  1  2  0  0  0  0
  3  4  2  0  0  0  0
  4  5  1  0  0  0  0
  4  9  1  0  0  0  0
  6  2  1  0  0  0  0
  7  3  1  0  0  0  0
  8  9  2  0  0  0  0
  8 16  1  0  0  0  0
  9 10  1  0  0  0  0
 10 18  1  0  0  0  0
 10 11  2  0  0  0  0
 11 12  1  0  0  0  0
 12 13  1  0  0  0  0
 12 19  1  0  0  0  0
 14 20  1  0  0  0  0
 14 13  2  0  0  0  0
 15 11  1  0  0  0  0
 15 14  1  0  0  0  0
 16 15  2  0  0  0  0
 17  8  1  0  0  0  0
 21 16  1  0  0  0  0
 22 24  1  0  0  0  0
 23 22  2  0  0  0  0
 24 29  1  0  0  0  0
 25 26  1  0  0  0  0
 25 24  2  0  0  0  0
 26 27  2  0  0  0  0
 27 28  1  0  0  0  0
 28 32  1  0  0  0  0
 29 28  2  0  0  0  0
 30 25  1  0  0  0  0
 31 26  1  0  0  0  0
 32 33  1  0  0  0  0
 33 34  1  0  0  0  0
M  END
>  <minimizedAffinity>
-5.99110508

$$$$

 OpenBabel03272507153D

 34 37  0  0  0  0  0  0  0  0999 V2000
   36.0690   28.6150   33.3980 C   0  0  0  0  0  0  0  0  0  0  0  0
   36.8870   28.3860   32.3430 C   0  0  0  0  0  0  0  0  0  0  0  0
   37.7290   27.3340   32.7080 C   0  0  0  0  0  0  0  0  0  0  0  0
   37.3460   26.9830   34.0110 C   0  0  0  0  0  0  0  0  0  0  0  0
   36.3730   27.7710   34.3510 O   0  0  0  0  0  0  0  0  0  0  0  0
   36.9070   28.9110   31.3800 H   0  0  0  0  0  0  0  0  0  0  0  0
   38.4810   26.9550   32.0380 H   0  0  0  0  0  0  0  0  0  0  0  0
   38.9890   25.1200   34.1540 C   0  0  0  0  0  0  0  0  0  0  0  0
   38.0070   25.9060   34.7410 C   0  0  0  0  0  0  0  0  0  0  0  0
   37.6090   25.7020   36.0510 C   0  0  0  0  0  0  0  0  0  0  0  0
   38.2220   24.6900   36.7640 C   0  0  0  0  0  0  0  0  0  0  0  0
   38.0440   24.2770   38.0190 N   0  0  0  0  0  0  0  0  0  0  0  0
   38.8810   23.2650   38.2330 N   0  0  0  0  0  0  0  0  0  0  0  0
   39.5870   23.0330   37.1250 C   0  0  0  0  0  0  0  0  0  0  0  0
   39.1990   23.9310   36.1390 C   0  0  0  0  0  0  0  0  0  0  0  0
   39.6060   24.1210   34.8320 C   0  0  0  0  0  0  0  0  0  0  0  0
   39.2850   25.2990   33.1220 H   0  0  0  0  0  0  0  0  0  0  0  0
   36.8460   26.2820   36.5660 H   0  0  0  0  0  0  0  0  0  0  0  0
   37.3700   24.6620   38.7380 H   0  0  0  0  0  0  0  0  0  0  0  0
   40.3470   22.2530   37.0310 H   0  0  0  0  0  0  0  0  0  0  0  0
   40.3770   23.4720   34.4390 H   0  0  0  0  0  0  0  0  0  0  0  0
   35.0470   29.6560   33.3760 C   0  0  0  0  0  0  0  0  0  0  0  0
   34.3820   29.8290   32.3200 O   0  0  0  0  0  0  0  0  0  0  0  0
   34.8600   30.4290   34.5730 C   0  0  0  0  0  0  0  0  0  0  0  0
   35.9040   31.2290   34.9920 C   0  0  0  0  0  0  0  0  0  0  0  0
   35.7850   31.9990   36.1380 C   0  0  0  0  0  0  0  0  0  0  0  0
   34.6010   31.9110   36.8000 N   0  0  0  0  0  0  0  0  0  0  0  0
   33.5920   31.1370   36.3930 C   0  0  0  0  0  0  0  0  0  0  0  0
   33.7370   30.4080   35.2860 N   0  0  0  0  0  0  0  0  0  0  0  0
   36.8340   31.2660   34.4260 H   0  0  0  0  0  0  0  0  0  0  0  0
   36.5690   32.6300   36.4950 H   0  0  0  0  0  0  0  0  0  0  0  0
   32.2950   31.0290   37.1020 C   0  0  0  0  0  2  0  0  0  0  0  0
   31.7000   29.6430   36.9980 C   0  0  0  0  0  2  0  0  0  0  0  0
   31.1190   29.4420   37.9170 H   0  0  0  0  0  0  0  0  0  0  0  0
  1  5  1  0  0  0  0
  2  3  1  0  0  0  0
  2  1  2  0  0  0  0
  3  4  2  0  0  0  0
  4  5  1  0  0  0  0
  4  9  1  0  0  0  0
  6  2  1  0  0  0  0
  7  3  1  0  0  0  0
  8  9  2  0  0  0  0
  8 16  1  0  0  0  0
  9 10  1  0  0  0  0
 10 18  1  0  0  0  0
 10 11  2  0  0  0  0
 11 12  1  0  0  0  0
 12 13  1  0  0  0  0
 12 19  1  0  0  0  0
 14 13  2  0  0  0  0
 15 11  1  0  0  0  0
 15 14  1  0  0  0  0
 16 15  2  0  0  0  0
 17  8  1  0  0  0  0
 20 14  1  0  0  0  0
 21 16  1  0  0  0  0
 22  1  1  0  0  0  0
 22 24  1  0  0  0  0
 23 22  2  0  0  0  0
 24 25  2  0  0  0  0
 24 29  1  0  0  0  0
 25 26  1  0  0  0  0
 26 31  1  0  0  0  0
 26 27  2  0  0  0  0
 28 27  1  0  0  0  0
 28 32  1  0  0  0  0
 29 28  2  0  0  0  0
 30 25  1  0  0  0  0
 33 32  1  0  0  0  0
 33 34  1  0  0  0  0
M  END
>  <minimizedAffinity>
-5.92829943

$$$$

 OpenBabel03272507153D

 34 37  0  0  0  0  0  0  0  0999 V2000
   36.7150   28.1190   32.7290 C   0  0  0  0  0  0  0  0  0  0  0  0
   37.7610   27.8560   31.9090 C   0  0  0  0  0  0  0  0  0  0  0  0
   38.5140   26.8560   32.5280 C   0  0  0  0  0  0  0  0  0  0  0  0
   37.8450   26.5730   33.7280 C   0  0  0  0  0  0  0  0  0  0  0  0
   36.8050   27.3450   33.7800 O   0  0  0  0  0  0  0  0  0  0  0  0
   37.9950   28.3220   30.9430 H   0  0  0  0  0  0  0  0  0  0  0  0
   39.4090   26.4640   32.0770 H   0  0  0  0  0  0  0  0  0  0  0  0
   39.2980   24.6320   34.2910 C   0  0  0  0  0  0  0  0  0  0  0  0
   38.3380   25.5640   34.6610 C   0  0  0  0  0  0  0  0  0  0  0  0
   37.8040   25.5790   35.9380 C   0  0  0  0  0  0  0  0  0  0  0  0
   38.2570   24.6370   36.8400 C   0  0  0  0  0  0  0  0  0  0  0  0
   37.9280   24.4220   38.1140 N   0  0  0  0  0  0  0  0  0  0  0  0
   38.6490   23.3910   38.5480 N   0  0  0  0  0  0  0  0  0  0  0  0
   39.4320   22.9520   37.5610 C   0  0  0  0  0  0  0  0  0  0  0  0
   39.2170   23.7260   36.4280 C   0  0  0  0  0  0  0  0  0  0  0  0
   39.7590   23.6980   35.1570 C   0  0  0  0  0  0  0  0  0  0  0  0
   39.7030   24.6390   33.2800 H   0  0  0  0  0  0  0  0  0  0  0  0
   37.0510   26.2820   36.2880 H   0  0  0  0  0  0  0  0  0  0  0  0
   37.2270   24.9540   38.7010 H   0  0  0  0  0  0  0  0  0  0  0  0
   40.1260   22.1120   37.6520 H   0  0  0  0  0  0  0  0  0  0  0  0
   40.5030   22.9440   34.9370 H   0  0  0  0  0  0  0  0  0  0  0  0
   35.7070   29.1220   32.4010 C   0  0  0  0  0  0  0  0  0  0  0  0
   35.5250   29.4250   31.1920 O   0  0  0  0  0  0  0  0  0  0  0  0
   34.9750   29.7090   33.4900 C   0  0  0  0  0  0  0  0  0  0  0  0
   33.6360   29.3960   33.6080 C   0  0  0  0  0  0  0  0  0  0  0  0
   32.8770   29.9300   34.6370 C   0  0  0  0  0  0  0  0  0  0  0  0
   33.5270   30.7590   35.4960 N   0  0  0  0  0  0  0  0  0  0  0  0
   34.8230   31.0590   35.3810 C   0  0  0  0  0  0  0  0  0  0  0  0
   35.5270   30.5300   34.3790 N   0  0  0  0  0  0  0  0  0  0  0  0
   33.1590   28.7260   32.8930 H   0  0  0  0  0  0  0  0  0  0  0  0
   31.8380   29.7130   34.7630 H   0  0  0  0  0  0  0  0  0  0  0  0
   35.5480   31.9600   36.3080 C   0  0  0  0  0  2  0  0  0  0  0  0
   34.6080   32.8050   37.1370 C   0  0  0  0  0  2  0  0  0  0  0  0
   35.0820   32.9990   38.1160 H   0  0  0  0  0  0  0  0  0  0  0  0
  1  5  1  0  0  0  0
  2  3  1  0  0  0  0
  2  1  2  0  0  0  0
  3  4  2  0  0  0  0
  4  5  1  0  0  0  0
  4  9  1  0  0  0  0
  6  2  1  0  0  0  0
  7  3  1  0  0  0  0
  8  9  2  0  0  0  0
  8 16  1  0  0  0  0
  9 10  1  0  0  0  0
 10 18  1  0  0  0  0
 10 11  2  0  0  0  0
 11 12  1  0  0  0  0
 12 13  1  0  0  0  0
 12 19  1  0  0  0  0
 14 20  1  0  0  0  0
 14 13  2  0  0  0  0
 15 11  1  0  0  0  0
 15 14  1  0  0  0  0
 16 15  2  0  0  0  0
 17  8  1  0  0  0  0
 21 16  1  0  0  0  0
 22  1  1  0  0  0  0
 22 24  1  0  0  0  0
 23 22  2  0  0  0  0
 24 25  2  0  0  0  0
 24 29  1  0  0  0  0
 25 26  1  0  0  0  0
 26 31  1  0  0  0  0
 26 27  2  0  0  0  0
 28 27  1  0  0  0  0
 28 32  1  0  0  0  0
 29 28  2  0  0  0  0
 30 25  1  0  0  0  0
 32 33  1  0  0  0  0
 33 34  1  0  0  0  0
M  END
>  <minimizedAffinity>
-5.91066027

$$$$

 OpenBabel03272507153D

 34 37  0  0  0  0  0  0  0  0999 V2000
   38.2590   24.6080   35.0860 C   0  0  0  0  0  0  0  0  0  0  0  0
   38.4750   25.4250   36.1450 C   0  0  0  0  0  0  0  0  0  0  0  0
   38.0300   26.6950   35.7690 C   0  0  0  0  0  0  0  0  0  0  0  0
   37.5580   26.5520   34.4560 C   0  0  0  0  0  0  0  0  0  0  0  0
   37.7210   25.3090   34.1220 O   0  0  0  0  0  0  0  0  0  0  0  0
   38.9110   25.1670   37.1180 H   0  0  0  0  0  0  0  0  0  0  0  0
   38.0910   27.5340   36.4390 H   0  0  0  0  0  0  0  0  0  0  0  0
   36.1450   28.5940   34.3060 C   0  0  0  0  0  0  0  0  0  0  0  0
   37.0040   27.6790   33.7140 C   0  0  0  0  0  0  0  0  0  0  0  0
   37.3770   27.7980   32.3860 C   0  0  0  0  0  0  0  0  0  0  0  0
   36.8690   28.8590   31.6630 C   0  0  0  0  0  0  0  0  0  0  0  0
   37.0560   29.2160   30.3920 N   0  0  0  0  0  0  0  0  0  0  0  0
   36.3440   30.3190   30.1740 N   0  0  0  0  0  0  0  0  0  0  0  0
   35.7090   30.6650   31.2960 C   0  0  0  0  0  0  0  0  0  0  0  0
   36.0160   29.7500   32.2950 C   0  0  0  0  0  0  0  0  0  0  0  0
   35.6330   29.6440   33.6190 C   0  0  0  0  0  0  0  0  0  0  0  0
   35.8650   28.4810   35.3520 H   0  0  0  0  0  0  0  0  0  0  0  0
   38.0450   27.1150   31.8650 H   0  0  0  0  0  0  0  0  0  0  0  0
   37.6520   28.7320   29.6630 H   0  0  0  0  0  0  0  0  0  0  0  0
   35.0560   31.5360   31.3900 H   0  0  0  0  0  0  0  0  0  0  0  0
   34.9610   30.3930   34.0160 H   0  0  0  0  0  0  0  0  0  0  0  0
   38.6060   23.1900   35.1180 C   0  0  0  0  0  0  0  0  0  0  0  0
   39.8040   22.8650   35.3310 O   0  0  0  0  0  0  0  0  0  0  0  0
   37.5460   22.2430   34.9030 C   0  0  0  0  0  0  0  0  0  0  0  0
   36.8720   21.7690   36.0100 C   0  0  0  0  0  0  0  0  0  0  0  0
   35.8410   20.8550   35.8670 C   0  0  0  0  0  0  0  0  0  0  0  0
   35.5510   20.4700   34.5970 N   0  0  0  0  0  0  0  0  0  0  0  0
   36.2030   20.9300   33.5270 C   0  0  0  0  0  0  0  0  0  0  0  0
   37.1920   21.8090   33.6960 N   0  0  0  0  0  0  0  0  0  0  0  0
   37.1430   22.1080   37.0090 H   0  0  0  0  0  0  0  0  0  0  0  0
   35.2950   20.4640   36.6990 H   0  0  0  0  0  0  0  0  0  0  0  0
   35.9000   20.5220   32.1340 C   0  0  0  0  0  2  0  0  0  0  0  0
   34.8200   19.4660   32.0710 C   0  0  0  0  0  2  0  0  0  0  0  0
   34.2550   19.5990   31.1300 H   0  0  0  0  0  0  0  0  0  0  0  0
  1 22  1  0  0  0  0
  1  2  2  0  0  0  0
  2  6  1  0  0  0  0
  3  2  1  0  0  0  0
  3  7  1  0  0  0  0
  4  3  2  0  0  0  0
  5  4  1  0  0  0  0
  5  1  1  0  0  0  0
  8 17  1  0  0  0  0
  9  8  1  0  0  0  0
  9  4  1  0  0  0  0
 10  9  2  0  0  0  0
 11 15  2  0  0  0  0
 11 10  1  0  0  0  0
 12 11  1  0  0  0  0
 13 12  1  0  0  0  0
 13 14  2  0  0  0  0
 14 20  1  0  0  0  0
 14 15  1  0  0  0  0
 15 16  1  0  0  0  0
 16 21  1  0  0  0  0
 16  8  2  0  0  0  0
 18 10  1  0  0  0  0
 19 12  1  0  0  0  0
 22 23  2  0  0  0  0
 24 22  1  0  0  0  0
 24 25  1  0  0  0  0
 25 30  1  0  0  0  0
 26 25  2  0  0  0  0
 26 31  1  0  0  0  0
 27 26  1  0  0  0  0
 28 29  1  0  0  0  0
 28 27  2  0  0  0  0
 29 24  2  0  0  0  0
 32 28  1  0  0  0  0
 33 32  1  0  0  0  0
 34 33  1  0  0  0  0
M  END
>  <minimizedAffinity>
-5.84898281

$$$$

 OpenBabel03272507153D

 34 37  0  0  0  0  0  0  0  0999 V2000
   38.0750   25.1430   33.9030 C   0  0  0  0  0  0  0  0  0  0  0  0
   39.1480   25.7890   33.3850 C   0  0  0  0  0  0  0  0  0  0  0  0
   38.7210   27.0780   33.0580 C   0  0  0  0  0  0  0  0  0  0  0  0
   37.3660   27.1250   33.4150 C   0  0  0  0  0  0  0  0  0  0  0  0
   37.0560   25.9630   33.9020 O   0  0  0  0  0  0  0  0  0  0  0  0
   40.1630   25.3990   33.2390 H   0  0  0  0  0  0  0  0  0  0  0  0
   39.3910   27.7990   32.6250 H   0  0  0  0  0  0  0  0  0  0  0  0
   35.9420   28.9710   34.2850 C   0  0  0  0  0  0  0  0  0  0  0  0
   36.5640   28.3290   33.2230 C   0  0  0  0  0  0  0  0  0  0  0  0
   36.4520   28.8060   31.9280 C   0  0  0  0  0  0  0  0  0  0  0  0
   35.7000   29.9460   31.7210 C   0  0  0  0  0  0  0  0  0  0  0  0
   35.4270   30.6170   30.6020 N   0  0  0  0  0  0  0  0  0  0  0  0
   34.6590   31.6530   30.9310 N   0  0  0  0  0  0  0  0  0  0  0  0
   34.4440   31.6450   32.2470 C   0  0  0  0  0  0  0  0  0  0  0  0
   35.0980   30.5560   32.8100 C   0  0  0  0  0  0  0  0  0  0  0  0
   35.2000   30.0920   34.1080 C   0  0  0  0  0  0  0  0  0  0  0  0
   36.0440   28.5780   35.2950 H   0  0  0  0  0  0  0  0  0  0  0  0
   36.9130   28.3480   31.0550 H   0  0  0  0  0  0  0  0  0  0  0  0
   35.7460   30.3950   29.6180 H   0  0  0  0  0  0  0  0  0  0  0  0
   33.8430   32.3870   32.7790 H   0  0  0  0  0  0  0  0  0  0  0  0
   34.6900   30.6420   34.8870 H   0  0  0  0  0  0  0  0  0  0  0  0
   38.1490   23.7590   34.3590 C   0  0  0  0  0  0  0  0  0  0  0  0
   37.8640   22.8380   33.5490 O   0  0  0  0  0  0  0  0  0  0  0  0
   38.5470   23.5300   35.7220 C   0  0  0  0  0  0  0  0  0  0  0  0
   37.7410   24.0360   36.7210 C   0  0  0  0  0  0  0  0  0  0  0  0
   38.0710   23.8470   38.0530 C   0  0  0  0  0  0  0  0  0  0  0  0
   39.2120   23.1500   38.2970 N   0  0  0  0  0  0  0  0  0  0  0  0
   39.9890   22.6600   37.3290 C   0  0  0  0  0  0  0  0  0  0  0  0
   39.6460   22.8580   36.0560 N   0  0  0  0  0  0  0  0  0  0  0  0
   36.8360   24.5900   36.4750 H   0  0  0  0  0  0  0  0  0  0  0  0
   37.4750   24.2230   38.8560 H   0  0  0  0  0  0  0  0  0  0  0  0
   41.2360   21.8970   37.5760 C   0  0  0  0  0  2  0  0  0  0  0  0
   41.8770   21.4180   36.2930 C   0  0  0  0  0  2  0  0  0  0  0  0
   42.9720   21.3850   36.4410 H   0  0  0  0  0  0  0  0  0  0  0  0
  1 22  1  0  0  0  0
  2  1  2  0  0  0  0
  3  2  1  0  0  0  0
  3  4  2  0  0  0  0
  4  5  1  0  0  0  0
  5  1  1  0  0  0  0
  6  2  1  0  0  0  0
  7  3  1  0  0  0  0
  8 17  1  0  0  0  0
  9  4  1  0  0  0  0
  9  8  2  0  0  0  0
 10  9  1  0  0  0  0
 11 10  2  0  0  0  0
 11 15  1  0  0  0  0
 12 13  1  0  0  0  0
 12 11  1  0  0  0  0
 13 14  2  0  0  0  0
 14 20  1  0  0  0  0
 14 15  1  0  0  0  0
 15 16  2  0  0  0  0
 16  8  1  0  0  0  0
 16 21  1  0  0  0  0
 18 10  1  0  0  0  0
 19 12  1  0  0  0  0
 22 24  1  0  0  0  0
 23 22  2  0  0  0  0
 24 29  2  0  0  0  0
 24 25  1  0  0  0  0
 25 26  2  0  0  0  0
 26 27  1  0  0  0  0
 26 31  1  0  0  0  0
 28 32  1  0  0  0  0
 28 27  2  0  0  0  0
 29 28  1  0  0  0  0
 30 25  1  0  0  0  0
 33 34  1  0  0  0  0
 33 32  1  0  0  0  0
M  END
>  <minimizedAffinity>
-5.82044649

$$$$

 OpenBabel03272507153D

 34 37  0  0  0  0  0  0  0  0999 V2000
   35.9720   26.2790   31.9500 C   0  0  0  0  0  0  0  0  0  0  0  0
   37.0220   26.1620   32.7980 C   0  0  0  0  0  0  0  0  0  0  0  0
   37.1520   27.3910   33.4480 C   0  0  0  0  0  0  0  0  0  0  0  0
   36.1310   28.1990   32.9270 C   0  0  0  0  0  0  0  0  0  0  0  0
   35.4810   27.4870   32.0590 O   0  0  0  0  0  0  0  0  0  0  0  0
   37.6620   25.2860   32.9610 H   0  0  0  0  0  0  0  0  0  0  0  0
   37.9200   27.5620   34.1810 H   0  0  0  0  0  0  0  0  0  0  0  0
   35.8130   30.6240   32.4690 C   0  0  0  0  0  0  0  0  0  0  0  0
   35.9410   29.5770   33.3710 C   0  0  0  0  0  0  0  0  0  0  0  0
   35.8920   29.7930   34.7370 C   0  0  0  0  0  0  0  0  0  0  0  0
   35.7110   31.0890   35.1810 C   0  0  0  0  0  0  0  0  0  0  0  0
   35.6250   31.5810   36.4170 N   0  0  0  0  0  0  0  0  0  0  0  0
   35.4470   32.8960   36.3150 N   0  0  0  0  0  0  0  0  0  0  0  0
   35.4200   33.2410   35.0260 C   0  0  0  0  0  0  0  0  0  0  0  0
   35.5870   32.1040   34.2460 C   0  0  0  0  0  0  0  0  0  0  0  0
   35.6340   31.9040   32.8790 C   0  0  0  0  0  0  0  0  0  0  0  0
   35.8550   30.4300   31.3990 H   0  0  0  0  0  0  0  0  0  0  0  0
   35.9870   29.0160   35.4930 H   0  0  0  0  0  0  0  0  0  0  0  0
   35.6830   31.0520   37.3320 H   0  0  0  0  0  0  0  0  0  0  0  0
   35.2860   34.2630   34.6640 H   0  0  0  0  0  0  0  0  0  0  0  0
   35.5270   32.7660   32.2340 H   0  0  0  0  0  0  0  0  0  0  0  0
   35.5390   25.1780   31.0960 C   0  0  0  0  0  0  0  0  0  0  0  0
   34.5700   25.3640   30.3120 O   0  0  0  0  0  0  0  0  0  0  0  0
   36.2520   23.9340   31.2030 C   0  0  0  0  0  0  0  0  0  0  0  0
   37.4630   23.8290   30.5480 C   0  0  0  0  0  0  0  0  0  0  0  0
   38.1980   22.6570   30.6140 C   0  0  0  0  0  0  0  0  0  0  0  0
   37.6570   21.6480   31.3470 N   0  0  0  0  0  0  0  0  0  0  0  0
   36.4860   21.7520   31.9790 C   0  0  0  0  0  0  0  0  0  0  0  0
   35.8010   22.8940   31.8970 N   0  0  0  0  0  0  0  0  0  0  0  0
   37.8550   24.6670   29.9730 H   0  0  0  0  0  0  0  0  0  0  0  0
   39.1390   22.5350   30.1220 H   0  0  0  0  0  0  0  0  0  0  0  0
   35.8800   20.6630   32.7830 C   0  0  0  0  0  2  0  0  0  0  0  0
   34.6910   20.0370   32.0910 C   0  0  0  0  0  2  0  0  0  0  0  0
   34.6370   18.9720   32.3840 H   0  0  0  0  0  0  0  0  0  0  0  0
  1  5  1  0  0  0  0
  1  2  2  0  0  0  0
  2  6  1  0  0  0  0
  2  3  1  0  0  0  0
  3  7  1  0  0  0  0
  4  9  1  0  0  0  0
  4  3  2  0  0  0  0
  5  4  1  0  0  0  0
  8 16  2  0  0  0  0
  8  9  1  0  0  0  0
  9 10  2  0  0  0  0
 10 11  1  0  0  0  0
 10 18  1  0  0  0  0
 11 12  1  0  0  0  0
 12 19  1  0  0  0  0
 13 12  1  0  0  0  0
 14 13  2  0  0  0  0
 15 14  1  0  0  0  0
 15 11  2  0  0  0  0
 16 15  1  0  0  0  0
 17  8  1  0  0  0  0
 20 14  1  0  0  0  0
 21 16  1  0  0  0  0
 22 24  1  0  0  0  0
 22  1  1  0  0  0  0
 23 22  2  0  0  0  0
 24 29  1  0  0  0  0
 25 26  1  0  0  0  0
 25 24  2  0  0  0  0
 26 27  2  0  0  0  0
 27 28  1  0  0  0  0
 28 32  1  0  0  0  0
 29 28  2  0  0  0  0
 30 25  1  0  0  0  0
 31 26  1  0  0  0  0
 33 34  1  0  0  0  0
 33 32  1  0  0  0  0
M  END
>  <minimizedAffinity>
-5.80671167

$$$$

 OpenBabel03272507153D

 34 37  0  0  0  0  0  0  0  0999 V2000
   38.2080   24.4250   35.3290 C   0  0  0  0  0  0  0  0  0  0  0  0
   38.4150   25.3280   36.3170 C   0  0  0  0  0  0  0  0  0  0  0  0
   38.0360   26.5730   35.8100 C   0  0  0  0  0  0  0  0  0  0  0  0
   37.6100   26.3270   34.4970 C   0  0  0  0  0  0  0  0  0  0  0  0
   37.7360   25.0540   34.2830 O   0  0  0  0  0  0  0  0  0  0  0  0
   38.8030   25.1450   37.3270 H   0  0  0  0  0  0  0  0  0  0  0  0
   38.1050   27.4670   36.4030 H   0  0  0  0  0  0  0  0  0  0  0  0
   36.2570   28.3760   34.0930 C   0  0  0  0  0  0  0  0  0  0  0  0
   37.1310   27.4010   33.6320 C   0  0  0  0  0  0  0  0  0  0  0  0
   37.5910   27.4060   32.3270 C   0  0  0  0  0  0  0  0  0  0  0  0
   37.1550   28.4150   31.4900 C   0  0  0  0  0  0  0  0  0  0  0  0
   37.4310   28.6650   30.2100 N   0  0  0  0  0  0  0  0  0  0  0  0
   36.7600   29.7590   29.8600 N   0  0  0  0  0  0  0  0  0  0  0  0
   36.0620   30.2050   30.9060 C   0  0  0  0  0  0  0  0  0  0  0  0
   36.2830   29.3680   31.9930 C   0  0  0  0  0  0  0  0  0  0  0  0
   35.8140   29.3760   33.2930 C   0  0  0  0  0  0  0  0  0  0  0  0
   35.9080   28.3520   35.1240 H   0  0  0  0  0  0  0  0  0  0  0  0
   38.2750   26.6720   31.9060 H   0  0  0  0  0  0  0  0  0  0  0  0
   38.0620   28.1140   29.5630 H   0  0  0  0  0  0  0  0  0  0  0  0
   35.4240   31.0920   30.8880 H   0  0  0  0  0  0  0  0  0  0  0  0
   35.1350   30.1660   33.5840 H   0  0  0  0  0  0  0  0  0  0  0  0
   38.4960   23.0050   35.5030 C   0  0  0  0  0  0  0  0  0  0  0  0
   38.9960   22.6180   36.5930 O   0  0  0  0  0  0  0  0  0  0  0  0
   38.1890   22.1260   34.4080 C   0  0  0  0  0  0  0  0  0  0  0  0
   39.2170   21.7770   33.5550 C   0  0  0  0  0  0  0  0  0  0  0  0
   38.9840   20.9330   32.4820 C   0  0  0  0  0  0  0  0  0  0  0  0
   37.7090   20.4870   32.3340 N   0  0  0  0  0  0  0  0  0  0  0  0
   36.7160   20.8240   33.1610 C   0  0  0  0  0  0  0  0  0  0  0  0
   36.9710   21.6390   34.1850 N   0  0  0  0  0  0  0  0  0  0  0  0
   40.2230   22.1620   33.7160 H   0  0  0  0  0  0  0  0  0  0  0  0
   39.7510   20.6400   31.7990 H   0  0  0  0  0  0  0  0  0  0  0  0
   35.3200   20.3470   33.0150 C   0  0  0  0  0  2  0  0  0  0  0  0
   35.2530   18.9030   32.5740 C   0  0  0  0  0  2  0  0  0  0  0  0
   34.3420   18.4480   33.0030 H   0  0  0  0  0  0  0  0  0  0  0  0
  1 22  1  0  0  0  0
  1  2  2  0  0  0  0
  2  6  1  0  0  0  0
  3  2  1  0  0  0  0
  3  7  1  0  0  0  0
  4  3  2  0  0  0  0
  5  4  1  0  0  0  0
  5  1  1  0  0  0  0
  8 17  1  0  0  0  0
  9  8  1  0  0  0  0
  9  4  1  0  0  0  0
 10  9  2  0  0  0  0
 11 15  2  0  0  0  0
 11 10  1  0  0  0  0
 12 11  1  0  0  0  0
 13 12  1  0  0  0  0
 13 14  2  0  0  0  0
 14 15  1  0  0  0  0
 15 16  1  0  0  0  0
 16 21  1  0  0  0  0
 16  8  2  0  0  0  0
 18 10  1  0  0  0  0
 19 12  1  0  0  0  0
 20 14  1  0  0  0  0
 22 23  2  0  0  0  0
 24 22  1  0  0  0  0
 25 30  1  0  0  0  0
 25 24  2  0  0  0  0
 26 25  1  0  0  0  0
 27 26  2  0  0  0  0
 27 28  1  0  0  0  0
 28 29  2  0  0  0  0
 29 24  1  0  0  0  0
 31 26  1  0  0  0  0
 32 28  1  0  0  0  0
 33 34  1  0  0  0  0
 33 32  1  0  0  0  0
M  END
>  <minimizedAffinity>
-5.77329016

$$$$

 OpenBabel03272507153D

 34 37  0  0  0  0  0  0  0  0999 V2000
   36.3730   25.8600   31.8570 C   0  0  0  0  0  0  0  0  0  0  0  0
   35.2560   25.8000   31.0940 C   0  0  0  0  0  0  0  0  0  0  0  0
   34.9620   24.4460   30.9170 C   0  0  0  0  0  0  0  0  0  0  0  0
   35.9630   23.7530   31.6140 C   0  0  0  0  0  0  0  0  0  0  0  0
   36.7510   24.6400   32.1390 O   0  0  0  0  0  0  0  0  0  0  0  0
   34.6760   26.6350   30.6810 H   0  0  0  0  0  0  0  0  0  0  0  0
   34.1130   24.1240   30.3400 H   0  0  0  0  0  0  0  0  0  0  0  0
   35.0140   21.5640   32.3200 C   0  0  0  0  0  0  0  0  0  0  0  0
   35.9930   22.2950   31.6620 C   0  0  0  0  0  0  0  0  0  0  0  0
   37.0470   21.6700   31.0180 C   0  0  0  0  0  0  0  0  0  0  0  0
   37.0960   20.2890   31.0470 C   0  0  0  0  0  0  0  0  0  0  0  0
   37.9770   19.4380   30.5210 N   0  0  0  0  0  0  0  0  0  0  0  0
   37.5790   18.2060   30.8270 N   0  0  0  0  0  0  0  0  0  0  0  0
   36.4540   18.2690   31.5420 C   0  0  0  0  0  0  0  0  0  0  0  0
   36.0960   19.6000   31.7140 C   0  0  0  0  0  0  0  0  0  0  0  0
   35.0390   20.2100   32.3630 C   0  0  0  0  0  0  0  0  0  0  0  0
   34.1940   22.0780   32.8200 H   0  0  0  0  0  0  0  0  0  0  0  0
   37.8450   22.1850   30.4870 H   0  0  0  0  0  0  0  0  0  0  0  0
   38.8440   19.6670   29.9580 H   0  0  0  0  0  0  0  0  0  0  0  0
   35.9170   17.3970   31.9230 H   0  0  0  0  0  0  0  0  0  0  0  0
   34.3110   19.5780   32.8550 H   0  0  0  0  0  0  0  0  0  0  0  0
   36.9770   27.1300   32.2490 C   0  0  0  0  0  0  0  0  0  0  0  0
   36.7030   28.1620   31.5810 O   0  0  0  0  0  0  0  0  0  0  0  0
   37.8580   27.1240   33.3850 C   0  0  0  0  0  0  0  0  0  0  0  0
   37.2890   27.1990   34.6400 C   0  0  0  0  0  0  0  0  0  0  0  0
   38.0850   27.1970   35.7740 C   0  0  0  0  0  0  0  0  0  0  0  0
   39.4260   27.1180   35.5670 N   0  0  0  0  0  0  0  0  0  0  0  0
   39.9740   27.0440   34.3520 C   0  0  0  0  0  0  0  0  0  0  0  0
   39.1820   27.0490   33.2790 N   0  0  0  0  0  0  0  0  0  0  0  0
   36.2070   27.2610   34.7540 H   0  0  0  0  0  0  0  0  0  0  0  0
   37.6840   27.2540   36.7630 H   0  0  0  0  0  0  0  0  0  0  0  0
   41.4340   26.9570   34.1070 C   0  0  0  0  0  2  0  0  0  0  0  0
   41.7550   26.6970   32.6530 C   0  0  0  0  0  2  0  0  0  0  0  0
   42.7220   27.1780   32.4170 H   0  0  0  0  0  0  0  0  0  0  0  0
  1  5  1  0  0  0  0
  1 22  1  0  0  0  0
  2  1  2  0  0  0  0
  3  2  1  0  0  0  0
  3  4  2  0  0  0  0
  4  9  1  0  0  0  0
  4  5  1  0  0  0  0
  6  2  1  0  0  0  0
  7  3  1  0  0  0  0
  8 16  1  0  0  0  0
  8 17  1  0  0  0  0
  9  8  2  0  0  0  0
 10 11  2  0  0  0  0
 10  9  1  0  0  0  0
 11 15  1  0  0  0  0
 12 13  1  0  0  0  0
 12 11  1  0  0  0  0
 13 14  2  0  0  0  0
 14 15  1  0  0  0  0
 14 20  1  0  0  0  0
 15 16  2  0  0  0  0
 16 21  1  0  0  0  0
 18 10  1  0  0  0  0
 19 12  1  0  0  0  0
 22 24  1  0  0  0  0
 23 22  2  0  0  0  0
 24 25  1  0  0  0  0
 25 30  1  0  0  0  0
 25 26  2  0  0  0  0
 26 31  1  0  0  0  0
 27 26  1  0  0  0  0
 28 27  2  0  0  0  0
 29 24  2  0  0  0  0
 29 28  1  0  0  0  0
 32 28  1  0  0  0  0
 33 32  1  0  0  0  0
 34 33  1  0  0  0  0
M  END
>  <minimizedAffinity>
-5.77027321

$$$$

 OpenBabel03272507153D

 34 37  0  0  0  0  0  0  0  0999 V2000
   36.9520   27.5710   32.8240 C   0  0  0  0  0  0  0  0  0  0  0  0
   36.6630   28.4450   31.8310 C   0  0  0  0  0  0  0  0  0  0  0  0
   35.9790   29.5110   32.4200 C   0  0  0  0  0  0  0  0  0  0  0  0
   35.9000   29.1950   33.7840 C   0  0  0  0  0  0  0  0  0  0  0  0
   36.4870   28.0500   33.9490 O   0  0  0  0  0  0  0  0  0  0  0  0
   36.9050   28.3580   30.7640 H   0  0  0  0  0  0  0  0  0  0  0  0
   35.6340   30.3480   31.8410 H   0  0  0  0  0  0  0  0  0  0  0  0
   35.9680   30.9700   35.5260 C   0  0  0  0  0  0  0  0  0  0  0  0
   35.2460   30.0830   34.7400 C   0  0  0  0  0  0  0  0  0  0  0  0
   33.8670   30.0030   34.8280 C   0  0  0  0  0  0  0  0  0  0  0  0
   33.2250   30.8360   35.7230 C   0  0  0  0  0  0  0  0  0  0  0  0
   31.9310   30.9720   36.0110 N   0  0  0  0  0  0  0  0  0  0  0  0
   31.8240   31.9130   36.9470 N   0  0  0  0  0  0  0  0  0  0  0  0
   33.0380   32.3730   37.2530 C   0  0  0  0  0  0  0  0  0  0  0  0
   33.9860   31.7070   36.4870 C   0  0  0  0  0  0  0  0  0  0  0  0
   35.3630   31.7980   36.4120 C   0  0  0  0  0  0  0  0  0  0  0  0
   37.0530   31.0160   35.4400 H   0  0  0  0  0  0  0  0  0  0  0  0
   33.2460   29.3290   34.2410 H   0  0  0  0  0  0  0  0  0  0  0  0
   31.1140   30.4460   35.5920 H   0  0  0  0  0  0  0  0  0  0  0  0
   33.2330   33.1520   37.9950 H   0  0  0  0  0  0  0  0  0  0  0  0
   35.8620   32.5130   37.0540 H   0  0  0  0  0  0  0  0  0  0  0  0
   37.6700   26.3250   32.5750 C   0  0  0  0  0  0  0  0  0  0  0  0
   37.6440   25.8320   31.4160 O   0  0  0  0  0  0  0  0  0  0  0  0
   38.3710   25.7300   33.6800 C   0  0  0  0  0  0  0  0  0  0  0  0
   39.7460   25.8460   33.7080 C   0  0  0  0  0  0  0  0  0  0  0  0
   40.4770   25.2950   34.7470 C   0  0  0  0  0  0  0  0  0  0  0  0
   39.7640   24.6500   35.7080 N   0  0  0  0  0  0  0  0  0  0  0  0
   38.4340   24.5390   35.6800 C   0  0  0  0  0  0  0  0  0  0  0  0
   37.7570   25.0800   34.6660 N   0  0  0  0  0  0  0  0  0  0  0  0
   40.2720   26.3730   32.9130 H   0  0  0  0  0  0  0  0  0  0  0  0
   41.5420   25.3630   34.8050 H   0  0  0  0  0  0  0  0  0  0  0  0
   37.6400   23.8400   36.7190 C   0  0  0  0  0  2  0  0  0  0  0  0
   38.1190   24.1620   38.1160 C   0  0  0  0  0  2  0  0  0  0  0  0
   37.2510   24.1220   38.8000 H   0  0  0  0  0  0  0  0  0  0  0  0
  1  5  1  0  0  0  0
  2  3  1  0  0  0  0
  2  1  2  0  0  0  0
  3  4  2  0  0  0  0
  4  5  1  0  0  0  0
  4  9  1  0  0  0  0
  6  2  1  0  0  0  0
  7  3  1  0  0  0  0
  8 16  1  0  0  0  0
  9 10  1  0  0  0  0
  9  8  2  0  0  0  0
 10 11  2  0  0  0  0
 11 12  1  0  0  0  0
 11 15  1  0  0  0  0
 12 13  1  0  0  0  0
 13 14  2  0  0  0  0
 14 20  1  0  0  0  0
 15 14  1  0  0  0  0
 16 15  2  0  0  0  0
 16 21  1  0  0  0  0
 17  8  1  0  0  0  0
 18 10  1  0  0  0  0
 19 12  1  0  0  0  0
 22  1  1  0  0  0  0
 22 24  1  0  0  0  0
 23 22  2  0  0  0  0
 24 25  2  0  0  0  0
 24 29  1  0  0  0  0
 25 26  1  0  0  0  0
 26 31  1  0  0  0  0
 26 27  2  0  0  0  0
 28 27  1  0  0  0  0
 28 32  1  0  0  0  0
 29 28  2  0  0  0  0
 30 25  1  0  0  0  0
 32 33  1  0  0  0  0
 33 34  1  0  0  0  0
M  END
>  <minimizedAffinity>
-5.74370575

$$$$
