REMARK  Name = 
REMARK  3 active torsions:
REMARK  status: ('A' for Active; 'I' for Inactive)
REMARK    1  A    between atoms: C_3  and  C_13
REMARK    2  A    between atoms: C_8  and  C_20
REMARK    3  A    between atoms: C_20  and  C_21
REMARK                            x       y       z     vdW  Elec       q    Type
REMARK                         _______ _______ _______ _____ _____    ______ ____
ROOT
ATOM      1 CL   UNL     1      37.230  29.101  50.565  0.00  0.00    +0.000 Cl
ATOM      2  C   UNL     1      35.951  29.181  49.384  0.00  0.00    +0.000 A 
ATOM      3  C   UNL     1      35.943  30.226  48.478  0.00  0.00    +0.000 A 
ATOM      4  C   UNL     1      34.952  30.328  47.534  0.00  0.00    +0.000 A 
ATOM      5  C   UNL     1      33.936  29.391  47.464  0.00  0.00    +0.000 A 
ATOM      6  C   UNL     1      33.928  28.335  48.364  0.00  0.00    +0.000 A 
ATOM      7 CL   UNL     1      32.702  27.086  48.377  0.00  0.00    +0.000 Cl
ATOM      8  C   UNL     1      34.940  28.267  49.298  0.00  0.00    +0.000 A 
ATOM      9  H   UNL     1      34.923  31.137  46.812  0.00  0.00    +0.000 HD
ATOM     10  H   UNL     1      33.146  29.449  46.730  0.00  0.00    +0.000 HD
ENDROOT
BRANCH   3  15
ATOM     11  C   UNL     1      37.974  33.103  49.508  0.00  0.00    +0.000 A 
ATOM     12  C   UNL     1      39.002  33.113  48.567  0.00  0.00    +0.000 A 
ATOM     13  C   UNL     1      38.982  32.107  47.567  0.00  0.00    +0.000 A 
ATOM     14  N   UNL     1      37.965  31.196  47.584  0.00  0.00    +0.000 NA
ATOM     15  C   UNL     1      36.993  31.234  48.521  0.00  0.00    +0.000 A 
ATOM     16  N   UNL     1      37.006  32.184  49.472  0.00  0.00    +0.000 NA
ATOM     17  H   UNL     1      37.958  33.851  50.285  0.00  0.00    +0.000 HD
ATOM     18  H   UNL     1      39.757  33.855  48.620  0.00  0.00    +0.000 HD
ATOM     19  H   UNL     1      39.766  32.091  46.822  0.00  0.00    +0.000 HD
ENDBRANCH   3  15
BRANCH   8  20
ATOM     20  C   UNL     1      35.024  27.165  50.321  0.00  0.00    +0.000 C 
BRANCH  20  21
ATOM     21  C   UNL     1      36.121  26.177  49.986  0.00  0.00    +0.000 C 
ATOM     22  H   UNL     1      35.638  25.169  49.832  0.00  0.00    +0.000 HD
ENDBRANCH  20  21
ENDBRANCH   8  20
TORSDOF 3
