
 OpenBabel03272509003D

 22 23  0  0  0  0  0  0  0  0999 V2000
   37.7130   30.0680   49.3200 Cl  0  0  0  0  0  0  0  0  0  0  0  0
   36.4730   29.8920   48.1070 C   0  0  0  0  0  0  0  0  0  0  0  0
   36.7000   30.4020   46.8410 C   0  0  0  0  0  0  0  0  0  0  0  0
   35.7490   30.2880   45.8590 C   0  0  0  0  0  0  0  0  0  0  0  0
   34.5400   29.6620   46.1070 C   0  0  0  0  0  0  0  0  0  0  0  0
   34.2950   29.1430   47.3700 C   0  0  0  0  0  0  0  0  0  0  0  0
   32.8100   28.3280   47.8090 Cl  0  0  0  0  0  0  0  0  0  0  0  0
   35.2740   29.2780   48.3320 C   0  0  0  0  0  0  0  0  0  0  0  0
   35.9020   30.6780   44.8580 H   0  0  0  0  0  0  0  0  0  0  0  0
   33.7770   29.5590   45.3500 H   0  0  0  0  0  0  0  0  0  0  0  0
   39.3780   32.9090   46.7340 C   0  0  0  0  0  0  0  0  0  0  0  0
   40.3540   32.2900   45.9550 C   0  0  0  0  0  0  0  0  0  0  0  0
   40.0710   30.9890   45.4650 C   0  0  0  0  0  0  0  0  0  0  0  0
   38.8690   30.4240   45.7810 N   0  0  0  0  0  0  0  0  0  0  0  0
   37.9590   31.0700   46.5410 C   0  0  0  0  0  0  0  0  0  0  0  0
   38.2200   32.3030   47.0100 N   0  0  0  0  0  0  0  0  0  0  0  0
   39.5590   33.8970   47.1270 H   0  0  0  0  0  0  0  0  0  0  0  0
   41.2630   32.7950   45.7520 H   0  0  0  0  0  0  0  0  0  0  0  0
   40.8090   30.4860   44.8550 H   0  0  0  0  0  0  0  0  0  0  0  0
   35.1100   28.7540   49.7340 C   0  0  0  0  0  2  0  0  0  0  0  0
   34.3200   29.7150   50.5960 C   0  0  0  0  0  2  0  0  0  0  0  0
   34.9880   30.0380   51.4480 H   0  0  0  0  0  0  0  0  0  0  0  0
  2  8  1  0  0  0  0
  2  1  1  0  0  0  0
  3  2  2  0  0  0  0
  4  5  2  0  0  0  0
  4  3  1  0  0  0  0
  5  6  1  0  0  0  0
  6  7  1  0  0  0  0
  6  8  2  0  0  0  0
  8 20  1  0  0  0  0
  9  4  1  0  0  0  0
 10  5  1  0  0  0  0
 11 16  1  0  0  0  0
 11 17  1  0  0  0  0
 12 11  2  0  0  0  0
 13 14  2  0  0  0  0
 13 12  1  0  0  0  0
 14 15  1  0  0  0  0
 15  3  1  0  0  0  0
 15 16  2  0  0  0  0
 18 12  1  0  0  0  0
 19 13  1  0  0  0  0
 20 21  1  0  0  0  0
 21 22  1  0  0  0  0
M  END
>  <minimizedAffinity>
-4.77729321

>  <minimizedRMSD>
2.13320637

$$$$
