
 OpenBabel03272508513D

 30 32  0  0  1  0  0  0  0  0999 V2000
   37.8920   31.3990   44.0870 C   0  0  2  0  0  0  0  0  0  0  0  0
   37.8430   29.9470   43.9390 C   0  0  0  0  0  0  0  0  0  0  0  0
   36.8650   30.6910   44.8560 C   0  0  1  0  0  0  0  0  0  0  0  0
   38.6810   31.8830   44.7450 H   0  0  0  0  0  0  0  0  0  0  0  0
   37.4620   29.4540   43.0330 H   0  0  0  0  0  0  0  0  0  0  0  0
   38.5890   29.3280   44.4810 H   0  0  0  0  0  0  0  0  0  0  0  0
   35.8380   30.4270   44.5560 H   0  0  0  0  0  0  0  0  0  0  0  0
   37.9940   33.7290   41.2080 C   0  0  0  0  0  0  0  0  0  0  0  0
   36.6320   34.1050   41.0820 C   0  0  0  0  0  0  0  0  0  0  0  0
   35.6970   33.5310   42.0140 C   0  0  0  0  0  0  0  0  0  0  0  0
   36.1750   32.6740   42.9480 N   0  0  0  0  0  0  0  0  0  0  0  0
   37.4750   32.3540   43.0200 C   0  0  0  0  0  0  0  0  0  0  0  0
   38.4080   32.8620   42.1680 N   0  0  0  0  0  0  0  0  0  0  0  0
   38.6410   34.2030   40.4820 H   0  0  0  0  0  0  0  0  0  0  0  0
   36.3040   34.7940   40.3220 H   0  0  0  0  0  0  0  0  0  0  0  0
   34.6580   33.8020   41.9290 H   0  0  0  0  0  0  0  0  0  0  0  0
   36.0290   30.3880   47.1680 C   0  0  0  0  0  0  0  0  0  0  0  0
   34.8540   30.2730   46.6670 O   0  0  0  0  0  0  0  0  0  0  0  0
   37.1280   30.4980   46.2880 N   0  0  0  0  0  0  0  0  0  0  0  0
   38.1810   30.4630   46.4710 H   0  0  0  0  0  0  0  0  0  0  0  0
   36.3110   29.6180   49.5290 C   0  0  0  0  0  0  0  0  0  0  0  0
   36.7020   30.4450   48.4970 C   0  0  0  0  0  0  0  0  0  0  0  0
   37.6850   31.4160   48.5760 C   0  0  0  0  0  0  0  0  0  0  0  0
   37.9770   32.0550   47.7590 H   0  0  0  0  0  0  0  0  0  0  0  0
   38.3320   31.5730   49.7890 C   0  0  0  0  0  0  0  0  0  0  0  0
   39.1270   32.3110   49.9750 H   0  0  0  0  0  0  0  0  0  0  0  0
   37.9400   30.7460   50.8170 C   0  0  0  0  0  0  0  0  0  0  0  0
   36.9660   29.7800   50.7460 C   0  0  0  0  0  0  0  0  0  0  0  0
   34.4540   27.8910   49.0520 N   0  0  0  0  0  0  0  0  0  0  0  0
   35.2800   28.6700   49.2650 C   0  0  0  0  0  0  0  0  0  0  0  0
  1  4  1  1  0  0  0
  1  3  1  0  0  0  0
  2  1  1  0  0  0  0
  2  6  1  0  0  0  0
  2  3  1  0  0  0  0
  3  7  1  6  0  0  0
  3 19  1  0  0  0  0
  5  2  1  0  0  0  0
  8 13  1  0  0  0  0
  9  8  2  0  0  0  0
  9 10  1  0  0  0  0
 10 11  2  0  0  0  0
 11 12  1  0  0  0  0
 12  1  1  0  0  0  0
 13 12  2  0  0  0  0
 14  8  1  0  0  0  0
 15  9  1  0  0  0  0
 16 10  1  0  0  0  0
 17 22  1  0  0  0  0
 18 17  2  0  0  0  0
 19 20  1  0  0  0  0
 19 17  1  0  0  0  0
 21 28  1  0  0  0  0
 22 23  1  0  0  0  0
 22 21  2  0  0  0  0
 23 25  2  0  0  0  0
 24 23  1  0  0  0  0
 25 26  1  0  0  0  0
 25 27  1  0  0  0  0
 28 27  2  0  0  0  0
 29 30  3  0  0  0  0
 30 21  1  0  0  0  0
M  END
>  <minimizedAffinity>
-5.44171715

>  <minimizedRMSD>
3.90502119

$$$$
