
     RDKit          3D

 34 36  0  0  0  0  0  0  0  0999 V2000
   37.1432   31.2230   48.5992 C   0  0  0  0  0  0  0  0  0  0  0  0
   38.0965   32.2257   48.4038 C   0  0  0  0  0  0  0  0  0  0  0  0
   38.4612   32.4008   47.0927 C   0  0  0  0  0  0  0  0  0  0  0  0
   37.9383   31.6638   46.0825 N   0  0  0  0  0  0  0  0  0  0  0  0
   37.0192   30.7027   46.3072 C   0  0  0  0  0  0  0  0  0  0  0  0
   36.6245   30.4845   47.5659 N   0  0  0  0  0  0  0  0  0  0  0  0
   36.6342   31.0440   50.0189 C   0  0  0  0  0  0  0  0  0  0  0  0
   35.8917   29.9035   50.4064 C   0  0  0  0  0  0  0  0  0  0  0  0
   37.3785   29.8159   50.6563 C   0  0  0  0  0  0  0  0  0  0  0  0
   38.6926   32.9993   49.4696 C   0  0  0  0  0  0  0  0  0  0  0  0
   39.4732   34.2087   49.1564 C   0  0  0  0  0  0  0  0  0  0  0  0
   39.1836   33.0914   46.7119 H   0  0  0  0  0  0  0  0  0  0  0  0
   36.5860   30.1007   45.5219 H   0  0  0  0  0  0  0  0  0  0  0  0
   36.7995   31.9262   50.7182 H   0  0  0  0  0  0  0  0  0  0  0  0
   35.5465   29.2057   49.5913 H   0  0  0  0  0  0  0  0  0  0  0  0
   35.1874   29.9233   51.2524 H   0  0  0  0  0  0  0  0  0  0  0  0
   37.6524   29.9301   51.7134 H   0  0  0  0  0  0  0  0  0  0  0  0
   38.0175   29.2091   50.0325 H   0  0  0  0  0  0  0  0  0  0  0  0
   39.3196   32.3310   50.0936 H   0  0  0  0  0  0  0  0  0  0  0  0
   37.8109   33.3742   50.0874 H   0  0  0  0  0  0  0  0  0  0  0  0
   40.3187   33.9532   48.4465 H   0  0  0  0  0  0  0  0  0  0  0  0
   40.0373   34.5812   50.0607 H   0  0  0  0  0  0  0  0  0  0  0  0
   36.5477   34.2691   51.1412 N   0  0  0  0  0  0  0  0  0  0  0  0
   36.9731   34.8522   50.2379 C   0  0  0  0  0  0  0  0  0  0  0  0
   37.5305   35.5877   49.1138 C   0  0  0  0  0  0  0  0  0  0  0  0
   38.7742   35.3324   48.5173 C   0  0  0  0  0  0  0  0  0  0  0  0
   39.0572   36.1957   47.4848 C   0  0  0  0  0  0  0  0  0  0  0  0
   40.0198   36.0143   47.0362 H   0  0  0  0  0  0  0  0  0  0  0  0
   38.2635   37.2175   47.0271 C   0  0  0  0  0  0  0  0  0  0  0  0
   38.6385   37.7890   46.2156 H   0  0  0  0  0  0  0  0  0  0  0  0
   37.0482   37.4422   47.6326 C   0  0  0  0  0  0  0  0  0  0  0  0
   36.6916   36.6187   48.6778 C   0  0  0  0  0  0  0  0  0  0  0  0
   36.4692   38.2407   47.2463 H   0  0  0  0  0  0  0  0  0  0  0  0
   35.7339   36.8448   49.1077 H   0  0  0  0  0  0  0  0  0  0  0  0
  1  7  1  0
  2  1  1  0
  2 10  1  0
  3  2  2  0
  4  5  2  0
  4  3  1  0
  5  6  1  0
  6  1  2  0
  7  8  1  0
  7  9  1  0
  8  9  1  0
 11 10  1  0
  3 12  1  0
  5 13  1  0
  7 14  1  0
  8 15  1  0
  8 16  1  0
  9 17  1  0
  9 18  1  0
 10 19  1  0
 10 20  1  0
 11 21  1  0
 11 22  1  0
 23 24  3  0
 24 25  1  0
 25 26  2  0
 26 27  1  0
 27 28  1  0
 27 29  2  0
 29 30  1  0
 29 31  1  0
 31 32  2  0
 32 25  1  0
 31 33  1  0
 32 34  1  0
 11 26  1  0
M  ISO  8  12  14  13  14  14  13  15  13  16  13  17  13  18  13  19   8
M  ISO  5  20   8  21   8  22   8  28  15  30  16
M  END
>  <DihAtoms>  (1) 
9,10,25,24

>  <DihDeg>  (1) 
74.22171142888115

$$$$
