
 OpenBabel03272508503D

 30 32  0  0  1  0  0  0  0  0999 V2000
   38.2270   30.7860   47.1340 C   0  0  2  0  0  0  0  0  0  0  0  0
   39.1440   31.9140   47.2630 C   0  0  0  0  0  0  0  0  0  0  0  0
   38.2780   31.7260   46.0120 C   0  0  1  0  0  0  0  0  0  0  0  0
   38.6190   29.7550   46.8640 H   0  0  0  0  0  0  0  0  0  0  0  0
   38.9490   32.7660   47.9300 H   0  0  0  0  0  0  0  0  0  0  0  0
   40.2280   31.7450   47.0920 H   0  0  0  0  0  0  0  0  0  0  0  0
   37.6910   32.6450   45.8550 H   0  0  0  0  0  0  0  0  0  0  0  0
   34.6640   30.2690   48.0110 C   0  0  0  0  0  0  0  0  0  0  0  0
   34.6810   30.4170   49.4210 C   0  0  0  0  0  0  0  0  0  0  0  0
   35.9480   30.6970   50.0430 C   0  0  0  0  0  0  0  0  0  0  0  0
   37.0380   30.8030   49.2460 N   0  0  0  0  0  0  0  0  0  0  0  0
   36.9630   30.6520   47.9160 C   0  0  0  0  0  0  0  0  0  0  0  0
   35.7960   30.3850   47.2690 N   0  0  0  0  0  0  0  0  0  0  0  0
   33.6790   30.0680   47.6090 H   0  0  0  0  0  0  0  0  0  0  0  0
   33.7830   30.3270   50.0100 H   0  0  0  0  0  0  0  0  0  0  0  0
   35.9800   30.8080   51.1140 H   0  0  0  0  0  0  0  0  0  0  0  0
   39.5870   32.2880   43.9850 C   0  0  0  0  0  0  0  0  0  0  0  0
   39.5750   33.5070   44.3850 O   0  0  0  0  0  0  0  0  0  0  0  0
   39.0320   31.2990   44.8260 N   0  0  0  0  0  0  0  0  0  0  0  0
   39.0560   30.2310   44.7660 H   0  0  0  0  0  0  0  0  0  0  0  0
   39.6550   31.7970   41.5350 C   0  0  0  0  0  0  0  0  0  0  0  0
   40.0380   31.4740   42.8200 C   0  0  0  0  0  0  0  0  0  0  0  0
   40.8100   30.3810   43.1780 C   0  0  0  0  0  0  0  0  0  0  0  0
   41.0970   30.1430   44.1880 H   0  0  0  0  0  0  0  0  0  0  0  0
   41.2350   29.5410   42.1650 C   0  0  0  0  0  0  0  0  0  0  0  0
   41.8490   28.6420   42.3230 H   0  0  0  0  0  0  0  0  0  0  0  0
   40.8520   29.8660   40.8820 C   0  0  0  0  0  3  0  0  0  0  0  0
   40.0860   30.9480   40.5200 C   0  0  0  0  0  3  0  0  0  0  0  0
   38.2160   33.9110   41.1910 N   0  0  0  0  0  0  0  0  0  0  0  0
   38.8590   32.9650   41.3550 C   0  0  0  0  0  0  0  0  0  0  0  0
  1  4  1  6  0  0  0
  1  2  1  0  0  0  0
  1 12  1  0  0  0  0
  2  5  1  0  0  0  0
  3  7  1  6  0  0  0
  3  1  1  0  0  0  0
  3  2  1  0  0  0  0
  6  2  1  0  0  0  0
  8  9  1  0  0  0  0
  9 15  1  0  0  0  0
  9 10  2  0  0  0  0
 10 16  1  0  0  0  0
 11 10  1  0  0  0  0
 12 11  2  0  0  0  0
 13 12  1  0  0  0  0
 13  8  2  0  0  0  0
 14  8  1  0  0  0  0
 17 18  2  0  0  0  0
 17 19  1  0  0  0  0
 19  3  1  0  0  0  0
 20 19  1  0  0  0  0
 21 22  1  0  0  0  0
 22 23  2  0  0  0  0
 22 17  1  0  0  0  0
 23 24  1  0  0  0  0
 25 26  1  0  0  0  0
 25 23  1  0  0  0  0
 27 25  2  0  0  0  0
 28 27  1  0  0  0  0
 28 21  2  0  0  0  0
 29 30  3  0  0  0  0
 30 21  1  0  0  0  0
M  END
>  <minimizedAffinity>
-5.06241465

>  <minimizedRMSD>
8.3465395

$$$$
