
 OpenBabel03272510243D

 33 36  0  0  0  0  0  0  0  0999 V2000
   35.9690   30.1250   46.9670 C   0  0  0  0  0  0  0  0  0  0  0  0
   36.8930   30.6640   47.8670 C   0  0  0  0  0  0  0  0  0  0  0  0
   37.9020   31.5280   47.4420 C   0  0  0  0  0  0  0  0  0  0  0  0
   37.9180   31.8080   46.0710 C   0  0  0  0  0  0  0  0  0  0  0  0
   38.7920   32.6150   45.4090 N   0  0  0  0  0  0  0  0  0  0  0  0
   38.4280   32.5840   44.1200 C   0  0  0  0  0  0  0  0  0  0  0  0
   37.3740   31.8030   43.9420 N   0  0  0  0  0  0  0  0  0  0  0  0
   37.0260   31.2980   45.1520 C   0  0  0  0  0  0  0  0  0  0  0  0
   36.0290   30.4350   45.6140 C   0  0  0  0  0  0  0  0  0  0  0  0
   35.1790   29.4500   47.2850 H   0  0  0  0  0  0  0  0  0  0  0  0
   38.6120   31.9450   48.1230 H   0  0  0  0  0  0  0  0  0  0  0  0
   39.5960   33.1510   45.8470 H   0  0  0  0  0  0  0  0  0  0  0  0
   35.3430   30.0430   44.9040 H   0  0  0  0  0  0  0  0  0  0  0  0
   37.4520   30.1460   51.5560 C   0  0  0  0  0  0  0  0  0  0  0  0
   37.6990   30.5570   50.2510 C   0  0  0  0  0  0  0  0  0  0  0  0
   36.7680   30.2930   49.2720 C   0  0  0  0  0  0  0  0  0  0  0  0
   35.6310   29.6270   49.6390 N   0  0  0  0  0  0  0  0  0  0  0  0
   35.4010   29.2310   50.9080 C   0  0  0  0  0  0  0  0  0  0  0  0
   36.3100   29.4930   51.8550 N   0  0  0  0  0  0  0  0  0  0  0  0
   38.2590   30.4130   52.2290 H   0  0  0  0  0  0  0  0  0  0  0  0
   38.5970   31.0870   49.9400 H   0  0  0  0  0  0  0  0  0  0  0  0
   34.5010   28.7050   51.1980 H   0  0  0  0  0  0  0  0  0  0  0  0
   39.1200   33.3080   43.1550 O   0  0  0  0  0  0  0  0  0  0  0  0
   39.5330   32.0120   41.1510 C   0  0  0  0  0  0  0  0  0  0  0  0
   39.0090   33.1200   41.8060 C   0  0  0  0  0  0  0  0  0  0  0  0
   38.3660   34.0040   40.9620 C   0  0  0  0  0  0  0  0  0  0  0  0
   37.9320   34.8990   41.4300 H   0  0  0  0  0  0  0  0  0  0  0  0
   38.2350   33.8470   39.5990 C   0  0  0  0  0  0  0  0  0  0  0  0
   37.7030   34.6240   39.0540 H   0  0  0  0  0  0  0  0  0  0  0  0
   38.7790   32.7270   39.0140 C   0  0  0  0  0  0  0  0  0  0  0  0
   39.4330   31.8010   39.7910 C   0  0  0  0  0  0  0  0  0  0  0  0
   40.8010   30.2060   42.5240 N   0  0  0  0  0  0  0  0  0  0  0  0
   40.2320   31.0040   41.9120 C   0  0  0  0  0  0  0  0  0  0  0  0
  1 10  1  0  0  0  0
  1  2  1  0  0  0  0
  2 16  1  0  0  0  0
  3  2  2  0  0  0  0
  3 11  1  0  0  0  0
  4  3  1  0  0  0  0
  5 12  1  0  0  0  0
  5  4  1  0  0  0  0
  6  5  1  0  0  0  0
  7  6  2  0  0  0  0
  7  8  1  0  0  0  0
  8  9  1  0  0  0  0
  8  4  2  0  0  0  0
  9  1  2  0  0  0  0
 13  9  1  0  0  0  0
 14 19  1  0  0  0  0
 14 20  1  0  0  0  0
 15 14  2  0  0  0  0
 16 17  2  0  0  0  0
 16 15  1  0  0  0  0
 17 18  1  0  0  0  0
 18 22  1  0  0  0  0
 18 19  2  0  0  0  0
 21 15  1  0  0  0  0
 23  6  1  0  0  0  0
 24 25  1  0  0  0  0
 24 33  1  0  0  0  0
 25 23  1  0  0  0  0
 26 27  1  0  0  0  0
 26 25  2  0  0  0  0
 28 26  1  0  0  0  0
 29 28  1  0  0  0  0
 30 28  2  0  0  0  0
 30 31  1  0  0  0  0
 31 24  2  0  0  0  0
 33 32  3  0  0  0  0
M  END
>  <minimizedAffinity>
-5.66878223

>  <minimizedRMSD>
1.59242725

$$$$
