
     RDKit          3D

 34 36  0  0  0  0  0  0  0  0999 V2000
   34.6585   28.3160   49.5800 C   0  0  0  0  0  0  0  0  0  0  0  0
   37.2900   30.1758   51.3855 C   0  0  0  0  0  0  0  0  0  0  0  0
   38.0757   30.6813   50.3358 C   0  0  0  0  0  0  0  0  0  0  0  0
   37.6932   30.3783   49.0266 C   0  0  0  0  0  0  0  0  0  0  0  0
   36.5861   29.6133   48.8270 N   0  0  0  0  0  0  0  0  0  0  0  0
   35.8587   29.1477   49.8750 C   0  0  0  0  0  0  0  0  0  0  0  0
   36.2181   29.4332   51.1261 N   0  0  0  0  0  0  0  0  0  0  0  0
   34.4470   28.2474   48.0894 C   0  0  0  0  0  0  0  0  0  0  0  0
   32.9506   28.2577   47.8906 C   0  0  0  0  0  0  0  0  0  0  0  0
   32.0129   27.5888   48.6265 C   0  0  0  0  0  0  0  0  0  0  0  0
   30.7528   27.8454   48.1432 C   0  0  0  0  0  0  0  0  0  0  0  0
   30.9475   28.6804   47.1036 N   0  0  0  0  0  0  0  0  0  0  0  0
   32.2571   28.9209   46.9596 N   0  0  0  0  0  0  0  0  0  0  0  0
   34.8911   27.3017   49.9903 H   0  0  0  0  0  0  0  0  0  0  0  0
   33.7691   28.6702   50.1423 H   0  0  0  0  0  0  0  0  0  0  0  0
   37.6552   30.4566   52.3610 H   0  0  0  0  0  0  0  0  0  0  0  0
   38.9611   31.2893   50.3750 H   0  0  0  0  0  0  0  0  0  0  0  0
   38.1927   30.6921   48.1203 H   0  0  0  0  0  0  0  0  0  0  0  0
   34.8508   29.1234   47.5860 H   0  0  0  0  0  0  0  0  0  0  0  0
   34.8479   27.3159   47.6444 H   0  0  0  0  0  0  0  0  0  0  0  0
   32.2182   26.9350   49.4849 H   0  0  0  0  0  0  0  0  0  0  0  0
   29.7756   27.5041   48.4568 H   0  0  0  0  0  0  0  0  0  0  0  0
   32.0202   27.8619   43.7582 N   0  0  0  0  0  0  0  0  0  0  0  0
   31.1725   28.4629   44.2529 C   0  0  0  0  0  0  0  0  0  0  0  0
   30.1186   29.2022   44.8392 C   0  0  0  0  0  0  0  0  0  0  0  0
   30.0245   29.2969   46.2036 C   0  0  0  0  0  0  0  0  0  0  0  0
   28.9536   30.0458   46.6975 C   0  0  0  0  0  0  0  0  0  0  0  0
   28.8973   30.1084   47.7790 H   0  0  0  0  0  0  0  0  0  0  0  0
   28.0055   30.6824   45.9230 C   0  0  0  0  0  0  0  0  0  0  0  0
   27.2359   31.2245   46.4532 H   0  0  0  0  0  0  0  0  0  0  0  0
   28.1315   30.5654   44.5488 C   0  0  0  0  0  0  0  0  0  0  0  0
   29.1926   29.8227   44.0299 C   0  0  0  0  0  0  0  0  0  0  0  0
   27.3795   31.0710   43.9665 H   0  0  0  0  0  0  0  0  0  0  0  0
   29.2322   29.7713   42.9325 H   0  0  0  0  0  0  0  0  0  0  0  0
  1  6  1  0
  3  2  2  0
  4  3  1  0
  5  4  2  0
  5  6  1  0
  6  7  2  0
  7  2  1  0
  8  1  1  0
  9  8  1  0
  9 10  1  0
 11 10  2  0
 12 11  1  0
 13 12  1  0
 13  9  2  0
  1 14  1  0
  1 15  1  0
  2 16  1  0
  3 17  1  0
  4 18  1  0
  8 19  1  0
  8 20  1  0
 10 21  1  0
 11 22  1  0
 23 24  3  0
 24 25  1  0
 25 26  2  0
 26 27  1  0
 27 28  1  0
 27 29  2  0
 29 30  1  0
 29 31  1  0
 31 32  2  0
 32 25  1  0
 31 33  1  0
 32 34  1  0
 12 26  1  0
M  ISO  8  14   8  15   8  16  14  17  14  18  14  19   8  20   8  21  14
M  ISO  3  22  14  28  15  30  16
M  END
>  <DihAtoms>  (1) 
10,11,25,24

>  <DihDeg>  (1) 
38.759882552330026

$$$$
