
 OpenBabel03272510303D

 29 31  0  0  0  0  0  0  0  0999 V2000
   36.9250   31.1530   49.3280 C   0  0  0  0  0  0  0  0  0  0  0  0
   37.3390   32.3670   49.8760 C   0  0  0  0  0  0  0  0  0  0  0  0
   38.2860   33.0490   49.1580 C   0  0  0  0  0  0  0  0  0  0  0  0
   38.7780   32.5420   47.9730 N   0  0  0  0  0  0  0  0  0  0  0  0
   38.3320   31.3400   47.4770 C   0  0  0  0  0  0  0  0  0  0  0  0
   37.3950   30.6580   48.1840 N   0  0  0  0  0  0  0  0  0  0  0  0
   36.9230   32.7200   50.8090 H   0  0  0  0  0  0  0  0  0  0  0  0
   38.6630   33.9990   49.5140 H   0  0  0  0  0  0  0  0  0  0  0  0
   35.8610   30.3670   50.0510 C   0  0  0  0  0  0  0  0  0  0  0  0
   35.7150   28.9380   49.9320 C   0  0  0  0  0  0  0  0  0  0  0  0
   36.4490   29.4700   51.1470 C   0  0  0  0  0  0  0  0  0  0  0  0
   34.9870   30.9900   50.3560 H   0  0  0  0  0  0  0  0  0  0  0  0
   36.4320   28.4180   49.2260 H   0  0  0  0  0  0  0  0  0  0  0  0
   34.7400   28.4720   50.0970 H   0  0  0  0  0  0  0  0  0  0  0  0
   37.5350   29.3880   51.2320 H   0  0  0  0  0  0  0  0  0  0  0  0
   35.9120   29.5310   52.0940 H   0  0  0  0  0  0  0  0  0  0  0  0
   38.8270   30.8030   46.2220 C   0  0  0  0  0  0  0  0  0  0  0  0
   38.9420   29.7080   46.2950 H   0  0  0  0  0  0  0  0  0  0  0  0
   39.8440   31.2410   46.0180 H   0  0  0  0  0  0  0  0  0  0  0  0
   38.2180   32.2210   44.2510 C   0  0  0  0  0  0  0  0  0  0  0  0
   37.9490   31.1330   45.0480 C   0  0  0  0  0  0  0  0  0  0  0  0
   36.8480   30.3260   44.7460 C   0  0  0  0  0  0  0  0  0  0  0  0
   36.6000   29.4600   45.3510 H   0  0  0  0  0  0  0  0  0  0  0  0
   36.0600   30.6420   43.6590 C   0  0  0  0  0  0  0  0  0  0  0  0
   35.1810   30.0600   43.3560 H   0  0  0  0  0  0  0  0  0  0  0  0
   36.3270   31.7290   42.8600 C   0  0  0  0  0  3  0  0  0  0  0  0
   37.4130   32.5320   43.1490 C   0  0  0  0  0  3  0  0  0  0  0  0
   40.2270   33.8110   44.7080 N   0  0  0  0  0  0  0  0  0  0  0  0
   39.3330   33.1110   44.4990 C   0  0  0  0  0  0  0  0  0  0  0  0
  1  2  1  0  0  0  0
  1  9  1  0  0  0  0
  2  7  1  0  0  0  0
  3  8  1  0  0  0  0
  3  2  2  0  0  0  0
  4  3  1  0  0  0  0
  5  4  2  0  0  0  0
  5  6  1  0  0  0  0
  6  1  2  0  0  0  0
  9 12  1  0  0  0  0
  9 11  1  0  0  0  0
 10  9  1  0  0  0  0
 10 14  1  0  0  0  0
 10 11  1  0  0  0  0
 11 15  1  0  0  0  0
 11 16  1  0  0  0  0
 13 10  1  0  0  0  0
 17 18  1  0  0  0  0
 17  5  1  0  0  0  0
 19 17  1  0  0  0  0
 20 29  1  0  0  0  0
 20 21  1  0  0  0  0
 21 17  1  0  0  0  0
 22 21  2  0  0  0  0
 22 23  1  0  0  0  0
 24 22  1  0  0  0  0
 25 24  1  0  0  0  0
 26 27  1  0  0  0  0
 26 24  2  0  0  0  0
 27 20  2  0  0  0  0
 29 28  3  0  0  0  0
M  END
>  <minimizedAffinity>
-5.42169666

>  <minimizedRMSD>
0.490261197

$$$$
