
 OpenBabel03272507373D

 24 25  0  0  0  0  0  0  0  0999 V2000
   38.0830   31.2130   47.6980 C   0  0  0  0  0  0  0  0  0  0  0  0
   37.8930   30.7860   49.0190 C   0  0  0  0  0  0  0  0  0  0  0  0
   38.1980   31.6240   50.0720 C   0  0  0  0  0  0  0  0  0  0  0  0
   38.6840   32.8630   49.7670 N   0  0  0  0  0  0  0  0  0  0  0  0
   38.8640   33.2660   48.4820 C   0  0  0  0  0  0  0  0  0  0  0  0
   38.5630   32.4440   47.4860 N   0  0  0  0  0  0  0  0  0  0  0  0
   38.0650   31.3310   51.1160 H   0  0  0  0  0  0  0  0  0  0  0  0
   39.2530   34.2590   48.2930 H   0  0  0  0  0  0  0  0  0  0  0  0
   36.0510   29.3790   49.7840 C   0  0  0  0  0  0  0  0  0  0  0  0
   35.0420   30.1620   49.9020 O   0  0  0  0  0  0  0  0  0  0  0  0
   37.3950   29.5210   49.3920 N   0  0  0  0  0  0  0  0  0  0  0  0
   35.5510   28.4660   50.1010 H   0  0  0  0  0  0  0  0  0  0  0  0
   37.9360   28.6240   49.4120 H   0  0  0  0  0  0  0  0  0  0  0  0
   37.7230   30.2470   46.7960 O   0  0  0  0  0  0  0  0  0  0  0  0
   36.9290   30.8300   44.5330 C   0  0  0  0  0  0  0  0  0  0  0  0
   36.7460   30.3960   45.8310 C   0  0  0  0  0  0  0  0  0  0  0  0
   35.4850   30.0550   46.2930 C   0  0  0  0  0  0  0  0  0  0  0  0
   35.2620   29.7030   47.3080 H   0  0  0  0  0  0  0  0  0  0  0  0
   34.3940   30.1540   45.4320 C   0  0  0  0  0  0  0  0  0  0  0  0
   33.3990   29.8930   45.7750 H   0  0  0  0  0  0  0  0  0  0  0  0
   34.5850   30.5930   44.1240 C   0  0  0  0  0  3  0  0  0  0  0  0
   35.8580   30.9260   43.6930 C   0  0  0  0  0  3  0  0  0  0  0  0
   39.3530   31.4080   43.8300 N   0  0  0  0  0  0  0  0  0  0  0  0
   38.2690   31.1570   44.1510 C   0  0  0  0  0  0  0  0  0  0  0  0
  1  2  1  0  0  0  0
  2 11  1  0  0  0  0
  2  3  2  0  0  0  0
  3  7  1  0  0  0  0
  4  3  1  0  0  0  0
  5  4  2  0  0  0  0
  6  1  2  0  0  0  0
  6  5  1  0  0  0  0
  8  5  1  0  0  0  0
  9 10  2  0  0  0  0
  9 12  1  0  0  0  0
 11 13  1  0  0  0  0
 11  9  1  0  0  0  0
 14  1  1  0  0  0  0
 15 16  1  0  0  0  0
 16 17  2  0  0  0  0
 16 14  1  0  0  0  0
 17 18  1  0  0  0  0
 19 20  1  0  0  0  0
 19 17  1  0  0  0  0
 21 19  2  0  0  0  0
 22 21  1  0  0  0  0
 22 15  2  0  0  0  0
 23 24  3  0  0  0  0
 24 15  1  0  0  0  0
M  END
>  <minimizedAffinity>
-3.92435622

>  <minimizedRMSD>
7.484869

$$$$
