
 OpenBabel03272510303D

 29 31  0  0  0  0  0  0  0  0999 V2000
   37.5990   31.1060   48.8250 C   0  0  0  0  0  0  0  0  0  0  0  0
   38.0890   32.3570   49.2000 C   0  0  0  0  0  0  0  0  0  0  0  0
   38.9340   32.9550   48.3030 C   0  0  0  0  0  0  0  0  0  0  0  0
   39.2590   32.3360   47.1130 N   0  0  0  0  0  0  0  0  0  0  0  0
   38.7440   31.1010   46.7930 C   0  0  0  0  0  0  0  0  0  0  0  0
   37.9080   30.5020   47.6790 N   0  0  0  0  0  0  0  0  0  0  0  0
   37.8040   32.7990   50.1440 H   0  0  0  0  0  0  0  0  0  0  0  0
   39.3600   33.9270   48.5170 H   0  0  0  0  0  0  0  0  0  0  0  0
   36.6380   30.4060   49.7530 C   0  0  0  0  0  0  0  0  0  0  0  0
   36.2940   29.0120   49.6290 C   0  0  0  0  0  0  0  0  0  0  0  0
   37.3450   29.3870   50.6550 C   0  0  0  0  0  0  0  0  0  0  0  0
   35.9410   31.1060   50.2710 H   0  0  0  0  0  0  0  0  0  0  0  0
   36.7610   28.4550   48.7620 H   0  0  0  0  0  0  0  0  0  0  0  0
   35.3310   28.6510   50.0030 H   0  0  0  0  0  0  0  0  0  0  0  0
   38.4020   29.1770   50.4830 H   0  0  0  0  0  0  0  0  0  0  0  0
   37.0480   29.4550   51.7030 H   0  0  0  0  0  0  0  0  0  0  0  0
   39.0630   30.4450   45.5380 C   0  0  0  0  0  0  0  0  0  0  0  0
   38.7390   29.3910   45.5660 H   0  0  0  0  0  0  0  0  0  0  0  0
   40.1810   30.4570   45.3980 H   0  0  0  0  0  0  0  0  0  0  0  0
   39.0440   31.0340   43.1060 C   0  0  0  0  0  0  0  0  0  0  0  0
   38.4520   31.1220   44.3440 C   0  0  0  0  0  0  0  0  0  0  0  0
   37.2630   31.8430   44.4770 C   0  0  0  0  0  0  0  0  0  0  0  0
   36.7640   31.9380   45.4370 H   0  0  0  0  0  0  0  0  0  0  0  0
   36.7130   32.4480   43.3670 C   0  0  0  0  0  0  0  0  0  0  0  0
   35.7840   33.0320   43.3880 H   0  0  0  0  0  0  0  0  0  0  0  0
   37.3030   32.3620   42.1270 C   0  0  0  0  0  3  0  0  0  0  0  0
   38.4780   31.6500   41.9840 C   0  0  0  0  0  3  0  0  0  0  0  0
   41.2650   29.7330   42.7190 N   0  0  0  0  0  0  0  0  0  0  0  0
   40.2800   30.3140   42.8830 C   0  0  0  0  0  0  0  0  0  0  0  0
  1  2  1  0  0  0  0
  1  9  1  0  0  0  0
  2  7  1  0  0  0  0
  3  8  1  0  0  0  0
  3  2  2  0  0  0  0
  4  3  1  0  0  0  0
  5  4  2  0  0  0  0
  5  6  1  0  0  0  0
  6  1  2  0  0  0  0
  9 12  1  0  0  0  0
  9 11  1  0  0  0  0
 10  9  1  0  0  0  0
 10 14  1  0  0  0  0
 10 11  1  0  0  0  0
 11 16  1  0  0  0  0
 13 10  1  0  0  0  0
 15 11  1  0  0  0  0
 17 18  1  0  0  0  0
 17  5  1  0  0  0  0
 19 17  1  0  0  0  0
 20 21  1  0  0  0  0
 21 22  2  0  0  0  0
 21 17  1  0  0  0  0
 22 23  1  0  0  0  0
 24 25  1  0  0  0  0
 24 22  1  0  0  0  0
 26 24  2  0  0  0  0
 27 26  1  0  0  0  0
 27 20  2  0  0  0  0
 28 29  3  0  0  0  0
 29 20  1  0  0  0  0
M  END
>  <minimizedAffinity>
-5.06709957

>  <minimizedRMSD>
0.732086539

$$$$
