
 OpenBabel03272504403D

 43 45  0  0  0  0  0  0  0  0999 V2000
   37.8210   27.4500   32.5330 C   0  0  0  0  0  0  0  0  0  0  0  0
   38.4220   27.5410   31.5790 H   0  0  0  0  0  0  0  0  0  0  0  0
   38.4110   28.0370   33.2660 H   0  0  0  0  0  0  0  0  0  0  0  0
   38.3130   26.9460   35.4030 Cl  0  0  0  0  0  0  0  0  0  0  0  0
   38.0850   25.6620   34.2140 C   0  0  0  0  0  0  0  0  0  0  0  0
   38.1360   24.3620   34.6140 C   0  0  0  0  0  0  0  0  0  0  0  0
   37.9590   23.3610   33.6990 C   0  0  0  0  0  0  0  0  0  0  0  0
   37.7290   23.7000   32.3800 C   0  0  0  0  0  0  0  0  0  0  0  0
   37.6860   25.0480   32.0200 C   0  0  0  0  0  0  0  0  0  0  0  0
   37.8600   26.0580   32.9140 C   0  0  0  0  0  0  0  0  0  0  0  0
   38.0080   22.3300   34.0620 H   0  0  0  0  0  0  0  0  0  0  0  0
   37.6030   22.8310   31.7380 H   0  0  0  0  0  0  0  0  0  0  0  0
   37.5060   25.0920   31.0040 H   0  0  0  0  0  0  0  0  0  0  0  0
   37.9310   24.2280   38.3010 C   0  0  0  0  0  0  0  0  0  0  0  0
   38.9580   23.2830   38.5950 C   0  0  0  0  0  0  0  0  0  0  0  0
   39.6660   22.7410   37.5190 C   0  0  0  0  0  0  0  0  0  0  0  0
   39.3520   23.1300   36.2610 N   0  0  0  0  0  0  0  0  0  0  0  0
   38.3810   24.0230   36.0120 C   0  0  0  0  0  0  0  0  0  0  0  0
   37.6800   24.5630   37.0280 N   0  0  0  0  0  0  0  0  0  0  0  0
   37.3700   24.6610   39.1120 H   0  0  0  0  0  0  0  0  0  0  0  0
   39.1320   23.0370   39.6330 H   0  0  0  0  0  0  0  0  0  0  0  0
   40.6700   21.8150   37.8460 N   0  0  0  0  0  0  0  0  0  0  0  0
   41.7150   21.9860   37.8510 H   0  0  0  0  0  0  0  0  0  0  0  0
   40.1330   20.9550   38.0710 H   0  0  0  0  0  0  0  0  0  0  0  0
   36.5330   28.1000   32.3270 C   0  0  0  0  0  0  0  0  0  0  0  0
   35.9020   27.5070   31.6220 H   0  0  0  0  0  0  0  0  0  0  0  0
   35.9240   28.1540   33.2600 H   0  0  0  0  0  0  0  0  0  0  0  0
   36.6750   29.3940   31.8750 O   0  0  0  0  0  0  0  0  0  0  0  0
   34.2220   30.3380   31.9060 O   0  0  0  0  0  0  0  0  0  0  0  0
   35.5260   30.4100   32.6120 P   0  0  2  0  0  0  0  0  0  0  0  0
   36.2350   31.9690   32.5500 O   0  0  0  0  0  0  0  0  0  0  0  0
   37.2140   31.9290   32.5100 H   0  0  0  0  0  0  0  0  0  0  0  0
   35.3250   30.0210   34.2090 O   0  0  0  0  0  0  0  0  0  0  0  0
   33.2630   30.5910   35.5780 C   0  0  0  0  0  0  0  0  0  0  0  0
   34.5630   30.6130   35.1450 C   0  0  0  0  0  0  0  0  0  0  0  0
   35.4030   31.4980   35.8480 C   0  0  0  0  0  0  0  0  0  0  0  0
   36.4750   31.7210   35.7210 H   0  0  0  0  0  0  0  0  0  0  0  0
   34.9420   32.2940   36.9070 C   0  0  0  0  0  0  0  0  0  0  0  0
   35.5050   32.9920   37.4970 H   0  0  0  0  0  0  0  0  0  0  0  0
   33.6180   32.2180   37.2870 C   0  0  0  0  0  3  0  0  0  0  0  0
   32.7780   31.3580   36.6130 C   0  0  0  0  0  3  0  0  0  0  0  0
   31.7480   28.9630   34.3100 N   0  0  0  0  0  0  0  0  0  0  0  0
   32.4220   29.6990   34.8700 C   0  0  0  0  0  0  0  0  0  0  0  0
  1 10  1  0  0  0  0
  1  3  1  0  0  0  0
  2  1  1  0  0  0  0
  5  6  1  0  0  0  0
  5  4  1  0  0  0  0
  6 18  1  0  0  0  0
  7 11  1  0  0  0  0
  7  6  2  0  0  0  0
  8  7  1  0  0  0  0
  9  8  2  0  0  0  0
  9 10  1  0  0  0  0
 10  5  2  0  0  0  0
 12  8  1  0  0  0  0
 13  9  1  0  0  0  0
 14 15  1  0  0  0  0
 14 20  1  0  0  0  0
 15 21  1  0  0  0  0
 16 22  1  0  0  0  0
 16 15  2  0  0  0  0
 17 16  1  0  0  0  0
 18 17  2  0  0  0  0
 18 19  1  0  0  0  0
 19 14  2  0  0  0  0
 22 23  1  0  0  0  0
 22 24  1  0  0  0  0
 25  1  1  0  0  0  0
 25 27  1  0  0  0  0
 26 25  1  0  0  0  0
 28 25  1  0  0  0  0
 28 30  1  0  0  0  0
 30 29  2  6  0  0  0
 30 33  1  0  0  0  0
 31 30  1  0  0  0  0
 32 31  1  0  0  0  0
 33 35  1  0  0  0  0
 34 41  1  0  0  0  0
 35 34  2  0  0  0  0
 35 36  1  0  0  0  0
 36 38  2  0  0  0  0
 37 36  1  0  0  0  0
 38 40  1  0  0  0  0
 38 39  1  0  0  0  0
 41 40  2  0  0  0  0
 42 43  3  0  0  0  0
 43 34  1  0  0  0  0
M  END
>  <minimizedAffinity>
-6.39405823

$$$$

 OpenBabel03272504403D

 43 45  0  0  0  0  0  0  0  0999 V2000
   36.9740   23.0230   31.0440 C   0  0  0  0  0  0  0  0  0  0  0  0
   36.6140   22.3220   30.2320 H   0  0  0  0  0  0  0  0  0  0  0  0
   38.0640   23.0970   30.8560 H   0  0  0  0  0  0  0  0  0  0  0  0
   38.8130   23.8050   33.2210 Cl  0  0  0  0  0  0  0  0  0  0  0  0
   37.5430   22.5940   33.4070 C   0  0  0  0  0  0  0  0  0  0  0  0
   37.3840   21.9700   34.6060 C   0  0  0  0  0  0  0  0  0  0  0  0
   36.4010   21.0310   34.7590 C   0  0  0  0  0  0  0  0  0  0  0  0
   35.5880   20.7390   33.6810 C   0  0  0  0  0  0  0  0  0  0  0  0
   35.7920   21.4060   32.4730 C   0  0  0  0  0  0  0  0  0  0  0  0
   36.7630   22.3420   32.3000 C   0  0  0  0  0  0  0  0  0  0  0  0
   36.3070   20.5530   35.7400 H   0  0  0  0  0  0  0  0  0  0  0  0
   34.8430   19.9810   33.9110 H   0  0  0  0  0  0  0  0  0  0  0  0
   35.0930   21.0520   31.8010 H   0  0  0  0  0  0  0  0  0  0  0  0
   40.2570   22.0830   36.9270 C   0  0  0  0  0  0  0  0  0  0  0  0
   39.7740   22.9940   37.9120 C   0  0  0  0  0  0  0  0  0  0  0  0
   38.4930   23.5210   37.7320 C   0  0  0  0  0  0  0  0  0  0  0  0
   37.7740   23.1510   36.6460 N   0  0  0  0  0  0  0  0  0  0  0  0
   38.2530   22.2910   35.7340 C   0  0  0  0  0  0  0  0  0  0  0  0
   39.4850   21.7650   35.8790 N   0  0  0  0  0  0  0  0  0  0  0  0
   41.2410   21.6610   37.0420 H   0  0  0  0  0  0  0  0  0  0  0  0
   40.4240   23.2270   38.7430 H   0  0  0  0  0  0  0  0  0  0  0  0
   38.0490   24.4140   38.7220 N   0  0  0  0  0  0  0  0  0  0  0  0
   37.3550   24.2110   39.4960 H   0  0  0  0  0  0  0  0  0  0  0  0
   38.5630   25.2880   38.4980 H   0  0  0  0  0  0  0  0  0  0  0  0
   36.3630   24.3280   30.8270 C   0  0  0  0  0  0  0  0  0  0  0  0
   35.6790   24.3000   29.9440 H   0  0  0  0  0  0  0  0  0  0  0  0
   35.7050   24.6420   31.6710 H   0  0  0  0  0  0  0  0  0  0  0  0
   37.3060   25.3210   30.6740 O   0  0  0  0  0  0  0  0  0  0  0  0
   35.3150   26.6940   31.7020 O   0  0  0  0  0  0  0  0  0  0  0  0
   36.6340   26.8410   31.0360 P   0  0  2  0  0  0  0  0  0  0  0  0
   36.5330   27.6330   29.5200 O   0  0  0  0  0  0  0  0  0  0  0  0
   37.1910   27.2920   28.8790 H   0  0  0  0  0  0  0  0  0  0  0  0
   37.6520   27.7290   31.9920 O   0  0  0  0  0  0  0  0  0  0  0  0
   37.3140   27.9290   34.5010 C   0  0  0  0  0  0  0  0  0  0  0  0
   37.9090   27.6170   33.3070 C   0  0  0  0  0  0  0  0  0  0  0  0
   39.1650   26.9910   33.4210 C   0  0  0  0  0  0  0  0  0  0  0  0
   39.8610   26.6350   32.6430 H   0  0  0  0  0  0  0  0  0  0  0  0
   39.7580   26.7110   34.6610 C   0  0  0  0  0  0  0  0  0  0  0  0
   40.7050   26.2390   34.8440 H   0  0  0  0  0  0  0  0  0  0  0  0
   39.0980   27.0540   35.8220 C   0  0  0  0  0  3  0  0  0  0  0  0
   37.8670   27.6670   35.7340 C   0  0  0  0  0  3  0  0  0  0  0  0
   35.0220   29.0520   34.3030 N   0  0  0  0  0  0  0  0  0  0  0  0
   36.0500   28.5570   34.3840 C   0  0  0  0  0  0  0  0  0  0  0  0
  1 10  1  0  0  0  0
  2  1  1  0  0  0  0
  3  1  1  0  0  0  0
  4  5  1  0  0  0  0
  5  6  1  0  0  0  0
  6  7  2  0  0  0  0
  6 18  1  0  0  0  0
  7 11  1  0  0  0  0
  8 12  1  0  0  0  0
  8  7  1  0  0  0  0
  9  8  2  0  0  0  0
 10  9  1  0  0  0  0
 10  5  2  0  0  0  0
 13  9  1  0  0  0  0
 14 20  1  0  0  0  0
 14 15  1  0  0  0  0
 15 21  1  0  0  0  0
 16 15  2  0  0  0  0
 16 22  1  0  0  0  0
 17 16  1  0  0  0  0
 18 19  1  0  0  0  0
 18 17  2  0  0  0  0
 19 14  2  0  0  0  0
 22 23  1  0  0  0  0
 24 22  1  0  0  0  0
 25  1  1  0  0  0  0
 25 27  1  0  0  0  0
 26 25  1  0  0  0  0
 28 25  1  0  0  0  0
 28 30  1  0  0  0  0
 30 29  2  1  0  0  0
 30 33  1  0  0  0  0
 31 30  1  0  0  0  0
 32 31  1  0  0  0  0
 33 35  1  0  0  0  0
 34 41  1  0  0  0  0
 35 36  1  0  0  0  0
 35 34  2  0  0  0  0
 36 38  2  0  0  0  0
 37 36  1  0  0  0  0
 38 39  1  0  0  0  0
 38 40  1  0  0  0  0
 41 40  2  0  0  0  0
 42 43  3  0  0  0  0
 43 34  1  0  0  0  0
M  END
>  <minimizedAffinity>
-6.38079262

$$$$

 OpenBabel03272504403D

 43 45  0  0  0  0  0  0  0  0999 V2000
   38.5160   25.9510   31.7090 C   0  0  0  0  0  0  0  0  0  0  0  0
   38.9750   26.0660   30.6810 H   0  0  0  0  0  0  0  0  0  0  0  0
   39.2140   25.2620   32.2260 H   0  0  0  0  0  0  0  0  0  0  0  0
   38.5290   23.0590   32.3220 Cl  0  0  0  0  0  0  0  0  0  0  0  0
   37.1000   23.9300   31.7620 C   0  0  0  0  0  0  0  0  0  0  0  0
   35.9290   23.2560   31.5920 C   0  0  0  0  0  0  0  0  0  0  0  0
   34.8170   23.9230   31.1590 C   0  0  0  0  0  0  0  0  0  0  0  0
   34.9110   25.2770   30.9040 C   0  0  0  0  0  0  0  0  0  0  0  0
   36.1340   25.9230   31.0930 C   0  0  0  0  0  0  0  0  0  0  0  0
   37.2520   25.2780   31.5230 C   0  0  0  0  0  0  0  0  0  0  0  0
   33.8960   23.3430   31.0360 H   0  0  0  0  0  0  0  0  0  0  0  0
   33.9720   25.7070   30.5660 H   0  0  0  0  0  0  0  0  0  0  0  0
   36.0010   26.9170   30.8520 H   0  0  0  0  0  0  0  0  0  0  0  0
   35.4900   20.0080   33.2990 C   0  0  0  0  0  0  0  0  0  0  0  0
   35.7320   19.1030   32.2250 C   0  0  0  0  0  0  0  0  0  0  0  0
   36.0320   19.6480   30.9740 C   0  0  0  0  0  0  0  0  0  0  0  0
   36.0800   20.9940   30.8370 N   0  0  0  0  0  0  0  0  0  0  0  0
   35.8480   21.8240   31.8660 C   0  0  0  0  0  0  0  0  0  0  0  0
   35.5560   21.3290   33.0840 N   0  0  0  0  0  0  0  0  0  0  0  0
   35.2560   19.6140   34.2740 H   0  0  0  0  0  0  0  0  0  0  0  0
   35.6690   18.0440   32.4360 H   0  0  0  0  0  0  0  0  0  0  0  0
   36.2650   18.7270   29.9400 N   0  0  0  0  0  0  0  0  0  0  0  0
   37.2030   18.4530   29.5320 H   0  0  0  0  0  0  0  0  0  0  0  0
   35.3090   18.4020   29.6940 H   0  0  0  0  0  0  0  0  0  0  0  0
   38.5450   27.2470   32.3720 C   0  0  0  0  0  0  0  0  0  0  0  0
   39.0150   28.0170   31.7130 H   0  0  0  0  0  0  0  0  0  0  0  0
   37.5250   27.6490   32.5770 H   0  0  0  0  0  0  0  0  0  0  0  0
   39.1950   27.1910   33.5860 O   0  0  0  0  0  0  0  0  0  0  0  0
   36.7650   27.5470   34.5220 O   0  0  0  0  0  0  0  0  0  0  0  0
   38.0810   26.9410   34.8470 P   0  0  2  0  0  0  0  0  0  0  0  0
   38.8240   27.6500   36.2180 O   0  0  0  0  0  0  0  0  0  0  0  0
   39.8010   27.6740   36.1400 H   0  0  0  0  0  0  0  0  0  0  0  0
   37.8950   25.3260   35.1640 O   0  0  0  0  0  0  0  0  0  0  0  0
   39.8440   23.9220   35.9900 C   0  0  0  0  0  0  0  0  0  0  0  0
   38.6120   24.5230   35.9700 C   0  0  0  0  0  0  0  0  0  0  0  0
   37.8110   24.2630   37.0970 C   0  0  0  0  0  0  0  0  0  0  0  0
   36.7940   24.6070   37.3480 H   0  0  0  0  0  0  0  0  0  0  0  0
   38.2420   23.4510   38.1570 C   0  0  0  0  0  0  0  0  0  0  0  0
   37.7030   23.1990   39.0510 H   0  0  0  0  0  0  0  0  0  0  0  0
   39.4960   22.8790   38.1080 C   0  0  0  0  0  3  0  0  0  0  0  0
   40.2970   23.1210   37.0130 C   0  0  0  0  0  3  0  0  0  0  0  0
   41.2910   24.3830   33.9300 N   0  0  0  0  0  0  0  0  0  0  0  0
   40.6480   24.1870   34.8550 C   0  0  0  0  0  0  0  0  0  0  0  0
  1  3  1  0  0  0  0
  1 25  1  0  0  0  0
  2  1  1  0  0  0  0
  5  4  1  0  0  0  0
  6  5  1  0  0  0  0
  6 18  1  0  0  0  0
  7  6  2  0  0  0  0
  8  9  2  0  0  0  0
  8  7  1  0  0  0  0
  9 10  1  0  0  0  0
 10  1  1  0  0  0  0
 10  5  2  0  0  0  0
 11  7  1  0  0  0  0
 12  8  1  0  0  0  0
 13  9  1  0  0  0  0
 14 20  1  0  0  0  0
 15 21  1  0  0  0  0
 15 14  2  0  0  0  0
 16 15  1  0  0  0  0
 17 16  2  0  0  0  0
 17 18  1  0  0  0  0
 18 19  2  0  0  0  0
 19 14  1  0  0  0  0
 22 16  1  0  0  0  0
 23 22  1  0  0  0  0
 24 22  1  0  0  0  0
 25 27  1  0  0  0  0
 25 28  1  0  0  0  0
 26 25  1  0  0  0  0
 28 30  1  0  0  0  0
 30 29  2  6  0  0  0
 30 33  1  0  0  0  0
 30 31  1  0  0  0  0
 32 31  1  0  0  0  0
 33 35  1  0  0  0  0
 34 41  1  0  0  0  0
 35 34  2  0  0  0  0
 35 36  1  0  0  0  0
 36 37  1  0  0  0  0
 36 38  2  0  0  0  0
 38 39  1  0  0  0  0
 40 38  1  0  0  0  0
 41 40  2  0  0  0  0
 42 43  3  0  0  0  0
 43 34  1  0  0  0  0
M  END
>  <minimizedAffinity>
-6.33620834

$$$$

 OpenBabel03272504403D

 43 45  0  0  0  0  0  0  0  0999 V2000
   37.9100   26.6750   31.1860 C   0  0  0  0  0  0  0  0  0  0  0  0
   36.8830   26.5980   30.7190 H   0  0  0  0  0  0  0  0  0  0  0  0
   38.5080   27.1930   30.4090 H   0  0  0  0  0  0  0  0  0  0  0  0
   35.8470   24.6430   31.7790 Cl  0  0  0  0  0  0  0  0  0  0  0  0
   37.5630   24.2680   31.6080 C   0  0  0  0  0  0  0  0  0  0  0  0
   37.9850   22.9810   31.7540 C   0  0  0  0  0  0  0  0  0  0  0  0
   39.3130   22.6820   31.6220 C   0  0  0  0  0  0  0  0  0  0  0  0
   40.1990   23.7020   31.3390 C   0  0  0  0  0  0  0  0  0  0  0  0
   39.7170   25.0040   31.1980 C   0  0  0  0  0  0  0  0  0  0  0  0
   38.4010   25.3230   31.3260 C   0  0  0  0  0  0  0  0  0  0  0  0
   39.6090   21.6350   31.7480 H   0  0  0  0  0  0  0  0  0  0  0  0
   41.2260   23.3550   31.2550 H   0  0  0  0  0  0  0  0  0  0  0  0
   40.5240   25.6140   30.9920 H   0  0  0  0  0  0  0  0  0  0  0  0
   35.6020   20.1770   31.4120 C   0  0  0  0  0  0  0  0  0  0  0  0
   35.2580   19.9460   32.7760 C   0  0  0  0  0  0  0  0  0  0  0  0
   35.8580   20.7600   33.7410 C   0  0  0  0  0  0  0  0  0  0  0  0
   36.7280   21.7190   33.3460 N   0  0  0  0  0  0  0  0  0  0  0  0
   37.0330   21.9160   32.0540 C   0  0  0  0  0  0  0  0  0  0  0  0
   36.4720   21.1480   31.1000 N   0  0  0  0  0  0  0  0  0  0  0  0
   35.1540   19.5650   30.6480 H   0  0  0  0  0  0  0  0  0  0  0  0
   34.5540   19.1550   32.9900 H   0  0  0  0  0  0  0  0  0  0  0  0
   35.4950   20.5040   35.0740 N   0  0  0  0  0  0  0  0  0  0  0  0
   34.8320   21.0730   35.6720 H   0  0  0  0  0  0  0  0  0  0  0  0
   36.0310   19.6440   35.3030 H   0  0  0  0  0  0  0  0  0  0  0  0
   37.8170   27.5270   32.3640 C   0  0  0  0  0  0  0  0  0  0  0  0
   37.8330   28.6050   32.0720 H   0  0  0  0  0  0  0  0  0  0  0  0
   36.8500   27.4060   32.9070 H   0  0  0  0  0  0  0  0  0  0  0  0
   38.8150   27.2590   33.2750 O   0  0  0  0  0  0  0  0  0  0  0  0
   36.7060   27.0570   34.8310 O   0  0  0  0  0  0  0  0  0  0  0  0
   38.1500   26.7200   34.7450 P   0  0  2  0  0  0  0  0  0  0  0  0
   39.0910   27.4980   35.9480 O   0  0  0  0  0  0  0  0  0  0  0  0
   39.9880   27.7280   35.6260 H   0  0  0  0  0  0  0  0  0  0  0  0
   38.3600   25.0880   34.9310 O   0  0  0  0  0  0  0  0  0  0  0  0
   39.7260   23.5330   36.4010 C   0  0  0  0  0  0  0  0  0  0  0  0
   38.7280   24.3900   36.0190 C   0  0  0  0  0  0  0  0  0  0  0  0
   37.7720   24.6630   37.0160 C   0  0  0  0  0  0  0  0  0  0  0  0
   36.8760   25.3040   36.9920 H   0  0  0  0  0  0  0  0  0  0  0  0
   37.8380   24.0980   38.2980 C   0  0  0  0  0  0  0  0  0  0  0  0
   37.1590   24.2480   39.1160 H   0  0  0  0  0  0  0  0  0  0  0  0
   38.8740   23.2430   38.6110 C   0  0  0  0  0  3  0  0  0  0  0  0
   39.8210   22.9620   37.6500 C   0  0  0  0  0  3  0  0  0  0  0  0
   41.4610   23.0620   34.5780 N   0  0  0  0  0  0  0  0  0  0  0  0
   40.6870   23.2620   35.3970 C   0  0  0  0  0  0  0  0  0  0  0  0
  1 10  1  0  0  0  0
  1 25  1  0  0  0  0
  2  1  1  0  0  0  0
  3  1  1  0  0  0  0
  5  6  1  0  0  0  0
  5  4  1  0  0  0  0
  6 18  1  0  0  0  0
  7 11  1  0  0  0  0
  7  6  2  0  0  0  0
  8  7  1  0  0  0  0
  9 10  1  0  0  0  0
  9  8  2  0  0  0  0
 10  5  2  0  0  0  0
 12  8  1  0  0  0  0
 13  9  1  0  0  0  0
 14 15  1  0  0  0  0
 15 21  1  0  0  0  0
 15 16  2  0  0  0  0
 16 22  1  0  0  0  0
 17 16  1  0  0  0  0
 18 17  2  0  0  0  0
 19 14  2  0  0  0  0
 19 18  1  0  0  0  0
 20 14  1  0  0  0  0
 22 24  1  0  0  0  0
 22 23  1  0  0  0  0
 25 27  1  0  0  0  0
 25 28  1  0  0  0  0
 26 25  1  0  0  0  0
 28 30  1  0  0  0  0
 30 29  2  1  0  0  0
 30 33  1  0  0  0  0
 30 31  1  0  0  0  0
 32 31  1  0  0  0  0
 33 35  1  0  0  0  0
 34 41  1  0  0  0  0
 35 34  2  0  0  0  0
 35 36  1  0  0  0  0
 36 38  2  0  0  0  0
 37 36  1  0  0  0  0
 38 40  1  0  0  0  0
 38 39  1  0  0  0  0
 41 40  2  0  0  0  0
 42 43  3  0  0  0  0
 43 34  1  0  0  0  0
M  END
>  <minimizedAffinity>
-5.97500753

$$$$

 OpenBabel03272504403D

 43 45  0  0  0  0  0  0  0  0999 V2000
   37.0480   26.9290   32.2330 C   0  0  0  0  0  0  0  0  0  0  0  0
   35.9860   26.5590   32.3590 H   0  0  0  0  0  0  0  0  0  0  0  0
   37.4990   26.1870   31.5430 H   0  0  0  0  0  0  0  0  0  0  0  0
   38.8660   24.6180   32.5280 Cl  0  0  0  0  0  0  0  0  0  0  0  0
   38.5520   25.7820   33.8170 C   0  0  0  0  0  0  0  0  0  0  0  0
   39.1660   25.6270   35.0230 C   0  0  0  0  0  0  0  0  0  0  0  0
   38.9300   26.5260   36.0270 C   0  0  0  0  0  0  0  0  0  0  0  0
   38.0660   27.5760   35.7880 C   0  0  0  0  0  0  0  0  0  0  0  0
   37.4610   27.6910   34.5360 C   0  0  0  0  0  0  0  0  0  0  0  0
   37.6830   26.8090   33.5240 C   0  0  0  0  0  0  0  0  0  0  0  0
   39.4430   26.3640   36.9800 H   0  0  0  0  0  0  0  0  0  0  0  0
   37.9490   28.2280   36.6510 H   0  0  0  0  0  0  0  0  0  0  0  0
   36.8600   28.5290   34.5570 H   0  0  0  0  0  0  0  0  0  0  0  0
   41.9670   23.2340   34.7290 C   0  0  0  0  0  0  0  0  0  0  0  0
   41.6950   22.3640   35.8250 C   0  0  0  0  0  0  0  0  0  0  0  0
   40.5700   22.6390   36.6070 C   0  0  0  0  0  0  0  0  0  0  0  0
   39.7970   23.7060   36.2960 N   0  0  0  0  0  0  0  0  0  0  0  0
   40.0750   24.5090   35.2570 C   0  0  0  0  0  0  0  0  0  0  0  0
   41.1520   24.2700   34.4850 N   0  0  0  0  0  0  0  0  0  0  0  0
   42.8270   23.0440   34.1100 H   0  0  0  0  0  0  0  0  0  0  0  0
   42.3730   21.5390   35.9920 H   0  0  0  0  0  0  0  0  0  0  0  0
   40.3330   21.7610   37.6770 N   0  0  0  0  0  0  0  0  0  0  0  0
   39.6040   20.9940   37.7210 H   0  0  0  0  0  0  0  0  0  0  0  0
   41.0360   22.0550   38.3840 H   0  0  0  0  0  0  0  0  0  0  0  0
   37.0050   28.2290   31.5750 C   0  0  0  0  0  0  0  0  0  0  0  0
   37.4590   29.0140   32.2270 H   0  0  0  0  0  0  0  0  0  0  0  0
   37.6170   28.2600   30.6430 H   0  0  0  0  0  0  0  0  0  0  0  0
   35.7230   28.5830   31.2150 O   0  0  0  0  0  0  0  0  0  0  0  0
   33.8780   30.4040   31.6480 O   0  0  0  0  0  0  0  0  0  0  0  0
   35.1980   29.9200   32.1260 P   0  0  2  0  0  0  0  0  0  0  0  0
   36.4450   31.0800   31.9370 O   0  0  0  0  0  0  0  0  0  0  0  0
   37.3100   30.6660   31.7340 H   0  0  0  0  0  0  0  0  0  0  0  0
   35.1110   29.5460   33.7370 O   0  0  0  0  0  0  0  0  0  0  0  0
   33.3710   30.4230   35.3660 C   0  0  0  0  0  0  0  0  0  0  0  0
   34.5850   30.2520   34.7530 C   0  0  0  0  0  0  0  0  0  0  0  0
   35.6350   31.0120   35.3020 C   0  0  0  0  0  0  0  0  0  0  0  0
   36.6980   31.0750   35.0180 H   0  0  0  0  0  0  0  0  0  0  0  0
   35.4490   31.8770   36.3920 C   0  0  0  0  0  0  0  0  0  0  0  0
   36.1860   32.4910   36.8740 H   0  0  0  0  0  0  0  0  0  0  0  0
   34.1980   31.9970   36.9580 C   0  0  0  0  0  3  0  0  0  0  0  0
   33.1550   31.2620   36.4350 C   0  0  0  0  0  3  0  0  0  0  0  0
   31.4530   29.0500   34.3710 N   0  0  0  0  0  0  0  0  0  0  0  0
   32.3180   29.6560   34.8120 C   0  0  0  0  0  0  0  0  0  0  0  0
  1  2  1  0  0  0  0
  1 10  1  0  0  0  0
  3  1  1  0  0  0  0
  4  5  1  0  0  0  0
  5  6  1  0  0  0  0
  6 18  1  0  0  0  0
  6  7  2  0  0  0  0
  7 11  1  0  0  0  0
  8  7  1  0  0  0  0
  8 12  1  0  0  0  0
  9 13  1  0  0  0  0
  9  8  2  0  0  0  0
 10  5  2  0  0  0  0
 10  9  1  0  0  0  0
 14 15  1  0  0  0  0
 15 21  1  0  0  0  0
 15 16  2  0  0  0  0
 16 22  1  0  0  0  0
 17 16  1  0  0  0  0
 18 17  2  0  0  0  0
 19 14  2  0  0  0  0
 19 18  1  0  0  0  0
 20 14  1  0  0  0  0
 22 23  1  0  0  0  0
 22 24  1  0  0  0  0
 25 26  1  0  0  0  0
 25  1  1  0  0  0  0
 27 25  1  0  0  0  0
 28 25  1  0  0  0  0
 28 30  1  0  0  0  0
 30 29  2  6  0  0  0
 30 33  1  0  0  0  0
 31 30  1  0  0  0  0
 32 31  1  0  0  0  0
 33 35  1  0  0  0  0
 34 41  1  0  0  0  0
 35 36  1  0  0  0  0
 35 34  2  0  0  0  0
 36 38  2  0  0  0  0
 37 36  1  0  0  0  0
 38 39  1  0  0  0  0
 38 40  1  0  0  0  0
 41 40  2  0  0  0  0
 42 43  3  0  0  0  0
 43 34  1  0  0  0  0
M  END
>  <minimizedAffinity>
-5.89659262

$$$$

 OpenBabel03272504403D

 43 45  0  0  0  0  0  0  0  0999 V2000
   38.0830   26.2880   32.1810 C   0  0  0  0  0  0  0  0  0  0  0  0
   37.7450   25.5700   31.3750 H   0  0  0  0  0  0  0  0  0  0  0  0
   37.6990   25.8280   33.1140 H   0  0  0  0  0  0  0  0  0  0  0  0
   36.4820   27.2670   34.4650 Cl  0  0  0  0  0  0  0  0  0  0  0  0
   36.5850   28.1070   32.9160 C   0  0  0  0  0  0  0  0  0  0  0  0
   35.8980   29.2690   32.7380 C   0  0  0  0  0  0  0  0  0  0  0  0
   35.9740   29.9270   31.5410 C   0  0  0  0  0  0  0  0  0  0  0  0
   36.7530   29.3910   30.5360 C   0  0  0  0  0  0  0  0  0  0  0  0
   37.4390   28.1970   30.7680 C   0  0  0  0  0  0  0  0  0  0  0  0
   37.3770   27.5270   31.9500 C   0  0  0  0  0  0  0  0  0  0  0  0
   35.4050   30.8580   31.4400 H   0  0  0  0  0  0  0  0  0  0  0  0
   36.7430   29.9920   29.6290 H   0  0  0  0  0  0  0  0  0  0  0  0
   37.9570   27.9640   29.9060 H   0  0  0  0  0  0  0  0  0  0  0  0
   33.0500   30.0440   34.9610 C   0  0  0  0  0  0  0  0  0  0  0  0
   33.6640   30.9390   35.8860 C   0  0  0  0  0  0  0  0  0  0  0  0
   35.0180   31.2310   35.7020 C   0  0  0  0  0  0  0  0  0  0  0  0
   35.6810   30.6590   34.6680 N   0  0  0  0  0  0  0  0  0  0  0  0
   35.0780   29.8210   33.8110 C   0  0  0  0  0  0  0  0  0  0  0  0
   33.7730   29.5200   33.9620 N   0  0  0  0  0  0  0  0  0  0  0  0
   32.0070   29.8030   35.0790 H   0  0  0  0  0  0  0  0  0  0  0  0
   33.0500   31.3420   36.6780 H   0  0  0  0  0  0  0  0  0  0  0  0
   35.5890   32.1150   36.6310 N   0  0  0  0  0  0  0  0  0  0  0  0
   35.8230   33.1370   36.4750 H   0  0  0  0  0  0  0  0  0  0  0  0
   35.7160   31.5220   37.4750 H   0  0  0  0  0  0  0  0  0  0  0  0
   39.5390   26.2900   32.2130 C   0  0  0  0  0  0  0  0  0  0  0  0
   39.9280   25.2760   32.4720 H   0  0  0  0  0  0  0  0  0  0  0  0
   39.9920   26.5090   31.2170 H   0  0  0  0  0  0  0  0  0  0  0  0
   40.0350   27.2340   33.0850 O   0  0  0  0  0  0  0  0  0  0  0  0
   39.5820   27.0440   35.6670 O   0  0  0  0  0  0  0  0  0  0  0  0
   40.4360   26.5160   34.5740 P   0  0  2  0  0  0  0  0  0  0  0  0
   42.0970   26.8790   34.7880 O   0  0  0  0  0  0  0  0  0  0  0  0
   42.5570   27.0300   33.9350 H   0  0  0  0  0  0  0  0  0  0  0  0
   40.2970   24.8680   34.4960 O   0  0  0  0  0  0  0  0  0  0  0  0
   39.8370   23.3770   36.5000 C   0  0  0  0  0  0  0  0  0  0  0  0
   40.5090   23.9440   35.4490 C   0  0  0  0  0  0  0  0  0  0  0  0
   41.8170   23.4590   35.2570 C   0  0  0  0  0  0  0  0  0  0  0  0
   42.5760   23.7270   34.5040 H   0  0  0  0  0  0  0  0  0  0  0  0
   42.3830   22.4730   36.0780 C   0  0  0  0  0  0  0  0  0  0  0  0
   43.3650   22.0450   36.0070 H   0  0  0  0  0  0  0  0  0  0  0  0
   41.6450   21.9480   37.1180 C   0  0  0  0  0  3  0  0  0  0  0  0
   40.3620   22.4090   37.3250 C   0  0  0  0  0  3  0  0  0  0  0  0
   37.4660   24.2790   36.8530 N   0  0  0  0  0  0  0  0  0  0  0  0
   38.5220   23.8670   36.6900 C   0  0  0  0  0  0  0  0  0  0  0  0
  1 25  1  0  0  0  0
  1  3  1  0  0  0  0
  2  1  1  0  0  0  0
  5  4  1  0  0  0  0
  6  5  1  0  0  0  0
  6 18  1  0  0  0  0
  7  6  2  0  0  0  0
  8  9  2  0  0  0  0
  8  7  1  0  0  0  0
  9 10  1  0  0  0  0
 10  1  1  0  0  0  0
 10  5  2  0  0  0  0
 11  7  1  0  0  0  0
 12  8  1  0  0  0  0
 13  9  1  0  0  0  0
 14 20  1  0  0  0  0
 14 15  1  0  0  0  0
 15 21  1  0  0  0  0
 16 15  2  0  0  0  0
 16 22  1  0  0  0  0
 17 16  1  0  0  0  0
 18 19  1  0  0  0  0
 18 17  2  0  0  0  0
 19 14  2  0  0  0  0
 22 24  1  0  0  0  0
 23 22  1  0  0  0  0
 25 26  1  0  0  0  0
 25 28  1  0  0  0  0
 27 25  1  0  0  0  0
 28 30  1  0  0  0  0
 30 31  1  0  0  0  0
 30 29  2  1  0  0  0
 32 31  1  0  0  0  0
 33 30  1  0  0  0  0
 33 35  1  0  0  0  0
 34 43  1  0  0  0  0
 34 41  1  0  0  0  0
 35 34  2  0  0  0  0
 36 35  1  0  0  0  0
 36 38  2  0  0  0  0
 37 36  1  0  0  0  0
 38 40  1  0  0  0  0
 39 38  1  0  0  0  0
 40 41  2  0  0  0  0
 43 42  3  0  0  0  0
M  END
>  <minimizedAffinity>
-5.88331699

$$$$

 OpenBabel03272504403D

 43 45  0  0  0  0  0  0  0  0999 V2000
   37.8900   27.1470   32.2050 C   0  0  0  0  0  0  0  0  0  0  0  0
   37.9320   26.6940   31.1690 H   0  0  0  0  0  0  0  0  0  0  0  0
   37.3780   26.3690   32.8060 H   0  0  0  0  0  0  0  0  0  0  0  0
   36.3740   27.7830   34.6610 Cl  0  0  0  0  0  0  0  0  0  0  0  0
   36.2560   28.7240   33.1730 C   0  0  0  0  0  0  0  0  0  0  0  0
   35.4280   29.8040   33.1270 C   0  0  0  0  0  0  0  0  0  0  0  0
   35.3320   30.5390   31.9770 C   0  0  0  0  0  0  0  0  0  0  0  0
   36.0860   30.1630   30.8840 C   0  0  0  0  0  0  0  0  0  0  0  0
   36.9200   29.0490   30.9800 C   0  0  0  0  0  0  0  0  0  0  0  0
   37.0300   28.3050   32.1130 C   0  0  0  0  0  0  0  0  0  0  0  0
   34.6540   31.3990   31.9830 H   0  0  0  0  0  0  0  0  0  0  0  0
   35.9340   30.8140   30.0250 H   0  0  0  0  0  0  0  0  0  0  0  0
   37.3920   28.9340   30.0700 H   0  0  0  0  0  0  0  0  0  0  0  0
   32.6910   30.1000   35.5920 C   0  0  0  0  0  0  0  0  0  0  0  0
   33.2750   30.9930   36.5380 C   0  0  0  0  0  0  0  0  0  0  0  0
   34.5710   31.4470   36.2850 C   0  0  0  0  0  0  0  0  0  0  0  0
   35.2110   31.0260   35.1680 N   0  0  0  0  0  0  0  0  0  0  0  0
   34.6380   30.1850   34.2930 C   0  0  0  0  0  0  0  0  0  0  0  0
   33.3880   29.7300   34.5090 N   0  0  0  0  0  0  0  0  0  0  0  0
   31.6920   29.7350   35.7630 H   0  0  0  0  0  0  0  0  0  0  0  0
   32.6830   31.2700   37.3990 H   0  0  0  0  0  0  0  0  0  0  0  0
   35.1140   32.3260   37.2370 N   0  0  0  0  0  0  0  0  0  0  0  0
   35.2240   33.3750   37.1440 H   0  0  0  0  0  0  0  0  0  0  0  0
   35.3670   31.6950   38.0220 H   0  0  0  0  0  0  0  0  0  0  0  0
   39.2540   27.3070   32.6910 C   0  0  0  0  0  0  0  0  0  0  0  0
   39.7320   28.2060   32.2330 H   0  0  0  0  0  0  0  0  0  0  0  0
   39.3000   27.5010   33.7880 H   0  0  0  0  0  0  0  0  0  0  0  0
   40.0180   26.1840   32.4590 O   0  0  0  0  0  0  0  0  0  0  0  0
   40.9480   26.5970   34.8830 O   0  0  0  0  0  0  0  0  0  0  0  0
   40.5690   25.5260   33.9280 P   0  0  2  0  0  0  0  0  0  0  0  0
   41.8900   24.5310   33.4800 O   0  0  0  0  0  0  0  0  0  0  0  0
   41.8220   24.2190   32.5530 H   0  0  0  0  0  0  0  0  0  0  0  0
   39.4200   24.5450   34.6080 O   0  0  0  0  0  0  0  0  0  0  0  0
   39.9990   23.1010   36.6150 C   0  0  0  0  0  0  0  0  0  0  0  0
   39.3540   24.0380   35.8510 C   0  0  0  0  0  0  0  0  0  0  0  0
   38.2970   24.7030   36.5020 C   0  0  0  0  0  0  0  0  0  0  0  0
   37.6150   25.4890   36.1400 H   0  0  0  0  0  0  0  0  0  0  0  0
   37.9360   24.4250   37.8290 C   0  0  0  0  0  0  0  0  0  0  0  0
   37.1510   24.8780   38.4030 H   0  0  0  0  0  0  0  0  0  0  0  0
   38.6330   23.4680   38.5360 C   0  0  0  0  0  3  0  0  0  0  0  0
   39.6710   22.8050   37.9180 C   0  0  0  0  0  3  0  0  0  0  0  0
   41.9090   21.8800   35.4250 N   0  0  0  0  0  0  0  0  0  0  0  0
   41.0620   22.4350   35.9580 C   0  0  0  0  0  0  0  0  0  0  0  0
  1 25  1  0  0  0  0
  1  3  1  0  0  0  0
  2  1  1  0  0  0  0
  5  4  1  0  0  0  0
  6  5  1  0  0  0  0
  6 18  1  0  0  0  0
  7 11  1  0  0  0  0
  7  6  2  0  0  0  0
  8  9  2  0  0  0  0
  8  7  1  0  0  0  0
  9 10  1  0  0  0  0
 10  1  1  0  0  0  0
 10  5  2  0  0  0  0
 12  8  1  0  0  0  0
 13  9  1  0  0  0  0
 14 20  1  0  0  0  0
 14 15  1  0  0  0  0
 15 21  1  0  0  0  0
 16 15  2  0  0  0  0
 16 22  1  0  0  0  0
 17 16  1  0  0  0  0
 18 19  1  0  0  0  0
 18 17  2  0  0  0  0
 19 14  2  0  0  0  0
 22 24  1  0  0  0  0
 23 22  1  0  0  0  0
 25 27  1  0  0  0  0
 26 25  1  0  0  0  0
 28 25  1  0  0  0  0
 28 30  1  0  0  0  0
 30 33  1  0  0  0  0
 30 29  2  1  0  0  0
 31 30  1  0  0  0  0
 32 31  1  0  0  0  0
 33 35  1  0  0  0  0
 34 41  1  0  0  0  0
 35 36  1  0  0  0  0
 35 34  2  0  0  0  0
 36 38  2  0  0  0  0
 37 36  1  0  0  0  0
 38 39  1  0  0  0  0
 38 40  1  0  0  0  0
 41 40  2  0  0  0  0
 42 43  3  0  0  0  0
 43 34  1  0  0  0  0
M  END
>  <minimizedAffinity>
-5.86613703

$$$$

 OpenBabel03272504403D

 43 45  0  0  0  0  0  0  0  0999 V2000
   37.7500   22.6990   31.0940 C   0  0  0  0  0  0  0  0  0  0  0  0
   37.5620   21.8770   30.3400 H   0  0  0  0  0  0  0  0  0  0  0  0
   38.8540   22.8020   31.0940 H   0  0  0  0  0  0  0  0  0  0  0  0
   39.3900   23.5680   33.3940 Cl  0  0  0  0  0  0  0  0  0  0  0  0
   37.9970   22.4950   33.5410 C   0  0  0  0  0  0  0  0  0  0  0  0
   37.6400   22.0260   34.7690 C   0  0  0  0  0  0  0  0  0  0  0  0
   36.5610   21.1950   34.8920 C   0  0  0  0  0  0  0  0  0  0  0  0
   35.8550   20.8500   33.7560 C   0  0  0  0  0  0  0  0  0  0  0  0
   36.2610   21.3570   32.5210 C   0  0  0  0  0  0  0  0  0  0  0  0
   37.3300   22.1840   32.3770 C   0  0  0  0  0  0  0  0  0  0  0  0
   36.3080   20.8410   35.8970 H   0  0  0  0  0  0  0  0  0  0  0  0
   35.0190   20.1870   33.9660 H   0  0  0  0  0  0  0  0  0  0  0  0
   35.6140   20.9870   31.8060 H   0  0  0  0  0  0  0  0  0  0  0  0
   40.2870   22.2640   37.3360 C   0  0  0  0  0  0  0  0  0  0  0  0
   39.7060   23.2040   38.2370 C   0  0  0  0  0  0  0  0  0  0  0  0
   38.4410   23.7070   37.9220 C   0  0  0  0  0  0  0  0  0  0  0  0
   37.8290   23.2870   36.7890 N   0  0  0  0  0  0  0  0  0  0  0  0
   38.3990   22.4010   35.9580 C   0  0  0  0  0  0  0  0  0  0  0  0
   39.6180   21.8980   36.2350 N   0  0  0  0  0  0  0  0  0  0  0  0
   41.2610   21.8610   37.5560 H   0  0  0  0  0  0  0  0  0  0  0  0
   40.2750   23.4760   39.1150 H   0  0  0  0  0  0  0  0  0  0  0  0
   37.9000   24.6290   38.8320 N   0  0  0  0  0  0  0  0  0  0  0  0
   37.1400   24.4450   39.5470 H   0  0  0  0  0  0  0  0  0  0  0  0
   38.4230   25.5020   38.6230 H   0  0  0  0  0  0  0  0  0  0  0  0
   37.1560   23.9290   30.5880 C   0  0  0  0  0  0  0  0  0  0  0  0
   36.8150   23.7970   29.5320 H   0  0  0  0  0  0  0  0  0  0  0  0
   36.2300   24.2190   31.1390 H   0  0  0  0  0  0  0  0  0  0  0  0
   38.0200   24.9970   30.6850 O   0  0  0  0  0  0  0  0  0  0  0  0
   36.5560   25.7420   32.7360 O   0  0  0  0  0  0  0  0  0  0  0  0
   37.3050   26.2640   31.5660 P   0  0  2  0  0  0  0  0  0  0  0  0
   36.2990   27.0580   30.4280 O   0  0  0  0  0  0  0  0  0  0  0  0
   36.6090   26.9320   29.5070 H   0  0  0  0  0  0  0  0  0  0  0  0
   38.4430   27.3580   32.0670 O   0  0  0  0  0  0  0  0  0  0  0  0
   40.0100   27.0080   34.0340 C   0  0  0  0  0  0  0  0  0  0  0  0
   39.5900   27.1540   32.7380 C   0  0  0  0  0  0  0  0  0  0  0  0
   40.6130   27.0770   31.7750 C   0  0  0  0  0  0  0  0  0  0  0  0
   40.5700   27.1580   30.6760 H   0  0  0  0  0  0  0  0  0  0  0  0
   41.9580   26.8690   32.1180 C   0  0  0  0  0  0  0  0  0  0  0  0
   42.8000   26.7970   31.4570 H   0  0  0  0  0  0  0  0  0  0  0  0
   42.3060   26.7310   33.4460 C   0  0  0  0  0  3  0  0  0  0  0  0
   41.3190   26.8020   34.4060 C   0  0  0  0  0  3  0  0  0  0  0  0
   38.1400   27.1650   35.7750 N   0  0  0  0  0  0  0  0  0  0  0  0
   38.9780   27.0850   35.0010 C   0  0  0  0  0  0  0  0  0  0  0  0
  1 10  1  0  0  0  0
  2  1  1  0  0  0  0
  3  1  1  0  0  0  0
  4  5  1  0  0  0  0
  5  6  1  0  0  0  0
  6  7  2  0  0  0  0
  6 18  1  0  0  0  0
  7 11  1  0  0  0  0
  8 12  1  0  0  0  0
  8  7  1  0  0  0  0
  9  8  2  0  0  0  0
 10  9  1  0  0  0  0
 10  5  2  0  0  0  0
 13  9  1  0  0  0  0
 14 20  1  0  0  0  0
 14 15  1  0  0  0  0
 15 21  1  0  0  0  0
 16 15  2  0  0  0  0
 16 22  1  0  0  0  0
 17 16  1  0  0  0  0
 18 19  1  0  0  0  0
 18 17  2  0  0  0  0
 19 14  2  0  0  0  0
 22 23  1  0  0  0  0
 24 22  1  0  0  0  0
 25 28  1  0  0  0  0
 25  1  1  0  0  0  0
 25 27  1  0  0  0  0
 26 25  1  0  0  0  0
 28 30  1  0  0  0  0
 30 33  1  0  0  0  0
 30 29  2  1  0  0  0
 31 30  1  0  0  0  0
 32 31  1  0  0  0  0
 33 35  1  0  0  0  0
 34 41  1  0  0  0  0
 34 43  1  0  0  0  0
 35 34  2  0  0  0  0
 36 38  2  0  0  0  0
 36 35  1  0  0  0  0
 37 36  1  0  0  0  0
 38 40  1  0  0  0  0
 39 38  1  0  0  0  0
 40 41  2  0  0  0  0
 43 42  3  0  0  0  0
M  END
>  <minimizedAffinity>
-5.76324606

$$$$

 OpenBabel03272504403D

 43 45  0  0  0  0  0  0  0  0999 V2000
   36.9250   27.1510   31.9660 C   0  0  0  0  0  0  0  0  0  0  0  0
   36.1810   26.3030   32.0460 H   0  0  0  0  0  0  0  0  0  0  0  0
   37.5880   26.8350   31.1350 H   0  0  0  0  0  0  0  0  0  0  0  0
   39.7360   26.2770   31.7000 Cl  0  0  0  0  0  0  0  0  0  0  0  0
   39.0070   26.7610   33.2330 C   0  0  0  0  0  0  0  0  0  0  0  0
   39.7580   26.7370   34.3690 C   0  0  0  0  0  0  0  0  0  0  0  0
   39.2010   27.1120   35.5600 C   0  0  0  0  0  0  0  0  0  0  0  0
   37.8790   27.5090   35.5800 C   0  0  0  0  0  0  0  0  0  0  0  0
   37.1510   27.5170   34.3890 C   0  0  0  0  0  0  0  0  0  0  0  0
   37.6860   27.1480   33.1940 C   0  0  0  0  0  0  0  0  0  0  0  0
   39.8400   27.0770   36.4490 H   0  0  0  0  0  0  0  0  0  0  0  0
   37.5380   27.7850   36.5750 H   0  0  0  0  0  0  0  0  0  0  0  0
   36.1970   27.8400   34.6100 H   0  0  0  0  0  0  0  0  0  0  0  0
   42.8350   24.7000   34.5710 C   0  0  0  0  0  0  0  0  0  0  0  0
   43.8210   25.6630   34.2080 C   0  0  0  0  0  0  0  0  0  0  0  0
   43.3850   26.9570   33.9130 C   0  0  0  0  0  0  0  0  0  0  0  0
   42.0620   27.2380   33.9830 N   0  0  0  0  0  0  0  0  0  0  0  0
   41.1540   26.3120   34.3290 C   0  0  0  0  0  0  0  0  0  0  0  0
   41.5440   25.0560   34.6190 N   0  0  0  0  0  0  0  0  0  0  0  0
   43.1440   23.6950   34.8040 H   0  0  0  0  0  0  0  0  0  0  0  0
   44.8520   25.3400   34.1800 H   0  0  0  0  0  0  0  0  0  0  0  0
   44.3840   27.8790   33.5600 N   0  0  0  0  0  0  0  0  0  0  0  0
   44.7820   28.6490   34.1690 H   0  0  0  0  0  0  0  0  0  0  0  0
   44.6150   27.6130   32.5830 H   0  0  0  0  0  0  0  0  0  0  0  0
   36.2070   28.3560   31.5730 C   0  0  0  0  0  0  0  0  0  0  0  0
   36.7440   29.2680   31.9290 H   0  0  0  0  0  0  0  0  0  0  0  0
   36.1550   28.4850   30.4660 H   0  0  0  0  0  0  0  0  0  0  0  0
   34.9070   28.3540   32.0290 O   0  0  0  0  0  0  0  0  0  0  0  0
   33.2040   30.3290   32.3520 O   0  0  0  0  0  0  0  0  0  0  0  0
   34.5370   29.8350   32.7790 P   0  0  2  0  0  0  0  0  0  0  0  0
   35.8160   30.8770   32.3180 O   0  0  0  0  0  0  0  0  0  0  0  0
   36.6370   30.3850   32.1030 H   0  0  0  0  0  0  0  0  0  0  0  0
   34.5840   29.6940   34.4290 O   0  0  0  0  0  0  0  0  0  0  0  0
   32.8930   30.7260   36.0170 C   0  0  0  0  0  0  0  0  0  0  0  0
   34.0820   30.5090   35.3730 C   0  0  0  0  0  0  0  0  0  0  0  0
   35.1320   31.3590   35.7710 C   0  0  0  0  0  0  0  0  0  0  0  0
   36.1790   31.4120   35.4310 H   0  0  0  0  0  0  0  0  0  0  0  0
   34.9680   32.3490   36.7510 C   0  0  0  0  0  0  0  0  0  0  0  0
   35.7060   33.0380   37.1170 H   0  0  0  0  0  0  0  0  0  0  0  0
   33.7400   32.5090   37.3580 C   0  0  0  0  0  3  0  0  0  0  0  0
   32.6980   31.6870   36.9830 C   0  0  0  0  0  3  0  0  0  0  0  0
   30.9750   29.1900   35.2960 N   0  0  0  0  0  0  0  0  0  0  0  0
   31.8400   29.8690   35.6150 C   0  0  0  0  0  0  0  0  0  0  0  0
  1  2  1  0  0  0  0
  1 10  1  0  0  0  0
  3  1  1  0  0  0  0
  4  5  1  0  0  0  0
  5  6  1  0  0  0  0
  6  7  2  0  0  0  0
  7  8  1  0  0  0  0
  7 11  1  0  0  0  0
  8 12  1  0  0  0  0
  9 13  1  0  0  0  0
  9  8  2  0  0  0  0
 10  5  2  0  0  0  0
 10  9  1  0  0  0  0
 14 19  1  0  0  0  0
 14 20  1  0  0  0  0
 15 14  2  0  0  0  0
 16 17  2  0  0  0  0
 16 15  1  0  0  0  0
 17 18  1  0  0  0  0
 18  6  1  0  0  0  0
 18 19  2  0  0  0  0
 21 15  1  0  0  0  0
 22 16  1  0  0  0  0
 22 23  1  0  0  0  0
 24 22  1  0  0  0  0
 25 26  1  0  0  0  0
 25  1  1  0  0  0  0
 25 28  1  0  0  0  0
 27 25  1  0  0  0  0
 28 30  1  0  0  0  0
 30 29  2  6  0  0  0
 30 33  1  0  0  0  0
 31 30  1  0  0  0  0
 32 31  1  0  0  0  0
 33 35  1  0  0  0  0
 34 41  1  0  0  0  0
 35 36  1  0  0  0  0
 35 34  2  0  0  0  0
 36 38  2  0  0  0  0
 37 36  1  0  0  0  0
 38 39  1  0  0  0  0
 38 40  1  0  0  0  0
 41 40  2  0  0  0  0
 42 43  3  0  0  0  0
 43 34  1  0  0  0  0
M  END
>  <minimizedAffinity>
-5.70838833

$$$$
