
 OpenBabel03272503123D

 47 51  0  0  0  0  0  0  0  0999 V2000
   39.1630   32.1730   42.5730 C   0  0  0  0  0  0  0  0  0  0  0  0
   39.7070   31.4980   43.6380 C   0  0  0  0  0  0  0  0  0  0  0  0
   40.6190   30.4750   43.4860 C   0  0  0  0  0  0  0  0  0  0  0  0
   41.0140   30.1020   42.1960 C   0  0  0  0  0  0  0  0  0  0  0  0
   41.8550   29.1770   41.7450 N   0  0  0  0  0  0  0  0  0  0  0  0
   41.8600   29.2480   40.4210 C   0  0  0  0  0  0  0  0  0  0  0  0
   41.0140   30.2250   40.0300 N   0  0  0  0  0  0  0  0  0  0  0  0
   40.4590   30.7910   41.1280 C   0  0  0  0  0  0  0  0  0  0  0  0
   39.5450   31.8150   41.2720 C   0  0  0  0  0  0  0  0  0  0  0  0
   38.4520   32.9850   42.7750 H   0  0  0  0  0  0  0  0  0  0  0  0
   41.0370   29.9530   44.3310 H   0  0  0  0  0  0  0  0  0  0  0  0
   42.4160   28.5100   42.3310 H   0  0  0  0  0  0  0  0  0  0  0  0
   42.4570   28.6080   39.7730 H   0  0  0  0  0  0  0  0  0  0  0  0
   39.2870   31.8930   44.9650 C   0  0  0  0  0  0  0  0  0  0  0  0
   38.1810   32.5340   45.0810 O   0  0  0  0  0  0  0  0  0  0  0  0
   39.9770   31.6430   46.1670 N   0  0  0  0  0  0  0  0  0  0  0  0
   40.8710   31.1270   46.1060 H   0  0  0  0  0  0  0  0  0  0  0  0
   38.1310   30.1550   47.5080 F   0  0  0  0  0  0  0  0  0  0  0  0
   38.3760   31.3920   48.0000 C   0  0  0  0  0  0  0  0  0  0  0  0
   37.7180   31.8380   49.1060 C   0  0  0  0  0  0  0  0  0  0  0  0
   38.0190   33.1060   49.5440 C   0  0  0  0  0  0  0  0  0  0  0  0
   38.9360   33.9070   48.9170 C   0  0  0  0  0  0  0  0  0  0  0  0
   39.6010   33.4330   47.7860 C   0  0  0  0  0  0  0  0  0  0  0  0
   39.3100   32.1600   47.3300 C   0  0  0  0  0  0  0  0  0  0  0  0
   37.4990   33.4670   50.4240 H   0  0  0  0  0  0  0  0  0  0  0  0
   39.1140   34.8920   49.3290 H   0  0  0  0  0  0  0  0  0  0  0  0
   40.3260   34.0600   47.2850 H   0  0  0  0  0  0  0  0  0  0  0  0
   36.0770   29.3570   51.4600 C   0  0  0  0  0  0  0  0  0  0  0  0
   37.0450   30.2160   50.8770 C   0  0  0  0  0  0  0  0  0  0  0  0
   36.7470   30.9410   49.7390 C   0  0  0  0  0  0  0  0  0  0  0  0
   35.4920   30.7930   49.2090 N   0  0  0  0  0  0  0  0  0  0  0  0
   34.5800   29.9770   49.7670 C   0  0  0  0  0  0  0  0  0  0  0  0
   34.8640   29.2770   50.8640 N   0  0  0  0  0  0  0  0  0  0  0  0
   36.3630   28.8120   52.3520 H   0  0  0  0  0  0  0  0  0  0  0  0
   38.0410   30.3310   51.3000 H   0  0  0  0  0  0  0  0  0  0  0  0
   33.6130   29.9310   49.2700 H   0  0  0  0  0  0  0  0  0  0  0  0
   39.0020   32.4830   40.2060 O   0  0  0  0  0  0  0  0  0  0  0  0
   36.7550   31.8620   39.6250 C   0  0  0  0  0  0  0  0  0  0  0  0
   37.6800   32.8250   40.0490 C   0  0  0  0  0  0  0  0  0  0  0  0
   37.1580   34.0930   40.2820 C   0  0  0  0  0  0  0  0  0  0  0  0
   37.8630   34.8560   40.6130 H   0  0  0  0  0  0  0  0  0  0  0  0
   35.8110   34.3880   40.1060 C   0  0  0  0  0  0  0  0  0  0  0  0
   35.4490   35.3910   40.3000 H   0  0  0  0  0  0  0  0  0  0  0  0
   34.9350   33.4080   39.6870 C   0  0  0  0  0  3  0  0  0  0  0  0
   35.4130   32.1360   39.4450 C   0  0  0  0  0  3  0  0  0  0  0  0
   37.4650   29.4110   39.0720 N   0  0  0  0  0  0  0  0  0  0  0  0
   37.1400   30.4930   39.3150 C   0  0  0  0  0  0  0  0  0  0  0  0
  1 10  1  0  0  0  0
  1  2  1  0  0  0  0
  2 14  1  0  0  0  0
  3  2  2  0  0  0  0
  3 11  1  0  0  0  0
  4  3  1  0  0  0  0
  5  4  1  0  0  0  0
  5 12  1  0  0  0  0
  6  5  1  0  0  0  0
  7  6  2  0  0  0  0
  7  8  1  0  0  0  0
  8  9  1  0  0  0  0
  8  4  2  0  0  0  0
  9  1  2  0  0  0  0
 13  6  1  0  0  0  0
 14 15  2  0  0  0  0
 14 16  1  0  0  0  0
 16 24  1  0  0  0  0
 17 16  1  0  0  0  0
 18 19  1  0  0  0  0
 19 20  1  0  0  0  0
 20 21  2  0  0  0  0
 20 30  1  0  0  0  0
 21 25  1  0  0  0  0
 22 26  1  0  0  0  0
 22 21  1  0  0  0  0
 23 22  2  0  0  0  0
 24 23  1  0  0  0  0
 24 19  2  0  0  0  0
 27 23  1  0  0  0  0
 28 34  1  0  0  0  0
 29 35  1  0  0  0  0
 29 28  1  0  0  0  0
 30 29  2  0  0  0  0
 31 30  1  0  0  0  0
 31 32  2  0  0  0  0
 32 33  1  0  0  0  0
 33 28  2  0  0  0  0
 36 32  1  0  0  0  0
 37  9  1  0  0  0  0
 38 39  1  0  0  0  0
 39 37  1  0  0  0  0
 39 40  2  0  0  0  0
 40 41  1  0  0  0  0
 42 40  1  0  0  0  0
 42 43  1  0  0  0  0
 44 42  2  0  0  0  0
 45 38  2  0  0  0  0
 45 44  1  0  0  0  0
 46 47  3  0  0  0  0
 47 38  1  0  0  0  0
M  END
>  <minimizedAffinity>
-7.04080153

>  <minimizedRMSD>
0.896619737

$$$$
