REMARK  Name = 
REMARK  4 active torsions:
REMARK  status: ('A' for Active; 'I' for Inactive)
REMARK    1  A    between atoms: C_1  and  C_7
REMARK    2  A    between atoms: C_5  and  C_10
REMARK    3  A    between atoms: C_10  and  C_23
REMARK    4  A    between atoms: C_21  and  C_22
REMARK                            x       y       z     vdW  Elec       q    Type
REMARK                         _______ _______ _______ _____ _____    ______ ____
ROOT
ATOM      1  C   UNL     1      37.361  31.371  49.209  0.00  0.00    +0.000 A 
ATOM      2  C   UNL     1      37.707  32.663  49.605  0.00  0.00    +0.000 A 
ATOM      3  C   UNL     1      38.585  33.319  48.783  0.00  0.00    +0.000 A 
ATOM      4  N   UNL     1      39.076  32.715  47.644  0.00  0.00    +0.000 NA
ATOM      5  C   UNL     1      38.699  31.438  47.300  0.00  0.00    +0.000 A 
ATOM      6  N   UNL     1      37.831  30.781  48.111  0.00  0.00    +0.000 NA
ATOM      7  H   UNL     1      37.294  33.091  50.507  0.00  0.00    +0.000 HD
ATOM      8  H   UNL     1      38.906  34.326  49.018  0.00  0.00    +0.000 HD
ENDROOT
BRANCH   1   9
ATOM      9  C   UNL     1      36.373  30.604  50.052  0.00  0.00    +0.000 C 
ATOM     10  C   UNL     1      36.281  29.166  50.050  0.00  0.00    +0.000 C 
ATOM     11  C   UNL     1      37.060  29.818  51.175  0.00  0.00    +0.000 C 
ATOM     12  H   UNL     1      35.493  31.216  50.361  0.00  0.00    +0.000 HD
ATOM     13  H   UNL     1      36.977  28.620  49.344  0.00  0.00    +0.000 HD
ATOM     14  H   UNL     1      35.337  28.678  50.308  0.00  0.00    +0.000 HD
ATOM     15  H   UNL     1      38.151  29.783  51.201  0.00  0.00    +0.000 HD
ATOM     16  H   UNL     1      36.575  29.932  52.146  0.00  0.00    +0.000 HD
ENDBRANCH   1   9
BRANCH   5  17
ATOM     17  C   UNL     1      39.194  30.796  46.096  0.00  0.00    +0.000 C 
ATOM     18  H   UNL     1      39.279  29.707  46.252  0.00  0.00    +0.000 HD
ATOM     19  H   UNL     1      40.225  31.192  45.873  0.00  0.00    +0.000 HD
BRANCH  17  21
ATOM     20  C   UNL     1      37.839  32.317  44.641  0.00  0.00    +0.000 A 
ATOM     21  C   UNL     1      38.339  31.060  44.889  0.00  0.00    +0.000 A 
ATOM     22  C   UNL     1      38.048  30.025  43.994  0.00  0.00    +0.000 A 
ATOM     23  H   UNL     1      38.422  29.019  44.154  0.00  0.00    +0.000 HD
ATOM     24  C   UNL     1      37.270  30.291  42.888  0.00  0.00    +0.000 A 
ATOM     25  H   UNL     1      36.997  29.536  42.140  0.00  0.00    +0.000 HD
ATOM     26  C   UNL     1      36.769  31.547  42.637  0.00  0.00    +0.000 A 
ATOM     27  C   UNL     1      37.050  32.576  43.514  0.00  0.00    +0.000 A 
BRANCH  20  29
ATOM     28  N   UNL     1      38.291  34.328  46.230  0.00  0.00    +0.000 NA
ATOM     29  C   UNL     1      38.084  33.440  45.521  0.00  0.00    +0.000 C 
ENDBRANCH  20  29
ENDBRANCH  17  21
ENDBRANCH   5  17
TORSDOF 4
