
 OpenBabel03272503043D

 33 35  0  0  0  0  0  0  0  0999 V2000
   38.4160   29.9880   47.2620 F   0  0  0  0  0  0  0  0  0  0  0  0
   38.7520   31.2830   47.5100 C   0  0  0  0  0  0  0  0  0  0  0  0
   38.3240   31.8890   48.6680 C   0  0  0  0  0  0  0  0  0  0  0  0
   38.6920   33.1860   48.8590 C   0  0  0  0  0  0  0  0  0  0  0  0
   39.4570   33.8940   47.9600 C   0  0  0  0  0  0  0  0  0  0  0  0
   39.8770   33.2680   46.8020 C   0  0  0  0  0  0  0  0  0  0  0  0
   39.5190   31.9460   46.5760 C   0  0  0  0  0  0  0  0  0  0  0  0
   38.3570   33.6820   49.7780 H   0  0  0  0  0  0  0  0  0  0  0  0
   39.7310   34.9290   48.1630 H   0  0  0  0  0  0  0  0  0  0  0  0
   40.4790   33.7730   46.0600 H   0  0  0  0  0  0  0  0  0  0  0  0
   37.2280   29.8490   51.6650 C   0  0  0  0  0  0  0  0  0  0  0  0
   38.0300   30.6090   50.7910 C   0  0  0  0  0  0  0  0  0  0  0  0
   37.5120   31.0930   49.6010 C   0  0  0  0  0  0  0  0  0  0  0  0
   36.2120   30.8050   49.3210 N   0  0  0  0  0  0  0  0  0  0  0  0
   35.4590   30.0780   50.1650 C   0  0  0  0  0  0  0  0  0  0  0  0
   35.9470   29.6060   51.3110 N   0  0  0  0  0  0  0  0  0  0  0  0
   37.8160   29.5690   52.5300 H   0  0  0  0  0  0  0  0  0  0  0  0
   39.0760   30.8760   50.9570 H   0  0  0  0  0  0  0  0  0  0  0  0
   34.4330   29.8160   50.0010 H   0  0  0  0  0  0  0  0  0  0  0  0
   38.8830   31.0970   44.4190 C   0  0  0  0  0  0  0  0  0  0  0  0
   37.7420   31.5800   44.7640 O   0  0  0  0  0  0  0  0  0  0  0  0
   39.9360   31.2630   45.3910 N   0  0  0  0  0  0  0  0  0  0  0  0
   40.8350   30.8650   45.0860 H   0  0  0  0  0  0  0  0  0  0  0  0
   39.1140   31.3210   42.0570 C   0  0  0  0  0  0  0  0  0  0  0  0
   38.9500   30.4570   43.1140 C   0  0  0  0  0  0  0  0  0  0  0  0
   38.8540   29.0900   42.9770 C   0  0  0  0  0  0  0  0  0  0  0  0
   38.7260   28.4470   43.8240 H   0  0  0  0  0  0  0  0  0  0  0  0
   38.9330   28.6450   41.6560 C   0  0  0  0  0  0  0  0  0  0  0  0
   38.8680   27.5670   41.4740 H   0  0  0  0  0  0  0  0  0  0  0  0
   39.0950   29.4790   40.5860 C   0  0  0  0  0  3  0  0  0  0  0  0
   39.1910   30.8610   40.7550 C   0  0  0  0  0  3  0  0  0  0  0  0
   39.3030   33.9070   42.3520 N   0  0  0  0  0  0  0  0  0  0  0  0
   39.2120   32.7650   42.2120 C   0  0  0  0  0  0  0  0  0  0  0  0
  1  2  1  0  0  0  0
  2  3  1  0  0  0  0
  3  4  2  0  0  0  0
  3 13  1  0  0  0  0
  4  8  1  0  0  0  0
  5  9  1  0  0  0  0
  5  4  1  0  0  0  0
  6  5  2  0  0  0  0
  7  6  1  0  0  0  0
  7  2  2  0  0  0  0
 10  6  1  0  0  0  0
 11 17  1  0  0  0  0
 12 18  1  0  0  0  0
 12 11  2  0  0  0  0
 13 12  1  0  0  0  0
 14 13  2  0  0  0  0
 14 15  1  0  0  0  0
 15 16  2  0  0  0  0
 16 11  1  0  0  0  0
 19 15  1  0  0  0  0
 20 21  2  0  0  0  0
 20 22  1  0  0  0  0
 22  7  1  0  0  0  0
 23 22  1  0  0  0  0
 24 33  1  0  0  0  0
 24 25  1  0  0  0  0
 25 20  1  0  0  0  0
 26 25  2  0  0  0  0
 26 27  1  0  0  0  0
 28 26  1  0  0  0  0
 29 28  1  0  0  0  0
 30 31  1  0  0  0  0
 30 28  2  0  0  0  0
 31 24  2  0  0  0  0
 33 32  3  0  0  0  0
M  END
>  <minimizedAffinity>
-5.66064358

>  <minimizedRMSD>
1.11403024

$$$$
