REMARK  Name = 
REMARK  4 active torsions:
REMARK  status: ('A' for Active; 'I' for Inactive)
REMARK    1  A    between atoms: C_1  and  C_7
REMARK    2  A    between atoms: C_6  and  N_15
REMARK    3  A    between atoms: C_13  and  C_33
REMARK    4  A    between atoms: C_31  and  C_32
REMARK                            x       y       z     vdW  Elec       q    Type
REMARK                         _______ _______ _______ _____ _____    ______ ____
ROOT
ATOM      1  C   UNL     1      36.078  30.690  49.066  0.00  0.00    +0.000 C 
ATOM      2  C   UNL     1      37.012  31.645  49.742  0.00  0.00    +0.000 C 
ATOM      3  C   UNL     1      38.040  30.955  50.610  0.00  0.00    +0.000 C 
ATOM      4  C   UNL     1      37.378  30.048  51.643  0.00  0.00    +0.000 C 
ATOM      5  C   UNL     1      36.114  29.382  51.148  0.00  0.00    +0.000 C 
ATOM      6  C   UNL     1      36.193  29.308  49.612  0.00  0.00    +0.000 C 
ATOM      7  H   UNL     1      34.994  30.959  49.164  0.00  0.00    +0.000 HD
ATOM      8  H   UNL     1      36.353  32.197  50.495  0.00  0.00    +0.000 HD
ATOM      9  H   UNL     1      37.464  32.412  49.142  0.00  0.00    +0.000 HD
ATOM     10  H   UNL     1      38.520  31.775  51.220  0.00  0.00    +0.000 HD
ATOM     11  H   UNL     1      38.832  30.442  50.073  0.00  0.00    +0.000 HD
ATOM     12  H   UNL     1      37.143  30.584  52.571  0.00  0.00    +0.000 HD
ATOM     13  H   UNL     1      38.121  29.222  51.835  0.00  0.00    +0.000 HD
ATOM     14  H   UNL     1      35.236  29.991  51.388  0.00  0.00    +0.000 HD
ATOM     15  H   UNL     1      36.016  28.360  51.564  0.00  0.00    +0.000 HD
ATOM     16  H   UNL     1      37.169  28.911  49.491  0.00  0.00    +0.000 HD
ENDROOT
BRANCH   1  17
ATOM     17  C   UNL     1      36.323  30.647  47.599  0.00  0.00    +0.000 A 
ATOM     18  C   UNL     1      37.572  31.115  47.180  0.00  0.00    +0.000 A 
ATOM     19  C   UNL     1      37.827  31.084  45.804  0.00  0.00    +0.000 A 
ATOM     20  N   UNL     1      36.853  30.603  44.957  0.00  0.00    +0.000 NA
ATOM     21  C   UNL     1      35.643  30.155  45.425  0.00  0.00    +0.000 A 
ATOM     22  N   UNL     1      35.401  30.187  46.746  0.00  0.00    +0.000 NA
ATOM     23  H   UNL     1      38.420  31.503  47.709  0.00  0.00    +0.000 HD
ATOM     24  H   UNL     1      38.730  31.406  45.328  0.00  0.00    +0.000 HD
ATOM     25  H   UNL     1      34.935  29.794  44.705  0.00  0.00    +0.000 HD
ENDBRANCH   1  17
BRANCH   6  28
ATOM     26  C   UNL     1      33.935  28.203  49.244  0.00  0.00    +0.000 C 
ATOM     27  O   UNL     1      33.111  28.861  49.935  0.00  0.00    +0.000 OA
ATOM     28  N   UNL     1      35.328  28.354  49.017  0.00  0.00    +0.000 N 
ATOM     29  H   UNL     1      35.649  27.623  48.306  0.00  0.00    +0.000 HD
BRANCH  26  31
ATOM     30  C   UNL     1      31.905  27.503  48.038  0.00  0.00    +0.000 A 
ATOM     31  C   UNL     1      33.107  27.128  48.646  0.00  0.00    +0.000 A 
ATOM     32  C   UNL     1      33.462  25.783  48.665  0.00  0.00    +0.000 A 
ATOM     33  H   UNL     1      34.385  25.544  49.138  0.00  0.00    +0.000 HD
ATOM     34  C   UNL     1      32.606  24.856  48.076  0.00  0.00    +0.000 A 
ATOM     35  H   UNL     1      32.899  23.799  48.099  0.00  0.00    +0.000 HD
ATOM     36  C   UNL     1      31.422  25.243  47.479  0.00  0.00    +0.000 A 
ATOM     37  C   UNL     1      31.041  26.583  47.445  0.00  0.00    +0.000 A 
BRANCH  30  39
ATOM     38  N   UNL     1      31.168  30.000  47.969  0.00  0.00    +0.000 NA
ATOM     39  C   UNL     1      31.497  28.883  47.995  0.00  0.00    +0.000 C 
ENDBRANCH  30  39
ENDBRANCH  26  31
ENDBRANCH   6  28
TORSDOF 4
