
     RDKit          3D

 26 27  0  0  0  0  0  0  0  0999 V2000
   36.7819   29.6774   51.1394 C   0  0  0  0  0  0  0  0  0  0  0  0
   37.2887   30.0632   49.8906 C   0  0  0  0  0  0  0  0  0  0  0  0
   36.5472   29.8604   48.7448 C   0  0  0  0  0  0  0  0  0  0  0  0
   35.3201   29.2766   48.8881 N   0  0  0  0  0  0  0  0  0  0  0  0
   34.8390   28.9068   50.1030 C   0  0  0  0  0  0  0  0  0  0  0  0
   35.5703   29.1120   51.1908 N   0  0  0  0  0  0  0  0  0  0  0  0
   38.6361   32.0591   49.4929 C   0  0  0  0  0  0  0  0  0  0  0  0
   37.8055   33.0359   49.4570 O   0  0  0  0  0  0  0  0  0  0  0  0
   38.5447   30.6679   49.6852 N   0  0  0  0  0  0  0  0  0  0  0  0
   37.6605   29.9597   52.1522 O   0  0  0  0  0  0  0  0  0  0  0  0
   36.9045   30.1459   47.7533 H   0  0  0  0  0  0  0  0  0  0  0  0
   33.8603   28.4478   50.1630 H   0  0  0  0  0  0  0  0  0  0  0  0
   39.5384   32.6420   49.3165 H   0  0  0  0  0  0  0  0  0  0  0  0
   39.4709   30.1780   49.6570 H   0  0  0  0  0  0  0  0  0  0  0  0
   40.6653   28.5172   53.4588 N   0  0  0  0  0  0  0  0  0  0  0  0
   39.6135   28.7838   53.8623 C   0  0  0  0  0  0  0  0  0  0  0  0
   38.3231   29.1262   54.3785 C   0  0  0  0  0  0  0  0  0  0  0  0
   37.4320   29.6918   53.4883 C   0  0  0  0  0  0  0  0  0  0  0  0
   36.1592   30.0566   53.8952 C   0  0  0  0  0  0  0  0  0  0  0  0
   35.3988   30.5101   53.2462 H   0  0  0  0  0  0  0  0  0  0  0  0
   35.7811   29.8474   55.2190 C   0  0  0  0  0  0  0  0  0  0  0  0
   34.7887   30.1263   55.5572 H   0  0  0  0  0  0  0  0  0  0  0  0
   36.6829   29.2770   56.1124 C   0  0  0  0  0  0  0  0  0  0  0  0
   37.9481   28.9233   55.6743 C   0  0  0  0  0  0  0  0  0  0  0  0
   36.4275   29.1025   57.1327 H   0  0  0  0  0  0  0  0  0  0  0  0
   38.6379   28.4825   56.3748 H   0  0  0  0  0  0  0  0  0  0  0  0
  1  6  1  0
  1 10  1  0
  2  1  2  0
  3  4  2  0
  3  2  1  0
  4  5  1  0
  5  6  2  0
  7  9  1  0
  8  7  2  0
  9  2  1  0
  3 11  1  0
  5 12  1  0
  7 13  1  0
  9 14  1  0
 15 16  3  0
 16 17  1  0
 17 18  2  0
 18 19  1  0
 19 20  1  0
 19 21  2  0
 21 22  1  0
 21 23  1  0
 23 24  2  0
 24 17  1  0
 23 25  1  0
 24 26  1  0
 10 18  1  0
M  ISO  5  11  14  12  14  13   6  20  15  22  16
M  END
>  <DihAtoms>  (1) 
0,9,17,16

>  <DihDeg>  (1) 
-59.99950519072166

$$$$
