
 OpenBabel03272510303D

 29 31  0  0  0  0  0  0  0  0999 V2000
   37.4680   31.1410   48.8450 C   0  0  0  0  0  0  0  0  0  0  0  0
   37.9360   32.3750   49.2980 C   0  0  0  0  0  0  0  0  0  0  0  0
   38.8520   32.9940   48.4900 C   0  0  0  0  0  0  0  0  0  0  0  0
   39.2660   32.4110   47.3100 N   0  0  0  0  0  0  0  0  0  0  0  0
   38.7700   31.1920   46.9110 C   0  0  0  0  0  0  0  0  0  0  0  0
   37.8630   30.5710   47.7080 N   0  0  0  0  0  0  0  0  0  0  0  0
   37.5800   32.7890   50.2310 H   0  0  0  0  0  0  0  0  0  0  0  0
   39.2660   33.9550   48.7680 H   0  0  0  0  0  0  0  0  0  0  0  0
   36.4330   30.4210   49.6720 C   0  0  0  0  0  0  0  0  0  0  0  0
   36.1920   29.0030   49.5760 C   0  0  0  0  0  0  0  0  0  0  0  0
   37.0690   29.4920   50.7120 C   0  0  0  0  0  0  0  0  0  0  0  0
   35.6310   31.0950   50.0540 H   0  0  0  0  0  0  0  0  0  0  0  0
   36.8060   28.4410   48.8090 H   0  0  0  0  0  0  0  0  0  0  0  0
   35.2110   28.5960   49.8360 H   0  0  0  0  0  0  0  0  0  0  0  0
   38.1510   29.3450   50.6950 H   0  0  0  0  0  0  0  0  0  0  0  0
   36.6280   29.5850   51.7070 H   0  0  0  0  0  0  0  0  0  0  0  0
   39.1820   30.5730   45.6640 C   0  0  0  0  0  0  0  0  0  0  0  0
   39.1890   29.4750   45.7670 H   0  0  0  0  0  0  0  0  0  0  0  0
   40.2340   30.9020   45.4280 H   0  0  0  0  0  0  0  0  0  0  0  0
   38.1190   30.0870   43.4500 C   0  0  0  0  0  0  0  0  0  0  0  0
   38.3170   30.9570   44.4970 C   0  0  0  0  0  0  0  0  0  0  0  0
   37.6910   32.2070   44.4670 C   0  0  0  0  0  0  0  0  0  0  0  0
   37.8210   32.9220   45.2730 H   0  0  0  0  0  0  0  0  0  0  0  0
   36.8930   32.5350   43.3920 C   0  0  0  0  0  0  0  0  0  0  0  0
   36.3680   33.4940   43.2950 H   0  0  0  0  0  0  0  0  0  0  0  0
   36.6930   31.6670   42.3450 C   0  0  0  0  0  3  0  0  0  0  0  0
   37.3070   30.4300   42.3640 C   0  0  0  0  0  3  0  0  0  0  0  0
   39.2330   27.7350   43.3720 N   0  0  0  0  0  0  0  0  0  0  0  0
   38.7370   28.7790   43.3980 C   0  0  0  0  0  0  0  0  0  0  0  0
  1  2  1  0  0  0  0
  1  9  1  0  0  0  0
  2  7  1  0  0  0  0
  3  8  1  0  0  0  0
  3  2  2  0  0  0  0
  4  3  1  0  0  0  0
  5  4  2  0  0  0  0
  5  6  1  0  0  0  0
  6  1  2  0  0  0  0
  9 12  1  0  0  0  0
  9 11  1  0  0  0  0
 10  9  1  0  0  0  0
 10 14  1  0  0  0  0
 10 11  1  0  0  0  0
 11 16  1  0  0  0  0
 13 10  1  0  0  0  0
 15 11  1  0  0  0  0
 17 18  1  0  0  0  0
 17  5  1  0  0  0  0
 19 17  1  0  0  0  0
 20 21  1  0  0  0  0
 21 17  1  0  0  0  0
 22 21  2  0  0  0  0
 22 23  1  0  0  0  0
 24 22  1  0  0  0  0
 25 24  1  0  0  0  0
 26 27  1  0  0  0  0
 26 24  2  0  0  0  0
 27 20  2  0  0  0  0
 28 29  3  0  0  0  0
 29 20  1  0  0  0  0
M  END
>  <minimizedAffinity>
-5.13838959

>  <minimizedRMSD>
0.473167986

$$$$
