
 OpenBabel03272509303D

 39 41  0  0  1  0  0  0  0  0999 V2000
   36.5260   30.8330   48.8550 C   0  0  2  0  0  0  0  0  0  0  0  0
   37.4060   31.5620   49.8220 C   0  0  0  0  0  0  0  0  0  0  0  0
   38.0580   30.6480   50.8360 C   0  0  0  0  0  0  0  0  0  0  0  0
   37.0190   29.8230   51.5900 C   0  0  0  0  0  0  0  0  0  0  0  0
   35.8270   29.4280   50.7480 C   0  0  0  0  0  0  0  0  0  0  0  0
   36.2730   29.4250   49.2740 C   0  0  1  0  0  0  0  0  0  0  0  0
   35.5110   31.2900   48.7210 H   0  0  0  0  0  0  0  0  0  0  0  0
   36.6800   32.1830   50.4490 H   0  0  0  0  0  0  0  0  0  0  0  0
   38.1130   32.2650   49.4240 H   0  0  0  0  0  0  0  0  0  0  0  0
   38.4990   31.3320   51.6190 H   0  0  0  0  0  0  0  0  0  0  0  0
   38.8630   30.0290   50.4530 H   0  0  0  0  0  0  0  0  0  0  0  0
   36.6520   30.3410   52.4840 H   0  0  0  0  0  0  0  0  0  0  0  0
   37.5450   28.8650   51.8690 H   0  0  0  0  0  0  0  0  0  0  0  0
   35.0290   30.1740   50.8330 H   0  0  0  0  0  0  0  0  0  0  0  0
   35.4620   28.4200   51.0270 H   0  0  0  0  0  0  0  0  0  0  0  0
   37.1690   28.8640   49.3480 H   0  0  0  0  0  0  0  0  0  0  0  0
   37.1180   30.8270   47.4900 C   0  0  0  0  0  0  0  0  0  0  0  0
   38.4910   31.0840   47.4250 C   0  0  0  0  0  0  0  0  0  0  0  0
   39.0720   31.0820   46.1510 C   0  0  0  0  0  0  0  0  0  0  0  0
   38.2750   30.8320   45.0560 N   0  0  0  0  0  0  0  0  0  0  0  0
   36.9300   30.5850   45.1800 C   0  0  0  0  0  0  0  0  0  0  0  0
   36.3760   30.5880   46.4030 N   0  0  0  0  0  0  0  0  0  0  0  0
   39.2320   31.2830   48.1730 H   0  0  0  0  0  0  0  0  0  0  0  0
   40.1050   31.2620   45.9350 H   0  0  0  0  0  0  0  0  0  0  0  0
   36.3750   30.3970   44.2820 H   0  0  0  0  0  0  0  0  0  0  0  0
   34.0790   28.3290   48.6100 C   0  0  0  0  0  0  0  0  0  0  0  0
   33.2610   28.6090   49.5280 O   0  0  0  0  0  0  0  0  0  0  0  0
   35.4380   28.6800   48.4020 N   0  0  0  0  0  0  0  0  0  0  0  0
   35.7600   28.2940   47.4580 H   0  0  0  0  0  0  0  0  0  0  0  0
   32.6470   28.1070   46.6190 C   0  0  0  0  0  0  0  0  0  0  0  0
   33.2900   27.4760   47.6890 C   0  0  0  0  0  0  0  0  0  0  0  0
   33.1580   26.0990   47.8370 C   0  0  0  0  0  0  0  0  0  0  0  0
   33.6660   25.6620   48.6650 H   0  0  0  0  0  0  0  0  0  0  0  0
   32.3890   25.3960   46.9140 C   0  0  0  0  0  0  0  0  0  0  0  0
   32.2940   24.3120   47.0450 H   0  0  0  0  0  0  0  0  0  0  0  0
   31.7600   26.0350   45.8630 C   0  0  0  0  0  3  0  0  0  0  0  0
   31.8730   27.4130   45.6890 C   0  0  0  0  0  3  0  0  0  0  0  0
   32.8400   30.6810   46.2790 N   0  0  0  0  0  0  0  0  0  0  0  0
   32.7550   29.5300   46.4260 C   0  0  0  0  0  0  0  0  0  0  0  0
  1  7  1  6  0  0  0
  1  6  1  0  0  0  0
  1  2  1  0  0  0  0
  2  8  1  0  0  0  0
  2  3  1  0  0  0  0
  3  4  1  0  0  0  0
  3 10  1  0  0  0  0
  4 13  1  0  0  0  0
  4 12  1  0  0  0  0
  5 14  1  0  0  0  0
  5 15  1  0  0  0  0
  5  4  1  0  0  0  0
  6 16  1  6  0  0  0
  6  5  1  0  0  0  0
  9  2  1  0  0  0  0
 11  3  1  0  0  0  0
 17  1  1  0  0  0  0
 18 17  1  0  0  0  0
 18 23  1  0  0  0  0
 19 18  2  0  0  0  0
 20 21  2  0  0  0  0
 20 19  1  0  0  0  0
 21 22  1  0  0  0  0
 22 17  2  0  0  0  0
 24 19  1  0  0  0  0
 25 21  1  0  0  0  0
 26 27  2  0  0  0  0
 28 26  1  0  0  0  0
 28  6  1  0  0  0  0
 29 28  1  0  0  0  0
 30 31  1  0  0  0  0
 31 32  2  0  0  0  0
 31 26  1  0  0  0  0
 32 33  1  0  0  0  0
 34 35  1  0  0  0  0
 34 32  1  0  0  0  0
 36 34  2  0  0  0  0
 37 36  1  0  0  0  0
 37 30  2  0  0  0  0
 38 39  3  0  0  0  0
 39 30  1  0  0  0  0
M  END
>  <minimizedAffinity>
-5.88217449

>  <minimizedRMSD>
1.9485395

$$$$
