REMARK  Name = 
REMARK  4 active torsions:
REMARK  status: ('A' for Active; 'I' for Inactive)
REMARK    1  A    between atoms: C_1  and  C_8
REMARK    2  A    between atoms: C_3  and  N_12
REMARK    3  A    between atoms: C_10  and  C_24
REMARK    4  A    between atoms: C_22  and  C_23
REMARK                            x       y       z     vdW  Elec       q    Type
REMARK                         _______ _______ _______ _____ _____    ______ ____
ROOT
ATOM      1  C   UNL     1      38.349  30.595  47.087  0.00  0.00    +0.000 C 
ATOM      2  C   UNL     1      36.956  30.561  47.523  0.00  0.00    +0.000 C 
ATOM      3  C   UNL     1      38.060  31.139  48.416  0.00  0.00    +0.000 C 
ATOM      4  H   UNL     1      38.985  29.655  47.124  0.00  0.00    +0.000 HD
ATOM      5  H   UNL     1      36.188  31.233  47.113  0.00  0.00    +0.000 HD
ATOM      6  H   UNL     1      36.533  29.603  47.890  0.00  0.00    +0.000 HD
ATOM      7  H   UNL     1      37.779  32.168  48.694  0.00  0.00    +0.000 HD
ENDROOT
BRANCH   1  12
ATOM      8  C   UNL     1      40.610  32.691  45.032  0.00  0.00    +0.000 A 
ATOM      9  C   UNL     1      39.733  33.180  44.031  0.00  0.00    +0.000 A 
ATOM     10  C   UNL     1      38.357  32.764  44.094  0.00  0.00    +0.000 A 
ATOM     11  N   UNL     1      37.988  31.937  45.102  0.00  0.00    +0.000 NA
ATOM     12  C   UNL     1      38.862  31.505  46.022  0.00  0.00    +0.000 A 
ATOM     13  N   UNL     1      40.176  31.861  46.016  0.00  0.00    +0.000 NA
ATOM     14  H   UNL     1      41.626  33.049  44.929  0.00  0.00    +0.000 HD
ATOM     15  H   UNL     1      40.077  33.839  43.251  0.00  0.00    +0.000 HD
ATOM     16  H   UNL     1      37.678  33.122  43.338  0.00  0.00    +0.000 HD
ENDBRANCH   1  12
BRANCH   3  19
ATOM     17  C   UNL     1      37.740  30.520  50.793  0.00  0.00    +0.000 C 
ATOM     18  O   UNL     1      36.743  31.327  50.810  0.00  0.00    +0.000 OA
ATOM     19  N   UNL     1      38.400  30.291  49.566  0.00  0.00    +0.000 N 
ATOM     20  H   UNL     1      39.144  29.574  49.291  0.00  0.00    +0.000 HD
BRANCH  17  22
ATOM     21  C   UNL     1      38.789  28.333  51.398  0.00  0.00    +0.000 A 
ATOM     22  C   UNL     1      38.517  29.647  51.719  0.00  0.00    +0.000 A 
ATOM     23  C   UNL     1      38.870  30.274  52.901  0.00  0.00    +0.000 A 
ATOM     24  H   UNL     1      38.648  31.302  53.136  0.00  0.00    +0.000 HD
ATOM     25  C   UNL     1      39.554  29.525  53.842  0.00  0.00    +0.000 A 
ATOM     26  H   UNL     1      39.886  29.910  54.818  0.00  0.00    +0.000 HD
ATOM     27  C   UNL     1      39.825  28.214  53.519  0.00  0.00    +0.000 A 
ATOM     28  C   UNL     1      39.478  27.585  52.348  0.00  0.00    +0.000 A 
BRANCH  21  30
ATOM     29  N   UNL     1      38.009  27.468  49.096  0.00  0.00    +0.000 NA
ATOM     30  C   UNL     1      38.350  27.856  50.129  0.00  0.00    +0.000 C 
ENDBRANCH  21  30
ENDBRANCH  17  22
ENDBRANCH   3  19
TORSDOF 4
