
     RDKit          3D

 26 27  0  0  0  0  0  0  0  0999 V2000
   35.6219   29.0107   50.1712 C   0  0  0  0  0  0  0  0  0  0  0  0
   36.2915   30.1568   49.6362 C   0  0  0  0  0  0  0  0  0  0  0  0
   36.0449   30.5291   48.3242 C   0  0  0  0  0  0  0  0  0  0  0  0
   35.1558   29.7520   47.6146 N   0  0  0  0  0  0  0  0  0  0  0  0
   34.5410   28.6738   48.1473 C   0  0  0  0  0  0  0  0  0  0  0  0
   34.7621   28.2959   49.4156 N   0  0  0  0  0  0  0  0  0  0  0  0
   33.7113   28.0033   47.2359 N   0  0  0  0  0  0  0  0  0  0  0  0
   37.2234   30.9037   50.5342 C   0  0  0  0  0  0  0  0  0  0  0  0
   38.5243   30.7777   50.1020 F   0  0  0  0  0  0  0  0  0  0  0  0
   36.8656   32.2272   50.5180 F   0  0  0  0  0  0  0  0  0  0  0  0
   37.1712   30.4628   51.8449 F   0  0  0  0  0  0  0  0  0  0  0  0
   35.8199   28.7208   51.2073 H   0  0  0  0  0  0  0  0  0  0  0  0
   33.1175   28.4069   46.5157 H   0  0  0  0  0  0  0  0  0  0  0  0
   33.6504   26.9493   47.2524 H   0  0  0  0  0  0  0  0  0  0  0  0
   36.5836   29.6173   44.9443 N   0  0  0  0  0  0  0  0  0  0  0  0
   36.7976   30.5598   45.5880 C   0  0  0  0  0  0  0  0  0  0  0  0
   37.0470   31.7361   46.3789 C   0  0  0  0  0  0  0  0  0  0  0  0
   36.6398   31.7056   47.7169 C   0  0  0  0  0  0  0  0  0  0  0  0
   36.9015   32.8568   48.4232 C   0  0  0  0  0  0  0  0  0  0  0  0
   36.6926   33.0094   49.4672 H   0  0  0  0  0  0  0  0  0  0  0  0
   37.5144   33.9757   47.8866 C   0  0  0  0  0  0  0  0  0  0  0  0
   37.7370   34.8916   48.3999 H   0  0  0  0  0  0  0  0  0  0  0  0
   37.8945   33.9409   46.5446 C   0  0  0  0  0  0  0  0  0  0  0  0
   37.6637   32.8113   45.7678 C   0  0  0  0  0  0  0  0  0  0  0  0
   38.3765   34.7947   46.0710 H   0  0  0  0  0  0  0  0  0  0  0  0
   37.9634   32.8017   44.7314 H   0  0  0  0  0  0  0  0  0  0  0  0
  2  1  2  0
  2  8  1  0
  3  2  1  0
  4  5  1  0
  4  3  2  0
  5  6  2  0
  6  1  1  0
  7  5  1  0
  8 11  1  0
  9  8  1  0
 10  8  1  0
  1 12  1  0
  7 13  1  0
  7 14  1  0
 15 16  3  0
 16 17  1  0
 17 18  2  0
 18 19  1  0
 19 20  1  0
 19 21  2  0
 21 22  1  0
 21 23  1  0
 23 24  2  0
 24 17  1  0
 23 25  1  0
 24 26  1  0
  3 18  1  0
M  ISO  3  12  14  20  15  22  16
M  END
>  <DihAtoms>  (1) 
1,2,17,16

>  <DihDeg>  (1) 
-111.6804069753115

$$$$
