
     RDKit          3D

 44 47  0  0  0  0  0  0  0  0999 V2000
   39.4798   32.6840   46.2085 C   0  0  0  0  0  0  0  0  0  0  0  0
   40.4282   31.8305   45.6550 C   0  0  0  0  0  0  0  0  0  0  0  0
   40.0274   30.5629   45.2665 C   0  0  0  0  0  0  0  0  0  0  0  0
   38.7316   30.2015   45.4401 N   0  0  0  0  0  0  0  0  0  0  0  0
   37.8355   30.9962   45.9594 C   0  0  0  0  0  0  0  0  0  0  0  0
   38.2718   32.1776   46.3050 N   0  0  0  0  0  0  0  0  0  0  0  0
   36.4987   30.5783   46.1172 N   0  0  0  0  0  0  0  0  0  0  0  0
   35.6790   30.1298   44.9864 C   0  0  0  0  0  0  0  0  0  0  0  0
   34.4033   29.7112   45.5889 C   0  0  0  0  0  0  0  0  0  0  0  0
   34.7260   29.5214   47.0727 C   0  0  0  0  0  0  0  0  0  0  0  0
   35.6985   30.5623   47.3509 C   0  0  1  0  0  0  0  0  0  0  0  0
   36.2978   29.4885   49.5572 C   0  0  0  0  0  0  0  0  0  0  0  0
   36.4064   30.5055   48.5963 C   0  0  0  0  0  0  0  0  0  0  0  0
   37.3827   31.4272   48.9457 C   0  0  0  0  0  0  0  0  0  0  0  0
   38.1698   31.3778   50.0783 C   0  0  0  0  0  0  0  0  0  0  0  0
   37.9805   30.3122   50.9760 C   0  0  0  0  0  0  0  0  0  0  0  0
   37.0275   29.3358   50.7295 C   0  0  0  0  0  0  0  0  0  0  0  0
   34.4398   27.7330   49.2513 N   0  0  0  0  0  0  0  0  0  0  0  0
   35.2516   28.5061   49.3752 C   0  0  0  0  0  0  0  0  0  0  0  0
   39.7079   33.6752   46.5322 H   0  0  0  0  0  0  0  0  0  0  0  0
   41.4570   32.1592   45.5341 H   0  0  0  0  0  0  0  0  0  0  0  0
   40.7837   29.9077   44.8339 H   0  0  0  0  0  0  0  0  0  0  0  0
   35.5319   31.0080   44.3276 H   0  0  0  0  0  0  0  0  0  0  0  0
   36.1929   29.3387   44.4065 H   0  0  0  0  0  0  0  0  0  0  0  0
   33.9778   28.8161   45.1137 H   0  0  0  0  0  0  0  0  0  0  0  0
   33.6279   30.5122   45.4286 H   0  0  0  0  0  0  0  0  0  0  0  0
   33.7416   29.5946   47.4746 H   0  0  0  0  0  0  0  0  0  0  0  0
   35.2550   28.5662   46.9311 H   0  0  0  0  0  0  0  0  0  0  0  0
   35.2888   31.6163   47.2629 H   0  0  0  0  0  0  0  0  0  0  0  0
   37.6349   32.3419   48.4713 H   0  0  0  0  0  0  0  0  0  0  0  0
   38.9421   32.0475   50.4082 H   0  0  0  0  0  0  0  0  0  0  0  0
   38.5502   30.1819   51.8983 H   0  0  0  0  0  0  0  0  0  0  0  0
   33.5419   29.3234   50.8871 N   0  0  0  0  0  0  0  0  0  0  0  0
   34.4057   28.7095   51.3518 C   0  0  0  0  0  0  0  0  0  0  0  0
   35.4959   27.9584   51.9469 C   0  0  0  0  0  0  0  0  0  0  0  0
   36.8358   28.2411   51.6604 C   0  0  0  0  0  0  0  0  0  0  0  0
   37.8371   27.5036   52.2472 C   0  0  0  0  0  0  0  0  0  0  0  0
   38.8619   27.7655   51.9894 H   0  0  0  0  0  0  0  0  0  0  0  0
   37.5225   26.4810   53.1217 C   0  0  0  0  0  0  0  0  0  0  0  0
   38.3223   25.9104   53.5747 H   0  0  0  0  0  0  0  0  0  0  0  0
   36.1881   26.2376   53.3748 C   0  0  0  0  0  0  0  0  0  0  0  0
   35.1526   26.9510   52.8096 C   0  0  0  0  0  0  0  0  0  0  0  0
   35.9539   25.4392   54.0572 H   0  0  0  0  0  0  0  0  0  0  0  0
   34.1097   26.7443   53.0213 H   0  0  0  0  0  0  0  0  0  0  0  0
  1  6  2  0
  2  1  1  0
  3  4  1  0
  3  2  2  0
  4  5  2  0
  5  7  1  0
  5  6  1  0
  7 11  1  0
  8  9  1  0
  8  7  1  0
  9 10  1  0
 10 11  1  0
 11 13  1  0
 12 17  2  0
 13 14  2  0
 13 12  1  0
 14 15  1  0
 15 16  2  0
 17 16  1  0
 18 19  3  0
 19 12  1  0
  1 20  1  0
  2 21  1  0
  3 22  1  0
  8 23  1  0
  8 24  1  0
  9 25  1  0
  9 26  1  0
 10 27  1  0
 10 28  1  0
 11 29  1  1
 14 30  1  0
 15 31  1  0
 16 32  1  0
 33 34  3  0
 34 35  1  0
 35 36  2  0
 36 37  1  0
 37 38  1  0
 37 39  2  0
 39 40  1  0
 39 41  1  0
 41 42  2  0
 42 35  1  0
 41 43  1  0
 42 44  1  0
 17 36  1  0
M  ISO  8  20  14  21  14  22  14  23  13  24  13  25  13  26  13  27  13
M  ISO  7  28  13  29  13  30  14  31  14  32  14  38  15  40  16
M  END
>  <DihAtoms>  (1) 
11,16,35,34

>  <DihDeg>  (1) 
-90.00112566350995

$$$$
