
 OpenBabel03272503123D

 47 51  0  0  0  0  0  0  0  0999 V2000
   38.5770   31.4710   42.4970 C   0  0  0  0  0  0  0  0  0  0  0  0
   39.4610   31.1760   43.5080 C   0  0  0  0  0  0  0  0  0  0  0  0
   40.6180   30.4560   43.3010 C   0  0  0  0  0  0  0  0  0  0  0  0
   40.9150   30.0020   42.0100 C   0  0  0  0  0  0  0  0  0  0  0  0
   41.9310   29.3020   41.5140 N   0  0  0  0  0  0  0  0  0  0  0  0
   41.7150   29.1450   40.2160 C   0  0  0  0  0  0  0  0  0  0  0  0
   40.5540   29.7490   39.8850 N   0  0  0  0  0  0  0  0  0  0  0  0
   40.0170   30.3060   40.9980 C   0  0  0  0  0  0  0  0  0  0  0  0
   38.8560   31.0250   41.1980 C   0  0  0  0  0  0  0  0  0  0  0  0
   37.6830   32.0590   42.7390 H   0  0  0  0  0  0  0  0  0  0  0  0
   41.3020   30.2310   44.1030 H   0  0  0  0  0  0  0  0  0  0  0  0
   42.7550   28.9380   42.0530 H   0  0  0  0  0  0  0  0  0  0  0  0
   42.3820   28.6080   39.5420 H   0  0  0  0  0  0  0  0  0  0  0  0
   39.1390   31.6500   44.8360 C   0  0  0  0  0  0  0  0  0  0  0  0
   37.9940   32.2020   45.0180 O   0  0  0  0  0  0  0  0  0  0  0  0
   39.9650   31.5670   45.9740 N   0  0  0  0  0  0  0  0  0  0  0  0
   40.8940   31.1260   45.8590 H   0  0  0  0  0  0  0  0  0  0  0  0
   38.2280   30.1200   47.4950 F   0  0  0  0  0  0  0  0  0  0  0  0
   38.4920   31.3790   47.9180 C   0  0  0  0  0  0  0  0  0  0  0  0
   37.9040   31.8650   49.0470 C   0  0  0  0  0  0  0  0  0  0  0  0
   38.2190   33.1530   49.4120 C   0  0  0  0  0  0  0  0  0  0  0  0
   39.0850   33.9340   48.6930 C   0  0  0  0  0  0  0  0  0  0  0  0
   39.6780   33.4200   47.5400 C   0  0  0  0  0  0  0  0  0  0  0  0
   39.3710   32.1260   47.1570 C   0  0  0  0  0  0  0  0  0  0  0  0
   37.7550   33.5450   50.3090 H   0  0  0  0  0  0  0  0  0  0  0  0
   39.2780   34.9370   49.0510 H   0  0  0  0  0  0  0  0  0  0  0  0
   40.3620   34.0310   46.9670 H   0  0  0  0  0  0  0  0  0  0  0  0
   36.4490   29.4720   51.6050 C   0  0  0  0  0  0  0  0  0  0  0  0
   37.3660   30.3140   50.9240 C   0  0  0  0  0  0  0  0  0  0  0  0
   36.9870   30.9870   49.7780 C   0  0  0  0  0  0  0  0  0  0  0  0
   35.7010   30.8050   49.3380 N   0  0  0  0  0  0  0  0  0  0  0  0
   34.8380   30.0060   49.9890 C   0  0  0  0  0  0  0  0  0  0  0  0
   35.2010   29.3560   51.0930 N   0  0  0  0  0  0  0  0  0  0  0  0
   36.7990   28.9680   52.4980 H   0  0  0  0  0  0  0  0  0  0  0  0
   38.3860   30.4550   51.2760 H   0  0  0  0  0  0  0  0  0  0  0  0
   33.8410   29.9290   49.5590 H   0  0  0  0  0  0  0  0  0  0  0  0
   37.9770   31.3120   40.1870 O   0  0  0  0  0  0  0  0  0  0  0  0
   37.1790   33.4940   39.5750 C   0  0  0  0  0  0  0  0  0  0  0  0
   36.9870   32.2660   40.2180 C   0  0  0  0  0  0  0  0  0  0  0  0
   35.7630   32.1120   40.8600 C   0  0  0  0  0  0  0  0  0  0  0  0
   35.5950   31.1630   41.3670 H   0  0  0  0  0  0  0  0  0  0  0  0
   34.7940   33.1100   40.8650 C   0  0  0  0  0  0  0  0  0  0  0  0
   33.8530   32.9460   41.3780 H   0  0  0  0  0  0  0  0  0  0  0  0
   35.0260   34.3050   40.2160 C   0  0  0  0  0  3  0  0  0  0  0  0
   36.2280   34.4980   39.5670 C   0  0  0  0  0  3  0  0  0  0  0  0
   39.3990   34.0710   38.3260 N   0  0  0  0  0  0  0  0  0  0  0  0
   38.4130   33.8260   38.8770 C   0  0  0  0  0  0  0  0  0  0  0  0
  1 10  1  0  0  0  0
  1  2  1  0  0  0  0
  2 14  1  0  0  0  0
  3  2  2  0  0  0  0
  3 11  1  0  0  0  0
  4  3  1  0  0  0  0
  5  4  1  0  0  0  0
  5 12  1  0  0  0  0
  6  5  1  0  0  0  0
  7  6  2  0  0  0  0
  7  8  1  0  0  0  0
  8  9  1  0  0  0  0
  8  4  2  0  0  0  0
  9  1  2  0  0  0  0
 13  6  1  0  0  0  0
 14 15  2  0  0  0  0
 14 16  1  0  0  0  0
 16 24  1  0  0  0  0
 17 16  1  0  0  0  0
 18 19  1  0  0  0  0
 19 20  1  0  0  0  0
 20 21  2  0  0  0  0
 20 30  1  0  0  0  0
 21 25  1  0  0  0  0
 22 26  1  0  0  0  0
 22 21  1  0  0  0  0
 23 22  2  0  0  0  0
 24 23  1  0  0  0  0
 24 19  2  0  0  0  0
 27 23  1  0  0  0  0
 28 34  1  0  0  0  0
 29 35  1  0  0  0  0
 29 28  2  0  0  0  0
 30 29  1  0  0  0  0
 31 30  2  0  0  0  0
 31 32  1  0  0  0  0
 32 33  2  0  0  0  0
 33 28  1  0  0  0  0
 36 32  1  0  0  0  0
 37 39  1  0  0  0  0
 37  9  1  0  0  0  0
 38 39  1  0  0  0  0
 39 40  2  0  0  0  0
 40 42  1  0  0  0  0
 40 41  1  0  0  0  0
 42 43  1  0  0  0  0
 44 42  2  0  0  0  0
 45 38  2  0  0  0  0
 45 44  1  0  0  0  0
 46 47  3  0  0  0  0
 47 38  1  0  0  0  0
M  END
>  <minimizedAffinity>
-6.8847909

>  <minimizedRMSD>
1.07297444

$$$$
