
 OpenBabel03272508523D

 30 32  0  0  1  0  0  0  0  0999 V2000
   36.1350   23.0770   31.4280 C   0  0  2  0  0  0  0  0  0  0  0  0
   37.3180   23.5370   30.7070 C   0  0  0  0  0  0  0  0  0  0  0  0
   37.0740   23.9200   32.1720 C   0  0  1  0  0  0  0  0  0  0  0  0
   35.1300   23.5790   31.2610 H   0  0  0  0  0  0  0  0  0  0  0  0
   38.1570   22.8730   30.4560 H   0  0  0  0  0  0  0  0  0  0  0  0
   37.2160   24.3830   29.9960 H   0  0  0  0  0  0  0  0  0  0  0  0
   37.9550   23.6170   32.7610 H   0  0  0  0  0  0  0  0  0  0  0  0
   35.7520   19.3930   31.3580 C   0  0  0  0  0  0  0  0  0  0  0  0
   35.5300   19.0910   32.7250 C   0  0  0  0  0  0  0  0  0  0  0  0
   35.5190   20.1910   33.6530 C   0  0  0  0  0  0  0  0  0  0  0  0
   35.7180   21.4380   33.1640 N   0  0  0  0  0  0  0  0  0  0  0  0
   35.9240   21.6650   31.8590 C   0  0  0  0  0  0  0  0  0  0  0  0
   35.9480   20.6680   30.9320 N   0  0  0  0  0  0  0  0  0  0  0  0
   35.7400   18.5220   30.7160 H   0  0  0  0  0  0  0  0  0  0  0  0
   35.3740   18.0800   33.0630 H   0  0  0  0  0  0  0  0  0  0  0  0
   35.3570   19.9790   34.6970 H   0  0  0  0  0  0  0  0  0  0  0  0
   37.6660   26.2310   32.8400 C   0  0  0  0  0  0  0  0  0  0  0  0
   38.8860   25.8380   32.9070 O   0  0  0  0  0  0  0  0  0  0  0  0
   36.6930   25.3250   32.3640 N   0  0  0  0  0  0  0  0  0  0  0  0
   35.6680   25.4710   32.0960 H   0  0  0  0  0  0  0  0  0  0  0  0
   36.8270   28.0240   34.3650 C   0  0  0  0  0  0  0  0  0  0  0  0
   36.8410   27.4410   33.1150 C   0  0  0  0  0  0  0  0  0  0  0  0
   36.0910   27.8560   32.0270 C   0  0  0  0  0  0  0  0  0  0  0  0
   36.1140   27.3870   31.0570 H   0  0  0  0  0  0  0  0  0  0  0  0
   35.2580   28.9460   32.2040 C   0  0  0  0  0  0  0  0  0  0  0  0
   34.6140   29.3670   31.4180 H   0  0  0  0  0  0  0  0  0  0  0  0
   35.2460   29.5270   33.4530 C   0  0  0  0  0  3  0  0  0  0  0  0
   35.9870   29.1210   34.5360 C   0  0  0  0  0  3  0  0  0  0  0  0
   38.3570   27.0220   36.1840 N   0  0  0  0  0  0  0  0  0  0  0  0
   37.6690   27.4630   35.3680 C   0  0  0  0  0  0  0  0  0  0  0  0
  1  4  1  6  0  0  0
  1 12  1  0  0  0  0
  1  3  1  0  0  0  0
  2  1  1  0  0  0  0
  2  3  1  0  0  0  0
  3 19  1  0  0  0  0
  3  7  1  1  0  0  0
  5  2  1  0  0  0  0
  6  2  1  0  0  0  0
  8  9  1  0  0  0  0
  9 15  1  0  0  0  0
  9 10  2  0  0  0  0
 10 16  1  0  0  0  0
 11 10  1  0  0  0  0
 12 11  2  0  0  0  0
 13  8  2  0  0  0  0
 13 12  1  0  0  0  0
 14  8  1  0  0  0  0
 17 18  2  0  0  0  0
 17 22  1  0  0  0  0
 19 17  1  0  0  0  0
 20 19  1  0  0  0  0
 21 28  1  0  0  0  0
 21 30  1  0  0  0  0
 22 21  2  0  0  0  0
 23 25  2  0  0  0  0
 23 22  1  0  0  0  0
 24 23  1  0  0  0  0
 25 27  1  0  0  0  0
 26 25  1  0  0  0  0
 27 28  2  0  0  0  0
 30 29  3  0  0  0  0
M  END
>  <minimizedAffinity>
-5.03973103

$$$$

 OpenBabel03272508523D

 30 32  0  0  1  0  0  0  0  0999 V2000
   38.3420   27.1430   32.9130 C   0  0  2  0  0  0  0  0  0  0  0  0
   39.0710   26.1030   32.1930 C   0  0  0  0  0  0  0  0  0  0  0  0
   37.9370   25.7580   33.1650 C   0  0  1  0  0  0  0  0  0  0  0  0
   38.8020   27.6400   33.8250 H   0  0  0  0  0  0  0  0  0  0  0  0
   38.9350   25.9170   31.1180 H   0  0  0  0  0  0  0  0  0  0  0  0
   40.0790   25.8090   32.5530 H   0  0  0  0  0  0  0  0  0  0  0  0
   37.1920   25.1480   32.6270 H   0  0  0  0  0  0  0  0  0  0  0  0
   36.7300   29.3900   30.4480 C   0  0  0  0  0  0  0  0  0  0  0  0
   35.5580   29.7950   31.1370 C   0  0  0  0  0  0  0  0  0  0  0  0
   35.3530   29.2700   32.4610 C   0  0  0  0  0  0  0  0  0  0  0  0
   36.2880   28.4280   32.9630 N   0  0  0  0  0  0  0  0  0  0  0  0
   37.3780   28.0790   32.2650 C   0  0  0  0  0  0  0  0  0  0  0  0
   37.6280   28.5400   31.0090 N   0  0  0  0  0  0  0  0  0  0  0  0
   36.8250   29.8280   29.4630 H   0  0  0  0  0  0  0  0  0  0  0  0
   34.8460   30.4700   30.6930 H   0  0  0  0  0  0  0  0  0  0  0  0
   34.4660   29.5630   32.9970 H   0  0  0  0  0  0  0  0  0  0  0  0
   38.1450   23.7810   34.6430 C   0  0  0  0  0  0  0  0  0  0  0  0
   37.7010   23.0760   33.6670 O   0  0  0  0  0  0  0  0  0  0  0  0
   38.3940   25.1530   34.4230 N   0  0  0  0  0  0  0  0  0  0  0  0
   38.8840   25.8850   35.0300 H   0  0  0  0  0  0  0  0  0  0  0  0
   39.6370   22.8870   36.4380 C   0  0  0  0  0  0  0  0  0  0  0  0
   38.5340   23.6310   36.0740 C   0  0  0  0  0  0  0  0  0  0  0  0
   37.6650   24.2590   36.9500 C   0  0  0  0  0  0  0  0  0  0  0  0
   36.8060   24.8360   36.6480 H   0  0  0  0  0  0  0  0  0  0  0  0
   37.9210   24.1340   38.3040 C   0  0  0  0  0  0  0  0  0  0  0  0
   37.3030   24.5850   39.0950 H   0  0  0  0  0  0  0  0  0  0  0  0
   39.0230   23.3910   38.6640 C   0  0  0  0  0  3  0  0  0  0  0  0
   39.8900   22.7650   37.8010 C   0  0  0  0  0  3  0  0  0  0  0  0
   41.0680   21.8410   34.5640 N   0  0  0  0  0  0  0  0  0  0  0  0
   40.4220   22.3130   35.3970 C   0  0  0  0  0  0  0  0  0  0  0  0
  1  3  1  0  0  0  0
  1  4  1  1  0  0  0
  2  6  1  0  0  0  0
  2  1  1  0  0  0  0
  2  3  1  0  0  0  0
  3  7  1  6  0  0  0
  3 19  1  0  0  0  0
  5  2  1  0  0  0  0
  8 13  2  0  0  0  0
  8  9  1  0  0  0  0
  9 10  2  0  0  0  0
 10 11  1  0  0  0  0
 10 16  1  0  0  0  0
 12  1  1  0  0  0  0
 12 11  2  0  0  0  0
 13 12  1  0  0  0  0
 14  8  1  0  0  0  0
 15  9  1  0  0  0  0
 17 22  1  0  0  0  0
 18 17  2  0  0  0  0
 19 17  1  0  0  0  0
 19 20  1  0  0  0  0
 21 28  1  0  0  0  0
 22 21  2  0  0  0  0
 22 23  1  0  0  0  0
 23 25  2  0  0  0  0
 24 23  1  0  0  0  0
 25 27  1  0  0  0  0
 25 26  1  0  0  0  0
 28 27  2  0  0  0  0
 29 30  3  0  0  0  0
 30 21  1  0  0  0  0
M  END
>  <minimizedAffinity>
-4.89554262

$$$$

 OpenBabel03272508523D

 30 32  0  0  1  0  0  0  0  0999 V2000
   38.9180   26.2710   35.1230 C   0  0  2  0  0  0  0  0  0  0  0  0
   38.4340   27.3260   36.0080 C   0  0  0  0  0  0  0  0  0  0  0  0
   37.5090   26.6500   34.9900 C   0  0  1  0  0  0  0  0  0  0  0  0
   39.5330   26.5300   34.2040 H   0  0  0  0  0  0  0  0  0  0  0  0
   38.2600   27.1670   37.0830 H   0  0  0  0  0  0  0  0  0  0  0  0
   38.6780   28.3810   35.7670 H   0  0  0  0  0  0  0  0  0  0  0  0
   36.6340   26.2500   35.5270 H   0  0  0  0  0  0  0  0  0  0  0  0
   40.7480   23.0990   35.6860 C   0  0  0  0  0  0  0  0  0  0  0  0
   39.8270   22.3600   36.4710 C   0  0  0  0  0  0  0  0  0  0  0  0
   38.5730   22.9900   36.7910 C   0  0  0  0  0  0  0  0  0  0  0  0
   38.3530   24.2430   36.3230 N   0  0  0  0  0  0  0  0  0  0  0  0
   39.2620   24.8950   35.5840 C   0  0  0  0  0  0  0  0  0  0  0  0
   40.4660   24.3540   35.2490 N   0  0  0  0  0  0  0  0  0  0  0  0
   41.6640   22.5630   35.4770 H   0  0  0  0  0  0  0  0  0  0  0  0
   40.0500   21.3640   36.8160 H   0  0  0  0  0  0  0  0  0  0  0  0
   37.8640   22.4450   37.3910 H   0  0  0  0  0  0  0  0  0  0  0  0
   36.8130   26.8860   32.6250 C   0  0  0  0  0  0  0  0  0  0  0  0
   36.6360   25.6150   32.6090 O   0  0  0  0  0  0  0  0  0  0  0  0
   37.1590   27.5030   33.8470 N   0  0  0  0  0  0  0  0  0  0  0  0
   37.2160   28.5340   34.1220 H   0  0  0  0  0  0  0  0  0  0  0  0
   37.7440   28.2440   30.7430 C   0  0  0  0  0  0  0  0  0  0  0  0
   36.7680   28.0550   31.7010 C   0  0  0  0  0  0  0  0  0  0  0  0
   35.7070   28.9090   31.9440 C   0  0  0  0  0  0  0  0  0  0  0  0
   34.9530   28.7470   32.6970 H   0  0  0  0  0  0  0  0  0  0  0  0
   35.6110   30.0480   31.1640 C   0  0  0  0  0  0  0  0  0  0  0  0
   34.8160   30.8020   31.2630 H   0  0  0  0  0  0  0  0  0  0  0  0
   36.5860   30.2340   30.2090 C   0  0  0  0  0  3  0  0  0  0  0  0
   37.6420   29.3910   29.9610 C   0  0  0  0  0  3  0  0  0  0  0  0
   39.6000   26.4640   30.5370 N   0  0  0  0  0  0  0  0  0  0  0  0
   38.7630   27.2550   30.6320 C   0  0  0  0  0  0  0  0  0  0  0  0
  1  4  1  6  0  0  0
  1 12  1  0  0  0  0
  1  2  1  0  0  0  0
  2  5  1  0  0  0  0
  3  1  1  0  0  0  0
  3  7  1  1  0  0  0
  3  2  1  0  0  0  0
  6  2  1  0  0  0  0
  8  9  1  0  0  0  0
  9 10  2  0  0  0  0
  9 15  1  0  0  0  0
 10 16  1  0  0  0  0
 11 10  1  0  0  0  0
 12 11  2  0  0  0  0
 13 12  1  0  0  0  0
 13  8  2  0  0  0  0
 14  8  1  0  0  0  0
 17 19  1  0  0  0  0
 18 17  2  0  0  0  0
 19 20  1  0  0  0  0
 19  3  1  0  0  0  0
 21 22  1  0  0  0  0
 22 23  2  0  0  0  0
 22 17  1  0  0  0  0
 23 24  1  0  0  0  0
 25 26  1  0  0  0  0
 25 23  1  0  0  0  0
 27 25  2  0  0  0  0
 28 27  1  0  0  0  0
 28 21  2  0  0  0  0
 29 30  3  0  0  0  0
 30 21  1  0  0  0  0
M  END
>  <minimizedAffinity>
-4.75102091

$$$$

 OpenBabel03272508523D

 30 32  0  0  1  0  0  0  0  0999 V2000
   39.0900   26.2270   35.1240 C   0  0  2  0  0  0  0  0  0  0  0  0
   38.5220   27.2940   35.9430 C   0  0  0  0  0  0  0  0  0  0  0  0
   37.7270   26.6540   34.7980 C   0  0  1  0  0  0  0  0  0  0  0  0
   39.8360   26.4680   34.3030 H   0  0  0  0  0  0  0  0  0  0  0  0
   38.1940   27.1360   36.9800 H   0  0  0  0  0  0  0  0  0  0  0  0
   38.8320   28.3410   35.7470 H   0  0  0  0  0  0  0  0  0  0  0  0
   36.7720   26.2820   35.2040 H   0  0  0  0  0  0  0  0  0  0  0  0
   38.6370   22.9810   36.8540 C   0  0  0  0  0  0  0  0  0  0  0  0
   39.8120   22.2800   36.4820 C   0  0  0  0  0  0  0  0  0  0  0  0
   40.7480   22.9610   35.6260 C   0  0  0  0  0  0  0  0  0  0  0  0
   40.4490   24.2230   35.2330 N   0  0  0  0  0  0  0  0  0  0  0  0
   39.3200   24.8370   35.6160 C   0  0  0  0  0  0  0  0  0  0  0  0
   38.3960   24.2470   36.4230 N   0  0  0  0  0  0  0  0  0  0  0  0
   37.9830   22.4140   37.5030 H   0  0  0  0  0  0  0  0  0  0  0  0
   40.0040   21.2770   36.8240 H   0  0  0  0  0  0  0  0  0  0  0  0
   41.6430   22.4410   35.3290 H   0  0  0  0  0  0  0  0  0  0  0  0
   36.9750   26.9870   32.4620 C   0  0  0  0  0  0  0  0  0  0  0  0
   36.4290   25.8290   32.5320 O   0  0  0  0  0  0  0  0  0  0  0  0
   37.5690   27.5230   33.6250 N   0  0  0  0  0  0  0  0  0  0  0  0
   37.9490   28.5010   33.8340 H   0  0  0  0  0  0  0  0  0  0  0  0
   36.2900   29.0790   31.2760 C   0  0  0  0  0  0  0  0  0  0  0  0
   37.2170   28.0760   31.4720 C   0  0  0  0  0  0  0  0  0  0  0  0
   38.4040   27.9340   30.7760 C   0  0  0  0  0  0  0  0  0  0  0  0
   39.1170   27.1430   30.9410 H   0  0  0  0  0  0  0  0  0  0  0  0
   38.6900   28.8740   29.8020 C   0  0  0  0  0  0  0  0  0  0  0  0
   39.6000   28.8670   29.1820 H   0  0  0  0  0  0  0  0  0  0  0  0
   37.7640   29.8750   29.6090 C   0  0  0  0  0  3  0  0  0  0  0  0
   36.5840   30.0220   30.2960 C   0  0  0  0  0  3  0  0  0  0  0  0
   34.1810   29.0570   32.7630 N   0  0  0  0  0  0  0  0  0  0  0  0
   35.1200   29.0690   32.0910 C   0  0  0  0  0  0  0  0  0  0  0  0
  1  4  1  6  0  0  0
  1 12  1  0  0  0  0
  1  2  1  0  0  0  0
  2  5  1  0  0  0  0
  3  1  1  0  0  0  0
  3  7  1  1  0  0  0
  3  2  1  0  0  0  0
  6  2  1  0  0  0  0
  8 14  1  0  0  0  0
  9 15  1  0  0  0  0
  9  8  1  0  0  0  0
 10  9  2  0  0  0  0
 11 12  2  0  0  0  0
 11 10  1  0  0  0  0
 12 13  1  0  0  0  0
 13  8  2  0  0  0  0
 16 10  1  0  0  0  0
 17 18  2  0  0  0  0
 17 19  1  0  0  0  0
 19 20  1  0  0  0  0
 19  3  1  0  0  0  0
 21 22  1  0  0  0  0
 21 30  1  0  0  0  0
 22 17  1  0  0  0  0
 23 24  1  0  0  0  0
 23 22  2  0  0  0  0
 25 23  1  0  0  0  0
 26 25  1  0  0  0  0
 27 25  2  0  0  0  0
 27 28  1  0  0  0  0
 28 21  2  0  0  0  0
 30 29  3  0  0  0  0
M  END
>  <minimizedAffinity>
-4.70359755

$$$$

 OpenBabel03272508523D

 30 32  0  0  1  0  0  0  0  0999 V2000
   36.1970   22.3080   32.1840 C   0  0  2  0  0  0  0  0  0  0  0  0
   36.0730   23.3260   31.1450 C   0  0  0  0  0  0  0  0  0  0  0  0
   37.4180   23.0300   31.8180 C   0  0  1  0  0  0  0  0  0  0  0  0
   35.8570   22.5270   33.2450 H   0  0  0  0  0  0  0  0  0  0  0  0
   35.9370   23.0770   30.0820 H   0  0  0  0  0  0  0  0  0  0  0  0
   35.6420   24.3130   31.4110 H   0  0  0  0  0  0  0  0  0  0  0  0
   38.1540   22.7880   31.0340 H   0  0  0  0  0  0  0  0  0  0  0  0
   36.4960   18.9970   30.5480 C   0  0  0  0  0  0  0  0  0  0  0  0
   35.9180   18.1360   31.5150 C   0  0  0  0  0  0  0  0  0  0  0  0
   35.4310   18.7330   32.7300 C   0  0  0  0  0  0  0  0  0  0  0  0
   35.5540   20.0750   32.8720 N   0  0  0  0  0  0  0  0  0  0  0  0
   36.1100   20.8420   31.9230 C   0  0  0  0  0  0  0  0  0  0  0  0
   36.5900   20.3370   30.7540 N   0  0  0  0  0  0  0  0  0  0  0  0
   36.8330   18.4830   29.6570 H   0  0  0  0  0  0  0  0  0  0  0  0
   35.8420   17.0730   31.3510 H   0  0  0  0  0  0  0  0  0  0  0  0
   34.9940   18.0920   33.4770 H   0  0  0  0  0  0  0  0  0  0  0  0
   38.7210   23.7270   33.8070 C   0  0  0  0  0  0  0  0  0  0  0  0
   39.2210   22.5460   33.8230 O   0  0  0  0  0  0  0  0  0  0  0  0
   37.8660   24.0820   32.7400 N   0  0  0  0  0  0  0  0  0  0  0  0
   37.4580   25.0270   32.4510 H   0  0  0  0  0  0  0  0  0  0  0  0
   38.2020   25.0260   35.8780 C   0  0  0  0  0  0  0  0  0  0  0  0
   38.7390   24.9840   34.6080 C   0  0  0  0  0  0  0  0  0  0  0  0
   39.2890   26.0600   33.9330 C   0  0  0  0  0  0  0  0  0  0  0  0
   39.7030   26.0090   32.9400 H   0  0  0  0  0  0  0  0  0  0  0  0
   39.3050   27.2810   34.5830 C   0  0  0  0  0  0  0  0  0  0  0  0
   39.7120   28.2070   34.1510 H   0  0  0  0  0  0  0  0  0  0  0  0
   38.7690   27.3200   35.8510 C   0  0  0  0  0  3  0  0  0  0  0  0
   38.2210   26.2570   36.5270 C   0  0  0  0  0  3  0  0  0  0  0  0
   37.2710   22.8280   36.8570 N   0  0  0  0  0  0  0  0  0  0  0  0
   37.6800   23.8150   36.4180 C   0  0  0  0  0  0  0  0  0  0  0  0
  1  4  1  1  0  0  0
  2  6  1  0  0  0  0
  2  3  1  0  0  0  0
  2  1  1  0  0  0  0
  3  7  1  6  0  0  0
  3  1  1  0  0  0  0
  3 19  1  0  0  0  0
  5  2  1  0  0  0  0
  8 13  2  0  0  0  0
  8  9  1  0  0  0  0
  9 10  2  0  0  0  0
 10 11  1  0  0  0  0
 10 16  1  0  0  0  0
 12  1  1  0  0  0  0
 12 11  2  0  0  0  0
 13 12  1  0  0  0  0
 14  8  1  0  0  0  0
 15  9  1  0  0  0  0
 17 18  2  0  0  0  0
 17 22  1  0  0  0  0
 19 17  1  0  0  0  0
 20 19  1  0  0  0  0
 21 30  1  0  0  0  0
 21 28  1  0  0  0  0
 22 21  2  0  0  0  0
 23 25  2  0  0  0  0
 23 22  1  0  0  0  0
 24 23  1  0  0  0  0
 25 27  1  0  0  0  0
 26 25  1  0  0  0  0
 27 28  2  0  0  0  0
 30 29  3  0  0  0  0
M  END
>  <minimizedAffinity>
-4.70130682

$$$$

 OpenBabel03272508523D

 30 32  0  0  1  0  0  0  0  0999 V2000
   38.2340   26.3380   32.8260 C   0  0  2  0  0  0  0  0  0  0  0  0
   38.1220   25.1900   31.9320 C   0  0  0  0  0  0  0  0  0  0  0  0
   37.6690   25.1120   33.3940 C   0  0  1  0  0  0  0  0  0  0  0  0
   39.2370   26.6140   33.2830 H   0  0  0  0  0  0  0  0  0  0  0  0
   37.3700   25.1310   31.1310 H   0  0  0  0  0  0  0  0  0  0  0  0
   39.0310   24.5940   31.7080 H   0  0  0  0  0  0  0  0  0  0  0  0
   36.6170   24.7820   33.4150 H   0  0  0  0  0  0  0  0  0  0  0  0
   35.8950   29.0830   33.6760 C   0  0  0  0  0  0  0  0  0  0  0  0
   35.8290   29.8050   32.4570 C   0  0  0  0  0  0  0  0  0  0  0  0
   36.6110   29.3140   31.3530 C   0  0  0  0  0  0  0  0  0  0  0  0
   37.3550   28.1980   31.5460 N   0  0  0  0  0  0  0  0  0  0  0  0
   37.3790   27.5560   32.7230 C   0  0  0  0  0  0  0  0  0  0  0  0
   36.6640   27.9700   33.8040 N   0  0  0  0  0  0  0  0  0  0  0  0
   35.2780   29.5020   34.4600 H   0  0  0  0  0  0  0  0  0  0  0  0
   35.2190   30.6870   32.3540 H   0  0  0  0  0  0  0  0  0  0  0  0
   36.5770   29.8540   30.4210 H   0  0  0  0  0  0  0  0  0  0  0  0
   38.7660   24.7280   35.5810 C   0  0  0  0  0  0  0  0  0  0  0  0
   38.0400   25.6760   36.0490 O   0  0  0  0  0  0  0  0  0  0  0  0
   38.5540   24.3100   34.2490 N   0  0  0  0  0  0  0  0  0  0  0  0
   38.9320   23.4700   33.7070 H   0  0  0  0  0  0  0  0  0  0  0  0
   39.7640   23.0670   37.1610 C   0  0  0  0  0  0  0  0  0  0  0  0
   39.8680   23.8180   36.0090 C   0  0  0  0  0  0  0  0  0  0  0  0
   40.9700   23.8570   35.1730 C   0  0  0  0  0  0  0  0  0  0  0  0
   41.0350   24.4510   34.2760 H   0  0  0  0  0  0  0  0  0  0  0  0
   42.0610   23.0790   35.5170 C   0  0  0  0  0  0  0  0  0  0  0  0
   42.9940   23.0270   34.9350 H   0  0  0  0  0  0  0  0  0  0  0  0
   41.9550   22.3300   36.6680 C   0  0  0  0  0  3  0  0  0  0  0  0
   40.8650   22.2860   37.5020 C   0  0  0  0  0  3  0  0  0  0  0  0
   37.5700   23.2200   38.5090 N   0  0  0  0  0  0  0  0  0  0  0  0
   38.5480   23.1490   37.8990 C   0  0  0  0  0  0  0  0  0  0  0  0
  1  4  1  1  0  0  0
  1  3  1  0  0  0  0
  2  1  1  0  0  0  0
  2  3  1  0  0  0  0
  3  7  1  1  0  0  0
  3 19  1  0  0  0  0
  5  2  1  0  0  0  0
  6  2  1  0  0  0  0
  8 13  1  0  0  0  0
  8 14  1  0  0  0  0
  9  8  2  0  0  0  0
 10 11  2  0  0  0  0
 10  9  1  0  0  0  0
 11 12  1  0  0  0  0
 12  1  1  0  0  0  0
 12 13  2  0  0  0  0
 15  9  1  0  0  0  0
 16 10  1  0  0  0  0
 17 22  1  0  0  0  0
 17 18  2  0  0  0  0
 19 17  1  0  0  0  0
 20 19  1  0  0  0  0
 21 28  1  0  0  0  0
 21 30  1  0  0  0  0
 22 21  2  0  0  0  0
 23 25  2  0  0  0  0
 23 22  1  0  0  0  0
 24 23  1  0  0  0  0
 25 27  1  0  0  0  0
 26 25  1  0  0  0  0
 27 28  2  0  0  0  0
 30 29  3  0  0  0  0
M  END
>  <minimizedAffinity>
-4.69484949

$$$$

 OpenBabel03272508523D

 30 32  0  0  1  0  0  0  0  0999 V2000
   37.9090   26.5570   34.9770 C   0  0  2  0  0  0  0  0  0  0  0  0
   38.5720   27.3780   35.9870 C   0  0  0  0  0  0  0  0  0  0  0  0
   39.3620   26.7020   34.8600 C   0  0  1  0  0  0  0  0  0  0  0  0
   37.5900   25.4950   35.2210 H   0  0  0  0  0  0  0  0  0  0  0  0
   38.4930   28.4750   36.0070 H   0  0  0  0  0  0  0  0  0  0  0  0
   38.7570   26.9450   36.9920 H   0  0  0  0  0  0  0  0  0  0  0  0
   39.9370   27.4770   34.3260 H   0  0  0  0  0  0  0  0  0  0  0  0
   35.6260   28.7860   33.0930 C   0  0  0  0  0  0  0  0  0  0  0  0
   35.4340   28.0640   31.8880 C   0  0  0  0  0  0  0  0  0  0  0  0
   36.1120   26.8010   31.7570 C   0  0  0  0  0  0  0  0  0  0  0  0
   36.8860   26.3840   32.7880 N   0  0  0  0  0  0  0  0  0  0  0  0
   37.0310   27.1100   33.9050 C   0  0  0  0  0  0  0  0  0  0  0  0
   36.4190   28.3120   34.0900 N   0  0  0  0  0  0  0  0  0  0  0  0
   35.0820   29.7210   33.1280 H   0  0  0  0  0  0  0  0  0  0  0  0
   34.8050   28.4400   31.0980 H   0  0  0  0  0  0  0  0  0  0  0  0
   35.9810   26.2420   30.8450 H   0  0  0  0  0  0  0  0  0  0  0  0
   40.2830   24.4380   34.4610 C   0  0  0  0  0  0  0  0  0  0  0  0
   39.8190   24.5210   33.2680 O   0  0  0  0  0  0  0  0  0  0  0  0
   40.1790   25.5660   35.3050 N   0  0  0  0  0  0  0  0  0  0  0  0
   40.6070   25.7690   36.2630 H   0  0  0  0  0  0  0  0  0  0  0  0
   40.2520   22.5200   36.0640 C   0  0  0  0  0  0  0  0  0  0  0  0
   40.9690   23.4590   35.3530 C   0  0  0  0  0  0  0  0  0  0  0  0
   42.3400   23.6350   35.4110 C   0  0  0  0  0  0  0  0  0  0  0  0
   42.8850   24.3760   34.8490 H   0  0  0  0  0  0  0  0  0  0  0  0
   43.0560   22.8000   36.2510 C   0  0  0  0  0  0  0  0  0  0  0  0
   44.1480   22.8440   36.3850 H   0  0  0  0  0  0  0  0  0  0  0  0
   42.3380   21.8630   36.9600 C   0  0  0  0  0  3  0  0  0  0  0  0
   40.9770   21.6830   36.9070 C   0  0  0  0  0  3  0  0  0  0  0  0
   37.6930   22.4580   35.7360 N   0  0  0  0  0  0  0  0  0  0  0  0
   38.8400   22.4810   35.8750 C   0  0  0  0  0  0  0  0  0  0  0  0
  1  4  1  1  0  0  0
  1  2  1  0  0  0  0
  2  5  1  0  0  0  0
  2  6  1  0  0  0  0
  3  7  1  6  0  0  0
  3  1  1  0  0  0  0
  3 19  1  0  0  0  0
  3  2  1  0  0  0  0
  8 14  1  0  0  0  0
  8 13  1  0  0  0  0
  9  8  2  0  0  0  0
 10  9  1  0  0  0  0
 10 11  2  0  0  0  0
 11 12  1  0  0  0  0
 12 13  2  0  0  0  0
 12  1  1  0  0  0  0
 15  9  1  0  0  0  0
 16 10  1  0  0  0  0
 17 19  1  0  0  0  0
 17 22  1  0  0  0  0
 18 17  2  0  0  0  0
 19 20  1  0  0  0  0
 21 28  1  0  0  0  0
 22 23  1  0  0  0  0
 22 21  2  0  0  0  0
 23 25  2  0  0  0  0
 24 23  1  0  0  0  0
 25 26  1  0  0  0  0
 25 27  1  0  0  0  0
 28 27  2  0  0  0  0
 29 30  3  0  0  0  0
 30 21  1  0  0  0  0
M  END
>  <minimizedAffinity>
-4.68678999

$$$$

 OpenBabel03272508523D

 30 32  0  0  1  0  0  0  0  0999 V2000
   38.5990   27.0980   35.1530 C   0  0  2  0  0  0  0  0  0  0  0  0
   37.5310   26.1030   35.1590 C   0  0  0  0  0  0  0  0  0  0  0  0
   37.4510   27.3570   34.2820 C   0  0  1  0  0  0  0  0  0  0  0  0
   38.6890   27.8490   36.0010 H   0  0  0  0  0  0  0  0  0  0  0  0
   37.6340   25.1170   34.6810 H   0  0  0  0  0  0  0  0  0  0  0  0
   36.8120   26.0940   36.0040 H   0  0  0  0  0  0  0  0  0  0  0  0
   37.2920   27.0420   33.2380 H   0  0  0  0  0  0  0  0  0  0  0  0
   42.0690   25.9160   34.6120 C   0  0  0  0  0  0  0  0  0  0  0  0
   42.3870   26.4940   33.3570 C   0  0  0  0  0  0  0  0  0  0  0  0
   41.3740   27.2920   32.7190 C   0  0  0  0  0  0  0  0  0  0  0  0
   40.1870   27.4420   33.3550 N   0  0  0  0  0  0  0  0  0  0  0  0
   39.9410   26.8700   34.5430 C   0  0  0  0  0  0  0  0  0  0  0  0
   40.8570   26.1030   35.1960 N   0  0  0  0  0  0  0  0  0  0  0  0
   42.8770   25.3360   35.0380 H   0  0  0  0  0  0  0  0  0  0  0  0
   43.3490   26.3460   32.8940 H   0  0  0  0  0  0  0  0  0  0  0  0
   41.5970   27.7350   31.7620 H   0  0  0  0  0  0  0  0  0  0  0  0
   35.9350   29.2610   33.8180 C   0  0  0  0  0  0  0  0  0  0  0  0
   36.1710   29.0710   32.5710 O   0  0  0  0  0  0  0  0  0  0  0  0
   36.4750   28.3500   34.7520 N   0  0  0  0  0  0  0  0  0  0  0  0
   36.3000   28.2310   35.8000 H   0  0  0  0  0  0  0  0  0  0  0  0
   33.8400   30.3680   34.6150 C   0  0  0  0  0  0  0  0  0  0  0  0
   35.2080   30.2090   34.7100 C   0  0  0  0  0  0  0  0  0  0  0  0
   36.0400   30.9080   35.5660 C   0  0  0  0  0  0  0  0  0  0  0  0
   37.1070   30.7720   35.6260 H   0  0  0  0  0  0  0  0  0  0  0  0
   35.4560   31.8460   36.4000 C   0  0  0  0  0  0  0  0  0  0  0  0
   36.0110   32.4640   37.1210 H   0  0  0  0  0  0  0  0  0  0  0  0
   34.0910   32.0020   36.3040 C   0  0  0  0  0  3  0  0  0  0  0  0
   33.2590   31.3110   35.4570 C   0  0  0  0  0  3  0  0  0  0  0  0
   32.5780   28.9090   32.9020 N   0  0  0  0  0  0  0  0  0  0  0  0
   33.1420   29.5560   33.6750 C   0  0  0  0  0  0  0  0  0  0  0  0
  1  2  1  0  0  0  0
  1  4  1  1  0  0  0
  2  6  1  0  0  0  0
  3  7  1  6  0  0  0
  3 19  1  0  0  0  0
  3  1  1  0  0  0  0
  3  2  1  0  0  0  0
  5  2  1  0  0  0  0
  8 14  1  0  0  0  0
  8 13  1  0  0  0  0
  9  8  2  0  0  0  0
 10 11  2  0  0  0  0
 10  9  1  0  0  0  0
 11 12  1  0  0  0  0
 12  1  1  0  0  0  0
 12 13  2  0  0  0  0
 15  9  1  0  0  0  0
 16 10  1  0  0  0  0
 17 22  1  0  0  0  0
 17 19  1  0  0  0  0
 18 17  2  0  0  0  0
 19 20  1  0  0  0  0
 21 22  2  0  0  0  0
 21 28  1  0  0  0  0
 22 23  1  0  0  0  0
 23 24  1  0  0  0  0
 23 25  2  0  0  0  0
 25 26  1  0  0  0  0
 27 25  1  0  0  0  0
 28 27  2  0  0  0  0
 29 30  3  0  0  0  0
 30 21  1  0  0  0  0
M  END
>  <minimizedAffinity>
-4.63338327

$$$$

 OpenBabel03272508523D

 30 32  0  0  1  0  0  0  0  0999 V2000
   37.2450   27.2100   33.3140 C   0  0  2  0  0  0  0  0  0  0  0  0
   37.9130   27.1300   34.6100 C   0  0  0  0  0  0  0  0  0  0  0  0
   36.4860   27.6760   34.4770 C   0  0  1  0  0  0  0  0  0  0  0  0
   37.4990   28.0470   32.5890 H   0  0  0  0  0  0  0  0  0  0  0  0
   38.0780   26.1790   35.1350 H   0  0  0  0  0  0  0  0  0  0  0  0
   38.6680   27.9000   34.8720 H   0  0  0  0  0  0  0  0  0  0  0  0
   35.8290   27.0990   35.1480 H   0  0  0  0  0  0  0  0  0  0  0  0
   35.3540   25.0620   30.9620 C   0  0  0  0  0  0  0  0  0  0  0  0
   35.9260   23.7860   31.1990 C   0  0  0  0  0  0  0  0  0  0  0  0
   36.9710   23.7010   32.1850 C   0  0  0  0  0  0  0  0  0  0  0  0
   37.3380   24.8400   32.8220 N   0  0  0  0  0  0  0  0  0  0  0  0
   36.7620   26.0200   32.5560 C   0  0  0  0  0  0  0  0  0  0  0  0
   35.7700   26.1660   31.6340 N   0  0  0  0  0  0  0  0  0  0  0  0
   34.5700   25.0520   30.2150 H   0  0  0  0  0  0  0  0  0  0  0  0
   35.5950   22.9100   30.6660 H   0  0  0  0  0  0  0  0  0  0  0  0
   37.4200   22.7410   32.3740 H   0  0  0  0  0  0  0  0  0  0  0  0
   35.2820   29.8070   34.1000 C   0  0  0  0  0  0  0  0  0  0  0  0
   34.3200   29.1120   33.6140 O   0  0  0  0  0  0  0  0  0  0  0  0
   36.3860   29.1290   34.6620 N   0  0  0  0  0  0  0  0  0  0  0  0
   37.2130   29.4880   35.2360 H   0  0  0  0  0  0  0  0  0  0  0  0
   36.0370   32.0280   33.2330 C   0  0  0  0  0  0  0  0  0  0  0  0
   35.6720   31.2330   34.3000 C   0  0  0  0  0  0  0  0  0  0  0  0
   35.6690   31.6230   35.6280 C   0  0  0  0  0  0  0  0  0  0  0  0
   35.3820   30.9880   36.4500 H   0  0  0  0  0  0  0  0  0  0  0  0
   36.0630   32.9180   35.9140 C   0  0  0  0  0  0  0  0  0  0  0  0
   36.1050   33.3430   36.9280 H   0  0  0  0  0  0  0  0  0  0  0  0
   36.4260   33.7100   34.8470 C   0  0  0  0  0  3  0  0  0  0  0  0
   36.4310   33.3290   33.5270 C   0  0  0  0  0  3  0  0  0  0  0  0
   35.9140   30.9840   30.8770 N   0  0  0  0  0  0  0  0  0  0  0  0
   35.9750   31.4560   31.9290 C   0  0  0  0  0  0  0  0  0  0  0  0
  1  4  1  6  0  0  0
  1  3  1  0  0  0  0
  1  2  1  0  0  0  0
  2  6  1  0  0  0  0
  2  5  1  0  0  0  0
  3  2  1  0  0  0  0
  3 19  1  0  0  0  0
  3  7  1  1  0  0  0
  8  9  2  0  0  0  0
  8 13  1  0  0  0  0
  9 10  1  0  0  0  0
 10 16  1  0  0  0  0
 10 11  2  0  0  0  0
 12 11  1  0  0  0  0
 12  1  1  0  0  0  0
 13 12  2  0  0  0  0
 14  8  1  0  0  0  0
 15  9  1  0  0  0  0
 17 22  1  0  0  0  0
 17 19  1  0  0  0  0
 18 17  2  0  0  0  0
 19 20  1  0  0  0  0
 21 28  2  0  0  0  0
 21 22  1  0  0  0  0
 22 23  2  0  0  0  0
 23 25  1  0  0  0  0
 23 24  1  0  0  0  0
 25 26  1  0  0  0  0
 27 25  2  0  0  0  0
 28 27  1  0  0  0  0
 29 30  3  0  0  0  0
 30 21  1  0  0  0  0
M  END
>  <minimizedAffinity>
-4.63115501

$$$$
