
 OpenBabel03272510303D

 29 31  0  0  0  0  0  0  0  0999 V2000
   36.9160   31.1580   49.3240 C   0  0  0  0  0  0  0  0  0  0  0  0
   37.3300   32.3770   49.8620 C   0  0  0  0  0  0  0  0  0  0  0  0
   38.2670   33.0580   49.1320 C   0  0  0  0  0  0  0  0  0  0  0  0
   38.7500   32.5480   47.9450 N   0  0  0  0  0  0  0  0  0  0  0  0
   38.3050   31.3400   47.4590 C   0  0  0  0  0  0  0  0  0  0  0  0
   37.3780   30.6580   48.1790 N   0  0  0  0  0  0  0  0  0  0  0  0
   36.9200   32.7330   50.7960 H   0  0  0  0  0  0  0  0  0  0  0  0
   38.6430   34.0130   49.4790 H   0  0  0  0  0  0  0  0  0  0  0  0
   35.8620   30.3700   50.0610 C   0  0  0  0  0  0  0  0  0  0  0  0
   35.7150   28.9420   49.9430 C   0  0  0  0  0  0  0  0  0  0  0  0
   36.4660   29.4730   51.1480 C   0  0  0  0  0  0  0  0  0  0  0  0
   34.9930   30.9930   50.3790 H   0  0  0  0  0  0  0  0  0  0  0  0
   36.4220   28.4230   49.2270 H   0  0  0  0  0  0  0  0  0  0  0  0
   34.7420   28.4750   50.1210 H   0  0  0  0  0  0  0  0  0  0  0  0
   37.5530   29.3900   51.2180 H   0  0  0  0  0  0  0  0  0  0  0  0
   35.9420   29.5320   52.1030 H   0  0  0  0  0  0  0  0  0  0  0  0
   38.7920   30.7980   46.2040 C   0  0  0  0  0  0  0  0  0  0  0  0
   38.8960   29.7020   46.2770 H   0  0  0  0  0  0  0  0  0  0  0  0
   39.8130   31.2270   45.9960 H   0  0  0  0  0  0  0  0  0  0  0  0
   38.1900   32.2250   44.2370 C   0  0  0  0  0  0  0  0  0  0  0  0
   37.9140   31.1370   45.0320 C   0  0  0  0  0  0  0  0  0  0  0  0
   36.8060   30.3410   44.7310 C   0  0  0  0  0  0  0  0  0  0  0  0
   36.5520   29.4740   45.3340 H   0  0  0  0  0  0  0  0  0  0  0  0
   36.0190   30.6630   43.6460 C   0  0  0  0  0  0  0  0  0  0  0  0
   35.1330   30.0900   43.3440 H   0  0  0  0  0  0  0  0  0  0  0  0
   36.2930   31.7490   42.8490 C   0  0  0  0  0  3  0  0  0  0  0  0
   37.3850   32.5440   43.1370 C   0  0  0  0  0  3  0  0  0  0  0  0
   40.2120   33.7990   44.6920 N   0  0  0  0  0  0  0  0  0  0  0  0
   39.3110   33.1050   44.4840 C   0  0  0  0  0  0  0  0  0  0  0  0
  1  2  1  0  0  0  0
  1  9  1  0  0  0  0
  2  7  1  0  0  0  0
  3  8  1  0  0  0  0
  3  2  2  0  0  0  0
  4  3  1  0  0  0  0
  5  4  2  0  0  0  0
  5  6  1  0  0  0  0
  6  1  2  0  0  0  0
  9 12  1  0  0  0  0
  9 11  1  0  0  0  0
 10  9  1  0  0  0  0
 10 14  1  0  0  0  0
 10 11  1  0  0  0  0
 11 15  1  0  0  0  0
 11 16  1  0  0  0  0
 13 10  1  0  0  0  0
 17 18  1  0  0  0  0
 17  5  1  0  0  0  0
 19 17  1  0  0  0  0
 20 29  1  0  0  0  0
 20 21  1  0  0  0  0
 21 17  1  0  0  0  0
 22 21  2  0  0  0  0
 22 23  1  0  0  0  0
 24 22  1  0  0  0  0
 25 24  1  0  0  0  0
 26 27  1  0  0  0  0
 26 24  2  0  0  0  0
 27 20  2  0  0  0  0
 29 28  3  0  0  0  0
M  END
>  <minimizedAffinity>
-5.43072701

>  <minimizedRMSD>
1.44665432

$$$$
