
     RDKit          3D

 40 42  0  0  0  0  0  0  0  0999 V2000
   37.3500   30.1129   48.2962 O   0  0  0  0  0  0  0  0  0  0  0  0
   38.0672   31.3049   48.2221 C   0  0  0  0  0  0  0  0  0  0  0  0
   38.2188   32.0206   49.3920 C   0  0  0  0  0  0  0  0  0  0  0  0
   38.9221   33.2083   49.3654 C   0  0  0  0  0  0  0  0  0  0  0  0
   39.4388   33.6254   48.1789 N   0  0  0  0  0  0  0  0  0  0  0  0
   39.2836   32.9154   47.0367 C   0  0  0  0  0  0  0  0  0  0  0  0
   38.6080   31.7822   47.0852 N   0  0  0  0  0  0  0  0  0  0  0  0
   40.7692   32.4639   45.2395 C   0  0  0  0  0  0  0  0  0  0  0  0
   41.1301   31.3507   45.6872 O   0  0  0  0  0  0  0  0  0  0  0  0
   39.8388   33.3838   45.8049 N   0  0  0  0  0  0  0  0  0  0  0  0
   35.4881   28.6728   50.0568 O   0  0  0  0  0  0  0  0  0  0  0  0
   35.2563   29.0469   48.8856 C   0  0  0  0  0  0  0  0  0  0  0  0
   35.9240   30.2004   48.3291 C   0  0  2  0  0  0  0  0  0  0  0  0
   35.4655   30.1128   46.8391 C   0  0  0  0  0  0  0  0  0  0  0  0
   34.1449   29.4096   46.9322 C   0  0  0  0  0  0  0  0  0  0  0  0
   34.3346   28.4085   47.9695 N   0  0  0  0  0  0  0  0  0  0  0  0
   33.7731   27.0740   48.0807 C   0  0  0  0  0  0  0  0  0  0  0  0
   37.7934   31.6614   50.3273 H   0  0  0  0  0  0  0  0  0  0  0  0
   39.0483   33.7766   50.2660 H   0  0  0  0  0  0  0  0  0  0  0  0
   41.3625   32.4926   44.3367 H   0  0  0  0  0  0  0  0  0  0  0  0
   39.7218   34.2233   45.2363 H   0  0  0  0  0  0  0  0  0  0  0  0
   35.5970   31.1481   48.7428 H   0  0  0  0  0  0  0  0  0  0  0  0
   36.2211   29.5822   46.2352 H   0  0  0  0  0  0  0  0  0  0  0  0
   35.2995   31.1649   46.5393 H   0  0  0  0  0  0  0  0  0  0  0  0
   34.0000   28.8404   45.9863 H   0  0  0  0  0  0  0  0  0  0  0  0
   33.2945   30.0660   47.0624 H   0  0  0  0  0  0  0  0  0  0  0  0
   34.5788   26.4302   48.5035 H   0  0  0  0  0  0  0  0  0  0  0  0
   33.5542   26.7475   47.0189 H   0  0  0  0  0  0  0  0  0  0  0  0
   33.3624   30.5262   48.5322 N   0  0  0  0  0  0  0  0  0  0  0  0
   32.8014   29.5629   48.8039 C   0  0  0  0  0  0  0  0  0  0  0  0
   32.1134   28.3344   49.1568 C   0  0  0  0  0  0  0  0  0  0  0  0
   32.5213   27.0562   48.8362 C   0  0  0  0  0  0  0  0  0  0  0  0
   31.7715   25.9805   49.2292 C   0  0  0  0  0  0  0  0  0  0  0  0
   32.1387   25.0073   48.9477 H   0  0  0  0  0  0  0  0  0  0  0  0
   30.6117   26.1431   49.9433 C   0  0  0  0  0  0  0  0  0  0  0  0
   30.0757   25.2648   50.2169 H   0  0  0  0  0  0  0  0  0  0  0  0
   30.1789   27.4069   50.2796 C   0  0  0  0  0  0  0  0  0  0  0  0
   30.9307   28.5054   49.8857 C   0  0  0  0  0  0  0  0  0  0  0  0
   29.2533   27.5303   50.8472 H   0  0  0  0  0  0  0  0  0  0  0  0
   30.5586   29.4995   50.1667 H   0  0  0  0  0  0  0  0  0  0  0  0
  2  1  1  0
  2  3  2  0
  4  3  1  0
  5  4  2  0
  6  7  2  0
  6  5  1  0
  7  2  1  0
  8  9  2  0
  8 10  1  0
 10  6  1  0
 12 11  2  0
 13  1  1  0
 13 12  1  0
 14 15  1  0
 14 13  1  0
 15 16  1  0
 16 17  1  0
 16 12  1  0
  3 18  1  0
  4 19  1  0
  8 20  1  0
 10 21  1  0
 13 22  1  1
 14 23  1  0
 14 24  1  0
 15 25  1  0
 15 26  1  0
 17 27  1  0
 17 28  1  0
 29 30  3  0
 30 31  1  0
 31 32  2  0
 32 33  1  0
 33 34  1  0
 33 35  2  0
 35 36  1  0
 35 37  1  0
 37 38  2  0
 38 31  1  0
 37 39  1  0
 38 40  1  0
 17 32  1  0
M  ISO  8  18  14  19  14  20   6  22  13  23  13  24  13  25  13  26  13
M  ISO  4  27   8  28   8  34  15  36  16
M  END
>  <DihAtoms>  (1) 
15,16,31,30

>  <DihDeg>  (1) 
-159.48921102874613

$$$$
