
 OpenBabel03272503043D

 33 35  0  0  0  0  0  0  0  0999 V2000
   38.4580   30.6540   47.0320 F   0  0  0  0  0  0  0  0  0  0  0  0
   38.8240   31.8510   47.5680 C   0  0  0  0  0  0  0  0  0  0  0  0
   38.4040   32.1890   48.8330 C   0  0  0  0  0  0  0  0  0  0  0  0
   38.8030   33.3990   49.3130 C   0  0  0  0  0  0  0  0  0  0  0  0
   39.5900   34.2740   48.5980 C   0  0  0  0  0  0  0  0  0  0  0  0
   40.0020   33.9150   47.3290 C   0  0  0  0  0  0  0  0  0  0  0  0
   39.6130   32.6880   46.8090 C   0  0  0  0  0  0  0  0  0  0  0  0
   38.4730   33.6830   50.3200 H   0  0  0  0  0  0  0  0  0  0  0  0
   39.8870   35.2280   49.0310 H   0  0  0  0  0  0  0  0  0  0  0  0
   40.6210   34.5600   46.7210 H   0  0  0  0  0  0  0  0  0  0  0  0
   37.2330   29.5700   51.3060 C   0  0  0  0  0  0  0  0  0  0  0  0
   38.0580   30.4890   50.6280 C   0  0  0  0  0  0  0  0  0  0  0  0
   37.5660   31.2230   49.5610 C   0  0  0  0  0  0  0  0  0  0  0  0
   36.2700   31.0200   49.2050 N   0  0  0  0  0  0  0  0  0  0  0  0
   35.4940   30.1390   49.8620 C   0  0  0  0  0  0  0  0  0  0  0  0
   35.9550   29.4260   50.8880 N   0  0  0  0  0  0  0  0  0  0  0  0
   37.8020   29.1040   52.1000 H   0  0  0  0  0  0  0  0  0  0  0  0
   39.1040   30.7000   50.8640 H   0  0  0  0  0  0  0  0  0  0  0  0
   34.4680   29.9320   49.6290 H   0  0  0  0  0  0  0  0  0  0  0  0
   38.9830   32.4080   44.5060 C   0  0  0  0  0  0  0  0  0  0  0  0
   37.8620   32.8600   44.9440 O   0  0  0  0  0  0  0  0  0  0  0  0
   40.0200   32.2810   45.5010 N   0  0  0  0  0  0  0  0  0  0  0  0
   40.9050   31.9160   45.1190 H   0  0  0  0  0  0  0  0  0  0  0  0
   39.0230   30.7490   42.7940 C   0  0  0  0  0  0  0  0  0  0  0  0
   39.0470   32.0920   43.0870 C   0  0  0  0  0  0  0  0  0  0  0  0
   39.1270   33.0810   42.1350 C   0  0  0  0  0  0  0  0  0  0  0  0
   39.1460   34.1200   42.4000 H   0  0  0  0  0  0  0  0  0  0  0  0
   39.1860   32.6050   40.8230 C   0  0  0  0  0  0  0  0  0  0  0  0
   39.2470   33.3380   40.0130 H   0  0  0  0  0  0  0  0  0  0  0  0
   39.1640   31.2760   40.5010 C   0  0  0  0  0  3  0  0  0  0  0  0
   39.0800   30.2950   41.4890 C   0  0  0  0  0  3  0  0  0  0  0  0
   38.8590   28.8970   44.6250 N   0  0  0  0  0  0  0  0  0  0  0  0
   38.9400   29.7100   43.8100 C   0  0  0  0  0  0  0  0  0  0  0  0
  1  2  1  0  0  0  0
  2  3  1  0  0  0  0
  3  4  2  0  0  0  0
  3 13  1  0  0  0  0
  4  8  1  0  0  0  0
  5  9  1  0  0  0  0
  5  4  1  0  0  0  0
  6  5  2  0  0  0  0
  7  6  1  0  0  0  0
  7  2  2  0  0  0  0
 10  6  1  0  0  0  0
 11 17  1  0  0  0  0
 12 18  1  0  0  0  0
 12 11  2  0  0  0  0
 13 12  1  0  0  0  0
 14 13  2  0  0  0  0
 14 15  1  0  0  0  0
 15 16  2  0  0  0  0
 16 11  1  0  0  0  0
 19 15  1  0  0  0  0
 20 21  2  0  0  0  0
 20 22  1  0  0  0  0
 22  7  1  0  0  0  0
 23 22  1  0  0  0  0
 24 25  1  0  0  0  0
 24 33  1  0  0  0  0
 25 20  1  0  0  0  0
 26 27  1  0  0  0  0
 26 25  2  0  0  0  0
 28 26  1  0  0  0  0
 29 28  1  0  0  0  0
 30 28  2  0  0  0  0
 30 31  1  0  0  0  0
 31 24  2  0  0  0  0
 33 32  3  0  0  0  0
M  END
>  <minimizedAffinity>
-5.91291666

>  <minimizedRMSD>
0.420958966

$$$$
