REMARK  Name = 
REMARK  5 active torsions:
REMARK  status: ('A' for Active; 'I' for Inactive)
REMARK    1  A    between atoms: C_1  and  C_6
REMARK    2  A    between atoms: C_1  and  C_8
REMARK    3  A    between atoms: C_8  and  C_9
REMARK    4  A    between atoms: N_12  and  C_26
REMARK    5  A    between atoms: C_24  and  C_25
REMARK                            x       y       z     vdW  Elec       q    Type
REMARK                         _______ _______ _______ _____ _____    ______ ____
ROOT
ATOM      1  C   UNL     1      32.951  28.258  47.891  0.00  0.00    +0.000 A 
ATOM      2  C   UNL     1      32.013  27.589  48.627  0.00  0.00    +0.000 A 
ATOM      3  C   UNL     1      30.753  27.845  48.143  0.00  0.00    +0.000 A 
ATOM      4  N   UNL     1      30.948  28.680  47.104  0.00  0.00    +0.000 N 
ATOM      5  N   UNL     1      32.257  28.921  46.960  0.00  0.00    +0.000 NA
ATOM      6  H   UNL     1      32.218  26.935  49.485  0.00  0.00    +0.000 HD
ATOM      7  H   UNL     1      29.776  27.504  48.457  0.00  0.00    +0.000 HD
ENDROOT
BRANCH   4   9
ATOM      8  C   UNL     1      29.716  28.788  44.968  0.00  0.00    +0.000 A 
ATOM      9  C   UNL     1      30.024  29.297  46.204  0.00  0.00    +0.000 A 
ATOM     10  C   UNL     1      29.379  30.483  46.561  0.00  0.00    +0.000 A 
ATOM     11  H   UNL     1      29.636  30.868  47.542  0.00  0.00    +0.000 HD
ATOM     12  C   UNL     1      28.472  31.162  45.773  0.00  0.00    +0.000 A 
ATOM     13  H   UNL     1      28.056  32.068  46.190  0.00  0.00    +0.000 HD
ATOM     14  C   UNL     1      28.184  30.620  44.532  0.00  0.00    +0.000 A 
ATOM     15  C   UNL     1      28.816  29.436  44.151  0.00  0.00    +0.000 A 
BRANCH   8  17
ATOM     16  N   UNL     1      30.805  26.615  44.150  0.00  0.00    +0.000 NA
ATOM     17  C   UNL     1      30.324  27.590  44.525  0.00  0.00    +0.000 C 
ENDBRANCH   8  17
ENDBRANCH   4   9
BRANCH   1  18
ATOM     18  C   UNL     1      34.447  28.247  48.089  0.00  0.00    +0.000 C 
ATOM     19  H   UNL     1      34.851  29.123  47.586  0.00  0.00    +0.000 HD
ATOM     20  H   UNL     1      34.848  27.316  47.644  0.00  0.00    +0.000 HD
BRANCH  18  21
ATOM     21  C   UNL     1      34.658  28.316  49.580  0.00  0.00    +0.000 C 
ATOM     22  H   UNL     1      34.891  27.302  49.990  0.00  0.00    +0.000 HD
ATOM     23  H   UNL     1      33.769  28.670  50.142  0.00  0.00    +0.000 HD
BRANCH  21  28
ATOM     24  C   UNL     1      37.290  30.176  51.386  0.00  0.00    +0.000 A 
ATOM     25  C   UNL     1      38.076  30.681  50.336  0.00  0.00    +0.000 A 
ATOM     26  C   UNL     1      37.693  30.378  49.027  0.00  0.00    +0.000 A 
ATOM     27  N   UNL     1      36.586  29.613  48.827  0.00  0.00    +0.000 NA
ATOM     28  C   UNL     1      35.859  29.148  49.875  0.00  0.00    +0.000 A 
ATOM     29  N   UNL     1      36.218  29.433  51.126  0.00  0.00    +0.000 NA
ATOM     30  H   UNL     1      37.655  30.457  52.361  0.00  0.00    +0.000 HD
ATOM     31  H   UNL     1      38.961  31.289  50.375  0.00  0.00    +0.000 HD
ATOM     32  H   UNL     1      38.193  30.692  48.120  0.00  0.00    +0.000 HD
ENDBRANCH  21  28
ENDBRANCH  18  21
ENDBRANCH   1  18
TORSDOF 5
