
 OpenBabel03272508193D

 32 34  0  0  0  0  0  0  0  0999 V2000
   34.6460   29.8580   48.0320 C   0  0  0  0  0  0  0  0  0  0  0  0
   35.6900   30.2780   47.2050 C   0  0  0  0  0  0  0  0  0  0  0  0
   35.4820   30.0260   45.8720 C   0  0  0  0  0  0  0  0  0  0  0  0
   34.3590   29.4250   45.4080 N   0  0  0  0  0  0  0  0  0  0  0  0
   33.3700   29.0330   46.2360 C   0  0  0  0  0  0  0  0  0  0  0  0
   33.5160   29.2500   47.5470 N   0  0  0  0  0  0  0  0  0  0  0  0
   36.1490   30.2390   45.0640 H   0  0  0  0  0  0  0  0  0  0  0  0
   32.4650   28.5520   45.8940 H   0  0  0  0  0  0  0  0  0  0  0  0
   34.7800   30.1910   49.5080 C   0  0  0  0  0  0  0  0  0  0  0  0
   33.9630   29.5790   50.4870 C   0  0  0  0  0  0  0  0  0  0  0  0
   35.2970   28.9090   50.2550 C   0  0  0  0  0  0  0  0  0  0  0  0
   35.5050   31.0310   49.7610 H   0  0  0  0  0  0  0  0  0  0  0  0
   33.0960   28.9570   50.1260 H   0  0  0  0  0  0  0  0  0  0  0  0
   33.7450   30.0610   51.4530 H   0  0  0  0  0  0  0  0  0  0  0  0
   36.0240   29.0930   51.0560 H   0  0  0  0  0  0  0  0  0  0  0  0
   35.3690   27.9790   49.7110 H   0  0  0  0  0  0  0  0  0  0  0  0
   36.9110   30.8880   47.6820 C   0  0  0  0  0  0  0  0  0  0  0  0
   36.9570   30.7920   48.7850 H   0  0  0  0  0  0  0  0  0  0  0  0
   36.8150   31.9890   47.4020 H   0  0  0  0  0  0  0  0  0  0  0  0
   38.2100   30.4710   47.1260 C   0  0  0  0  0  0  0  0  0  0  0  0
   38.0580   29.6660   46.3420 H   0  0  0  0  0  0  0  0  0  0  0  0
   38.8320   29.9260   47.8960 H   0  0  0  0  0  0  0  0  0  0  0  0
   39.4350   31.0910   45.1780 C   0  0  0  0  0  0  0  0  0  0  0  0
   39.0340   31.4900   46.4620 C   0  0  0  0  0  0  0  0  0  0  0  0
   39.4930   32.7430   46.7970 C   0  0  0  0  0  0  0  0  0  0  0  0
   39.1720   33.0610   47.7750 H   0  0  0  0  0  0  0  0  0  0  0  0
   40.2620   33.5720   46.0190 C   0  0  0  0  0  0  0  0  0  0  0  0
   40.5290   34.5100   46.4370 H   0  0  0  0  0  0  0  0  0  0  0  0
   40.6390   33.1500   44.7640 C   0  0  0  0  0  3  0  0  0  0  0  0
   40.2180   31.9050   44.3540 C   0  0  0  0  0  3  0  0  0  0  0  0
   38.7890   28.8270   44.0490 N   0  0  0  0  0  0  0  0  0  0  0  0
   39.0860   29.8280   44.5470 C   0  0  0  0  0  0  0  0  0  0  0  0
  1  9  1  0  0  0  0
  2 17  1  0  0  0  0
  2  1  2  0  0  0  0
  3  2  1  0  0  0  0
  4  3  2  0  0  0  0
  4  5  1  0  0  0  0
  5  6  2  0  0  0  0
  6  1  1  0  0  0  0
  7  3  1  0  0  0  0
  8  5  1  0  0  0  0
  9 12  1  0  0  0  0
  9 11  1  0  0  0  0
  9 10  1  0  0  0  0
 10 14  1  0  0  0  0
 11 10  1  0  0  0  0
 11 15  1  0  0  0  0
 13 10  1  0  0  0  0
 16 11  1  0  0  0  0
 17 18  1  0  0  0  0
 19 17  1  0  0  0  0
 20 17  1  0  0  0  0
 20 22  1  0  0  0  0
 21 20  1  0  0  0  0
 23 24  1  0  0  0  0
 24 25  2  0  0  0  0
 24 20  1  0  0  0  0
 25 26  1  0  0  0  0
 27 28  1  0  0  0  0
 27 25  1  0  0  0  0
 29 27  2  0  0  0  0
 30 29  1  0  0  0  0
 30 23  2  0  0  0  0
 31 32  3  0  0  0  0
 32 23  1  0  0  0  0
M  END
>  <minimizedAffinity>
-5.04065371

>  <minimizedRMSD>
4.44499063

$$$$
