
 OpenBabel03272507163D

 27 29  0  0  1  0  0  0  0  0999 V2000
   36.0110   31.1790   49.9930 C   0  0  1  0  0  0  0  0  0  0  0  0
   34.8290   30.4290   49.6270 C   0  0  2  0  0  0  0  0  0  0  0  0
   35.9100   29.7040   50.4020 C   0  0  0  0  0  0  0  0  0  0  0  0
   36.0870   31.8600   50.8840 H   0  0  0  0  0  0  0  0  0  0  0  0
   33.8750   30.6760   50.1350 H   0  0  0  0  0  0  0  0  0  0  0  0
   36.5210   28.9590   49.8930 H   0  0  0  0  0  0  0  0  0  0  0  0
   35.6180   29.4750   51.4450 H   0  0  0  0  0  0  0  0  0  0  0  0
   37.1220   31.4220   49.0090 C   0  0  0  0  0  0  0  0  0  0  0  0
   37.8520   32.5990   49.1810 C   0  0  0  0  0  0  0  0  0  0  0  0
   38.8630   32.8180   48.2340 C   0  0  0  0  0  0  0  0  0  0  0  0
   39.0840   31.9090   47.2210 N   0  0  0  0  0  0  0  0  0  0  0  0
   38.3370   30.7800   47.1090 C   0  0  0  0  0  0  0  0  0  0  0  0
   37.3470   30.5470   48.0210 N   0  0  0  0  0  0  0  0  0  0  0  0
   37.6720   33.3070   49.9770 H   0  0  0  0  0  0  0  0  0  0  0  0
   39.4520   33.7150   48.3300 H   0  0  0  0  0  0  0  0  0  0  0  0
   38.5740   30.1200   46.2870 H   0  0  0  0  0  0  0  0  0  0  0  0
   34.6720   30.0100   48.2960 O   0  0  0  0  0  0  0  0  0  0  0  0
   33.1080   29.0070   46.8720 C   0  0  0  0  0  0  0  0  0  0  0  0
   34.0790   28.8590   47.8600 C   0  0  0  0  0  0  0  0  0  0  0  0
   34.3280   27.5680   48.2810 C   0  0  0  0  0  0  0  0  0  0  0  0
   35.0770   27.4610   49.0430 H   0  0  0  0  0  0  0  0  0  0  0  0
   33.6570   26.4930   47.7560 C   0  0  0  0  0  0  0  0  0  0  0  0
   33.9250   25.5260   48.1550 H   0  0  0  0  0  0  0  0  0  0  0  0
   32.6940   26.6180   46.7790 C   0  0  0  0  0  3  0  0  0  0  0  0
   32.4410   27.9170   46.3540 C   0  0  0  0  0  3  0  0  0  0  0  0
   32.4600   31.3300   45.8970 N   0  0  0  0  0  0  0  0  0  0  0  0
   32.7430   30.2850   46.3360 C   0  0  0  0  0  0  0  0  0  0  0  0
  1  3  1  0  0  0  0
  1  4  1  1  0  0  0
  2  1  1  0  0  0  0
  2  5  1  1  0  0  0
  2  3  1  0  0  0  0
  3  7  1  0  0  0  0
  6  3  1  0  0  0  0
  8  9  1  0  0  0  0
  8  1  1  0  0  0  0
  9 14  1  0  0  0  0
 10 15  1  0  0  0  0
 10  9  2  0  0  0  0
 11 10  1  0  0  0  0
 12 11  2  0  0  0  0
 12 13  1  0  0  0  0
 13  8  2  0  0  0  0
 16 12  1  0  0  0  0
 17  2  1  0  0  0  0
 18 19  1  0  0  0  0
 19 20  2  0  0  0  0
 19 17  1  0  0  0  0
 20 21  1  0  0  0  0
 22 23  1  0  0  0  0
 22 20  1  0  0  0  0
 24 22  2  0  0  0  0
 25 24  1  0  0  0  0
 25 18  2  0  0  0  0
 26 27  3  0  0  0  0
 27 18  1  0  0  0  0
M  END
>  <minimizedAffinity>
-4.90713501

>  <minimizedRMSD>
1.80445647

$$$$
