REMARK  Name = 
REMARK  10 active torsions:
REMARK  status: ('A' for Active; 'I' for Inactive)
REMARK    1  A    between atoms: C_3  and  C_12
REMARK    2  A    between atoms: C_7  and  C_15
REMARK    3  A    between atoms: C_10  and  N_14
REMARK    4  A    between atoms: C_15  and  C_16
REMARK    5  A    between atoms: C_16  and  O_17
REMARK    6  A    between atoms: O_17  and  P_19
REMARK    7  A    between atoms: P_19  and  O_20
REMARK    8  A    between atoms: P_19  and  O_21
REMARK    9  A    between atoms: O_21  and  C_37
REMARK   10  A    between atoms: C_35  and  C_36
REMARK                            x       y       z     vdW  Elec       q    Type
REMARK                         _______ _______ _______ _____ _____    ______ ____
ROOT
ATOM      1  C   UNL     1      34.908  29.401  48.877  0.00  0.00    +0.000 C 
ATOM      2  H   UNL     1      34.292  30.243  49.314  0.00  0.00    +0.000 HD
ATOM      3  H   UNL     1      35.831  29.411  49.492  0.00  0.00    +0.000 HD
ENDROOT
BRANCH   1  10
ATOM      4 CL   UNL     1      37.649  30.447  48.518  0.00  0.00    +0.000 Cl
ATOM      5  C   UNL     1      36.481  30.304  47.203  0.00  0.00    +0.000 A 
ATOM      6  C   UNL     1      36.836  30.692  45.947  0.00  0.00    +0.000 A 
ATOM      7  C   UNL     1      35.937  30.583  44.922  0.00  0.00    +0.000 A 
ATOM      8  C   UNL     1      34.681  30.077  45.191  0.00  0.00    +0.000 A 
ATOM      9  C   UNL     1      34.365  29.693  46.495  0.00  0.00    +0.000 A 
ATOM     10  C   UNL     1      35.244  29.793  47.528  0.00  0.00    +0.000 A 
ATOM     11  H   UNL     1      36.263  30.907  43.928  0.00  0.00    +0.000 HD
ATOM     12  H   UNL     1      34.047  30.034  44.308  0.00  0.00    +0.000 HD
ATOM     13  H   UNL     1      33.393  29.346  46.490  0.00  0.00    +0.000 HD
BRANCH   6  18
ATOM     14  C   UNL     1      39.850  32.830  45.969  0.00  0.00    +0.000 A 
ATOM     15  C   UNL     1      40.703  32.104  45.087  0.00  0.00    +0.000 A 
ATOM     16  C   UNL     1      40.205  30.923  44.531  0.00  0.00    +0.000 A 
ATOM     17  N   UNL     1      38.951  30.523  44.849  0.00  0.00    +0.000 NA
ATOM     18  C   UNL     1      38.168  31.226  45.682  0.00  0.00    +0.000 A 
ATOM     19  N   UNL     1      38.620  32.369  46.234  0.00  0.00    +0.000 NA
ATOM     20  H   UNL     1      40.209  33.744  46.411  0.00  0.00    +0.000 HD
ATOM     21  H   UNL     1      41.688  32.506  44.897  0.00  0.00    +0.000 HD
BRANCH  16  22
ATOM     22  N   UNL     1      41.072  30.235  43.667  0.00  0.00    +0.000 N 
ATOM     23  H   UNL     1      41.026  30.208  42.609  0.00  0.00    +0.000 HD
ATOM     24  H   UNL     1      41.741  29.779  44.318  0.00  0.00    +0.000 HD
ENDBRANCH  16  22
ENDBRANCH   6  18
ENDBRANCH   1  10
BRANCH   1  25
ATOM     25  C   UNL     1      34.198  28.149  49.102  0.00  0.00    +0.000 C 
ATOM     26  H   UNL     1      34.282  27.483  48.209  0.00  0.00    +0.000 HD
ATOM     27  H   UNL     1      34.637  27.548  49.933  0.00  0.00    +0.000 HD
BRANCH  25  28
ATOM     28  O   UNL     1      32.875  28.357  49.425  0.00  0.00    +0.000 OA
BRANCH  28  30
ATOM     29  O   UNL     1      32.638  26.602  47.483  0.00  0.00    +0.000 OA
ATOM     30  P   UNL     1      31.860  27.538  48.333  0.00  0.00    +0.000 P 
BRANCH  30  31
ATOM     31  O   UNL     1      31.105  28.787  47.435  0.00  0.00    +0.000 OA
ATOM     32  H   UNL     1      31.064  29.630  47.934  0.00  0.00    +0.000 HD
ENDBRANCH  30  31
BRANCH  30  33
ATOM     33  O   UNL     1      30.667  26.714  49.133  0.00  0.00    +0.000 OA
BRANCH  33  35
ATOM     34  C   UNL     1      29.408  24.935  47.830  0.00  0.00    +0.000 A 
ATOM     35  C   UNL     1      29.628  26.018  48.640  0.00  0.00    +0.000 A 
ATOM     36  C   UNL     1      28.461  26.629  49.136  0.00  0.00    +0.000 A 
ATOM     37  H   UNL     1      28.336  27.502  49.798  0.00  0.00    +0.000 HD
ATOM     38  C   UNL     1      27.175  26.163  48.824  0.00  0.00    +0.000 A 
ATOM     39  H   UNL     1      26.235  26.562  49.154  0.00  0.00    +0.000 HD
ATOM     40  C   UNL     1      27.031  25.065  48.001  0.00  0.00    +0.000 A 
ATOM     41  C   UNL     1      28.162  24.453  47.504  0.00  0.00    +0.000 A 
BRANCH  34  43
ATOM     42  N   UNL     1      31.522  23.814  46.920  0.00  0.00    +0.000 NA
ATOM     43  C   UNL     1      30.583  24.323  47.332  0.00  0.00    +0.000 C 
ENDBRANCH  34  43
ENDBRANCH  33  35
ENDBRANCH  30  33
ENDBRANCH  28  30
ENDBRANCH  25  28
ENDBRANCH   1  25
TORSDOF 10
