REMARK  Name = 
REMARK  6 active torsions:
REMARK  status: ('A' for Active; 'I' for Inactive)
REMARK    1  A    between atoms: C_3  and  C_10
REMARK    2  A    between atoms: C_7  and  N_16
REMARK    3  A    between atoms: C_14  and  C_18
REMARK    4  A    between atoms: C_25  and  O_26
REMARK    5  A    between atoms: O_26  and  C_41
REMARK    6  A    between atoms: C_39  and  C_40
REMARK                            x       y       z     vdW  Elec       q    Type
REMARK                         _______ _______ _______ _____ _____    ______ ____
ROOT
ATOM      1  C   UNL     1      39.188  32.193  42.554  0.00  0.00    +0.000 A 
ATOM      2  C   UNL     1      39.718  31.505  43.619  0.00  0.00    +0.000 A 
ATOM      3  C   UNL     1      40.618  30.472  43.466  0.00  0.00    +0.000 A 
ATOM      4  C   UNL     1      41.016  30.101  42.176  0.00  0.00    +0.000 A 
ATOM      5  N   UNL     1      41.848  29.168  41.724  0.00  0.00    +0.000 N 
ATOM      6  C   UNL     1      41.860  29.246  40.401  0.00  0.00    +0.000 A 
ATOM      7  N   UNL     1      41.029  30.236  40.010  0.00  0.00    +0.000 NA
ATOM      8  C   UNL     1      40.475  30.803  41.109  0.00  0.00    +0.000 A 
ATOM      9  C   UNL     1      39.573  31.837  41.254  0.00  0.00    +0.000 A 
ATOM     10  H   UNL     1      38.486  33.012  42.757  0.00  0.00    +0.000 HD
ATOM     11  H   UNL     1      41.026  29.940  44.310  0.00  0.00    +0.000 HD
ATOM     12  H   UNL     1      42.397  28.491  42.309  0.00  0.00    +0.000 HD
ATOM     13  H   UNL     1      42.453  28.602  39.752  0.00  0.00    +0.000 HD
ENDROOT
BRANCH   2  14
ATOM     14  C   UNL     1      39.296  31.898  44.945  0.00  0.00    +0.000 C 
ATOM     15  O   UNL     1      38.194  32.547  45.060  0.00  0.00    +0.000 OA
ATOM     16  N   UNL     1      39.980  31.639  46.149  0.00  0.00    +0.000 N 
ATOM     17  H   UNL     1      40.871  31.117  46.089  0.00  0.00    +0.000 HD
BRANCH  16  24
ATOM     18  F   UNL     1      38.131  30.152  47.488  0.00  0.00    +0.000 F 
ATOM     19  C   UNL     1      38.377  31.389  47.980  0.00  0.00    +0.000 A 
ATOM     20  C   UNL     1      37.718  31.835  49.086  0.00  0.00    +0.000 A 
ATOM     21  C   UNL     1      38.020  33.103  49.525  0.00  0.00    +0.000 A 
ATOM     22  C   UNL     1      38.939  33.903  48.899  0.00  0.00    +0.000 A 
ATOM     23  C   UNL     1      39.604  33.429  47.768  0.00  0.00    +0.000 A 
ATOM     24  C   UNL     1      39.312  32.156  47.312  0.00  0.00    +0.000 A 
ATOM     25  H   UNL     1      37.500  33.464  50.404  0.00  0.00    +0.000 HD
ATOM     26  H   UNL     1      39.117  34.888  49.311  0.00  0.00    +0.000 HD
ATOM     27  H   UNL     1      40.331  34.055  47.268  0.00  0.00    +0.000 HD
BRANCH  20  30
ATOM     28  C   UNL     1      36.073  29.354  51.436  0.00  0.00    +0.000 A 
ATOM     29  C   UNL     1      37.042  30.212  50.854  0.00  0.00    +0.000 A 
ATOM     30  C   UNL     1      36.746  30.939  49.717  0.00  0.00    +0.000 A 
ATOM     31  N   UNL     1      35.490  30.794  49.187  0.00  0.00    +0.000 NA
ATOM     32  C   UNL     1      34.577  29.979  49.744  0.00  0.00    +0.000 A 
ATOM     33  N   UNL     1      34.860  29.277  50.840  0.00  0.00    +0.000 NA
ATOM     34  H   UNL     1      36.358  28.807  52.327  0.00  0.00    +0.000 HD
ATOM     35  H   UNL     1      38.038  30.324  51.278  0.00  0.00    +0.000 HD
ATOM     36  H   UNL     1      33.610  29.935  49.247  0.00  0.00    +0.000 HD
ENDBRANCH  20  30
ENDBRANCH  16  24
ENDBRANCH   2  14
BRANCH   9  37
ATOM     37  O   UNL     1      39.044  32.517  40.188  0.00  0.00    +0.000 OA
BRANCH  37  39
ATOM     38  C   UNL     1      36.793  33.267  39.810  0.00  0.00    +0.000 A 
ATOM     39  C   UNL     1      38.100  33.515  40.248  0.00  0.00    +0.000 A 
ATOM     40  C   UNL     1      38.337  34.800  40.723  0.00  0.00    +0.000 A 
ATOM     41  H   UNL     1      39.349  35.013  41.069  0.00  0.00    +0.000 HD
ATOM     42  C   UNL     1      37.347  35.775  40.761  0.00  0.00    +0.000 A 
ATOM     43  H   UNL     1      37.577  36.764  41.140  0.00  0.00    +0.000 HD
ATOM     44  C   UNL     1      36.072  35.486  40.319  0.00  0.00    +0.000 A 
ATOM     45  C   UNL     1      35.795  34.222  39.840  0.00  0.00    +0.000 A 
BRANCH  38  47
ATOM     46  N   UNL     1      36.078  30.955  38.829  0.00  0.00    +0.000 NA
ATOM     47  C   UNL     1      36.384  31.982  39.262  0.00  0.00    +0.000 C 
ENDBRANCH  38  47
ENDBRANCH  37  39
ENDBRANCH   9  37
TORSDOF 6
