
 OpenBabel03272501593D

 32 34  0  0  0  0  0  0  0  0999 V2000
   37.7520   24.0170   32.4930 C   0  0  0  0  0  0  0  0  0  0  0  0
   38.4460   25.1930   32.5560 C   0  0  0  0  0  0  0  0  0  0  0  0
   38.9200   25.4010   33.8290 C   0  0  0  0  0  0  0  0  0  0  0  0
   38.4990   24.3310   34.5310 N   0  0  0  0  0  0  0  0  0  0  0  0
   37.8060   23.5120   33.7300 N   0  0  0  0  0  0  0  0  0  0  0  0
   38.6120   25.8860   31.7200 H   0  0  0  0  0  0  0  0  0  0  0  0
   39.5020   26.2050   34.2600 H   0  0  0  0  0  0  0  0  0  0  0  0
   39.6640   23.1330   36.3470 C   0  0  0  0  0  0  0  0  0  0  0  0
   38.6760   23.9760   35.9040 C   0  0  0  0  0  0  0  0  0  0  0  0
   37.8210   24.4900   36.8810 C   0  0  0  0  0  0  0  0  0  0  0  0
   37.0480   25.1540   36.5100 H   0  0  0  0  0  0  0  0  0  0  0  0
   37.9000   24.2150   38.2300 C   0  0  0  0  0  0  0  0  0  0  0  0
   37.1640   24.6910   38.8620 H   0  0  0  0  0  0  0  0  0  0  0  0
   38.9090   23.3610   38.6430 C   0  0  0  0  0  3  0  0  0  0  0  0
   39.7770   22.8320   37.6860 C   0  0  0  0  0  3  0  0  0  0  0  0
   41.3180   22.0880   34.6880 N   0  0  0  0  0  0  0  0  0  0  0  0
   40.5750   22.5660   35.4260 C   0  0  0  0  0  0  0  0  0  0  0  0
   37.0730   23.4190   31.2850 C   0  0  0  0  0  0  0  0  0  0  0  0
   37.6870   22.5900   30.9410 H   0  0  0  0  0  0  0  0  0  0  0  0
   36.9980   24.2040   30.5070 H   0  0  0  0  0  0  0  0  0  0  0  0
   35.7250   22.9500   31.7690 C   0  0  0  0  0  0  0  0  0  0  0  0
   34.9350   23.1780   31.0110 H   0  0  0  0  0  0  0  0  0  0  0  0
   35.3910   23.4390   32.7080 H   0  0  0  0  0  0  0  0  0  0  0  0
   35.3840   19.5380   33.1460 C   0  0  0  0  0  0  0  0  0  0  0  0
   35.7710   18.7350   32.0600 C   0  0  0  0  0  0  0  0  0  0  0  0
   36.1430   19.3730   30.8740 C   0  0  0  0  0  0  0  0  0  0  0  0
   36.1140   20.7320   30.8220 N   0  0  0  0  0  0  0  0  0  0  0  0
   35.7320   21.4650   31.8990 C   0  0  0  0  0  0  0  0  0  0  0  0
   35.3760   20.8640   33.0330 N   0  0  0  0  0  0  0  0  0  0  0  0
   35.1140   18.9670   34.0200 H   0  0  0  0  0  0  0  0  0  0  0  0
   35.8320   17.6650   31.9870 H   0  0  0  0  0  0  0  0  0  0  0  0
   36.4640   18.8940   29.9570 H   0  0  0  0  0  0  0  0  0  0  0  0
  1  2  1  0  0  0  0
  1  5  2  0  0  0  0
  2  3  2  0  0  0  0
  3  7  1  0  0  0  0
  3  4  1  0  0  0  0
  4  9  1  0  0  0  0
  5  4  1  0  0  0  0
  6  2  1  0  0  0  0
  8 15  1  0  0  0  0
  9  8  2  0  0  0  0
  9 10  1  0  0  0  0
 10 12  2  0  0  0  0
 11 10  1  0  0  0  0
 12 14  1  0  0  0  0
 12 13  1  0  0  0  0
 15 14  2  0  0  0  0
 16 17  3  0  0  0  0
 17  8  1  0  0  0  0
 18 21  1  0  0  0  0
 18  1  1  0  0  0  0
 19 18  1  0  0  0  0
 20 18  1  0  0  0  0
 21 28  1  0  0  0  0
 21 23  1  0  0  0  0
 22 21  1  0  0  0  0
 24 30  1  0  0  0  0
 25 24  2  0  0  0  0
 26 25  1  0  0  0  0
 27 26  2  0  0  0  0
 27 28  1  0  0  0  0
 28 29  2  0  0  0  0
 29 24  1  0  0  0  0
 31 25  1  0  0  0  0
 32 26  1  0  0  0  0
M  END
>  <minimizedAffinity>
-5.12205362

$$$$

 OpenBabel03272501593D

 32 34  0  0  0  0  0  0  0  0999 V2000
   36.6500   27.9910   33.4420 C   0  0  0  0  0  0  0  0  0  0  0  0
   36.3510   28.7920   32.3750 C   0  0  0  0  0  0  0  0  0  0  0  0
   35.6320   29.8880   32.7850 C   0  0  0  0  0  0  0  0  0  0  0  0
   35.5030   29.7340   34.1170 N   0  0  0  0  0  0  0  0  0  0  0  0
   36.1100   28.6050   34.5010 N   0  0  0  0  0  0  0  0  0  0  0  0
   36.6370   28.6020   31.3310 H   0  0  0  0  0  0  0  0  0  0  0  0
   35.2230   30.7280   32.2410 H   0  0  0  0  0  0  0  0  0  0  0  0
   33.5070   30.5170   35.3390 C   0  0  0  0  0  0  0  0  0  0  0  0
   34.8570   30.5460   35.1020 C   0  0  0  0  0  0  0  0  0  0  0  0
   35.6020   31.4300   35.8850 C   0  0  0  0  0  0  0  0  0  0  0  0
   36.6680   31.4370   35.6810 H   0  0  0  0  0  0  0  0  0  0  0  0
   35.0850   32.2560   36.8600 C   0  0  0  0  0  0  0  0  0  0  0  0
   35.7910   32.8850   37.3830 H   0  0  0  0  0  0  0  0  0  0  0  0
   33.7180   32.2010   37.0750 C   0  0  0  0  0  3  0  0  0  0  0  0
   32.9500   31.3270   36.3040 C   0  0  0  0  0  3  0  0  0  0  0  0
   31.9920   28.9620   33.9730 N   0  0  0  0  0  0  0  0  0  0  0  0
   32.6760   29.6510   34.5920 C   0  0  0  0  0  0  0  0  0  0  0  0
   37.4240   26.6960   33.4250 C   0  0  0  0  0  0  0  0  0  0  0  0
   38.0390   26.6930   32.5280 H   0  0  0  0  0  0  0  0  0  0  0  0
   36.6980   25.8600   33.4090 H   0  0  0  0  0  0  0  0  0  0  0  0
   38.2650   26.7110   34.6760 C   0  0  0  0  0  0  0  0  0  0  0  0
   37.8520   27.4410   35.4170 H   0  0  0  0  0  0  0  0  0  0  0  0
   39.3170   27.0190   34.5050 H   0  0  0  0  0  0  0  0  0  0  0  0
   38.0190   24.0850   37.2630 C   0  0  0  0  0  0  0  0  0  0  0  0
   38.0460   22.9060   36.4990 C   0  0  0  0  0  0  0  0  0  0  0  0
   38.1480   23.0280   35.1110 C   0  0  0  0  0  0  0  0  0  0  0  0
   38.2160   24.2710   34.5640 N   0  0  0  0  0  0  0  0  0  0  0  0
   38.1860   25.3810   35.3450 C   0  0  0  0  0  0  0  0  0  0  0  0
   38.0890   25.2730   36.6690 N   0  0  0  0  0  0  0  0  0  0  0  0
   37.9390   23.9010   38.3230 H   0  0  0  0  0  0  0  0  0  0  0  0
   38.0000   21.8810   36.8190 H   0  0  0  0  0  0  0  0  0  0  0  0
   38.1810   22.2180   34.3940 H   0  0  0  0  0  0  0  0  0  0  0  0
  1  5  2  0  0  0  0
  2  3  2  0  0  0  0
  2  1  1  0  0  0  0
  3  4  1  0  0  0  0
  4  5  1  0  0  0  0
  4  9  1  0  0  0  0
  6  2  1  0  0  0  0
  7  3  1  0  0  0  0
  8 15  1  0  0  0  0
  9  8  2  0  0  0  0
  9 10  1  0  0  0  0
 10 12  2  0  0  0  0
 11 10  1  0  0  0  0
 12 14  1  0  0  0  0
 12 13  1  0  0  0  0
 15 14  2  0  0  0  0
 16 17  3  0  0  0  0
 17  8  1  0  0  0  0
 18  1  1  0  0  0  0
 18 21  1  0  0  0  0
 19 18  1  0  0  0  0
 20 18  1  0  0  0  0
 21 28  1  0  0  0  0
 21 22  1  0  0  0  0
 23 21  1  0  0  0  0
 24 30  1  0  0  0  0
 25 31  1  0  0  0  0
 25 24  2  0  0  0  0
 26 25  1  0  0  0  0
 27 26  2  0  0  0  0
 27 28  1  0  0  0  0
 28 29  2  0  0  0  0
 29 24  1  0  0  0  0
 32 26  1  0  0  0  0
M  END
>  <minimizedAffinity>
-5.11868906

$$$$

 OpenBabel03272501593D

 32 34  0  0  0  0  0  0  0  0999 V2000
   38.4150   24.3790   35.9940 C   0  0  0  0  0  0  0  0  0  0  0  0
   39.2690   23.4180   36.4590 C   0  0  0  0  0  0  0  0  0  0  0  0
   39.0070   22.2120   35.8560 C   0  0  0  0  0  0  0  0  0  0  0  0
   37.9800   22.4620   35.0210 N   0  0  0  0  0  0  0  0  0  0  0  0
   37.6340   23.7520   35.1080 N   0  0  0  0  0  0  0  0  0  0  0  0
   40.0590   23.5700   37.2070 H   0  0  0  0  0  0  0  0  0  0  0  0
   39.4630   21.2370   35.9640 H   0  0  0  0  0  0  0  0  0  0  0  0
   36.1530   20.8920   34.4880 C   0  0  0  0  0  0  0  0  0  0  0  0
   37.2650   21.6080   34.1250 C   0  0  0  0  0  0  0  0  0  0  0  0
   37.6850   21.4660   32.8010 C   0  0  0  0  0  0  0  0  0  0  0  0
   38.5650   22.0420   32.5340 H   0  0  0  0  0  0  0  0  0  0  0  0
   37.0720   20.6730   31.8540 C   0  0  0  0  0  0  0  0  0  0  0  0
   37.5160   20.6680   30.8690 H   0  0  0  0  0  0  0  0  0  0  0  0
   35.9520   19.9640   32.2530 C   0  0  0  0  0  3  0  0  0  0  0  0
   35.5120   20.0870   33.5720 C   0  0  0  0  0  3  0  0  0  0  0  0
   35.2360   21.0390   36.8780 N   0  0  0  0  0  0  0  0  0  0  0  0
   35.6580   20.9760   35.8090 C   0  0  0  0  0  0  0  0  0  0  0  0
   38.3680   25.8330   36.3950 C   0  0  0  0  0  0  0  0  0  0  0  0
   38.8490   25.9200   37.3680 H   0  0  0  0  0  0  0  0  0  0  0  0
   37.3070   26.1420   36.4500 H   0  0  0  0  0  0  0  0  0  0  0  0
   39.1350   26.5720   35.3280 C   0  0  0  0  0  0  0  0  0  0  0  0
   39.7260   25.8560   34.7040 H   0  0  0  0  0  0  0  0  0  0  0  0
   39.8700   27.3000   35.7290 H   0  0  0  0  0  0  0  0  0  0  0  0
   36.2240   28.4060   33.9830 C   0  0  0  0  0  0  0  0  0  0  0  0
   36.4710   28.3900   32.5990 C   0  0  0  0  0  0  0  0  0  0  0  0
   37.6290   27.7520   32.1490 C   0  0  0  0  0  0  0  0  0  0  0  0
   38.4610   27.1790   33.0600 N   0  0  0  0  0  0  0  0  0  0  0  0
   38.1780   27.2210   34.3880 C   0  0  0  0  0  0  0  0  0  0  0  0
   37.0760   27.8280   34.8250 N   0  0  0  0  0  0  0  0  0  0  0  0
   35.3110   28.9180   34.2440 H   0  0  0  0  0  0  0  0  0  0  0  0
   35.8910   28.8050   31.7960 H   0  0  0  0  0  0  0  0  0  0  0  0
   37.9540   27.6570   31.1210 H   0  0  0  0  0  0  0  0  0  0  0  0
  1 18  1  0  0  0  0
  1  2  1  0  0  0  0
  2  6  1  0  0  0  0
  3  7  1  0  0  0  0
  3  2  2  0  0  0  0
  4  5  1  0  0  0  0
  4  3  1  0  0  0  0
  5  1  2  0  0  0  0
  8 17  1  0  0  0  0
  9  8  1  0  0  0  0
  9  4  1  0  0  0  0
 10  9  2  0  0  0  0
 11 10  1  0  0  0  0
 12 14  2  0  0  0  0
 12 10  1  0  0  0  0
 13 12  1  0  0  0  0
 14 15  1  0  0  0  0
 15  8  2  0  0  0  0
 17 16  3  0  0  0  0
 18 20  1  0  0  0  0
 18 19  1  0  0  0  0
 21 23  1  0  0  0  0
 21 18  1  0  0  0  0
 22 21  1  0  0  0  0
 24 30  1  0  0  0  0
 24 29  1  0  0  0  0
 25 24  2  0  0  0  0
 26 25  1  0  0  0  0
 26 27  2  0  0  0  0
 27 28  1  0  0  0  0
 28 29  2  0  0  0  0
 28 21  1  0  0  0  0
 31 25  1  0  0  0  0
 32 26  1  0  0  0  0
M  END
>  <minimizedAffinity>
-5.04198742

$$$$

 OpenBabel03272501593D

 32 34  0  0  0  0  0  0  0  0999 V2000
   36.4410   28.2070   32.9680 C   0  0  0  0  0  0  0  0  0  0  0  0
   36.1820   29.1630   32.0260 C   0  0  0  0  0  0  0  0  0  0  0  0
   35.5110   30.2210   32.5900 C   0  0  0  0  0  0  0  0  0  0  0  0
   35.3710   29.8860   33.8870 N   0  0  0  0  0  0  0  0  0  0  0  0
   35.9260   28.6870   34.1050 N   0  0  0  0  0  0  0  0  0  0  0  0
   36.4620   29.1100   30.9650 H   0  0  0  0  0  0  0  0  0  0  0  0
   35.1410   31.1470   32.1710 H   0  0  0  0  0  0  0  0  0  0  0  0
   33.4250   30.4800   35.2830 C   0  0  0  0  0  0  0  0  0  0  0  0
   34.7590   30.5780   34.9780 C   0  0  0  0  0  0  0  0  0  0  0  0
   35.5200   31.4080   35.8020 C   0  0  0  0  0  0  0  0  0  0  0  0
   36.5730   31.4710   35.5440 H   0  0  0  0  0  0  0  0  0  0  0  0
   35.0350   32.1200   36.8790 C   0  0  0  0  0  0  0  0  0  0  0  0
   35.7520   32.7200   37.4220 H   0  0  0  0  0  0  0  0  0  0  0  0
   33.6850   31.9980   37.1600 C   0  0  0  0  0  3  0  0  0  0  0  0
   32.9000   31.1760   36.3500 C   0  0  0  0  0  3  0  0  0  0  0  0
   31.9040   28.9810   33.8630 N   0  0  0  0  0  0  0  0  0  0  0  0
   32.5780   29.6610   34.5010 C   0  0  0  0  0  0  0  0  0  0  0  0
   37.1570   26.8940   32.7660 C   0  0  0  0  0  0  0  0  0  0  0  0
   37.0860   26.3350   33.6970 H   0  0  0  0  0  0  0  0  0  0  0  0
   38.2130   27.1100   32.5150 H   0  0  0  0  0  0  0  0  0  0  0  0
   36.4240   26.2020   31.6460 C   0  0  0  0  0  0  0  0  0  0  0  0
   36.9470   26.3710   30.6720 H   0  0  0  0  0  0  0  0  0  0  0  0
   35.3870   26.5680   31.4960 H   0  0  0  0  0  0  0  0  0  0  0  0
   35.6540   22.5950   31.4210 C   0  0  0  0  0  0  0  0  0  0  0  0
   36.5820   22.0340   32.3150 C   0  0  0  0  0  0  0  0  0  0  0  0
   37.4560   22.8970   32.9810 C   0  0  0  0  0  0  0  0  0  0  0  0
   37.3720   24.2330   32.7360 N   0  0  0  0  0  0  0  0  0  0  0  0
   36.4580   24.7280   31.8630 C   0  0  0  0  0  0  0  0  0  0  0  0
   35.6220   23.9100   31.2250 N   0  0  0  0  0  0  0  0  0  0  0  0
   35.0200   21.8600   30.9520 H   0  0  0  0  0  0  0  0  0  0  0  0
   36.7380   21.0050   32.5840 H   0  0  0  0  0  0  0  0  0  0  0  0
   38.2200   22.6170   33.6940 H   0  0  0  0  0  0  0  0  0  0  0  0
  1  5  2  0  0  0  0
  2  3  2  0  0  0  0
  2  1  1  0  0  0  0
  3  4  1  0  0  0  0
  4  5  1  0  0  0  0
  4  9  1  0  0  0  0
  6  2  1  0  0  0  0
  7  3  1  0  0  0  0
  8 15  1  0  0  0  0
  9  8  2  0  0  0  0
  9 10  1  0  0  0  0
 10 12  2  0  0  0  0
 11 10  1  0  0  0  0
 12 14  1  0  0  0  0
 12 13  1  0  0  0  0
 15 14  2  0  0  0  0
 16 17  3  0  0  0  0
 17  8  1  0  0  0  0
 18  1  1  0  0  0  0
 18 19  1  0  0  0  0
 20 18  1  0  0  0  0
 21 28  1  0  0  0  0
 21 18  1  0  0  0  0
 22 21  1  0  0  0  0
 23 21  1  0  0  0  0
 24 25  1  0  0  0  0
 25 31  1  0  0  0  0
 25 26  2  0  0  0  0
 26 32  1  0  0  0  0
 27 26  1  0  0  0  0
 28 27  2  0  0  0  0
 29 24  2  0  0  0  0
 29 28  1  0  0  0  0
 30 24  1  0  0  0  0
M  END
>  <minimizedAffinity>
-4.96747494

$$$$

 OpenBabel03272501593D

 32 34  0  0  0  0  0  0  0  0999 V2000
   37.4590   24.9120   33.0450 C   0  0  0  0  0  0  0  0  0  0  0  0
   36.5430   25.3900   32.1500 C   0  0  0  0  0  0  0  0  0  0  0  0
   35.9200   24.3500   31.5020 C   0  0  0  0  0  0  0  0  0  0  0  0
   36.4780   23.2390   32.0210 N   0  0  0  0  0  0  0  0  0  0  0  0
   37.3920   23.5810   32.9380 N   0  0  0  0  0  0  0  0  0  0  0  0
   36.3210   26.4490   31.9620 H   0  0  0  0  0  0  0  0  0  0  0  0
   35.1540   24.3310   30.7390 H   0  0  0  0  0  0  0  0  0  0  0  0
   37.0760   21.0880   30.9700 C   0  0  0  0  0  0  0  0  0  0  0  0
   36.2480   21.8540   31.7500 C   0  0  0  0  0  0  0  0  0  0  0  0
   35.1340   21.2070   32.2870 C   0  0  0  0  0  0  0  0  0  0  0  0
   34.4920   21.8310   32.9020 H   0  0  0  0  0  0  0  0  0  0  0  0
   34.8160   19.8790   32.0930 C   0  0  0  0  0  0  0  0  0  0  0  0
   33.9180   19.5230   32.5770 H   0  0  0  0  0  0  0  0  0  0  0  0
   35.6730   19.1340   31.3010 C   0  0  0  0  0  3  0  0  0  0  0  0
   36.7940   19.7580   30.7500 C   0  0  0  0  0  3  0  0  0  0  0  0
   39.1550   22.1440   29.9020 N   0  0  0  0  0  0  0  0  0  0  0  0
   38.2280   21.6620   30.3860 C   0  0  0  0  0  0  0  0  0  0  0  0
   38.3520   25.7170   33.9570 C   0  0  0  0  0  0  0  0  0  0  0  0
   38.3900   26.7320   33.5670 H   0  0  0  0  0  0  0  0  0  0  0  0
   39.3580   25.2550   33.9530 H   0  0  0  0  0  0  0  0  0  0  0  0
   37.6950   25.6680   35.3130 C   0  0  0  0  0  0  0  0  0  0  0  0
   36.6510   25.2760   35.2280 H   0  0  0  0  0  0  0  0  0  0  0  0
   37.6050   26.6590   35.8030 H   0  0  0  0  0  0  0  0  0  0  0  0
   40.1890   23.2450   36.5610 C   0  0  0  0  0  0  0  0  0  0  0  0
   39.6770   22.9100   37.8260 C   0  0  0  0  0  0  0  0  0  0  0  0
   38.4870   23.5180   38.2320 C   0  0  0  0  0  0  0  0  0  0  0  0
   37.8800   24.4010   37.3930 N   0  0  0  0  0  0  0  0  0  0  0  0
   38.4150   24.6920   36.1790 C   0  0  0  0  0  0  0  0  0  0  0  0
   39.5500   24.1160   35.7850 N   0  0  0  0  0  0  0  0  0  0  0  0
   41.1080   22.7310   36.3270 H   0  0  0  0  0  0  0  0  0  0  0  0
   40.0660   22.2340   38.5650 H   0  0  0  0  0  0  0  0  0  0  0  0
   37.9720   23.3640   39.1710 H   0  0  0  0  0  0  0  0  0  0  0  0
  1 18  1  0  0  0  0
  2  1  1  0  0  0  0
  3  4  1  0  0  0  0
  3  2  2  0  0  0  0
  4  5  1  0  0  0  0
  5  1  2  0  0  0  0
  6  2  1  0  0  0  0
  7  3  1  0  0  0  0
  8  9  1  0  0  0  0
  9  4  1  0  0  0  0
  9 10  2  0  0  0  0
 10 11  1  0  0  0  0
 12 10  1  0  0  0  0
 12 13  1  0  0  0  0
 14 12  2  0  0  0  0
 15  8  2  0  0  0  0
 15 14  1  0  0  0  0
 16 17  3  0  0  0  0
 17  8  1  0  0  0  0
 18 21  1  0  0  0  0
 19 18  1  0  0  0  0
 20 18  1  0  0  0  0
 21 23  1  0  0  0  0
 21 28  1  0  0  0  0
 22 21  1  0  0  0  0
 24 25  1  0  0  0  0
 25 26  2  0  0  0  0
 25 31  1  0  0  0  0
 26 32  1  0  0  0  0
 27 26  1  0  0  0  0
 28 27  2  0  0  0  0
 29 28  1  0  0  0  0
 29 24  2  0  0  0  0
 30 24  1  0  0  0  0
M  END
>  <minimizedAffinity>
-4.96641064

$$$$

 OpenBabel03272501593D

 32 34  0  0  0  0  0  0  0  0999 V2000
   36.2020   29.1600   32.5500 C   0  0  0  0  0  0  0  0  0  0  0  0
   35.6910   30.2010   31.8260 C   0  0  0  0  0  0  0  0  0  0  0  0
   34.8350   30.9470   32.5990 C   0  0  0  0  0  0  0  0  0  0  0  0
   34.8370   30.3360   33.8000 N   0  0  0  0  0  0  0  0  0  0  0  0
   35.6520   29.2750   33.7630 N   0  0  0  0  0  0  0  0  0  0  0  0
   35.9210   30.4270   30.7760 H   0  0  0  0  0  0  0  0  0  0  0  0
   34.2500   31.8300   32.3830 H   0  0  0  0  0  0  0  0  0  0  0  0
   34.5830   31.5690   35.9230 C   0  0  0  0  0  0  0  0  0  0  0  0
   34.1450   30.6400   35.0140 C   0  0  0  0  0  0  0  0  0  0  0  0
   32.9570   29.9790   35.3310 C   0  0  0  0  0  0  0  0  0  0  0  0
   32.6280   29.2480   34.5990 H   0  0  0  0  0  0  0  0  0  0  0  0
   32.2090   30.1920   36.4700 C   0  0  0  0  0  0  0  0  0  0  0  0
   31.3100   29.6010   36.5740 H   0  0  0  0  0  0  0  0  0  0  0  0
   32.6790   31.1370   37.3660 C   0  0  0  0  0  3  0  0  0  0  0  0
   33.8650   31.8110   37.0740 C   0  0  0  0  0  3  0  0  0  0  0  0
   36.7450   32.8820   35.5010 N   0  0  0  0  0  0  0  0  0  0  0  0
   35.7770   32.2860   35.6820 C   0  0  0  0  0  0  0  0  0  0  0  0
   37.1760   28.1090   32.0770 C   0  0  0  0  0  0  0  0  0  0  0  0
   38.1560   28.5770   32.0100 H   0  0  0  0  0  0  0  0  0  0  0  0
   36.8420   27.7480   31.0860 H   0  0  0  0  0  0  0  0  0  0  0  0
   37.1480   27.0290   33.1290 C   0  0  0  0  0  0  0  0  0  0  0  0
   36.3590   27.2450   33.8910 H   0  0  0  0  0  0  0  0  0  0  0  0
   38.0960   26.9330   33.6970 H   0  0  0  0  0  0  0  0  0  0  0  0
   36.9880   23.4380   32.2770 C   0  0  0  0  0  0  0  0  0  0  0  0
   35.9660   23.4030   31.3120 C   0  0  0  0  0  0  0  0  0  0  0  0
   35.3490   24.6080   30.9680 C   0  0  0  0  0  0  0  0  0  0  0  0
   35.7590   25.7530   31.5770 N   0  0  0  0  0  0  0  0  0  0  0  0
   36.7510   25.7360   32.5040 C   0  0  0  0  0  0  0  0  0  0  0  0
   37.3450   24.5900   32.8370 N   0  0  0  0  0  0  0  0  0  0  0  0
   37.4100   22.4670   32.4820 H   0  0  0  0  0  0  0  0  0  0  0  0
   35.5650   22.5660   30.7720 H   0  0  0  0  0  0  0  0  0  0  0  0
   34.5520   24.7410   30.2480 H   0  0  0  0  0  0  0  0  0  0  0  0
  1  5  2  0  0  0  0
  2  1  1  0  0  0  0
  2  3  2  0  0  0  0
  3  4  1  0  0  0  0
  4  9  1  0  0  0  0
  5  4  1  0  0  0  0
  6  2  1  0  0  0  0
  7  3  1  0  0  0  0
  8 15  1  0  0  0  0
  9 10  1  0  0  0  0
  9  8  2  0  0  0  0
 10 12  2  0  0  0  0
 11 10  1  0  0  0  0
 12 13  1  0  0  0  0
 12 14  1  0  0  0  0
 15 14  2  0  0  0  0
 16 17  3  0  0  0  0
 17  8  1  0  0  0  0
 18  1  1  0  0  0  0
 18 21  1  0  0  0  0
 19 18  1  0  0  0  0
 20 18  1  0  0  0  0
 21 23  1  0  0  0  0
 21 22  1  0  0  0  0
 24 30  1  0  0  0  0
 24 29  1  0  0  0  0
 25 24  2  0  0  0  0
 26 25  1  0  0  0  0
 26 27  2  0  0  0  0
 27 28  1  0  0  0  0
 28 29  2  0  0  0  0
 28 21  1  0  0  0  0
 31 25  1  0  0  0  0
 32 26  1  0  0  0  0
M  END
>  <minimizedAffinity>
-4.93210411

$$$$

 OpenBabel03272501593D

 32 34  0  0  0  0  0  0  0  0999 V2000
   38.5360   25.0830   36.1640 C   0  0  0  0  0  0  0  0  0  0  0  0
   38.1520   26.3480   36.5120 C   0  0  0  0  0  0  0  0  0  0  0  0
   38.6980   27.2690   35.6510 C   0  0  0  0  0  0  0  0  0  0  0  0
   39.4190   26.5370   34.7790 N   0  0  0  0  0  0  0  0  0  0  0  0
   39.3180   25.2390   35.0900 N   0  0  0  0  0  0  0  0  0  0  0  0
   37.4990   26.6110   37.3550 H   0  0  0  0  0  0  0  0  0  0  0  0
   38.6250   28.3470   35.6060 H   0  0  0  0  0  0  0  0  0  0  0  0
   39.7060   27.1110   32.3960 C   0  0  0  0  0  0  0  0  0  0  0  0
   40.2150   26.9240   33.6560 C   0  0  0  0  0  0  0  0  0  0  0  0
   41.5870   27.1320   33.8040 C   0  0  0  0  0  0  0  0  0  0  0  0
   41.9690   26.9790   34.8080 H   0  0  0  0  0  0  0  0  0  0  0  0
   42.4480   27.5050   32.7930 C   0  0  0  0  0  0  0  0  0  0  0  0
   43.4860   27.6280   33.0650 H   0  0  0  0  0  0  0  0  0  0  0  0
   41.9010   27.6860   31.5340 C   0  0  0  0  0  3  0  0  0  0  0  0
   40.5320   27.4830   31.3580 C   0  0  0  0  0  3  0  0  0  0  0  0
   37.2050   26.7730   31.9400 N   0  0  0  0  0  0  0  0  0  0  0  0
   38.3260   26.9220   32.1560 C   0  0  0  0  0  0  0  0  0  0  0  0
   38.1560   23.7920   36.8460 C   0  0  0  0  0  0  0  0  0  0  0  0
   37.0700   23.7370   36.8630 H   0  0  0  0  0  0  0  0  0  0  0  0
   38.5670   23.8100   37.8740 H   0  0  0  0  0  0  0  0  0  0  0  0
   38.7550   22.6970   36.0000 C   0  0  0  0  0  0  0  0  0  0  0  0
   39.2530   21.9320   36.6450 H   0  0  0  0  0  0  0  0  0  0  0  0
   39.5370   23.0510   35.2960 H   0  0  0  0  0  0  0  0  0  0  0  0
   36.7140   21.1580   33.3320 C   0  0  0  0  0  0  0  0  0  0  0  0
   35.6370   20.6150   34.0530 C   0  0  0  0  0  0  0  0  0  0  0  0
   35.6240   20.7850   35.4400 C   0  0  0  0  0  0  0  0  0  0  0  0
   36.6480   21.4610   36.0280 N   0  0  0  0  0  0  0  0  0  0  0  0
   37.6680   21.9670   35.2880 C   0  0  0  0  0  0  0  0  0  0  0  0
   37.6860   21.8090   33.9650 N   0  0  0  0  0  0  0  0  0  0  0  0
   36.6450   20.9820   32.2710 H   0  0  0  0  0  0  0  0  0  0  0  0
   34.7820   20.0680   33.6980 H   0  0  0  0  0  0  0  0  0  0  0  0
   34.8680   20.4280   36.1260 H   0  0  0  0  0  0  0  0  0  0  0  0
  1  2  1  0  0  0  0
  1 18  1  0  0  0  0
  2  6  1  0  0  0  0
  3  2  2  0  0  0  0
  4  5  1  0  0  0  0
  4  3  1  0  0  0  0
  5  1  2  0  0  0  0
  7  3  1  0  0  0  0
  8  9  1  0  0  0  0
  9 10  2  0  0  0  0
  9  4  1  0  0  0  0
 10 11  1  0  0  0  0
 12 13  1  0  0  0  0
 12 10  1  0  0  0  0
 14 12  2  0  0  0  0
 15 14  1  0  0  0  0
 15  8  2  0  0  0  0
 16 17  3  0  0  0  0
 17  8  1  0  0  0  0
 18 19  1  0  0  0  0
 18 20  1  0  0  0  0
 21 22  1  0  0  0  0
 21 18  1  0  0  0  0
 23 21  1  0  0  0  0
 24 29  2  0  0  0  0
 24 25  1  0  0  0  0
 25 26  2  0  0  0  0
 26 27  1  0  0  0  0
 26 32  1  0  0  0  0
 28 21  1  0  0  0  0
 28 27  2  0  0  0  0
 29 28  1  0  0  0  0
 30 24  1  0  0  0  0
 31 25  1  0  0  0  0
M  END
>  <minimizedAffinity>
-4.84926701

$$$$

 OpenBabel03272501593D

 32 34  0  0  0  0  0  0  0  0999 V2000
   36.5570   28.3140   33.4250 C   0  0  0  0  0  0  0  0  0  0  0  0
   36.1150   29.0910   32.3910 C   0  0  0  0  0  0  0  0  0  0  0  0
   35.1130   29.9290   32.8160 C   0  0  0  0  0  0  0  0  0  0  0  0
   34.9580   29.6420   34.1230 N   0  0  0  0  0  0  0  0  0  0  0  0
   35.8200   28.6820   34.4780 N   0  0  0  0  0  0  0  0  0  0  0  0
   36.4950   29.0650   31.3610 H   0  0  0  0  0  0  0  0  0  0  0  0
   34.5260   30.6740   32.2970 H   0  0  0  0  0  0  0  0  0  0  0  0
   34.3560   31.2920   35.8580 C   0  0  0  0  0  0  0  0  0  0  0  0
   34.0710   30.1790   35.1080 C   0  0  0  0  0  0  0  0  0  0  0  0
   32.8390   29.5700   35.3520 C   0  0  0  0  0  0  0  0  0  0  0  0
   32.6320   28.6930   34.7480 H   0  0  0  0  0  0  0  0  0  0  0  0
   31.9080   30.0020   36.2750 C   0  0  0  0  0  0  0  0  0  0  0  0
   30.9980   29.4230   36.3480 H   0  0  0  0  0  0  0  0  0  0  0  0
   32.2280   31.1280   37.0140 C   0  0  0  0  0  3  0  0  0  0  0  0
   33.4540   31.7550   36.7900 C   0  0  0  0  0  3  0  0  0  0  0  0
   36.5700   32.5420   35.5240 N   0  0  0  0  0  0  0  0  0  0  0  0
   35.5820   31.9720   35.6760 C   0  0  0  0  0  0  0  0  0  0  0  0
   37.6440   27.2680   33.3830 C   0  0  0  0  0  0  0  0  0  0  0  0
   38.4210   27.6290   32.7120 H   0  0  0  0  0  0  0  0  0  0  0  0
   37.2030   26.3260   33.0050 H   0  0  0  0  0  0  0  0  0  0  0  0
   38.1450   27.1480   34.8000 C   0  0  0  0  0  0  0  0  0  0  0  0
   37.4450   27.6580   35.5070 H   0  0  0  0  0  0  0  0  0  0  0  0
   39.1350   27.6200   34.9660 H   0  0  0  0  0  0  0  0  0  0  0  0
   38.1950   23.4560   34.6740 C   0  0  0  0  0  0  0  0  0  0  0  0
   38.1450   23.1080   36.0350 C   0  0  0  0  0  0  0  0  0  0  0  0
   38.0950   24.1420   36.9740 C   0  0  0  0  0  0  0  0  0  0  0  0
   38.0970   25.4290   36.5340 N   0  0  0  0  0  0  0  0  0  0  0  0
   38.1460   25.7150   35.2080 C   0  0  0  0  0  0  0  0  0  0  0  0
   38.1940   24.7350   34.3070 N   0  0  0  0  0  0  0  0  0  0  0  0
   38.2310   22.6000   34.0200 H   0  0  0  0  0  0  0  0  0  0  0  0
   38.1390   22.1360   36.4930 H   0  0  0  0  0  0  0  0  0  0  0  0
   38.0540   24.0340   38.0500 H   0  0  0  0  0  0  0  0  0  0  0  0
  1  5  2  0  0  0  0
  2  3  2  0  0  0  0
  2  1  1  0  0  0  0
  3  4  1  0  0  0  0
  4  5  1  0  0  0  0
  4  9  1  0  0  0  0
  6  2  1  0  0  0  0
  7  3  1  0  0  0  0
  8 15  1  0  0  0  0
  9 10  1  0  0  0  0
  9  8  2  0  0  0  0
 10 12  2  0  0  0  0
 11 10  1  0  0  0  0
 12 13  1  0  0  0  0
 12 14  1  0  0  0  0
 15 14  2  0  0  0  0
 16 17  3  0  0  0  0
 17  8  1  0  0  0  0
 18  1  1  0  0  0  0
 18 21  1  0  0  0  0
 19 18  1  0  0  0  0
 20 18  1  0  0  0  0
 21 23  1  0  0  0  0
 21 28  1  0  0  0  0
 21 22  1  0  0  0  0
 24 25  1  0  0  0  0
 25 31  1  0  0  0  0
 25 26  2  0  0  0  0
 26 32  1  0  0  0  0
 27 26  1  0  0  0  0
 28 27  2  0  0  0  0
 29 24  2  0  0  0  0
 29 28  1  0  0  0  0
 30 24  1  0  0  0  0
M  END
>  <minimizedAffinity>
-4.82174873

$$$$

 OpenBabel03272501593D

 32 34  0  0  0  0  0  0  0  0999 V2000
   37.9880   25.3000   35.2600 C   0  0  0  0  0  0  0  0  0  0  0  0
   38.3570   26.3460   36.0600 C   0  0  0  0  0  0  0  0  0  0  0  0
   38.0260   27.5410   35.4680 C   0  0  0  0  0  0  0  0  0  0  0  0
   37.4520   27.1970   34.2990 N   0  0  0  0  0  0  0  0  0  0  0  0
   37.4320   25.8640   34.1820 N   0  0  0  0  0  0  0  0  0  0  0  0
   38.8490   26.2630   37.0380 H   0  0  0  0  0  0  0  0  0  0  0  0
   38.1570   28.5660   35.7880 H   0  0  0  0  0  0  0  0  0  0  0  0
   37.4820   28.1190   32.0100 C   0  0  0  0  0  0  0  0  0  0  0  0
   36.9030   27.9960   33.2480 C   0  0  0  0  0  0  0  0  0  0  0  0
   35.7170   28.7050   33.4470 C   0  0  0  0  0  0  0  0  0  0  0  0
   35.2760   28.5930   34.4320 H   0  0  0  0  0  0  0  0  0  0  0  0
   35.1010   29.5030   32.5060 C   0  0  0  0  0  0  0  0  0  0  0  0
   34.1850   29.9880   32.8110 H   0  0  0  0  0  0  0  0  0  0  0  0
   35.7120   29.6050   31.2670 C   0  0  0  0  0  3  0  0  0  0  0  0
   36.8990   28.9070   31.0420 C   0  0  0  0  0  3  0  0  0  0  0  0
   39.6700   26.8940   31.4730 N   0  0  0  0  0  0  0  0  0  0  0  0
   38.6850   27.4360   31.7210 C   0  0  0  0  0  0  0  0  0  0  0  0
   38.1680   23.8280   35.5390 C   0  0  0  0  0  0  0  0  0  0  0  0
   38.7830   23.4170   34.7410 H   0  0  0  0  0  0  0  0  0  0  0  0
   37.1680   23.3530   35.5510 H   0  0  0  0  0  0  0  0  0  0  0  0
   38.8650   23.7520   36.8730 C   0  0  0  0  0  0  0  0  0  0  0  0
   38.2990   23.0870   37.5730 H   0  0  0  0  0  0  0  0  0  0  0  0
   38.9490   24.7300   37.3910 H   0  0  0  0  0  0  0  0  0  0  0  0
   42.2620   22.9660   35.6530 C   0  0  0  0  0  0  0  0  0  0  0  0
   42.6220   21.8670   36.4510 C   0  0  0  0  0  0  0  0  0  0  0  0
   41.6970   21.4120   37.3940 C   0  0  0  0  0  0  0  0  0  0  0  0
   40.4990   22.0470   37.4980 N   0  0  0  0  0  0  0  0  0  0  0  0
   40.1970   23.1050   36.7040 C   0  0  0  0  0  0  0  0  0  0  0  0
   41.0740   23.5450   35.8020 N   0  0  0  0  0  0  0  0  0  0  0  0
   43.0320   23.2520   34.9530 H   0  0  0  0  0  0  0  0  0  0  0  0
   43.5310   21.2940   36.4560 H   0  0  0  0  0  0  0  0  0  0  0  0
   41.8280   20.5820   38.0770 H   0  0  0  0  0  0  0  0  0  0  0  0
  1 18  1  0  0  0  0
  1  2  1  0  0  0  0
  2  6  1  0  0  0  0
  3  7  1  0  0  0  0
  3  2  2  0  0  0  0
  4  3  1  0  0  0  0
  5  4  1  0  0  0  0
  5  1  2  0  0  0  0
  8  9  1  0  0  0  0
  9 10  2  0  0  0  0
  9  4  1  0  0  0  0
 10 11  1  0  0  0  0
 12 13  1  0  0  0  0
 12 10  1  0  0  0  0
 14 12  2  0  0  0  0
 15 14  1  0  0  0  0
 15  8  2  0  0  0  0
 16 17  3  0  0  0  0
 17  8  1  0  0  0  0
 18 20  1  0  0  0  0
 18 21  1  0  0  0  0
 19 18  1  0  0  0  0
 21 23  1  0  0  0  0
 21 22  1  0  0  0  0
 24 29  2  0  0  0  0
 24 25  1  0  0  0  0
 25 31  1  0  0  0  0
 25 26  2  0  0  0  0
 26 27  1  0  0  0  0
 26 32  1  0  0  0  0
 28 21  1  0  0  0  0
 28 27  2  0  0  0  0
 29 28  1  0  0  0  0
 30 24  1  0  0  0  0
M  END
>  <minimizedAffinity>
-4.78164577

$$$$
