
 OpenBabel03272510303D

 29 31  0  0  0  0  0  0  0  0999 V2000
   37.4880   31.4280   49.3510 C   0  0  0  0  0  0  0  0  0  0  0  0
   37.8100   32.7580   49.6240 C   0  0  0  0  0  0  0  0  0  0  0  0
   38.6150   33.3740   48.7030 C   0  0  0  0  0  0  0  0  0  0  0  0
   39.0620   32.6970   47.5870 N   0  0  0  0  0  0  0  0  0  0  0  0
   38.7120   31.3850   47.3660 C   0  0  0  0  0  0  0  0  0  0  0  0
   37.9160   30.7680   48.2760 N   0  0  0  0  0  0  0  0  0  0  0  0
   37.4330   33.2430   50.5130 H   0  0  0  0  0  0  0  0  0  0  0  0
   38.9130   34.4060   48.8400 H   0  0  0  0  0  0  0  0  0  0  0  0
   36.5780   30.7000   50.3080 C   0  0  0  0  0  0  0  0  0  0  0  0
   36.5750   29.2670   50.4610 C   0  0  0  0  0  0  0  0  0  0  0  0
   37.3490   30.0800   51.4790 C   0  0  0  0  0  0  0  0  0  0  0  0
   35.6720   31.2890   50.5850 H   0  0  0  0  0  0  0  0  0  0  0  0
   37.2800   28.6900   49.7890 H   0  0  0  0  0  0  0  0  0  0  0  0
   35.6720   28.7560   50.8060 H   0  0  0  0  0  0  0  0  0  0  0  0
   38.4400   30.1120   51.4660 H   0  0  0  0  0  0  0  0  0  0  0  0
   36.8900   30.2690   52.4510 H   0  0  0  0  0  0  0  0  0  0  0  0
   39.1600   30.6660   46.1880 C   0  0  0  0  0  0  0  0  0  0  0  0
   39.5160   29.6590   46.4680 H   0  0  0  0  0  0  0  0  0  0  0  0
   40.0280   31.2220   45.7330 H   0  0  0  0  0  0  0  0  0  0  0  0
   38.4410   30.3650   43.8100 C   0  0  0  0  0  0  0  0  0  0  0  0
   38.1010   30.5410   45.1300 C   0  0  0  0  0  0  0  0  0  0  0  0
   36.7480   30.5930   45.4810 C   0  0  0  0  0  0  0  0  0  0  0  0
   36.4380   30.7310   46.5120 H   0  0  0  0  0  0  0  0  0  0  0  0
   35.7920   30.4660   44.4970 C   0  0  0  0  0  0  0  0  0  0  0  0
   34.7110   30.4960   44.6890 H   0  0  0  0  0  0  0  0  0  0  0  0
   36.1290   30.2900   43.1750 C   0  0  0  0  0  3  0  0  0  0  0  0
   37.4620   30.2370   42.8170 C   0  0  0  0  0  3  0  0  0  0  0  0
   40.9180   30.2640   43.0160 N   0  0  0  0  0  0  0  0  0  0  0  0
   39.8150   30.3090   43.3600 C   0  0  0  0  0  0  0  0  0  0  0  0
  1  2  1  0  0  0  0
  1  9  1  0  0  0  0
  2  7  1  0  0  0  0
  3  8  1  0  0  0  0
  3  2  2  0  0  0  0
  4  3  1  0  0  0  0
  5  4  2  0  0  0  0
  5  6  1  0  0  0  0
  6  1  2  0  0  0  0
  9 10  1  0  0  0  0
  9 12  1  0  0  0  0
  9 11  1  0  0  0  0
 10 14  1  0  0  0  0
 10 11  1  0  0  0  0
 11 16  1  0  0  0  0
 13 10  1  0  0  0  0
 15 11  1  0  0  0  0
 17 18  1  0  0  0  0
 17  5  1  0  0  0  0
 19 17  1  0  0  0  0
 20 21  1  0  0  0  0
 21 22  2  0  0  0  0
 21 17  1  0  0  0  0
 22 23  1  0  0  0  0
 24 25  1  0  0  0  0
 24 22  1  0  0  0  0
 26 24  2  0  0  0  0
 27 26  1  0  0  0  0
 27 20  2  0  0  0  0
 28 29  3  0  0  0  0
 29 20  1  0  0  0  0
M  END
>  <minimizedAffinity>
-5.28188848

>  <minimizedRMSD>
0.728572786

$$$$
