REMARK  Name = 
REMARK  4 active torsions:
REMARK  status: ('A' for Active; 'I' for Inactive)
REMARK    1  A    between atoms: C_1  and  C_7
REMARK    2  A    between atoms: C_8  and  O_10
REMARK    3  A    between atoms: O_10  and  C_21
REMARK    4  A    between atoms: C_19  and  C_20
REMARK                            x       y       z     vdW  Elec       q    Type
REMARK                         _______ _______ _______ _____ _____    ______ ____
ROOT
ATOM      1  C   UNL     1      36.631  31.035  50.485  0.00  0.00    +0.000 C 
ATOM      2  C   UNL     1      36.141  29.684  50.659  0.00  0.00    +0.000 C 
ATOM      3  C   UNL     1      37.337  30.111  51.485  0.00  0.00    +0.000 C 
ATOM      4  H   UNL     1      36.196  31.943  50.984  0.00  0.00    +0.000 HD
ATOM      5  H   UNL     1      35.162  29.544  51.161  0.00  0.00    +0.000 HD
ATOM      6  H   UNL     1      38.320  29.706  51.246  0.00  0.00    +0.000 HD
ATOM      7  H   UNL     1      37.102  30.235  52.560  0.00  0.00    +0.000 HD
ENDROOT
BRANCH   1   8
ATOM      8  C   UNL     1      37.517  31.404  49.327  0.00  0.00    +0.000 A 
ATOM      9  C   UNL     1      38.160  32.640  49.412  0.00  0.00    +0.000 A 
ATOM     10  C   UNL     1      38.957  32.975  48.308  0.00  0.00    +0.000 A 
ATOM     11  N   UNL     1      39.069  32.114  47.236  0.00  0.00    +0.000 NA
ATOM     12  C   UNL     1      38.416  30.923  47.216  0.00  0.00    +0.000 A 
ATOM     13  N   UNL     1      37.634  30.577  48.281  0.00  0.00    +0.000 NA
ATOM     14  H   UNL     1      38.066  33.309  50.255  0.00  0.00    +0.000 HD
ATOM     15  H   UNL     1      39.472  33.921  48.332  0.00  0.00    +0.000 HD
ATOM     16  H   UNL     1      38.557  30.307  46.339  0.00  0.00    +0.000 HD
ENDBRANCH   1   8
BRANCH   2  17
ATOM     17  O   UNL     1      36.415  28.726  49.670  0.00  0.00    +0.000 OA
BRANCH  17  19
ATOM     18  C   UNL     1      34.714  27.948  48.262  0.00  0.00    +0.000 A 
ATOM     19  C   UNL     1      35.617  27.684  49.291  0.00  0.00    +0.000 A 
ATOM     20  C   UNL     1      35.597  26.402  49.803  0.00  0.00    +0.000 A 
ATOM     21  H   UNL     1      36.296  26.206  50.596  0.00  0.00    +0.000 HD
ATOM     22  C   UNL     1      34.739  25.444  49.328  0.00  0.00    +0.000 A 
ATOM     23  H   UNL     1      34.805  24.474  49.798  0.00  0.00    +0.000 HD
ATOM     24  C   UNL     1      33.841  25.685  48.312  0.00  0.00    +0.000 A 
ATOM     25  C   UNL     1      33.858  26.974  47.794  0.00  0.00    +0.000 A 
BRANCH  18  27
ATOM     26  N   UNL     1      34.556  30.278  47.115  0.00  0.00    +0.000 NA
ATOM     27  C   UNL     1      34.619  29.232  47.631  0.00  0.00    +0.000 C 
ENDBRANCH  18  27
ENDBRANCH  17  19
ENDBRANCH   2  17
TORSDOF 4
