
 OpenBabel03272504393D

 43 45  0  0  0  0  0  0  0  0999 V2000
   34.9340   29.4510   48.8720 C   0  0  0  0  0  0  0  0  0  0  0  0
   34.2500   30.2610   49.2670 H   0  0  0  0  0  0  0  0  0  0  0  0
   35.8380   29.5460   49.5070 H   0  0  0  0  0  0  0  0  0  0  0  0
   37.6770   30.4900   48.5090 Cl  0  0  0  0  0  0  0  0  0  0  0  0
   36.5140   30.3290   47.1910 C   0  0  0  0  0  0  0  0  0  0  0  0
   36.8740   30.6990   45.9310 C   0  0  0  0  0  0  0  0  0  0  0  0
   35.9790   30.5760   44.9040 C   0  0  0  0  0  0  0  0  0  0  0  0
   34.7220   30.0740   45.1750 C   0  0  0  0  0  0  0  0  0  0  0  0
   34.4000   29.7090   46.4840 C   0  0  0  0  0  0  0  0  0  0  0  0
   35.2750   29.8240   47.5190 C   0  0  0  0  0  0  0  0  0  0  0  0
   36.3090   30.8850   43.9070 H   0  0  0  0  0  0  0  0  0  0  0  0
   34.0910   30.0190   44.2910 H   0  0  0  0  0  0  0  0  0  0  0  0
   33.4280   29.3630   46.4800 H   0  0  0  0  0  0  0  0  0  0  0  0
   39.8940   32.8290   45.9450 C   0  0  0  0  0  0  0  0  0  0  0  0
   40.7450   32.0970   45.0650 C   0  0  0  0  0  0  0  0  0  0  0  0
   40.2430   30.9160   44.5130 C   0  0  0  0  0  0  0  0  0  0  0  0
   38.9880   30.5200   44.8330 N   0  0  0  0  0  0  0  0  0  0  0  0
   38.2070   31.2280   45.6640 C   0  0  0  0  0  0  0  0  0  0  0  0
   38.6630   32.3720   46.2120 N   0  0  0  0  0  0  0  0  0  0  0  0
   40.2560   33.7430   46.3830 H   0  0  0  0  0  0  0  0  0  0  0  0
   41.7310   32.4960   44.8730 H   0  0  0  0  0  0  0  0  0  0  0  0
   41.1080   30.2220   43.6510 N   0  0  0  0  0  0  0  0  0  0  0  0
   41.0610   30.1920   42.5930 H   0  0  0  0  0  0  0  0  0  0  0  0
   41.7760   29.7670   44.3030 H   0  0  0  0  0  0  0  0  0  0  0  0
   34.3070   28.1600   49.1210 C   0  0  0  0  0  0  0  0  0  0  0  0
   34.4140   27.4920   48.2320 H   0  0  0  0  0  0  0  0  0  0  0  0
   34.8000   27.5950   49.9480 H   0  0  0  0  0  0  0  0  0  0  0  0
   32.9810   28.2890   49.4710 O   0  0  0  0  0  0  0  0  0  0  0  0
   32.7200   26.6910   47.4000 O   0  0  0  0  0  0  0  0  0  0  0  0
   31.9800   27.6590   48.2480 P   0  0  2  0  0  0  0  0  0  0  0  0
   31.4470   29.0380   47.3810 O   0  0  0  0  0  0  0  0  0  0  0  0
   31.4560   29.8490   47.9320 H   0  0  0  0  0  0  0  0  0  0  0  0
   30.6390   26.9320   48.8930 O   0  0  0  0  0  0  0  0  0  0  0  0
   28.1370   27.2140   49.2230 C   0  0  0  0  0  0  0  0  0  0  0  0
   29.3420   27.0970   48.5810 C   0  0  0  0  0  0  0  0  0  0  0  0
   29.2690   27.1610   47.1770 C   0  0  0  0  0  0  0  0  0  0  0  0
   30.0630   27.0990   46.4160 H   0  0  0  0  0  0  0  0  0  0  0  0
   28.0560   27.3320   46.4920 C   0  0  0  0  0  0  0  0  0  0  0  0
   27.9060   27.3920   45.4310 H   0  0  0  0  0  0  0  0  0  0  0  0
   26.8820   27.4430   47.2070 C   0  0  0  0  0  3  0  0  0  0  0  0
   26.9310   27.3810   48.5830 C   0  0  0  0  0  3  0  0  0  0  0  0
   28.2540   27.0990   51.7790 N   0  0  0  0  0  0  0  0  0  0  0  0
   28.2130   27.1490   50.6360 C   0  0  0  0  0  0  0  0  0  0  0  0
  1 25  1  0  0  0  0
  1  2  1  0  0  0  0
  1  3  1  0  0  0  0
  5 10  1  0  0  0  0
  5  4  1  0  0  0  0
  6  5  2  0  0  0  0
  7  8  2  0  0  0  0
  7  6  1  0  0  0  0
  8  9  1  0  0  0  0
  9 10  2  0  0  0  0
 10  1  1  0  0  0  0
 11  7  1  0  0  0  0
 12  8  1  0  0  0  0
 13  9  1  0  0  0  0
 14 19  1  0  0  0  0
 14 20  1  0  0  0  0
 15 14  2  0  0  0  0
 16 17  2  0  0  0  0
 16 15  1  0  0  0  0
 17 18  1  0  0  0  0
 18  6  1  0  0  0  0
 18 19  2  0  0  0  0
 21 15  1  0  0  0  0
 22 24  1  0  0  0  0
 22 16  1  0  0  0  0
 23 22  1  0  0  0  0
 25 28  1  0  0  0  0
 25 27  1  0  0  0  0
 26 25  1  0  0  0  0
 30 29  2  6  0  0  0
 30 33  1  0  0  0  0
 30 28  1  0  0  0  0
 31 32  1  0  0  0  0
 31 30  1  0  0  0  0
 34 43  1  0  0  0  0
 35 33  1  0  0  0  0
 35 34  2  0  0  0  0
 36 35  1  0  0  0  0
 37 36  1  0  0  0  0
 38 36  2  0  0  0  0
 38 40  1  0  0  0  0
 39 38  1  0  0  0  0
 40 41  2  0  0  0  0
 41 34  1  0  0  0  0
 43 42  3  0  0  0  0
M  END
>  <minimizedAffinity>
-6.396492

>  <minimizedRMSD>
1.08834231

$$$$
