
     RDKit          3D

 37 39  0  0  0  0  0  0  0  0999 V2000
   39.4398   32.4855   47.1036 O   0  0  0  0  0  0  0  0  0  0  0  0
   38.3083   31.8309   46.4043 P   0  0  2  0  0  0  0  0  0  0  0  0
   37.7093   32.8463   45.1665 O   0  0  0  0  0  0  0  0  0  0  0  0
   37.0284   31.3922   47.4364 O   0  0  0  0  0  0  0  0  0  0  0  0
   37.6133   30.5282   50.9824 C   0  0  0  0  0  0  0  0  0  0  0  0
   37.7038   31.2959   49.8038 C   0  0  0  0  0  0  0  0  0  0  0  0
   37.0729   30.8315   48.6546 C   0  0  0  0  0  0  0  0  0  0  0  0
   36.3931   29.6444   48.7320 N   0  0  0  0  0  0  0  0  0  0  0  0
   36.3321   28.9453   49.8743 C   0  0  0  0  0  0  0  0  0  0  0  0
   36.9383   29.3840   50.9933 N   0  0  0  0  0  0  0  0  0  0  0  0
   38.8590   30.4574   45.6081 O   0  0  0  0  0  0  0  0  0  0  0  0
   36.6132   29.4557   44.0316 Cl  0  0  0  0  0  0  0  0  0  0  0  0
   38.2622   29.8339   43.4767 C   0  0  0  0  0  0  0  0  0  0  0  0
   39.2733   30.3131   44.3215 C   0  0  0  0  0  0  0  0  0  0  0  0
   40.5032   30.5609   43.7433 C   0  0  0  0  0  0  0  0  0  0  0  0
   40.7233   30.3460   42.3971 C   0  0  0  0  0  0  0  0  0  0  0  0
   39.7443   29.8803   41.5706 C   0  0  0  0  0  0  0  0  0  0  0  0
   38.5224   29.6294   42.1228 C   0  0  0  0  0  0  0  0  0  0  0  0
   38.4428   33.3618   44.7465 H   0  0  0  0  0  0  0  0  0  0  0  0
   38.1525   31.0077   51.8064 H   0  0  0  0  0  0  0  0  0  0  0  0
   38.2094   32.2309   49.6465 H   0  0  0  0  0  0  0  0  0  0  0  0
   35.7925   28.0010   49.9398 H   0  0  0  0  0  0  0  0  0  0  0  0
   41.2277   30.9291   44.4680 H   0  0  0  0  0  0  0  0  0  0  0  0
   41.7273   30.5761   42.0586 H   0  0  0  0  0  0  0  0  0  0  0  0
   39.9849   29.7362   40.5346 H   0  0  0  0  0  0  0  0  0  0  0  0
   37.1014   26.9991   44.0198 N   0  0  0  0  0  0  0  0  0  0  0  0
   36.9327   27.4705   42.9859 C   0  0  0  0  0  0  0  0  0  0  0  0
   36.6969   28.0555   41.6758 C   0  0  0  0  0  0  0  0  0  0  0  0
   37.4693   29.1260   41.2222 C   0  0  0  0  0  0  0  0  0  0  0  0
   37.2662   29.6989   39.9841 C   0  0  0  0  0  0  0  0  0  0  0  0
   37.8658   30.5300   39.6319 H   0  0  0  0  0  0  0  0  0  0  0  0
   36.2790   29.2186   39.1533 C   0  0  0  0  0  0  0  0  0  0  0  0
   36.0704   29.6265   38.1686 H   0  0  0  0  0  0  0  0  0  0  0  0
   35.5077   28.1604   39.5890 C   0  0  0  0  0  0  0  0  0  0  0  0
   35.7012   27.5884   40.8105 C   0  0  0  0  0  0  0  0  0  0  0  0
   34.7306   27.7850   38.9308 H   0  0  0  0  0  0  0  0  0  0  0  0
   35.0938   26.7709   41.1281 H   0  0  0  0  0  0  0  0  0  0  0  0
  2  1  2  0
  2  4  1  1
  3  2  1  0
  4  7  1  0
  5 10  2  0
  6  5  1  0
  7  8  1  0
  7  6  2  0
  8  9  2  0
  9 10  1  0
 11  2  1  0
 13 12  1  0
 13 14  2  0
 14 11  1  0
 15 14  1  0
 16 15  2  0
 17 18  2  0
 17 16  1  0
 18 13  1  0
  3 19  1  0
  5 20  1  0
  6 21  1  0
  9 22  1  0
 15 23  1  0
 16 24  1  0
 17 25  1  0
 26 27  3  0
 27 28  1  0
 28 29  2  0
 29 30  1  0
 30 31  1  0
 30 32  2  0
 32 33  1  0
 32 34  1  0
 34 35  2  0
 35 28  1  0
 34 36  1  0
 35 37  1  0
 18 29  1  0
M  ISO  8  19   3  20  14  21  14  22  14  23  14  24  14  25  14  31  15
M  ISO  1  33  16
M  END
>  <DihAtoms>  (1) 
16,17,28,27

>  <DihDeg>  (1) 
-89.99998468424054

$$$$
