REMARK  Name = 
REMARK  2 active torsions:
REMARK  status: ('A' for Active; 'I' for Inactive)
REMARK    1  A    between atoms: C_5  and  C_15
REMARK    2  A    between atoms: C_13  and  C_14
REMARK                            x       y       z     vdW  Elec       q    Type
REMARK                         _______ _______ _______ _____ _____    ______ ____
ROOT
ATOM      1  C   UNL     1      37.300  30.222  51.451  0.00  0.00    +0.000 A 
ATOM      2  C   UNL     1      38.118  30.753  50.424  0.00  0.00    +0.000 A 
ATOM      3  C   UNL     1      37.795  30.410  49.121  0.00  0.00    +0.000 A 
ATOM      4  N   UNL     1      36.736  29.601  48.891  0.00  0.00    +0.000 NA
ATOM      5  C   UNL     1      35.973  29.108  49.881  0.00  0.00    +0.000 A 
ATOM      6  N   UNL     1      36.259  29.421  51.153  0.00  0.00    +0.000 NA
ATOM      7  N   UNL     1      38.628  30.953  48.092  0.00  0.00    +0.000 N 
ATOM      8  H   UNL     1      37.546  30.485  52.476  0.00  0.00    +0.000 HD
ATOM      9  H   UNL     1      38.943  31.393  50.723  0.00  0.00    +0.000 HD
ATOM     10  H   UNL     1      39.610  30.734  47.802  0.00  0.00    +0.000 HD
ATOM     11  H   UNL     1      38.047  31.691  47.608  0.00  0.00    +0.000 HD
ENDROOT
BRANCH   5  13
ATOM     12  C   UNL     1      33.614  28.406  50.128  0.00  0.00    +0.000 A 
ATOM     13  C   UNL     1      34.849  28.241  49.539  0.00  0.00    +0.000 A 
ATOM     14  C   UNL     1      35.088  27.248  48.595  0.00  0.00    +0.000 A 
ATOM     15  H   UNL     1      36.053  27.111  48.128  0.00  0.00    +0.000 HD
ATOM     16  C   UNL     1      34.025  26.407  48.253  0.00  0.00    +0.000 A 
ATOM     17  H   UNL     1      34.206  25.633  47.519  0.00  0.00    +0.000 HD
ATOM     18  C   UNL     1      32.803  26.602  48.864  0.00  0.00    +0.000 A 
ATOM     19  C   UNL     1      32.551  27.584  49.802  0.00  0.00    +0.000 A 
BRANCH  12  21
ATOM     20  N   UNL     1      33.265  30.307  51.868  0.00  0.00    +0.000 NA
ATOM     21  C   UNL     1      33.424  29.442  51.091  0.00  0.00    +0.000 C 
ENDBRANCH  12  21
ENDBRANCH   5  13
TORSDOF 2
