REMARK  Name = 
REMARK  4 active torsions:
REMARK  status: ('A' for Active; 'I' for Inactive)
REMARK    1  A    between atoms: C_2  and  N_13
REMARK    2  A    between atoms: C_5  and  C_7
REMARK    3  A    between atoms: C_18  and  C_37
REMARK    4  A    between atoms: C_35  and  C_36
REMARK                            x       y       z     vdW  Elec       q    Type
REMARK                         _______ _______ _______ _____ _____    ______ ____
ROOT
ATOM      1  N   UNL     1      37.027  31.095  48.332  0.00  0.00    +0.000 N 
ATOM      2  C   UNL     1      37.400  31.325  49.721  0.00  0.00    +0.000 C 
ATOM      3  C   UNL     1      38.648  32.133  49.873  0.00  0.00    +0.000 C 
ATOM      4  C   UNL     1      38.705  33.211  48.811  0.00  0.00    +0.000 C 
ATOM      5  C   UNL     1      38.870  32.511  47.498  0.00  0.00    +0.000 C 
ATOM      6  C   UNL     1      37.749  31.560  47.191  0.00  0.00    +0.000 C 
ATOM      7  H   UNL     1      37.559  30.336  50.181  0.00  0.00    +0.000 HD
ATOM      8  H   UNL     1      36.595  31.896  50.260  0.00  0.00    +0.000 HD
ATOM      9  H   UNL     1      38.647  32.653  50.855  0.00  0.00    +0.000 HD
ATOM     10  H   UNL     1      39.569  31.523  49.757  0.00  0.00    +0.000 HD
ATOM     11  H   UNL     1      39.612  33.832  48.973  0.00  0.00    +0.000 HD
ATOM     12  H   UNL     1      37.773  33.831  48.819  0.00  0.00    +0.000 HD
ATOM     13  H   UNL     1      39.850  31.976  47.518  0.00  0.00    +0.000 HD
ATOM     14  H   UNL     1      38.947  33.275  46.679  0.00  0.00    +0.000 HD
ATOM     15  H   UNL     1      37.036  32.065  46.507  0.00  0.00    +0.000 HD
ENDROOT
BRANCH   1  17
ATOM     16  C   UNL     1      35.139  29.809  49.193  0.00  0.00    +0.000 A 
ATOM     17  C   UNL     1      35.847  30.341  48.123  0.00  0.00    +0.000 A 
ATOM     18  C   UNL     1      35.346  30.096  46.858  0.00  0.00    +0.000 A 
ATOM     19  N   UNL     1      34.208  29.359  46.720  0.00  0.00    +0.000 NA
ATOM     20  C   UNL     1      33.549  28.859  47.779  0.00  0.00    +0.000 A 
ATOM     21  N   UNL     1      34.025  29.092  49.005  0.00  0.00    +0.000 NA
ATOM     22  H   UNL     1      35.470  29.960  50.218  0.00  0.00    +0.000 HD
ATOM     23  H   UNL     1      35.826  30.469  45.975  0.00  0.00    +0.000 HD
BRANCH  20  24
ATOM     24  C   UNL     1      32.345  28.083  47.593  0.00  0.00    +0.000 A 
ATOM     25  C   UNL     1      32.223  26.840  48.171  0.00  0.00    +0.000 A 
ATOM     26  C   UNL     1      31.108  26.048  48.035  0.00  0.00    +0.000 A 
ATOM     27  C   UNL     1      30.102  26.597  47.264  0.00  0.00    +0.000 A 
ATOM     28  C   UNL     1      30.174  27.871  46.646  0.00  0.00    +0.000 A 
ATOM     29  N   UNL     1      31.333  28.577  46.847  0.00  0.00    +0.000 NA
ATOM     30  H   UNL     1      33.051  26.472  48.762  0.00  0.00    +0.000 HD
ATOM     31  H   UNL     1      30.971  25.079  48.465  0.00  0.00    +0.000 HD
ATOM     32  H   UNL     1      29.179  26.056  47.093  0.00  0.00    +0.000 HD
ATOM     33  H   UNL     1      29.361  28.243  46.060  0.00  0.00    +0.000 HD
ENDBRANCH  20  24
ENDBRANCH   1  17
BRANCH   6  35
ATOM     34  C   UNL     1      39.063  30.508  45.226  0.00  0.00    +0.000 A 
ATOM     35  C   UNL     1      38.364  30.436  46.417  0.00  0.00    +0.000 A 
ATOM     36  C   UNL     1      38.197  29.188  46.984  0.00  0.00    +0.000 A 
ATOM     37  H   UNL     1      37.674  28.983  47.910  0.00  0.00    +0.000 HD
ATOM     38  C   UNL     1      38.699  28.042  46.404  0.00  0.00    +0.000 A 
ATOM     39  H   UNL     1      38.597  27.045  46.806  0.00  0.00    +0.000 HD
ATOM     40  C   UNL     1      39.405  28.132  45.199  0.00  0.00    +0.000 A 
ATOM     41  C   UNL     1      39.564  29.373  44.645  0.00  0.00    +0.000 A 
BRANCH  34  43
ATOM     42  N   UNL     1      39.325  32.897  44.236  0.00  0.00    +0.000 NA
ATOM     43  C   UNL     1      39.202  31.832  44.688  0.00  0.00    +0.000 C 
ENDBRANCH  34  43
ENDBRANCH   6  35
TORSDOF 4
