REMARK  Name = 
REMARK  6 active torsions:
REMARK  status: ('A' for Active; 'I' for Inactive)
REMARK    1  A    between atoms: C_1  and  C_7
REMARK    2  A    between atoms: C_2  and  C_14
REMARK    3  A    between atoms: C_5  and  C_9
REMARK    4  A    between atoms: C_14  and  C_15
REMARK    5  A    between atoms: C_20  and  C_37
REMARK    6  A    between atoms: C_35  and  C_36
REMARK                            x       y       z     vdW  Elec       q    Type
REMARK                         _______ _______ _______ _____ _____    ______ ____
ROOT
ATOM      1  C   UNL     1      33.178  28.037  47.807  0.00  0.00    +0.000 C 
ATOM      2  H   UNL     1      32.441  28.708  47.346  0.00  0.00    +0.000 HD
ATOM      3  H   UNL     1      32.616  27.526  48.643  0.00  0.00    +0.000 HD
ENDROOT
BRANCH   1   4
ATOM      4  C   UNL     1      33.606  26.934  46.915  0.00  0.00    +0.000 A 
ATOM      5  C   UNL     1      33.775  25.625  47.329  0.00  0.00    +0.000 A 
ATOM      6  C   UNL     1      34.175  24.660  46.435  0.00  0.00    +0.000 A 
ATOM      7  C   UNL     1      34.422  24.955  45.103  0.00  0.00    +0.000 A 
ATOM      8  C   UNL     1      34.255  26.244  44.694  0.00  0.00    +0.000 A 
ATOM      9  C   UNL     1      33.853  27.232  45.576  0.00  0.00    +0.000 A 
ATOM     10  H   UNL     1      33.568  25.458  48.378  0.00  0.00    +0.000 HD
ATOM     11  H   UNL     1      34.277  23.680  46.854  0.00  0.00    +0.000 HD
ATOM     12  H   UNL     1      34.733  24.104  44.496  0.00  0.00    +0.000 HD
ATOM     13  H   UNL     1      34.458  26.426  43.650  0.00  0.00    +0.000 HD
BRANCH   9  15
ATOM     14  C   UNL     1      34.573  29.619  45.244  0.00  0.00    +0.000 A 
ATOM     15  C   UNL     1      33.704  28.586  45.038  0.00  0.00    +0.000 A 
ATOM     16  C   UNL     1      32.559  28.765  44.260  0.00  0.00    +0.000 A 
ATOM     17  H   UNL     1      31.837  27.968  44.069  0.00  0.00    +0.000 HD
ATOM     18  C   UNL     1      32.275  29.988  43.681  0.00  0.00    +0.000 A 
ATOM     19  H   UNL     1      31.387  30.122  43.079  0.00  0.00    +0.000 HD
ATOM     20  C   UNL     1      33.186  31.014  43.915  0.00  0.00    +0.000 A 
ATOM     21  C   UNL     1      34.325  30.860  44.681  0.00  0.00    +0.000 A 
BRANCH  14  23
ATOM     22  N   UNL     1      36.670  29.146  46.718  0.00  0.00    +0.000 NA
ATOM     23  C   UNL     1      35.725  29.361  46.052  0.00  0.00    +0.000 C 
ENDBRANCH  14  23
ENDBRANCH   9  15
ENDBRANCH   1   4
BRANCH   1  25
ATOM     24  C   UNL     1      35.003  28.381  49.460  0.00  0.00    +0.000 C 
ATOM     25  C   UNL     1      34.292  28.753  48.437  0.00  0.00    +0.000 C 
BRANCH  24  30
ATOM     26  C   UNL     1      37.390  30.168  51.572  0.00  0.00    +0.000 A 
ATOM     27  C   UNL     1      38.092  30.941  50.626  0.00  0.00    +0.000 A 
ATOM     28  C   UNL     1      37.713  30.821  49.265  0.00  0.00    +0.000 A 
ATOM     29  N   UNL     1      36.690  29.962  48.946  0.00  0.00    +0.000 NA
ATOM     30  C   UNL     1      36.065  29.252  49.921  0.00  0.00    +0.000 A 
ATOM     31  N   UNL     1      36.405  29.351  51.199  0.00  0.00    +0.000 NA
ATOM     32  H   UNL     1      37.720  30.298  52.591  0.00  0.00    +0.000 HD
ATOM     33  H   UNL     1      38.900  31.626  50.833  0.00  0.00    +0.000 HD
BRANCH  28  34
ATOM     34  C   UNL     1      38.374  31.576  48.206  0.00  0.00    +0.000 A 
ATOM     35  C   UNL     1      38.605  31.025  46.955  0.00  0.00    +0.000 A 
ATOM     36  C   UNL     1      39.246  32.000  46.188  0.00  0.00    +0.000 A 
ATOM     37  N   UNL     1      39.380  33.097  46.997  0.00  0.00    +0.000 N 
ATOM     38  N   UNL     1      38.857  32.829  48.190  0.00  0.00    +0.000 NA
ATOM     39  H   UNL     1      38.380  30.047  46.534  0.00  0.00    +0.000 HD
ATOM     40  H   UNL     1      39.588  31.949  45.163  0.00  0.00    +0.000 HD
ATOM     41  H   UNL     1      39.808  34.032  46.791  0.00  0.00    +0.000 HD
ENDBRANCH  28  34
ENDBRANCH  24  30
ENDBRANCH   1  25
TORSDOF 6
