
 OpenBabel03262522073D

 41 44  0  0  1  0  0  0  0  0999 V2000
   34.4440   29.1530   48.5910 C   0  0  2  0  0  0  0  0  0  0  0  0
   35.0650   28.4690   49.7600 C   0  0  0  0  0  0  0  0  0  0  0  0
   36.2580   29.2090   50.1710 N   0  0  0  0  0  0  0  0  0  0  0  0
   37.2710   29.9410   50.8780 C   0  0  0  0  0  0  0  0  0  0  0  0
   37.5230   30.2100   52.0670 O   0  0  0  0  0  0  0  0  0  0  0  0
   37.9980   30.3210   49.7010 C   0  0  1  0  0  0  0  0  0  0  0  0
   37.0880   29.3130   49.0100 C   0  0  2  0  0  0  0  0  0  0  0  0
   35.9000   30.0040   47.8370 S   0  0  0  0  0  0  0  0  0  0  0  0
   34.3550   28.5470   50.6220 H   0  0  0  0  0  0  0  0  0  0  0  0
   35.2720   27.3950   49.6060 H   0  0  0  0  0  0  0  0  0  0  0  0
   39.0300   29.9080   49.6030 H   0  0  0  0  0  0  0  0  0  0  0  0
   37.5730   28.3750   48.6830 H   0  0  0  0  0  0  0  0  0  0  0  0
   33.3010   30.0660   48.8740 C   0  0  0  0  0  0  0  0  0  0  0  0
   32.4100   29.7340   48.3250 H   0  0  0  0  0  0  0  0  0  0  0  0
   33.5160   31.1130   48.5150 H   0  0  0  0  0  0  0  0  0  0  0  0
   33.0900   30.1500   49.9630 H   0  0  0  0  0  0  0  0  0  0  0  0
   34.0700   28.0760   47.5510 C   0  0  0  0  0  0  0  0  0  0  0  0
   33.0270   27.7850   47.7910 H   0  0  0  0  0  0  0  0  0  0  0  0
   34.7470   27.2260   47.7150 H   0  0  0  0  0  0  0  0  0  0  0  0
   34.2020   28.6280   46.2780 O   0  0  0  0  0  0  0  0  0  0  0  0
   33.8210   29.5330   46.2560 H   0  0  0  0  0  0  0  0  0  0  0  0
   37.8620   31.7230   49.2500 C   0  0  0  0  0  0  0  0  0  0  0  0
   36.9740   32.3740   49.8930 O   0  0  0  0  0  0  0  0  0  0  0  0
   38.6410   32.3090   48.2020 C   0  0  0  0  0  0  0  0  0  0  0  0
   39.1840   33.5550   48.4130 C   0  0  0  0  0  0  0  0  0  0  0  0
   39.9510   34.1290   47.3760 C   0  0  0  0  0  0  0  0  0  0  0  0
   40.1060   33.4090   46.2220 N   0  0  0  0  0  0  0  0  0  0  0  0
   39.5690   32.2060   46.0480 C   0  0  0  0  0  0  0  0  0  0  0  0
   38.8320   31.6480   47.0370 N   0  0  0  0  0  0  0  0  0  0  0  0
   39.0660   34.1320   49.3230 H   0  0  0  0  0  0  0  0  0  0  0  0
   40.3970   35.1100   47.5040 H   0  0  0  0  0  0  0  0  0  0  0  0
   38.6530   31.3530   43.9390 C   0  0  0  0  0  0  0  0  0  0  0  0
   39.7440   31.4510   44.8120 C   0  0  0  0  0  0  0  0  0  0  0  0
   40.9440   30.8380   44.4890 C   0  0  0  0  0  0  0  0  0  0  0  0
   41.7810   30.9160   45.1670 H   0  0  0  0  0  0  0  0  0  0  0  0
   41.0670   30.1240   43.2950 C   0  0  0  0  0  0  0  0  0  0  0  0
   41.9950   29.6300   43.0090 H   0  0  0  0  0  0  0  0  0  0  0  0
   39.9670   30.0550   42.4640 C   0  0  0  0  0  3  0  0  0  0  0  0
   38.7400   30.6490   42.7370 C   0  0  0  0  0  3  0  0  0  0  0  0
   36.3650   32.4720   44.4480 N   0  0  0  0  0  0  0  0  0  0  0  0
   37.3810   31.9690   44.2200 C   0  0  0  0  0  0  0  0  0  0  0  0
  1 17  1  6  0  0  0
  1 13  1  0  0  0  0
  1  2  1  0  0  0  0
  2  3  1  0  0  0  0
  2  9  1  0  0  0  0
  3  4  1  0  0  0  0
  4  5  2  0  0  0  0
  6 11  1  1  0  0  0
  6  4  1  0  0  0  0
  7 12  1  6  0  0  0
  7  6  1  0  0  0  0
  7  3  1  0  0  0  0
  8  1  1  0  0  0  0
  8  7  1  0  0  0  0
 10  2  1  0  0  0  0
 13 16  1  0  0  0  0
 14 13  1  0  0  0  0
 15 13  1  0  0  0  0
 17 19  1  0  0  0  0
 17 18  1  0  0  0  0
 20 17  1  0  0  0  0
 21 20  1  0  0  0  0
 22  6  1  0  0  0  0
 22 23  2  0  0  0  0
 24 25  1  0  0  0  0
 24 22  1  0  0  0  0
 25 30  1  0  0  0  0
 26 31  1  0  0  0  0
 26 25  2  0  0  0  0
 27 26  1  0  0  0  0
 28 27  2  0  0  0  0
 28 29  1  0  0  0  0
 29 24  2  0  0  0  0
 32 41  1  0  0  0  0
 32 33  1  0  0  0  0
 33 28  1  0  0  0  0
 34 33  2  0  0  0  0
 34 35  1  0  0  0  0
 36 34  1  0  0  0  0
 37 36  1  0  0  0  0
 38 39  1  0  0  0  0
 38 36  2  0  0  0  0
 39 32  2  0  0  0  0
 41 40  3  0  0  0  0
M  END
>  <minimizedAffinity>
-4.1146493

>  <minimizedRMSD>
0.886243105

$$$$
