REMARK  Name = 
REMARK  7 active torsions:
REMARK  status: ('A' for Active; 'I' for Inactive)
REMARK    1  A    between atoms: C_1  and  O_14
REMARK    2  A    between atoms: C_2  and  C_8
REMARK    3  A    between atoms: C_6  and  O_15
REMARK    4  A    between atoms: C_9  and  C_13
REMARK    5  A    between atoms: O_15  and  C_17
REMARK    6  A    between atoms: C_24  and  C_41
REMARK    7  A    between atoms: C_39  and  C_40
REMARK                            x       y       z     vdW  Elec       q    Type
REMARK                         _______ _______ _______ _____ _____    ______ ____
ROOT
ATOM      1  O   UNL     1      40.027  32.197  46.632  0.00  0.00    +0.000 OA
ENDROOT
BRANCH   1   3
ATOM      2  C   UNL     1      40.566  31.177  44.412  0.00  0.00    +0.000 A 
ATOM      3  C   UNL     1      39.865  31.980  45.289  0.00  0.00    +0.000 A 
ATOM      4  C   UNL     1      38.791  32.733  44.802  0.00  0.00    +0.000 A 
ATOM      5  C   UNL     1      38.436  32.670  43.449  0.00  0.00    +0.000 A 
ATOM      6  N   UNL     1      37.494  33.243  42.684  0.00  0.00    +0.000 N 
ATOM      7  C   UNL     1      37.594  32.829  41.408  0.00  0.00    +0.000 A 
ATOM      8  N   UNL     1      38.639  31.962  41.367  0.00  0.00    +0.000 NA
ATOM      9  C   UNL     1      39.166  31.853  42.607  0.00  0.00    +0.000 A 
ATOM     10  C   UNL     1      40.225  31.109  43.080  0.00  0.00    +0.000 A 
ATOM     11  H   UNL     1      41.363  30.651  44.896  0.00  0.00    +0.000 HD
ATOM     12  H   UNL     1      38.150  33.403  45.361  0.00  0.00    +0.000 HD
ATOM     13  H   UNL     1      36.791  33.906  43.020  0.00  0.00    +0.000 HD
ATOM     14  H   UNL     1      36.972  33.125  40.593  0.00  0.00    +0.000 HD
BRANCH  10  16
ATOM     15  C   UNL     1      41.515  30.537  40.973  0.00  0.00    +0.000 A 
ATOM     16  C   UNL     1      41.021  30.235  42.225  0.00  0.00    +0.000 A 
ATOM     17  C   UNL     1      41.258  28.998  42.804  0.00  0.00    +0.000 A 
ATOM     18  H   UNL     1      40.896  28.691  43.795  0.00  0.00    +0.000 HD
ATOM     19  C   UNL     1      42.000  28.027  42.138  0.00  0.00    +0.000 A 
ATOM     20  H   UNL     1      42.184  27.055  42.598  0.00  0.00    +0.000 HD
ATOM     21  C   UNL     1      42.494  28.350  40.870  0.00  0.00    +0.000 A 
ATOM     22  C   UNL     1      42.253  29.587  40.297  0.00  0.00    +0.000 A 
BRANCH  15  24
ATOM     23  N   UNL     1      40.983  32.896  40.056  0.00  0.00    +0.000 NA
ATOM     24  C   UNL     1      41.210  31.845  40.469  0.00  0.00    +0.000 C 
ENDBRANCH  15  24
ENDBRANCH  10  16
ENDBRANCH   1   3
BRANCH   1  30
ATOM     25  C   UNL     1      38.080  31.302  47.773  0.00  0.00    +0.000 A 
ATOM     26  C   UNL     1      37.085  31.305  48.731  0.00  0.00    +0.000 A 
ATOM     27  C   UNL     1      37.125  32.408  49.590  0.00  0.00    +0.000 A 
ATOM     28  C   UNL     1      38.103  33.413  49.470  0.00  0.00    +0.000 A 
ATOM     29  C   UNL     1      39.067  33.304  48.455  0.00  0.00    +0.000 A 
ATOM     30  C   UNL     1      39.039  32.217  47.597  0.00  0.00    +0.000 A 
ATOM     31  H   UNL     1      36.376  32.469  50.359  0.00  0.00    +0.000 HD
ATOM     32  H   UNL     1      38.087  34.245  50.162  0.00  0.00    +0.000 HD
ATOM     33  H   UNL     1      39.802  34.104  48.400  0.00  0.00    +0.000 HD
BRANCH  26  35
ATOM     34  C   UNL     1      34.963  30.307  48.047  0.00  0.00    +0.000 A 
ATOM     35  C   UNL     1      36.093  30.288  48.857  0.00  0.00    +0.000 A 
ATOM     36  C   UNL     1      36.214  29.243  49.790  0.00  0.00    +0.000 A 
ATOM     37  N   UNL     1      35.230  28.314  49.852  0.00  0.00    +0.000 NA
ATOM     38  C   UNL     1      34.136  28.376  49.032  0.00  0.00    +0.000 A 
ATOM     39  N   UNL     1      34.011  29.363  48.143  0.00  0.00    +0.000 NA
ATOM     40  H   UNL     1      34.795  31.071  47.309  0.00  0.00    +0.000 HD
ATOM     41  H   UNL     1      33.474  27.552  49.234  0.00  0.00    +0.000 HD
BRANCH  36  42
ATOM     42  C   UNL     1      37.400  29.172  50.682  0.00  0.00    +0.000 C 
ATOM     43  H   UNL     1      37.896  30.154  50.673  0.00  0.00    +0.000 HD
ATOM     44  H   UNL     1      38.105  28.448  50.221  0.00  0.00    +0.000 HD
ATOM     45  H   UNL     1      37.113  28.813  51.677  0.00  0.00    +0.000 HD
ENDBRANCH  36  42
ENDBRANCH  26  35
BRANCH  25  46
ATOM     46  O   UNL     1      38.126  30.239  46.864  0.00  0.00    +0.000 OA
ATOM     47  H   UNL     1      37.337  30.142  46.244  0.00  0.00    +0.000 HD
ENDBRANCH  25  46
ENDBRANCH   1  30
TORSDOF 7
