REMARK  Name = 
REMARK  4 active torsions:
REMARK  status: ('A' for Active; 'I' for Inactive)
REMARK    1  A    between atoms: C_1  and  C_15
REMARK    2  A    between atoms: C_11  and  N_17
REMARK    3  A    between atoms: C_13  and  C_29
REMARK    4  A    between atoms: C_27  and  C_28
REMARK                            x       y       z     vdW  Elec       q    Type
REMARK                         _______ _______ _______ _____ _____    ______ ____
ROOT
ATOM      1  C   UNL     1      37.568  30.216  50.767  0.00  0.00    +0.000 A 
ATOM      2  C   UNL     1      38.254  31.296  50.216  0.00  0.00    +0.000 A 
ATOM      3  C   UNL     1      37.777  31.776  49.022  0.00  0.00    +0.000 A 
ATOM      4  N   UNL     1      36.706  31.180  48.490  0.00  0.00    +0.000 NA
ATOM      5  C   UNL     1      36.032  30.158  48.984  0.00  0.00    +0.000 A 
ATOM      6  N   UNL     1      36.523  29.720  50.136  0.00  0.00    +0.000 NA
ATOM      7  H   UNL     1      39.075  31.738  50.696  0.00  0.00    +0.000 HD
ENDROOT
BRANCH   5   8
ATOM      8  C   UNL     1      34.859  29.422  48.532  0.00  0.00    +0.000 A 
ATOM      9  N   UNL     1      34.030  28.773  49.389  0.00  0.00    +0.000 NA
ATOM     10  C   UNL     1      32.953  28.119  48.955  0.00  0.00    +0.000 A 
ATOM     11  N   UNL     1      32.584  28.034  47.672  0.00  0.00    +0.000 NA
ATOM     12  C   UNL     1      33.362  28.657  46.762  0.00  0.00    +0.000 A 
ATOM     13  C   UNL     1      32.987  28.573  45.450  0.00  0.00    +0.000 A 
ATOM     14  C   UNL     1      33.748  29.192  44.481  0.00  0.00    +0.000 A 
ATOM     15  C   UNL     1      34.875  29.879  44.911  0.00  0.00    +0.000 A 
ATOM     16  C   UNL     1      35.204  29.930  46.242  0.00  0.00    +0.000 A 
ATOM     17  C   UNL     1      34.465  29.325  47.224  0.00  0.00    +0.000 A 
ATOM     18  H   UNL     1      32.282  27.591  49.663  0.00  0.00    +0.000 HD
ATOM     19  H   UNL     1      32.090  28.020  45.165  0.00  0.00    +0.000 HD
ATOM     20  H   UNL     1      33.432  29.111  43.464  0.00  0.00    +0.000 HD
ATOM     21  H   UNL     1      35.440  30.349  44.106  0.00  0.00    +0.000 HD
ATOM     22  H   UNL     1      36.105  30.494  46.416  0.00  0.00    +0.000 HD
ENDBRANCH   5   8
BRANCH   3  24
ATOM     23  C   UNL     1      39.214  33.814  48.600  0.00  0.00    +0.000 A 
ATOM     24  C   UNL     1      38.267  32.895  48.264  0.00  0.00    +0.000 A 
ATOM     25  C   UNL     1      37.780  33.126  46.979  0.00  0.00    +0.000 A 
ATOM     26  H   UNL     1      37.018  32.477  46.561  0.00  0.00    +0.000 HD
ATOM     27  C   UNL     1      38.184  34.141  46.146  0.00  0.00    +0.000 A 
ATOM     28  H   UNL     1      37.761  34.261  45.160  0.00  0.00    +0.000 HD
ATOM     29  C   UNL     1      39.138  35.027  46.554  0.00  0.00    +0.000 A 
ATOM     30  C   UNL     1      39.661  34.852  47.814  0.00  0.00    +0.000 A 
BRANCH  23  32
ATOM     31  N   UNL     1      40.450  33.617  50.879  0.00  0.00    +0.000 NA
ATOM     32  C   UNL     1      39.884  33.705  49.859  0.00  0.00    +0.000 C 
ENDBRANCH  23  32
ENDBRANCH   3  24
BRANCH   1  33
ATOM     33  N   UNL     1      37.981  29.623  52.024  0.00  0.00    +0.000 N 
ATOM     34  H   UNL     1      38.985  29.736  52.265  0.00  0.00    +0.000 HD
ATOM     35  H   UNL     1      37.282  29.140  52.587  0.00  0.00    +0.000 HD
ENDBRANCH   1  33
TORSDOF 4
