
     RDKit          3D

 23 24  0  0  0  0  0  0  0  0999 V2000
   37.2997   30.2217   51.4512 C   0  0  0  0  0  0  0  0  0  0  0  0
   38.1182   30.7532   50.4242 C   0  0  0  0  0  0  0  0  0  0  0  0
   37.7954   30.4104   49.1213 C   0  0  0  0  0  0  0  0  0  0  0  0
   36.7357   29.6006   48.8907 N   0  0  0  0  0  0  0  0  0  0  0  0
   35.9731   29.1080   49.8814 C   0  0  0  0  0  0  0  0  0  0  0  0
   36.2588   29.4206   51.1531 N   0  0  0  0  0  0  0  0  0  0  0  0
   38.6282   30.9525   48.0921 N   0  0  0  0  0  0  0  0  0  0  0  0
   37.5458   30.4855   52.4763 H   0  0  0  0  0  0  0  0  0  0  0  0
   38.9433   31.3930   50.7227 H   0  0  0  0  0  0  0  0  0  0  0  0
   39.6096   30.7341   47.8017 H   0  0  0  0  0  0  0  0  0  0  0  0
   38.0465   31.6912   47.6084 H   0  0  0  0  0  0  0  0  0  0  0  0
   33.2648   30.3068   51.8679 N   0  0  0  0  0  0  0  0  0  0  0  0
   33.4239   29.4422   51.0911 C   0  0  0  0  0  0  0  0  0  0  0  0
   33.6144   28.4060   50.1276 C   0  0  0  0  0  0  0  0  0  0  0  0
   34.8488   28.2412   49.5393 C   0  0  0  0  0  0  0  0  0  0  0  0
   35.0876   27.2479   48.5953 C   0  0  0  0  0  0  0  0  0  0  0  0
   36.0532   27.1110   48.1282 H   0  0  0  0  0  0  0  0  0  0  0  0
   34.0251   26.4072   48.2533 C   0  0  0  0  0  0  0  0  0  0  0  0
   34.2064   25.6328   47.5191 H   0  0  0  0  0  0  0  0  0  0  0  0
   32.8030   26.6025   48.8635 C   0  0  0  0  0  0  0  0  0  0  0  0
   32.5513   27.5837   49.8017 C   0  0  0  0  0  0  0  0  0  0  0  0
   31.9864   25.9502   48.5954 H   0  0  0  0  0  0  0  0  0  0  0  0
   31.5740   27.6823   50.2400 H   0  0  0  0  0  0  0  0  0  0  0  0
  2  1  2  0
  3  2  1  0
  4  3  2  0
  4  5  1  0
  5  6  2  0
  6  1  1  0
  7  3  1  0
  1  8  1  0
  2  9  1  0
  7 10  1  0
  7 11  1  0
 12 13  3  0
 13 14  1  0
 14 15  2  0
 15 16  1  0
 16 17  1  0
 16 18  2  0
 18 19  1  0
 18 20  1  0
 20 21  2  0
 21 14  1  0
 20 22  1  0
 21 23  1  0
  5 15  1  0
M  ISO  4   8  14   9  14  17  15  19  16
M  END
>  <DihAtoms>  (1) 
3,4,14,13

>  <DihDeg>  (1) 
-179.99877121701047

$$$$
