REMARK  Name = 
REMARK  7 active torsions:
REMARK  status: ('A' for Active; 'I' for Inactive)
REMARK    1  A    between atoms: C_1  and  C_9
REMARK    2  A    between atoms: C_1  and  C_10
REMARK    3  A    between atoms: C_6  and  C_12
REMARK    4  A    between atoms: C_10  and  O_11
REMARK    5  A    between atoms: C_12  and  C_14
REMARK    6  A    between atoms: C_18  and  C_35
REMARK    7  A    between atoms: C_33  and  C_34
REMARK                            x       y       z     vdW  Elec       q    Type
REMARK                         _______ _______ _______ _____ _____    ______ ____
ROOT
ATOM      1  C   UNL     1      34.539  29.131  48.623  0.00  0.00    +0.000 C 
ATOM      2  C   UNL     1      35.177  28.391  49.747  0.00  0.00    +0.000 C 
ATOM      3  N   UNL     1      36.311  29.166  50.250  0.00  0.00    +0.000 N 
ATOM      4  C   UNL     1      37.260  29.896  51.043  0.00  0.00    +0.000 C 
ATOM      5  O   UNL     1      37.469  30.079  52.256  0.00  0.00    +0.000 OA
ATOM      6  C   UNL     1      37.986  30.419  49.921  0.00  0.00    +0.000 C 
ATOM      7  C   UNL     1      37.158  29.419  49.124  0.00  0.00    +0.000 C 
ATOM      8  S   UNL     1      35.953  30.132  47.982  0.00  0.00    +0.000 S 
ATOM      9  H   UNL     1      34.446  28.351  50.593  0.00  0.00    +0.000 HD
ATOM     10  H   UNL     1      35.456  27.348  49.510  0.00  0.00    +0.000 HD
ATOM     11  H   UNL     1      39.045  30.081  49.817  0.00  0.00    +0.000 HD
ATOM     12  H   UNL     1      37.709  28.544  48.733  0.00  0.00    +0.000 HD
ENDROOT
BRANCH   1  13
ATOM     13  C   UNL     1      33.334  29.944  48.950  0.00  0.00    +0.000 C 
ATOM     14  H   UNL     1      32.478  29.605  48.352  0.00  0.00    +0.000 HD
ATOM     15  H   UNL     1      33.489  31.029  48.686  0.00  0.00    +0.000 HD
ATOM     16  H   UNL     1      33.095  29.922  50.037  0.00  0.00    +0.000 HD
ENDBRANCH   1  13
BRANCH   1  17
ATOM     17  C   UNL     1      34.257  28.126  47.487  0.00  0.00    +0.000 C 
ATOM     18  H   UNL     1      33.251  27.713  47.703  0.00  0.00    +0.000 HD
ATOM     19  H   UNL     1      35.016  27.334  47.567  0.00  0.00    +0.000 HD
BRANCH  17  20
ATOM     20  O   UNL     1      34.318  28.805  46.272  0.00  0.00    +0.000 OA
ATOM     21  H   UNL     1      33.851  29.666  46.337  0.00  0.00    +0.000 HD
ENDBRANCH  17  20
ENDBRANCH   1  17
BRANCH   6  22
ATOM     22  C   UNL     1      37.770  31.844  49.585  0.00  0.00    +0.000 C 
ATOM     23  O   UNL     1      36.751  32.347  50.162  0.00  0.00    +0.000 OA
BRANCH  22  24
ATOM     24  C   UNL     1      38.611  32.598  48.707  0.00  0.00    +0.000 A 
ATOM     25  C   UNL     1      39.135  33.784  49.166  0.00  0.00    +0.000 A 
ATOM     26  C   UNL     1      39.963  34.525  48.295  0.00  0.00    +0.000 A 
ATOM     27  N   UNL     1      40.193  34.017  47.045  0.00  0.00    +0.000 NA
ATOM     28  C   UNL     1      39.673  32.867  46.630  0.00  0.00    +0.000 A 
ATOM     29  N   UNL     1      38.878  32.150  47.458  0.00  0.00    +0.000 NA
ATOM     30  H   UNL     1      38.958  34.194  50.154  0.00  0.00    +0.000 HD
ATOM     31  H   UNL     1      40.396  35.466  48.620  0.00  0.00    +0.000 HD
BRANCH  28  33
ATOM     32  C   UNL     1      38.833  32.130  44.447  0.00  0.00    +0.000 A 
ATOM     33  C   UNL     1      39.928  32.338  45.294  0.00  0.00    +0.000 A 
ATOM     34  C   UNL     1      41.208  32.041  44.853  0.00  0.00    +0.000 A 
ATOM     35  H   UNL     1      42.048  32.204  45.511  0.00  0.00    +0.000 HD
ATOM     36  C   UNL     1      41.405  31.537  43.567  0.00  0.00    +0.000 A 
ATOM     37  H   UNL     1      42.397  31.293  43.188  0.00  0.00    +0.000 HD
ATOM     38  C   UNL     1      40.298  31.348  42.766  0.00  0.00    +0.000 A 
ATOM     39  C   UNL     1      38.993  31.627  43.156  0.00  0.00    +0.000 A 
BRANCH  32  41
ATOM     40  N   UNL     1      36.396  32.661  45.176  0.00  0.00    +0.000 NA
ATOM     41  C   UNL     1      37.479  32.419  44.849  0.00  0.00    +0.000 C 
ENDBRANCH  32  41
ENDBRANCH  28  33
ENDBRANCH  22  24
ENDBRANCH   6  22
TORSDOF 7
