
 OpenBabel03272505123D

 40 43  0  0  0  0  0  0  0  0999 V2000
   33.9400   29.7990   47.2690 S   0  0  0  0  0  0  0  0  0  0  0  0
   36.3000   30.8870   45.5580 Cl  0  0  0  0  0  0  0  0  0  0  0  0
   36.5810   30.5940   47.2530 C   0  0  0  0  0  0  0  0  0  0  0  0
   37.8430   30.8620   47.7470 C   0  0  0  0  0  0  0  0  0  0  0  0
   38.0740   30.6300   49.0990 C   0  0  0  0  0  0  0  0  0  0  0  0
   37.0610   30.1490   49.8920 C   0  0  0  0  0  0  0  0  0  0  0  0
   35.8210   29.9040   49.3320 C   0  0  0  0  0  0  0  0  0  0  0  0
   35.5180   30.1070   48.0090 C   0  0  0  0  0  0  0  0  0  0  0  0
   39.0400   30.8250   49.5210 H   0  0  0  0  0  0  0  0  0  0  0  0
   37.2370   29.9680   50.9450 H   0  0  0  0  0  0  0  0  0  0  0  0
   35.0350   29.5240   49.9770 H   0  0  0  0  0  0  0  0  0  0  0  0
   40.1240   33.2040   46.1490 C   0  0  0  0  0  0  0  0  0  0  0  0
   40.8470   32.4170   45.2260 C   0  0  0  0  0  0  0  0  0  0  0  0
   40.5230   31.0580   45.1740 C   0  0  0  0  0  0  0  0  0  0  0  0
   39.5450   30.5740   46.0000 N   0  0  0  0  0  0  0  0  0  0  0  0
   38.8910   31.3740   46.8580 C   0  0  0  0  0  0  0  0  0  0  0  0
   39.1840   32.6730   46.9260 N   0  0  0  0  0  0  0  0  0  0  0  0
   40.2990   34.2780   46.2690 H   0  0  0  0  0  0  0  0  0  0  0  0
   41.5950   32.9080   44.6260 H   0  0  0  0  0  0  0  0  0  0  0  0
   41.0650   30.4500   44.4770 H   0  0  0  0  0  0  0  0  0  0  0  0
   32.7010   29.0020   44.4930 Cl  0  0  0  0  0  0  0  0  0  0  0  0
   33.1360   27.7950   45.6940 C   0  0  0  0  0  0  0  0  0  0  0  0
   33.6860   28.0530   46.9380 C   0  0  0  0  0  0  0  0  0  0  0  0
   33.9840   27.0180   47.7930 C   0  0  0  0  0  0  0  0  0  0  0  0
   33.7430   25.7300   47.4250 C   0  0  0  0  0  0  0  0  0  0  0  0
   33.1900   25.4110   46.1800 C   0  0  0  0  0  0  0  0  0  0  0  0
   32.9020   26.4630   45.3480 C   0  0  0  0  0  0  0  0  0  0  0  0
   34.4130   27.3220   48.7480 H   0  0  0  0  0  0  0  0  0  0  0  0
   33.9940   24.9610   48.1270 H   0  0  0  0  0  0  0  0  0  0  0  0
   33.0150   24.3790   45.9260 H   0  0  0  0  0  0  0  0  0  0  0  0
   33.2800   25.8600   43.0610 C   0  0  0  0  0  0  0  0  0  0  0  0
   32.3270   26.0680   44.0610 C   0  0  0  0  0  0  0  0  0  0  0  0
   30.9710   25.8990   43.7970 C   0  0  0  0  0  0  0  0  0  0  0  0
   30.3020   26.0770   44.6160 H   0  0  0  0  0  0  0  0  0  0  0  0
   30.6150   25.5220   42.5210 C   0  0  0  0  0  0  0  0  0  0  0  0
   29.5490   25.4030   42.3600 H   0  0  0  0  0  0  0  0  0  0  0  0
   31.5200   25.3060   41.5040 C   0  0  0  0  0  3  0  0  0  0  0  0
   32.8550   25.4830   41.8030 C   0  0  0  0  0  3  0  0  0  0  0  0
   35.8220   26.1380   43.4770 N   0  0  0  0  0  0  0  0  0  0  0  0
   34.6960   26.0230   43.2900 C   0  0  0  0  0  0  0  0  0  0  0  0
  1  8  1  0  0  0  0
  2  3  1  0  0  0  0
  3  4  2  0  0  0  0
  3  8  1  0  0  0  0
  4  5  1  0  0  0  0
  5  9  1  0  0  0  0
  5  6  2  0  0  0  0
  6 10  1  0  0  0  0
  7  6  1  0  0  0  0
  7 11  1  0  0  0  0
  8  7  2  0  0  0  0
 12 18  1  0  0  0  0
 12 17  1  0  0  0  0
 13 12  2  0  0  0  0
 14 13  1  0  0  0  0
 14 15  2  0  0  0  0
 15 16  1  0  0  0  0
 16 17  2  0  0  0  0
 16  4  1  0  0  0  0
 19 13  1  0  0  0  0
 20 14  1  0  0  0  0
 21 22  1  0  0  0  0
 22 23  1  0  0  0  0
 23  1  1  0  0  0  0
 23 24  2  0  0  0  0
 24 28  1  0  0  0  0
 25 24  1  0  0  0  0
 25 29  1  0  0  0  0
 26 25  2  0  0  0  0
 27 22  2  0  0  0  0
 27 26  1  0  0  0  0
 30 26  1  0  0  0  0
 31 40  1  0  0  0  0
 31 32  1  0  0  0  0
 32 27  1  0  0  0  0
 33 32  2  0  0  0  0
 33 34  1  0  0  0  0
 35 33  1  0  0  0  0
 36 35  1  0  0  0  0
 37 38  1  0  0  0  0
 37 35  2  0  0  0  0
 38 31  2  0  0  0  0
 40 39  3  0  0  0  0
M  END
>  <minimizedAffinity>
-5.23525524

>  <minimizedRMSD>
1.30021262

$$$$
