
 OpenBabel03272509083D

 41 44  0  0  0  0  0  0  0  0999 V2000
   33.1800   28.0400   47.7980 C   0  0  0  0  0  0  0  0  0  0  0  0
   32.4790   28.7100   47.2830 H   0  0  0  0  0  0  0  0  0  0  0  0
   32.5770   27.5880   48.6390 H   0  0  0  0  0  0  0  0  0  0  0  0
   33.5980   26.8820   46.9730 C   0  0  0  0  0  0  0  0  0  0  0  0
   33.8000   25.6080   47.4730 C   0  0  0  0  0  0  0  0  0  0  0  0
   34.1880   24.5880   46.6370 C   0  0  0  0  0  0  0  0  0  0  0  0
   34.3890   24.7900   45.2810 C   0  0  0  0  0  0  0  0  0  0  0  0
   34.1890   26.0450   44.7870 C   0  0  0  0  0  0  0  0  0  0  0  0
   33.7990   27.0870   45.6090 C   0  0  0  0  0  0  0  0  0  0  0  0
   33.6280   25.5140   48.5370 H   0  0  0  0  0  0  0  0  0  0  0  0
   34.3180   23.6410   47.1210 H   0  0  0  0  0  0  0  0  0  0  0  0
   34.6950   23.9030   44.7260 H   0  0  0  0  0  0  0  0  0  0  0  0
   34.3570   26.1550   43.7270 H   0  0  0  0  0  0  0  0  0  0  0  0
   32.4200   28.8990   44.5410 C   0  0  0  0  0  0  0  0  0  0  0  0
   33.6120   28.3970   44.9820 C   0  0  0  0  0  0  0  0  0  0  0  0
   34.7860   29.1400   44.8550 C   0  0  0  0  0  0  0  0  0  0  0  0
   35.7610   28.7790   45.1930 H   0  0  0  0  0  0  0  0  0  0  0  0
   34.7750   30.3980   44.2830 C   0  0  0  0  0  0  0  0  0  0  0  0
   35.6870   30.9710   44.1850 H   0  0  0  0  0  0  0  0  0  0  0  0
   33.5410   30.8730   43.8460 C   0  0  0  0  0  3  0  0  0  0  0  0
   32.3660   30.1560   43.9610 C   0  0  0  0  0  3  0  0  0  0  0  0
   30.3060   27.4030   44.8370 N   0  0  0  0  0  0  0  0  0  0  0  0
   31.2580   28.0800   44.7040 C   0  0  0  0  0  0  0  0  0  0  0  0
   34.9800   28.3950   49.4760 C   0  0  0  0  0  3  0  0  0  0  0  0
   34.2980   28.7500   48.4280 C   0  0  0  0  0  3  0  0  0  0  0  0
   37.3970   30.1570   51.5740 C   0  0  0  0  0  0  0  0  0  0  0  0
   38.0980   30.9270   50.6240 C   0  0  0  0  0  0  0  0  0  0  0  0
   37.7080   30.8140   49.2660 C   0  0  0  0  0  0  0  0  0  0  0  0
   36.6750   29.9640   48.9530 N   0  0  0  0  0  0  0  0  0  0  0  0
   36.0520   29.2570   49.9310 C   0  0  0  0  0  0  0  0  0  0  0  0
   36.4030   29.3490   51.2070 N   0  0  0  0  0  0  0  0  0  0  0  0
   37.7360   30.2820   52.5910 H   0  0  0  0  0  0  0  0  0  0  0  0
   38.9140   31.6050   50.8270 H   0  0  0  0  0  0  0  0  0  0  0  0
   38.3670   31.5660   48.2040 C   0  0  0  0  0  0  0  0  0  0  0  0
   38.5660   31.0230   46.9440 C   0  0  0  0  0  0  0  0  0  0  0  0
   39.2140   31.9930   46.1760 C   0  0  0  0  0  0  0  0  0  0  0  0
   39.3830   33.0790   46.9940 N   0  0  0  0  0  0  0  0  0  0  0  0
   38.8750   32.8090   48.1920 N   0  0  0  0  0  0  0  0  0  0  0  0
   38.3140   30.0540   46.5170 H   0  0  0  0  0  0  0  0  0  0  0  0
   39.5380   31.9460   45.1450 H   0  0  0  0  0  0  0  0  0  0  0  0
   39.8270   34.0070   46.7900 H   0  0  0  0  0  0  0  0  0  0  0  0
  1 25  1  0  0  0  0
  1  3  1  0  0  0  0
  2  1  1  0  0  0  0
  4  5  1  0  0  0  0
  4  1  1  0  0  0  0
  5 10  1  0  0  0  0
  6 11  1  0  0  0  0
  6  5  2  0  0  0  0
  7  6  1  0  0  0  0
  8  7  2  0  0  0  0
  8  9  1  0  0  0  0
  9  4  2  0  0  0  0
 12  7  1  0  0  0  0
 13  8  1  0  0  0  0
 14 23  1  0  0  0  0
 14 15  1  0  0  0  0
 15  9  1  0  0  0  0
 16 15  2  0  0  0  0
 16 17  1  0  0  0  0
 18 16  1  0  0  0  0
 19 18  1  0  0  0  0
 20 21  1  0  0  0  0
 20 18  2  0  0  0  0
 21 14  2  0  0  0  0
 23 22  3  0  0  0  0
 24 30  1  0  0  0  0
 25 24  2  0  0  0  0
 26 32  1  0  0  0  0
 27 33  1  0  0  0  0
 27 26  2  0  0  0  0
 28 27  1  0  0  0  0
 29 28  2  0  0  0  0
 29 30  1  0  0  0  0
 30 31  2  0  0  0  0
 31 26  1  0  0  0  0
 34 28  1  0  0  0  0
 35 34  1  0  0  0  0
 36 35  2  0  0  0  0
 36 37  1  0  0  0  0
 37 38  1  0  0  0  0
 38 34  2  0  0  0  0
 39 35  1  0  0  0  0
 40 36  1  0  0  0  0
 41 37  1  0  0  0  0
M  END
>  <minimizedAffinity>
-6.19913435

>  <minimizedRMSD>
0.388210028

$$$$
