REMARK  Name = 
REMARK  3 active torsions:
REMARK  status: ('A' for Active; 'I' for Inactive)
REMARK    1  A    between atoms: C_2  and  N_7
REMARK    2  A    between atoms: C_5  and  C_15
REMARK    3  A    between atoms: C_13  and  C_14
REMARK                            x       y       z     vdW  Elec       q    Type
REMARK                         _______ _______ _______ _____ _____    ______ ____
ROOT
ATOM      1  C   UNL     1      36.627  29.759  51.260  0.00  0.00    +0.000 A 
ATOM      2  C   UNL     1      37.386  30.119  50.123  0.00  0.00    +0.000 A 
ATOM      3  C   UNL     1      36.804  29.794  48.889  0.00  0.00    +0.000 A 
ATOM      4  N   UNL     1      35.588  29.175  48.850  0.00  0.00    +0.000 NA
ATOM      5  C   UNL     1      34.917  28.859  49.973  0.00  0.00    +0.000 A 
ATOM      6  N   UNL     1      35.423  29.145  51.193  0.00  0.00    +0.000 NA
ATOM      7  H   UNL     1      37.108  30.026  52.211  0.00  0.00    +0.000 HD
ATOM      8  H   UNL     1      37.364  30.058  48.001  0.00  0.00    +0.000 HD
ENDROOT
BRANCH   5  10
ATOM      9  C   UNL     1      32.477  28.823  49.443  0.00  0.00    +0.000 A 
ATOM     10  C   UNL     1      33.625  28.199  49.830  0.00  0.00    +0.000 A 
ATOM     11  C   UNL     1      33.545  26.850  50.102  0.00  0.00    +0.000 A 
ATOM     12  H   UNL     1      34.421  26.269  50.420  0.00  0.00    +0.000 HD
ATOM     13  C   UNL     1      32.374  26.125  50.000  0.00  0.00    +0.000 A 
ATOM     14  H   UNL     1      32.343  25.049  50.225  0.00  0.00    +0.000 HD
ATOM     15  C   UNL     1      31.209  26.755  49.608  0.00  0.00    +0.000 A 
ATOM     16  C   UNL     1      31.293  28.119  49.333  0.00  0.00    +0.000 A 
BRANCH   9  18
ATOM     17  N   UNL     1      32.602  31.358  48.931  0.00  0.00    +0.000 NA
ATOM     18  C   UNL     1      32.546  30.229  49.156  0.00  0.00    +0.000 C 
ENDBRANCH   9  18
ENDBRANCH   5  10
BRANCH   2  19
ATOM     19  N   UNL     1      38.644  30.762  50.259  0.00  0.00    +0.000 N 
ATOM     20  H   UNL     1      39.549  30.314  50.084  0.00  0.00    +0.000 HD
ATOM     21  H   UNL     1      38.641  31.768  50.560  0.00  0.00    +0.000 HD
ENDBRANCH   2  19
TORSDOF 3
