
 OpenBabel03272504503D

 43 46  0  0  1  0  0  0  0  0999 V2000
   38.2670   31.6370   45.2090 N   0  0  0  0  0  0  0  0  0  0  0  0
   39.2650   31.9540   46.2210 C   0  0  0  0  0  0  0  0  0  0  0  0
   40.4720   32.6400   45.6670 C   0  0  0  0  0  0  0  0  0  0  0  0
   40.0690   33.6050   44.5720 C   0  0  0  0  0  0  0  0  0  0  0  0
   39.5570   32.7740   43.4370 C   0  0  0  0  0  0  0  0  0  0  0  0
   38.3810   31.9190   43.8140 C   0  0  1  0  0  0  0  0  0  0  0  0
   39.5770   31.0000   46.6770 H   0  0  0  0  0  0  0  0  0  0  0  0
   38.8410   32.6520   46.9940 H   0  0  0  0  0  0  0  0  0  0  0  0
   40.9620   33.2450   46.4600 H   0  0  0  0  0  0  0  0  0  0  0  0
   41.1980   31.9310   45.2150 H   0  0  0  0  0  0  0  0  0  0  0  0
   40.9720   34.1410   44.2110 H   0  0  0  0  0  0  0  0  0  0  0  0
   39.2830   34.3150   44.9330 H   0  0  0  0  0  0  0  0  0  0  0  0
   40.4020   32.1450   43.0660 H   0  0  0  0  0  0  0  0  0  0  0  0
   39.2710   33.4480   42.5850 H   0  0  0  0  0  0  0  0  0  0  0  0
   37.4540   32.4300   43.4820 H   0  0  0  0  0  0  0  0  0  0  0  0
   36.9200   30.7130   47.0230 C   0  0  0  0  0  0  0  0  0  0  0  0
   37.0950   30.9920   45.6740 C   0  0  0  0  0  0  0  0  0  0  0  0
   36.0790   30.6090   44.8180 C   0  0  0  0  0  0  0  0  0  0  0  0
   34.9770   29.9880   45.3250 N   0  0  0  0  0  0  0  0  0  0  0  0
   34.8410   29.7330   46.6370 C   0  0  0  0  0  0  0  0  0  0  0  0
   35.8170   30.1010   47.4710 N   0  0  0  0  0  0  0  0  0  0  0  0
   37.6750   30.9850   47.7570 H   0  0  0  0  0  0  0  0  0  0  0  0
   36.1290   30.7860   43.7620 H   0  0  0  0  0  0  0  0  0  0  0  0
   33.6570   29.0730   47.1360 C   0  0  0  0  0  0  0  0  0  0  0  0
   33.6600   28.4920   48.3840 C   0  0  0  0  0  0  0  0  0  0  0  0
   32.5710   27.8470   48.9210 C   0  0  0  0  0  0  0  0  0  0  0  0
   31.4560   27.8230   48.1060 C   0  0  0  0  0  0  0  0  0  0  0  0
   31.3980   28.4050   46.8150 C   0  0  0  0  0  0  0  0  0  0  0  0
   32.5420   29.0230   46.3760 N   0  0  0  0  0  0  0  0  0  0  0  0
   34.5690   28.5480   48.9680 H   0  0  0  0  0  0  0  0  0  0  0  0
   32.5290   27.3830   49.8830 H   0  0  0  0  0  0  0  0  0  0  0  0
   30.5430   27.3400   48.4330 H   0  0  0  0  0  0  0  0  0  0  0  0
   30.5040   28.3540   46.2300 H   0  0  0  0  0  0  0  0  0  0  0  0
   37.8290   30.3540   41.8290 C   0  0  0  0  0  0  0  0  0  0  0  0
   38.5010   30.6720   42.9950 C   0  0  0  0  0  0  0  0  0  0  0  0
   39.3980   29.7430   43.4880 C   0  0  0  0  0  0  0  0  0  0  0  0
   39.9910   29.8590   44.3860 H   0  0  0  0  0  0  0  0  0  0  0  0
   39.6320   28.5390   42.8580 C   0  0  0  0  0  0  0  0  0  0  0  0
   40.3200   27.7820   43.2010 H   0  0  0  0  0  0  0  0  0  0  0  0
   38.9430   28.2330   41.6790 C   0  0  0  0  0  3  0  0  0  0  0  0
   38.0570   29.1580   41.2000 C   0  0  0  0  0  3  0  0  0  0  0  0
   36.1630   32.1600   40.9810 N   0  0  0  0  0  0  0  0  0  0  0  0
   36.9110   31.3580   41.3690 C   0  0  0  0  0  0  0  0  0  0  0  0
  1 17  1  0  0  0  0
  1  2  1  0  0  0  0
  2  7  1  0  0  0  0
  2  8  1  0  0  0  0
  3  2  1  0  0  0  0
  3  9  1  0  0  0  0
  4 12  1  0  0  0  0
  4  3  1  0  0  0  0
  5  6  1  0  0  0  0
  5  4  1  0  0  0  0
  6 15  1  6  0  0  0
  6  1  1  0  0  0  0
 10  3  1  0  0  0  0
 11  4  1  0  0  0  0
 13  5  1  0  0  0  0
 14  5  1  0  0  0  0
 16 21  1  0  0  0  0
 16 22  1  0  0  0  0
 17 16  2  0  0  0  0
 18 19  2  0  0  0  0
 18 17  1  0  0  0  0
 19 20  1  0  0  0  0
 20 24  1  0  0  0  0
 20 21  2  0  0  0  0
 23 18  1  0  0  0  0
 24 25  1  0  0  0  0
 25 26  2  0  0  0  0
 25 30  1  0  0  0  0
 26 31  1  0  0  0  0
 27 32  1  0  0  0  0
 27 26  1  0  0  0  0
 28 27  2  0  0  0  0
 29 28  1  0  0  0  0
 29 24  2  0  0  0  0
 33 28  1  0  0  0  0
 34 35  1  0  0  0  0
 35 36  2  0  0  0  0
 35  6  1  0  0  0  0
 36 37  1  0  0  0  0
 38 39  1  0  0  0  0
 38 36  1  0  0  0  0
 40 38  2  0  0  0  0
 41 40  1  0  0  0  0
 41 34  2  0  0  0  0
 42 43  3  0  0  0  0
 43 34  1  0  0  0  0
M  END
>  <minimizedAffinity>
-5.11138391

>  <minimizedRMSD>
3.15706134

$$$$
