
     RDKit          3D

 34 36  0  0  0  0  0  0  0  0999 V2000
   35.6227   30.1830   46.4642 O   0  0  0  0  0  0  0  0  0  0  0  0
   34.4066   29.8758   47.3285 P   0  0  1  0  0  0  0  0  0  0  0  0
   34.2351   28.1973   47.5411 O   0  0  0  0  0  0  0  0  0  0  0  0
   34.5332   30.5799   48.8674 O   0  0  0  0  0  0  0  0  0  0  0  0
   35.6794   30.4643   49.6445 C   0  0  0  0  0  0  0  0  0  0  0  0
   35.9118   29.5013   50.6426 C   0  0  0  0  0  0  0  0  0  0  0  0
   37.1172   29.5469   51.3103 C   0  0  0  0  0  0  0  0  0  0  0  0
   38.0276   30.4944   50.9979 N   0  0  0  0  0  0  0  0  0  0  0  0
   37.7759   31.4161   50.0254 C   0  0  0  0  0  0  0  0  0  0  0  0
   36.6004   31.4030   49.3462 N   0  0  0  0  0  0  0  0  0  0  0  0
   33.0740   30.5054   46.4959 O   0  0  0  0  0  0  0  0  0  0  0  0
   32.0935   29.5900   46.0907 C   0  0  0  0  0  0  0  0  0  0  0  0
   31.5225   29.4015   44.8405 C   0  0  0  0  0  0  0  0  0  0  0  0
   30.6386   28.4212   44.9318 N   0  0  0  0  0  0  0  0  0  0  0  0
   30.6054   27.9562   46.1959 C   0  0  0  0  0  0  0  0  0  0  0  0
   31.4973   28.6734   46.9041 N   0  0  0  0  0  0  0  0  0  0  0  0
   33.7611   28.0587   48.3837 H   0  0  0  0  0  0  0  0  0  0  0  0
   35.1075   28.8081   50.7900 H   0  0  0  0  0  0  0  0  0  0  0  0
   37.2665   28.7926   52.0729 H   0  0  0  0  0  0  0  0  0  0  0  0
   38.5375   32.1559   49.8114 H   0  0  0  0  0  0  0  0  0  0  0  0
   31.8137   30.0068   43.9791 H   0  0  0  0  0  0  0  0  0  0  0  0
   30.0817   28.1003   44.1161 H   0  0  0  0  0  0  0  0  0  0  0  0
   32.7176   25.0608   46.6375 N   0  0  0  0  0  0  0  0  0  0  0  0
   31.5977   25.3114   46.7865 C   0  0  0  0  0  0  0  0  0  0  0  0
   30.2075   25.6058   46.9901 C   0  0  0  0  0  0  0  0  0  0  0  0
   29.7615   26.8789   46.6992 C   0  0  0  0  0  0  0  0  0  0  0  0
   28.4185   27.1095   46.9123 C   0  0  0  0  0  0  0  0  0  0  0  0
   27.9895   28.0849   46.7077 H   0  0  0  0  0  0  0  0  0  0  0  0
   27.5536   26.1314   47.3899 C   0  0  0  0  0  0  0  0  0  0  0  0
   26.5020   26.3126   47.5566 H   0  0  0  0  0  0  0  0  0  0  0  0
   28.0390   24.8719   47.6685 C   0  0  0  0  0  0  0  0  0  0  0  0
   29.3808   24.6085   47.4656 C   0  0  0  0  0  0  0  0  0  0  0  0
   27.4316   24.0733   48.0377 H   0  0  0  0  0  0  0  0  0  0  0  0
   29.8068   23.6286   47.6721 H   0  0  0  0  0  0  0  0  0  0  0  0
  2  1  2  0
  2  3  1  1
  2  4  1  0
  4  5  1  0
  5  6  2  0
  6  7  1  0
  8  7  2  0
  9  8  1  0
 10  5  1  0
 10  9  2  0
 11  2  1  0
 12 11  1  0
 12 16  1  0
 13 14  1  0
 13 12  2  0
 14 15  1  0
 15 16  2  0
  3 17  1  0
  6 18  1  0
  7 19  1  0
  9 20  1  0
 13 21  1  0
 14 22  1  0
 23 24  3  0
 24 25  1  0
 25 26  2  0
 26 27  1  0
 27 28  1  0
 27 29  2  0
 29 30  1  0
 29 31  1  0
 31 32  2  0
 32 25  1  0
 31 33  1  0
 32 34  1  0
 15 26  1  0
M  ISO  8  17   3  18  14  19  14  20  14  21  14  22   9  28  15  30  16
M  END
>  <DihAtoms>  (1) 
13,14,25,24

>  <DihDeg>  (1) 
-179.98686787871947

$$$$
