
 OpenBabel03262523483D

 39 42  0  0  0  0  0  0  0  0999 V2000
   36.8880   32.6410   43.4740 Cl  0  0  0  0  0  0  0  0  0  0  0  0
   37.8150   31.1770   43.1680 C   0  0  0  0  0  0  0  0  0  0  0  0
   38.5560   30.7070   44.2400 C   0  0  0  0  0  0  0  0  0  0  0  0
   39.3300   29.5490   44.1060 C   0  0  0  0  0  0  0  0  0  0  0  0
   39.3540   28.8670   42.8900 C   0  0  0  0  0  0  0  0  0  0  0  0
   38.6100   29.3570   41.8470 C   0  0  0  0  0  0  0  0  0  0  0  0
   37.8410   30.5060   41.9770 C   0  0  0  0  0  0  0  0  0  0  0  0
   39.9210   29.1420   44.9010 H   0  0  0  0  0  0  0  0  0  0  0  0
   39.9420   27.9680   42.7510 H   0  0  0  0  0  0  0  0  0  0  0  0
   38.5700   28.8920   40.8660 H   0  0  0  0  0  0  0  0  0  0  0  0
   38.6830   32.9480   49.7670 Cl  0  0  0  0  0  0  0  0  0  0  0  0
   38.6350   32.2790   48.1530 C   0  0  0  0  0  0  0  0  0  0  0  0
   37.8900   31.1670   47.8610 C   0  0  0  0  0  0  0  0  0  0  0  0
   37.9060   30.7040   46.5690 C   0  0  0  0  0  0  0  0  0  0  0  0
   38.6320   31.3090   45.5730 C   0  0  0  0  0  0  0  0  0  0  0  0
   39.3850   32.4450   45.9000 C   0  0  0  0  0  0  0  0  0  0  0  0
   40.2910   33.1790   44.6070 Cl  0  0  0  0  0  0  0  0  0  0  0  0
   39.3880   32.9300   47.1850 C   0  0  0  0  0  0  0  0  0  0  0  0
   37.2960   29.8100   46.3760 H   0  0  0  0  0  0  0  0  0  0  0  0
   39.9780   33.8140   47.4260 H   0  0  0  0  0  0  0  0  0  0  0  0
   37.0290   29.3620   51.0850 C   0  0  0  0  0  0  0  0  0  0  0  0
   37.7780   29.9280   50.0370 C   0  0  0  0  0  0  0  0  0  0  0  0
   37.1300   30.5620   48.9750 C   0  0  0  0  0  0  0  0  0  0  0  0
   35.7630   30.6040   49.0040 N   0  0  0  0  0  0  0  0  0  0  0  0
   35.0910   30.0460   50.0320 C   0  0  0  0  0  0  0  0  0  0  0  0
   35.7030   29.4390   51.0480 N   0  0  0  0  0  0  0  0  0  0  0  0
   37.4990   28.8720   51.9080 H   0  0  0  0  0  0  0  0  0  0  0  0
   38.8710   29.8740   50.0520 H   0  0  0  0  0  0  0  0  0  0  0  0
   34.0180   30.1990   49.8420 H   0  0  0  0  0  0  0  0  0  0  0  0
   35.7090   30.7550   40.6600 C   0  0  0  0  0  0  0  0  0  0  0  0
   37.0540   31.0300   40.8850 C   0  0  0  0  0  0  0  0  0  0  0  0
   37.7500   31.8720   40.0200 C   0  0  0  0  0  0  0  0  0  0  0  0
   38.7980   32.1380   40.1230 H   0  0  0  0  0  0  0  0  0  0  0  0
   37.0830   32.4220   38.9470 C   0  0  0  0  0  0  0  0  0  0  0  0
   37.5730   33.0960   38.2260 H   0  0  0  0  0  0  0  0  0  0  0  0
   35.7500   32.1430   38.7350 C   0  0  0  0  0  0  0  0  0  0  0  0
   35.0260   31.3060   39.5800 C   0  0  0  0  0  0  0  0  0  0  0  0
   34.5850   29.1550   42.3580 N   0  0  0  0  0  0  0  0  0  0  0  0
   35.0760   29.8700   41.6130 C   0  0  0  0  0  0  0  0  0  0  0  0
  2  1  1  0  0  0  0
  2  3  1  0  0  0  0
  3 15  1  0  0  0  0
  4  3  2  0  0  0  0
  4  8  1  0  0  0  0
  5  4  1  0  0  0  0
  6  7  1  0  0  0  0
  6  5  2  0  0  0  0
  7  2  2  0  0  0  0
  9  5  1  0  0  0  0
 10  6  1  0  0  0  0
 12 11  1  0  0  0  0
 13 12  1  0  0  0  0
 13 23  1  0  0  0  0
 14 13  2  0  0  0  0
 15 16  2  0  0  0  0
 15 14  1  0  0  0  0
 16 18  1  0  0  0  0
 17 16  1  0  0  0  0
 18 20  1  0  0  0  0
 18 12  2  0  0  0  0
 19 14  1  0  0  0  0
 21 27  1  0  0  0  0
 22 28  1  0  0  0  0
 22 21  2  0  0  0  0
 23 24  2  0  0  0  0
 23 22  1  0  0  0  0
 24 25  1  0  0  0  0
 25 26  2  0  0  0  0
 26 21  1  0  0  0  0
 29 25  1  0  0  0  0
 30 31  1  0  0  0  0
 30 39  1  0  0  0  0
 31  7  1  0  0  0  0
 32 33  1  0  0  0  0
 32 31  2  0  0  0  0
 34 32  1  0  0  0  0
 35 34  1  0  0  0  0
 36 34  2  0  0  0  0
 36 37  1  0  0  0  0
 37 30  2  0  0  0  0
 39 38  3  0  0  0  0
M  END
>  <minimizedAffinity>
-6.17594194

>  <minimizedRMSD>
0.788355052

$$$$
