
 OpenBabel03272502373D

 31 33  0  0  1  0  0  0  0  0999 V2000
   33.6190   29.8980   46.4960 N   0  0  0  0  0  0  0  0  0  0  0  0
   34.8360   29.5760   45.7660 C   0  0  0  0  0  0  0  0  0  0  0  0
   35.9230   29.9400   46.7590 C   0  0  0  0  0  0  0  0  0  0  0  0
   35.2210   30.5010   47.9730 C   0  0  1  0  0  0  0  0  0  0  0  0
   33.9300   29.7150   47.9180 C   0  0  0  0  0  0  0  0  0  0  0  0
   34.8140   28.4790   45.5790 H   0  0  0  0  0  0  0  0  0  0  0  0
   34.9340   30.0860   44.8030 H   0  0  0  0  0  0  0  0  0  0  0  0
   36.5300   29.0540   46.9730 H   0  0  0  0  0  0  0  0  0  0  0  0
   36.4730   30.7770   46.3020 H   0  0  0  0  0  0  0  0  0  0  0  0
   34.9820   31.5750   47.8130 H   0  0  0  0  0  0  0  0  0  0  0  0
   33.1190   30.1450   48.5010 H   0  0  0  0  0  0  0  0  0  0  0  0
   34.1050   28.6340   48.0890 H   0  0  0  0  0  0  0  0  0  0  0  0
   32.3740   30.3080   45.9400 C   0  0  0  0  0  0  0  0  0  0  0  0
   32.3600   31.4810   45.1960 C   0  0  0  0  0  0  0  0  0  0  0  0
   31.1390   31.8850   44.6470 C   0  0  0  0  0  0  0  0  0  0  0  0
   30.0310   31.0910   44.8810 N   0  0  0  0  0  0  0  0  0  0  0  0
   30.0970   29.9550   45.6140 C   0  0  0  0  0  0  0  0  0  0  0  0
   31.2830   29.5510   46.1550 N   0  0  0  0  0  0  0  0  0  0  0  0
   33.1840   32.1100   44.9990 H   0  0  0  0  0  0  0  0  0  0  0  0
   31.0320   32.7840   44.0540 H   0  0  0  0  0  0  0  0  0  0  0  0
   29.1780   29.3990   45.7450 H   0  0  0  0  0  0  0  0  0  0  0  0
   37.0890   30.9320   49.3740 C   0  0  0  0  0  0  0  0  0  0  0  0
   35.8700   30.2570   49.2540 C   0  0  0  0  0  0  0  0  0  0  0  0
   35.5000   29.4970   50.3420 C   0  0  0  0  0  0  0  0  0  0  0  0
   34.5540   28.9930   50.2080 H   0  0  0  0  0  0  0  0  0  0  0  0
   36.2720   29.4000   51.4790 C   0  0  0  0  0  0  0  0  0  0  0  0
   35.8610   28.7680   52.2570 H   0  0  0  0  0  0  0  0  0  0  0  0
   37.4570   30.0620   51.5830 C   0  0  0  0  0  0  0  0  0  0  0  0
   37.8630   30.8250   50.5330 C   0  0  0  0  0  0  0  0  0  0  0  0
   38.0800   32.4430   47.5210 N   0  0  0  0  0  0  0  0  0  0  0  0
   37.6490   31.7750   48.3490 C   0  0  0  0  0  0  0  0  0  0  0  0
  1  5  1  0  0  0  0
  2  1  1  0  0  0  0
  2  3  1  0  0  0  0
  3  8  1  0  0  0  0
  3  4  1  0  0  0  0
  4 10  1  6  0  0  0
  4 23  1  0  0  0  0
  5  4  1  0  0  0  0
  5 12  1  0  0  0  0
  5 11  1  0  0  0  0
  6  2  1  0  0  0  0
  7  2  1  0  0  0  0
  9  3  1  0  0  0  0
 13 18  1  0  0  0  0
 13  1  1  0  0  0  0
 14 13  2  0  0  0  0
 15 16  2  0  0  0  0
 15 14  1  0  0  0  0
 16 17  1  0  0  0  0
 17 21  1  0  0  0  0
 17 18  2  0  0  0  0
 19 14  1  0  0  0  0
 20 15  1  0  0  0  0
 22 29  1  0  0  0  0
 23 22  2  0  0  0  0
 23 24  1  0  0  0  0
 24 26  2  0  0  0  0
 25 24  1  0  0  0  0
 26 28  1  0  0  0  0
 26 27  1  0  0  0  0
 29 28  2  0  0  0  0
 30 31  3  0  0  0  0
 31 22  1  0  0  0  0
M  END
>  <minimizedAffinity>
-5.30081511

>  <minimizedRMSD>
4.23472929

$$$$
