
 OpenBabel03272506563D

 21 22  0  0  0  0  0  0  0  0999 V2000
   35.8780   30.0500   50.1520 C   0  0  0  0  0  0  0  0  0  0  0  0
   37.0910   30.1120   50.8750 C   0  0  0  0  0  0  0  0  0  0  0  0
   38.2250   30.4330   50.1140 C   0  0  0  0  0  0  0  0  0  0  0  0
   38.1040   30.6590   48.7730 N   0  0  0  0  0  0  0  0  0  0  0  0
   36.9160   30.5830   48.1450 C   0  0  0  0  0  0  0  0  0  0  0  0
   35.7870   30.2780   48.8220 N   0  0  0  0  0  0  0  0  0  0  0  0
   35.0090   29.7970   50.7750 H   0  0  0  0  0  0  0  0  0  0  0  0
   39.1680   30.4870   50.6420 H   0  0  0  0  0  0  0  0  0  0  0  0
   37.6990   31.7280   46.0690 C   0  0  0  0  0  0  0  0  0  0  0  0
   36.8880   30.8410   46.7110 C   0  0  0  0  0  0  0  0  0  0  0  0
   35.9810   30.1470   45.9380 C   0  0  0  0  0  0  0  0  0  0  0  0
   35.2890   29.4140   46.3730 H   0  0  0  0  0  0  0  0  0  0  0  0
   35.8670   30.3120   44.5720 C   0  0  0  0  0  0  0  0  0  0  0  0
   35.1330   29.7430   43.9830 H   0  0  0  0  0  0  0  0  0  0  0  0
   36.6890   31.2100   43.9190 C   0  0  0  0  0  3  0  0  0  0  0  0
   37.6050   31.9100   44.7020 C   0  0  0  0  0  3  0  0  0  0  0  0
   39.4070   33.0460   47.5000 N   0  0  0  0  0  0  0  0  0  0  0  0
   38.6490   32.4580   46.8610 C   0  0  0  0  0  0  0  0  0  0  0  0
   37.1220   29.8620   52.2720 N   0  0  0  0  0  0  0  0  0  0  0  0
   37.5060   29.0150   52.7040 H   0  0  0  0  0  0  0  0  0  0  0  0
   36.7230   30.6000   52.9030 H   0  0  0  0  0  0  0  0  0  0  0  0
  1  7  1  0  0  0  0
  1  2  1  0  0  0  0
  2 19  1  0  0  0  0
  3  8  1  0  0  0  0
  3  2  2  0  0  0  0
  4  3  1  0  0  0  0
  5  4  2  0  0  0  0
  5  6  1  0  0  0  0
  6  1  2  0  0  0  0
  9 10  1  0  0  0  0
  9 18  1  0  0  0  0
 10  5  1  0  0  0  0
 11 12  1  0  0  0  0
 11 10  2  0  0  0  0
 13 11  1  0  0  0  0
 14 13  1  0  0  0  0
 15 13  2  0  0  0  0
 15 16  1  0  0  0  0
 16  9  2  0  0  0  0
 18 17  3  0  0  0  0
 19 20  1  0  0  0  0
 19 21  1  0  0  0  0
M  END
>  <minimizedAffinity>
-4.05053139

>  <minimizedRMSD>
5.56116104

$$$$
