
 OpenBabel03272506563D

 21 22  0  0  0  0  0  0  0  0999 V2000
   40.7910   23.2400   36.1010 C   0  0  0  0  0  0  0  0  0  0  0  0
   40.2130   22.5700   37.2030 C   0  0  0  0  0  0  0  0  0  0  0  0
   38.9400   23.0240   37.5790 C   0  0  0  0  0  0  0  0  0  0  0  0
   38.3500   24.0440   36.8900 N   0  0  0  0  0  0  0  0  0  0  0  0
   38.9560   24.6410   35.8480 C   0  0  0  0  0  0  0  0  0  0  0  0
   40.1830   24.2500   35.4360 N   0  0  0  0  0  0  0  0  0  0  0  0
   41.7870   22.8630   35.8310 H   0  0  0  0  0  0  0  0  0  0  0  0
   38.4740   22.5280   38.4200 H   0  0  0  0  0  0  0  0  0  0  0  0
   37.6630   25.6170   33.9480 C   0  0  0  0  0  0  0  0  0  0  0  0
   38.2460   25.7220   35.1760 C   0  0  0  0  0  0  0  0  0  0  0  0
   38.1520   26.9400   35.8140 C   0  0  0  0  0  0  0  0  0  0  0  0
   38.5930   27.1120   36.8040 H   0  0  0  0  0  0  0  0  0  0  0  0
   37.5030   28.0310   35.2690 C   0  0  0  0  0  0  0  0  0  0  0  0
   37.4450   28.9900   35.8040 H   0  0  0  0  0  0  0  0  0  0  0  0
   36.9110   27.9280   34.0250 C   0  0  0  0  0  3  0  0  0  0  0  0
   37.0090   26.6950   33.3830 C   0  0  0  0  0  3  0  0  0  0  0  0
   37.8240   23.3420   32.7230 N   0  0  0  0  0  0  0  0  0  0  0  0
   37.7540   24.3530   33.2710 C   0  0  0  0  0  0  0  0  0  0  0  0
   40.9020   21.5170   37.8600 N   0  0  0  0  0  0  0  0  0  0  0  0
   41.3320   21.5910   38.7870 H   0  0  0  0  0  0  0  0  0  0  0  0
   40.9730   20.5990   37.3540 H   0  0  0  0  0  0  0  0  0  0  0  0
  1  2  1  0  0  0  0
  2  3  2  0  0  0  0
  2 19  1  0  0  0  0
  3  8  1  0  0  0  0
  4  3  1  0  0  0  0
  5  4  2  0  0  0  0
  6  5  1  0  0  0  0
  6  1  2  0  0  0  0
  7  1  1  0  0  0  0
  9 10  1  0  0  0  0
 10 11  2  0  0  0  0
 10  5  1  0  0  0  0
 11 12  1  0  0  0  0
 13 14  1  0  0  0  0
 13 11  1  0  0  0  0
 15 13  2  0  0  0  0
 16  9  2  0  0  0  0
 16 15  1  0  0  0  0
 17 18  3  0  0  0  0
 18  9  1  0  0  0  0
 19 20  1  0  0  0  0
 21 19  1  0  0  0  0
M  END
>  <minimizedAffinity>
-4.65507841

$$$$

 OpenBabel03272506563D

 21 22  0  0  0  0  0  0  0  0999 V2000
   36.2360   27.9740   32.3300 C   0  0  0  0  0  0  0  0  0  0  0  0
   36.1450   28.5910   31.0610 C   0  0  0  0  0  0  0  0  0  0  0  0
   35.6060   29.8850   31.0630 C   0  0  0  0  0  0  0  0  0  0  0  0
   35.2160   30.4600   32.2380 N   0  0  0  0  0  0  0  0  0  0  0  0
   35.3300   29.8160   33.4140 C   0  0  0  0  0  0  0  0  0  0  0  0
   35.8410   28.5670   33.4800 N   0  0  0  0  0  0  0  0  0  0  0  0
   36.6610   26.9620   32.2960 H   0  0  0  0  0  0  0  0  0  0  0  0
   35.5240   30.3810   30.1040 H   0  0  0  0  0  0  0  0  0  0  0  0
   33.6190   30.4540   35.1180 C   0  0  0  0  0  0  0  0  0  0  0  0
   34.8850   30.5120   34.6160 C   0  0  0  0  0  0  0  0  0  0  0  0
   35.7980   31.2850   35.3000 C   0  0  0  0  0  0  0  0  0  0  0  0
   36.8390   31.3870   34.9660 H   0  0  0  0  0  0  0  0  0  0  0  0
   35.4850   31.9860   36.4490 C   0  0  0  0  0  0  0  0  0  0  0  0
   36.2370   32.5950   36.9720 H   0  0  0  0  0  0  0  0  0  0  0  0
   34.2030   31.9300   36.9600 C   0  0  0  0  0  3  0  0  0  0  0  0
   33.2830   31.1480   36.2650 C   0  0  0  0  0  3  0  0  0  0  0  0
   31.8900   29.0100   33.8430 N   0  0  0  0  0  0  0  0  0  0  0  0
   32.6580   29.6520   34.4140 C   0  0  0  0  0  0  0  0  0  0  0  0
   36.5770   27.9160   29.8890 N   0  0  0  0  0  0  0  0  0  0  0  0
   35.9520   27.5290   29.1750 H   0  0  0  0  0  0  0  0  0  0  0  0
   37.6120   27.8090   29.7490 H   0  0  0  0  0  0  0  0  0  0  0  0
  1  6  1  0  0  0  0
  2  3  1  0  0  0  0
  2  1  2  0  0  0  0
  3  4  2  0  0  0  0
  4  5  1  0  0  0  0
  5  6  2  0  0  0  0
  5 10  1  0  0  0  0
  7  1  1  0  0  0  0
  8  3  1  0  0  0  0
  9 16  1  0  0  0  0
 10  9  2  0  0  0  0
 10 11  1  0  0  0  0
 11 13  2  0  0  0  0
 12 11  1  0  0  0  0
 13 15  1  0  0  0  0
 13 14  1  0  0  0  0
 16 15  2  0  0  0  0
 17 18  3  0  0  0  0
 18  9  1  0  0  0  0
 19  2  1  0  0  0  0
 20 19  1  0  0  0  0
 21 19  1  0  0  0  0
M  END
>  <minimizedAffinity>
-4.48318672

$$$$

 OpenBabel03272506563D

 21 22  0  0  0  0  0  0  0  0999 V2000
   37.7550   25.4100   32.7770 C   0  0  0  0  0  0  0  0  0  0  0  0
   37.3720   24.3420   31.9330 C   0  0  0  0  0  0  0  0  0  0  0  0
   37.3680   23.0760   32.5370 C   0  0  0  0  0  0  0  0  0  0  0  0
   37.7170   22.9440   33.8500 N   0  0  0  0  0  0  0  0  0  0  0  0
   38.0730   24.0050   34.5980 C   0  0  0  0  0  0  0  0  0  0  0  0
   38.0970   25.2510   34.0770 N   0  0  0  0  0  0  0  0  0  0  0  0
   37.7490   26.3880   32.2770 H   0  0  0  0  0  0  0  0  0  0  0  0
   37.0800   22.2390   31.9130 H   0  0  0  0  0  0  0  0  0  0  0  0
   39.5300   23.0720   36.3990 C   0  0  0  0  0  0  0  0  0  0  0  0
   38.4290   23.7650   35.9910 C   0  0  0  0  0  0  0  0  0  0  0  0
   37.6040   24.2670   36.9740 C   0  0  0  0  0  0  0  0  0  0  0  0
   36.6960   24.8370   36.7350 H   0  0  0  0  0  0  0  0  0  0  0  0
   37.8450   24.0980   38.3240 C   0  0  0  0  0  0  0  0  0  0  0  0
   37.1670   24.5120   39.0840 H   0  0  0  0  0  0  0  0  0  0  0  0
   38.9600   23.3970   38.7400 C   0  0  0  0  0  3  0  0  0  0  0  0
   39.7920   22.8900   37.7430 C   0  0  0  0  0  3  0  0  0  0  0  0
   41.1010   22.1170   34.5750 N   0  0  0  0  0  0  0  0  0  0  0  0
   40.3990   22.5430   35.3840 C   0  0  0  0  0  0  0  0  0  0  0  0
   37.0250   24.5720   30.5770 N   0  0  0  0  0  0  0  0  0  0  0  0
   37.6090   24.3180   29.7740 H   0  0  0  0  0  0  0  0  0  0  0  0
   36.1010   25.0360   30.3880 H   0  0  0  0  0  0  0  0  0  0  0  0
  1  6  1  0  0  0  0
  2  3  1  0  0  0  0
  2  1  2  0  0  0  0
  3  4  2  0  0  0  0
  4  5  1  0  0  0  0
  5 10  1  0  0  0  0
  6  5  2  0  0  0  0
  7  1  1  0  0  0  0
  8  3  1  0  0  0  0
  9 16  1  0  0  0  0
 10  9  2  0  0  0  0
 10 11  1  0  0  0  0
 11 13  2  0  0  0  0
 12 11  1  0  0  0  0
 13 15  1  0  0  0  0
 13 14  1  0  0  0  0
 16 15  2  0  0  0  0
 17 18  3  0  0  0  0
 18  9  1  0  0  0  0
 19  2  1  0  0  0  0
 20 19  1  0  0  0  0
 21 19  1  0  0  0  0
M  END
>  <minimizedAffinity>
-4.33523083

$$$$

 OpenBabel03272506563D

 21 22  0  0  0  0  0  0  0  0999 V2000
   37.8930   24.4220   37.5440 C   0  0  0  0  0  0  0  0  0  0  0  0
   38.6410   23.3000   37.9670 C   0  0  0  0  0  0  0  0  0  0  0  0
   39.7330   22.9680   37.1520 C   0  0  0  0  0  0  0  0  0  0  0  0
   40.0070   23.7130   36.0420 N   0  0  0  0  0  0  0  0  0  0  0  0
   39.2530   24.7730   35.6950 C   0  0  0  0  0  0  0  0  0  0  0  0
   38.1870   25.1440   36.4380 N   0  0  0  0  0  0  0  0  0  0  0  0
   37.0450   24.6580   38.2020 H   0  0  0  0  0  0  0  0  0  0  0  0
   40.3230   22.1110   37.4520 H   0  0  0  0  0  0  0  0  0  0  0  0
   39.1480   25.2360   33.2440 C   0  0  0  0  0  0  0  0  0  0  0  0
   39.6250   25.5070   34.4920 C   0  0  0  0  0  0  0  0  0  0  0  0
   40.5200   26.5480   34.6100 C   0  0  0  0  0  0  0  0  0  0  0  0
   40.9530   26.8340   35.5780 H   0  0  0  0  0  0  0  0  0  0  0  0
   40.9410   27.3100   33.5370 C   0  0  0  0  0  0  0  0  0  0  0  0
   41.6560   28.1350   33.6650 H   0  0  0  0  0  0  0  0  0  0  0  0
   40.4600   27.0380   32.2720 C   0  0  0  0  0  3  0  0  0  0  0  0
   39.5560   25.9840   32.1560 C   0  0  0  0  0  3  0  0  0  0  0  0
   37.4610   23.2880   32.9910 N   0  0  0  0  0  0  0  0  0  0  0  0
   38.2150   24.1540   33.1060 C   0  0  0  0  0  0  0  0  0  0  0  0
   38.2820   22.5830   39.1380 N   0  0  0  0  0  0  0  0  0  0  0  0
   37.8510   21.6530   39.1430 H   0  0  0  0  0  0  0  0  0  0  0  0
   38.4730   23.0430   40.0630 H   0  0  0  0  0  0  0  0  0  0  0  0
  1  2  1  0  0  0  0
  1  7  1  0  0  0  0
  2 19  1  0  0  0  0
  3  8  1  0  0  0  0
  3  2  2  0  0  0  0
  4  3  1  0  0  0  0
  5  4  2  0  0  0  0
  5  6  1  0  0  0  0
  6  1  2  0  0  0  0
  9 10  1  0  0  0  0
 10 11  2  0  0  0  0
 10  5  1  0  0  0  0
 11 12  1  0  0  0  0
 13 14  1  0  0  0  0
 13 11  1  0  0  0  0
 15 13  2  0  0  0  0
 16 15  1  0  0  0  0
 16  9  2  0  0  0  0
 17 18  3  0  0  0  0
 18  9  1  0  0  0  0
 19 20  1  0  0  0  0
 19 21  1  0  0  0  0
M  END
>  <minimizedAffinity>
-4.28339911

$$$$

 OpenBabel03272506563D

 21 22  0  0  0  0  0  0  0  0999 V2000
   37.4410   23.0850   32.4330 C   0  0  0  0  0  0  0  0  0  0  0  0
   37.7290   24.3080   31.7840 C   0  0  0  0  0  0  0  0  0  0  0  0
   38.3010   25.2960   32.5980 C   0  0  0  0  0  0  0  0  0  0  0  0
   38.5430   25.0380   33.9170 N   0  0  0  0  0  0  0  0  0  0  0  0
   38.2440   23.8490   34.4730 C   0  0  0  0  0  0  0  0  0  0  0  0
   37.6910   22.8560   33.7430 N   0  0  0  0  0  0  0  0  0  0  0  0
   36.9940   22.3310   31.7700 H   0  0  0  0  0  0  0  0  0  0  0  0
   38.5310   26.2430   32.1270 H   0  0  0  0  0  0  0  0  0  0  0  0
   39.5960   22.9560   36.3730 C   0  0  0  0  0  0  0  0  0  0  0  0
   38.5390   23.6680   35.8890 C   0  0  0  0  0  0  0  0  0  0  0  0
   37.6980   24.2500   36.8130 C   0  0  0  0  0  0  0  0  0  0  0  0
   36.8230   24.8410   36.5100 H   0  0  0  0  0  0  0  0  0  0  0  0
   37.8820   24.1430   38.1780 C   0  0  0  0  0  0  0  0  0  0  0  0
   37.1930   24.6190   38.8890 H   0  0  0  0  0  0  0  0  0  0  0  0
   38.9530   23.4220   38.6710 C   0  0  0  0  0  3  0  0  0  0  0  0
   39.8000   22.8350   37.7350 C   0  0  0  0  0  3  0  0  0  0  0  0
   41.1920   21.8590   34.6550 N   0  0  0  0  0  0  0  0  0  0  0  0
   40.4800   22.3440   35.4220 C   0  0  0  0  0  0  0  0  0  0  0  0
   37.4430   24.4870   30.4050 N   0  0  0  0  0  0  0  0  0  0  0  0
   36.6800   25.0640   30.0390 H   0  0  0  0  0  0  0  0  0  0  0  0
   38.0620   23.9910   29.7170 H   0  0  0  0  0  0  0  0  0  0  0  0
  1  6  1  0  0  0  0
  2  1  2  0  0  0  0
  2  3  1  0  0  0  0
  3  4  2  0  0  0  0
  4  5  1  0  0  0  0
  5 10  1  0  0  0  0
  6  5  2  0  0  0  0
  7  1  1  0  0  0  0
  8  3  1  0  0  0  0
  9 16  1  0  0  0  0
 10  9  2  0  0  0  0
 10 11  1  0  0  0  0
 11 13  2  0  0  0  0
 12 11  1  0  0  0  0
 13 15  1  0  0  0  0
 13 14  1  0  0  0  0
 16 15  2  0  0  0  0
 17 18  3  0  0  0  0
 18  9  1  0  0  0  0
 19  2  1  0  0  0  0
 20 19  1  0  0  0  0
 21 19  1  0  0  0  0
M  END
>  <minimizedAffinity>
-4.2823925

$$$$

 OpenBabel03272506563D

 21 22  0  0  0  0  0  0  0  0999 V2000
   36.5560   29.4810   31.1860 C   0  0  0  0  0  0  0  0  0  0  0  0
   35.3100   30.0630   31.5130 C   0  0  0  0  0  0  0  0  0  0  0  0
   34.7600   29.6490   32.7350 C   0  0  0  0  0  0  0  0  0  0  0  0
   35.4260   28.7470   33.5130 N   0  0  0  0  0  0  0  0  0  0  0  0
   36.6120   28.2300   33.1410 C   0  0  0  0  0  0  0  0  0  0  0  0
   37.1960   28.5880   31.9760 N   0  0  0  0  0  0  0  0  0  0  0  0
   36.9610   29.8240   30.2240 H   0  0  0  0  0  0  0  0  0  0  0  0
   33.8050   30.0780   33.0100 H   0  0  0  0  0  0  0  0  0  0  0  0
   37.3650   25.9380   33.7870 C   0  0  0  0  0  0  0  0  0  0  0  0
   37.2480   27.2730   34.0390 C   0  0  0  0  0  0  0  0  0  0  0  0
   37.7690   27.7360   35.2270 C   0  0  0  0  0  0  0  0  0  0  0  0
   37.7180   28.7960   35.5100 H   0  0  0  0  0  0  0  0  0  0  0  0
   38.3920   26.9180   36.1510 C   0  0  0  0  0  0  0  0  0  0  0  0
   38.7980   27.3190   37.0900 H   0  0  0  0  0  0  0  0  0  0  0  0
   38.5120   25.5650   35.8980 C   0  0  0  0  0  3  0  0  0  0  0  0
   37.9830   25.1010   34.6960 C   0  0  0  0  0  3  0  0  0  0  0  0
   36.3990   25.0450   31.5570 N   0  0  0  0  0  0  0  0  0  0  0  0
   36.8260   25.4420   32.5520 C   0  0  0  0  0  0  0  0  0  0  0  0
   34.6890   30.9950   30.6410 N   0  0  0  0  0  0  0  0  0  0  0  0
   33.8640   30.7950   30.0670 H   0  0  0  0  0  0  0  0  0  0  0  0
   35.1080   31.9560   30.5860 H   0  0  0  0  0  0  0  0  0  0  0  0
  1  2  2  0  0  0  0
  1  6  1  0  0  0  0
  2  3  1  0  0  0  0
  3  8  1  0  0  0  0
  3  4  2  0  0  0  0
  5  4  1  0  0  0  0
  5 10  1  0  0  0  0
  6  5  2  0  0  0  0
  7  1  1  0  0  0  0
  9 10  2  0  0  0  0
  9 16  1  0  0  0  0
 10 11  1  0  0  0  0
 11 12  1  0  0  0  0
 11 13  2  0  0  0  0
 13 14  1  0  0  0  0
 15 13  1  0  0  0  0
 16 15  2  0  0  0  0
 17 18  3  0  0  0  0
 18  9  1  0  0  0  0
 19  2  1  0  0  0  0
 20 19  1  0  0  0  0
 21 19  1  0  0  0  0
M  END
>  <minimizedAffinity>
-4.22897291

$$$$

 OpenBabel03272506563D

 21 22  0  0  0  0  0  0  0  0999 V2000
   34.6070   29.7510   32.7110 C   0  0  0  0  0  0  0  0  0  0  0  0
   35.1590   30.1900   31.4850 C   0  0  0  0  0  0  0  0  0  0  0  0
   36.4050   29.6360   31.1590 C   0  0  0  0  0  0  0  0  0  0  0  0
   36.9950   28.7400   32.0040 N   0  0  0  0  0  0  0  0  0  0  0  0
   36.4140   28.3650   33.1580 C   0  0  0  0  0  0  0  0  0  0  0  0
   35.2140   28.8620   33.5300 N   0  0  0  0  0  0  0  0  0  0  0  0
   33.6310   30.2020   32.9390 H   0  0  0  0  0  0  0  0  0  0  0  0
   36.8520   29.9550   30.2260 H   0  0  0  0  0  0  0  0  0  0  0  0
   37.2760   26.0830   33.6910 C   0  0  0  0  0  0  0  0  0  0  0  0
   37.1220   27.4030   33.9940 C   0  0  0  0  0  0  0  0  0  0  0  0
   37.6770   27.8450   35.1750 C   0  0  0  0  0  0  0  0  0  0  0  0
   37.6010   28.8920   35.4970 H   0  0  0  0  0  0  0  0  0  0  0  0
   38.3680   27.0200   36.0420 C   0  0  0  0  0  0  0  0  0  0  0  0
   38.8000   27.4050   36.9780 H   0  0  0  0  0  0  0  0  0  0  0  0
   38.5260   25.6820   35.7380 C   0  0  0  0  0  3  0  0  0  0  0  0
   37.9630   25.2390   34.5430 C   0  0  0  0  0  3  0  0  0  0  0  0
   36.2370   25.2240   31.4810 N   0  0  0  0  0  0  0  0  0  0  0  0
   36.7020   25.6080   32.4630 C   0  0  0  0  0  0  0  0  0  0  0  0
   34.4720   31.1260   30.6690 N   0  0  0  0  0  0  0  0  0  0  0  0
   34.7450   32.1070   30.5520 H   0  0  0  0  0  0  0  0  0  0  0  0
   33.6250   30.7840   30.1510 H   0  0  0  0  0  0  0  0  0  0  0  0
  1  7  1  0  0  0  0
  1  6  1  0  0  0  0
  2  1  2  0  0  0  0
  3  2  1  0  0  0  0
  3  4  2  0  0  0  0
  4  5  1  0  0  0  0
  5  6  2  0  0  0  0
  5 10  1  0  0  0  0
  8  3  1  0  0  0  0
  9 10  2  0  0  0  0
  9 16  1  0  0  0  0
 10 11  1  0  0  0  0
 11 12  1  0  0  0  0
 11 13  2  0  0  0  0
 13 14  1  0  0  0  0
 15 13  1  0  0  0  0
 16 15  2  0  0  0  0
 17 18  3  0  0  0  0
 18  9  1  0  0  0  0
 19  2  1  0  0  0  0
 20 19  1  0  0  0  0
 21 19  1  0  0  0  0
M  END
>  <minimizedAffinity>
-4.21927691

$$$$

 OpenBabel03272506563D

 21 22  0  0  0  0  0  0  0  0999 V2000
   38.4960   22.9820   36.9470 C   0  0  0  0  0  0  0  0  0  0  0  0
   39.8570   22.6130   36.8440 C   0  0  0  0  0  0  0  0  0  0  0  0
   40.5040   23.0380   35.6740 C   0  0  0  0  0  0  0  0  0  0  0  0
   39.8180   23.7560   34.7370 N   0  0  0  0  0  0  0  0  0  0  0  0
   38.5210   24.0750   34.8980 C   0  0  0  0  0  0  0  0  0  0  0  0
   37.8400   23.6950   36.0020 N   0  0  0  0  0  0  0  0  0  0  0  0
   38.0160   22.6350   37.8720 H   0  0  0  0  0  0  0  0  0  0  0  0
   41.5470   22.7690   35.5690 H   0  0  0  0  0  0  0  0  0  0  0  0
   37.7160   26.1990   33.8600 C   0  0  0  0  0  0  0  0  0  0  0  0
   37.8740   24.8450   33.8420 C   0  0  0  0  0  0  0  0  0  0  0  0
   37.3830   24.1690   32.7460 C   0  0  0  0  0  0  0  0  0  0  0  0
   37.4670   23.0780   32.6510 H   0  0  0  0  0  0  0  0  0  0  0  0
   36.7520   24.7980   31.6900 C   0  0  0  0  0  0  0  0  0  0  0  0
   36.3710   24.2300   30.8290 H   0  0  0  0  0  0  0  0  0  0  0  0
   36.5910   26.1700   31.7050 C   0  0  0  0  0  3  0  0  0  0  0  0
   37.0880   26.8490   32.8150 C   0  0  0  0  0  3  0  0  0  0  0  0
   38.6340   27.4850   35.9110 N   0  0  0  0  0  0  0  0  0  0  0  0
   38.2230   26.9150   34.9960 C   0  0  0  0  0  0  0  0  0  0  0  0
   40.4890   21.8640   37.8700 N   0  0  0  0  0  0  0  0  0  0  0  0
   40.7470   20.8750   37.7940 H   0  0  0  0  0  0  0  0  0  0  0  0
   40.7060   22.3640   38.7680 H   0  0  0  0  0  0  0  0  0  0  0  0
  1  7  1  0  0  0  0
  2  1  1  0  0  0  0
  2 19  1  0  0  0  0
  3  2  2  0  0  0  0
  4  5  2  0  0  0  0
  4  3  1  0  0  0  0
  5  6  1  0  0  0  0
  6  1  2  0  0  0  0
  8  3  1  0  0  0  0
  9 18  1  0  0  0  0
 10  9  1  0  0  0  0
 10  5  1  0  0  0  0
 11 10  2  0  0  0  0
 12 11  1  0  0  0  0
 13 15  2  0  0  0  0
 13 11  1  0  0  0  0
 14 13  1  0  0  0  0
 15 16  1  0  0  0  0
 16  9  2  0  0  0  0
 18 17  3  0  0  0  0
 19 21  1  0  0  0  0
 20 19  1  0  0  0  0
M  END
>  <minimizedAffinity>
-4.17814636

$$$$

 OpenBabel03272506563D

 21 22  0  0  0  0  0  0  0  0999 V2000
   38.1460   24.6540   37.1450 C   0  0  0  0  0  0  0  0  0  0  0  0
   38.8440   23.4250   37.1170 C   0  0  0  0  0  0  0  0  0  0  0  0
   39.3050   23.0280   35.8530 C   0  0  0  0  0  0  0  0  0  0  0  0
   39.0680   23.8150   34.7630 N   0  0  0  0  0  0  0  0  0  0  0  0
   38.3950   24.9760   34.8590 C   0  0  0  0  0  0  0  0  0  0  0  0
   37.9250   25.4140   36.0470 N   0  0  0  0  0  0  0  0  0  0  0  0
   37.7980   24.9380   38.1470 H   0  0  0  0  0  0  0  0  0  0  0  0
   39.8430   22.0900   35.8030 H   0  0  0  0  0  0  0  0  0  0  0  0
   39.0950   26.6270   33.1210 C   0  0  0  0  0  0  0  0  0  0  0  0
   38.1920   25.7470   33.6380 C   0  0  0  0  0  0  0  0  0  0  0  0
   37.0080   25.5850   32.9510 C   0  0  0  0  0  0  0  0  0  0  0  0
   36.2250   24.8970   33.2970 H   0  0  0  0  0  0  0  0  0  0  0  0
   36.7110   26.2640   31.7850 C   0  0  0  0  0  0  0  0  0  0  0  0
   35.7560   26.1120   31.2610 H   0  0  0  0  0  0  0  0  0  0  0  0
   37.6240   27.1560   31.2590 C   0  0  0  0  0  3  0  0  0  0  0  0
   38.8190   27.3180   31.9560 C   0  0  0  0  0  3  0  0  0  0  0  0
   41.3280   26.9420   34.3930 N   0  0  0  0  0  0  0  0  0  0  0  0
   40.3330   26.8060   33.8270 C   0  0  0  0  0  0  0  0  0  0  0  0
   39.0440   22.6730   38.3040 N   0  0  0  0  0  0  0  0  0  0  0  0
   38.5560   21.8010   38.5300 H   0  0  0  0  0  0  0  0  0  0  0  0
   39.7440   23.0400   38.9950 H   0  0  0  0  0  0  0  0  0  0  0  0
  1  7  1  0  0  0  0
  2  1  1  0  0  0  0
  2 19  1  0  0  0  0
  3  2  2  0  0  0  0
  4  5  2  0  0  0  0
  4  3  1  0  0  0  0
  5  6  1  0  0  0  0
  6  1  2  0  0  0  0
  8  3  1  0  0  0  0
  9 10  1  0  0  0  0
  9 18  1  0  0  0  0
 10  5  1  0  0  0  0
 11 12  1  0  0  0  0
 11 10  2  0  0  0  0
 13 11  1  0  0  0  0
 14 13  1  0  0  0  0
 15 13  2  0  0  0  0
 15 16  1  0  0  0  0
 16  9  2  0  0  0  0
 18 17  3  0  0  0  0
 19 20  1  0  0  0  0
 19 21  1  0  0  0  0
M  END
>  <minimizedAffinity>
-4.07174969

$$$$
