
     RDKit          3D

 29 31  0  0  0  0  0  0  0  0999 V2000
   37.0870   30.3372   50.8159 C   0  0  0  0  0  0  0  0  0  0  0  0
   36.9079   30.9289   49.5655 C   0  0  0  0  0  0  0  0  0  0  0  0
   35.7413   30.6022   48.8709 C   0  0  0  0  0  0  0  0  0  0  0  0
   34.8560   29.7492   49.4223 N   0  0  0  0  0  0  0  0  0  0  0  0
   35.0725   29.1921   50.6520 C   0  0  0  0  0  0  0  0  0  0  0  0
   36.2021   29.4940   51.3502 N   0  0  0  0  0  0  0  0  0  0  0  0
   37.8394   31.8455   48.9514 C   0  0  0  0  0  0  0  0  0  0  0  0
   38.3008   32.9689   49.6063 C   0  0  0  0  0  0  0  0  0  0  0  0
   39.2034   33.8769   49.0400 C   0  0  0  0  0  0  0  0  0  0  0  0
   39.6294   33.6142   47.7824 N   0  0  0  0  0  0  0  0  0  0  0  0
   39.1810   32.5218   47.1449 C   0  0  0  0  0  0  0  0  0  0  0  0
   38.3092   31.6471   47.6952 N   0  0  0  0  0  0  0  0  0  0  0  0
   38.0185   30.6536   51.2715 H   0  0  0  0  0  0  0  0  0  0  0  0
   35.4931   31.0029   47.8852 H   0  0  0  0  0  0  0  0  0  0  0  0
   34.3981   28.5036   51.1409 H   0  0  0  0  0  0  0  0  0  0  0  0
   37.9651   33.1922   50.6207 H   0  0  0  0  0  0  0  0  0  0  0  0
   39.5569   34.7446   49.5518 H   0  0  0  0  0  0  0  0  0  0  0  0
   38.9867   35.6787   45.5175 N   0  0  0  0  0  0  0  0  0  0  0  0
   39.3089   34.5934   45.2136 C   0  0  0  0  0  0  0  0  0  0  0  0
   39.7291   33.2552   44.8470 C   0  0  0  0  0  0  0  0  0  0  0  0
   39.6577   32.2705   45.7988 C   0  0  0  0  0  0  0  0  0  0  0  0
   40.0762   31.0294   45.3664 C   0  0  0  0  0  0  0  0  0  0  0  0
   40.0584   30.1869   46.0417 H   0  0  0  0  0  0  0  0  0  0  0  0
   40.5363   30.7434   44.0992 C   0  0  0  0  0  0  0  0  0  0  0  0
   40.8578   29.7708   43.7812 H   0  0  0  0  0  0  0  0  0  0  0  0
   40.5865   31.7887   43.1710 C   0  0  0  0  0  0  0  0  0  0  0  0
   40.1777   33.0487   43.5587 C   0  0  0  0  0  0  0  0  0  0  0  0
   40.9458   31.5773   42.1729 H   0  0  0  0  0  0  0  0  0  0  0  0
   40.2391   33.8110   42.8022 H   0  0  0  0  0  0  0  0  0  0  0  0
  1  6  2  0
  2  1  1  0
  3  4  1  0
  3  2  2  0
  4  5  2  0
  5  6  1  0
  7  2  1  0
  7  8  2  0
  9  8  1  0
 10  9  2  0
 11 12  2  0
 11 10  1  0
 12  7  1  0
  1 13  1  0
  3 14  1  0
  5 15  1  0
  8 16  1  0
  9 17  1  0
 18 19  3  0
 19 20  1  0
 20 21  2  0
 21 22  1  0
 22 23  1  0
 22 24  2  0
 24 25  1  0
 24 26  1  0
 26 27  2  0
 27 20  1  0
 26 28  1  0
 27 29  1  0
 11 21  1  0
M  ISO  7  13  14  14  14  15  14  16  14  17  14  23  15  25  16
M  END
>  <DihAtoms>  (1) 
11,10,20,19

>  <DihDeg>  (1) 
-179.995296106891

$$$$
