REMARK  Name = 
REMARK  3 active torsions:
REMARK  status: ('A' for Active; 'I' for Inactive)
REMARK    1  A    between atoms: C_3  and  C_9
REMARK    2  A    between atoms: C_13  and  C_23
REMARK    3  A    between atoms: C_21  and  C_22
REMARK                            x       y       z     vdW  Elec       q    Type
REMARK                         _______ _______ _______ _____ _____    ______ ____
ROOT
ATOM      1 CL   UNL     1      38.431  33.457  49.355  0.00  0.00    +0.000 Cl
ATOM      2  C   UNL     1      38.836  32.540  47.928  0.00  0.00    +0.000 A 
ATOM      3  C   UNL     1      38.327  31.303  47.752  0.00  0.00    +0.000 A 
ATOM      4  C   UNL     1      38.709  30.658  46.586  0.00  0.00    +0.000 A 
ATOM      5  C   UNL     1      39.536  31.171  45.639  0.00  0.00    +0.000 A 
ATOM      6  C   UNL     1      40.036  32.435  45.854  0.00  0.00    +0.000 A 
ATOM      7  C   UNL     1      39.689  33.144  47.013  0.00  0.00    +0.000 A 
ATOM      8  H   UNL     1      38.314  29.648  46.407  0.00  0.00    +0.000 HD
ATOM      9  H   UNL     1      39.802  30.619  44.743  0.00  0.00    +0.000 HD
ATOM     10  H   UNL     1      40.704  32.934  45.158  0.00  0.00    +0.000 HD
ENDROOT
BRANCH   3  13
ATOM     11  C   UNL     1      37.053  29.550  50.844  0.00  0.00    +0.000 A 
ATOM     12  C   UNL     1      37.934  30.084  49.891  0.00  0.00    +0.000 A 
ATOM     13  C   UNL     1      37.446  30.743  48.752  0.00  0.00    +0.000 A 
ATOM     14  N   UNL     1      36.107  30.823  48.644  0.00  0.00    +0.000 NA
ATOM     15  C   UNL     1      35.264  30.313  49.555  0.00  0.00    +0.000 A 
ATOM     16  N   UNL     1      35.728  29.679  50.651  0.00  0.00    +0.000 NA
ATOM     17  H   UNL     1      37.602  29.084  51.645  0.00  0.00    +0.000 HD
ATOM     18  H   UNL     1      39.011  30.038  49.944  0.00  0.00    +0.000 HD
ATOM     19  H   UNL     1      34.189  30.369  49.483  0.00  0.00    +0.000 HD
ENDBRANCH   3  13
BRANCH   7  21
ATOM     20  C   UNL     1      41.543  34.865  47.035  0.00  0.00    +0.000 A 
ATOM     21  C   UNL     1      40.229  34.490  47.229  0.00  0.00    +0.000 A 
ATOM     22  C   UNL     1      39.273  35.389  47.661  0.00  0.00    +0.000 A 
ATOM     23  H   UNL     1      38.225  35.158  47.833  0.00  0.00    +0.000 HD
ATOM     24  C   UNL     1      39.673  36.703  47.899  0.00  0.00    +0.000 A 
ATOM     25  H   UNL     1      38.958  37.465  48.244  0.00  0.00    +0.000 HD
ATOM     26  C   UNL     1      40.989  37.085  47.706  0.00  0.00    +0.000 A 
ATOM     27  C   UNL     1      41.948  36.165  47.268  0.00  0.00    +0.000 A 
BRANCH  20  29
ATOM     28  N   UNL     1      43.197  33.017  46.207  0.00  0.00    +0.000 NA
ATOM     29  C   UNL     1      42.450  33.836  46.581  0.00  0.00    +0.000 C 
ENDBRANCH  20  29
ENDBRANCH   7  21
TORSDOF 3
