REMARK  Name = 
REMARK  7 active torsions:
REMARK  status: ('A' for Active; 'I' for Inactive)
REMARK    1  A    between atoms: P_2  and  O_3
REMARK    2  A    between atoms: P_2  and  O_4
REMARK    3  A    between atoms: P_2  and  O_11
REMARK    4  A    between atoms: O_4  and  C_5
REMARK    5  A    between atoms: O_11  and  C_12
REMARK    6  A    between atoms: C_15  and  C_26
REMARK    7  A    between atoms: C_24  and  C_25
REMARK                            x       y       z     vdW  Elec       q    Type
REMARK                         _______ _______ _______ _____ _____    ______ ____
ROOT
ATOM      1  C   UNL     1      32.093  29.590  46.091  0.00  0.00    +0.000 A 
ATOM      2  C   UNL     1      31.523  29.401  44.840  0.00  0.00    +0.000 A 
ATOM      3  N   UNL     1      30.639  28.421  44.932  0.00  0.00    +0.000 N 
ATOM      4  C   UNL     1      30.605  27.956  46.196  0.00  0.00    +0.000 A 
ATOM      5  N   UNL     1      31.497  28.673  46.904  0.00  0.00    +0.000 NA
ATOM      6  H   UNL     1      31.814  30.007  43.979  0.00  0.00    +0.000 HD
ATOM      7  H   UNL     1      30.082  28.100  44.116  0.00  0.00    +0.000 HD
ENDROOT
BRANCH   4   9
ATOM      8  C   UNL     1      30.235  25.713  47.265  0.00  0.00    +0.000 A 
ATOM      9  C   UNL     1      29.762  26.879  46.699  0.00  0.00    +0.000 A 
ATOM     10  C   UNL     1      28.390  26.996  46.622  0.00  0.00    +0.000 A 
ATOM     11  H   UNL     1      27.938  27.883  46.190  0.00  0.00    +0.000 HD
ATOM     12  C   UNL     1      27.523  26.011  47.081  0.00  0.00    +0.000 A 
ATOM     13  H   UNL     1      26.448  26.104  47.020  0.00  0.00    +0.000 HD
ATOM     14  C   UNL     1      28.036  24.861  47.640  0.00  0.00    +0.000 A 
ATOM     15  C   UNL     1      29.407  24.712  47.732  0.00  0.00    +0.000 A 
BRANCH   8  17
ATOM     16  N   UNL     1      32.799  25.387  47.473  0.00  0.00    +0.000 NA
ATOM     17  C   UNL     1      31.656  25.539  47.371  0.00  0.00    +0.000 C 
ENDBRANCH   8  17
ENDBRANCH   4   9
BRANCH   1  18
ATOM     18  O   UNL     1      33.074  30.505  46.496  0.00  0.00    +0.000 OA
BRANCH  18  20
ATOM     19  O   UNL     1      35.623  30.183  46.464  0.00  0.00    +0.000 OA
ATOM     20  P   UNL     1      34.407  29.876  47.328  0.00  0.00    +0.000 P 
BRANCH  20  21
ATOM     21  O   UNL     1      34.235  28.197  47.541  0.00  0.00    +0.000 OA
ATOM     22  H   UNL     1      33.761  28.059  48.384  0.00  0.00    +0.000 HD
ENDBRANCH  20  21
BRANCH  20  23
ATOM     23  O   UNL     1      34.533  30.580  48.867  0.00  0.00    +0.000 OA
BRANCH  23  24
ATOM     24  C   UNL     1      35.679  30.464  49.645  0.00  0.00    +0.000 A 
ATOM     25  C   UNL     1      35.912  29.501  50.643  0.00  0.00    +0.000 A 
ATOM     26  C   UNL     1      37.117  29.547  51.310  0.00  0.00    +0.000 A 
ATOM     27  N   UNL     1      38.028  30.494  50.998  0.00  0.00    +0.000 NA
ATOM     28  C   UNL     1      37.776  31.416  50.025  0.00  0.00    +0.000 A 
ATOM     29  N   UNL     1      36.600  31.403  49.346  0.00  0.00    +0.000 NA
ATOM     30  H   UNL     1      35.108  28.808  50.790  0.00  0.00    +0.000 HD
ATOM     31  H   UNL     1      37.267  28.793  52.073  0.00  0.00    +0.000 HD
ATOM     32  H   UNL     1      38.538  32.156  49.811  0.00  0.00    +0.000 HD
ENDBRANCH  23  24
ENDBRANCH  20  23
ENDBRANCH  18  20
ENDBRANCH   1  18
TORSDOF 7
