REMARK  Name = 
REMARK  4 active torsions:
REMARK  status: ('A' for Active; 'I' for Inactive)
REMARK    1  A    between atoms: C_3  and  C_11
REMARK    2  A    between atoms: C_5  and  C_17
REMARK    3  A    between atoms: C_21  and  C_33
REMARK    4  A    between atoms: C_31  and  C_32
REMARK                            x       y       z     vdW  Elec       q    Type
REMARK                         _______ _______ _______ _____ _____    ______ ____
ROOT
ATOM      1 CL   UNL     1      36.781  32.518  43.426  0.00  0.00    +0.000 Cl
ATOM      2  C   UNL     1      37.773  31.097  43.120  0.00  0.00    +0.000 A 
ATOM      3  C   UNL     1      38.549  30.672  44.186  0.00  0.00    +0.000 A 
ATOM      4  C   UNL     1      39.376  29.551  44.051  0.00  0.00    +0.000 A 
ATOM      5  C   UNL     1      39.417  28.861  42.840  0.00  0.00    +0.000 A 
ATOM      6  C   UNL     1      38.637  29.306  41.803  0.00  0.00    +0.000 A 
ATOM      7  C   UNL     1      37.816  30.418  41.934  0.00  0.00    +0.000 A 
ATOM      8  H   UNL     1      39.996  29.180  44.841  0.00  0.00    +0.000 HD
ATOM      9  H   UNL     1      40.045  27.990  42.700  0.00  0.00    +0.000 HD
ATOM     10  H   UNL     1      38.606  28.831  40.826  0.00  0.00    +0.000 HD
ENDROOT
BRANCH   3  15
ATOM     11 CL   UNL     1      38.632  32.970  49.690  0.00  0.00    +0.000 Cl
ATOM     12  C   UNL     1      38.597  32.284  48.083  0.00  0.00    +0.000 A 
ATOM     13  C   UNL     1      37.869  31.159  47.800  0.00  0.00    +0.000 A 
ATOM     14  C   UNL     1      37.894  30.683  46.513  0.00  0.00    +0.000 A 
ATOM     15  C   UNL     1      38.614  31.289  45.513  0.00  0.00    +0.000 A 
ATOM     16  C   UNL     1      39.350  32.438  45.830  0.00  0.00    +0.000 A 
ATOM     17 CL   UNL     1      40.248  33.172  44.531  0.00  0.00    +0.000 Cl
ATOM     18  C   UNL     1      39.343  32.936  47.110  0.00  0.00    +0.000 A 
ATOM     19  H   UNL     1      37.297  29.779  46.328  0.00  0.00    +0.000 HD
ATOM     20  H   UNL     1      39.920  33.831  47.343  0.00  0.00    +0.000 HD
BRANCH  13  23
ATOM     21  C   UNL     1      37.024  29.329  51.014  0.00  0.00    +0.000 A 
ATOM     22  C   UNL     1      37.767  29.894  49.962  0.00  0.00    +0.000 A 
ATOM     23  C   UNL     1      37.115  30.555  48.919  0.00  0.00    +0.000 A 
ATOM     24  N   UNL     1      35.749  30.623  48.971  0.00  0.00    +0.000 NA
ATOM     25  C   UNL     1      35.083  30.065  50.002  0.00  0.00    +0.000 A 
ATOM     26  N   UNL     1      35.699  29.433  51.000  0.00  0.00    +0.000 NA
ATOM     27  H   UNL     1      37.497  28.819  51.823  0.00  0.00    +0.000 HD
ATOM     28  H   UNL     1      38.859  29.818  49.958  0.00  0.00    +0.000 HD
ATOM     29  H   UNL     1      34.010  30.242  49.832  0.00  0.00    +0.000 HD
ENDBRANCH  13  23
ENDBRANCH   3  15
BRANCH   7  31
ATOM     30  C   UNL     1      36.919  30.320  39.583  0.00  0.00    +0.000 A 
ATOM     31  C   UNL     1      36.991  30.895  40.848  0.00  0.00    +0.000 A 
ATOM     32  C   UNL     1      36.229  32.021  41.149  0.00  0.00    +0.000 A 
ATOM     33  H   UNL     1      36.227  32.529  42.110  0.00  0.00    +0.000 HD
ATOM     34  C   UNL     1      35.409  32.551  40.177  0.00  0.00    +0.000 A 
ATOM     35  H   UNL     1      34.781  33.439  40.349  0.00  0.00    +0.000 HD
ATOM     36  C   UNL     1      35.346  31.973  38.928  0.00  0.00    +0.000 A 
ATOM     37  C   UNL     1      36.093  30.848  38.593  0.00  0.00    +0.000 A 
BRANCH  30  39
ATOM     38  N   UNL     1      38.418  28.245  39.197  0.00  0.00    +0.000 NA
ATOM     39  C   UNL     1      37.747  29.155  39.368  0.00  0.00    +0.000 C 
ENDBRANCH  30  39
ENDBRANCH   7  31
TORSDOF 4
