
 OpenBabel03272504513D

 43 46  0  0  1  0  0  0  0  0999 V2000
   36.7200   28.6660   32.3280 N   0  0  0  0  0  0  0  0  0  0  0  0
   36.9510   28.2780   30.9430 C   0  0  0  0  0  0  0  0  0  0  0  0
   36.5660   29.3350   29.9600 C   0  0  0  0  0  0  0  0  0  0  0  0
   36.9110   30.7060   30.5040 C   0  0  0  0  0  0  0  0  0  0  0  0
   36.0110   30.9400   31.6780 C   0  0  0  0  0  0  0  0  0  0  0  0
   36.1730   29.9120   32.7600 C   0  0  1  0  0  0  0  0  0  0  0  0
   36.3430   27.3780   30.7540 H   0  0  0  0  0  0  0  0  0  0  0  0
   38.0420   28.0730   30.7640 H   0  0  0  0  0  0  0  0  0  0  0  0
   37.1460   29.2100   29.0210 H   0  0  0  0  0  0  0  0  0  0  0  0
   35.4760   29.3430   29.7460 H   0  0  0  0  0  0  0  0  0  0  0  0
   36.6650   31.4720   29.7390 H   0  0  0  0  0  0  0  0  0  0  0  0
   37.9860   30.7560   30.8100 H   0  0  0  0  0  0  0  0  0  0  0  0
   34.9590   30.9580   31.3020 H   0  0  0  0  0  0  0  0  0  0  0  0
   36.2110   31.9610   32.0990 H   0  0  0  0  0  0  0  0  0  0  0  0
   36.8330   30.3310   33.5480 H   0  0  0  0  0  0  0  0  0  0  0  0
   37.4340   28.0960   34.5920 C   0  0  0  0  0  0  0  0  0  0  0  0
   37.0730   27.7070   33.3080 C   0  0  0  0  0  0  0  0  0  0  0  0
   37.0800   26.3510   33.0410 C   0  0  0  0  0  0  0  0  0  0  0  0
   37.4340   25.4770   34.0240 N   0  0  0  0  0  0  0  0  0  0  0  0
   37.7780   25.8890   35.2560 C   0  0  0  0  0  0  0  0  0  0  0  0
   37.7730   27.1980   35.5240 N   0  0  0  0  0  0  0  0  0  0  0  0
   37.4510   29.1460   34.8790 H   0  0  0  0  0  0  0  0  0  0  0  0
   36.8140   25.9610   32.0790 H   0  0  0  0  0  0  0  0  0  0  0  0
   38.1460   24.9320   36.2730 C   0  0  0  0  0  0  0  0  0  0  0  0
   37.7500   25.1180   37.5780 C   0  0  0  0  0  0  0  0  0  0  0  0
   38.0650   24.2490   38.5960 C   0  0  0  0  0  0  0  0  0  0  0  0
   38.8210   23.1590   38.2090 C   0  0  0  0  0  0  0  0  0  0  0  0
   39.2560   22.9190   36.8810 C   0  0  0  0  0  0  0  0  0  0  0  0
   38.8850   23.8500   35.9450 N   0  0  0  0  0  0  0  0  0  0  0  0
   37.1600   25.9940   37.8090 H   0  0  0  0  0  0  0  0  0  0  0  0
   37.7800   24.3540   39.6200 H   0  0  0  0  0  0  0  0  0  0  0  0
   39.1240   22.4120   38.9330 H   0  0  0  0  0  0  0  0  0  0  0  0
   39.8390   22.0550   36.6430 H   0  0  0  0  0  0  0  0  0  0  0  0
   34.3890   30.1990   34.6130 C   0  0  0  0  0  0  0  0  0  0  0  0
   34.8190   29.7490   33.3780 C   0  0  0  0  0  0  0  0  0  0  0  0
   33.9090   29.0610   32.5980 C   0  0  0  0  0  0  0  0  0  0  0  0
   34.1080   28.6530   31.6140 H   0  0  0  0  0  0  0  0  0  0  0  0
   32.6160   28.8210   33.0120 C   0  0  0  0  0  0  0  0  0  0  0  0
   31.8700   28.2900   32.4430 H   0  0  0  0  0  0  0  0  0  0  0  0
   32.1970   29.2830   34.2650 C   0  0  0  0  0  3  0  0  0  0  0  0
   33.1060   29.9630   35.0310 C   0  0  0  0  0  3  0  0  0  0  0  0
   36.1820   31.4640   36.0070 N   0  0  0  0  0  0  0  0  0  0  0  0
   35.3800   30.9050   35.3750 C   0  0  0  0  0  0  0  0  0  0  0  0
  1  6  1  0  0  0  0
  1 17  1  0  0  0  0
  2  1  1  0  0  0  0
  3  4  1  0  0  0  0
  3  2  1  0  0  0  0
  4 12  1  0  0  0  0
  4  5  1  0  0  0  0
  5 14  1  0  0  0  0
  5  6  1  0  0  0  0
  6 35  1  0  0  0  0
  6 15  1  1  0  0  0
  7  2  1  0  0  0  0
  8  2  1  0  0  0  0
  9  3  1  0  0  0  0
 10  3  1  0  0  0  0
 11  4  1  0  0  0  0
 13  5  1  0  0  0  0
 16 22  1  0  0  0  0
 16 21  1  0  0  0  0
 17 16  2  0  0  0  0
 18 17  1  0  0  0  0
 18 19  2  0  0  0  0
 19 20  1  0  0  0  0
 20 21  2  0  0  0  0
 20 24  1  0  0  0  0
 23 18  1  0  0  0  0
 24 25  1  0  0  0  0
 25 30  1  0  0  0  0
 25 26  2  0  0  0  0
 26 31  1  0  0  0  0
 27 26  1  0  0  0  0
 27 32  1  0  0  0  0
 28 27  2  0  0  0  0
 29 24  2  0  0  0  0
 29 28  1  0  0  0  0
 33 28  1  0  0  0  0
 34 41  1  0  0  0  0
 34 43  1  0  0  0  0
 35 34  2  0  0  0  0
 36 38  2  0  0  0  0
 36 35  1  0  0  0  0
 37 36  1  0  0  0  0
 38 40  1  0  0  0  0
 39 38  1  0  0  0  0
 40 41  2  0  0  0  0
 43 42  3  0  0  0  0
M  END
>  <minimizedAffinity>
-5.77149868

$$$$

 OpenBabel03272504513D

 43 46  0  0  1  0  0  0  0  0999 V2000
   38.7120   24.0440   35.9200 N   0  0  0  0  0  0  0  0  0  0  0  0
   38.6750   24.4060   37.3300 C   0  0  0  0  0  0  0  0  0  0  0  0
   39.1400   23.3120   38.2350 C   0  0  0  0  0  0  0  0  0  0  0  0
   40.2960   22.5660   37.6020 C   0  0  0  0  0  0  0  0  0  0  0  0
   39.7440   21.8540   36.4060 C   0  0  0  0  0  0  0  0  0  0  0  0
   39.1290   22.7830   35.3980 C   0  0  1  0  0  0  0  0  0  0  0  0
   37.6270   24.6480   37.5750 H   0  0  0  0  0  0  0  0  0  0  0  0
   39.3490   25.2830   37.5340 H   0  0  0  0  0  0  0  0  0  0  0  0
   39.5210   23.7410   39.1870 H   0  0  0  0  0  0  0  0  0  0  0  0
   38.3490   22.5590   38.4370 H   0  0  0  0  0  0  0  0  0  0  0  0
   40.6610   21.7920   38.3110 H   0  0  0  0  0  0  0  0  0  0  0  0
   41.1130   23.2720   37.3040 H   0  0  0  0  0  0  0  0  0  0  0  0
   38.9940   21.1100   36.7690 H   0  0  0  0  0  0  0  0  0  0  0  0
   40.5620   21.2610   35.9180 H   0  0  0  0  0  0  0  0  0  0  0  0
   39.8690   22.9650   34.5910 H   0  0  0  0  0  0  0  0  0  0  0  0
   37.2500   25.9080   35.3310 C   0  0  0  0  0  0  0  0  0  0  0  0
   38.2890   25.0450   35.0110 C   0  0  0  0  0  0  0  0  0  0  0  0
   38.8810   25.2100   33.7730 C   0  0  0  0  0  0  0  0  0  0  0  0
   38.4280   26.1880   32.9390 N   0  0  0  0  0  0  0  0  0  0  0  0
   37.4180   27.0050   33.2820 C   0  0  0  0  0  0  0  0  0  0  0  0
   36.8410   26.8540   34.4770 N   0  0  0  0  0  0  0  0  0  0  0  0
   36.7350   25.8410   36.2870 H   0  0  0  0  0  0  0  0  0  0  0  0
   39.6910   24.5900   33.4440 H   0  0  0  0  0  0  0  0  0  0  0  0
   36.9650   28.0310   32.3720 C   0  0  0  0  0  0  0  0  0  0  0  0
   37.6610   28.2880   31.2120 C   0  0  0  0  0  0  0  0  0  0  0  0
   37.2880   29.2490   30.3030 C   0  0  0  0  0  0  0  0  0  0  0  0
   36.1470   29.9510   30.6410 C   0  0  0  0  0  0  0  0  0  0  0  0
   35.3920   29.7280   31.8200 C   0  0  0  0  0  0  0  0  0  0  0  0
   35.8540   28.7450   32.6580 N   0  0  0  0  0  0  0  0  0  0  0  0
   38.5470   27.7010   31.0120 H   0  0  0  0  0  0  0  0  0  0  0  0
   37.7980   29.4820   29.3930 H   0  0  0  0  0  0  0  0  0  0  0  0
   35.7660   30.7310   29.9930 H   0  0  0  0  0  0  0  0  0  0  0  0
   34.5160   30.3030   32.0270 H   0  0  0  0  0  0  0  0  0  0  0  0
   37.8640   21.6180   33.4650 C   0  0  0  0  0  0  0  0  0  0  0  0
   37.9960   22.0260   34.7800 C   0  0  0  0  0  0  0  0  0  0  0  0
   36.9710   21.7100   35.6510 C   0  0  0  0  0  0  0  0  0  0  0  0
   36.9400   21.9650   36.7030 H   0  0  0  0  0  0  0  0  0  0  0  0
   35.8500   21.0160   35.2490 C   0  0  0  0  0  0  0  0  0  0  0  0
   35.0240   20.7450   35.8870 H   0  0  0  0  0  0  0  0  0  0  0  0
   35.7320   20.6100   33.9140 C   0  0  0  0  0  3  0  0  0  0  0  0
   36.7520   20.9280   33.0590 C   0  0  0  0  0  3  0  0  0  0  0  0
   39.8620   22.2560   31.9280 N   0  0  0  0  0  0  0  0  0  0  0  0
   38.9610   21.9760   32.6100 C   0  0  0  0  0  0  0  0  0  0  0  0
  1  2  1  0  0  0  0
  2  8  1  0  0  0  0
  2  7  1  0  0  0  0
  2  3  1  0  0  0  0
  3 10  1  0  0  0  0
  3  9  1  0  0  0  0
  4  3  1  0  0  0  0
  4 11  1  0  0  0  0
  5 13  1  0  0  0  0
  5  4  1  0  0  0  0
  6 15  1  6  0  0  0
  6  1  1  0  0  0  0
  6  5  1  0  0  0  0
 12  4  1  0  0  0  0
 14  5  1  0  0  0  0
 16 22  1  0  0  0  0
 17 16  1  0  0  0  0
 17  1  1  0  0  0  0
 18 17  2  0  0  0  0
 19 20  2  0  0  0  0
 19 18  1  0  0  0  0
 20 21  1  0  0  0  0
 21 16  2  0  0  0  0
 23 18  1  0  0  0  0
 24 29  1  0  0  0  0
 24 20  1  0  0  0  0
 25 24  2  0  0  0  0
 26 27  2  0  0  0  0
 26 25  1  0  0  0  0
 27 28  1  0  0  0  0
 28 33  1  0  0  0  0
 28 29  2  0  0  0  0
 30 25  1  0  0  0  0
 31 26  1  0  0  0  0
 32 27  1  0  0  0  0
 34 35  1  0  0  0  0
 35  6  1  0  0  0  0
 35 36  2  0  0  0  0
 36 37  1  0  0  0  0
 38 36  1  0  0  0  0
 38 39  1  0  0  0  0
 40 38  2  0  0  0  0
 41 34  2  0  0  0  0
 41 40  1  0  0  0  0
 42 43  3  0  0  0  0
 43 34  1  0  0  0  0
M  END
>  <minimizedAffinity>
-5.64436293

$$$$

 OpenBabel03272504513D

 43 46  0  0  1  0  0  0  0  0999 V2000
   41.2990   24.0080   35.1580 N   0  0  0  0  0  0  0  0  0  0  0  0
   42.6010   24.5110   35.5750 C   0  0  0  0  0  0  0  0  0  0  0  0
   43.3660   23.5440   36.4200 C   0  0  0  0  0  0  0  0  0  0  0  0
   43.1440   22.1300   35.9270 C   0  0  0  0  0  0  0  0  0  0  0  0
   41.7080   21.8040   36.1930 C   0  0  0  0  0  0  0  0  0  0  0  0
   40.7530   22.7340   35.5020 C   0  0  1  0  0  0  0  0  0  0  0  0
   42.4210   25.4280   36.1590 H   0  0  0  0  0  0  0  0  0  0  0  0
   43.2510   24.7220   34.6820 H   0  0  0  0  0  0  0  0  0  0  0  0
   44.4560   23.7440   36.3340 H   0  0  0  0  0  0  0  0  0  0  0  0
   43.0500   23.5630   37.4850 H   0  0  0  0  0  0  0  0  0  0  0  0
   43.7610   21.4330   36.5340 H   0  0  0  0  0  0  0  0  0  0  0  0
   43.3780   22.0440   34.8360 H   0  0  0  0  0  0  0  0  0  0  0  0
   41.5520   21.8260   37.2990 H   0  0  0  0  0  0  0  0  0  0  0  0
   41.5020   20.7480   35.8700 H   0  0  0  0  0  0  0  0  0  0  0  0
   40.3950   22.2440   34.5730 H   0  0  0  0  0  0  0  0  0  0  0  0
   40.0380   26.0750   34.8490 C   0  0  0  0  0  0  0  0  0  0  0  0
   40.5290   24.8760   34.3480 C   0  0  0  0  0  0  0  0  0  0  0  0
   40.2280   24.5790   33.0320 C   0  0  0  0  0  0  0  0  0  0  0  0
   39.4780   25.4530   32.3030 N   0  0  0  0  0  0  0  0  0  0  0  0
   39.0180   26.6040   32.8220 C   0  0  0  0  0  0  0  0  0  0  0  0
   39.3060   26.9000   34.0920 N   0  0  0  0  0  0  0  0  0  0  0  0
   40.2340   26.3790   35.8750 H   0  0  0  0  0  0  0  0  0  0  0  0
   40.5670   23.6770   32.5610 H   0  0  0  0  0  0  0  0  0  0  0  0
   38.2270   27.5060   32.0170 C   0  0  0  0  0  0  0  0  0  0  0  0
   37.0240   27.9810   32.4860 C   0  0  0  0  0  0  0  0  0  0  0  0
   36.2200   28.8400   31.7750 C   0  0  0  0  0  0  0  0  0  0  0  0
   36.7140   29.1970   30.5360 C   0  0  0  0  0  0  0  0  0  0  0  0
   37.9450   28.7380   30.0040 C   0  0  0  0  0  0  0  0  0  0  0  0
   38.6670   27.8840   30.7980 N   0  0  0  0  0  0  0  0  0  0  0  0
   36.6980   27.6590   33.4670 H   0  0  0  0  0  0  0  0  0  0  0  0
   35.2800   29.2330   32.1000 H   0  0  0  0  0  0  0  0  0  0  0  0
   36.1590   29.8700   29.8930 H   0  0  0  0  0  0  0  0  0  0  0  0
   38.2750   29.0510   29.0360 H   0  0  0  0  0  0  0  0  0  0  0  0
   38.2370   22.6420   36.0980 C   0  0  0  0  0  0  0  0  0  0  0  0
   39.5680   22.8550   36.4080 C   0  0  0  0  0  0  0  0  0  0  0  0
   39.8700   23.2260   37.7040 C   0  0  0  0  0  0  0  0  0  0  0  0
   40.8640   23.4250   38.0850 H   0  0  0  0  0  0  0  0  0  0  0  0
   38.8990   23.3840   38.6700 C   0  0  0  0  0  0  0  0  0  0  0  0
   39.0810   23.6720   39.6930 H   0  0  0  0  0  0  0  0  0  0  0  0
   37.5560   23.1640   38.3400 C   0  0  0  0  0  3  0  0  0  0  0  0
   37.2680   22.7980   37.0540 C   0  0  0  0  0  3  0  0  0  0  0  0
   37.7690   21.9470   33.6370 N   0  0  0  0  0  0  0  0  0  0  0  0
   37.9890   22.2590   34.7360 C   0  0  0  0  0  0  0  0  0  0  0  0
  1  6  1  0  0  0  0
  1  2  1  0  0  0  0
  2  7  1  0  0  0  0
  2  3  1  0  0  0  0
  3 10  1  0  0  0  0
  4  5  1  0  0  0  0
  4  3  1  0  0  0  0
  4 11  1  0  0  0  0
  5 13  1  0  0  0  0
  6 15  1  6  0  0  0
  6  5  1  0  0  0  0
  6 35  1  0  0  0  0
  8  2  1  0  0  0  0
  9  3  1  0  0  0  0
 12  4  1  0  0  0  0
 14  5  1  0  0  0  0
 16 22  1  0  0  0  0
 17 16  1  0  0  0  0
 17  1  1  0  0  0  0
 18 17  2  0  0  0  0
 19 20  2  0  0  0  0
 19 18  1  0  0  0  0
 20 21  1  0  0  0  0
 21 16  2  0  0  0  0
 23 18  1  0  0  0  0
 24 25  1  0  0  0  0
 24 20  1  0  0  0  0
 25 30  1  0  0  0  0
 26 31  1  0  0  0  0
 26 25  2  0  0  0  0
 27 26  1  0  0  0  0
 28 27  2  0  0  0  0
 28 29  1  0  0  0  0
 29 24  2  0  0  0  0
 32 27  1  0  0  0  0
 33 28  1  0  0  0  0
 34 35  2  0  0  0  0
 34 41  1  0  0  0  0
 35 36  1  0  0  0  0
 36 37  1  0  0  0  0
 36 38  2  0  0  0  0
 38 39  1  0  0  0  0
 40 38  1  0  0  0  0
 41 40  2  0  0  0  0
 42 43  3  0  0  0  0
 43 34  1  0  0  0  0
M  END
>  <minimizedAffinity>
-5.59295273

$$$$

 OpenBabel03272504513D

 43 46  0  0  1  0  0  0  0  0999 V2000
   37.3040   26.3520   31.0620 N   0  0  0  0  0  0  0  0  0  0  0  0
   36.2590   27.1450   30.4270 C   0  0  0  0  0  0  0  0  0  0  0  0
   36.6180   28.5880   30.2810 C   0  0  0  0  0  0  0  0  0  0  0  0
   38.0870   28.7300   29.9410 C   0  0  0  0  0  0  0  0  0  0  0  0
   38.8510   28.2750   31.1450 C   0  0  0  0  0  0  0  0  0  0  0  0
   38.5570   26.8530   31.5280 C   0  0  1  0  0  0  0  0  0  0  0  0
   35.3620   27.0640   31.0620 H   0  0  0  0  0  0  0  0  0  0  0  0
   36.0530   26.7710   29.3870 H   0  0  0  0  0  0  0  0  0  0  0  0
   36.0510   29.0370   29.4370 H   0  0  0  0  0  0  0  0  0  0  0  0
   36.4500   29.1670   31.2140 H   0  0  0  0  0  0  0  0  0  0  0  0
   38.3210   29.8050   29.7860 H   0  0  0  0  0  0  0  0  0  0  0  0
   38.3510   28.1150   29.0440 H   0  0  0  0  0  0  0  0  0  0  0  0
   38.6090   28.9700   31.9850 H   0  0  0  0  0  0  0  0  0  0  0  0
   39.9510   28.3900   30.9500 H   0  0  0  0  0  0  0  0  0  0  0  0
   39.3640   26.2060   31.1260 H   0  0  0  0  0  0  0  0  0  0  0  0
   38.0010   24.0140   30.9810 C   0  0  0  0  0  0  0  0  0  0  0  0
   37.0250   24.9730   31.2220 C   0  0  0  0  0  0  0  0  0  0  0  0
   35.7830   24.5150   31.6180 C   0  0  0  0  0  0  0  0  0  0  0  0
   35.5740   23.1750   31.7500 N   0  0  0  0  0  0  0  0  0  0  0  0
   36.5420   22.2750   31.5070 C   0  0  0  0  0  0  0  0  0  0  0  0
   37.7460   22.7090   31.1250 N   0  0  0  0  0  0  0  0  0  0  0  0
   39.0030   24.2970   30.6670 H   0  0  0  0  0  0  0  0  0  0  0  0
   34.9710   25.1840   31.8270 H   0  0  0  0  0  0  0  0  0  0  0  0
   36.2830   20.8620   31.6590 C   0  0  0  0  0  0  0  0  0  0  0  0
   35.6980   20.3820   32.8080 C   0  0  0  0  0  0  0  0  0  0  0  0
   35.4240   19.0520   33.0200 C   0  0  0  0  0  0  0  0  0  0  0  0
   35.7850   18.2170   31.9800 C   0  0  0  0  0  0  0  0  0  0  0  0
   36.3890   18.6570   30.7750 C   0  0  0  0  0  0  0  0  0  0  0  0
   36.6180   20.0060   30.6700 N   0  0  0  0  0  0  0  0  0  0  0  0
   35.4420   21.0930   33.5820 H   0  0  0  0  0  0  0  0  0  0  0  0
   34.9720   18.6360   33.8950 H   0  0  0  0  0  0  0  0  0  0  0  0
   35.6130   17.1490   32.0430 H   0  0  0  0  0  0  0  0  0  0  0  0
   36.6460   17.9620   30.0050 H   0  0  0  0  0  0  0  0  0  0  0  0
   39.6510   26.1910   33.7770 C   0  0  0  0  0  0  0  0  0  0  0  0
   38.6660   26.7980   33.0200 C   0  0  0  0  0  0  0  0  0  0  0  0
   37.6450   27.4380   33.6960 C   0  0  0  0  0  0  0  0  0  0  0  0
   36.8120   27.9520   33.2330 H   0  0  0  0  0  0  0  0  0  0  0  0
   37.5890   27.4850   35.0730 C   0  0  0  0  0  0  0  0  0  0  0  0
   36.8160   27.9700   35.6470 H   0  0  0  0  0  0  0  0  0  0  0  0
   38.5950   26.8660   35.8250 C   0  0  0  0  0  3  0  0  0  0  0  0
   39.6010   26.2340   35.1460 C   0  0  0  0  0  3  0  0  0  0  0  0
   41.5110   25.0240   32.3850 N   0  0  0  0  0  0  0  0  0  0  0  0
   40.6830   25.5430   33.0170 C   0  0  0  0  0  0  0  0  0  0  0  0
  1 17  1  0  0  0  0
  1  6  1  0  0  0  0
  2  7  1  0  0  0  0
  2  1  1  0  0  0  0
  3  2  1  0  0  0  0
  3 10  1  0  0  0  0
  4  3  1  0  0  0  0
  4  5  1  0  0  0  0
  5  6  1  0  0  0  0
  5 13  1  0  0  0  0
  6 15  1  6  0  0  0
  6 35  1  0  0  0  0
  8  2  1  0  0  0  0
  9  3  1  0  0  0  0
 11  4  1  0  0  0  0
 12  4  1  0  0  0  0
 14  5  1  0  0  0  0
 16 21  2  0  0  0  0
 16 17  1  0  0  0  0
 17 18  2  0  0  0  0
 18 19  1  0  0  0  0
 18 23  1  0  0  0  0
 20 24  1  0  0  0  0
 20 19  2  0  0  0  0
 21 20  1  0  0  0  0
 22 16  1  0  0  0  0
 24 25  1  0  0  0  0
 25 26  2  0  0  0  0
 25 30  1  0  0  0  0
 26 31  1  0  0  0  0
 27 32  1  0  0  0  0
 27 26  1  0  0  0  0
 28 27  2  0  0  0  0
 29 28  1  0  0  0  0
 29 24  2  0  0  0  0
 33 28  1  0  0  0  0
 34 41  1  0  0  0  0
 35 36  1  0  0  0  0
 35 34  2  0  0  0  0
 36 38  2  0  0  0  0
 37 36  1  0  0  0  0
 38 39  1  0  0  0  0
 38 40  1  0  0  0  0
 41 40  2  0  0  0  0
 42 43  3  0  0  0  0
 43 34  1  0  0  0  0
M  END
>  <minimizedAffinity>
-5.5585289

$$$$

 OpenBabel03272504513D

 43 46  0  0  1  0  0  0  0  0999 V2000
   38.6100   23.1450   35.1730 N   0  0  0  0  0  0  0  0  0  0  0  0
   39.2140   22.3960   36.2660 C   0  0  0  0  0  0  0  0  0  0  0  0
   39.2930   23.1710   37.5420 C   0  0  0  0  0  0  0  0  0  0  0  0
   38.0560   24.0290   37.7090 C   0  0  0  0  0  0  0  0  0  0  0  0
   38.1080   25.0710   36.6350 C   0  0  0  0  0  0  0  0  0  0  0  0
   38.1350   24.4900   35.2500 C   0  0  1  0  0  0  0  0  0  0  0  0
   40.2350   22.1280   35.9500 H   0  0  0  0  0  0  0  0  0  0  0  0
   38.6100   21.4770   36.5010 H   0  0  0  0  0  0  0  0  0  0  0  0
   39.3170   22.4760   38.4080 H   0  0  0  0  0  0  0  0  0  0  0  0
   40.1640   23.8600   37.5710 H   0  0  0  0  0  0  0  0  0  0  0  0
   38.1100   24.5570   38.6860 H   0  0  0  0  0  0  0  0  0  0  0  0
   37.1260   23.4130   37.6230 H   0  0  0  0  0  0  0  0  0  0  0  0
   39.0110   25.7030   36.8170 H   0  0  0  0  0  0  0  0  0  0  0  0
   37.2220   25.7520   36.7370 H   0  0  0  0  0  0  0  0  0  0  0  0
   37.1070   24.5220   34.8350 H   0  0  0  0  0  0  0  0  0  0  0  0
   37.2830   21.9430   33.5130 C   0  0  0  0  0  0  0  0  0  0  0  0
   38.5000   22.4600   33.9380 C   0  0  0  0  0  0  0  0  0  0  0  0
   39.5860   22.2710   33.1040 C   0  0  0  0  0  0  0  0  0  0  0  0
   39.4180   21.6000   31.9300 N   0  0  0  0  0  0  0  0  0  0  0  0
   38.2250   21.1120   31.5500 C   0  0  0  0  0  0  0  0  0  0  0  0
   37.1700   21.2910   32.3500 N   0  0  0  0  0  0  0  0  0  0  0  0
   36.3840   22.0530   34.1150 H   0  0  0  0  0  0  0  0  0  0  0  0
   40.5620   22.6380   33.3500 H   0  0  0  0  0  0  0  0  0  0  0  0
   38.0870   20.4060   30.2980 C   0  0  0  0  0  0  0  0  0  0  0  0
   36.9630   19.6520   30.0450 C   0  0  0  0  0  0  0  0  0  0  0  0
   36.7660   18.9550   28.8780 C   0  0  0  0  0  0  0  0  0  0  0  0
   37.7930   19.0650   27.9600 C   0  0  0  0  0  0  0  0  0  0  0  0
   38.9710   19.8270   28.1680 C   0  0  0  0  0  0  0  0  0  0  0  0
   39.0640   20.4830   29.3690 N   0  0  0  0  0  0  0  0  0  0  0  0
   36.1990   19.6100   30.8100 H   0  0  0  0  0  0  0  0  0  0  0  0
   35.9120   18.3580   28.6400 H   0  0  0  0  0  0  0  0  0  0  0  0
   37.7390   18.5550   27.0060 H   0  0  0  0  0  0  0  0  0  0  0  0
   39.7320   19.8750   27.4180 H   0  0  0  0  0  0  0  0  0  0  0  0
   38.6570   25.9630   33.1890 C   0  0  0  0  0  0  0  0  0  0  0  0
   38.9610   25.4270   34.4270 C   0  0  0  0  0  0  0  0  0  0  0  0
   40.1690   25.7830   34.9960 C   0  0  0  0  0  0  0  0  0  0  0  0
   40.5350   25.4400   35.9560 H   0  0  0  0  0  0  0  0  0  0  0  0
   41.0530   26.6380   34.3740 C   0  0  0  0  0  0  0  0  0  0  0  0
   42.0060   26.9460   34.7750 H   0  0  0  0  0  0  0  0  0  0  0  0
   40.7300   27.1720   33.1220 C   0  0  0  0  0  3  0  0  0  0  0  0
   39.5320   26.8140   32.5650 C   0  0  0  0  0  3  0  0  0  0  0  0
   36.3690   25.2070   32.2130 N   0  0  0  0  0  0  0  0  0  0  0  0
   37.3890   25.5560   32.6500 C   0  0  0  0  0  0  0  0  0  0  0  0
  1  6  1  0  0  0  0
  1  2  1  0  0  0  0
  2  8  1  0  0  0  0
  2  3  1  0  0  0  0
  3 10  1  0  0  0  0
  3  4  1  0  0  0  0
  3  9  1  0  0  0  0
  4 11  1  0  0  0  0
  5 14  1  0  0  0  0
  5 13  1  0  0  0  0
  5  4  1  0  0  0  0
  6 15  1  6  0  0  0
  6  5  1  0  0  0  0
  7  2  1  0  0  0  0
 12  4  1  0  0  0  0
 16 17  1  0  0  0  0
 16 22  1  0  0  0  0
 17  1  1  0  0  0  0
 18 23  1  0  0  0  0
 18 17  2  0  0  0  0
 19 18  1  0  0  0  0
 20 19  2  0  0  0  0
 20 21  1  0  0  0  0
 21 16  2  0  0  0  0
 24 20  1  0  0  0  0
 25 24  1  0  0  0  0
 25 30  1  0  0  0  0
 26 25  2  0  0  0  0
 27 28  2  0  0  0  0
 27 26  1  0  0  0  0
 28 29  1  0  0  0  0
 29 24  2  0  0  0  0
 31 26  1  0  0  0  0
 32 27  1  0  0  0  0
 33 28  1  0  0  0  0
 34 35  1  0  0  0  0
 35 36  2  0  0  0  0
 35  6  1  0  0  0  0
 36 37  1  0  0  0  0
 38 39  1  0  0  0  0
 38 36  1  0  0  0  0
 40 38  2  0  0  0  0
 41 40  1  0  0  0  0
 41 34  2  0  0  0  0
 42 43  3  0  0  0  0
 43 34  1  0  0  0  0
M  END
>  <minimizedAffinity>
-5.41961575

$$$$

 OpenBabel03272504513D

 43 46  0  0  1  0  0  0  0  0999 V2000
   38.9810   23.8420   34.4550 N   0  0  0  0  0  0  0  0  0  0  0  0
   39.5430   23.6630   35.7870 C   0  0  0  0  0  0  0  0  0  0  0  0
   40.2620   22.3630   35.9570 C   0  0  0  0  0  0  0  0  0  0  0  0
   41.0100   22.0110   34.6880 C   0  0  0  0  0  0  0  0  0  0  0  0
   39.9750   21.7320   33.6440 C   0  0  0  0  0  0  0  0  0  0  0  0
   39.0670   22.9000   33.3850 C   0  0  1  0  0  0  0  0  0  0  0  0
   38.7030   23.7000   36.5000 H   0  0  0  0  0  0  0  0  0  0  0  0
   40.2980   24.4650   36.0110 H   0  0  0  0  0  0  0  0  0  0  0  0
   41.0230   22.4520   36.7610 H   0  0  0  0  0  0  0  0  0  0  0  0
   39.5730   21.5180   36.1660 H   0  0  0  0  0  0  0  0  0  0  0  0
   41.5780   21.0700   34.8520 H   0  0  0  0  0  0  0  0  0  0  0  0
   41.6810   22.8490   34.3720 H   0  0  0  0  0  0  0  0  0  0  0  0
   39.3890   20.8400   33.9740 H   0  0  0  0  0  0  0  0  0  0  0  0
   40.4840   21.4350   32.6880 H   0  0  0  0  0  0  0  0  0  0  0  0
   39.4260   23.4310   32.4790 H   0  0  0  0  0  0  0  0  0  0  0  0
   38.4670   25.7710   33.0500 C   0  0  0  0  0  0  0  0  0  0  0  0
   38.2940   25.0590   34.2300 C   0  0  0  0  0  0  0  0  0  0  0  0
   37.4270   25.5960   35.1630 C   0  0  0  0  0  0  0  0  0  0  0  0
   36.7970   26.7740   34.8910 N   0  0  0  0  0  0  0  0  0  0  0  0
   36.9900   27.4360   33.7380 C   0  0  0  0  0  0  0  0  0  0  0  0
   37.8250   26.9240   32.8300 N   0  0  0  0  0  0  0  0  0  0  0  0
   39.1320   25.4110   32.2680 H   0  0  0  0  0  0  0  0  0  0  0  0
   37.2310   25.1140   36.1000 H   0  0  0  0  0  0  0  0  0  0  0  0
   36.3040   28.6820   33.4850 C   0  0  0  0  0  0  0  0  0  0  0  0
   35.9080   29.4830   34.5320 C   0  0  0  0  0  0  0  0  0  0  0  0
   35.2510   30.6780   34.3650 C   0  0  0  0  0  0  0  0  0  0  0  0
   35.0120   31.0250   33.0490 C   0  0  0  0  0  0  0  0  0  0  0  0
   35.3980   30.2400   31.9330 C   0  0  0  0  0  0  0  0  0  0  0  0
   36.0470   29.0650   32.2150 N   0  0  0  0  0  0  0  0  0  0  0  0
   36.1280   29.1480   35.5370 H   0  0  0  0  0  0  0  0  0  0  0  0
   34.9260   31.3300   35.1470 H   0  0  0  0  0  0  0  0  0  0  0  0
   34.5010   31.9490   32.8050 H   0  0  0  0  0  0  0  0  0  0  0  0
   35.1850   30.5620   30.9370 H   0  0  0  0  0  0  0  0  0  0  0  0
   37.0370   22.4320   31.8510 C   0  0  0  0  0  0  0  0  0  0  0  0
   37.7330   22.3160   33.0400 C   0  0  0  0  0  0  0  0  0  0  0  0
   37.1490   21.5770   34.0510 C   0  0  0  0  0  0  0  0  0  0  0  0
   37.5790   21.4030   35.0300 H   0  0  0  0  0  0  0  0  0  0  0  0
   35.9210   20.9680   33.9040 C   0  0  0  0  0  0  0  0  0  0  0  0
   35.4230   20.3820   34.6600 H   0  0  0  0  0  0  0  0  0  0  0  0
   35.2300   21.0950   32.6930 C   0  0  0  0  0  3  0  0  0  0  0  0
   35.8160   21.8290   31.6990 C   0  0  0  0  0  3  0  0  0  0  0  0
   38.2380   23.8280   30.0160 N   0  0  0  0  0  0  0  0  0  0  0  0
   37.6960   23.2120   30.8410 C   0  0  0  0  0  0  0  0  0  0  0  0
  1  2  1  0  0  0  0
  2  3  1  0  0  0  0
  2  8  1  0  0  0  0
  2  7  1  0  0  0  0
  3 10  1  0  0  0  0
  3  9  1  0  0  0  0
  4 11  1  0  0  0  0
  4  3  1  0  0  0  0
  5 13  1  0  0  0  0
  5  4  1  0  0  0  0
  6 15  1  6  0  0  0
  6  5  1  0  0  0  0
  6  1  1  0  0  0  0
 12  4  1  0  0  0  0
 14  5  1  0  0  0  0
 16 17  1  0  0  0  0
 17  1  1  0  0  0  0
 17 18  2  0  0  0  0
 18 23  1  0  0  0  0
 19 18  1  0  0  0  0
 20 19  2  0  0  0  0
 21 16  2  0  0  0  0
 21 20  1  0  0  0  0
 22 16  1  0  0  0  0
 24 20  1  0  0  0  0
 24 25  1  0  0  0  0
 25 30  1  0  0  0  0
 26 25  2  0  0  0  0
 26 31  1  0  0  0  0
 27 26  1  0  0  0  0
 28 29  1  0  0  0  0
 28 27  2  0  0  0  0
 29 24  2  0  0  0  0
 32 27  1  0  0  0  0
 33 28  1  0  0  0  0
 34 35  1  0  0  0  0
 35  6  1  0  0  0  0
 35 36  2  0  0  0  0
 36 37  1  0  0  0  0
 38 36  1  0  0  0  0
 38 39  1  0  0  0  0
 40 38  2  0  0  0  0
 41 34  2  0  0  0  0
 41 40  1  0  0  0  0
 42 43  3  0  0  0  0
 43 34  1  0  0  0  0
M  END
>  <minimizedAffinity>
-5.32063389

$$$$

 OpenBabel03272504513D

 43 46  0  0  1  0  0  0  0  0999 V2000
   35.0790   30.8100   34.9090 N   0  0  0  0  0  0  0  0  0  0  0  0
   35.9830   31.9520   34.9060 C   0  0  0  0  0  0  0  0  0  0  0  0
   35.4890   33.1000   35.7250 C   0  0  0  0  0  0  0  0  0  0  0  0
   34.8000   32.5920   36.9750 C   0  0  0  0  0  0  0  0  0  0  0  0
   33.5560   31.8920   36.5230 C   0  0  0  0  0  0  0  0  0  0  0  0
   33.8290   30.7430   35.5960 C   0  0  1  0  0  0  0  0  0  0  0  0
   36.0860   32.2810   33.8590 H   0  0  0  0  0  0  0  0  0  0  0  0
   36.9810   31.6700   35.3400 H   0  0  0  0  0  0  0  0  0  0  0  0
   36.3460   33.7210   36.0640 H   0  0  0  0  0  0  0  0  0  0  0  0
   34.7470   33.7240   35.1840 H   0  0  0  0  0  0  0  0  0  0  0  0
   34.4870   33.4600   37.5940 H   0  0  0  0  0  0  0  0  0  0  0  0
   35.4660   31.8960   37.5450 H   0  0  0  0  0  0  0  0  0  0  0  0
   32.8970   32.6490   36.0340 H   0  0  0  0  0  0  0  0  0  0  0  0
   32.9940   31.5220   37.4220 H   0  0  0  0  0  0  0  0  0  0  0  0
   33.8020   29.8020   36.1840 H   0  0  0  0  0  0  0  0  0  0  0  0
   36.2830   28.6940   34.7270 C   0  0  0  0  0  0  0  0  0  0  0  0
   35.4960   29.6860   34.1550 C   0  0  0  0  0  0  0  0  0  0  0  0
   35.1480   29.5210   32.8280 C   0  0  0  0  0  0  0  0  0  0  0  0
   35.5850   28.4200   32.1530 N   0  0  0  0  0  0  0  0  0  0  0  0
   36.3460   27.4800   32.7390 C   0  0  0  0  0  0  0  0  0  0  0  0
   36.6860   27.6310   34.0220 N   0  0  0  0  0  0  0  0  0  0  0  0
   36.5960   28.7530   35.7670 H   0  0  0  0  0  0  0  0  0  0  0  0
   34.5430   30.2360   32.3060 H   0  0  0  0  0  0  0  0  0  0  0  0
   36.7890   26.3260   31.9910 C   0  0  0  0  0  0  0  0  0  0  0  0
   35.8900   25.3520   31.6210 C   0  0  0  0  0  0  0  0  0  0  0  0
   36.2420   24.2280   30.9110 C   0  0  0  0  0  0  0  0  0  0  0  0
   37.5830   24.1450   30.5910 C   0  0  0  0  0  0  0  0  0  0  0  0
   38.5510   25.1190   30.9460 C   0  0  0  0  0  0  0  0  0  0  0  0
   38.0910   26.2000   31.6550 N   0  0  0  0  0  0  0  0  0  0  0  0
   34.8550   25.4820   31.9060 H   0  0  0  0  0  0  0  0  0  0  0  0
   35.5790   23.4480   30.6040 H   0  0  0  0  0  0  0  0  0  0  0  0
   37.9660   23.3000   30.0320 H   0  0  0  0  0  0  0  0  0  0  0  0
   39.5760   24.9990   30.6690 H   0  0  0  0  0  0  0  0  0  0  0  0
   31.6610   29.7480   34.5950 C   0  0  0  0  0  0  0  0  0  0  0  0
   32.6690   30.6930   34.6510 C   0  0  0  0  0  0  0  0  0  0  0  0
   32.6260   31.7270   33.7370 C   0  0  0  0  0  0  0  0  0  0  0  0
   33.3450   32.5330   33.6660 H   0  0  0  0  0  0  0  0  0  0  0  0
   31.6250   31.8360   32.7940 C   0  0  0  0  0  0  0  0  0  0  0  0
   31.5460   32.6220   32.0600 H   0  0  0  0  0  0  0  0  0  0  0  0
   30.6120   30.8710   32.7500 C   0  0  0  0  0  3  0  0  0  0  0  0
   30.6640   29.8500   33.6600 C   0  0  0  0  0  3  0  0  0  0  0  0
   31.8250   27.8470   36.3610 N   0  0  0  0  0  0  0  0  0  0  0  0
   31.7620   28.6990   35.5700 C   0  0  0  0  0  0  0  0  0  0  0  0
  1  6  1  0  0  0  0
  2  1  1  0  0  0  0
  2  8  1  0  0  0  0
  2  3  1  0  0  0  0
  3  9  1  0  0  0  0
  3  4  1  0  0  0  0
  4 12  1  0  0  0  0
  4 11  1  0  0  0  0
  5  4  1  0  0  0  0
  5 14  1  0  0  0  0
  6 15  1  1  0  0  0
  6  5  1  0  0  0  0
  7  2  1  0  0  0  0
 10  3  1  0  0  0  0
 13  5  1  0  0  0  0
 16 22  1  0  0  0  0
 17 16  1  0  0  0  0
 17  1  1  0  0  0  0
 18 17  2  0  0  0  0
 19 20  2  0  0  0  0
 19 18  1  0  0  0  0
 20 21  1  0  0  0  0
 21 16  2  0  0  0  0
 23 18  1  0  0  0  0
 24 20  1  0  0  0  0
 25 30  1  0  0  0  0
 25 24  2  0  0  0  0
 26 25  1  0  0  0  0
 27 26  2  0  0  0  0
 27 28  1  0  0  0  0
 28 29  2  0  0  0  0
 29 24  1  0  0  0  0
 31 26  1  0  0  0  0
 32 27  1  0  0  0  0
 33 28  1  0  0  0  0
 34 35  1  0  0  0  0
 34 43  1  0  0  0  0
 35  6  1  0  0  0  0
 36 35  2  0  0  0  0
 37 36  1  0  0  0  0
 38 36  1  0  0  0  0
 39 38  1  0  0  0  0
 40 38  2  0  0  0  0
 40 41  1  0  0  0  0
 41 34  2  0  0  0  0
 43 42  3  0  0  0  0
M  END
>  <minimizedAffinity>
-5.3187294

$$$$

 OpenBabel03272504513D

 43 46  0  0  1  0  0  0  0  0999 V2000
   38.5330   24.1760   35.3770 N   0  0  0  0  0  0  0  0  0  0  0  0
   38.1800   24.8180   36.6360 C   0  0  0  0  0  0  0  0  0  0  0  0
   38.3230   23.9180   37.8210 C   0  0  0  0  0  0  0  0  0  0  0  0
   39.5370   23.0280   37.6570 C   0  0  0  0  0  0  0  0  0  0  0  0
   39.2410   22.1030   36.5180 C   0  0  0  0  0  0  0  0  0  0  0  0
   38.9670   22.8230   35.2290 C   0  0  1  0  0  0  0  0  0  0  0  0
   37.1270   25.1320   36.5540 H   0  0  0  0  0  0  0  0  0  0  0  0
   38.8500   25.6990   36.8350 H   0  0  0  0  0  0  0  0  0  0  0  0
   38.4910   24.5210   38.7380 H   0  0  0  0  0  0  0  0  0  0  0  0
   37.4500   23.2430   37.9530 H   0  0  0  0  0  0  0  0  0  0  0  0
   39.6550   22.4050   38.5700 H   0  0  0  0  0  0  0  0  0  0  0  0
   40.4540   23.6360   37.4510 H   0  0  0  0  0  0  0  0  0  0  0  0
   38.3700   21.4690   36.8120 H   0  0  0  0  0  0  0  0  0  0  0  0
   40.1060   21.4010   36.3780 H   0  0  0  0  0  0  0  0  0  0  0  0
   39.8940   22.8170   34.6180 H   0  0  0  0  0  0  0  0  0  0  0  0
   39.5580   25.4120   33.5390 C   0  0  0  0  0  0  0  0  0  0  0  0
   38.4260   24.9810   34.2180 C   0  0  0  0  0  0  0  0  0  0  0  0
   37.2030   25.3780   33.7100 C   0  0  0  0  0  0  0  0  0  0  0  0
   37.1630   26.1570   32.5930 N   0  0  0  0  0  0  0  0  0  0  0  0
   38.2800   26.5570   31.9620 C   0  0  0  0  0  0  0  0  0  0  0  0
   39.4660   26.1770   32.4450 N   0  0  0  0  0  0  0  0  0  0  0  0
   40.5550   25.1400   33.8770 H   0  0  0  0  0  0  0  0  0  0  0  0
   36.2770   25.0900   34.1680 H   0  0  0  0  0  0  0  0  0  0  0  0
   38.1980   27.3820   30.7790 C   0  0  0  0  0  0  0  0  0  0  0  0
   37.2740   28.3990   30.7040 C   0  0  0  0  0  0  0  0  0  0  0  0
   37.1410   29.2220   29.6110 C   0  0  0  0  0  0  0  0  0  0  0  0
   38.0130   28.9500   28.5760 C   0  0  0  0  0  0  0  0  0  0  0  0
   38.9840   27.9170   28.5990 C   0  0  0  0  0  0  0  0  0  0  0  0
   39.0310   27.1550   29.7400 N   0  0  0  0  0  0  0  0  0  0  0  0
   36.6220   28.5550   31.5530 H   0  0  0  0  0  0  0  0  0  0  0  0
   36.4390   30.0220   29.5110 H   0  0  0  0  0  0  0  0  0  0  0  0
   37.9930   29.5390   27.6670 H   0  0  0  0  0  0  0  0  0  0  0  0
   39.6330   27.7550   27.7650 H   0  0  0  0  0  0  0  0  0  0  0  0
   38.0340   21.5250   33.1950 C   0  0  0  0  0  0  0  0  0  0  0  0
   37.9640   21.9870   34.4970 C   0  0  0  0  0  0  0  0  0  0  0  0
   36.8450   21.6530   35.2340 C   0  0  0  0  0  0  0  0  0  0  0  0
   36.6590   21.9450   36.2600 H   0  0  0  0  0  0  0  0  0  0  0  0
   35.8220   20.8870   34.7150 C   0  0  0  0  0  0  0  0  0  0  0  0
   34.9290   20.5990   35.2470 H   0  0  0  0  0  0  0  0  0  0  0  0
   35.9080   20.4270   33.3960 C   0  0  0  0  0  3  0  0  0  0  0  0
   37.0200   20.7640   32.6730 C   0  0  0  0  0  3  0  0  0  0  0  0
   40.1790   22.2000   31.8920 N   0  0  0  0  0  0  0  0  0  0  0  0
   39.2200   21.9060   32.4820 C   0  0  0  0  0  0  0  0  0  0  0  0
  1  2  1  0  0  0  0
  2  8  1  0  0  0  0
  2  3  1  0  0  0  0
  3 10  1  0  0  0  0
  3  9  1  0  0  0  0
  4  3  1  0  0  0  0
  4 11  1  0  0  0  0
  5 13  1  0  0  0  0
  5  4  1  0  0  0  0
  6 15  1  6  0  0  0
  6  1  1  0  0  0  0
  6  5  1  0  0  0  0
  7  2  1  0  0  0  0
 12  4  1  0  0  0  0
 14  5  1  0  0  0  0
 16 22  1  0  0  0  0
 16 17  1  0  0  0  0
 17  1  1  0  0  0  0
 18 23  1  0  0  0  0
 18 17  2  0  0  0  0
 19 18  1  0  0  0  0
 20 21  1  0  0  0  0
 20 19  2  0  0  0  0
 21 16  2  0  0  0  0
 24 20  1  0  0  0  0
 25 24  1  0  0  0  0
 25 30  1  0  0  0  0
 26 25  2  0  0  0  0
 27 28  2  0  0  0  0
 27 26  1  0  0  0  0
 28 29  1  0  0  0  0
 29 24  2  0  0  0  0
 31 26  1  0  0  0  0
 32 27  1  0  0  0  0
 33 28  1  0  0  0  0
 34 35  1  0  0  0  0
 35  6  1  0  0  0  0
 35 36  2  0  0  0  0
 36 37  1  0  0  0  0
 38 36  1  0  0  0  0
 38 39  1  0  0  0  0
 40 38  2  0  0  0  0
 41 34  2  0  0  0  0
 41 40  1  0  0  0  0
 42 43  3  0  0  0  0
 43 34  1  0  0  0  0
M  END
>  <minimizedAffinity>
-5.26946974

$$$$

 OpenBabel03272504513D

 43 46  0  0  1  0  0  0  0  0999 V2000
   36.8880   25.7710   32.2140 N   0  0  0  0  0  0  0  0  0  0  0  0
   35.8260   25.0410   31.5360 C   0  0  0  0  0  0  0  0  0  0  0  0
   36.2780   23.7410   30.9530 C   0  0  0  0  0  0  0  0  0  0  0  0
   37.2820   23.0780   31.8720 C   0  0  0  0  0  0  0  0  0  0  0  0
   38.5070   23.9390   31.8620 C   0  0  0  0  0  0  0  0  0  0  0  0
   38.2460   25.3420   32.3300 C   0  0  1  0  0  0  0  0  0  0  0  0
   35.4580   25.6860   30.7220 H   0  0  0  0  0  0  0  0  0  0  0  0
   34.9980   24.7860   32.2540 H   0  0  0  0  0  0  0  0  0  0  0  0
   35.4170   23.0440   30.8660 H   0  0  0  0  0  0  0  0  0  0  0  0
   36.7800   23.8650   29.9700 H   0  0  0  0  0  0  0  0  0  0  0  0
   37.5660   22.0910   31.4470 H   0  0  0  0  0  0  0  0  0  0  0  0
   36.8720   22.9780   32.9090 H   0  0  0  0  0  0  0  0  0  0  0  0
   38.9160   23.9370   30.8230 H   0  0  0  0  0  0  0  0  0  0  0  0
   39.2940   23.4690   32.5100 H   0  0  0  0  0  0  0  0  0  0  0  0
   38.5480   25.4200   33.3950 H   0  0  0  0  0  0  0  0  0  0  0  0
   35.8160   27.9590   32.0660 C   0  0  0  0  0  0  0  0  0  0  0  0
   36.5190   27.0080   32.7950 C   0  0  0  0  0  0  0  0  0  0  0  0
   36.8370   27.3310   34.1010 C   0  0  0  0  0  0  0  0  0  0  0  0
   36.4590   28.5400   34.6030 N   0  0  0  0  0  0  0  0  0  0  0  0
   35.7790   29.4360   33.8670 C   0  0  0  0  0  0  0  0  0  0  0  0
   35.4660   29.1320   32.6050 N   0  0  0  0  0  0  0  0  0  0  0  0
   35.5290   27.7770   31.0330 H   0  0  0  0  0  0  0  0  0  0  0  0
   37.3760   26.6570   34.7370 H   0  0  0  0  0  0  0  0  0  0  0  0
   35.3940   30.7080   34.4350 C   0  0  0  0  0  0  0  0  0  0  0  0
   35.8770   31.0950   35.6630 C   0  0  0  0  0  0  0  0  0  0  0  0
   35.5520   32.2890   36.2630 C   0  0  0  0  0  0  0  0  0  0  0  0
   34.6910   33.0850   35.5320 C   0  0  0  0  0  0  0  0  0  0  0  0
   34.1640   32.7350   34.2630 C   0  0  0  0  0  0  0  0  0  0  0  0
   34.5540   31.5210   33.7580 N   0  0  0  0  0  0  0  0  0  0  0  0
   36.5480   30.4220   36.1800 H   0  0  0  0  0  0  0  0  0  0  0  0
   35.9030   32.6290   37.2130 H   0  0  0  0  0  0  0  0  0  0  0  0
   34.3710   34.0470   35.9120 H   0  0  0  0  0  0  0  0  0  0  0  0
   33.5010   33.3940   33.7440 H   0  0  0  0  0  0  0  0  0  0  0  0
   40.2240   26.9830   32.0360 C   0  0  0  0  0  0  0  0  0  0  0  0
   39.1810   26.2150   31.5520 C   0  0  0  0  0  0  0  0  0  0  0  0
   38.9490   26.2370   30.1900 C   0  0  0  0  0  0  0  0  0  0  0  0
   38.1700   25.6880   29.6770 H   0  0  0  0  0  0  0  0  0  0  0  0
   39.7160   26.9880   29.3250 C   0  0  0  0  0  0  0  0  0  0  0  0
   39.5770   27.0410   28.2570 H   0  0  0  0  0  0  0  0  0  0  0  0
   40.7690   27.7600   29.8300 C   0  0  0  0  0  3  0  0  0  0  0  0
   40.9890   27.7320   31.1800 C   0  0  0  0  0  3  0  0  0  0  0  0
   40.5850   26.8700   34.6070 N   0  0  0  0  0  0  0  0  0  0  0  0
   40.4130   26.9180   33.4570 C   0  0  0  0  0  0  0  0  0  0  0  0
  1  6  1  0  0  0  0
  1 17  1  0  0  0  0
  2  1  1  0  0  0  0
  2  8  1  0  0  0  0
  3  2  1  0  0  0  0
  3  4  1  0  0  0  0
  4 12  1  0  0  0  0
  5  4  1  0  0  0  0
  5  6  1  0  0  0  0
  5 14  1  0  0  0  0
  6 15  1  1  0  0  0
  7  2  1  0  0  0  0
  9  3  1  0  0  0  0
 10  3  1  0  0  0  0
 11  4  1  0  0  0  0
 13  5  1  0  0  0  0
 16 21  2  0  0  0  0
 16 17  1  0  0  0  0
 17 18  2  0  0  0  0
 18 19  1  0  0  0  0
 18 23  1  0  0  0  0
 20 24  1  0  0  0  0
 20 19  2  0  0  0  0
 21 20  1  0  0  0  0
 22 16  1  0  0  0  0
 24 25  1  0  0  0  0
 25 30  1  0  0  0  0
 25 26  2  0  0  0  0
 26 31  1  0  0  0  0
 27 32  1  0  0  0  0
 27 26  1  0  0  0  0
 28 27  2  0  0  0  0
 29 28  1  0  0  0  0
 29 24  2  0  0  0  0
 33 28  1  0  0  0  0
 34 43  1  0  0  0  0
 35 34  1  0  0  0  0
 35  6  1  0  0  0  0
 36 35  2  0  0  0  0
 37 36  1  0  0  0  0
 38 40  2  0  0  0  0
 38 36  1  0  0  0  0
 39 38  1  0  0  0  0
 40 41  1  0  0  0  0
 41 34  2  0  0  0  0
 43 42  3  0  0  0  0
M  END
>  <minimizedAffinity>
-5.22817898

$$$$
