
     RDKit          3D

 23 24  0  0  0  0  0  0  0  0999 V2000
   36.6267   29.7592   51.2596 C   0  0  0  0  0  0  0  0  0  0  0  0
   37.3856   30.1189   50.1228 C   0  0  0  0  0  0  0  0  0  0  0  0
   36.8040   29.7943   48.8885 C   0  0  0  0  0  0  0  0  0  0  0  0
   35.5878   29.1746   48.8500 N   0  0  0  0  0  0  0  0  0  0  0  0
   34.9170   28.8594   49.9727 C   0  0  0  0  0  0  0  0  0  0  0  0
   35.4234   29.1454   51.1926 N   0  0  0  0  0  0  0  0  0  0  0  0
   38.6435   30.7621   50.2588 N   0  0  0  0  0  0  0  0  0  0  0  0
   37.1078   30.0261   52.2106 H   0  0  0  0  0  0  0  0  0  0  0  0
   37.3636   30.0585   48.0007 H   0  0  0  0  0  0  0  0  0  0  0  0
   39.5491   30.3139   50.0843 H   0  0  0  0  0  0  0  0  0  0  0  0
   38.6409   31.7685   50.5597 H   0  0  0  0  0  0  0  0  0  0  0  0
   32.4648   31.4373   49.8079 N   0  0  0  0  0  0  0  0  0  0  0  0
   32.4489   30.2851   49.7706 C   0  0  0  0  0  0  0  0  0  0  0  0
   32.4313   28.8498   49.7313 C   0  0  0  0  0  0  0  0  0  0  0  0
   33.6250   28.1986   49.8301 C   0  0  0  0  0  0  0  0  0  0  0  0
   33.5943   26.8211   49.7911 C   0  0  0  0  0  0  0  0  0  0  0  0
   34.5090   26.2182   49.8641 H   0  0  0  0  0  0  0  0  0  0  0  0
   32.4277   26.0935   49.6590 C   0  0  0  0  0  0  0  0  0  0  0  0
   32.4366   24.9945   49.6311 H   0  0  0  0  0  0  0  0  0  0  0  0
   31.2163   26.7506   49.5586 C   0  0  0  0  0  0  0  0  0  0  0  0
   31.2509   28.1430   49.5984 C   0  0  0  0  0  0  0  0  0  0  0  0
   30.3108   26.1712   49.4557 H   0  0  0  0  0  0  0  0  0  0  0  0
   30.2967   28.6507   49.5191 H   0  0  0  0  0  0  0  0  0  0  0  0
  2  7  1  0
  2  1  2  0
  3  2  1  0
  4  3  2  0
  4  5  1  0
  5  6  2  0
  6  1  1  0
  1  8  1  0
  3  9  1  0
  7 10  1  0
  7 11  1  0
 12 13  3  0
 13 14  1  0
 14 15  2  0
 15 16  1  0
 16 17  1  0
 16 18  2  0
 18 19  1  0
 18 20  1  0
 20 21  2  0
 21 14  1  0
 20 22  1  0
 21 23  1  0
  5 15  1  0
M  ISO  4   8  14   9  14  17  15  19  16
M  END
>  <DihAtoms>  (1) 
3,4,14,13

>  <DihDeg>  (1) 
179.9966030937218

$$$$
