
     RDKit          3D

 23 24  0  0  0  0  0  0  0  0999 V2000
   36.6267   29.7592   51.2596 C   0  0  0  0  0  0  0  0  0  0  0  0
   37.3856   30.1189   50.1228 C   0  0  0  0  0  0  0  0  0  0  0  0
   36.8040   29.7943   48.8885 C   0  0  0  0  0  0  0  0  0  0  0  0
   35.5878   29.1746   48.8500 N   0  0  0  0  0  0  0  0  0  0  0  0
   34.9170   28.8594   49.9727 C   0  0  0  0  0  0  0  0  0  0  0  0
   35.4234   29.1454   51.1926 N   0  0  0  0  0  0  0  0  0  0  0  0
   38.6435   30.7621   50.2588 N   0  0  0  0  0  0  0  0  0  0  0  0
   37.1078   30.0261   52.2106 H   0  0  0  0  0  0  0  0  0  0  0  0
   37.3636   30.0585   48.0007 H   0  0  0  0  0  0  0  0  0  0  0  0
   39.5491   30.3139   50.0843 H   0  0  0  0  0  0  0  0  0  0  0  0
   38.6409   31.7685   50.5597 H   0  0  0  0  0  0  0  0  0  0  0  0
   32.6021   31.3580   48.9313 N   0  0  0  0  0  0  0  0  0  0  0  0
   32.5457   30.2285   49.1558 C   0  0  0  0  0  0  0  0  0  0  0  0
   32.4767   28.8232   49.4428 C   0  0  0  0  0  0  0  0  0  0  0  0
   33.6250   28.1986   49.8301 C   0  0  0  0  0  0  0  0  0  0  0  0
   33.5452   26.8497   50.1025 C   0  0  0  0  0  0  0  0  0  0  0  0
   34.4214   26.2694   50.4204 H   0  0  0  0  0  0  0  0  0  0  0  0
   32.3739   26.1249   50.0003 C   0  0  0  0  0  0  0  0  0  0  0  0
   32.3431   25.0491   50.2249 H   0  0  0  0  0  0  0  0  0  0  0  0
   31.2085   26.7552   49.6080 C   0  0  0  0  0  0  0  0  0  0  0  0
   31.2926   28.1186   49.3334 C   0  0  0  0  0  0  0  0  0  0  0  0
   30.2988   26.1782   49.5317 H   0  0  0  0  0  0  0  0  0  0  0  0
   30.3743   28.6053   49.0264 H   0  0  0  0  0  0  0  0  0  0  0  0
  2  7  1  0
  2  1  2  0
  3  2  1  0
  4  3  2  0
  4  5  1  0
  5  6  2  0
  6  1  1  0
  1  8  1  0
  3  9  1  0
  7 10  1  0
  7 11  1  0
 12 13  3  0
 13 14  1  0
 14 15  2  0
 15 16  1  0
 16 17  1  0
 16 18  2  0
 18 19  1  0
 18 20  1  0
 20 21  2  0
 21 14  1  0
 20 22  1  0
 21 23  1  0
  5 15  1  0
M  ISO  4   8  14   9  14  17  15  19  16
M  END
>  <DihAtoms>  (1) 
3,4,14,13

>  <DihDeg>  (1) 
179.9966030937218

$$$$
