
     RDKit          3D

 45 48  0  0  0  0  0  0  0  0999 V2000
   35.1391   29.8092   49.1933 C   0  0  0  0  0  0  0  0  0  0  0  0
   35.8470   30.3415   48.1230 C   0  0  0  0  0  0  0  0  0  0  0  0
   35.3463   30.0956   46.8576 C   0  0  0  0  0  0  0  0  0  0  0  0
   34.2078   29.3590   46.7204 N   0  0  0  0  0  0  0  0  0  0  0  0
   33.5488   28.8594   47.7795 C   0  0  0  0  0  0  0  0  0  0  0  0
   34.0252   29.0924   49.0048 N   0  0  0  0  0  0  0  0  0  0  0  0
   32.3450   28.0834   47.5927 C   0  0  0  0  0  0  0  0  0  0  0  0
   32.2234   26.8398   48.1711 C   0  0  0  0  0  0  0  0  0  0  0  0
   31.1079   26.0484   48.0345 C   0  0  0  0  0  0  0  0  0  0  0  0
   30.1025   26.5972   47.2643 C   0  0  0  0  0  0  0  0  0  0  0  0
   30.1739   27.8713   46.6458 C   0  0  0  0  0  0  0  0  0  0  0  0
   31.3326   28.5772   46.8472 N   0  0  0  0  0  0  0  0  0  0  0  0
   37.0267   31.0947   48.3320 N   0  0  0  0  0  0  0  0  0  0  0  0
   37.4000   31.3248   49.7215 C   0  0  0  0  0  0  0  0  0  0  0  0
   38.6485   32.1329   49.8734 C   0  0  0  0  0  0  0  0  0  0  0  0
   38.7054   33.2114   48.8107 C   0  0  0  0  0  0  0  0  0  0  0  0
   38.8703   32.5106   47.4977 C   0  0  0  0  0  0  0  0  0  0  0  0
   37.7486   31.5602   47.1907 C   0  0  1  0  0  0  0  0  0  0  0  0
   35.4697   29.9596   50.2179 H   0  0  0  0  0  0  0  0  0  0  0  0
   35.8256   30.4691   45.9754 H   0  0  0  0  0  0  0  0  0  0  0  0
   33.0512   26.4716   48.7624 H   0  0  0  0  0  0  0  0  0  0  0  0
   30.9714   25.0792   48.4651 H   0  0  0  0  0  0  0  0  0  0  0  0
   29.1794   26.0557   47.0931 H   0  0  0  0  0  0  0  0  0  0  0  0
   29.3613   28.2430   46.0600 H   0  0  0  0  0  0  0  0  0  0  0  0
   37.5591   30.3363   50.1811 H   0  0  0  0  0  0  0  0  0  0  0  0
   36.5953   31.8964   50.2597 H   0  0  0  0  0  0  0  0  0  0  0  0
   38.6468   32.6534   50.8553 H   0  0  0  0  0  0  0  0  0  0  0  0
   39.5689   31.5233   49.7574 H   0  0  0  0  0  0  0  0  0  0  0  0
   39.6125   33.8318   48.9728 H   0  0  0  0  0  0  0  0  0  0  0  0
   37.7730   33.8309   48.8185 H   0  0  0  0  0  0  0  0  0  0  0  0
   39.8504   31.9760   47.5176 H   0  0  0  0  0  0  0  0  0  0  0  0
   38.9474   33.2747   46.6787 H   0  0  0  0  0  0  0  0  0  0  0  0
   37.0359   32.0650   46.5071 H   0  0  0  0  0  0  0  0  0  0  0  0
   41.3235   31.6407   47.6523 N   0  0  0  0  0  0  0  0  0  0  0  0
   40.5895   30.9596   47.0594 C   0  0  0  0  0  0  0  0  0  0  0  0
   39.7037   30.1057   46.3202 C   0  0  0  0  0  0  0  0  0  0  0  0
   38.3635   30.4358   46.4172 C   0  0  0  0  0  0  0  0  0  0  0  0
   37.4614   29.6500   45.7271 C   0  0  0  0  0  0  0  0  0  0  0  0
   36.3882   29.7911   45.7125 H   0  0  0  0  0  0  0  0  0  0  0  0
   37.8564   28.5722   44.9638 C   0  0  0  0  0  0  0  0  0  0  0  0
   37.1934   27.9278   44.4065 H   0  0  0  0  0  0  0  0  0  0  0  0
   39.2156   28.2513   44.8757 C   0  0  0  0  0  0  0  0  0  0  0  0
   40.1019   29.0359   45.5631 C   0  0  0  0  0  0  0  0  0  0  0  0
   39.6417   27.4328   44.3102 H   0  0  0  0  0  0  0  0  0  0  0  0
   41.1838   28.8941   45.5782 H   0  0  0  0  0  0  0  0  0  0  0  0
  2 13  1  0
  2  1  2  0
  3  2  1  0
  4  3  2  0
  4  5  1  0
  5  6  2  0
  6  1  1  0
  7  5  1  0
  7  8  2  0
  9  8  1  0
 10  9  2  0
 11 12  2  0
 11 10  1  0
 12  7  1  0
 13 14  1  0
 14 15  1  0
 16 15  1  0
 17 16  1  0
 18 17  1  0
 18 13  1  0
  1 19  1  0
  3 20  1  0
  8 21  1  0
  9 22  1  0
 10 23  1  0
 11 24  1  0
 14 25  1  0
 14 26  1  0
 15 27  1  0
 15 28  1  0
 16 29  1  0
 16 30  1  0
 17 31  1  0
 17 32  1  0
 18 33  1  6
 34 35  3  0
 35 36  1  0
 36 37  2  0
 37 38  1  0
 38 39  1  0
 38 40  2  0
 40 41  1  0
 40 42  1  0
 42 43  2  0
 43 36  1  0
 42 44  1  0
 43 45  1  0
 18 37  1  0
M  ISO  8  19  14  20  14  21  14  22  14  23  14  24  14  25  13  26  13
M  ISO  8  27  13  28  13  29  13  30  13  31  13  32  13  33  13  39  15
M  ISO  1  41  16
M  END
>  <DihAtoms>  (1) 
16,17,36,35

>  <DihDeg>  (1) 
-87.96450743901327

$$$$
