
     RDKit          3D

 43 46  0  0  0  0  0  0  0  0999 V2000
   33.5531   29.8791   46.4922 N   0  0  0  0  0  0  0  0  0  0  0  0
   34.7798   29.8000   45.7236 C   0  0  0  0  0  0  0  0  0  0  0  0
   35.8426   30.1035   46.7398 C   0  0  0  0  0  0  0  0  0  0  0  0
   35.0376   30.5506   48.0462 C   0  0  1  0  0  0  0  0  0  0  0  0
   33.8802   29.6680   47.9171 C   0  0  0  0  0  0  0  0  0  0  0  0
   32.2534   30.1200   46.0024 C   0  0  0  0  0  0  0  0  0  0  0  0
   32.0999   31.2662   45.2098 C   0  0  0  0  0  0  0  0  0  0  0  0
   30.8278   31.5667   44.6987 C   0  0  0  0  0  0  0  0  0  0  0  0
   29.8084   30.6908   45.0241 N   0  0  0  0  0  0  0  0  0  0  0  0
   29.9970   29.6035   45.7861 C   0  0  0  0  0  0  0  0  0  0  0  0
   31.2265   29.3135   46.2800 N   0  0  0  0  0  0  0  0  0  0  0  0
   37.4021   32.0736   48.4566 F   0  0  0  0  0  0  0  0  0  0  0  0
   36.9886   31.1439   49.3340 C   0  0  0  0  0  0  0  0  0  0  0  0
   35.9008   30.3262   49.2061 C   0  0  0  0  0  0  0  0  0  0  0  0
   35.6347   29.4131   50.2426 C   0  0  0  0  0  0  0  0  0  0  0  0
   36.4234   29.3236   51.3604 C   0  0  0  0  0  0  0  0  0  0  0  0
   37.5316   30.1704   51.4665 C   0  0  0  0  0  0  0  0  0  0  0  0
   37.8066   31.0862   50.4338 C   0  0  0  0  0  0  0  0  0  0  0  0
   34.9170   28.8032   45.2563 H   0  0  0  0  0  0  0  0  0  0  0  0
   34.7907   30.6208   44.9826 H   0  0  0  0  0  0  0  0  0  0  0  0
   36.5079   30.9475   46.4781 H   0  0  0  0  0  0  0  0  0  0  0  0
   36.3679   29.1996   47.0482 H   0  0  0  0  0  0  0  0  0  0  0  0
   34.8813   31.6164   47.8399 H   0  0  0  0  0  0  0  0  0  0  0  0
   34.1549   28.5978   47.9695 H   0  0  0  0  0  0  0  0  0  0  0  0
   33.0073   29.9144   48.5506 H   0  0  0  0  0  0  0  0  0  0  0  0
   32.8476   31.9696   44.9306 H   0  0  0  0  0  0  0  0  0  0  0  0
   30.6353   32.4313   44.0824 H   0  0  0  0  0  0  0  0  0  0  0  0
   29.1279   28.9981   45.9702 H   0  0  0  0  0  0  0  0  0  0  0  0
   34.7594   28.8036   50.0646 H   0  0  0  0  0  0  0  0  0  0  0  0
   36.1459   28.5962   52.1100 H   0  0  0  0  0  0  0  0  0  0  0  0
   38.1458   30.0907   52.3494 H   0  0  0  0  0  0  0  0  0  0  0  0
   37.2578   33.5320   48.0172 N   0  0  0  0  0  0  0  0  0  0  0  0
   38.0757   33.3162   48.8198 C   0  0  0  0  0  0  0  0  0  0  0  0
   39.0930   33.0411   49.8121 C   0  0  0  0  0  0  0  0  0  0  0  0
   38.9846   31.9199   50.6440 C   0  0  0  0  0  0  0  0  0  0  0  0
   39.9628   31.6582   51.5959 C   0  0  0  0  0  0  0  0  0  0  0  0
   39.8311   30.7754   52.2158 H   0  0  0  0  0  0  0  0  0  0  0  0
   41.0253   32.5375   51.6817 C   0  0  0  0  0  0  0  0  0  0  0  0
   41.7703   32.3097   52.4300 H   0  0  0  0  0  0  0  0  0  0  0  0
   41.1278   33.6380   50.8624 C   0  0  0  0  0  0  0  0  0  0  0  0
   40.1635   33.9131   49.9099 C   0  0  0  0  0  0  0  0  0  0  0  0
   41.9759   34.3157   50.9507 H   0  0  0  0  0  0  0  0  0  0  0  0
   40.2072   34.7698   49.2449 H   0  0  0  0  0  0  0  0  0  0  0  0
  1  5  1  0
  2  1  1  0
  2  3  1  0
  3  4  1  0
  4 14  1  0
  5  4  1  0
  6 11  1  0
  6  1  1  0
  7  6  2  0
  8  9  2  0
  8  7  1  0
  9 10  1  0
 10 11  2  0
 12 13  1  0
 13 18  2  0
 14 13  1  0
 14 15  2  0
 15 16  1  0
 16 17  2  0
 18 17  1  0
  2 19  1  0
  2 20  1  0
  3 21  1  0
  3 22  1  0
  4 23  1  6
  5 24  1  0
  5 25  1  0
  7 26  1  0
  8 27  1  0
 10 28  1  0
 15 29  1  0
 16 30  1  0
 17 31  1  0
 32 33  3  0
 33 34  1  0
 34 35  2  0
 35 36  1  0
 36 37  1  0
 36 38  2  0
 38 39  1  0
 38 40  1  0
 40 41  2  0
 41 34  1  0
 40 42  1  0
 41 43  1  0
 18 35  1  0
M  ISO  8  19  13  20  13  21  13  22  13  23  13  24  13  25  13  26  14
M  ISO  7  27  14  28  14  29  14  30  14  31  14  37  15  39  16
M  END
>  <DihAtoms>  (1) 
12,17,34,33

>  <DihDeg>  (1) 
-89.9988809499663

$$$$
