
     RDKit          3D

 23 24  0  0  0  0  0  0  0  0999 V2000
   37.3080   30.2154   51.4293 C   0  0  0  0  0  0  0  0  0  0  0  0
   38.0925   30.7486   50.3774 C   0  0  0  0  0  0  0  0  0  0  0  0
   37.7430   30.4225   49.0601 C   0  0  0  0  0  0  0  0  0  0  0  0
   36.6583   29.6051   48.8979 N   0  0  0  0  0  0  0  0  0  0  0  0
   35.9387   29.1185   49.9127 C   0  0  0  0  0  0  0  0  0  0  0  0
   36.2514   29.4151   51.1896 N   0  0  0  0  0  0  0  0  0  0  0  0
   34.8492   28.2868   49.5330 N   0  0  0  0  0  0  0  0  0  0  0  0
   37.6185   30.4969   52.4333 H   0  0  0  0  0  0  0  0  0  0  0  0
   38.9241   31.3783   50.5634 H   0  0  0  0  0  0  0  0  0  0  0  0
   33.9803   28.8139   49.7491 H   0  0  0  0  0  0  0  0  0  0  0  0
   34.7849   27.3310   49.1155 H   0  0  0  0  0  0  0  0  0  0  0  0
   38.2229   33.8959   49.7942 N   0  0  0  0  0  0  0  0  0  0  0  0
   38.4889   33.1457   48.9278 C   0  0  0  0  0  0  0  0  0  0  0  0
   38.8293   32.2372   47.8463 C   0  0  0  0  0  0  0  0  0  0  0  0
   38.4722   30.9090   47.8983 C   0  0  0  0  0  0  0  0  0  0  0  0
   38.8294   30.1092   46.8365 C   0  0  0  0  0  0  0  0  0  0  0  0
   38.5702   29.0605   46.8340 H   0  0  0  0  0  0  0  0  0  0  0  0
   39.5222   30.5739   45.7339 C   0  0  0  0  0  0  0  0  0  0  0  0
   39.7884   29.9191   44.9147 H   0  0  0  0  0  0  0  0  0  0  0  0
   39.8595   31.9054   45.7214 C   0  0  0  0  0  0  0  0  0  0  0  0
   39.5300   32.7546   46.7538 C   0  0  0  0  0  0  0  0  0  0  0  0
   40.3965   32.2906   44.8788 H   0  0  0  0  0  0  0  0  0  0  0  0
   39.7921   33.8048   46.7516 H   0  0  0  0  0  0  0  0  0  0  0  0
  2  1  2  0
  3  2  1  0
  4  3  2  0
  4  5  1  0
  5  6  2  0
  6  1  1  0
  7  5  1  0
  1  8  1  0
  2  9  1  0
  7 10  1  0
  7 11  1  0
 12 13  3  0
 13 14  1  0
 14 15  2  0
 15 16  1  0
 16 17  1  0
 16 18  2  0
 18 19  1  0
 18 20  1  0
 20 21  2  0
 21 14  1  0
 20 22  1  0
 21 23  1  0
  3 15  1  0
M  ISO  4   8  14   9  14  17  15  19  16
M  END
>  <DihAtoms>  (1) 
1,2,14,13

>  <DihDeg>  (1) 
-179.99973746800768

$$$$
