
 OpenBabel03272503233D

 31 33  0  0  1  0  0  0  0  0999 V2000
   36.5820   30.3820   48.7200 N   0  0  0  0  0  0  0  0  0  0  0  0
   36.9450   31.4670   49.5830 C   0  0  1  0  0  0  0  0  0  0  0  0
   37.3730   30.7860   50.8620 C   0  0  0  0  0  0  0  0  0  0  0  0
   37.0220   29.3090   50.6640 C   0  0  0  0  0  0  0  0  0  0  0  0
   37.3180   29.2190   49.1730 C   0  0  0  0  0  0  0  0  0  0  0  0
   35.9660   31.9700   49.8420 H   0  0  0  0  0  0  0  0  0  0  0  0
   38.4590   30.9210   50.9740 H   0  0  0  0  0  0  0  0  0  0  0  0
   36.8310   31.1450   51.7550 H   0  0  0  0  0  0  0  0  0  0  0  0
   37.7300   28.6660   51.2230 H   0  0  0  0  0  0  0  0  0  0  0  0
   35.9740   29.1130   50.8850 H   0  0  0  0  0  0  0  0  0  0  0  0
   38.3850   29.2350   48.9800 H   0  0  0  0  0  0  0  0  0  0  0  0
   36.8770   28.2950   48.7270 H   0  0  0  0  0  0  0  0  0  0  0  0
   35.6770   30.4180   47.6320 C   0  0  0  0  0  0  0  0  0  0  0  0
   34.3250   30.4380   47.9660 C   0  0  0  0  0  0  0  0  0  0  0  0
   33.3750   30.4710   46.9210 C   0  0  0  0  0  0  0  0  0  0  0  0
   33.8730   30.4820   45.6280 N   0  0  0  0  0  0  0  0  0  0  0  0
   35.1990   30.4620   45.3640 C   0  0  0  0  0  0  0  0  0  0  0  0
   36.0980   30.4310   46.3680 N   0  0  0  0  0  0  0  0  0  0  0  0
   33.9010   30.4300   48.9610 H   0  0  0  0  0  0  0  0  0  0  0  0
   32.3020   30.4880   47.0830 H   0  0  0  0  0  0  0  0  0  0  0  0
   35.4740   30.4740   44.3170 H   0  0  0  0  0  0  0  0  0  0  0  0
   38.6670   32.0770   47.9640 C   0  0  0  0  0  0  0  0  0  0  0  0
   37.8700   32.4490   49.0540 C   0  0  0  0  0  0  0  0  0  0  0  0
   38.0670   33.7270   49.4970 C   0  0  0  0  0  0  0  0  0  0  0  0
   37.4760   34.0550   50.3320 H   0  0  0  0  0  0  0  0  0  0  0  0
   38.9620   34.6140   48.9510 C   0  0  0  0  0  0  0  0  0  0  0  0
   39.0930   35.6220   49.3280 H   0  0  0  0  0  0  0  0  0  0  0  0
   39.7260   34.2140   47.8830 C   0  0  0  0  0  3  0  0  0  0  0  0
   39.5830   32.9200   47.3710 C   0  0  0  0  0  3  0  0  0  0  0  0
   38.4740   29.6830   46.9330 N   0  0  0  0  0  0  0  0  0  0  0  0
   38.5580   30.7520   47.3970 C   0  0  0  0  0  0  0  0  0  0  0  0
  1  5  1  0  0  0  0
  1  2  1  0  0  0  0
  2  6  1  1  0  0  0
  2  3  1  0  0  0  0
  3  7  1  0  0  0  0
  3  8  1  0  0  0  0
  4  3  1  0  0  0  0
  4 10  1  0  0  0  0
  4  9  1  0  0  0  0
  5  4  1  0  0  0  0
 11  5  1  0  0  0  0
 12  5  1  0  0  0  0
 13 14  1  0  0  0  0
 13  1  1  0  0  0  0
 14 19  1  0  0  0  0
 15 20  1  0  0  0  0
 15 14  2  0  0  0  0
 16 15  1  0  0  0  0
 17 16  2  0  0  0  0
 17 18  1  0  0  0  0
 18 13  2  0  0  0  0
 21 17  1  0  0  0  0
 22 23  1  0  0  0  0
 23 24  2  0  0  0  0
 23  2  1  0  0  0  0
 24 25  1  0  0  0  0
 26 27  1  0  0  0  0
 26 24  1  0  0  0  0
 28 26  2  0  0  0  0
 29 28  1  0  0  0  0
 29 22  2  0  0  0  0
 30 31  3  0  0  0  0
 31 22  1  0  0  0  0
M  END
>  <minimizedAffinity>
-3.00797296

>  <minimizedRMSD>
3.1307137

$$$$
