REMARK  Name = 
REMARK  3 active torsions:
REMARK  status: ('A' for Active; 'I' for Inactive)
REMARK    1  A    between atoms: C_2  and  C_7
REMARK    2  A    between atoms: C_11  and  C_21
REMARK    3  A    between atoms: C_19  and  C_20
REMARK                            x       y       z     vdW  Elec       q    Type
REMARK                         _______ _______ _______ _____ _____    ______ ____
ROOT
ATOM      1  C   UNL     1      37.839  31.846  48.951  0.00  0.00    +0.000 A 
ATOM      2  C   UNL     1      38.301  32.969  49.606  0.00  0.00    +0.000 A 
ATOM      3  C   UNL     1      39.203  33.877  49.040  0.00  0.00    +0.000 A 
ATOM      4  N   UNL     1      39.629  33.614  47.782  0.00  0.00    +0.000 NA
ATOM      5  C   UNL     1      39.181  32.522  47.145  0.00  0.00    +0.000 A 
ATOM      6  N   UNL     1      38.309  31.647  47.695  0.00  0.00    +0.000 NA
ATOM      7  H   UNL     1      37.965  33.192  50.621  0.00  0.00    +0.000 HD
ATOM      8  H   UNL     1      39.557  34.745  49.552  0.00  0.00    +0.000 HD
ENDROOT
BRANCH   1  10
ATOM      9  C   UNL     1      37.087  30.337  50.816  0.00  0.00    +0.000 A 
ATOM     10  C   UNL     1      36.908  30.929  49.566  0.00  0.00    +0.000 A 
ATOM     11  C   UNL     1      35.741  30.602  48.871  0.00  0.00    +0.000 A 
ATOM     12  N   UNL     1      34.856  29.749  49.422  0.00  0.00    +0.000 NA
ATOM     13  C   UNL     1      35.072  29.192  50.652  0.00  0.00    +0.000 A 
ATOM     14  N   UNL     1      36.202  29.494  51.350  0.00  0.00    +0.000 NA
ATOM     15  H   UNL     1      38.019  30.654  51.272  0.00  0.00    +0.000 HD
ATOM     16  H   UNL     1      35.493  31.003  47.885  0.00  0.00    +0.000 HD
ATOM     17  H   UNL     1      34.398  28.504  51.141  0.00  0.00    +0.000 HD
ENDBRANCH   1  10
BRANCH   5  19
ATOM     18  C   UNL     1      39.785  31.005  45.287  0.00  0.00    +0.000 A 
ATOM     19  C   UNL     1      39.658  32.270  45.799  0.00  0.00    +0.000 A 
ATOM     20  C   UNL     1      40.020  33.276  44.927  0.00  0.00    +0.000 A 
ATOM     21  H   UNL     1      39.955  34.309  45.236  0.00  0.00    +0.000 HD
ATOM     22  C   UNL     1      40.477  33.086  43.641  0.00  0.00    +0.000 A 
ATOM     23  H   UNL     1      40.754  33.881  42.977  0.00  0.00    +0.000 HD
ATOM     24  C   UNL     1      40.587  31.772  43.174  0.00  0.00    +0.000 A 
ATOM     25  C   UNL     1      40.235  30.732  44.012  0.00  0.00    +0.000 A 
BRANCH  18  27
ATOM     26  N   UNL     1      39.119  28.981  46.815  0.00  0.00    +0.000 NA
ATOM     27  C   UNL     1      39.427  29.884  46.135  0.00  0.00    +0.000 C 
ENDBRANCH  18  27
ENDBRANCH   5  19
TORSDOF 3
