
 OpenBabel03272500443D

 34 36  0  0  1  0  0  0  0  0999 V2000
   36.4850   28.7030   33.1270 C   0  0  0  0  0  0  0  0  0  0  0  0
   36.2320   29.3190   31.8920 C   0  0  0  0  0  0  0  0  0  0  0  0
   36.1210   28.5110   30.7710 C   0  0  0  0  0  0  0  0  0  0  0  0
   36.2620   27.1720   30.9280 N   0  0  0  0  0  0  0  0  0  0  0  0
   36.5030   26.6050   32.1140 C   0  0  0  0  0  0  0  0  0  0  0  0
   36.6190   27.3600   33.2330 N   0  0  0  0  0  0  0  0  0  0  0  0
   36.6480   25.1780   32.2440 N   0  0  0  0  0  0  0  0  0  0  0  0
   37.7020   24.5940   33.0520 C   0  0  1  0  0  0  0  0  0  0  0  0
   38.2380   23.2980   32.5020 C   0  0  0  0  0  0  0  0  0  0  0  0
   37.8220   23.1830   31.0440 C   0  0  0  0  0  0  0  0  0  0  0  0
   36.3180   23.0420   31.0410 C   0  0  0  0  0  0  0  0  0  0  0  0
   35.7210   24.3200   31.5520 C   0  0  0  0  0  0  0  0  0  0  0  0
   36.5710   29.3600   34.0070 H   0  0  0  0  0  0  0  0  0  0  0  0
   36.1320   30.3940   31.8500 H   0  0  0  0  0  0  0  0  0  0  0  0
   35.9250   28.9650   29.8060 H   0  0  0  0  0  0  0  0  0  0  0  0
   37.1950   24.3510   34.0330 H   0  0  0  0  0  0  0  0  0  0  0  0
   37.7790   22.4270   33.0120 H   0  0  0  0  0  0  0  0  0  0  0  0
   39.3330   23.2060   32.6200 H   0  0  0  0  0  0  0  0  0  0  0  0
   38.3510   22.4060   30.4880 H   0  0  0  0  0  0  0  0  0  0  0  0
   38.0190   24.1440   30.4830 H   0  0  0  0  0  0  0  0  0  0  0  0
   35.9000   22.6800   30.1010 H   0  0  0  0  0  0  0  0  0  0  0  0
   36.1080   22.2620   31.8270 H   0  0  0  0  0  0  0  0  0  0  0  0
   34.8060   24.1150   32.1740 H   0  0  0  0  0  0  0  0  0  0  0  0
   35.3500   24.8710   30.6630 H   0  0  0  0  0  0  0  0  0  0  0  0
   39.1340   25.8110   34.6380 C   0  0  0  0  0  0  0  0  0  0  0  0
   38.8290   25.5000   33.3130 C   0  0  0  0  0  0  0  0  0  0  0  0
   39.6300   26.0830   32.3540 C   0  0  0  0  0  0  0  0  0  0  0  0
   39.4200   25.8620   31.3260 H   0  0  0  0  0  0  0  0  0  0  0  0
   40.6810   26.9310   32.6560 C   0  0  0  0  0  0  0  0  0  0  0  0
   41.2980   27.3780   31.8850 H   0  0  0  0  0  0  0  0  0  0  0  0
   40.9260   27.1950   33.9780 C   0  0  0  0  0  3  0  0  0  0  0  0
   40.1700   26.6510   34.9880 C   0  0  0  0  0  3  0  0  0  0  0  0
   37.6920   24.7580   36.5380 N   0  0  0  0  0  0  0  0  0  0  0  0
   38.3220   25.2240   35.6910 C   0  0  0  0  0  0  0  0  0  0  0  0
  1  6  1  0  0  0  0
  1 13  1  0  0  0  0
  2  1  2  0  0  0  0
  3  4  2  0  0  0  0
  3  2  1  0  0  0  0
  4  5  1  0  0  0  0
  5  7  1  0  0  0  0
  5  6  2  0  0  0  0
  7  8  1  0  0  0  0
  8 26  1  0  0  0  0
  8 16  1  1  0  0  0
  9 18  1  0  0  0  0
  9 17  1  0  0  0  0
  9  8  1  0  0  0  0
 10  9  1  0  0  0  0
 11 10  1  0  0  0  0
 11 12  1  0  0  0  0
 11 22  1  0  0  0  0
 12 23  1  0  0  0  0
 12  7  1  0  0  0  0
 14  2  1  0  0  0  0
 15  3  1  0  0  0  0
 19 10  1  0  0  0  0
 20 10  1  0  0  0  0
 21 11  1  0  0  0  0
 24 12  1  0  0  0  0
 25 32  1  0  0  0  0
 25 34  1  0  0  0  0
 26 25  2  0  0  0  0
 27 29  2  0  0  0  0
 27 26  1  0  0  0  0
 28 27  1  0  0  0  0
 29 31  1  0  0  0  0
 30 29  1  0  0  0  0
 31 32  2  0  0  0  0
 34 33  3  0  0  0  0
M  END
>  <minimizedAffinity>
-4.8458333

$$$$

 OpenBabel03272500443D

 34 36  0  0  1  0  0  0  0  0999 V2000
   41.7990   25.7720   32.8760 C   0  0  0  0  0  0  0  0  0  0  0  0
   42.9600   26.3340   33.4270 C   0  0  0  0  0  0  0  0  0  0  0  0
   43.3490   25.9160   34.6910 C   0  0  0  0  0  0  0  0  0  0  0  0
   42.5890   24.9880   35.3230 N   0  0  0  0  0  0  0  0  0  0  0  0
   41.4870   24.4650   34.7790 C   0  0  0  0  0  0  0  0  0  0  0  0
   41.0720   24.8480   33.5470 N   0  0  0  0  0  0  0  0  0  0  0  0
   40.7030   23.4810   35.4800 N   0  0  0  0  0  0  0  0  0  0  0  0
   39.2550   23.5500   35.5140 C   0  0  1  0  0  0  0  0  0  0  0  0
   38.6550   23.0630   36.8080 C   0  0  0  0  0  0  0  0  0  0  0  0
   39.7480   23.0330   37.8640 C   0  0  0  0  0  0  0  0  0  0  0  0
   40.7260   21.9650   37.4340 C   0  0  0  0  0  0  0  0  0  0  0  0
   41.3820   22.4090   36.1600 C   0  0  0  0  0  0  0  0  0  0  0  0
   41.5030   26.1150   31.8710 H   0  0  0  0  0  0  0  0  0  0  0  0
   43.5110   27.0690   32.8590 H   0  0  0  0  0  0  0  0  0  0  0  0
   44.2430   26.3370   35.1370 H   0  0  0  0  0  0  0  0  0  0  0  0
   38.9240   22.8300   34.7070 H   0  0  0  0  0  0  0  0  0  0  0  0
   38.3010   22.0160   36.7150 H   0  0  0  0  0  0  0  0  0  0  0  0
   37.7930   23.6720   37.1330 H   0  0  0  0  0  0  0  0  0  0  0  0
   39.3780   22.9240   38.8870 H   0  0  0  0  0  0  0  0  0  0  0  0
   40.3500   23.9890   37.8610 H   0  0  0  0  0  0  0  0  0  0  0  0
   41.4110   21.6380   38.2170 H   0  0  0  0  0  0  0  0  0  0  0  0
   40.0780   21.0840   37.1630 H   0  0  0  0  0  0  0  0  0  0  0  0
   41.5600   21.5340   35.4760 H   0  0  0  0  0  0  0  0  0  0  0  0
   42.3940   22.7710   36.4370 H   0  0  0  0  0  0  0  0  0  0  0  0
   37.9290   25.0310   34.0660 C   0  0  0  0  0  0  0  0  0  0  0  0
   38.7100   24.8810   35.2110 C   0  0  0  0  0  0  0  0  0  0  0  0
   38.9020   26.0180   35.9680 C   0  0  0  0  0  0  0  0  0  0  0  0
   39.4980   25.9340   36.8550 H   0  0  0  0  0  0  0  0  0  0  0  0
   38.3660   27.2500   35.6370 C   0  0  0  0  0  0  0  0  0  0  0  0
   38.5300   28.1310   36.2470 H   0  0  0  0  0  0  0  0  0  0  0  0
   37.6080   27.3280   34.4980 C   0  0  0  0  0  3  0  0  0  0  0  0
   37.3740   26.2380   33.6950 C   0  0  0  0  0  3  0  0  0  0  0  0
   37.4930   22.9490   32.5590 N   0  0  0  0  0  0  0  0  0  0  0  0
   37.6940   23.8660   33.2320 C   0  0  0  0  0  0  0  0  0  0  0  0
  1  2  2  0  0  0  0
  1  6  1  0  0  0  0
  2  3  1  0  0  0  0
  3 15  1  0  0  0  0
  3  4  2  0  0  0  0
  5  4  1  0  0  0  0
  5  7  1  0  0  0  0
  6  5  2  0  0  0  0
  7  8  1  0  0  0  0
  7 12  1  0  0  0  0
  8 16  1  6  0  0  0
  8  9  1  0  0  0  0
  9 18  1  0  0  0  0
  9 10  1  0  0  0  0
 10 19  1  0  0  0  0
 11 10  1  0  0  0  0
 11 21  1  0  0  0  0
 12 24  1  0  0  0  0
 12 11  1  0  0  0  0
 13  1  1  0  0  0  0
 14  2  1  0  0  0  0
 17  9  1  0  0  0  0
 20 10  1  0  0  0  0
 22 11  1  0  0  0  0
 23 12  1  0  0  0  0
 25 26  1  0  0  0  0
 26  8  1  0  0  0  0
 26 27  2  0  0  0  0
 27 28  1  0  0  0  0
 29 27  1  0  0  0  0
 29 30  1  0  0  0  0
 31 29  2  0  0  0  0
 32 25  2  0  0  0  0
 32 31  1  0  0  0  0
 33 34  3  0  0  0  0
 34 25  1  0  0  0  0
M  END
>  <minimizedAffinity>
-4.81631565

$$$$

 OpenBabel03272500443D

 34 36  0  0  1  0  0  0  0  0999 V2000
   36.6910   24.1440   30.8930 C   0  0  0  0  0  0  0  0  0  0  0  0
   37.6330   23.1070   30.8160 C   0  0  0  0  0  0  0  0  0  0  0  0
   38.5180   22.9500   31.8730 C   0  0  0  0  0  0  0  0  0  0  0  0
   38.4240   23.8060   32.9210 N   0  0  0  0  0  0  0  0  0  0  0  0
   37.5190   24.7880   32.9730 C   0  0  0  0  0  0  0  0  0  0  0  0
   36.6380   24.9740   31.9610 N   0  0  0  0  0  0  0  0  0  0  0  0
   37.4490   25.6790   34.1020 N   0  0  0  0  0  0  0  0  0  0  0  0
   37.2870   27.1100   33.9290 C   0  0  1  0  0  0  0  0  0  0  0  0
   38.0040   27.9310   34.9690 C   0  0  0  0  0  0  0  0  0  0  0  0
   39.0350   27.0480   35.6530 C   0  0  0  0  0  0  0  0  0  0  0  0
   38.2590   26.0010   36.4170 C   0  0  0  0  0  0  0  0  0  0  0  0
   37.5440   25.1280   35.4290 C   0  0  0  0  0  0  0  0  0  0  0  0
   35.9970   24.2540   30.0440 H   0  0  0  0  0  0  0  0  0  0  0  0
   37.6430   22.4660   29.9460 H   0  0  0  0  0  0  0  0  0  0  0  0
   39.2540   22.1550   31.8370 H   0  0  0  0  0  0  0  0  0  0  0  0
   36.1790   27.2830   34.0790 H   0  0  0  0  0  0  0  0  0  0  0  0
   37.3100   28.2550   35.7700 H   0  0  0  0  0  0  0  0  0  0  0  0
   38.4650   28.8420   34.5480 H   0  0  0  0  0  0  0  0  0  0  0  0
   39.7660   27.5970   36.2520 H   0  0  0  0  0  0  0  0  0  0  0  0
   39.6400   26.4620   34.9000 H   0  0  0  0  0  0  0  0  0  0  0  0
   38.8400   25.4680   37.1700 H   0  0  0  0  0  0  0  0  0  0  0  0
   37.4590   26.5830   36.9570 H   0  0  0  0  0  0  0  0  0  0  0  0
   36.5350   24.8210   35.8210 H   0  0  0  0  0  0  0  0  0  0  0  0
   38.1270   24.1860   35.3630 H   0  0  0  0  0  0  0  0  0  0  0  0
   36.7430   28.3700   31.8880 C   0  0  0  0  0  0  0  0  0  0  0  0
   37.6650   27.6000   32.5950 C   0  0  0  0  0  0  0  0  0  0  0  0
   38.8690   27.3650   31.9660 C   0  0  0  0  0  0  0  0  0  0  0  0
   39.5990   26.7760   32.4860 H   0  0  0  0  0  0  0  0  0  0  0  0
   39.1750   27.8500   30.7060 C   0  0  0  0  0  0  0  0  0  0  0  0
   40.1280   27.6530   30.2310 H   0  0  0  0  0  0  0  0  0  0  0  0
   38.2230   28.6000   30.0660 C   0  0  0  0  0  3  0  0  0  0  0  0
   37.0020   28.8750   30.6310 C   0  0  0  0  0  3  0  0  0  0  0  0
   34.4340   28.8860   32.9840 N   0  0  0  0  0  0  0  0  0  0  0  0
   35.4570   28.6490   32.5040 C   0  0  0  0  0  0  0  0  0  0  0  0
  1  6  1  0  0  0  0
  2  1  2  0  0  0  0
  2  3  1  0  0  0  0
  3  4  2  0  0  0  0
  4  5  1  0  0  0  0
  5  7  1  0  0  0  0
  6  5  2  0  0  0  0
  7 12  1  0  0  0  0
  8 16  1  1  0  0  0
  8  7  1  0  0  0  0
  8  9  1  0  0  0  0
  9 10  1  0  0  0  0
  9 17  1  0  0  0  0
 10 19  1  0  0  0  0
 10 11  1  0  0  0  0
 11 22  1  0  0  0  0
 11 21  1  0  0  0  0
 12 23  1  0  0  0  0
 12 11  1  0  0  0  0
 13  1  1  0  0  0  0
 14  2  1  0  0  0  0
 15  3  1  0  0  0  0
 18  9  1  0  0  0  0
 20 10  1  0  0  0  0
 24 12  1  0  0  0  0
 25 34  1  0  0  0  0
 25 26  1  0  0  0  0
 26  8  1  0  0  0  0
 27 28  1  0  0  0  0
 27 26  2  0  0  0  0
 29 27  1  0  0  0  0
 30 29  1  0  0  0  0
 31 32  1  0  0  0  0
 31 29  2  0  0  0  0
 32 25  2  0  0  0  0
 34 33  3  0  0  0  0
M  END
>  <minimizedAffinity>
-4.78986311

$$$$

 OpenBabel03272500443D

 34 36  0  0  1  0  0  0  0  0999 V2000
   37.8870   21.5280   33.5260 C   0  0  0  0  0  0  0  0  0  0  0  0
   36.7090   21.8160   32.8200 C   0  0  0  0  0  0  0  0  0  0  0  0
   36.5860   23.0710   32.2420 C   0  0  0  0  0  0  0  0  0  0  0  0
   37.6090   23.9490   32.3920 N   0  0  0  0  0  0  0  0  0  0  0  0
   38.7220   23.6540   33.0690 C   0  0  0  0  0  0  0  0  0  0  0  0
   38.8800   22.4390   33.6480 N   0  0  0  0  0  0  0  0  0  0  0  0
   39.7880   24.6120   33.2070 N   0  0  0  0  0  0  0  0  0  0  0  0
   40.4570   24.8230   34.4770 C   0  0  1  0  0  0  0  0  0  0  0  0
   40.8860   26.2490   34.7060 C   0  0  0  0  0  0  0  0  0  0  0  0
   40.1280   27.1420   33.7370 C   0  0  0  0  0  0  0  0  0  0  0  0
   40.6170   26.7800   32.3540 C   0  0  0  0  0  0  0  0  0  0  0  0
   40.1910   25.3740   32.0540 C   0  0  0  0  0  0  0  0  0  0  0  0
   37.9670   20.5260   33.9790 H   0  0  0  0  0  0  0  0  0  0  0  0
   35.9400   21.0610   32.7460 H   0  0  0  0  0  0  0  0  0  0  0  0
   35.6860   23.3160   31.6910 H   0  0  0  0  0  0  0  0  0  0  0  0
   41.4000   24.2040   34.3990 H   0  0  0  0  0  0  0  0  0  0  0  0
   41.9590   26.3870   34.4620 H   0  0  0  0  0  0  0  0  0  0  0  0
   40.7450   26.5730   35.7520 H   0  0  0  0  0  0  0  0  0  0  0  0
   40.1850   28.2070   33.9740 H   0  0  0  0  0  0  0  0  0  0  0  0
   39.0260   26.8940   33.7240 H   0  0  0  0  0  0  0  0  0  0  0  0
   40.3730   27.5120   31.5830 H   0  0  0  0  0  0  0  0  0  0  0  0
   41.7400   26.7540   32.4510 H   0  0  0  0  0  0  0  0  0  0  0  0
   40.9790   24.8350   31.4580 H   0  0  0  0  0  0  0  0  0  0  0  0
   39.3160   25.4490   31.3750 H   0  0  0  0  0  0  0  0  0  0  0  0
   40.2300   23.3590   36.4390 C   0  0  0  0  0  0  0  0  0  0  0  0
   39.6880   24.3670   35.6440 C   0  0  0  0  0  0  0  0  0  0  0  0
   38.4570   24.8520   36.0330 C   0  0  0  0  0  0  0  0  0  0  0  0
   38.0150   25.6280   35.4400 H   0  0  0  0  0  0  0  0  0  0  0  0
   37.7740   24.3850   37.1430 C   0  0  0  0  0  0  0  0  0  0  0  0
   36.8070   24.7820   37.4310 H   0  0  0  0  0  0  0  0  0  0  0  0
   38.3630   23.3930   37.8810 C   0  0  0  0  0  3  0  0  0  0  0  0
   39.5870   22.8620   37.5540 C   0  0  0  0  0  3  0  0  0  0  0  0
   42.5540   22.3640   35.8020 N   0  0  0  0  0  0  0  0  0  0  0  0
   41.5250   22.8110   36.0750 C   0  0  0  0  0  0  0  0  0  0  0  0
  1  6  1  0  0  0  0
  1 13  1  0  0  0  0
  2  1  2  0  0  0  0
  3  4  2  0  0  0  0
  3  2  1  0  0  0  0
  4  5  1  0  0  0  0
  5  7  1  0  0  0  0
  5  6  2  0  0  0  0
  7  8  1  0  0  0  0
  8 16  1  6  0  0  0
  8  9  1  0  0  0  0
  8 26  1  0  0  0  0
  9 18  1  0  0  0  0
 10 19  1  0  0  0  0
 10  9  1  0  0  0  0
 11 22  1  0  0  0  0
 11 10  1  0  0  0  0
 12 11  1  0  0  0  0
 12  7  1  0  0  0  0
 14  2  1  0  0  0  0
 15  3  1  0  0  0  0
 17  9  1  0  0  0  0
 20 10  1  0  0  0  0
 21 11  1  0  0  0  0
 23 12  1  0  0  0  0
 24 12  1  0  0  0  0
 25 32  1  0  0  0  0
 26 27  1  0  0  0  0
 26 25  2  0  0  0  0
 27 29  2  0  0  0  0
 28 27  1  0  0  0  0
 29 30  1  0  0  0  0
 29 31  1  0  0  0  0
 32 31  2  0  0  0  0
 33 34  3  0  0  0  0
 34 25  1  0  0  0  0
M  END
>  <minimizedAffinity>
-4.75145721

$$$$

 OpenBabel03272500443D

 34 36  0  0  1  0  0  0  0  0999 V2000
   38.7560   22.3910   32.0390 C   0  0  0  0  0  0  0  0  0  0  0  0
   37.4960   21.9130   31.6480 C   0  0  0  0  0  0  0  0  0  0  0  0
   36.4090   22.7650   31.7690 C   0  0  0  0  0  0  0  0  0  0  0  0
   36.6220   24.0120   32.2570 N   0  0  0  0  0  0  0  0  0  0  0  0
   37.8300   24.4480   32.6240 C   0  0  0  0  0  0  0  0  0  0  0  0
   38.9170   23.6450   32.5220 N   0  0  0  0  0  0  0  0  0  0  0  0
   38.0190   25.7780   33.1400 N   0  0  0  0  0  0  0  0  0  0  0  0
   38.8520   26.0310   34.3000 C   0  0  1  0  0  0  0  0  0  0  0  0
   38.3560   27.1590   35.1670 C   0  0  0  0  0  0  0  0  0  0  0  0
   36.9040   27.4370   34.8140 C   0  0  0  0  0  0  0  0  0  0  0  0
   36.9050   27.9710   33.4010 C   0  0  0  0  0  0  0  0  0  0  0  0
   37.3610   26.8780   32.4820 C   0  0  0  0  0  0  0  0  0  0  0  0
   39.6080   21.7010   31.9370 H   0  0  0  0  0  0  0  0  0  0  0  0
   37.4100   20.9050   31.2680 H   0  0  0  0  0  0  0  0  0  0  0  0
   35.4260   22.4170   31.4720 H   0  0  0  0  0  0  0  0  0  0  0  0
   39.8410   26.3610   33.8640 H   0  0  0  0  0  0  0  0  0  0  0  0
   38.9020   28.1000   34.9490 H   0  0  0  0  0  0  0  0  0  0  0  0
   38.4800   26.9540   36.2460 H   0  0  0  0  0  0  0  0  0  0  0  0
   36.3820   28.0680   35.5380 H   0  0  0  0  0  0  0  0  0  0  0  0
   36.3040   26.4810   34.7580 H   0  0  0  0  0  0  0  0  0  0  0  0
   35.9800   28.4680   33.1060 H   0  0  0  0  0  0  0  0  0  0  0  0
   37.7210   28.7480   33.3960 H   0  0  0  0  0  0  0  0  0  0  0  0
   37.9890   27.2940   31.6460 H   0  0  0  0  0  0  0  0  0  0  0  0
   36.4490   26.4810   31.9890 H   0  0  0  0  0  0  0  0  0  0  0  0
   40.3850   24.3890   35.3010 C   0  0  0  0  0  0  0  0  0  0  0  0
   39.0780   24.8490   35.1450 C   0  0  0  0  0  0  0  0  0  0  0  0
   38.1010   24.1390   35.8090 C   0  0  0  0  0  0  0  0  0  0  0  0
   37.0860   24.4690   35.7080 H   0  0  0  0  0  0  0  0  0  0  0  0
   38.3690   23.0300   36.5930 C   0  0  0  0  0  0  0  0  0  0  0  0
   37.5840   22.4870   37.1070 H   0  0  0  0  0  0  0  0  0  0  0  0
   39.6750   22.6310   36.7050 C   0  0  0  0  0  3  0  0  0  0  0  0
   40.7010   23.2890   36.0710 C   0  0  0  0  0  3  0  0  0  0  0  0
   42.3170   25.6560   34.0950 N   0  0  0  0  0  0  0  0  0  0  0  0
   41.4550   25.1000   34.6230 C   0  0  0  0  0  0  0  0  0  0  0  0
  1  6  1  0  0  0  0
  2  3  1  0  0  0  0
  2  1  2  0  0  0  0
  3  4  2  0  0  0  0
  4  5  1  0  0  0  0
  5  7  1  0  0  0  0
  6  5  2  0  0  0  0
  7  8  1  0  0  0  0
  8 16  1  6  0  0  0
  8 26  1  0  0  0  0
  8  9  1  0  0  0  0
  9 18  1  0  0  0  0
 10  9  1  0  0  0  0
 10 19  1  0  0  0  0
 11 10  1  0  0  0  0
 12  7  1  0  0  0  0
 12 11  1  0  0  0  0
 13  1  1  0  0  0  0
 14  2  1  0  0  0  0
 15  3  1  0  0  0  0
 17  9  1  0  0  0  0
 20 10  1  0  0  0  0
 21 11  1  0  0  0  0
 22 11  1  0  0  0  0
 23 12  1  0  0  0  0
 24 12  1  0  0  0  0
 25 32  1  0  0  0  0
 26 25  2  0  0  0  0
 26 27  1  0  0  0  0
 27 29  2  0  0  0  0
 28 27  1  0  0  0  0
 29 31  1  0  0  0  0
 29 30  1  0  0  0  0
 32 31  2  0  0  0  0
 33 34  3  0  0  0  0
 34 25  1  0  0  0  0
M  END
>  <minimizedAffinity>
-4.68665218

$$$$

 OpenBabel03272500443D

 34 36  0  0  1  0  0  0  0  0999 V2000
   37.0020   24.3830   32.2780 C   0  0  0  0  0  0  0  0  0  0  0  0
   37.4110   24.5710   30.9490 C   0  0  0  0  0  0  0  0  0  0  0  0
   38.6690   24.1160   30.5830 C   0  0  0  0  0  0  0  0  0  0  0  0
   39.4340   23.5160   31.5280 N   0  0  0  0  0  0  0  0  0  0  0  0
   39.0260   23.3470   32.7890 C   0  0  0  0  0  0  0  0  0  0  0  0
   37.8040   23.7780   33.1860 N   0  0  0  0  0  0  0  0  0  0  0  0
   39.8660   22.7060   33.7660 N   0  0  0  0  0  0  0  0  0  0  0  0
   40.0110   23.2380   35.1080 C   0  0  1  0  0  0  0  0  0  0  0  0
   41.3840   23.0380   35.6930 C   0  0  0  0  0  0  0  0  0  0  0  0
   42.3480   22.7130   34.5640 C   0  0  0  0  0  0  0  0  0  0  0  0
   41.9300   21.3670   34.0220 C   0  0  0  0  0  0  0  0  0  0  0  0
   40.5760   21.5090   33.3940 C   0  0  0  0  0  0  0  0  0  0  0  0
   36.0000   24.7500   32.5520 H   0  0  0  0  0  0  0  0  0  0  0  0
   36.7410   25.0590   30.2560 H   0  0  0  0  0  0  0  0  0  0  0  0
   39.0060   24.2500   29.5620 H   0  0  0  0  0  0  0  0  0  0  0  0
   39.2950   22.6210   35.7290 H   0  0  0  0  0  0  0  0  0  0  0  0
   41.4070   22.1570   36.3670 H   0  0  0  0  0  0  0  0  0  0  0  0
   41.7270   23.9070   36.2830 H   0  0  0  0  0  0  0  0  0  0  0  0
   43.4030   22.7830   34.8420 H   0  0  0  0  0  0  0  0  0  0  0  0
   42.2180   23.4240   33.6950 H   0  0  0  0  0  0  0  0  0  0  0  0
   42.6800   20.8790   33.3980 H   0  0  0  0  0  0  0  0  0  0  0  0
   41.7860   20.7280   34.9390 H   0  0  0  0  0  0  0  0  0  0  0  0
   39.9530   20.5890   33.5710 H   0  0  0  0  0  0  0  0  0  0  0  0
   40.7400   21.5410   32.2960 H   0  0  0  0  0  0  0  0  0  0  0  0
   38.5790   24.9920   36.0670 C   0  0  0  0  0  0  0  0  0  0  0  0
   39.6450   24.6560   35.2340 C   0  0  0  0  0  0  0  0  0  0  0  0
   40.2680   25.7060   34.5930 C   0  0  0  0  0  0  0  0  0  0  0  0
   41.0920   25.4780   33.9450 H   0  0  0  0  0  0  0  0  0  0  0  0
   39.8820   27.0260   34.7460 C   0  0  0  0  0  0  0  0  0  0  0  0
   40.3870   27.8360   34.2330 H   0  0  0  0  0  0  0  0  0  0  0  0
   38.8260   27.2870   35.5800 C   0  0  0  0  0  3  0  0  0  0  0  0
   38.1570   26.2920   36.2510 C   0  0  0  0  0  3  0  0  0  0  0  0
   37.3480   23.0760   37.3360 N   0  0  0  0  0  0  0  0  0  0  0  0
   37.8850   23.9240   36.7670 C   0  0  0  0  0  0  0  0  0  0  0  0
  1 13  1  0  0  0  0
  1  6  1  0  0  0  0
  2  1  2  0  0  0  0
  3  2  1  0  0  0  0
  3  4  2  0  0  0  0
  4  5  1  0  0  0  0
  5  6  2  0  0  0  0
  5  7  1  0  0  0  0
  7  8  1  0  0  0  0
  8 26  1  0  0  0  0
  8  9  1  0  0  0  0
  8 16  1  1  0  0  0
  9 18  1  0  0  0  0
  9 17  1  0  0  0  0
 10 19  1  0  0  0  0
 10  9  1  0  0  0  0
 11 10  1  0  0  0  0
 11 22  1  0  0  0  0
 12 23  1  0  0  0  0
 12  7  1  0  0  0  0
 12 11  1  0  0  0  0
 14  2  1  0  0  0  0
 15  3  1  0  0  0  0
 20 10  1  0  0  0  0
 21 11  1  0  0  0  0
 24 12  1  0  0  0  0
 25 32  1  0  0  0  0
 25 34  1  0  0  0  0
 26 25  2  0  0  0  0
 27 29  2  0  0  0  0
 27 26  1  0  0  0  0
 28 27  1  0  0  0  0
 29 31  1  0  0  0  0
 30 29  1  0  0  0  0
 31 32  2  0  0  0  0
 34 33  3  0  0  0  0
M  END
>  <minimizedAffinity>
-4.68574095

$$$$

 OpenBabel03272500443D

 34 36  0  0  1  0  0  0  0  0999 V2000
   38.7370   25.7890   34.2360 C   0  0  0  0  0  0  0  0  0  0  0  0
   39.4390   26.9910   34.4130 C   0  0  0  0  0  0  0  0  0  0  0  0
   40.7920   26.9190   34.7080 C   0  0  0  0  0  0  0  0  0  0  0  0
   41.3620   25.6920   34.8090 N   0  0  0  0  0  0  0  0  0  0  0  0
   40.6750   24.5600   34.6380 C   0  0  0  0  0  0  0  0  0  0  0  0
   39.3510   24.5880   34.3490 N   0  0  0  0  0  0  0  0  0  0  0  0
   41.3130   23.2750   34.7530 N   0  0  0  0  0  0  0  0  0  0  0  0
   40.6900   22.1810   35.4750 C   0  0  1  0  0  0  0  0  0  0  0  0
   41.6720   21.2900   36.1900 C   0  0  0  0  0  0  0  0  0  0  0  0
   42.9980   22.0260   36.3020 C   0  0  0  0  0  0  0  0  0  0  0  0
   43.5230   22.1730   34.8940 C   0  0  0  0  0  0  0  0  0  0  0  0
   42.5990   23.0790   34.1360 C   0  0  0  0  0  0  0  0  0  0  0  0
   37.6620   25.8650   34.0020 H   0  0  0  0  0  0  0  0  0  0  0  0
   38.9110   27.9290   34.3150 H   0  0  0  0  0  0  0  0  0  0  0  0
   41.3550   27.8340   34.8480 H   0  0  0  0  0  0  0  0  0  0  0  0
   40.2060   21.5560   34.6670 H   0  0  0  0  0  0  0  0  0  0  0  0
   41.8870   20.3770   35.5990 H   0  0  0  0  0  0  0  0  0  0  0  0
   41.3060   20.9600   37.1790 H   0  0  0  0  0  0  0  0  0  0  0  0
   43.7020   21.5720   37.0040 H   0  0  0  0  0  0  0  0  0  0  0  0
   42.8510   23.0860   36.6640 H   0  0  0  0  0  0  0  0  0  0  0  0
   44.5800   22.4320   34.8310 H   0  0  0  0  0  0  0  0  0  0  0  0
   43.3990   21.1480   34.4400 H   0  0  0  0  0  0  0  0  0  0  0  0
   42.4970   22.7450   33.0670 H   0  0  0  0  0  0  0  0  0  0  0  0
   43.1020   24.0670   34.0840 H   0  0  0  0  0  0  0  0  0  0  0  0
   38.3170   22.4490   36.0630 C   0  0  0  0  0  0  0  0  0  0  0  0
   39.6540   22.6040   36.4280 C   0  0  0  0  0  0  0  0  0  0  0  0
   39.8840   23.1510   37.6730 C   0  0  0  0  0  0  0  0  0  0  0  0
   40.9020   23.2830   37.9820 H   0  0  0  0  0  0  0  0  0  0  0  0
   38.8690   23.5340   38.5330 C   0  0  0  0  0  0  0  0  0  0  0  0
   39.0730   23.9620   39.5080 H   0  0  0  0  0  0  0  0  0  0  0  0
   37.5780   23.3540   38.1130 C   0  0  0  0  0  3  0  0  0  0  0  0
   37.2730   22.8160   36.8860 C   0  0  0  0  0  3  0  0  0  0  0  0
   37.7970   21.4210   33.7250 N   0  0  0  0  0  0  0  0  0  0  0  0
   38.0170   21.8780   34.7620 C   0  0  0  0  0  0  0  0  0  0  0  0
  1  6  2  0  0  0  0
  1  2  1  0  0  0  0
  2  3  2  0  0  0  0
  3  4  1  0  0  0  0
  3 15  1  0  0  0  0
  5  7  1  0  0  0  0
  5  4  2  0  0  0  0
  6  5  1  0  0  0  0
  7  8  1  0  0  0  0
  8 16  1  6  0  0  0
  8  9  1  0  0  0  0
  8 26  1  0  0  0  0
  9 10  1  0  0  0  0
  9 18  1  0  0  0  0
 10 20  1  0  0  0  0
 10 19  1  0  0  0  0
 11 10  1  0  0  0  0
 12  7  1  0  0  0  0
 12 11  1  0  0  0  0
 13  1  1  0  0  0  0
 14  2  1  0  0  0  0
 17  9  1  0  0  0  0
 21 11  1  0  0  0  0
 22 11  1  0  0  0  0
 23 12  1  0  0  0  0
 24 12  1  0  0  0  0
 25 26  2  0  0  0  0
 25 32  1  0  0  0  0
 26 27  1  0  0  0  0
 27 28  1  0  0  0  0
 27 29  2  0  0  0  0
 29 30  1  0  0  0  0
 31 29  1  0  0  0  0
 32 31  2  0  0  0  0
 33 34  3  0  0  0  0
 34 25  1  0  0  0  0
M  END
>  <minimizedAffinity>
-4.6843996

$$$$

 OpenBabel03272500443D

 34 36  0  0  1  0  0  0  0  0999 V2000
   42.4690   22.9360   34.0570 C   0  0  0  0  0  0  0  0  0  0  0  0
   43.6040   23.1290   34.8600 C   0  0  0  0  0  0  0  0  0  0  0  0
   43.4120   23.3780   36.2100 C   0  0  0  0  0  0  0  0  0  0  0  0
   42.1410   23.4210   36.6810 N   0  0  0  0  0  0  0  0  0  0  0  0
   41.0740   23.2340   35.8990 C   0  0  0  0  0  0  0  0  0  0  0  0
   41.2200   22.9890   34.5740 N   0  0  0  0  0  0  0  0  0  0  0  0
   39.7380   23.2880   36.4320 N   0  0  0  0  0  0  0  0  0  0  0  0
   38.6740   23.9930   35.7430 C   0  0  1  0  0  0  0  0  0  0  0  0
   37.6820   24.6470   36.6700 C   0  0  0  0  0  0  0  0  0  0  0  0
   38.3030   24.7400   38.0540 C   0  0  0  0  0  0  0  0  0  0  0  0
   38.4570   23.3210   38.5480 C   0  0  0  0  0  0  0  0  0  0  0  0
   39.4610   22.6240   37.6800 C   0  0  0  0  0  0  0  0  0  0  0  0
   42.6400   22.7390   32.9860 H   0  0  0  0  0  0  0  0  0  0  0  0
   44.5840   23.0780   34.4080 H   0  0  0  0  0  0  0  0  0  0  0  0
   44.2730   23.5300   36.8500 H   0  0  0  0  0  0  0  0  0  0  0  0
   38.1190   23.1800   35.1870 H   0  0  0  0  0  0  0  0  0  0  0  0
   36.7760   24.0190   36.7920 H   0  0  0  0  0  0  0  0  0  0  0  0
   37.3470   25.6350   36.3070 H   0  0  0  0  0  0  0  0  0  0  0  0
   37.7700   25.4040   38.7390 H   0  0  0  0  0  0  0  0  0  0  0  0
   39.3590   25.1410   38.0050 H   0  0  0  0  0  0  0  0  0  0  0  0
   38.6320   23.2330   39.6210 H   0  0  0  0  0  0  0  0  0  0  0  0
   37.4630   22.8380   38.3280 H   0  0  0  0  0  0  0  0  0  0  0  0
   39.1740   21.5480   37.5200 H   0  0  0  0  0  0  0  0  0  0  0  0
   40.4070   22.5870   38.2600 H   0  0  0  0  0  0  0  0  0  0  0  0
   38.7780   24.8410   33.4370 C   0  0  0  0  0  0  0  0  0  0  0  0
   39.1460   24.9920   34.7740 C   0  0  0  0  0  0  0  0  0  0  0  0
   39.9330   26.0850   35.0670 C   0  0  0  0  0  0  0  0  0  0  0  0
   40.2320   26.2280   36.0870 H   0  0  0  0  0  0  0  0  0  0  0  0
   40.3510   26.9970   34.1130 C   0  0  0  0  0  0  0  0  0  0  0  0
   40.9700   27.8500   34.3660 H   0  0  0  0  0  0  0  0  0  0  0  0
   39.9540   26.7900   32.8180 C   0  0  0  0  0  3  0  0  0  0  0  0
   39.1700   25.7230   32.4520 C   0  0  0  0  0  3  0  0  0  0  0  0
   37.3010   22.8000   32.7670 N   0  0  0  0  0  0  0  0  0  0  0  0
   37.9480   23.7060   33.0720 C   0  0  0  0  0  0  0  0  0  0  0  0
  1  6  2  0  0  0  0
  1  2  1  0  0  0  0
  2  3  2  0  0  0  0
  3  4  1  0  0  0  0
  3 15  1  0  0  0  0
  5  7  1  0  0  0  0
  5  4  2  0  0  0  0
  6  5  1  0  0  0  0
  7 12  1  0  0  0  0
  8 16  1  6  0  0  0
  8  7  1  0  0  0  0
  8  9  1  0  0  0  0
  9 17  1  0  0  0  0
  9 10  1  0  0  0  0
 10 11  1  0  0  0  0
 10 19  1  0  0  0  0
 11 21  1  0  0  0  0
 12 24  1  0  0  0  0
 12 11  1  0  0  0  0
 13  1  1  0  0  0  0
 14  2  1  0  0  0  0
 18  9  1  0  0  0  0
 20 10  1  0  0  0  0
 22 11  1  0  0  0  0
 23 12  1  0  0  0  0
 25 26  1  0  0  0  0
 26 27  2  0  0  0  0
 26  8  1  0  0  0  0
 27 28  1  0  0  0  0
 29 30  1  0  0  0  0
 29 27  1  0  0  0  0
 31 29  2  0  0  0  0
 32 31  1  0  0  0  0
 32 25  2  0  0  0  0
 33 34  3  0  0  0  0
 34 25  1  0  0  0  0
M  END
>  <minimizedAffinity>
-4.61673212

$$$$

 OpenBabel03272500443D

 34 36  0  0  1  0  0  0  0  0999 V2000
   39.5420   25.3900   29.4550 C   0  0  0  0  0  0  0  0  0  0  0  0
   39.9960   26.6210   28.9570 C   0  0  0  0  0  0  0  0  0  0  0  0
   40.2370   27.6420   29.8640 C   0  0  0  0  0  0  0  0  0  0  0  0
   40.0220   27.3960   31.1800 N   0  0  0  0  0  0  0  0  0  0  0  0
   39.5890   26.2160   31.6330 C   0  0  0  0  0  0  0  0  0  0  0  0
   39.3420   25.1940   30.7790 N   0  0  0  0  0  0  0  0  0  0  0  0
   39.3710   25.9900   33.0380 N   0  0  0  0  0  0  0  0  0  0  0  0
   38.1890   25.3020   33.5200 C   0  0  1  0  0  0  0  0  0  0  0  0
   37.6880   25.8150   34.8450 C   0  0  0  0  0  0  0  0  0  0  0  0
   38.3060   27.1800   35.1000 C   0  0  0  0  0  0  0  0  0  0  0  0
   39.7880   26.9480   35.2800 C   0  0  0  0  0  0  0  0  0  0  0  0
   40.3540   26.4630   33.9790 C   0  0  0  0  0  0  0  0  0  0  0  0
   39.3550   24.5900   28.7210 H   0  0  0  0  0  0  0  0  0  0  0  0
   40.1430   26.7380   27.8930 H   0  0  0  0  0  0  0  0  0  0  0  0
   40.5890   28.6020   29.5030 H   0  0  0  0  0  0  0  0  0  0  0  0
   38.5370   24.2390   33.6900 H   0  0  0  0  0  0  0  0  0  0  0  0
   38.0330   25.1710   35.6800 H   0  0  0  0  0  0  0  0  0  0  0  0
   36.5850   25.8530   34.8980 H   0  0  0  0  0  0  0  0  0  0  0  0
   37.8330   27.7410   35.9090 H   0  0  0  0  0  0  0  0  0  0  0  0
   38.2310   27.8430   34.1880 H   0  0  0  0  0  0  0  0  0  0  0  0
   40.3240   27.7820   35.7350 H   0  0  0  0  0  0  0  0  0  0  0  0
   39.8510   26.0770   35.9940 H   0  0  0  0  0  0  0  0  0  0  0  0
   41.1600   25.6980   34.1520 H   0  0  0  0  0  0  0  0  0  0  0  0
   40.8720   27.3300   33.5190 H   0  0  0  0  0  0  0  0  0  0  0  0
   36.6060   24.0530   32.1130 C   0  0  0  0  0  0  0  0  0  0  0  0
   37.0720   25.2860   32.5660 C   0  0  0  0  0  0  0  0  0  0  0  0
   36.4280   26.3990   32.0650 C   0  0  0  0  0  0  0  0  0  0  0  0
   36.7640   27.3620   32.3960 H   0  0  0  0  0  0  0  0  0  0  0  0
   35.3790   26.3280   31.1650 C   0  0  0  0  0  0  0  0  0  0  0  0
   34.8870   27.2160   30.7850 H   0  0  0  0  0  0  0  0  0  0  0  0
   34.9710   25.0840   30.7610 C   0  0  0  0  0  3  0  0  0  0  0  0
   35.5650   23.9320   31.2160 C   0  0  0  0  0  3  0  0  0  0  0  0
   37.7730   21.8920   32.9880 N   0  0  0  0  0  0  0  0  0  0  0  0
   37.2480   22.8470   32.6070 C   0  0  0  0  0  0  0  0  0  0  0  0
  1  6  1  0  0  0  0
  2  1  2  0  0  0  0
  2  3  1  0  0  0  0
  3  4  2  0  0  0  0
  4  5  1  0  0  0  0
  5  7  1  0  0  0  0
  6  5  2  0  0  0  0
  7  8  1  0  0  0  0
  7 12  1  0  0  0  0
  8 16  1  1  0  0  0
  8  9  1  0  0  0  0
  9 18  1  0  0  0  0
  9 10  1  0  0  0  0
  9 17  1  0  0  0  0
 10 11  1  0  0  0  0
 10 19  1  0  0  0  0
 11 21  1  0  0  0  0
 11 22  1  0  0  0  0
 12 23  1  0  0  0  0
 12 11  1  0  0  0  0
 13  1  1  0  0  0  0
 14  2  1  0  0  0  0
 15  3  1  0  0  0  0
 20 10  1  0  0  0  0
 24 12  1  0  0  0  0
 25 26  1  0  0  0  0
 25 34  1  0  0  0  0
 26  8  1  0  0  0  0
 27 28  1  0  0  0  0
 27 26  2  0  0  0  0
 29 27  1  0  0  0  0
 30 29  1  0  0  0  0
 31 29  2  0  0  0  0
 31 32  1  0  0  0  0
 32 25  2  0  0  0  0
 34 33  3  0  0  0  0
M  END
>  <minimizedAffinity>
-4.60925198

$$$$
