
 OpenBabel03272507403D

 35 37  0  0  0  0  0  0  0  0999 V2000
   36.1690   29.2390   32.9450 C   0  0  0  0  0  0  0  0  0  0  0  0
   36.6550   28.7770   31.7490 C   0  0  0  0  0  0  0  0  0  0  0  0
   36.5210   29.5330   30.5960 C   0  0  0  0  0  0  0  0  0  0  0  0
   35.8880   30.7680   30.6520 C   0  0  0  0  0  0  0  0  0  0  0  0
   35.3960   31.2310   31.8680 C   0  0  0  0  0  0  0  0  0  0  0  0
   35.5430   30.4550   33.0080 C   0  0  0  0  0  0  0  0  0  0  0  0
   36.8800   29.2310   29.6230 H   0  0  0  0  0  0  0  0  0  0  0  0
   35.7720   31.3770   29.7570 H   0  0  0  0  0  0  0  0  0  0  0  0
   34.8930   32.1890   31.9660 H   0  0  0  0  0  0  0  0  0  0  0  0
   33.7570   30.5340   34.6810 C   0  0  0  0  0  0  0  0  0  0  0  0
   35.0540   30.8690   34.3290 C   0  0  0  0  0  0  0  0  0  0  0  0
   35.9170   31.5750   35.1590 C   0  0  0  0  0  0  0  0  0  0  0  0
   36.9210   31.7890   34.7860 H   0  0  0  0  0  0  0  0  0  0  0  0
   35.4370   31.9530   36.3940 C   0  0  0  0  0  0  0  0  0  0  0  0
   36.0880   32.4960   37.0400 H   0  0  0  0  0  0  0  0  0  0  0  0
   34.1440   31.6240   36.7570 C   0  0  0  0  0  3  0  0  0  0  0  0
   33.2860   30.9190   35.9230 C   0  0  0  0  0  3  0  0  0  0  0  0
   32.2710   29.2100   32.9940 N   0  0  0  0  0  0  0  0  0  0  0  0
   32.9380   29.7930   33.7390 C   0  0  0  0  0  0  0  0  0  0  0  0
   36.5140   27.7040   34.9880 N   0  0  0  0  0  0  0  0  0  0  0  0
   36.3520   28.3900   34.0860 C   0  0  0  0  0  0  0  0  0  0  0  0
   37.3020   27.5800   31.5400 O   0  0  0  0  0  0  0  0  0  0  0  0
   36.6830   26.3760   31.4060 C   0  0  0  0  0  0  0  0  0  0  0  0
   37.5000   25.3240   31.8120 C   0  0  0  0  0  0  0  0  0  0  0  0
   37.0580   24.0190   31.7540 C   0  0  0  0  0  0  0  0  0  0  0  0
   35.7800   23.8150   31.2800 N   0  0  0  0  0  0  0  0  0  0  0  0
   34.9990   24.8480   30.8900 C   0  0  0  0  0  0  0  0  0  0  0  0
   35.4470   26.0880   30.9550 N   0  0  0  0  0  0  0  0  0  0  0  0
   37.5990   23.1520   32.0350 H   0  0  0  0  0  0  0  0  0  0  0  0
   33.9980   24.7800   30.5140 H   0  0  0  0  0  0  0  0  0  0  0  0
   39.0390   25.1010   33.7000 C   0  0  0  0  0  0  0  0  0  0  0  0
   38.2860   24.8620   34.7250 O   0  0  0  0  0  0  0  0  0  0  0  0
   38.7930   25.4300   32.3330 N   0  0  0  0  0  0  0  0  0  0  0  0
   39.6360   24.8850   34.5770 H   0  0  0  0  0  0  0  0  0  0  0  0
   39.7720   25.6790   32.1610 H   0  0  0  0  0  0  0  0  0  0  0  0
  1  6  1  0  0  0  0
  1 21  1  0  0  0  0
  2  1  2  0  0  0  0
  3  4  2  0  0  0  0
  3  2  1  0  0  0  0
  4  5  1  0  0  0  0
  5  9  1  0  0  0  0
  5  6  2  0  0  0  0
  6 11  1  0  0  0  0
  7  3  1  0  0  0  0
  8  4  1  0  0  0  0
 10 17  1  0  0  0  0
 11 10  2  0  0  0  0
 11 12  1  0  0  0  0
 12 14  2  0  0  0  0
 13 12  1  0  0  0  0
 14 16  1  0  0  0  0
 14 15  1  0  0  0  0
 17 16  2  0  0  0  0
 18 19  3  0  0  0  0
 19 10  1  0  0  0  0
 21 20  3  0  0  0  0
 22  2  1  0  0  0  0
 23 22  1  0  0  0  0
 23 24  1  0  0  0  0
 24 33  1  0  0  0  0
 25 24  2  0  0  0  0
 25 29  1  0  0  0  0
 26 25  1  0  0  0  0
 27 28  1  0  0  0  0
 27 26  2  0  0  0  0
 28 23  2  0  0  0  0
 30 27  1  0  0  0  0
 31 34  1  0  0  0  0
 31 32  2  0  0  0  0
 33 31  1  0  0  0  0
 35 33  1  0  0  0  0
M  END
>  <minimizedAffinity>
-5.3472333

$$$$

 OpenBabel03272507403D

 35 37  0  0  0  0  0  0  0  0999 V2000
   38.6260   25.0100   34.0090 C   0  0  0  0  0  0  0  0  0  0  0  0
   38.4130   25.2420   32.6750 C   0  0  0  0  0  0  0  0  0  0  0  0
   37.8350   24.2710   31.8740 C   0  0  0  0  0  0  0  0  0  0  0  0
   37.4700   23.0510   32.4280 C   0  0  0  0  0  0  0  0  0  0  0  0
   37.6890   22.8200   33.7820 C   0  0  0  0  0  0  0  0  0  0  0  0
   38.2690   23.8100   34.5610 C   0  0  0  0  0  0  0  0  0  0  0  0
   37.6380   24.3860   30.8190 H   0  0  0  0  0  0  0  0  0  0  0  0
   37.0150   22.2740   31.8160 H   0  0  0  0  0  0  0  0  0  0  0  0
   37.4220   21.8840   34.2640 H   0  0  0  0  0  0  0  0  0  0  0  0
   39.6820   22.9740   36.3780 C   0  0  0  0  0  0  0  0  0  0  0  0
   38.5340   23.6480   35.9970 C   0  0  0  0  0  0  0  0  0  0  0  0
   37.6200   24.1800   36.8990 C   0  0  0  0  0  0  0  0  0  0  0  0
   36.7450   24.6940   36.4940 H   0  0  0  0  0  0  0  0  0  0  0  0
   37.8900   24.0180   38.2400 C   0  0  0  0  0  0  0  0  0  0  0  0
   37.1970   24.4200   38.9440 H   0  0  0  0  0  0  0  0  0  0  0  0
   39.0320   23.3460   38.6330 C   0  0  0  0  0  3  0  0  0  0  0  0
   39.9420   22.8160   37.7270 C   0  0  0  0  0  3  0  0  0  0  0  0
   41.2820   22.0310   34.5460 N   0  0  0  0  0  0  0  0  0  0  0  0
   40.5710   22.4570   35.3540 C   0  0  0  0  0  0  0  0  0  0  0  0
   39.7090   26.9320   35.3430 N   0  0  0  0  0  0  0  0  0  0  0  0
   39.2290   26.0720   34.7600 C   0  0  0  0  0  0  0  0  0  0  0  0
   38.7210   26.3960   31.9890 O   0  0  0  0  0  0  0  0  0  0  0  0
   37.8280   27.3720   31.6710 C   0  0  0  0  0  0  0  0  0  0  0  0
   37.8640   27.6870   30.3150 C   0  0  0  0  0  0  0  0  0  0  0  0
   37.0340   28.6550   29.7890 C   0  0  0  0  0  0  0  0  0  0  0  0
   36.1780   29.2850   30.6660 N   0  0  0  0  0  0  0  0  0  0  0  0
   36.1560   28.9670   31.9810 C   0  0  0  0  0  0  0  0  0  0  0  0
   36.9610   28.0370   32.4590 N   0  0  0  0  0  0  0  0  0  0  0  0
   36.9840   28.9680   28.7770 H   0  0  0  0  0  0  0  0  0  0  0  0
   35.5240   29.4030   32.7280 H   0  0  0  0  0  0  0  0  0  0  0  0
   39.9390   27.6560   29.0190 C   0  0  0  0  0  0  0  0  0  0  0  0
   40.5270   28.7760   29.2950 O   0  0  0  0  0  0  0  0  0  0  0  0
   38.6700   27.0860   29.3440 N   0  0  0  0  0  0  0  0  0  0  0  0
   40.9220   27.6980   28.5690 H   0  0  0  0  0  0  0  0  0  0  0  0
   38.7760   26.3300   28.6600 H   0  0  0  0  0  0  0  0  0  0  0  0
  1  6  1  0  0  0  0
  1 21  1  0  0  0  0
  2  1  2  0  0  0  0
  3  4  2  0  0  0  0
  3  2  1  0  0  0  0
  4  5  1  0  0  0  0
  5  9  1  0  0  0  0
  5  6  2  0  0  0  0
  6 11  1  0  0  0  0
  7  3  1  0  0  0  0
  8  4  1  0  0  0  0
 10 17  1  0  0  0  0
 11 10  2  0  0  0  0
 11 12  1  0  0  0  0
 12 14  2  0  0  0  0
 13 12  1  0  0  0  0
 14 16  1  0  0  0  0
 14 15  1  0  0  0  0
 17 16  2  0  0  0  0
 18 19  3  0  0  0  0
 19 10  1  0  0  0  0
 21 20  3  0  0  0  0
 22  2  1  0  0  0  0
 23 22  1  0  0  0  0
 23 28  1  0  0  0  0
 24 23  2  0  0  0  0
 25 24  1  0  0  0  0
 25 26  2  0  0  0  0
 26 27  1  0  0  0  0
 27 28  2  0  0  0  0
 27 30  1  0  0  0  0
 29 25  1  0  0  0  0
 31 32  2  0  0  0  0
 31 33  1  0  0  0  0
 33 24  1  0  0  0  0
 34 31  1  0  0  0  0
 35 33  1  0  0  0  0
M  END
>  <minimizedAffinity>
-5.31510401

$$$$

 OpenBabel03272507403D

 35 37  0  0  0  0  0  0  0  0999 V2000
   37.4680   25.9640   33.5150 C   0  0  0  0  0  0  0  0  0  0  0  0
   37.8040   24.7090   33.9490 C   0  0  0  0  0  0  0  0  0  0  0  0
   37.7340   23.6240   33.0910 C   0  0  0  0  0  0  0  0  0  0  0  0
   37.3200   23.8110   31.7780 C   0  0  0  0  0  0  0  0  0  0  0  0
   36.9810   25.0880   31.3430 C   0  0  0  0  0  0  0  0  0  0  0  0
   37.0590   26.1570   32.2230 C   0  0  0  0  0  0  0  0  0  0  0  0
   37.9840   22.6100   33.3650 H   0  0  0  0  0  0  0  0  0  0  0  0
   37.2580   22.9730   31.0870 H   0  0  0  0  0  0  0  0  0  0  0  0
   36.6510   25.2880   30.3270 H   0  0  0  0  0  0  0  0  0  0  0  0
   37.6590   28.2710   31.1450 C   0  0  0  0  0  0  0  0  0  0  0  0
   36.7190   27.5350   31.8440 C   0  0  0  0  0  0  0  0  0  0  0  0
   35.4710   28.0280   32.2080 C   0  0  0  0  0  0  0  0  0  0  0  0
   34.8020   27.3640   32.7600 H   0  0  0  0  0  0  0  0  0  0  0  0
   35.1730   29.3220   31.8420 C   0  0  0  0  0  0  0  0  0  0  0  0
   34.2200   29.7140   32.1150 H   0  0  0  0  0  0  0  0  0  0  0  0
   36.1040   30.0680   31.1440 C   0  0  0  0  0  3  0  0  0  0  0  0
   37.3500   29.5700   30.7840 C   0  0  0  0  0  3  0  0  0  0  0  0
   39.9440   27.1580   30.5570 N   0  0  0  0  0  0  0  0  0  0  0  0
   38.9340   27.6600   30.8150 C   0  0  0  0  0  0  0  0  0  0  0  0
   37.6420   27.8640   35.2500 N   0  0  0  0  0  0  0  0  0  0  0  0
   37.5700   27.0270   34.4720 C   0  0  0  0  0  0  0  0  0  0  0  0
   38.2300   24.3710   35.2150 O   0  0  0  0  0  0  0  0  0  0  0  0
   39.5040   24.0210   35.5380 C   0  0  0  0  0  0  0  0  0  0  0  0
   39.5450   23.1610   36.6310 C   0  0  0  0  0  0  0  0  0  0  0  0
   40.7460   22.6890   37.1190 C   0  0  0  0  0  0  0  0  0  0  0  0
   41.8880   23.1090   36.4730 N   0  0  0  0  0  0  0  0  0  0  0  0
   41.8300   23.9450   35.4110 C   0  0  0  0  0  0  0  0  0  0  0  0
   40.6680   24.3820   34.9650 N   0  0  0  0  0  0  0  0  0  0  0  0
   40.8850   22.0350   37.9420 H   0  0  0  0  0  0  0  0  0  0  0  0
   42.6650   24.3180   34.8510 H   0  0  0  0  0  0  0  0  0  0  0  0
   37.8110   23.4520   38.3340 C   0  0  0  0  0  0  0  0  0  0  0  0
   38.1090   24.5600   38.9330 O   0  0  0  0  0  0  0  0  0  0  0  0
   38.4460   22.6550   37.3330 N   0  0  0  0  0  0  0  0  0  0  0  0
   37.0430   23.7250   39.0450 H   0  0  0  0  0  0  0  0  0  0  0  0
   37.8110   21.8650   37.4840 H   0  0  0  0  0  0  0  0  0  0  0  0
  1  2  1  0  0  0  0
  1 21  1  0  0  0  0
  2 22  1  0  0  0  0
  3  7  1  0  0  0  0
  3  2  2  0  0  0  0
  4  3  1  0  0  0  0
  5  4  2  0  0  0  0
  5  6  1  0  0  0  0
  6  1  2  0  0  0  0
  8  4  1  0  0  0  0
  9  5  1  0  0  0  0
 10 11  1  0  0  0  0
 11 12  2  0  0  0  0
 11  6  1  0  0  0  0
 12 13  1  0  0  0  0
 14 15  1  0  0  0  0
 14 12  1  0  0  0  0
 16 14  2  0  0  0  0
 17 16  1  0  0  0  0
 17 10  2  0  0  0  0
 18 19  3  0  0  0  0
 19 10  1  0  0  0  0
 21 20  3  0  0  0  0
 22 23  1  0  0  0  0
 23 24  1  0  0  0  0
 24 25  2  0  0  0  0
 24 33  1  0  0  0  0
 25 29  1  0  0  0  0
 26 25  1  0  0  0  0
 27 26  2  0  0  0  0
 28 27  1  0  0  0  0
 28 23  2  0  0  0  0
 30 27  1  0  0  0  0
 31 32  2  0  0  0  0
 31 34  1  0  0  0  0
 33 35  1  0  0  0  0
 33 31  1  0  0  0  0
M  END
>  <minimizedAffinity>
-5.29442549

$$$$

 OpenBabel03272507403D

 35 37  0  0  0  0  0  0  0  0999 V2000
   39.1810   25.2870   33.4120 C   0  0  0  0  0  0  0  0  0  0  0  0
   39.4940   26.0130   32.2930 C   0  0  0  0  0  0  0  0  0  0  0  0
   40.4200   27.0410   32.3560 C   0  0  0  0  0  0  0  0  0  0  0  0
   41.0350   27.3380   33.5660 C   0  0  0  0  0  0  0  0  0  0  0  0
   40.7130   26.5970   34.6990 C   0  0  0  0  0  0  0  0  0  0  0  0
   39.7830   25.5740   34.6070 C   0  0  0  0  0  0  0  0  0  0  0  0
   40.7140   27.6520   31.5170 H   0  0  0  0  0  0  0  0  0  0  0  0
   41.7660   28.1420   33.6380 H   0  0  0  0  0  0  0  0  0  0  0  0
   41.1660   26.7890   35.6670 H   0  0  0  0  0  0  0  0  0  0  0  0
   40.1420   23.6200   36.0380 C   0  0  0  0  0  0  0  0  0  0  0  0
   39.3860   24.7440   35.7530 C   0  0  0  0  0  0  0  0  0  0  0  0
   38.2730   25.1310   36.4910 C   0  0  0  0  0  0  0  0  0  0  0  0
   37.7460   26.0360   36.1810 H   0  0  0  0  0  0  0  0  0  0  0  0
   37.9210   24.3390   37.5610 C   0  0  0  0  0  0  0  0  0  0  0  0
   37.0690   24.6230   38.1360 H   0  0  0  0  0  0  0  0  0  0  0  0
   38.6670   23.2140   37.8570 C   0  0  0  0  0  3  0  0  0  0  0  0
   39.7770   22.8320   37.1150 C   0  0  0  0  0  3  0  0  0  0  0  0
   42.1980   23.0710   34.5310 N   0  0  0  0  0  0  0  0  0  0  0  0
   41.2860   23.3060   35.2030 C   0  0  0  0  0  0  0  0  0  0  0  0
   37.4440   23.4050   33.1040 N   0  0  0  0  0  0  0  0  0  0  0  0
   38.2120   24.2410   33.2520 C   0  0  0  0  0  0  0  0  0  0  0  0
   38.9690   25.8360   31.0320 O   0  0  0  0  0  0  0  0  0  0  0  0
   38.6500   26.8430   30.1740 C   0  0  0  0  0  0  0  0  0  0  0  0
   37.4470   27.4530   30.5150 C   0  0  0  0  0  0  0  0  0  0  0  0
   36.9440   28.4980   29.7680 C   0  0  0  0  0  0  0  0  0  0  0  0
   37.6900   28.9020   28.6820 N   0  0  0  0  0  0  0  0  0  0  0  0
   38.8590   28.2980   28.3650 C   0  0  0  0  0  0  0  0  0  0  0  0
   39.3160   27.2990   29.0960 N   0  0  0  0  0  0  0  0  0  0  0  0
   36.0420   29.0270   29.9420 H   0  0  0  0  0  0  0  0  0  0  0  0
   39.5000   28.5480   27.5440 H   0  0  0  0  0  0  0  0  0  0  0  0
   35.6110   26.1520   31.4770 C   0  0  0  0  0  0  0  0  0  0  0  0
   35.0760   25.5290   30.4770 O   0  0  0  0  0  0  0  0  0  0  0  0
   36.6360   27.1380   31.6100 N   0  0  0  0  0  0  0  0  0  0  0  0
   34.8450   25.4660   31.8140 H   0  0  0  0  0  0  0  0  0  0  0  0
   36.4030   27.3240   32.5900 H   0  0  0  0  0  0  0  0  0  0  0  0
  1  6  1  0  0  0  0
  2  3  1  0  0  0  0
  2  1  2  0  0  0  0
  3  4  2  0  0  0  0
  4  8  1  0  0  0  0
  4  5  1  0  0  0  0
  5  9  1  0  0  0  0
  6  5  2  0  0  0  0
  6 11  1  0  0  0  0
  7  3  1  0  0  0  0
 10 17  1  0  0  0  0
 11 10  2  0  0  0  0
 11 12  1  0  0  0  0
 12 14  2  0  0  0  0
 13 12  1  0  0  0  0
 14 16  1  0  0  0  0
 14 15  1  0  0  0  0
 17 16  2  0  0  0  0
 18 19  3  0  0  0  0
 19 10  1  0  0  0  0
 20 21  3  0  0  0  0
 21  1  1  0  0  0  0
 22  2  1  0  0  0  0
 23 24  1  0  0  0  0
 23 22  1  0  0  0  0
 24 33  1  0  0  0  0
 25 29  1  0  0  0  0
 25 24  2  0  0  0  0
 26 25  1  0  0  0  0
 27 26  2  0  0  0  0
 27 28  1  0  0  0  0
 28 23  2  0  0  0  0
 30 27  1  0  0  0  0
 31 33  1  0  0  0  0
 31 34  1  0  0  0  0
 32 31  2  0  0  0  0
 33 35  1  0  0  0  0
M  END
>  <minimizedAffinity>
-5.26648235

$$$$

 OpenBabel03272507403D

 35 37  0  0  0  0  0  0  0  0999 V2000
   37.9130   25.5960   34.0780 C   0  0  0  0  0  0  0  0  0  0  0  0
   37.1550   26.6640   33.6740 C   0  0  0  0  0  0  0  0  0  0  0  0
   37.0680   27.8030   34.4590 C   0  0  0  0  0  0  0  0  0  0  0  0
   37.7550   27.8610   35.6640 C   0  0  0  0  0  0  0  0  0  0  0  0
   38.5240   26.7740   36.0690 C   0  0  0  0  0  0  0  0  0  0  0  0
   38.5930   25.6470   35.2650 C   0  0  0  0  0  0  0  0  0  0  0  0
   36.4910   28.6780   34.2030 H   0  0  0  0  0  0  0  0  0  0  0  0
   37.7000   28.7460   36.2960 H   0  0  0  0  0  0  0  0  0  0  0  0
   39.0800   26.7700   37.0020 H   0  0  0  0  0  0  0  0  0  0  0  0
   40.7180   24.4300   35.2610 C   0  0  0  0  0  0  0  0  0  0  0  0
   39.3800   24.4570   35.6170 C   0  0  0  0  0  0  0  0  0  0  0  0
   38.7420   23.4210   36.2890 C   0  0  0  0  0  0  0  0  0  0  0  0
   37.6820   23.5430   36.5230 H   0  0  0  0  0  0  0  0  0  0  0  0
   39.4990   22.3160   36.6100 C   0  0  0  0  0  0  0  0  0  0  0  0
   39.0230   21.5130   37.1240 H   0  0  0  0  0  0  0  0  0  0  0  0
   40.8360   22.2760   36.2600 C   0  0  0  0  0  3  0  0  0  0  0  0
   41.4680   23.3150   35.5880 C   0  0  0  0  0  3  0  0  0  0  0  0
   41.7550   26.4650   34.0010 N   0  0  0  0  0  0  0  0  0  0  0  0
   41.2870   25.5660   34.5600 C   0  0  0  0  0  0  0  0  0  0  0  0
   37.9520   23.5590   32.4970 N   0  0  0  0  0  0  0  0  0  0  0  0
   37.9450   24.4600   33.2030 C   0  0  0  0  0  0  0  0  0  0  0  0
   36.4220   26.7510   32.5110 O   0  0  0  0  0  0  0  0  0  0  0  0
   36.3840   27.8400   31.6970 C   0  0  0  0  0  0  0  0  0  0  0  0
   37.2060   27.6840   30.5840 C   0  0  0  0  0  0  0  0  0  0  0  0
   37.3100   28.6790   29.6340 C   0  0  0  0  0  0  0  0  0  0  0  0
   36.5650   29.8190   29.8430 N   0  0  0  0  0  0  0  0  0  0  0  0
   35.7710   29.9540   30.9300 C   0  0  0  0  0  0  0  0  0  0  0  0
   35.6900   28.9870   31.8240 N   0  0  0  0  0  0  0  0  0  0  0  0
   37.9040   28.6600   28.7570 H   0  0  0  0  0  0  0  0  0  0  0  0
   35.1590   30.8010   31.1680 H   0  0  0  0  0  0  0  0  0  0  0  0
   39.3610   26.5260   30.6060 C   0  0  0  0  0  0  0  0  0  0  0  0
   40.2140   27.4060   31.0210 O   0  0  0  0  0  0  0  0  0  0  0  0
   37.9740   26.5590   30.2690 N   0  0  0  0  0  0  0  0  0  0  0  0
   40.3370   26.0810   30.7470 H   0  0  0  0  0  0  0  0  0  0  0  0
   38.0020   25.6300   29.8390 H   0  0  0  0  0  0  0  0  0  0  0  0
  1  6  1  0  0  0  0
  2  1  2  0  0  0  0
  2  3  1  0  0  0  0
  3  4  2  0  0  0  0
  4  5  1  0  0  0  0
  4  8  1  0  0  0  0
  5  9  1  0  0  0  0
  6 11  1  0  0  0  0
  6  5  2  0  0  0  0
  7  3  1  0  0  0  0
 10 17  2  0  0  0  0
 10 11  1  0  0  0  0
 11 12  2  0  0  0  0
 12 13  1  0  0  0  0
 12 14  1  0  0  0  0
 14 15  1  0  0  0  0
 16 14  2  0  0  0  0
 17 16  1  0  0  0  0
 18 19  3  0  0  0  0
 19 10  1  0  0  0  0
 20 21  3  0  0  0  0
 21  1  1  0  0  0  0
 22  2  1  0  0  0  0
 23 28  1  0  0  0  0
 23 22  1  0  0  0  0
 24 23  2  0  0  0  0
 25 26  2  0  0  0  0
 25 24  1  0  0  0  0
 26 27  1  0  0  0  0
 27 30  1  0  0  0  0
 27 28  2  0  0  0  0
 29 25  1  0  0  0  0
 31 34  1  0  0  0  0
 31 32  2  0  0  0  0
 33 24  1  0  0  0  0
 33 31  1  0  0  0  0
 35 33  1  0  0  0  0
M  END
>  <minimizedAffinity>
-5.20597219

$$$$

 OpenBabel03272507403D

 35 37  0  0  0  0  0  0  0  0999 V2000
   38.3440   25.4080   34.0190 C   0  0  0  0  0  0  0  0  0  0  0  0
   37.4570   26.4170   33.7490 C   0  0  0  0  0  0  0  0  0  0  0  0
   37.3290   27.4930   34.6120 C   0  0  0  0  0  0  0  0  0  0  0  0
   38.1080   27.5480   35.7610 C   0  0  0  0  0  0  0  0  0  0  0  0
   39.0070   26.5210   36.0300 C   0  0  0  0  0  0  0  0  0  0  0  0
   39.1140   25.4560   35.1490 C   0  0  0  0  0  0  0  0  0  0  0  0
   36.6530   28.3210   34.4620 H   0  0  0  0  0  0  0  0  0  0  0  0
   38.0240   28.3850   36.4530 H   0  0  0  0  0  0  0  0  0  0  0  0
   39.6390   26.5170   36.9140 H   0  0  0  0  0  0  0  0  0  0  0  0
   39.6060   23.2670   36.1300 C   0  0  0  0  0  0  0  0  0  0  0  0
   40.0370   24.3320   35.3580 C   0  0  0  0  0  0  0  0  0  0  0  0
   41.2950   24.3960   34.7690 C   0  0  0  0  0  0  0  0  0  0  0  0
   41.5360   25.2820   34.1770 H   0  0  0  0  0  0  0  0  0  0  0  0
   42.1430   23.3300   34.9770 C   0  0  0  0  0  0  0  0  0  0  0  0
   43.1110   23.3650   34.5320 H   0  0  0  0  0  0  0  0  0  0  0  0
   41.7250   22.2610   35.7470 C   0  0  0  0  0  3  0  0  0  0  0  0
   40.4670   22.2040   36.3330 C   0  0  0  0  0  3  0  0  0  0  0  0
   37.2140   23.3240   37.1700 N   0  0  0  0  0  0  0  0  0  0  0  0
   38.2720   23.3010   36.7000 C   0  0  0  0  0  0  0  0  0  0  0  0
   38.4770   23.4720   32.3210 N   0  0  0  0  0  0  0  0  0  0  0  0
   38.4080   24.3350   33.0700 C   0  0  0  0  0  0  0  0  0  0  0  0
   36.6230   26.4990   32.6560 O   0  0  0  0  0  0  0  0  0  0  0  0
   36.4050   27.6280   31.9280 C   0  0  0  0  0  0  0  0  0  0  0  0
   37.1110   27.6160   30.7280 C   0  0  0  0  0  0  0  0  0  0  0  0
   37.0270   28.6720   29.8450 C   0  0  0  0  0  0  0  0  0  0  0  0
   36.2160   29.7250   30.2090 N   0  0  0  0  0  0  0  0  0  0  0  0
   35.5370   29.7210   31.3790 C   0  0  0  0  0  0  0  0  0  0  0  0
   35.6360   28.6980   32.2070 N   0  0  0  0  0  0  0  0  0  0  0  0
   37.5210   28.7600   28.9120 H   0  0  0  0  0  0  0  0  0  0  0  0
   34.8870   30.4930   31.7380 H   0  0  0  0  0  0  0  0  0  0  0  0
   39.3450   26.6620   30.4370 C   0  0  0  0  0  0  0  0  0  0  0  0
   40.1620   27.5930   30.8150 O   0  0  0  0  0  0  0  0  0  0  0  0
   37.9310   26.5860   30.2570 N   0  0  0  0  0  0  0  0  0  0  0  0
   40.3660   26.3030   30.4410 H   0  0  0  0  0  0  0  0  0  0  0  0
   37.9890   25.6890   29.7660 H   0  0  0  0  0  0  0  0  0  0  0  0
  1  6  1  0  0  0  0
  2  1  2  0  0  0  0
  2  3  1  0  0  0  0
  3  4  2  0  0  0  0
  4  5  1  0  0  0  0
  4  8  1  0  0  0  0
  5  9  1  0  0  0  0
  6 11  1  0  0  0  0
  6  5  2  0  0  0  0
  7  3  1  0  0  0  0
 10 17  1  0  0  0  0
 10 19  1  0  0  0  0
 11 10  2  0  0  0  0
 12 14  2  0  0  0  0
 12 11  1  0  0  0  0
 13 12  1  0  0  0  0
 14 16  1  0  0  0  0
 15 14  1  0  0  0  0
 16 17  2  0  0  0  0
 19 18  3  0  0  0  0
 20 21  3  0  0  0  0
 21  1  1  0  0  0  0
 22  2  1  0  0  0  0
 23 28  1  0  0  0  0
 23 22  1  0  0  0  0
 24 23  2  0  0  0  0
 25 26  2  0  0  0  0
 25 24  1  0  0  0  0
 26 27  1  0  0  0  0
 27 30  1  0  0  0  0
 27 28  2  0  0  0  0
 29 25  1  0  0  0  0
 31 34  1  0  0  0  0
 31 32  2  0  0  0  0
 33 31  1  0  0  0  0
 33 24  1  0  0  0  0
 35 33  1  0  0  0  0
M  END
>  <minimizedAffinity>
-5.18439531

$$$$

 OpenBabel03272507403D

 35 37  0  0  0  0  0  0  0  0999 V2000
   37.9790   25.8450   34.0710 C   0  0  0  0  0  0  0  0  0  0  0  0
   37.4320   26.4300   32.9590 C   0  0  0  0  0  0  0  0  0  0  0  0
   36.9340   25.6530   31.9260 C   0  0  0  0  0  0  0  0  0  0  0  0
   36.9910   24.2680   32.0190 C   0  0  0  0  0  0  0  0  0  0  0  0
   37.5470   23.6800   33.1510 C   0  0  0  0  0  0  0  0  0  0  0  0
   38.0380   24.4810   34.1700 C   0  0  0  0  0  0  0  0  0  0  0  0
   36.4910   26.0460   31.0240 H   0  0  0  0  0  0  0  0  0  0  0  0
   36.6060   23.6380   31.2190 H   0  0  0  0  0  0  0  0  0  0  0  0
   37.6150   22.6020   33.2730 H   0  0  0  0  0  0  0  0  0  0  0  0
   39.9750   23.5760   35.3630 C   0  0  0  0  0  0  0  0  0  0  0  0
   38.6410   23.9420   35.3960 C   0  0  0  0  0  0  0  0  0  0  0  0
   37.8390   23.8260   36.5260 C   0  0  0  0  0  0  0  0  0  0  0  0
   36.7970   24.1430   36.4470 H   0  0  0  0  0  0  0  0  0  0  0  0
   38.4250   23.3180   37.6650 C   0  0  0  0  0  0  0  0  0  0  0  0
   37.8230   23.2230   38.5400 H   0  0  0  0  0  0  0  0  0  0  0  0
   39.7570   22.9490   37.6450 C   0  0  0  0  0  3  0  0  0  0  0  0
   40.5520   23.0670   36.5120 C   0  0  0  0  0  3  0  0  0  0  0  0
   41.3090   23.8800   33.1420 N   0  0  0  0  0  0  0  0  0  0  0  0
   40.7220   23.7380   34.1290 C   0  0  0  0  0  0  0  0  0  0  0  0
   38.8690   27.4170   35.9110 N   0  0  0  0  0  0  0  0  0  0  0  0
   38.4690   26.7280   35.0900 C   0  0  0  0  0  0  0  0  0  0  0  0
   37.3080   27.7820   32.7260 O   0  0  0  0  0  0  0  0  0  0  0  0
   36.2080   28.5240   33.0290 C   0  0  0  0  0  0  0  0  0  0  0  0
   35.6350   29.0890   31.8930 C   0  0  0  0  0  0  0  0  0  0  0  0
   34.5090   29.8810   31.9850 C   0  0  0  0  0  0  0  0  0  0  0  0
   33.9890   30.0780   33.2450 N   0  0  0  0  0  0  0  0  0  0  0  0
   34.5580   29.5210   34.3390 C   0  0  0  0  0  0  0  0  0  0  0  0
   35.6360   28.7690   34.2230 N   0  0  0  0  0  0  0  0  0  0  0  0
   34.0000   30.3550   31.1860 H   0  0  0  0  0  0  0  0  0  0  0  0
   34.2200   29.6210   35.3510 H   0  0  0  0  0  0  0  0  0  0  0  0
   36.9330   29.8940   29.9810 C   0  0  0  0  0  0  0  0  0  0  0  0
   37.3320   31.0780   30.3170 O   0  0  0  0  0  0  0  0  0  0  0  0
   36.0680   28.9240   30.5730 N   0  0  0  0  0  0  0  0  0  0  0  0
   37.6050   30.3010   29.2370 H   0  0  0  0  0  0  0  0  0  0  0  0
   36.0350   28.3560   29.7220 H   0  0  0  0  0  0  0  0  0  0  0  0
  1  6  1  0  0  0  0
  1 21  1  0  0  0  0
  2  1  2  0  0  0  0
  3  4  2  0  0  0  0
  3  2  1  0  0  0  0
  4  5  1  0  0  0  0
  5  9  1  0  0  0  0
  5  6  2  0  0  0  0
  6 11  1  0  0  0  0
  7  3  1  0  0  0  0
  8  4  1  0  0  0  0
 10 11  2  0  0  0  0
 10 17  1  0  0  0  0
 11 12  1  0  0  0  0
 12 14  2  0  0  0  0
 13 12  1  0  0  0  0
 14 15  1  0  0  0  0
 16 14  1  0  0  0  0
 17 16  2  0  0  0  0
 18 19  3  0  0  0  0
 19 10  1  0  0  0  0
 21 20  3  0  0  0  0
 22  2  1  0  0  0  0
 22 23  1  0  0  0  0
 23 28  1  0  0  0  0
 24 25  1  0  0  0  0
 24 23  2  0  0  0  0
 25 26  2  0  0  0  0
 26 27  1  0  0  0  0
 27 30  1  0  0  0  0
 28 27  2  0  0  0  0
 29 25  1  0  0  0  0
 31 32  2  0  0  0  0
 31 33  1  0  0  0  0
 33 24  1  0  0  0  0
 34 31  1  0  0  0  0
 35 33  1  0  0  0  0
M  END
>  <minimizedAffinity>
-5.10652924

$$$$

 OpenBabel03272507403D

 35 37  0  0  0  0  0  0  0  0999 V2000
   38.1480   24.7320   32.8570 C   0  0  0  0  0  0  0  0  0  0  0  0
   38.2120   23.4770   33.4060 C   0  0  0  0  0  0  0  0  0  0  0  0
   38.1380   22.3520   32.6020 C   0  0  0  0  0  0  0  0  0  0  0  0
   37.9960   22.4960   31.2280 C   0  0  0  0  0  0  0  0  0  0  0  0
   37.9320   23.7720   30.6760 C   0  0  0  0  0  0  0  0  0  0  0  0
   38.0080   24.8820   31.5030 C   0  0  0  0  0  0  0  0  0  0  0  0
   38.1820   21.3360   32.9660 H   0  0  0  0  0  0  0  0  0  0  0  0
   37.9360   21.6250   30.5780 H   0  0  0  0  0  0  0  0  0  0  0  0
   37.8220   23.9390   29.6090 H   0  0  0  0  0  0  0  0  0  0  0  0
   36.7030   26.8130   30.7550 C   0  0  0  0  0  0  0  0  0  0  0  0
   37.9480   26.2610   31.0030 C   0  0  0  0  0  0  0  0  0  0  0  0
   39.1440   26.9420   30.8040 C   0  0  0  0  0  0  0  0  0  0  0  0
   40.0740   26.4150   31.0310 H   0  0  0  0  0  0  0  0  0  0  0  0
   39.0640   28.2350   30.3360 C   0  0  0  0  0  0  0  0  0  0  0  0
   39.9730   28.7680   30.1780 H   0  0  0  0  0  0  0  0  0  0  0  0
   37.8260   28.7970   30.0840 C   0  0  0  0  0  3  0  0  0  0  0  0
   36.6350   28.1110   30.2840 C   0  0  0  0  0  3  0  0  0  0  0  0
   34.5600   25.3920   31.1940 N   0  0  0  0  0  0  0  0  0  0  0  0
   35.5150   26.0150   30.9970 C   0  0  0  0  0  0  0  0  0  0  0  0
   38.2870   26.7120   34.5020 N   0  0  0  0  0  0  0  0  0  0  0  0
   38.2320   25.8380   33.7650 C   0  0  0  0  0  0  0  0  0  0  0  0
   38.3500   23.1790   34.7440 O   0  0  0  0  0  0  0  0  0  0  0  0
   39.5400   23.0230   35.3850 C   0  0  0  0  0  0  0  0  0  0  0  0
   39.3660   22.6960   36.7270 C   0  0  0  0  0  0  0  0  0  0  0  0
   40.4510   22.4960   37.5550 C   0  0  0  0  0  0  0  0  0  0  0  0
   41.7000   22.6350   36.9890 N   0  0  0  0  0  0  0  0  0  0  0  0
   41.8500   22.9540   35.6820 C   0  0  0  0  0  0  0  0  0  0  0  0
   40.7950   23.1400   34.9130 N   0  0  0  0  0  0  0  0  0  0  0  0
   40.4270   22.2460   38.5850 H   0  0  0  0  0  0  0  0  0  0  0  0
   42.7790   23.0790   35.1630 H   0  0  0  0  0  0  0  0  0  0  0  0
   37.6170   23.5340   38.2180 C   0  0  0  0  0  0  0  0  0  0  0  0
   38.0840   24.6410   38.7000 O   0  0  0  0  0  0  0  0  0  0  0  0
   38.1470   22.5030   37.3850 N   0  0  0  0  0  0  0  0  0  0  0  0
   36.8720   24.0390   38.8190 H   0  0  0  0  0  0  0  0  0  0  0  0
   37.3630   21.8720   37.5760 H   0  0  0  0  0  0  0  0  0  0  0  0
  1  2  1  0  0  0  0
  1 21  1  0  0  0  0
  2 22  1  0  0  0  0
  3  7  1  0  0  0  0
  3  2  2  0  0  0  0
  4  3  1  0  0  0  0
  5  4  2  0  0  0  0
  5  6  1  0  0  0  0
  6  1  2  0  0  0  0
  8  4  1  0  0  0  0
  9  5  1  0  0  0  0
 10 19  1  0  0  0  0
 10 11  1  0  0  0  0
 11  6  1  0  0  0  0
 12 11  2  0  0  0  0
 12 13  1  0  0  0  0
 14 12  1  0  0  0  0
 15 14  1  0  0  0  0
 16 17  1  0  0  0  0
 16 14  2  0  0  0  0
 17 10  2  0  0  0  0
 19 18  3  0  0  0  0
 21 20  3  0  0  0  0
 22 23  1  0  0  0  0
 23 24  1  0  0  0  0
 24 33  1  0  0  0  0
 24 25  2  0  0  0  0
 25 29  1  0  0  0  0
 26 25  1  0  0  0  0
 27 26  2  0  0  0  0
 28 23  2  0  0  0  0
 28 27  1  0  0  0  0
 30 27  1  0  0  0  0
 31 32  2  0  0  0  0
 31 34  1  0  0  0  0
 33 35  1  0  0  0  0
 33 31  1  0  0  0  0
M  END
>  <minimizedAffinity>
-5.07030725

$$$$

 OpenBabel03272507403D

 35 37  0  0  0  0  0  0  0  0999 V2000
   38.1050   25.2900   34.1080 C   0  0  0  0  0  0  0  0  0  0  0  0
   37.6890   25.6710   32.8590 C   0  0  0  0  0  0  0  0  0  0  0  0
   37.2440   24.7290   31.9460 C   0  0  0  0  0  0  0  0  0  0  0  0
   37.2210   23.3860   32.3010 C   0  0  0  0  0  0  0  0  0  0  0  0
   37.6450   23.0050   33.5700 C   0  0  0  0  0  0  0  0  0  0  0  0
   38.0850   23.9680   34.4640 C   0  0  0  0  0  0  0  0  0  0  0  0
   36.9030   24.9580   30.9490 H   0  0  0  0  0  0  0  0  0  0  0  0
   36.8750   22.6290   31.5990 H   0  0  0  0  0  0  0  0  0  0  0  0
   37.6460   21.9680   33.8960 H   0  0  0  0  0  0  0  0  0  0  0  0
   39.8490   23.2030   35.9800 C   0  0  0  0  0  0  0  0  0  0  0  0
   38.5490   23.6510   35.8210 C   0  0  0  0  0  0  0  0  0  0  0  0
   37.6590   23.8170   36.8760 C   0  0  0  0  0  0  0  0  0  0  0  0
   36.6540   24.1770   36.6430 H   0  0  0  0  0  0  0  0  0  0  0  0
   38.1150   23.5150   38.1410 C   0  0  0  0  0  0  0  0  0  0  0  0
   37.4430   23.6360   38.9590 H   0  0  0  0  0  0  0  0  0  0  0  0
   39.4120   23.0660   38.3120 C   0  0  0  0  0  3  0  0  0  0  0  0
   40.2960   22.9020   37.2540 C   0  0  0  0  0  3  0  0  0  0  0  0
   41.3840   22.9450   33.8870 N   0  0  0  0  0  0  0  0  0  0  0  0
   40.6970   23.0640   34.8100 C   0  0  0  0  0  0  0  0  0  0  0  0
   38.9220   27.1600   35.6840 N   0  0  0  0  0  0  0  0  0  0  0  0
   38.5490   26.3330   34.9870 C   0  0  0  0  0  0  0  0  0  0  0  0
   37.6550   26.9580   32.3690 O   0  0  0  0  0  0  0  0  0  0  0  0
   38.5070   27.4530   31.4300 C   0  0  0  0  0  0  0  0  0  0  0  0
   37.8300   28.1440   30.4290 C   0  0  0  0  0  0  0  0  0  0  0  0
   38.5140   28.7240   29.3810 C   0  0  0  0  0  0  0  0  0  0  0  0
   39.8850   28.5850   29.3790 N   0  0  0  0  0  0  0  0  0  0  0  0
   40.5270   27.9100   30.3600 C   0  0  0  0  0  0  0  0  0  0  0  0
   39.8490   27.3640   31.3520 N   0  0  0  0  0  0  0  0  0  0  0  0
   38.0960   29.2670   28.5730 H   0  0  0  0  0  0  0  0  0  0  0  0
   41.5840   27.7560   30.4370 H   0  0  0  0  0  0  0  0  0  0  0  0
   35.8940   29.5660   30.8950 C   0  0  0  0  0  0  0  0  0  0  0  0
   36.3470   30.5200   31.6430 O   0  0  0  0  0  0  0  0  0  0  0  0
   36.4510   28.3660   30.3580 N   0  0  0  0  0  0  0  0  0  0  0  0
   35.1300   30.3100   31.0770 H   0  0  0  0  0  0  0  0  0  0  0  0
   35.5360   28.0080   30.0690 H   0  0  0  0  0  0  0  0  0  0  0  0
  1  6  1  0  0  0  0
  1 21  1  0  0  0  0
  2  1  2  0  0  0  0
  3  4  2  0  0  0  0
  3  2  1  0  0  0  0
  4  5  1  0  0  0  0
  5  9  1  0  0  0  0
  5  6  2  0  0  0  0
  6 11  1  0  0  0  0
  7  3  1  0  0  0  0
  8  4  1  0  0  0  0
 10 17  1  0  0  0  0
 11 10  2  0  0  0  0
 11 12  1  0  0  0  0
 12 14  2  0  0  0  0
 13 12  1  0  0  0  0
 14 16  1  0  0  0  0
 14 15  1  0  0  0  0
 17 16  2  0  0  0  0
 18 19  3  0  0  0  0
 19 10  1  0  0  0  0
 21 20  3  0  0  0  0
 22  2  1  0  0  0  0
 23 22  1  0  0  0  0
 24 23  2  0  0  0  0
 25 24  1  0  0  0  0
 26 25  2  0  0  0  0
 26 27  1  0  0  0  0
 27 30  1  0  0  0  0
 27 28  2  0  0  0  0
 28 23  1  0  0  0  0
 29 25  1  0  0  0  0
 31 34  1  0  0  0  0
 31 32  2  0  0  0  0
 33 24  1  0  0  0  0
 33 31  1  0  0  0  0
 35 33  1  0  0  0  0
M  END
>  <minimizedAffinity>
-5.04051542

$$$$
