REMARK  Name = 
REMARK  5 active torsions:
REMARK  status: ('A' for Active; 'I' for Inactive)
REMARK    1  A    between atoms: C_1  and  O_12
REMARK    2  A    between atoms: C_2  and  C_8
REMARK    3  A    between atoms: O_12  and  C_15
REMARK    4  A    between atoms: C_19  and  C_35
REMARK    5  A    between atoms: C_33  and  C_34
REMARK                            x       y       z     vdW  Elec       q    Type
REMARK                         _______ _______ _______ _____ _____    ______ ____
ROOT
ATOM      1  O   UNL     1      38.276  32.134  46.645  0.00  0.00    +0.000 OA
ENDROOT
BRANCH   1   2
ATOM      2  C   UNL     1      38.953  32.369  47.791  0.00  0.00    +0.000 C 
ATOM      3  C   UNL     1      38.004  32.745  48.974  0.00  0.00    +0.000 C 
ATOM      4  C   UNL     1      38.896  33.546  49.798  0.00  0.00    +0.000 C 
ATOM      5  O   UNL     1      39.731  34.269  48.957  0.00  0.00    +0.000 OA
ATOM      6  C   UNL     1      39.624  33.768  47.705  0.00  0.00    +0.000 C 
ATOM      7  H   UNL     1      39.695  31.633  48.081  0.00  0.00    +0.000 HD
ATOM      8  H   UNL     1      37.223  33.371  48.492  0.00  0.00    +0.000 HD
ATOM      9  H   UNL     1      39.544  33.020  50.497  0.00  0.00    +0.000 HD
ATOM     10  H   UNL     1      38.283  34.287  50.388  0.00  0.00    +0.000 HD
ATOM     11  H   UNL     1      40.628  33.578  47.262  0.00  0.00    +0.000 HD
ATOM     12  H   UNL     1      39.004  34.431  47.083  0.00  0.00    +0.000 HD
BRANCH   3  15
ATOM     13  C   UNL     1      37.363  29.699  51.086  0.00  0.00    +0.000 A 
ATOM     14  C   UNL     1      38.035  30.837  50.559  0.00  0.00    +0.000 A 
ATOM     15  C   UNL     1      37.370  31.587  49.552  0.00  0.00    +0.000 A 
ATOM     16  N   UNL     1      36.122  31.187  49.134  0.00  0.00    +0.000 NA
ATOM     17  C   UNL     1      35.531  30.109  49.660  0.00  0.00    +0.000 A 
ATOM     18  N   UNL     1      36.125  29.361  50.623  0.00  0.00    +0.000 NA
ATOM     19  H   UNL     1      37.897  29.159  51.844  0.00  0.00    +0.000 HD
ATOM     20  H   UNL     1      39.015  31.102  50.928  0.00  0.00    +0.000 HD
ATOM     21  H   UNL     1      34.552  29.765  49.356  0.00  0.00    +0.000 HD
ENDBRANCH   3  15
ENDBRANCH   1   2
BRANCH   1  24
ATOM     22 CL   UNL     1      40.945  31.262  45.373  0.00  0.00    +0.000 Cl
ATOM     23  C   UNL     1      39.359  30.693  44.901  0.00  0.00    +0.000 A 
ATOM     24  C   UNL     1      38.326  31.243  45.634  0.00  0.00    +0.000 A 
ATOM     25  C   UNL     1      37.065  30.796  45.265  0.00  0.00    +0.000 A 
ATOM     26  C   UNL     1      36.848  29.885  44.260  0.00  0.00    +0.000 A 
ATOM     27  C   UNL     1      37.939  29.381  43.574  0.00  0.00    +0.000 A 
ATOM     28  C   UNL     1      39.232  29.779  43.883  0.00  0.00    +0.000 A 
ATOM     29  H   UNL     1      36.137  31.114  45.724  0.00  0.00    +0.000 HD
ATOM     30  H   UNL     1      35.878  29.519  43.953  0.00  0.00    +0.000 HD
ATOM     31  H   UNL     1      37.842  28.661  42.772  0.00  0.00    +0.000 HD
BRANCH  28  33
ATOM     32  C   UNL     1      40.806  27.968  43.219  0.00  0.00    +0.000 A 
ATOM     33  C   UNL     1      40.448  29.313  43.226  0.00  0.00    +0.000 A 
ATOM     34  C   UNL     1      41.299  30.182  42.580  0.00  0.00    +0.000 A 
ATOM     35  H   UNL     1      41.007  31.233  42.592  0.00  0.00    +0.000 HD
ATOM     36  C   UNL     1      42.466  29.830  41.934  0.00  0.00    +0.000 A 
ATOM     37  H   UNL     1      43.078  30.579  41.449  0.00  0.00    +0.000 HD
ATOM     38  C   UNL     1      42.790  28.494  41.946  0.00  0.00    +0.000 A 
ATOM     39  C   UNL     1      41.969  27.588  42.580  0.00  0.00    +0.000 A 
BRANCH  32  41
ATOM     40  N   UNL     1      39.236  26.289  44.440  0.00  0.00    +0.000 NA
ATOM     41  C   UNL     1      39.925  27.039  43.893  0.00  0.00    +0.000 C 
ENDBRANCH  32  41
ENDBRANCH  28  33
ENDBRANCH   1  24
TORSDOF 5
