
 OpenBabel03272502383D

 31 33  0  0  1  0  0  0  0  0999 V2000
   36.4800   27.8260   32.6570 N   0  0  0  0  0  0  0  0  0  0  0  0
   36.6930   28.9460   31.7550 C   0  0  0  0  0  0  0  0  0  0  0  0
   35.8680   30.0480   32.3940 C   0  0  0  0  0  0  0  0  0  0  0  0
   35.1970   29.4310   33.5990 C   0  0  1  0  0  0  0  0  0  0  0  0
   36.2370   28.4040   33.9840 C   0  0  0  0  0  0  0  0  0  0  0  0
   37.7800   29.1850   31.7950 H   0  0  0  0  0  0  0  0  0  0  0  0
   36.4250   28.7470   30.7140 H   0  0  0  0  0  0  0  0  0  0  0  0
   36.5190   30.8930   32.6380 H   0  0  0  0  0  0  0  0  0  0  0  0
   35.0680   30.2730   31.6720 H   0  0  0  0  0  0  0  0  0  0  0  0
   34.2740   28.8940   33.2890 H   0  0  0  0  0  0  0  0  0  0  0  0
   35.8670   27.6150   34.6350 H   0  0  0  0  0  0  0  0  0  0  0  0
   37.1780   28.8830   34.3200 H   0  0  0  0  0  0  0  0  0  0  0  0
   36.5030   26.4430   32.3200 C   0  0  0  0  0  0  0  0  0  0  0  0
   35.6380   26.0120   31.3210 C   0  0  0  0  0  0  0  0  0  0  0  0
   35.6590   24.6550   30.9860 C   0  0  0  0  0  0  0  0  0  0  0  0
   36.5390   23.8350   31.6690 N   0  0  0  0  0  0  0  0  0  0  0  0
   37.3620   24.3030   32.6360 C   0  0  0  0  0  0  0  0  0  0  0  0
   37.3500   25.6260   32.9720 N   0  0  0  0  0  0  0  0  0  0  0  0
   34.9550   26.6090   30.7820 H   0  0  0  0  0  0  0  0  0  0  0  0
   35.0210   24.2300   30.2230 H   0  0  0  0  0  0  0  0  0  0  0  0
   38.0160   23.5870   33.1160 H   0  0  0  0  0  0  0  0  0  0  0  0
   33.6360   30.3330   35.1450 C   0  0  0  0  0  0  0  0  0  0  0  0
   34.9710   30.3230   34.7280 C   0  0  0  0  0  0  0  0  0  0  0  0
   35.8240   31.1390   35.4400 C   0  0  0  0  0  0  0  0  0  0  0  0
   36.8440   31.1010   35.0860 H   0  0  0  0  0  0  0  0  0  0  0  0
   35.4010   31.9170   36.4950 C   0  0  0  0  0  0  0  0  0  0  0  0
   36.1770   32.5090   36.9650 H   0  0  0  0  0  0  0  0  0  0  0  0
   34.0980   31.9180   36.8900 C   0  0  0  0  0  3  0  0  0  0  0  0
   33.2200   31.1280   36.2170 C   0  0  0  0  0  3  0  0  0  0  0  0
   31.7480   28.9430   34.0490 N   0  0  0  0  0  0  0  0  0  0  0  0
   32.5930   29.5520   34.5310 C   0  0  0  0  0  0  0  0  0  0  0  0
  1  5  1  0  0  0  0
  2  6  1  0  0  0  0
  2  3  1  0  0  0  0
  2  1  1  0  0  0  0
  3  8  1  0  0  0  0
  3  4  1  0  0  0  0
  4 10  1  6  0  0  0
  4  5  1  0  0  0  0
  4 23  1  0  0  0  0
  5 12  1  0  0  0  0
  5 11  1  0  0  0  0
  7  2  1  0  0  0  0
  9  3  1  0  0  0  0
 13  1  1  0  0  0  0
 13 18  1  0  0  0  0
 14 13  2  0  0  0  0
 15 14  1  0  0  0  0
 15 16  2  0  0  0  0
 16 17  1  0  0  0  0
 17 18  2  0  0  0  0
 17 21  1  0  0  0  0
 19 14  1  0  0  0  0
 20 15  1  0  0  0  0
 22 29  1  0  0  0  0
 23 22  2  0  0  0  0
 23 24  1  0  0  0  0
 24 26  2  0  0  0  0
 25 24  1  0  0  0  0
 26 28  1  0  0  0  0
 26 27  1  0  0  0  0
 29 28  2  0  0  0  0
 30 31  3  0  0  0  0
 31 22  1  0  0  0  0
M  END
>  <minimizedAffinity>
-5.17082167

$$$$

 OpenBabel03272502383D

 31 33  0  0  1  0  0  0  0  0999 V2000
   38.4310   25.4640   33.2260 N   0  0  0  0  0  0  0  0  0  0  0  0
   39.0440   26.6390   33.8250 C   0  0  0  0  0  0  0  0  0  0  0  0
   39.7130   26.0690   35.0610 C   0  0  0  0  0  0  0  0  0  0  0  0
   39.3700   24.5990   35.0900 C   0  0  1  0  0  0  0  0  0  0  0  0
   39.2670   24.3210   33.6080 C   0  0  0  0  0  0  0  0  0  0  0  0
   39.8000   27.0110   33.0960 H   0  0  0  0  0  0  0  0  0  0  0  0
   38.3470   27.4540   34.0410 H   0  0  0  0  0  0  0  0  0  0  0  0
   40.7890   26.2680   35.0160 H   0  0  0  0  0  0  0  0  0  0  0  0
   39.1930   26.5280   35.9160 H   0  0  0  0  0  0  0  0  0  0  0  0
   38.3650   24.4500   35.5440 H   0  0  0  0  0  0  0  0  0  0  0  0
   38.7300   23.4090   33.3590 H   0  0  0  0  0  0  0  0  0  0  0  0
   40.2470   24.4370   33.1040 H   0  0  0  0  0  0  0  0  0  0  0  0
   37.2540   25.4310   32.4260 C   0  0  0  0  0  0  0  0  0  0  0  0
   36.7400   24.1830   32.0940 C   0  0  0  0  0  0  0  0  0  0  0  0
   35.5830   24.1460   31.3090 C   0  0  0  0  0  0  0  0  0  0  0  0
   35.0290   25.3520   30.9200 N   0  0  0  0  0  0  0  0  0  0  0  0
   35.5680   26.5430   31.2700 C   0  0  0  0  0  0  0  0  0  0  0  0
   36.6970   26.5910   32.0350 N   0  0  0  0  0  0  0  0  0  0  0  0
   37.1370   23.2460   32.3730 H   0  0  0  0  0  0  0  0  0  0  0  0
   35.1130   23.2220   31.0020 H   0  0  0  0  0  0  0  0  0  0  0  0
   35.0640   27.4340   30.9180 H   0  0  0  0  0  0  0  0  0  0  0  0
   39.9110   23.0370   36.7960 C   0  0  0  0  0  0  0  0  0  0  0  0
   40.3780   23.7200   35.6690 C   0  0  0  0  0  0  0  0  0  0  0  0
   41.6800   23.4520   35.3060 C   0  0  0  0  0  0  0  0  0  0  0  0
   42.0000   23.9990   34.4320 H   0  0  0  0  0  0  0  0  0  0  0  0
   42.4790   22.5700   36.0010 C   0  0  0  0  0  0  0  0  0  0  0  0
   43.4810   22.4530   35.6060 H   0  0  0  0  0  0  0  0  0  0  0  0
   42.0110   21.9110   37.0970 C   0  0  0  0  0  3  0  0  0  0  0  0
   40.7320   22.1450   37.4920 C   0  0  0  0  0  3  0  0  0  0  0  0
   37.5220   23.3130   37.7550 N   0  0  0  0  0  0  0  0  0  0  0  0
   38.5820   23.1800   37.3340 C   0  0  0  0  0  0  0  0  0  0  0  0
  1  5  1  0  0  0  0
  1  2  1  0  0  0  0
  2  7  1  0  0  0  0
  2  3  1  0  0  0  0
  3  4  1  0  0  0  0
  3  9  1  0  0  0  0
  4 10  1  1  0  0  0
  4 23  1  0  0  0  0
  5  4  1  0  0  0  0
  6  2  1  0  0  0  0
  8  3  1  0  0  0  0
 11  5  1  0  0  0  0
 12  5  1  0  0  0  0
 13  1  1  0  0  0  0
 14 19  1  0  0  0  0
 14 13  1  0  0  0  0
 15 14  2  0  0  0  0
 16 17  2  0  0  0  0
 16 15  1  0  0  0  0
 17 18  1  0  0  0  0
 18 13  2  0  0  0  0
 20 15  1  0  0  0  0
 21 17  1  0  0  0  0
 22 31  1  0  0  0  0
 22 29  1  0  0  0  0
 23 22  2  0  0  0  0
 24 23  1  0  0  0  0
 24 26  2  0  0  0  0
 25 24  1  0  0  0  0
 26 28  1  0  0  0  0
 27 26  1  0  0  0  0
 28 29  2  0  0  0  0
 31 30  3  0  0  0  0
M  END
>  <minimizedAffinity>
-4.93616724

$$$$

 OpenBabel03272502383D

 31 33  0  0  1  0  0  0  0  0999 V2000
   36.0250   29.0960   32.0460 N   0  0  0  0  0  0  0  0  0  0  0  0
   36.5770   28.1070   32.9580 C   0  0  0  0  0  0  0  0  0  0  0  0
   36.1220   28.6160   34.3130 C   0  0  0  0  0  0  0  0  0  0  0  0
   35.3840   29.9090   34.0550 C   0  0  1  0  0  0  0  0  0  0  0  0
   34.8130   29.6190   32.6860 C   0  0  0  0  0  0  0  0  0  0  0  0
   36.0880   27.1370   32.7100 H   0  0  0  0  0  0  0  0  0  0  0  0
   37.6600   27.9730   32.8820 H   0  0  0  0  0  0  0  0  0  0  0  0
   35.5110   27.8520   34.8020 H   0  0  0  0  0  0  0  0  0  0  0  0
   37.0450   28.8860   34.8510 H   0  0  0  0  0  0  0  0  0  0  0  0
   36.1070   30.7490   33.9610 H   0  0  0  0  0  0  0  0  0  0  0  0
   34.4940   30.5020   32.1370 H   0  0  0  0  0  0  0  0  0  0  0  0
   34.0700   28.7970   32.7210 H   0  0  0  0  0  0  0  0  0  0  0  0
   36.5570   29.4800   30.7820 C   0  0  0  0  0  0  0  0  0  0  0  0
   36.5250   30.8310   30.4580 C   0  0  0  0  0  0  0  0  0  0  0  0
   37.0480   31.2120   29.2170 C   0  0  0  0  0  0  0  0  0  0  0  0
   37.5600   30.2210   28.4010 N   0  0  0  0  0  0  0  0  0  0  0  0
   37.5680   28.9170   28.7630 C   0  0  0  0  0  0  0  0  0  0  0  0
   37.0600   28.5330   29.9700 N   0  0  0  0  0  0  0  0  0  0  0  0
   36.1420   31.6120   31.0550 H   0  0  0  0  0  0  0  0  0  0  0  0
   37.0650   32.2400   28.8800 H   0  0  0  0  0  0  0  0  0  0  0  0
   37.9890   28.2110   28.0580 H   0  0  0  0  0  0  0  0  0  0  0  0
   34.5460   31.3450   35.7510 C   0  0  0  0  0  0  0  0  0  0  0  0
   34.2920   30.2130   34.9700 C   0  0  0  0  0  0  0  0  0  0  0  0
   33.0810   29.5930   35.1930 C   0  0  0  0  0  0  0  0  0  0  0  0
   32.9260   28.7250   34.5700 H   0  0  0  0  0  0  0  0  0  0  0  0
   32.1720   30.0500   36.1220 C   0  0  0  0  0  0  0  0  0  0  0  0
   31.2620   29.4680   36.1940 H   0  0  0  0  0  0  0  0  0  0  0  0
   32.4320   31.1540   36.8760 C   0  0  0  0  0  3  0  0  0  0  0  0
   33.6150   31.7980   36.6900 C   0  0  0  0  0  3  0  0  0  0  0  0
   36.7000   32.7710   35.6040 N   0  0  0  0  0  0  0  0  0  0  0  0
   35.7510   32.1290   35.6680 C   0  0  0  0  0  0  0  0  0  0  0  0
  1  5  1  0  0  0  0
  1  2  1  0  0  0  0
  2  3  1  0  0  0  0
  3  8  1  0  0  0  0
  3  9  1  0  0  0  0
  4 10  1  6  0  0  0
  4  3  1  0  0  0  0
  4 23  1  0  0  0  0
  5 12  1  0  0  0  0
  5  4  1  0  0  0  0
  6  2  1  0  0  0  0
  7  2  1  0  0  0  0
 11  5  1  0  0  0  0
 13  1  1  0  0  0  0
 14 13  1  0  0  0  0
 14 19  1  0  0  0  0
 15 14  2  0  0  0  0
 16 17  2  0  0  0  0
 16 15  1  0  0  0  0
 17 18  1  0  0  0  0
 18 13  2  0  0  0  0
 20 15  1  0  0  0  0
 21 17  1  0  0  0  0
 22 29  1  0  0  0  0
 23 24  1  0  0  0  0
 23 22  2  0  0  0  0
 24 26  2  0  0  0  0
 25 24  1  0  0  0  0
 26 27  1  0  0  0  0
 26 28  1  0  0  0  0
 29 28  2  0  0  0  0
 30 31  3  0  0  0  0
 31 22  1  0  0  0  0
M  END
>  <minimizedAffinity>
-4.7872262

$$$$

 OpenBabel03272502383D

 31 33  0  0  1  0  0  0  0  0999 V2000
   37.4420   24.5930   32.6810 N   0  0  0  0  0  0  0  0  0  0  0  0
   38.7280   24.0380   33.0720 C   0  0  0  0  0  0  0  0  0  0  0  0
   38.4110   22.5660   33.2590 C   0  0  0  0  0  0  0  0  0  0  0  0
   36.9290   22.4160   33.0080 C   0  0  1  0  0  0  0  0  0  0  0  0
   36.7200   23.5170   31.9940 C   0  0  0  0  0  0  0  0  0  0  0  0
   39.4170   24.1930   32.2110 H   0  0  0  0  0  0  0  0  0  0  0  0
   39.1740   24.5050   33.9550 H   0  0  0  0  0  0  0  0  0  0  0  0
   39.0330   21.9720   32.5830 H   0  0  0  0  0  0  0  0  0  0  0  0
   38.5680   22.3650   34.3300 H   0  0  0  0  0  0  0  0  0  0  0  0
   36.3580   22.6750   33.9270 H   0  0  0  0  0  0  0  0  0  0  0  0
   35.6840   23.8260   31.8750 H   0  0  0  0  0  0  0  0  0  0  0  0
   37.2540   23.3040   31.0460 H   0  0  0  0  0  0  0  0  0  0  0  0
   36.9770   25.9180   32.9170 C   0  0  0  0  0  0  0  0  0  0  0  0
   36.3190   26.5600   31.8760 C   0  0  0  0  0  0  0  0  0  0  0  0
   35.8590   27.8620   32.1060 C   0  0  0  0  0  0  0  0  0  0  0  0
   36.0900   28.4180   33.3500 N   0  0  0  0  0  0  0  0  0  0  0  0
   36.7380   27.7490   34.3330 C   0  0  0  0  0  0  0  0  0  0  0  0
   37.1910   26.4790   34.1210 N   0  0  0  0  0  0  0  0  0  0  0  0
   36.1260   26.1670   30.9160 H   0  0  0  0  0  0  0  0  0  0  0  0
   35.3370   28.4390   31.3550 H   0  0  0  0  0  0  0  0  0  0  0  0
   36.8740   28.2660   35.2750 H   0  0  0  0  0  0  0  0  0  0  0  0
   35.8870   20.3110   33.3600 C   0  0  0  0  0  0  0  0  0  0  0  0
   36.5060   21.1490   32.4270 C   0  0  0  0  0  0  0  0  0  0  0  0
   36.6080   20.6450   31.1480 C   0  0  0  0  0  0  0  0  0  0  0  0
   37.0910   21.3230   30.4610 H   0  0  0  0  0  0  0  0  0  0  0  0
   36.1330   19.3990   30.8000 C   0  0  0  0  0  0  0  0  0  0  0  0
   36.2790   19.1300   29.7610 H   0  0  0  0  0  0  0  0  0  0  0  0
   35.5330   18.5930   31.7190 C   0  0  0  0  0  3  0  0  0  0  0  0
   35.4110   19.0480   32.9940 C   0  0  0  0  0  3  0  0  0  0  0  0
   35.5280   20.9070   35.8530 N   0  0  0  0  0  0  0  0  0  0  0  0
   35.6870   20.6540   34.7450 C   0  0  0  0  0  0  0  0  0  0  0  0
  1 13  1  0  0  0  0
  1  2  1  0  0  0  0
  2  3  1  0  0  0  0
  2  7  1  0  0  0  0
  3  9  1  0  0  0  0
  4  3  1  0  0  0  0
  4 10  1  1  0  0  0
  5  1  1  0  0  0  0
  5  4  1  0  0  0  0
  6  2  1  0  0  0  0
  8  3  1  0  0  0  0
 11  5  1  0  0  0  0
 12  5  1  0  0  0  0
 13 18  1  0  0  0  0
 14 15  1  0  0  0  0
 14 13  2  0  0  0  0
 15 16  2  0  0  0  0
 16 17  1  0  0  0  0
 17 21  1  0  0  0  0
 18 17  2  0  0  0  0
 19 14  1  0  0  0  0
 20 15  1  0  0  0  0
 22 31  1  0  0  0  0
 23  4  1  0  0  0  0
 23 22  2  0  0  0  0
 24 23  1  0  0  0  0
 25 24  1  0  0  0  0
 26 24  2  0  0  0  0
 26 28  1  0  0  0  0
 27 26  1  0  0  0  0
 28 29  2  0  0  0  0
 29 22  1  0  0  0  0
 31 30  3  0  0  0  0
M  END
>  <minimizedAffinity>
-4.72645187

$$$$

 OpenBabel03272502383D

 31 33  0  0  1  0  0  0  0  0999 V2000
   36.6600   23.3300   31.5290 N   0  0  0  0  0  0  0  0  0  0  0  0
   35.8170   24.4940   31.3040 C   0  0  0  0  0  0  0  0  0  0  0  0
   36.4970   25.5620   32.1390 C   0  0  0  0  0  0  0  0  0  0  0  0
   37.6600   24.8870   32.8260 C   0  0  1  0  0  0  0  0  0  0  0  0
   38.0090   23.8420   31.7910 C   0  0  0  0  0  0  0  0  0  0  0  0
   35.8840   24.7310   30.2180 H   0  0  0  0  0  0  0  0  0  0  0  0
   34.7630   24.3460   31.5570 H   0  0  0  0  0  0  0  0  0  0  0  0
   36.7920   26.3950   31.4930 H   0  0  0  0  0  0  0  0  0  0  0  0
   35.7750   25.8220   32.9300 H   0  0  0  0  0  0  0  0  0  0  0  0
   37.3110   24.3650   33.7450 H   0  0  0  0  0  0  0  0  0  0  0  0
   38.6160   23.0220   32.1680 H   0  0  0  0  0  0  0  0  0  0  0  0
   38.3810   24.3060   30.8550 H   0  0  0  0  0  0  0  0  0  0  0  0
   36.2550   21.9650   31.4990 C   0  0  0  0  0  0  0  0  0  0  0  0
   35.1380   21.6120   32.2460 C   0  0  0  0  0  0  0  0  0  0  0  0
   34.7370   20.2720   32.2170 C   0  0  0  0  0  0  0  0  0  0  0  0
   35.4770   19.3930   31.4490 N   0  0  0  0  0  0  0  0  0  0  0  0
   36.5600   19.7880   30.7380 C   0  0  0  0  0  0  0  0  0  0  0  0
   36.9610   21.0920   30.7580 N   0  0  0  0  0  0  0  0  0  0  0  0
   34.5520   22.2560   32.8420 H   0  0  0  0  0  0  0  0  0  0  0  0
   33.8810   19.9060   32.7670 H   0  0  0  0  0  0  0  0  0  0  0  0
   37.0770   19.0280   30.1650 H   0  0  0  0  0  0  0  0  0  0  0  0
   39.1280   25.8420   34.4300 C   0  0  0  0  0  0  0  0  0  0  0  0
   38.8290   25.7220   33.0690 C   0  0  0  0  0  0  0  0  0  0  0  0
   39.6700   26.3990   32.2120 C   0  0  0  0  0  0  0  0  0  0  0  0
   39.4030   26.2790   31.1720 H   0  0  0  0  0  0  0  0  0  0  0  0
   40.7390   27.1460   32.6540 C   0  0  0  0  0  0  0  0  0  0  0  0
   41.3160   27.6240   31.8720 H   0  0  0  0  0  0  0  0  0  0  0  0
   41.0190   27.2550   33.9820 C   0  0  0  0  0  3  0  0  0  0  0  0
   40.2160   26.6050   34.8660 C   0  0  0  0  0  3  0  0  0  0  0  0
   37.7790   24.7240   36.3340 N   0  0  0  0  0  0  0  0  0  0  0  0
   38.3710   25.2140   35.4820 C   0  0  0  0  0  0  0  0  0  0  0  0
  1  5  1  0  0  0  0
  2  1  1  0  0  0  0
  2  7  1  0  0  0  0
  2  3  1  0  0  0  0
  3  4  1  0  0  0  0
  3  9  1  0  0  0  0
  4 23  1  0  0  0  0
  4 10  1  1  0  0  0
  5 11  1  0  0  0  0
  5  4  1  0  0  0  0
  6  2  1  0  0  0  0
  8  3  1  0  0  0  0
 12  5  1  0  0  0  0
 13  1  1  0  0  0  0
 13 14  1  0  0  0  0
 14 19  1  0  0  0  0
 15 14  2  0  0  0  0
 15 20  1  0  0  0  0
 16 15  1  0  0  0  0
 17 18  1  0  0  0  0
 17 16  2  0  0  0  0
 18 13  2  0  0  0  0
 21 17  1  0  0  0  0
 22 29  1  0  0  0  0
 22 31  1  0  0  0  0
 23 22  2  0  0  0  0
 24 26  2  0  0  0  0
 24 23  1  0  0  0  0
 25 24  1  0  0  0  0
 26 28  1  0  0  0  0
 27 26  1  0  0  0  0
 28 29  2  0  0  0  0
 31 30  3  0  0  0  0
M  END
>  <minimizedAffinity>
-4.66624212

$$$$

 OpenBabel03272502383D

 31 33  0  0  1  0  0  0  0  0999 V2000
   38.3290   27.0650   34.0620 N   0  0  0  0  0  0  0  0  0  0  0  0
   38.1020   27.4780   35.4380 C   0  0  0  0  0  0  0  0  0  0  0  0
   38.5460   26.2620   36.2270 C   0  0  0  0  0  0  0  0  0  0  0  0
   38.9430   25.2180   35.2100 C   0  0  1  0  0  0  0  0  0  0  0  0
   39.4410   26.1090   34.0960 C   0  0  0  0  0  0  0  0  0  0  0  0
   38.7760   28.3460   35.6250 H   0  0  0  0  0  0  0  0  0  0  0  0
   37.0760   27.7900   35.6540 H   0  0  0  0  0  0  0  0  0  0  0  0
   39.3580   26.5450   36.9050 H   0  0  0  0  0  0  0  0  0  0  0  0
   37.6390   25.8850   36.7240 H   0  0  0  0  0  0  0  0  0  0  0  0
   38.0420   24.6760   34.8480 H   0  0  0  0  0  0  0  0  0  0  0  0
   39.5000   25.6230   33.1250 H   0  0  0  0  0  0  0  0  0  0  0  0
   40.3530   26.6640   34.3960 H   0  0  0  0  0  0  0  0  0  0  0  0
   37.6130   27.5020   32.9110 C   0  0  0  0  0  0  0  0  0  0  0  0
   36.3490   28.0420   33.1100 C   0  0  0  0  0  0  0  0  0  0  0  0
   35.6440   28.4740   31.9820 C   0  0  0  0  0  0  0  0  0  0  0  0
   36.2530   28.3350   30.7480 N   0  0  0  0  0  0  0  0  0  0  0  0
   37.4880   27.8010   30.6070 C   0  0  0  0  0  0  0  0  0  0  0  0
   38.1860   27.3750   31.7000 N   0  0  0  0  0  0  0  0  0  0  0  0
   35.8550   28.1630   34.0350 H   0  0  0  0  0  0  0  0  0  0  0  0
   34.6550   28.9070   32.0400 H   0  0  0  0  0  0  0  0  0  0  0  0
   37.8840   27.7310   29.6010 H   0  0  0  0  0  0  0  0  0  0  0  0
   39.5520   23.2410   36.3780 C   0  0  0  0  0  0  0  0  0  0  0  0
   40.0140   24.3140   35.6090 C   0  0  0  0  0  0  0  0  0  0  0  0
   41.3710   24.3330   35.3670 C   0  0  0  0  0  0  0  0  0  0  0  0
   41.6850   25.1770   34.7700 H   0  0  0  0  0  0  0  0  0  0  0  0
   42.2250   23.3630   35.8440 C   0  0  0  0  0  0  0  0  0  0  0  0
   43.2660   23.5010   35.5770 H   0  0  0  0  0  0  0  0  0  0  0  0
   41.7620   22.3240   36.5920 C   0  0  0  0  0  3  0  0  0  0  0  0
   40.4300   22.2640   36.8570 C   0  0  0  0  0  3  0  0  0  0  0  0
   37.0770   22.8910   37.0490 N   0  0  0  0  0  0  0  0  0  0  0  0
   38.1720   23.0430   36.7410 C   0  0  0  0  0  0  0  0  0  0  0  0
  1  5  1  0  0  0  0
  1  2  1  0  0  0  0
  2  6  1  0  0  0  0
  2  7  1  0  0  0  0
  2  3  1  0  0  0  0
  3  9  1  0  0  0  0
  3  8  1  0  0  0  0
  4 10  1  6  0  0  0
  4 23  1  0  0  0  0
  4  3  1  0  0  0  0
  5 12  1  0  0  0  0
  5  4  1  0  0  0  0
 11  5  1  0  0  0  0
 13 14  1  0  0  0  0
 13  1  1  0  0  0  0
 14 19  1  0  0  0  0
 15 20  1  0  0  0  0
 15 14  2  0  0  0  0
 16 15  1  0  0  0  0
 17 16  2  0  0  0  0
 17 18  1  0  0  0  0
 18 13  2  0  0  0  0
 21 17  1  0  0  0  0
 22 31  1  0  0  0  0
 22 29  1  0  0  0  0
 23 22  2  0  0  0  0
 24 23  1  0  0  0  0
 24 26  2  0  0  0  0
 25 24  1  0  0  0  0
 26 28  1  0  0  0  0
 27 26  1  0  0  0  0
 28 29  2  0  0  0  0
 31 30  3  0  0  0  0
M  END
>  <minimizedAffinity>
-4.62869072

$$$$

 OpenBabel03272502383D

 31 33  0  0  1  0  0  0  0  0999 V2000
   37.7250   25.4100   32.7270 N   0  0  0  0  0  0  0  0  0  0  0  0
   37.3130   24.0450   32.4430 C   0  0  0  0  0  0  0  0  0  0  0  0
   37.8590   23.2800   33.6340 C   0  0  0  0  0  0  0  0  0  0  0  0
   38.5990   24.2870   34.4820 C   0  0  1  0  0  0  0  0  0  0  0  0
   37.7890   25.5280   34.1870 C   0  0  0  0  0  0  0  0  0  0  0  0
   36.1990   24.0420   32.4420 H   0  0  0  0  0  0  0  0  0  0  0  0
   37.6570   23.6580   31.4790 H   0  0  0  0  0  0  0  0  0  0  0  0
   37.0350   22.7870   34.1580 H   0  0  0  0  0  0  0  0  0  0  0  0
   38.6210   22.5990   33.2230 H   0  0  0  0  0  0  0  0  0  0  0  0
   39.6270   24.4390   34.0850 H   0  0  0  0  0  0  0  0  0  0  0  0
   38.2920   26.4610   34.4310 H   0  0  0  0  0  0  0  0  0  0  0  0
   36.7550   25.4410   34.5770 H   0  0  0  0  0  0  0  0  0  0  0  0
   38.0100   26.4300   31.7740 C   0  0  0  0  0  0  0  0  0  0  0  0
   39.3460   26.7130   31.5190 C   0  0  0  0  0  0  0  0  0  0  0  0
   39.6300   27.7130   30.5830 C   0  0  0  0  0  0  0  0  0  0  0  0
   38.5630   28.3500   29.9770 N   0  0  0  0  0  0  0  0  0  0  0  0
   37.2770   28.0380   30.2600 C   0  0  0  0  0  0  0  0  0  0  0  0
   36.9880   27.0640   31.1720 N   0  0  0  0  0  0  0  0  0  0  0  0
   40.1830   26.2480   31.9640 H   0  0  0  0  0  0  0  0  0  0  0  0
   40.6390   28.0010   30.3220 H   0  0  0  0  0  0  0  0  0  0  0  0
   36.5080   28.5910   29.7360 H   0  0  0  0  0  0  0  0  0  0  0  0
   39.6560   23.2430   36.3350 C   0  0  0  0  0  0  0  0  0  0  0  0
   38.5870   24.0430   35.9180 C   0  0  0  0  0  0  0  0  0  0  0  0
   37.7250   24.4530   36.9130 C   0  0  0  0  0  0  0  0  0  0  0  0
   36.9150   25.0670   36.5480 H   0  0  0  0  0  0  0  0  0  0  0  0
   37.8960   24.1050   38.2350 C   0  0  0  0  0  0  0  0  0  0  0  0
   37.1450   24.4960   38.9100 H   0  0  0  0  0  0  0  0  0  0  0  0
   38.9410   23.3250   38.6270 C   0  0  0  0  0  3  0  0  0  0  0  0
   39.8180   22.8970   37.6800 C   0  0  0  0  0  3  0  0  0  0  0  0
   41.4490   22.2870   34.7330 N   0  0  0  0  0  0  0  0  0  0  0  0
   40.6620   22.7150   35.4510 C   0  0  0  0  0  0  0  0  0  0  0  0
  1  5  1  0  0  0  0
  2  1  1  0  0  0  0
  2  3  1  0  0  0  0
  3  8  1  0  0  0  0
  3  4  1  0  0  0  0
  4 10  1  6  0  0  0
  4 23  1  0  0  0  0
  5 11  1  0  0  0  0
  5  4  1  0  0  0  0
  5 12  1  0  0  0  0
  6  2  1  0  0  0  0
  7  2  1  0  0  0  0
  9  3  1  0  0  0  0
 13  1  1  0  0  0  0
 14 13  1  0  0  0  0
 14 19  1  0  0  0  0
 15 14  2  0  0  0  0
 16 17  2  0  0  0  0
 16 15  1  0  0  0  0
 17 18  1  0  0  0  0
 18 13  2  0  0  0  0
 20 15  1  0  0  0  0
 21 17  1  0  0  0  0
 22 29  1  0  0  0  0
 23 22  2  0  0  0  0
 23 24  1  0  0  0  0
 24 26  2  0  0  0  0
 25 24  1  0  0  0  0
 26 28  1  0  0  0  0
 26 27  1  0  0  0  0
 29 28  2  0  0  0  0
 30 31  3  0  0  0  0
 31 22  1  0  0  0  0
M  END
>  <minimizedAffinity>
-4.59509611

$$$$

 OpenBabel03272502383D

 31 33  0  0  1  0  0  0  0  0999 V2000
   38.5720   25.1820   35.5450 N   0  0  0  0  0  0  0  0  0  0  0  0
   38.3070   26.3080   36.4270 C   0  0  0  0  0  0  0  0  0  0  0  0
   38.1380   27.4590   35.4530 C   0  0  0  0  0  0  0  0  0  0  0  0
   38.3810   26.8880   34.0760 C   0  0  1  0  0  0  0  0  0  0  0  0
   37.8860   25.4760   34.2830 C   0  0  0  0  0  0  0  0  0  0  0  0
   37.3510   26.0830   36.9520 H   0  0  0  0  0  0  0  0  0  0  0  0
   39.0790   26.4840   37.1820 H   0  0  0  0  0  0  0  0  0  0  0  0
   37.1420   27.8960   35.5780 H   0  0  0  0  0  0  0  0  0  0  0  0
   38.9740   28.1450   35.6590 H   0  0  0  0  0  0  0  0  0  0  0  0
   39.4730   26.8480   33.8660 H   0  0  0  0  0  0  0  0  0  0  0  0
   38.2310   24.7650   33.5350 H   0  0  0  0  0  0  0  0  0  0  0  0
   36.7950   25.4520   34.4790 H   0  0  0  0  0  0  0  0  0  0  0  0
   39.3440   24.0240   35.8480 C   0  0  0  0  0  0  0  0  0  0  0  0
   39.3030   23.5510   37.1540 C   0  0  0  0  0  0  0  0  0  0  0  0
   40.0590   22.4130   37.4550 C   0  0  0  0  0  0  0  0  0  0  0  0
   40.7920   21.8370   36.4340 N   0  0  0  0  0  0  0  0  0  0  0  0
   40.7990   22.3370   35.1760 C   0  0  0  0  0  0  0  0  0  0  0  0
   40.0660   23.4470   34.8710 N   0  0  0  0  0  0  0  0  0  0  0  0
   38.7560   23.9650   37.9560 H   0  0  0  0  0  0  0  0  0  0  0  0
   40.0880   21.9750   38.4430 H   0  0  0  0  0  0  0  0  0  0  0  0
   41.4040   21.8200   34.4430 H   0  0  0  0  0  0  0  0  0  0  0  0
   38.3800   27.6260   31.8180 C   0  0  0  0  0  0  0  0  0  0  0  0
   37.6270   27.5010   32.9900 C   0  0  0  0  0  0  0  0  0  0  0  0
   36.3320   27.9680   32.9200 C   0  0  0  0  0  0  0  0  0  0  0  0
   35.7870   27.8520   33.8450 H   0  0  0  0  0  0  0  0  0  0  0  0
   35.8030   28.5220   31.7750 C   0  0  0  0  0  0  0  0  0  0  0  0
   34.7730   28.8460   31.8590 H   0  0  0  0  0  0  0  0  0  0  0  0
   36.5470   28.6380   30.6410 C   0  0  0  0  0  3  0  0  0  0  0  0
   37.8310   28.1910   30.6630 C   0  0  0  0  0  3  0  0  0  0  0  0
   40.8460   26.8780   31.5790 N   0  0  0  0  0  0  0  0  0  0  0  0
   39.7490   27.2000   31.6890 C   0  0  0  0  0  0  0  0  0  0  0  0
  1 13  1  0  0  0  0
  1  2  1  0  0  0  0
  2  6  1  0  0  0  0
  2  7  1  0  0  0  0
  3  8  1  0  0  0  0
  3  9  1  0  0  0  0
  3  2  1  0  0  0  0
  4 10  1  6  0  0  0
  4  5  1  0  0  0  0
  4  3  1  0  0  0  0
  5 12  1  0  0  0  0
  5  1  1  0  0  0  0
 11  5  1  0  0  0  0
 13 14  1  0  0  0  0
 14 15  2  0  0  0  0
 14 19  1  0  0  0  0
 15 20  1  0  0  0  0
 16 15  1  0  0  0  0
 17 16  2  0  0  0  0
 18 17  1  0  0  0  0
 18 13  2  0  0  0  0
 21 17  1  0  0  0  0
 22 23  1  0  0  0  0
 23  4  1  0  0  0  0
 24 23  2  0  0  0  0
 24 25  1  0  0  0  0
 26 27  1  0  0  0  0
 26 24  1  0  0  0  0
 28 29  1  0  0  0  0
 28 26  2  0  0  0  0
 29 22  2  0  0  0  0
 30 31  3  0  0  0  0
 31 22  1  0  0  0  0
M  END
>  <minimizedAffinity>
-4.58401394

$$$$

 OpenBabel03272502383D

 31 33  0  0  1  0  0  0  0  0999 V2000
   38.1930   25.3850   35.0920 N   0  0  0  0  0  0  0  0  0  0  0  0
   37.1730   26.4180   35.1880 C   0  0  0  0  0  0  0  0  0  0  0  0
   37.6250   27.4270   34.1500 C   0  0  0  0  0  0  0  0  0  0  0  0
   38.9200   26.8980   33.5790 C   0  0  1  0  0  0  0  0  0  0  0  0
   38.6790   25.4110   33.7090 C   0  0  0  0  0  0  0  0  0  0  0  0
   36.2100   25.9430   34.8930 H   0  0  0  0  0  0  0  0  0  0  0  0
   37.0520   26.8430   36.1890 H   0  0  0  0  0  0  0  0  0  0  0  0
   36.8360   27.5560   33.4020 H   0  0  0  0  0  0  0  0  0  0  0  0
   37.8810   28.3370   34.7150 H   0  0  0  0  0  0  0  0  0  0  0  0
   39.7700   27.1730   34.2420 H   0  0  0  0  0  0  0  0  0  0  0  0
   39.5790   24.8050   33.6540 H   0  0  0  0  0  0  0  0  0  0  0  0
   37.8500   25.0760   33.0540 H   0  0  0  0  0  0  0  0  0  0  0  0
   38.6310   24.5190   36.1350 C   0  0  0  0  0  0  0  0  0  0  0  0
   37.9400   24.5670   37.3400 C   0  0  0  0  0  0  0  0  0  0  0  0
   38.3670   23.7170   38.3650 C   0  0  0  0  0  0  0  0  0  0  0  0
   39.4440   22.8880   38.1100 N   0  0  0  0  0  0  0  0  0  0  0  0
   40.0830   22.8780   36.9170 C   0  0  0  0  0  0  0  0  0  0  0  0
   39.6770   23.7040   35.9090 N   0  0  0  0  0  0  0  0  0  0  0  0
   37.1170   25.1870   37.5680 H   0  0  0  0  0  0  0  0  0  0  0  0
   37.8910   23.6860   39.3360 H   0  0  0  0  0  0  0  0  0  0  0  0
   40.9170   22.1950   36.8090 H   0  0  0  0  0  0  0  0  0  0  0  0
   40.5360   27.4140   31.9180 C   0  0  0  0  0  0  0  0  0  0  0  0
   39.1770   27.2170   32.1810 C   0  0  0  0  0  0  0  0  0  0  0  0
   38.3340   27.3540   31.1000 C   0  0  0  0  0  0  0  0  0  0  0  0
   37.2950   27.1940   31.3470 H   0  0  0  0  0  0  0  0  0  0  0  0
   38.7890   27.6650   29.8370 C   0  0  0  0  0  0  0  0  0  0  0  0
   38.0180   27.7420   29.0800 H   0  0  0  0  0  0  0  0  0  0  0  0
   40.1160   27.8550   29.5940 C   0  0  0  0  0  3  0  0  0  0  0  0
   40.9850   27.7290   30.6320 C   0  0  0  0  0  3  0  0  0  0  0  0
   42.4080   27.2560   33.6990 N   0  0  0  0  0  0  0  0  0  0  0  0
   41.5740   27.3160   32.9120 C   0  0  0  0  0  0  0  0  0  0  0  0
  1  2  1  0  0  0  0
  1 13  1  0  0  0  0
  2  7  1  0  0  0  0
  3  9  1  0  0  0  0
  3  2  1  0  0  0  0
  4  5  1  0  0  0  0
  4  3  1  0  0  0  0
  4 10  1  1  0  0  0
  5  1  1  0  0  0  0
  6  2  1  0  0  0  0
  8  3  1  0  0  0  0
 11  5  1  0  0  0  0
 12  5  1  0  0  0  0
 13 14  1  0  0  0  0
 14 19  1  0  0  0  0
 14 15  2  0  0  0  0
 15 20  1  0  0  0  0
 16 15  1  0  0  0  0
 17 16  2  0  0  0  0
 18 13  2  0  0  0  0
 18 17  1  0  0  0  0
 21 17  1  0  0  0  0
 22 23  1  0  0  0  0
 22 31  1  0  0  0  0
 23  4  1  0  0  0  0
 24 25  1  0  0  0  0
 24 23  2  0  0  0  0
 26 24  1  0  0  0  0
 27 26  1  0  0  0  0
 28 26  2  0  0  0  0
 28 29  1  0  0  0  0
 29 22  2  0  0  0  0
 31 30  3  0  0  0  0
M  END
>  <minimizedAffinity>
-4.55754137

$$$$
