
 OpenBabel03272509053D

 34 36  0  0  0  0  0  0  0  0999 V2000
   37.5700   30.3020   51.2030 C   0  0  0  0  0  0  0  0  0  0  0  0
   38.2140   30.8160   50.0580 C   0  0  0  0  0  0  0  0  0  0  0  0
   37.6540   30.5820   48.7650 C   0  0  0  0  0  0  0  0  0  0  0  0
   36.5090   29.8610   48.7360 N   0  0  0  0  0  0  0  0  0  0  0  0
   35.9290   29.3910   49.8490 C   0  0  0  0  0  0  0  0  0  0  0  0
   36.4360   29.5990   51.0680 N   0  0  0  0  0  0  0  0  0  0  0  0
   37.9010   30.4180   52.2070 H   0  0  0  0  0  0  0  0  0  0  0  0
   39.0880   31.3340   50.3500 H   0  0  0  0  0  0  0  0  0  0  0  0
   38.9850   32.3680   47.6230 C   0  0  0  0  0  0  0  0  0  0  0  0
   38.4210   31.1340   47.6670 C   0  0  0  0  0  0  0  0  0  0  0  0
   38.6220   30.4040   46.5170 C   0  0  0  0  0  0  0  0  0  0  0  0
   38.2670   29.4050   46.3480 H   0  0  0  0  0  0  0  0  0  0  0  0
   39.3200   30.8620   45.4310 C   0  0  0  0  0  0  0  0  0  0  0  0
   39.4780   30.2910   44.5310 H   0  0  0  0  0  0  0  0  0  0  0  0
   39.8780   32.1200   45.4240 C   0  0  0  0  0  3  0  0  0  0  0  0
   39.7020   32.8860   46.5530 C   0  0  0  0  0  3  0  0  0  0  0  0
   38.7360   33.9830   49.6050 N   0  0  0  0  0  0  0  0  0  0  0  0
   38.8400   33.2520   48.7190 C   0  0  0  0  0  0  0  0  0  0  0  0
   34.7020   28.6450   49.6640 C   0  0  0  0  0  3  0  0  0  0  0  0
   34.4790   28.0560   48.5380 C   0  0  0  0  0  3  0  0  0  0  0  0
   33.3330   27.2500   48.1200 C   0  0  0  0  0  0  0  0  0  0  0  0
   32.8980   26.7020   48.9790 H   0  0  0  0  0  0  0  0  0  0  0  0
   32.5420   27.9320   47.7270 H   0  0  0  0  0  0  0  0  0  0  0  0
   33.6760   26.2130   47.0960 C   0  0  0  0  0  0  0  0  0  0  0  0
   33.8330   24.8760   47.3430 C   0  0  0  0  0  0  0  0  0  0  0  0
   34.1510   24.0180   46.3190 C   0  0  0  0  0  0  0  0  0  0  0  0
   34.3210   24.4770   45.0080 C   0  0  0  0  0  0  0  0  0  0  0  0
   34.1650   25.8190   44.7500 C   0  0  0  0  0  0  0  0  0  0  0  0
   33.8450   26.6870   45.7820 C   0  0  0  0  0  0  0  0  0  0  0  0
   33.6960   24.5420   48.3630 H   0  0  0  0  0  0  0  0  0  0  0  0
   34.2620   22.9720   46.5770 H   0  0  0  0  0  0  0  0  0  0  0  0
   34.5740   23.7190   44.2550 H   0  0  0  0  0  0  0  0  0  0  0  0
   34.3020   26.1560   43.7290 H   0  0  0  0  0  0  0  0  0  0  0  0
   33.7450   27.7190   45.4750 H   0  0  0  0  0  0  0  0  0  0  0  0
  1  7  1  0  0  0  0
  2  8  1  0  0  0  0
  2  1  2  0  0  0  0
  3  2  1  0  0  0  0
  4  3  2  0  0  0  0
  4  5  1  0  0  0  0
  5  6  2  0  0  0  0
  6  1  1  0  0  0  0
  9 10  1  0  0  0  0
  9 18  1  0  0  0  0
 10  3  1  0  0  0  0
 11 10  2  0  0  0  0
 12 11  1  0  0  0  0
 13 11  1  0  0  0  0
 14 13  1  0  0  0  0
 15 13  2  0  0  0  0
 15 16  1  0  0  0  0
 16  9  2  0  0  0  0
 18 17  3  0  0  0  0
 19  5  1  0  0  0  0
 20 19  2  0  0  0  0
 21 20  1  0  0  0  0
 21 22  1  0  0  0  0
 23 21  1  0  0  0  0
 24 25  1  0  0  0  0
 24 21  1  0  0  0  0
 25 30  1  0  0  0  0
 26 31  1  0  0  0  0
 26 25  2  0  0  0  0
 27 26  1  0  0  0  0
 28 27  2  0  0  0  0
 28 29  1  0  0  0  0
 29 24  2  0  0  0  0
 32 27  1  0  0  0  0
 33 28  1  0  0  0  0
 34 29  1  0  0  0  0
M  END
>  <minimizedAffinity>
-6.52003002

>  <minimizedRMSD>
0.883930147

$$$$
