REMARK  Name = 
REMARK  5 active torsions:
REMARK  status: ('A' for Active; 'I' for Inactive)
REMARK    1  A    between atoms: C_3  and  C_12
REMARK    2  A    between atoms: C_7  and  S_14
REMARK    3  A    between atoms: S_14  and  C_17
REMARK    4  A    between atoms: C_21  and  C_34
REMARK    5  A    between atoms: C_32  and  C_33
REMARK                            x       y       z     vdW  Elec       q    Type
REMARK                         _______ _______ _______ _____ _____    ______ ____
ROOT
ATOM      1  S   UNL     1      34.050  29.939  47.496  0.00  0.00    +0.000 S 
ENDROOT
BRANCH   1   8
ATOM      2 CL   UNL     1      36.389  30.911  45.690  0.00  0.00    +0.000 Cl
ATOM      3  C   UNL     1      36.681  30.760  47.402  0.00  0.00    +0.000 A 
ATOM      4  C   UNL     1      37.941  31.082  47.866  0.00  0.00    +0.000 A 
ATOM      5  C   UNL     1      38.181  30.964  49.231  0.00  0.00    +0.000 A 
ATOM      6  C   UNL     1      37.177  30.538  50.066  0.00  0.00    +0.000 A 
ATOM      7  C   UNL     1      35.938  30.233  49.534  0.00  0.00    +0.000 A 
ATOM      8  C   UNL     1      35.627  30.324  48.200  0.00  0.00    +0.000 A 
ATOM      9  H   UNL     1      39.146  31.204  49.631  0.00  0.00    +0.000 HD
ATOM     10  H   UNL     1      37.359  30.445  51.129  0.00  0.00    +0.000 HD
ATOM     11  H   UNL     1      35.159  29.898  50.211  0.00  0.00    +0.000 HD
BRANCH   4  16
ATOM     12  C   UNL     1      40.198  33.310  46.081  0.00  0.00    +0.000 A 
ATOM     13  C   UNL     1      40.917  32.461  45.212  0.00  0.00    +0.000 A 
ATOM     14  C   UNL     1      40.599  31.100  45.263  0.00  0.00    +0.000 A 
ATOM     15  N   UNL     1      39.630  30.674  46.130  0.00  0.00    +0.000 NA
ATOM     16  C   UNL     1      38.980  31.532  46.933  0.00  0.00    +0.000 A 
ATOM     17  N   UNL     1      39.267  32.834  46.903  0.00  0.00    +0.000 NA
ATOM     18  H   UNL     1      40.369  34.391  46.121  0.00  0.00    +0.000 HD
ATOM     19  H   UNL     1      41.658  32.910  44.572  0.00  0.00    +0.000 HD
ATOM     20  H   UNL     1      41.138  30.445  44.607  0.00  0.00    +0.000 HD
ENDBRANCH   4  16
ENDBRANCH   1   8
BRANCH   1  23
ATOM     21 CL   UNL     1      33.748  29.173  44.462  0.00  0.00    +0.000 Cl
ATOM     22  C   UNL     1      33.779  27.953  45.727  0.00  0.00    +0.000 A 
ATOM     23  C   UNL     1      33.909  28.197  47.084  0.00  0.00    +0.000 A 
ATOM     24  C   UNL     1      33.920  27.153  47.979  0.00  0.00    +0.000 A 
ATOM     25  C   UNL     1      33.804  25.869  47.540  0.00  0.00    +0.000 A 
ATOM     26  C   UNL     1      33.671  25.564  46.181  0.00  0.00    +0.000 A 
ATOM     27  C   UNL     1      33.663  26.625  45.312  0.00  0.00    +0.000 A 
ATOM     28  H   UNL     1      34.026  27.446  49.023  0.00  0.00    +0.000 HD
ATOM     29  H   UNL     1      33.819  25.093  48.278  0.00  0.00    +0.000 HD
ATOM     30  H   UNL     1      33.583  24.536  45.875  0.00  0.00    +0.000 HD
BRANCH  27  32
ATOM     31  C   UNL     1      34.063  24.993  43.605  0.00  0.00    +0.000 A 
ATOM     32  C   UNL     1      33.522  26.245  43.905  0.00  0.00    +0.000 A 
ATOM     33  C   UNL     1      32.917  27.013  42.914  0.00  0.00    +0.000 A 
ATOM     34  H   UNL     1      32.526  27.962  43.223  0.00  0.00    +0.000 HD
ATOM     35  C   UNL     1      32.877  26.489  41.642  0.00  0.00    +0.000 A 
ATOM     36  H   UNL     1      32.396  27.122  40.901  0.00  0.00    +0.000 HD
ATOM     37  C   UNL     1      33.397  25.260  41.300  0.00  0.00    +0.000 A 
ATOM     38  C   UNL     1      33.989  24.527  42.308  0.00  0.00    +0.000 A 
BRANCH  31  40
ATOM     39  N   UNL     1      35.191  23.496  45.395  0.00  0.00    +0.000 NA
ATOM     40  C   UNL     1      34.700  24.161  44.600  0.00  0.00    +0.000 C 
ENDBRANCH  31  40
ENDBRANCH  27  32
ENDBRANCH   1  23
TORSDOF 5
