
     RDKit          3D

 49 53  0  0  0  0  0  0  0  0999 V2000
   38.0804   31.3025   47.7735 C   0  0  0  0  0  0  0  0  0  0  0  0
   37.0854   31.3049   48.7309 C   0  0  0  0  0  0  0  0  0  0  0  0
   37.1252   32.4077   49.5901 C   0  0  0  0  0  0  0  0  0  0  0  0
   38.1030   33.4134   49.4698 C   0  0  0  0  0  0  0  0  0  0  0  0
   39.0674   33.3042   48.4549 C   0  0  0  0  0  0  0  0  0  0  0  0
   39.0393   32.2165   47.5966 C   0  0  0  0  0  0  0  0  0  0  0  0
   34.9626   30.3069   48.0467 C   0  0  0  0  0  0  0  0  0  0  0  0
   36.0927   30.2885   48.8569 C   0  0  0  0  0  0  0  0  0  0  0  0
   36.2142   29.2433   49.7904 C   0  0  0  0  0  0  0  0  0  0  0  0
   35.2299   28.3137   49.8519 N   0  0  0  0  0  0  0  0  0  0  0  0
   34.1364   28.3758   49.0319 C   0  0  0  0  0  0  0  0  0  0  0  0
   34.0108   29.3629   48.1427 N   0  0  0  0  0  0  0  0  0  0  0  0
   37.3995   29.1724   50.6821 C   0  0  0  0  0  0  0  0  0  0  0  0
   38.1261   30.2391   46.8643 O   0  0  0  0  0  0  0  0  0  0  0  0
   40.0274   32.1969   46.6319 O   0  0  0  0  0  0  0  0  0  0  0  0
   40.5657   31.1775   44.4118 C   0  0  0  0  0  0  0  0  0  0  0  0
   39.8651   31.9799   45.2893 C   0  0  0  0  0  0  0  0  0  0  0  0
   38.7908   32.7328   44.8022 C   0  0  0  0  0  0  0  0  0  0  0  0
   38.4363   32.6704   43.4486 C   0  0  0  0  0  0  0  0  0  0  0  0
   37.4944   33.2427   42.6844 N   0  0  0  0  0  0  0  0  0  0  0  0
   37.5936   32.8289   41.4084 C   0  0  0  0  0  0  0  0  0  0  0  0
   38.6388   31.9620   41.3670 N   0  0  0  0  0  0  0  0  0  0  0  0
   39.1664   31.8531   42.6070 C   0  0  0  0  0  0  0  0  0  0  0  0
   40.2255   31.1089   43.0798 C   0  0  0  0  0  0  0  0  0  0  0  0
   36.3757   32.4686   50.3594 H   0  0  0  0  0  0  0  0  0  0  0  0
   38.0868   34.2454   50.1623 H   0  0  0  0  0  0  0  0  0  0  0  0
   39.8024   34.1041   48.4001 H   0  0  0  0  0  0  0  0  0  0  0  0
   34.7954   31.0713   47.3089 H   0  0  0  0  0  0  0  0  0  0  0  0
   33.4743   27.5519   49.2344 H   0  0  0  0  0  0  0  0  0  0  0  0
   37.8959   30.1545   50.6734 H   0  0  0  0  0  0  0  0  0  0  0  0
   38.1051   28.4482   50.2211 H   0  0  0  0  0  0  0  0  0  0  0  0
   37.1134   28.8132   51.6772 H   0  0  0  0  0  0  0  0  0  0  0  0
   37.3374   30.1421   46.2436 H   0  0  0  0  0  0  0  0  0  0  0  0
   41.3630   30.6506   44.8957 H   0  0  0  0  0  0  0  0  0  0  0  0
   38.1504   33.4031   45.3614 H   0  0  0  0  0  0  0  0  0  0  0  0
   36.7915   33.9058   43.0198 H   0  0  0  0  0  0  0  0  0  0  0  0
   36.9722   33.1253   40.5932 H   0  0  0  0  0  0  0  0  0  0  0  0
   38.1102   29.9128   40.4333 N   0  0  0  0  0  0  0  0  0  0  0  0
   39.2095   29.7594   40.7400 C   0  0  0  0  0  0  0  0  0  0  0  0
   40.5854   29.5676   41.0985 C   0  0  0  0  0  0  0  0  0  0  0  0
   41.0210   30.2346   42.2248 C   0  0  0  0  0  0  0  0  0  0  0  0
   42.3316   30.1178   42.6581 C   0  0  0  0  0  0  0  0  0  0  0  0
   42.7460   30.6195   43.5446 H   0  0  0  0  0  0  0  0  0  0  0  0
   43.2446   29.3247   41.9694 C   0  0  0  0  0  0  0  0  0  0  0  0
   44.2757   29.2361   42.3150 H   0  0  0  0  0  0  0  0  0  0  0  0
   42.7869   28.6553   40.8299 C   0  0  0  0  0  0  0  0  0  0  0  0
   41.4760   28.7765   40.4026 C   0  0  0  0  0  0  0  0  0  0  0  0
   43.5010   28.0527   40.3160 H   0  0  0  0  0  0  0  0  0  0  0  0
   41.1177   28.2608   39.5222 H   0  0  0  0  0  0  0  0  0  0  0  0
  1  2  2  0
  2  8  1  0
  2  3  1  0
  4  3  2  0
  5  4  1  0
  6  1  1  0
  6  5  2  0
  7 12  2  0
  7  8  1  0
  8  9  2  0
  9 10  1  0
  9 13  1  0
 11 10  2  0
 12 11  1  0
 14  1  1  0
 15  6  1  0
 16 17  2  0
 17 15  1  0
 18 17  1  0
 19 18  2  0
 20 19  1  0
 21 20  1  0
 22 21  2  0
 22 23  1  0
 23 24  2  0
 23 19  1  0
 24 16  1  0
  3 25  1  0
  4 26  1  0
  5 27  1  0
  7 28  1  0
 11 29  1  0
 13 30  1  0
 13 31  1  0
 13 32  1  0
 14 33  1  0
 16 34  1  0
 18 35  1  0
 20 36  1  0
 21 37  1  0
 38 39  3  0
 39 40  1  0
 40 41  2  0
 41 42  1  0
 42 43  1  0
 42 44  2  0
 44 45  1  0
 44 46  1  0
 46 47  2  0
 47 40  1  0
 46 48  1  0
 47 49  1  0
 24 41  1  0
M  ISO  8  25  14  26  14  27  14  28  14  29  14  30   8  31   8  32   8
M  ISO  7  33   3  34  14  35  14  36   9  37  14  43  15  45  16
M  END
>  <DihAtoms>  (1) 
22,23,40,39

>  <DihDeg>  (1) 
90.00022024166259

$$$$
