
 OpenBabel03272502563D

 43 46  0  0  0  0  0  0  0  0999 V2000
   34.3880   29.0590   48.1880 C   0  0  0  0  0  0  0  0  0  0  0  0
   33.7790   27.9460   48.7650 C   0  0  0  0  0  0  0  0  0  0  0  0
   32.5310   27.5200   48.3470 C   0  0  0  0  0  0  0  0  0  0  0  0
   31.9370   28.2610   47.3380 C   0  0  0  0  0  0  0  0  0  0  0  0
   32.5270   29.3680   46.7550 C   0  0  0  0  0  0  0  0  0  0  0  0
   33.7550   29.7380   47.2070 N   0  0  0  0  0  0  0  0  0  0  0  0
   31.8260   30.0380   45.7360 N   0  0  0  0  0  0  0  0  0  0  0  0
   30.4230   29.7760   45.5610 C   0  0  0  0  0  0  0  0  0  0  0  0
   29.9900   30.5100   44.3050 C   0  0  0  0  0  0  0  0  0  0  0  0
   30.2560   31.9920   44.4640 C   0  0  0  0  0  0  0  0  0  0  0  0
   31.6650   32.2700   44.8630 C   0  0  0  0  0  0  0  0  0  0  0  0
   32.4550   30.9980   44.8340 C   0  0  0  0  0  0  0  0  0  0  0  0
   34.3310   27.4370   49.5490 H   0  0  0  0  0  0  0  0  0  0  0  0
   32.0680   26.6560   48.8030 H   0  0  0  0  0  0  0  0  0  0  0  0
   30.9560   27.8720   47.0580 H   0  0  0  0  0  0  0  0  0  0  0  0
   29.9110   30.2080   46.4420 H   0  0  0  0  0  0  0  0  0  0  0  0
   30.1740   28.7110   45.3750 H   0  0  0  0  0  0  0  0  0  0  0  0
   28.9160   30.3570   44.0840 H   0  0  0  0  0  0  0  0  0  0  0  0
   30.5650   30.0850   43.4770 H   0  0  0  0  0  0  0  0  0  0  0  0
   30.1160   32.4260   43.4340 H   0  0  0  0  0  0  0  0  0  0  0  0
   29.5110   32.4750   45.0990 H   0  0  0  0  0  0  0  0  0  0  0  0
   31.6550   32.6650   45.9040 H   0  0  0  0  0  0  0  0  0  0  0  0
   32.1330   33.0420   44.2310 H   0  0  0  0  0  0  0  0  0  0  0  0
   32.5200   30.5890   43.8090 H   0  0  0  0  0  0  0  0  0  0  0  0
   33.4830   31.2100   45.1670 H   0  0  0  0  0  0  0  0  0  0  0  0
   37.2700   29.6990   50.3360 C   0  0  0  0  0  0  0  0  0  0  0  0
   38.1920   30.3070   49.4540 C   0  0  0  0  0  0  0  0  0  0  0  0
   37.7970   30.4780   48.1480 C   0  0  0  0  0  0  0  0  0  0  0  0
   36.5520   30.0530   47.7980 N   0  0  0  0  0  0  0  0  0  0  0  0
   35.6910   29.4780   48.6500 C   0  0  0  0  0  0  0  0  0  0  0  0
   36.0620   29.3090   49.9080 N   0  0  0  0  0  0  0  0  0  0  0  0
   37.5270   29.5360   51.3810 H   0  0  0  0  0  0  0  0  0  0  0  0
   39.1490   30.6160   49.7900 H   0  0  0  0  0  0  0  0  0  0  0  0
   39.0950   32.3870   47.3110 C   0  0  0  0  0  0  0  0  0  0  0  0
   38.6540   31.0910   47.1400 C   0  0  0  0  0  0  0  0  0  0  0  0
   39.0620   30.4470   46.0030 C   0  0  0  0  0  0  0  0  0  0  0  0
   38.7600   29.4450   45.8050 H   0  0  0  0  0  0  0  0  0  0  0  0
   39.8780   31.0770   45.0740 C   0  0  0  0  0  0  0  0  0  0  0  0
   40.1760   30.5210   44.1840 H   0  0  0  0  0  0  0  0  0  0  0  0
   40.3080   32.3870   45.2730 C   0  0  0  0  0  0  0  0  0  0  0  0
   39.9010   33.0270   46.4060 C   0  0  0  0  0  0  0  0  0  0  0  0
   38.4510   33.7990   49.4200 N   0  0  0  0  0  0  0  0  0  0  0  0
   38.7290   33.1730   48.4770 C   0  0  0  0  0  0  0  0  0  0  0  0
  1 30  1  0  0  0  0
  1  2  1  0  0  0  0
  2 13  1  0  0  0  0
  3  2  2  0  0  0  0
  3 14  1  0  0  0  0
  4  3  1  0  0  0  0
  5  6  1  0  0  0  0
  5  4  2  0  0  0  0
  6  1  2  0  0  0  0
  7  5  1  0  0  0  0
  8  7  1  0  0  0  0
  8 16  1  0  0  0  0
  9 10  1  0  0  0  0
  9  8  1  0  0  0  0
 10 11  1  0  0  0  0
 10 21  1  0  0  0  0
 11 22  1  0  0  0  0
 12 11  1  0  0  0  0
 12 25  1  0  0  0  0
 12  7  1  0  0  0  0
 15  4  1  0  0  0  0
 17  8  1  0  0  0  0
 18  9  1  0  0  0  0
 19  9  1  0  0  0  0
 20 10  1  0  0  0  0
 23 11  1  0  0  0  0
 24 12  1  0  0  0  0
 26 32  1  0  0  0  0
 27 33  1  0  0  0  0
 27 26  2  0  0  0  0
 28 27  1  0  0  0  0
 29 28  2  0  0  0  0
 29 30  1  0  0  0  0
 30 31  2  0  0  0  0
 31 26  1  0  0  0  0
 34 43  1  0  0  0  0
 35 34  1  0  0  0  0
 35 28  1  0  0  0  0
 36 35  2  0  0  0  0
 37 36  1  0  0  0  0
 38 40  2  0  0  0  0
 38 36  1  0  0  0  0
 39 38  1  0  0  0  0
 40 41  1  0  0  0  0
 41 34  2  0  0  0  0
 43 42  3  0  0  0  0
M  END
>  <minimizedAffinity>
-6.93544483

>  <minimizedRMSD>
2.36485291

$$$$
