
 OpenBabel03272502183D

 34 36  0  0  1  0  0  0  0  0999 V2000
   37.0170   30.1450   49.0130 C   0  0  0  0  0  0  0  0  0  0  0  0
   37.3530   30.9270   50.1450 C   0  0  0  0  0  0  0  0  0  0  0  0
   38.3310   31.9120   50.0070 C   0  0  0  0  0  0  0  0  0  0  0  0
   38.9190   32.0650   48.7600 N   0  0  0  0  0  0  0  0  0  0  0  0
   38.5640   31.2990   47.7240 C   0  0  0  0  0  0  0  0  0  0  0  0
   37.6310   30.3590   47.8540 N   0  0  0  0  0  0  0  0  0  0  0  0
   36.9200   30.8400   51.1340 H   0  0  0  0  0  0  0  0  0  0  0  0
   38.6130   32.5290   50.8510 H   0  0  0  0  0  0  0  0  0  0  0  0
   39.8900   32.6300   46.1250 C   0  0  0  0  0  0  0  0  0  0  0  0
   39.1870   31.4670   46.4130 C   0  0  0  0  0  0  0  0  0  0  0  0
   39.0690   30.4630   45.4730 C   0  0  0  0  0  0  0  0  0  0  0  0
   38.5170   29.5410   45.6890 H   0  0  0  0  0  0  0  0  0  0  0  0
   39.6530   30.6140   44.2360 C   0  0  0  0  0  0  0  0  0  0  0  0
   39.5770   29.8330   43.4670 H   0  0  0  0  0  0  0  0  0  0  0  0
   40.3700   31.7630   43.8970 C   0  0  0  0  0  3  0  0  0  0  0  0
   40.4740   32.7580   44.8610 C   0  0  0  0  0  3  0  0  0  0  0  0
   40.1600   34.5480   47.8650 N   0  0  0  0  0  0  0  0  0  0  0  0
   40.0310   33.6980   47.0860 C   0  0  0  0  0  0  0  0  0  0  0  0
   35.7630   28.9500   49.3730 S   0  0  0  0  0  0  0  0  0  0  0  0
   33.1230   28.5200   48.9930 N   0  0  0  0  0  0  0  0  0  0  0  0
   34.1020   29.5830   48.9170 C   0  0  2  0  0  0  0  0  0  0  0  0
   34.1450   30.1020   47.5050 C   0  0  0  0  0  0  0  0  0  0  0  0
   32.9890   29.7060   46.7910 O   0  0  0  0  0  0  0  0  0  0  0  0
   33.1210   28.3240   46.6270 C   0  0  0  0  0  0  0  0  0  0  0  0
   33.3750   27.6010   47.9170 C   0  0  2  0  0  0  0  0  0  0  0  0
   32.1850   28.9290   49.0230 H   0  0  0  0  0  0  0  0  0  0  0  0
   33.8560   30.4430   49.5750 H   0  0  0  0  0  0  0  0  0  0  0  0
   35.0710   29.7700   46.9900 H   0  0  0  0  0  0  0  0  0  0  0  0
   34.1550   31.2190   47.4760 H   0  0  0  0  0  0  0  0  0  0  0  0
   32.2740   27.8750   46.0770 H   0  0  0  0  0  0  0  0  0  0  0  0
   34.0260   28.1940   45.9830 H   0  0  0  0  0  0  0  0  0  0  0  0
   34.3960   27.2210   48.0120 H   0  0  0  0  0  0  0  0  0  0  0  0
   32.4890   26.5090   48.0440 O   0  0  0  0  0  0  0  0  0  0  0  0
   31.5630   26.8530   47.9770 H   0  0  0  0  0  0  0  0  0  0  0  0
  1 19  1  0  0  0  0
  1  2  1  0  0  0  0
  2  7  1  0  0  0  0
  3  2  2  0  0  0  0
  3  8  1  0  0  0  0
  4  3  1  0  0  0  0
  5  6  1  0  0  0  0
  5  4  2  0  0  0  0
  6  1  2  0  0  0  0
  9 10  1  0  0  0  0
  9 18  1  0  0  0  0
 10  5  1  0  0  0  0
 11 12  1  0  0  0  0
 11 10  2  0  0  0  0
 13 11  1  0  0  0  0
 14 13  1  0  0  0  0
 15 13  2  0  0  0  0
 15 16  1  0  0  0  0
 16  9  2  0  0  0  0
 18 17  3  0  0  0  0
 20 26  1  0  0  0  0
 21 20  1  0  0  0  0
 21 19  1  0  0  0  0
 21 27  1  1  0  0  0
 22 21  1  0  0  0  0
 23 22  1  0  0  0  0
 24 23  1  0  0  0  0
 24 25  1  0  0  0  0
 25 32  1  1  0  0  0
 25 33  1  0  0  0  0
 25 20  1  0  0  0  0
 28 22  1  0  0  0  0
 29 22  1  0  0  0  0
 30 24  1  0  0  0  0
 31 24  1  0  0  0  0
 34 33  1  0  0  0  0
M  END
>  <minimizedAffinity>
-5.6446476

>  <minimizedRMSD>
0.805100143

$$$$
