REMARK  Name = 
REMARK  6 active torsions:
REMARK  status: ('A' for Active; 'I' for Inactive)
REMARK    1  A    between atoms: C_1  and  O_10
REMARK    2  A    between atoms: C_2  and  N_9
REMARK    3  A    between atoms: O_10  and  C_12
REMARK    4  A    between atoms: C_11  and  C_18
REMARK    5  A    between atoms: C_16  and  C_29
REMARK    6  A    between atoms: C_27  and  C_28
REMARK                            x       y       z     vdW  Elec       q    Type
REMARK                         _______ _______ _______ _____ _____    ______ ____
ROOT
ATOM      1  C   UNL     1      38.919  32.545  47.149  0.00  0.00    +0.000 A 
ATOM      2  C   UNL     1      38.197  32.719  48.301  0.00  0.00    +0.000 A 
ATOM      3  C   UNL     1      38.577  33.670  49.234  0.00  0.00    +0.000 A 
ATOM      4  C   UNL     1      39.700  34.453  48.999  0.00  0.00    +0.000 A 
ATOM      5  C   UNL     1      40.429  34.272  47.828  0.00  0.00    +0.000 A 
ATOM      6  C   UNL     1      40.027  33.313  46.911  0.00  0.00    +0.000 A 
ATOM      7  H   UNL     1      38.056  33.860  50.160  0.00  0.00    +0.000 HD
ATOM      8  H   UNL     1      40.016  35.206  49.719  0.00  0.00    +0.000 HD
ATOM      9  H   UNL     1      41.314  34.858  47.597  0.00  0.00    +0.000 HD
ENDROOT
BRANCH   6  11
ATOM     10  C   UNL     1      42.119  32.973  45.688  0.00  0.00    +0.000 A 
ATOM     11  C   UNL     1      40.739  33.058  45.652  0.00  0.00    +0.000 A 
ATOM     12  C   UNL     1      39.988  32.916  44.489  0.00  0.00    +0.000 A 
ATOM     13  H   UNL     1      38.902  33.001  44.570  0.00  0.00    +0.000 HD
ATOM     14  C   UNL     1      40.677  32.677  43.320  0.00  0.00    +0.000 A 
ATOM     15  H   UNL     1      40.115  32.566  42.421  0.00  0.00    +0.000 HD
ATOM     16  C   UNL     1      42.056  32.590  43.342  0.00  0.00    +0.000 A 
ATOM     17  C   UNL     1      42.799  32.733  44.508  0.00  0.00    +0.000 A 
BRANCH  10  19
ATOM     18  N   UNL     1      43.348  33.252  47.970  0.00  0.00    +0.000 NA
ATOM     19  C   UNL     1      42.806  33.137  46.956  0.00  0.00    +0.000 C 
ENDBRANCH  10  19
ENDBRANCH   6  11
BRANCH   1  21
ATOM     20  N   UNL     1      38.089  30.744  45.501  0.00  0.00    +0.000 NA
ATOM     21  C   UNL     1      38.452  31.538  46.241  0.00  0.00    +0.000 C 
ENDBRANCH   1  21
BRANCH   2  22
ATOM     22  O   UNL     1      37.068  32.021  48.669  0.00  0.00    +0.000 OA
BRANCH  22  23
ATOM     23  C   UNL     1      37.034  31.041  49.612  0.00  0.00    +0.000 A 
ATOM     24  C   UNL     1      36.471  29.867  49.120  0.00  0.00    +0.000 A 
ATOM     25  C   UNL     1      36.343  28.751  49.921  0.00  0.00    +0.000 A 
ATOM     26  N   UNL     1      36.798  28.860  51.217  0.00  0.00    +0.000 NA
ATOM     27  C   UNL     1      37.343  30.009  51.679  0.00  0.00    +0.000 A 
ATOM     28  N   UNL     1      37.453  31.062  50.892  0.00  0.00    +0.000 NA
ATOM     29  H   UNL     1      35.930  27.815  49.645  0.00  0.00    +0.000 HD
ATOM     30  H   UNL     1      37.722  30.179  52.667  0.00  0.00    +0.000 HD
BRANCH  24  33
ATOM     31  C   UNL     1      34.623  29.399  47.586  0.00  0.00    +0.000 C 
ATOM     32  O   UNL     1      33.609  29.139  48.347  0.00  0.00    +0.000 OA
ATOM     33  N   UNL     1      36.010  29.648  47.818  0.00  0.00    +0.000 N 
ATOM     34  H   UNL     1      33.722  29.275  47.000  0.00  0.00    +0.000 HD
ATOM     35  H   UNL     1      36.246  29.562  46.825  0.00  0.00    +0.000 HD
ENDBRANCH  24  33
ENDBRANCH  22  23
ENDBRANCH   2  22
TORSDOF 6
