
 OpenBabel03262523053D

 42 46  0  0  0  0  0  0  0  0999 V2000
   37.0150   30.4120   49.2540 C   0  0  0  0  0  0  0  0  0  0  0  0
   37.2190   30.2990   50.6120 C   0  0  0  0  0  0  0  0  0  0  0  0
   36.3640   29.5310   51.3510 C   0  0  0  0  0  0  0  0  0  0  0  0
   35.3280   28.8880   50.7450 N   0  0  0  0  0  0  0  0  0  0  0  0
   35.1600   29.0170   49.4390 C   0  0  0  0  0  0  0  0  0  0  0  0
   35.9890   29.7710   48.6820 N   0  0  0  0  0  0  0  0  0  0  0  0
   38.0570   30.8280   51.0520 H   0  0  0  0  0  0  0  0  0  0  0  0
   36.5210   29.4380   52.4210 H   0  0  0  0  0  0  0  0  0  0  0  0
   34.0510   28.3350   48.7700 C   0  0  0  0  0  0  0  0  0  0  0  0
   34.2170   27.6430   47.6010 C   0  0  0  0  0  0  0  0  0  0  0  0
   33.2690   26.9670   46.8800 C   0  0  0  0  0  0  0  0  0  0  0  0
   31.9900   27.0160   47.4420 C   0  0  0  0  0  0  0  0  0  0  0  0
   30.9950   26.3720   46.7890 N   0  0  0  0  0  0  0  0  0  0  0  0
   29.7290   26.3500   47.2340 C   0  0  0  0  0  0  0  0  0  0  0  0
   29.4290   27.0180   48.4150 C   0  0  0  0  0  0  0  0  0  0  0  0
   30.4480   27.6780   49.0840 C   0  0  0  0  0  0  0  0  0  0  0  0
   31.7510   27.6960   48.6190 C   0  0  0  0  0  0  0  0  0  0  0  0
   32.7590   28.3490   49.2810 C   0  0  0  0  0  0  0  0  0  0  0  0
   35.2320   27.6320   47.2010 H   0  0  0  0  0  0  0  0  0  0  0  0
   33.5020   26.4460   45.9610 H   0  0  0  0  0  0  0  0  0  0  0  0
   28.9250   25.8340   46.7140 H   0  0  0  0  0  0  0  0  0  0  0  0
   28.4090   27.0020   48.7730 H   0  0  0  0  0  0  0  0  0  0  0  0
   30.2020   28.2060   50.0190 H   0  0  0  0  0  0  0  0  0  0  0  0
   32.5510   28.8740   50.1980 H   0  0  0  0  0  0  0  0  0  0  0  0
   39.2290   33.0900   48.0610 C   0  0  0  0  0  0  0  0  0  0  0  0
   39.5430   32.6600   46.7570 C   0  0  0  0  0  0  0  0  0  0  0  0
   38.9790   31.4460   46.3120 C   0  0  0  0  0  0  0  0  0  0  0  0
   38.1790   30.7900   47.1820 N   0  0  0  0  0  0  0  0  0  0  0  0
   37.8990   31.2230   48.4170 C   0  0  0  0  0  0  0  0  0  0  0  0
   38.4240   32.3710   48.8510 N   0  0  0  0  0  0  0  0  0  0  0  0
   39.6360   34.0080   48.4400 H   0  0  0  0  0  0  0  0  0  0  0  0
   40.1780   33.2230   46.1250 H   0  0  0  0  0  0  0  0  0  0  0  0
   39.6950   31.7680   44.0080 C   0  0  0  0  0  0  0  0  0  0  0  0
   39.2380   30.9110   44.9840 C   0  0  0  0  0  0  0  0  0  0  0  0
   39.0550   29.5930   44.6350 C   0  0  0  0  0  0  0  0  0  0  0  0
   38.7000   28.8870   45.3660 H   0  0  0  0  0  0  0  0  0  0  0  0
   39.3140   29.1290   43.3600 C   0  0  0  0  0  0  0  0  0  0  0  0
   39.1590   28.0760   43.1130 H   0  0  0  0  0  0  0  0  0  0  0  0
   39.7710   29.9720   42.3680 C   0  0  0  0  0  0  0  0  0  0  0  0
   39.9530   31.2890   42.7200 C   0  0  0  0  0  0  0  0  0  0  0  0
   40.1060   34.2930   44.3730 N   0  0  0  0  0  0  0  0  0  0  0  0
   39.9330   33.1640   44.2130 C   0  0  0  0  0  0  0  0  0  0  0  0
  1  2  1  0  0  0  0
  2  7  1  0  0  0  0
  2  3  2  0  0  0  0
  3  8  1  0  0  0  0
  4  3  1  0  0  0  0
  5  4  2  0  0  0  0
  6  1  2  0  0  0  0
  6  5  1  0  0  0  0
  9 18  1  0  0  0  0
  9  5  1  0  0  0  0
 10  9  2  0  0  0  0
 11 12  2  0  0  0  0
 11 10  1  0  0  0  0
 12 17  1  0  0  0  0
 13 14  2  0  0  0  0
 13 12  1  0  0  0  0
 14 15  1  0  0  0  0
 15 22  1  0  0  0  0
 15 16  2  0  0  0  0
 16 23  1  0  0  0  0
 17 16  1  0  0  0  0
 17 18  2  0  0  0  0
 18 24  1  0  0  0  0
 19 10  1  0  0  0  0
 20 11  1  0  0  0  0
 21 14  1  0  0  0  0
 25 31  1  0  0  0  0
 25 30  1  0  0  0  0
 26 25  2  0  0  0  0
 27 26  1  0  0  0  0
 27 28  2  0  0  0  0
 28 29  1  0  0  0  0
 29 30  2  0  0  0  0
 29  1  1  0  0  0  0
 32 26  1  0  0  0  0
 33 42  1  0  0  0  0
 33 34  1  0  0  0  0
 34 27  1  0  0  0  0
 35 34  2  0  0  0  0
 35 36  1  0  0  0  0
 37 35  1  0  0  0  0
 38 37  1  0  0  0  0
 39 40  1  0  0  0  0
 39 37  2  0  0  0  0
 40 33  2  0  0  0  0
 42 41  3  0  0  0  0
M  END
>  <minimizedAffinity>
-7.25778294

>  <minimizedRMSD>
1.57604754

$$$$
