
 OpenBabel03272502103D

 27 29  0  0  0  0  0  0  0  0999 V2000
   37.7590   31.7250   48.6670 C   0  0  0  0  0  0  0  0  0  0  0  0
   38.5240   32.7340   49.2160 C   0  0  0  0  0  0  0  0  0  0  0  0
   39.3430   33.5810   48.4610 C   0  0  0  0  0  0  0  0  0  0  0  0
   39.3680   33.3760   47.1220 N   0  0  0  0  0  0  0  0  0  0  0  0
   38.6270   32.3940   46.5880 C   0  0  0  0  0  0  0  0  0  0  0  0
   37.8360   31.5780   47.3210 N   0  0  0  0  0  0  0  0  0  0  0  0
   38.5120   32.9100   50.2940 H   0  0  0  0  0  0  0  0  0  0  0  0
   39.9320   34.3610   48.8910 H   0  0  0  0  0  0  0  0  0  0  0  0
   37.2960   30.3380   50.7120 C   0  0  0  0  0  0  0  0  0  0  0  0
   36.9250   30.8690   49.4770 C   0  0  0  0  0  0  0  0  0  0  0  0
   35.6530   30.5400   49.0020 C   0  0  0  0  0  0  0  0  0  0  0  0
   34.8540   29.7420   49.7380 N   0  0  0  0  0  0  0  0  0  0  0  0
   35.2600   29.2450   50.9450 C   0  0  0  0  0  0  0  0  0  0  0  0
   36.4950   29.5500   51.4300 N   0  0  0  0  0  0  0  0  0  0  0  0
   38.2970   30.6520   50.9900 H   0  0  0  0  0  0  0  0  0  0  0  0
   35.2530   30.8950   48.0490 H   0  0  0  0  0  0  0  0  0  0  0  0
   34.6620   28.6030   51.5760 H   0  0  0  0  0  0  0  0  0  0  0  0
   39.7870   31.7090   44.5130 C   0  0  0  0  0  0  0  0  0  0  0  0
   38.6780   32.2010   45.1520 C   0  0  0  0  0  0  0  0  0  0  0  0
   37.6220   32.4960   44.3140 C   0  0  0  0  0  0  0  0  0  0  0  0
   36.7020   32.8890   44.7200 H   0  0  0  0  0  0  0  0  0  0  0  0
   37.6240   32.3300   42.9450 C   0  0  0  0  0  0  0  0  0  0  0  0
   36.7930   32.5640   42.3100 H   0  0  0  0  0  0  0  0  0  0  0  0
   38.7840   31.8230   42.3510 C   0  0  0  0  0  3  0  0  0  0  0  0
   39.8670   31.5140   43.1500 C   0  0  0  0  0  3  0  0  0  0  0  0
   41.8740   31.0810   45.9710 N   0  0  0  0  0  0  0  0  0  0  0  0
   40.9460   31.3710   45.3170 C   0  0  0  0  0  0  0  0  0  0  0  0
  1  2  1  0  0  0  0
  1 10  1  0  0  0  0
  2  7  1  0  0  0  0
  3  8  1  0  0  0  0
  3  2  2  0  0  0  0
  4  3  1  0  0  0  0
  5  4  2  0  0  0  0
  5  6  1  0  0  0  0
  6  1  2  0  0  0  0
  9 15  1  0  0  0  0
  9 14  1  0  0  0  0
 10  9  2  0  0  0  0
 11 10  1  0  0  0  0
 11 12  2  0  0  0  0
 12 13  1  0  0  0  0
 13 14  2  0  0  0  0
 13 17  1  0  0  0  0
 16 11  1  0  0  0  0
 18 19  1  0  0  0  0
 18 27  1  0  0  0  0
 19  5  1  0  0  0  0
 20 21  1  0  0  0  0
 20 19  2  0  0  0  0
 22 20  1  0  0  0  0
 23 22  1  0  0  0  0
 24 22  2  0  0  0  0
 24 25  1  0  0  0  0
 25 18  2  0  0  0  0
 27 26  3  0  0  0  0
M  END
>  <minimizedAffinity>
-5.21434879

>  <minimizedRMSD>
1.10451686

$$$$
