
 OpenBabel03262521133D

 32 34  0  0  0  0  0  0  0  0999 V2000
   32.3290   29.7150   45.8320 C   0  0  0  0  0  0  0  0  0  0  0  0
   32.0370   29.7390   44.4750 C   0  0  0  0  0  0  0  0  0  0  0  0
   31.2760   28.6930   44.1970 N   0  0  0  0  0  0  0  0  0  0  0  0
   31.0560   27.9800   45.3180 C   0  0  0  0  0  0  0  0  0  0  0  0
   31.7020   28.6070   46.3180 N   0  0  0  0  0  0  0  0  0  0  0  0
   32.4130   30.5290   43.8210 H   0  0  0  0  0  0  0  0  0  0  0  0
   30.9300   28.5010   43.2370 H   0  0  0  0  0  0  0  0  0  0  0  0
   30.7960   25.5000   45.6280 C   0  0  0  0  0  0  0  0  0  0  0  0
   30.2680   26.7590   45.4260 C   0  0  0  0  0  0  0  0  0  0  0  0
   28.8940   26.8250   45.3240 C   0  0  0  0  0  0  0  0  0  0  0  0
   28.4000   27.7780   45.1650 H   0  0  0  0  0  0  0  0  0  0  0  0
   28.0770   25.7030   45.4170 C   0  0  0  0  0  0  0  0  0  0  0  0
   27.0010   25.7560   45.3370 H   0  0  0  0  0  0  0  0  0  0  0  0
   28.6450   24.4640   45.6190 C   0  0  0  0  0  3  0  0  0  0  0  0
   30.0190   24.3640   45.7250 C   0  0  0  0  0  3  0  0  0  0  0  0
   33.3680   25.2560   45.8450 N   0  0  0  0  0  0  0  0  0  0  0  0
   32.2210   25.3740   45.7420 C   0  0  0  0  0  0  0  0  0  0  0  0
   33.0960   30.6050   46.5960 O   0  0  0  0  0  0  0  0  0  0  0  0
   35.6400   30.2510   46.5320 O   0  0  0  0  0  0  0  0  0  0  0  0
   34.4310   29.9560   47.4090 P   0  0  2  0  0  0  0  0  0  0  0  0
   34.2400   28.2790   47.6190 O   0  0  0  0  0  0  0  0  0  0  0  0
   33.7750   28.1440   48.4670 H   0  0  0  0  0  0  0  0  0  0  0  0
   34.5840   30.6530   48.9490 O   0  0  0  0  0  0  0  0  0  0  0  0
   35.7260   30.4940   49.7260 C   0  0  0  0  0  0  0  0  0  0  0  0
   35.9370   29.5030   50.7000 C   0  0  0  0  0  0  0  0  0  0  0  0
   37.1420   29.5070   51.3700 C   0  0  0  0  0  0  0  0  0  0  0  0
   38.0730   30.4420   51.0820 N   0  0  0  0  0  0  0  0  0  0  0  0
   37.8420   31.3930   50.1310 C   0  0  0  0  0  0  0  0  0  0  0  0
   36.6670   31.4210   49.4510 N   0  0  0  0  0  0  0  0  0  0  0  0
   35.1190   28.8230   50.8290 H   0  0  0  0  0  0  0  0  0  0  0  0
   37.2750   28.7320   52.1140 H   0  0  0  0  0  0  0  0  0  0  0  0
   38.6200   32.1210   49.9370 H   0  0  0  0  0  0  0  0  0  0  0  0
  1  5  1  0  0  0  0
  1 18  1  0  0  0  0
  2  1  2  0  0  0  0
  3  2  1  0  0  0  0
  3  4  1  0  0  0  0
  4  9  1  0  0  0  0
  4  5  2  0  0  0  0
  6  2  1  0  0  0  0
  7  3  1  0  0  0  0
  8 15  1  0  0  0  0
  8 17  1  0  0  0  0
  9  8  2  0  0  0  0
 10 12  2  0  0  0  0
 10  9  1  0  0  0  0
 11 10  1  0  0  0  0
 12 14  1  0  0  0  0
 13 12  1  0  0  0  0
 14 15  2  0  0  0  0
 17 16  3  0  0  0  0
 18 20  1  0  0  0  0
 20 19  2  6  0  0  0
 20 21  1  0  0  0  0
 20 23  1  0  0  0  0
 21 22  1  0  0  0  0
 23 24  1  0  0  0  0
 24 25  1  0  0  0  0
 25 30  1  0  0  0  0
 25 26  2  0  0  0  0
 26 31  1  0  0  0  0
 27 26  1  0  0  0  0
 28 27  2  0  0  0  0
 29 24  2  0  0  0  0
 29 28  1  0  0  0  0
 32 28  1  0  0  0  0
M  END
>  <minimizedAffinity>
-4.12143469

>  <minimizedRMSD>
1.08722854

$$$$
