
 OpenBabel03272500523D

 46 51  0  0  1  0  0  0  0  0999 V2000
   34.7980   29.5400   33.9660 C   0  0  1  0  0  0  0  0  0  0  0  0
   33.7290   29.6850   32.8160 C   0  0  0  0  0  0  0  0  0  0  0  0
   35.2080   29.7740   32.5810 C   0  0  2  0  0  0  0  0  0  0  0  0
   34.8200   28.5040   34.3950 H   0  0  0  0  0  0  0  0  0  0  0  0
   33.2830   28.7500   32.4580 H   0  0  0  0  0  0  0  0  0  0  0  0
   33.1300   30.5930   32.8840 H   0  0  0  0  0  0  0  0  0  0  0  0
   35.5570   30.7810   32.2880 H   0  0  0  0  0  0  0  0  0  0  0  0
   34.1400   32.2640   36.2200 C   0  0  0  0  0  0  0  0  0  0  0  0
   35.5050   32.0790   36.4380 C   0  0  0  0  0  0  0  0  0  0  0  0
   35.9370   31.0190   35.6100 C   0  0  0  0  0  0  0  0  0  0  0  0
   34.8500   30.6120   34.9390 N   0  0  0  0  0  0  0  0  0  0  0  0
   33.8370   31.3560   35.3210 N   0  0  0  0  0  0  0  0  0  0  0  0
   36.1790   32.6240   37.1150 H   0  0  0  0  0  0  0  0  0  0  0  0
   36.9240   30.6290   35.5370 H   0  0  0  0  0  0  0  0  0  0  0  0
   31.9580   33.4030   36.7150 C   0  0  0  0  0  0  0  0  0  0  0  0
   33.3650   33.2630   36.8980 C   0  0  0  0  0  0  0  0  0  0  0  0
   33.9690   34.1420   37.7690 C   0  0  0  0  0  0  0  0  0  0  0  0
   33.2010   35.0800   38.3960 N   0  0  0  0  0  0  0  0  0  0  0  0
   31.8810   35.1780   38.1950 C   0  0  0  0  0  0  0  0  0  0  0  0
   31.2410   34.3310   37.3440 N   0  0  0  0  0  0  0  0  0  0  0  0
   31.5050   32.7110   36.0330 H   0  0  0  0  0  0  0  0  0  0  0  0
   35.0440   34.0580   37.9290 H   0  0  0  0  0  0  0  0  0  0  0  0
   31.4110   35.9720   38.7660 H   0  0  0  0  0  0  0  0  0  0  0  0
   35.8890   28.6770   31.8110 C   0  0  0  0  0  0  0  0  0  0  0  0
   36.3540   28.7830   30.5130 C   0  0  0  0  0  0  0  0  0  0  0  0
   36.9180   27.5930   30.1820 N   0  0  0  0  0  0  0  0  0  0  0  0
   36.8170   26.7520   31.2360 C   0  0  0  0  0  0  0  0  0  0  0  0
   36.1880   27.4170   32.2280 N   0  0  0  0  0  0  0  0  0  0  0  0
   36.2880   29.6590   29.8590 H   0  0  0  0  0  0  0  0  0  0  0  0
   37.3520   27.3920   29.2550 H   0  0  0  0  0  0  0  0  0  0  0  0
   37.3110   25.3460   31.3040 C   0  0  0  0  0  0  0  0  0  0  0  0
   38.6250   25.0180   30.8910 C   0  0  0  0  0  0  0  0  0  0  0  0
   38.6990   23.2110   31.1750 S   0  0  0  0  0  0  0  0  0  0  0  0
   36.9200   23.2130   31.8100 C   0  0  0  0  0  0  0  0  0  0  0  0
   36.6310   24.3110   31.7250 N   0  0  0  0  0  0  0  0  0  0  0  0
   39.3640   25.7210   30.5060 H   0  0  0  0  0  0  0  0  0  0  0  0
   36.5900   21.4460   33.4820 C   0  0  0  0  0  0  0  0  0  0  0  0
   36.2720   21.9540   32.2590 C   0  0  0  0  0  0  0  0  0  0  0  0
   35.3620   21.3060   31.4490 C   0  0  0  0  0  0  0  0  0  0  0  0
   35.1030   21.7130   30.4620 H   0  0  0  0  0  0  0  0  0  0  0  0
   34.7360   20.1340   31.8250 C   0  0  0  0  0  0  0  0  0  0  0  0
   34.0220   19.6380   31.1760 H   0  0  0  0  0  0  0  0  0  0  0  0
   35.0640   19.6270   33.0670 C   0  0  0  0  0  3  0  0  0  0  0  0
   35.9760   20.2830   33.8680 C   0  0  0  0  0  3  0  0  0  0  0  0
   38.3280   22.7310   34.9220 N   0  0  0  0  0  0  0  0  0  0  0  0
   37.5330   22.1580   34.2700 C   0  0  0  0  0  0  0  0  0  0  0  0
  1  4  1  1  0  0  0
  1 11  1  0  0  0  0
  2  6  1  0  0  0  0
  2  1  1  0  0  0  0
  3  7  1  6  0  0  0
  3  2  1  0  0  0  0
  3  1  1  0  0  0  0
  5  2  1  0  0  0  0
  8  9  1  0  0  0  0
  8 16  1  0  0  0  0
  9 13  1  0  0  0  0
 10  9  2  0  0  0  0
 11 12  1  0  0  0  0
 11 10  1  0  0  0  0
 12  8  2  0  0  0  0
 14 10  1  0  0  0  0
 15 16  2  0  0  0  0
 15 20  1  0  0  0  0
 16 17  1  0  0  0  0
 17 22  1  0  0  0  0
 17 18  2  0  0  0  0
 19 18  1  0  0  0  0
 19 23  1  0  0  0  0
 20 19  2  0  0  0  0
 21 15  1  0  0  0  0
 24 28  1  0  0  0  0
 24  3  1  0  0  0  0
 25 24  2  0  0  0  0
 26 25  1  0  0  0  0
 26 27  1  0  0  0  0
 27 31  1  0  0  0  0
 27 28  2  0  0  0  0
 29 25  1  0  0  0  0
 30 26  1  0  0  0  0
 31 35  1  0  0  0  0
 32 33  1  0  0  0  0
 32 31  2  0  0  0  0
 33 34  1  0  0  0  0
 34 38  1  0  0  0  0
 35 34  2  0  0  0  0
 36 32  1  0  0  0  0
 37 44  1  0  0  0  0
 37 46  1  0  0  0  0
 38 37  2  0  0  0  0
 39 41  2  0  0  0  0
 39 38  1  0  0  0  0
 40 39  1  0  0  0  0
 41 43  1  0  0  0  0
 42 41  1  0  0  0  0
 43 44  2  0  0  0  0
 46 45  3  0  0  0  0
M  END
>  <minimizedAffinity>
-6.35701656

$$$$

 OpenBabel03272500523D

 46 51  0  0  1  0  0  0  0  0999 V2000
   34.7660   29.5010   33.6450 C   0  0  1  0  0  0  0  0  0  0  0  0
   34.8920   30.0210   32.1620 C   0  0  0  0  0  0  0  0  0  0  0  0
   35.9490   29.2000   32.8390 C   0  0  2  0  0  0  0  0  0  0  0  0
   33.9500   28.7380   33.7580 H   0  0  0  0  0  0  0  0  0  0  0  0
   34.3180   29.4660   31.4110 H   0  0  0  0  0  0  0  0  0  0  0  0
   35.0050   31.1030   32.0830 H   0  0  0  0  0  0  0  0  0  0  0  0
   36.8870   29.7500   33.0380 H   0  0  0  0  0  0  0  0  0  0  0  0
   34.1360   32.1140   36.0340 C   0  0  0  0  0  0  0  0  0  0  0  0
   35.4710   31.8270   36.3180 C   0  0  0  0  0  0  0  0  0  0  0  0
   35.8880   30.7960   35.4480 C   0  0  0  0  0  0  0  0  0  0  0  0
   34.8220   30.5030   34.6890 N   0  0  0  0  0  0  0  0  0  0  0  0
   33.8350   31.2850   35.0610 N   0  0  0  0  0  0  0  0  0  0  0  0
   36.1330   32.2830   37.0680 H   0  0  0  0  0  0  0  0  0  0  0  0
   36.8530   30.3480   35.4060 H   0  0  0  0  0  0  0  0  0  0  0  0
   33.9840   34.0480   37.6260 C   0  0  0  0  0  0  0  0  0  0  0  0
   33.3830   33.1160   36.7310 C   0  0  0  0  0  0  0  0  0  0  0  0
   32.0200   33.2130   36.5560 C   0  0  0  0  0  0  0  0  0  0  0  0
   31.3360   34.1780   37.2350 N   0  0  0  0  0  0  0  0  0  0  0  0
   31.9390   35.0350   38.0680 C   0  0  0  0  0  0  0  0  0  0  0  0
   33.2830   34.9770   38.2720 N   0  0  0  0  0  0  0  0  0  0  0  0
   35.0460   33.9580   37.7510 H   0  0  0  0  0  0  0  0  0  0  0  0
   31.5330   32.5120   35.8760 H   0  0  0  0  0  0  0  0  0  0  0  0
   31.2610   35.7420   38.5330 H   0  0  0  0  0  0  0  0  0  0  0  0
   36.1900   27.7930   32.3660 C   0  0  0  0  0  0  0  0  0  0  0  0
   35.9690   27.3340   31.0810 C   0  0  0  0  0  0  0  0  0  0  0  0
   36.3200   26.0230   31.0480 N   0  0  0  0  0  0  0  0  0  0  0  0
   36.7520   25.6550   32.2760 C   0  0  0  0  0  0  0  0  0  0  0  0
   36.6710   26.7380   33.0770 N   0  0  0  0  0  0  0  0  0  0  0  0
   35.5830   27.9090   30.2320 H   0  0  0  0  0  0  0  0  0  0  0  0
   36.2560   25.4230   30.1960 H   0  0  0  0  0  0  0  0  0  0  0  0
   37.2380   24.3040   32.6810 C   0  0  0  0  0  0  0  0  0  0  0  0
   38.3400   24.1620   33.5580 C   0  0  0  0  0  0  0  0  0  0  0  0
   38.5050   22.3450   33.7090 S   0  0  0  0  0  0  0  0  0  0  0  0
   37.0390   22.0900   32.5480 C   0  0  0  0  0  0  0  0  0  0  0  0
   36.7370   23.1580   32.2950 N   0  0  0  0  0  0  0  0  0  0  0  0
   38.9090   24.9800   34.0000 H   0  0  0  0  0  0  0  0  0  0  0  0
   35.9200   19.9850   33.1350 C   0  0  0  0  0  0  0  0  0  0  0  0
   36.5760   20.7220   32.1960 C   0  0  0  0  0  0  0  0  0  0  0  0
   36.8080   20.2050   30.9380 C   0  0  0  0  0  0  0  0  0  0  0  0
   37.3370   20.7960   30.1790 H   0  0  0  0  0  0  0  0  0  0  0  0
   36.3970   18.9390   30.5690 C   0  0  0  0  0  0  0  0  0  0  0  0
   36.5870   18.5480   29.5740 H   0  0  0  0  0  0  0  0  0  0  0  0
   35.7320   18.1990   31.5270 C   0  0  0  0  0  3  0  0  0  0  0  0
   35.5060   18.7280   32.7820 C   0  0  0  0  0  3  0  0  0  0  0  0
   35.5240   21.0430   35.4740 N   0  0  0  0  0  0  0  0  0  0  0  0
   35.7110   20.5720   34.4110 C   0  0  0  0  0  0  0  0  0  0  0  0
  1  4  1  1  0  0  0
  1 11  1  0  0  0  0
  2  3  1  0  0  0  0
  2  1  1  0  0  0  0
  3  7  1  1  0  0  0
  3  1  1  0  0  0  0
  5  2  1  0  0  0  0
  6  2  1  0  0  0  0
  8  9  1  0  0  0  0
  8 16  1  0  0  0  0
  9 13  1  0  0  0  0
 10  9  2  0  0  0  0
 11 12  1  0  0  0  0
 11 10  1  0  0  0  0
 12  8  2  0  0  0  0
 14 10  1  0  0  0  0
 15 21  1  0  0  0  0
 15 20  1  0  0  0  0
 16 15  2  0  0  0  0
 17 16  1  0  0  0  0
 17 18  2  0  0  0  0
 18 19  1  0  0  0  0
 19 20  2  0  0  0  0
 19 23  1  0  0  0  0
 22 17  1  0  0  0  0
 24  3  1  0  0  0  0
 24 28  1  0  0  0  0
 25 24  2  0  0  0  0
 26 25  1  0  0  0  0
 26 27  1  0  0  0  0
 27 31  1  0  0  0  0
 27 28  2  0  0  0  0
 29 25  1  0  0  0  0
 30 26  1  0  0  0  0
 31 32  2  0  0  0  0
 32 33  1  0  0  0  0
 32 36  1  0  0  0  0
 34 33  1  0  0  0  0
 35 34  2  0  0  0  0
 35 31  1  0  0  0  0
 37 46  1  0  0  0  0
 38 34  1  0  0  0  0
 38 37  2  0  0  0  0
 39 38  1  0  0  0  0
 40 39  1  0  0  0  0
 41 39  2  0  0  0  0
 41 43  1  0  0  0  0
 42 41  1  0  0  0  0
 43 44  2  0  0  0  0
 44 37  1  0  0  0  0
 46 45  3  0  0  0  0
M  END
>  <minimizedAffinity>
-6.27614117

$$$$

 OpenBabel03272500523D

 46 51  0  0  1  0  0  0  0  0999 V2000
   34.9690   29.2490   33.7560 C   0  0  1  0  0  0  0  0  0  0  0  0
   34.9230   29.6890   32.2430 C   0  0  0  0  0  0  0  0  0  0  0  0
   36.1100   29.0210   32.8710 C   0  0  2  0  0  0  0  0  0  0  0  0
   34.2490   28.4160   33.9760 H   0  0  0  0  0  0  0  0  0  0  0  0
   34.3540   29.0360   31.5730 H   0  0  0  0  0  0  0  0  0  0  0  0
   34.9150   30.7710   32.1000 H   0  0  0  0  0  0  0  0  0  0  0  0
   36.9980   29.6740   32.9620 H   0  0  0  0  0  0  0  0  0  0  0  0
   34.2660   31.9610   36.0120 C   0  0  0  0  0  0  0  0  0  0  0  0
   35.6230   31.7630   36.2690 C   0  0  0  0  0  0  0  0  0  0  0  0
   36.0700   30.7050   35.4460 C   0  0  0  0  0  0  0  0  0  0  0  0
   35.0010   30.3120   34.7390 N   0  0  0  0  0  0  0  0  0  0  0  0
   33.9830   31.0620   35.0970 N   0  0  0  0  0  0  0  0  0  0  0  0
   36.2800   32.2960   36.9700 H   0  0  0  0  0  0  0  0  0  0  0  0
   37.0560   30.3070   35.3990 H   0  0  0  0  0  0  0  0  0  0  0  0
   32.0720   33.0840   36.4860 C   0  0  0  0  0  0  0  0  0  0  0  0
   33.4800   32.9610   36.6740 C   0  0  0  0  0  0  0  0  0  0  0  0
   34.0720   33.8580   37.5350 C   0  0  0  0  0  0  0  0  0  0  0  0
   33.2940   34.7960   38.1480 N   0  0  0  0  0  0  0  0  0  0  0  0
   31.9740   34.8780   37.9420 C   0  0  0  0  0  0  0  0  0  0  0  0
   31.3450   34.0130   37.1010 N   0  0  0  0  0  0  0  0  0  0  0  0
   31.6270   32.3780   35.8120 H   0  0  0  0  0  0  0  0  0  0  0  0
   35.1480   33.7860   37.6990 H   0  0  0  0  0  0  0  0  0  0  0  0
   31.4940   35.6750   38.5000 H   0  0  0  0  0  0  0  0  0  0  0  0
   36.4610   27.6200   32.4530 C   0  0  0  0  0  0  0  0  0  0  0  0
   36.4500   27.1490   31.1530 C   0  0  0  0  0  0  0  0  0  0  0  0
   36.8400   25.8490   31.1850 N   0  0  0  0  0  0  0  0  0  0  0  0
   37.0930   25.5000   32.4670 C   0  0  0  0  0  0  0  0  0  0  0  0
   36.8600   26.5830   33.2370 N   0  0  0  0  0  0  0  0  0  0  0  0
   36.1790   27.7080   30.2510 H   0  0  0  0  0  0  0  0  0  0  0  0
   36.9220   25.2440   30.3390 H   0  0  0  0  0  0  0  0  0  0  0  0
   37.5520   24.1660   32.9530 C   0  0  0  0  0  0  0  0  0  0  0  0
   36.9640   22.9740   32.4650 C   0  0  0  0  0  0  0  0  0  0  0  0
   37.8750   21.6720   33.3730 S   0  0  0  0  0  0  0  0  0  0  0  0
   38.9060   22.9800   34.2640 C   0  0  0  0  0  0  0  0  0  0  0  0
   38.4940   23.9510   33.8350 N   0  0  0  0  0  0  0  0  0  0  0  0
   36.1630   22.9180   31.7270 H   0  0  0  0  0  0  0  0  0  0  0  0
   39.6620   22.6620   36.5770 C   0  0  0  0  0  0  0  0  0  0  0  0
   39.9480   22.5860   35.2480 C   0  0  0  0  0  0  0  0  0  0  0  0
   41.1860   22.1520   34.8230 C   0  0  0  0  0  0  0  0  0  0  0  0
   41.4200   22.0900   33.7520 H   0  0  0  0  0  0  0  0  0  0  0  0
   42.1830   21.7770   35.7020 C   0  0  0  0  0  0  0  0  0  0  0  0
   43.1520   21.4370   35.3510 H   0  0  0  0  0  0  0  0  0  0  0  0
   41.8840   21.8560   37.0490 C   0  0  0  0  0  3  0  0  0  0  0  0
   40.6420   22.2920   37.4610 C   0  0  0  0  0  3  0  0  0  0  0  0
   37.3020   23.4850   37.2840 N   0  0  0  0  0  0  0  0  0  0  0  0
   38.3700   23.1150   36.9530 C   0  0  0  0  0  0  0  0  0  0  0  0
  1  4  1  1  0  0  0
  1 11  1  0  0  0  0
  2  3  1  0  0  0  0
  2  1  1  0  0  0  0
  3  7  1  1  0  0  0
  3  1  1  0  0  0  0
  5  2  1  0  0  0  0
  6  2  1  0  0  0  0
  8  9  1  0  0  0  0
  8 16  1  0  0  0  0
  9 13  1  0  0  0  0
 10  9  2  0  0  0  0
 11 12  1  0  0  0  0
 11 10  1  0  0  0  0
 12  8  2  0  0  0  0
 14 10  1  0  0  0  0
 15 16  2  0  0  0  0
 15 20  1  0  0  0  0
 16 17  1  0  0  0  0
 17 22  1  0  0  0  0
 17 18  2  0  0  0  0
 19 18  1  0  0  0  0
 19 23  1  0  0  0  0
 20 19  2  0  0  0  0
 21 15  1  0  0  0  0
 24  3  1  0  0  0  0
 24 28  1  0  0  0  0
 25 26  1  0  0  0  0
 25 24  2  0  0  0  0
 26 27  1  0  0  0  0
 27 31  1  0  0  0  0
 27 28  2  0  0  0  0
 29 25  1  0  0  0  0
 30 26  1  0  0  0  0
 31 35  1  0  0  0  0
 32 31  2  0  0  0  0
 32 33  1  0  0  0  0
 33 34  1  0  0  0  0
 34 38  1  0  0  0  0
 35 34  2  0  0  0  0
 36 32  1  0  0  0  0
 37 46  1  0  0  0  0
 37 44  1  0  0  0  0
 38 37  2  0  0  0  0
 39 38  1  0  0  0  0
 39 41  2  0  0  0  0
 40 39  1  0  0  0  0
 41 43  1  0  0  0  0
 42 41  1  0  0  0  0
 43 44  2  0  0  0  0
 46 45  3  0  0  0  0
M  END
>  <minimizedAffinity>
-6.247015

$$$$

 OpenBabel03272500523D

 46 51  0  0  1  0  0  0  0  0999 V2000
   37.8350   26.0300   35.8490 C   0  0  1  0  0  0  0  0  0  0  0  0
   38.6980   27.3490   35.8570 C   0  0  0  0  0  0  0  0  0  0  0  0
   38.3090   26.6280   34.6010 C   0  0  2  0  0  0  0  0  0  0  0  0
   36.7840   26.2100   36.1990 H   0  0  0  0  0  0  0  0  0  0  0  0
   38.1450   28.2810   36.0180 H   0  0  0  0  0  0  0  0  0  0  0  0
   39.6960   27.2190   36.2770 H   0  0  0  0  0  0  0  0  0  0  0  0
   39.1570   26.1580   34.0700 H   0  0  0  0  0  0  0  0  0  0  0  0
   39.8740   23.1450   36.5200 C   0  0  0  0  0  0  0  0  0  0  0  0
   39.0120   23.1060   37.6160 C   0  0  0  0  0  0  0  0  0  0  0  0
   38.1220   24.1970   37.5070 C   0  0  0  0  0  0  0  0  0  0  0  0
   38.4660   24.8400   36.3810 N   0  0  0  0  0  0  0  0  0  0  0  0
   39.4800   24.2000   35.8450 N   0  0  0  0  0  0  0  0  0  0  0  0
   38.9780   22.3860   38.4460 H   0  0  0  0  0  0  0  0  0  0  0  0
   37.3400   24.4520   38.1820 H   0  0  0  0  0  0  0  0  0  0  0  0
   41.5260   21.4580   37.3710 C   0  0  0  0  0  0  0  0  0  0  0  0
   40.9150   22.1810   36.3060 C   0  0  0  0  0  0  0  0  0  0  0  0
   41.3700   21.9170   35.0330 C   0  0  0  0  0  0  0  0  0  0  0  0
   42.3610   20.9940   34.8660 N   0  0  0  0  0  0  0  0  0  0  0  0
   42.9100   20.3370   35.8950 C   0  0  0  0  0  0  0  0  0  0  0  0
   42.4920   20.5650   37.1700 N   0  0  0  0  0  0  0  0  0  0  0  0
   41.1610   21.6770   38.3550 H   0  0  0  0  0  0  0  0  0  0  0  0
   40.9190   22.4550   34.1990 H   0  0  0  0  0  0  0  0  0  0  0  0
   43.6860   19.6370   35.6020 H   0  0  0  0  0  0  0  0  0  0  0  0
   37.3260   27.2760   33.6660 C   0  0  0  0  0  0  0  0  0  0  0  0
   37.2330   27.0270   32.3090 C   0  0  0  0  0  0  0  0  0  0  0  0
   36.2200   27.7880   31.8210 N   0  0  0  0  0  0  0  0  0  0  0  0
   35.6810   28.5010   32.8360 C   0  0  0  0  0  0  0  0  0  0  0  0
   36.3590   28.1860   33.9590 N   0  0  0  0  0  0  0  0  0  0  0  0
   37.8550   26.3440   31.7190 H   0  0  0  0  0  0  0  0  0  0  0  0
   35.9280   27.7970   30.8190 H   0  0  0  0  0  0  0  0  0  0  0  0
   34.5420   29.4600   32.7440 C   0  0  0  0  0  0  0  0  0  0  0  0
   34.4800   30.4150   31.7010 C   0  0  0  0  0  0  0  0  0  0  0  0
   32.9230   31.3080   32.0620 S   0  0  0  0  0  0  0  0  0  0  0  0
   32.6220   30.2210   33.5770 C   0  0  0  0  0  0  0  0  0  0  0  0
   33.5260   29.5300   33.5660 N   0  0  0  0  0  0  0  0  0  0  0  0
   35.2170   30.5370   30.9070 H   0  0  0  0  0  0  0  0  0  0  0  0
   31.5630   30.9630   35.6630 C   0  0  0  0  0  0  0  0  0  0  0  0
   31.4170   30.4160   34.4250 C   0  0  0  0  0  0  0  0  0  0  0  0
   30.1700   30.0470   33.9670 C   0  0  0  0  0  0  0  0  0  0  0  0
   30.0480   29.6040   32.9690 H   0  0  0  0  0  0  0  0  0  0  0  0
   29.0240   30.2090   34.7210 C   0  0  0  0  0  0  0  0  0  0  0  0
   28.0500   29.9140   34.3450 H   0  0  0  0  0  0  0  0  0  0  0  0
   29.1810   30.7660   35.9760 C   0  0  0  0  0  3  0  0  0  0  0  0
   30.4350   31.1300   36.4230 C   0  0  0  0  0  3  0  0  0  0  0  0
   33.9620   31.6310   36.4050 N   0  0  0  0  0  0  0  0  0  0  0  0
   32.8730   31.3230   36.0790 C   0  0  0  0  0  0  0  0  0  0  0  0
  1  2  1  0  0  0  0
  1  4  1  1  0  0  0
  1 11  1  0  0  0  0
  2  5  1  0  0  0  0
  2  6  1  0  0  0  0
  3  7  1  6  0  0  0
  3  1  1  0  0  0  0
  3  2  1  0  0  0  0
  8  9  1  0  0  0  0
  9 13  1  0  0  0  0
 10  9  2  0  0  0  0
 10 14  1  0  0  0  0
 11 10  1  0  0  0  0
 12 11  1  0  0  0  0
 12  8  2  0  0  0  0
 15 21  1  0  0  0  0
 16  8  1  0  0  0  0
 16 15  2  0  0  0  0
 17 16  1  0  0  0  0
 18 17  2  0  0  0  0
 18 19  1  0  0  0  0
 19 20  2  0  0  0  0
 20 15  1  0  0  0  0
 22 17  1  0  0  0  0
 23 19  1  0  0  0  0
 24 28  1  0  0  0  0
 24  3  1  0  0  0  0
 25 24  2  0  0  0  0
 26 25  1  0  0  0  0
 26 27  1  0  0  0  0
 27 28  2  0  0  0  0
 29 25  1  0  0  0  0
 30 26  1  0  0  0  0
 31 27  1  0  0  0  0
 31 35  1  0  0  0  0
 32 33  1  0  0  0  0
 32 31  2  0  0  0  0
 33 34  1  0  0  0  0
 34 38  1  0  0  0  0
 35 34  2  0  0  0  0
 36 32  1  0  0  0  0
 37 46  1  0  0  0  0
 37 44  1  0  0  0  0
 38 37  2  0  0  0  0
 39 38  1  0  0  0  0
 39 41  2  0  0  0  0
 40 39  1  0  0  0  0
 41 43  1  0  0  0  0
 42 41  1  0  0  0  0
 43 44  2  0  0  0  0
 46 45  3  0  0  0  0
M  END
>  <minimizedAffinity>
-6.1803956

$$$$

 OpenBabel03272500523D

 46 51  0  0  1  0  0  0  0  0999 V2000
   38.4830   24.1690   35.7070 C   0  0  1  0  0  0  0  0  0  0  0  0
   37.7190   24.7960   36.9350 C   0  0  0  0  0  0  0  0  0  0  0  0
   38.4370   25.6170   35.9050 C   0  0  2  0  0  0  0  0  0  0  0  0
   37.7840   23.6750   34.9810 H   0  0  0  0  0  0  0  0  0  0  0  0
   36.6270   24.8380   36.8470 H   0  0  0  0  0  0  0  0  0  0  0  0
   38.1890   24.5910   37.8970 H   0  0  0  0  0  0  0  0  0  0  0  0
   39.3360   26.1340   36.2890 H   0  0  0  0  0  0  0  0  0  0  0  0
   41.8440   22.9920   36.2120 C   0  0  0  0  0  0  0  0  0  0  0  0
   41.1200   21.8680   36.6100 C   0  0  0  0  0  0  0  0  0  0  0  0
   39.7460   22.1660   36.4710 C   0  0  0  0  0  0  0  0  0  0  0  0
   39.6880   23.4230   36.0070 N   0  0  0  0  0  0  0  0  0  0  0  0
   40.9190   23.8600   35.8730 N   0  0  0  0  0  0  0  0  0  0  0  0
   41.4890   20.8990   36.9750 H   0  0  0  0  0  0  0  0  0  0  0  0
   38.9280   21.5210   36.6910 H   0  0  0  0  0  0  0  0  0  0  0  0
   44.0930   21.9490   35.8210 C   0  0  0  0  0  0  0  0  0  0  0  0
   43.2770   23.0460   36.2230 C   0  0  0  0  0  0  0  0  0  0  0  0
   43.9290   24.1890   36.6320 C   0  0  0  0  0  0  0  0  0  0  0  0
   45.2940   24.2050   36.6300 N   0  0  0  0  0  0  0  0  0  0  0  0
   46.0230   23.1510   36.2460 C   0  0  0  0  0  0  0  0  0  0  0  0
   45.4230   22.0010   35.8330 N   0  0  0  0  0  0  0  0  0  0  0  0
   43.5690   21.0680   35.5060 H   0  0  0  0  0  0  0  0  0  0  0  0
   43.3300   25.0440   36.9440 H   0  0  0  0  0  0  0  0  0  0  0  0
   47.0940   23.3180   36.3000 H   0  0  0  0  0  0  0  0  0  0  0  0
   37.6320   26.4720   34.9670 C   0  0  0  0  0  0  0  0  0  0  0  0
   37.4390   26.2160   33.6210 C   0  0  0  0  0  0  0  0  0  0  0  0
   36.6470   27.2010   33.1260 N   0  0  0  0  0  0  0  0  0  0  0  0
   36.3420   28.0610   34.1260 C   0  0  0  0  0  0  0  0  0  0  0  0
   36.9450   27.6120   35.2460 N   0  0  0  0  0  0  0  0  0  0  0  0
   37.8440   25.3770   33.0450 H   0  0  0  0  0  0  0  0  0  0  0  0
   36.3390   27.2570   32.1310 H   0  0  0  0  0  0  0  0  0  0  0  0
   35.4910   29.2810   34.0210 C   0  0  0  0  0  0  0  0  0  0  0  0
   34.6090   29.4600   32.9280 C   0  0  0  0  0  0  0  0  0  0  0  0
   33.8370   31.0800   33.2910 S   0  0  0  0  0  0  0  0  0  0  0  0
   34.8510   31.2350   34.8760 C   0  0  0  0  0  0  0  0  0  0  0  0
   35.4600   30.2730   34.8740 N   0  0  0  0  0  0  0  0  0  0  0  0
   34.4730   28.7610   32.1010 H   0  0  0  0  0  0  0  0  0  0  0  0
   33.7770   32.4110   36.7440 C   0  0  0  0  0  0  0  0  0  0  0  0
   34.7120   32.4260   35.7540 C   0  0  0  0  0  0  0  0  0  0  0  0
   35.5170   33.5320   35.5700 C   0  0  0  0  0  0  0  0  0  0  0  0
   36.2720   33.5470   34.7720 H   0  0  0  0  0  0  0  0  0  0  0  0
   35.4210   34.6600   36.3610 C   0  0  0  0  0  0  0  0  0  0  0  0
   36.0630   35.5210   36.2020 H   0  0  0  0  0  0  0  0  0  0  0  0
   34.4700   34.6360   37.3630 C   0  0  0  0  0  3  0  0  0  0  0  0
   33.6710   33.5240   37.5370 C   0  0  0  0  0  3  0  0  0  0  0  0
   32.3350   30.2660   37.0030 N   0  0  0  0  0  0  0  0  0  0  0  0
   32.9790   31.2450   36.8850 C   0  0  0  0  0  0  0  0  0  0  0  0
  1  4  1  6  0  0  0
  1  3  1  0  0  0  0
  1 11  1  0  0  0  0
  1  2  1  0  0  0  0
  2  6  1  0  0  0  0
  3  7  1  1  0  0  0
  3  2  1  0  0  0  0
  5  2  1  0  0  0  0
  8 16  1  0  0  0  0
  8  9  1  0  0  0  0
  9 13  1  0  0  0  0
 10  9  2  0  0  0  0
 10 14  1  0  0  0  0
 11 10  1  0  0  0  0
 12 11  1  0  0  0  0
 12  8  2  0  0  0  0
 15 20  2  0  0  0  0
 15 16  1  0  0  0  0
 16 17  2  0  0  0  0
 17 22  1  0  0  0  0
 18 17  1  0  0  0  0
 19 23  1  0  0  0  0
 19 18  2  0  0  0  0
 20 19  1  0  0  0  0
 21 15  1  0  0  0  0
 24 28  1  0  0  0  0
 24  3  1  0  0  0  0
 25 24  2  0  0  0  0
 26 25  1  0  0  0  0
 26 27  1  0  0  0  0
 27 28  2  0  0  0  0
 29 25  1  0  0  0  0
 30 26  1  0  0  0  0
 31 27  1  0  0  0  0
 31 35  1  0  0  0  0
 32 33  1  0  0  0  0
 32 31  2  0  0  0  0
 33 34  1  0  0  0  0
 34 38  1  0  0  0  0
 35 34  2  0  0  0  0
 36 32  1  0  0  0  0
 37 46  1  0  0  0  0
 37 44  1  0  0  0  0
 38 37  2  0  0  0  0
 39 38  1  0  0  0  0
 39 41  2  0  0  0  0
 40 39  1  0  0  0  0
 41 43  1  0  0  0  0
 42 41  1  0  0  0  0
 43 44  2  0  0  0  0
 46 45  3  0  0  0  0
M  END
>  <minimizedAffinity>
-6.13816738

$$$$

 OpenBabel03272500523D

 46 51  0  0  1  0  0  0  0  0999 V2000
   34.7540   29.5730   33.9520 C   0  0  1  0  0  0  0  0  0  0  0  0
   34.5130   29.9970   32.4530 C   0  0  0  0  0  0  0  0  0  0  0  0
   35.8060   29.4200   32.9470 C   0  0  2  0  0  0  0  0  0  0  0  0
   34.1240   28.6930   34.2490 H   0  0  0  0  0  0  0  0  0  0  0  0
   33.9220   29.3000   31.8480 H   0  0  0  0  0  0  0  0  0  0  0  0
   34.4120   31.0740   32.3110 H   0  0  0  0  0  0  0  0  0  0  0  0
   36.6500   30.1350   32.9400 H   0  0  0  0  0  0  0  0  0  0  0  0
   34.1230   32.3000   36.2100 C   0  0  0  0  0  0  0  0  0  0  0  0
   35.4880   32.1070   36.4210 C   0  0  0  0  0  0  0  0  0  0  0  0
   35.9090   31.0440   35.5920 C   0  0  0  0  0  0  0  0  0  0  0  0
   34.8170   30.6430   34.9250 N   0  0  0  0  0  0  0  0  0  0  0  0
   33.8110   31.3930   35.3120 N   0  0  0  0  0  0  0  0  0  0  0  0
   36.1680   32.6470   37.0960 H   0  0  0  0  0  0  0  0  0  0  0  0
   36.8940   30.6480   35.5140 H   0  0  0  0  0  0  0  0  0  0  0  0
   31.9570   33.4750   36.6880 C   0  0  0  0  0  0  0  0  0  0  0  0
   33.3570   33.3030   36.8920 C   0  0  0  0  0  0  0  0  0  0  0  0
   33.9640   34.1550   37.7880 C   0  0  0  0  0  0  0  0  0  0  0  0
   33.2050   35.0980   38.4180 N   0  0  0  0  0  0  0  0  0  0  0  0
   31.8910   35.2260   38.1970 C   0  0  0  0  0  0  0  0  0  0  0  0
   31.2490   34.4070   37.3210 N   0  0  0  0  0  0  0  0  0  0  0  0
   31.5010   32.8030   35.9870 H   0  0  0  0  0  0  0  0  0  0  0  0
   35.0350   34.0460   37.9640 H   0  0  0  0  0  0  0  0  0  0  0  0
   31.4270   36.0210   38.7730 H   0  0  0  0  0  0  0  0  0  0  0  0
   36.2080   28.0440   32.4930 C   0  0  0  0  0  0  0  0  0  0  0  0
   36.1840   27.5960   31.1850 C   0  0  0  0  0  0  0  0  0  0  0  0
   36.6320   26.3150   31.1820 N   0  0  0  0  0  0  0  0  0  0  0  0
   36.9350   25.9540   32.4510 C   0  0  0  0  0  0  0  0  0  0  0  0
   36.6740   27.0120   33.2470 N   0  0  0  0  0  0  0  0  0  0  0  0
   35.8640   28.1590   30.3010 H   0  0  0  0  0  0  0  0  0  0  0  0
   36.7190   25.7290   30.3230 H   0  0  0  0  0  0  0  0  0  0  0  0
   37.4660   24.6350   32.8980 C   0  0  0  0  0  0  0  0  0  0  0  0
   37.0230   23.4320   32.2960 C   0  0  0  0  0  0  0  0  0  0  0  0
   37.9670   22.1530   33.2050 S   0  0  0  0  0  0  0  0  0  0  0  0
   38.8060   23.4820   34.2520 C   0  0  0  0  0  0  0  0  0  0  0  0
   38.3480   24.4410   33.8450 N   0  0  0  0  0  0  0  0  0  0  0  0
   36.2920   23.3570   31.4900 H   0  0  0  0  0  0  0  0  0  0  0  0
   41.1080   23.0030   34.9560 C   0  0  0  0  0  0  0  0  0  0  0  0
   39.7940   23.1120   35.2990 C   0  0  0  0  0  0  0  0  0  0  0  0
   39.3900   22.8830   36.5970 C   0  0  0  0  0  0  0  0  0  0  0  0
   38.3310   22.9700   36.8770 H   0  0  0  0  0  0  0  0  0  0  0  0
   40.2740   22.5370   37.6010 C   0  0  0  0  0  0  0  0  0  0  0  0
   39.9380   22.3610   38.6170 H   0  0  0  0  0  0  0  0  0  0  0  0
   41.6040   22.4290   37.2440 C   0  0  0  0  0  3  0  0  0  0  0  0
   41.9970   22.6610   35.9420 C   0  0  0  0  0  3  0  0  0  0  0  0
   41.7560   23.4380   32.4780 N   0  0  0  0  0  0  0  0  0  0  0  0
   41.4640   23.2520   33.6040 C   0  0  0  0  0  0  0  0  0  0  0  0
  1  4  1  1  0  0  0
  1 11  1  0  0  0  0
  2  3  1  0  0  0  0
  2  1  1  0  0  0  0
  3  7  1  1  0  0  0
  3  1  1  0  0  0  0
  5  2  1  0  0  0  0
  6  2  1  0  0  0  0
  8  9  1  0  0  0  0
  8 16  1  0  0  0  0
  9 13  1  0  0  0  0
 10  9  2  0  0  0  0
 11 12  1  0  0  0  0
 11 10  1  0  0  0  0
 12  8  2  0  0  0  0
 14 10  1  0  0  0  0
 15 16  2  0  0  0  0
 15 20  1  0  0  0  0
 16 17  1  0  0  0  0
 17 22  1  0  0  0  0
 17 18  2  0  0  0  0
 19 18  1  0  0  0  0
 19 23  1  0  0  0  0
 20 19  2  0  0  0  0
 21 15  1  0  0  0  0
 24  3  1  0  0  0  0
 24 28  1  0  0  0  0
 25 24  2  0  0  0  0
 26 25  1  0  0  0  0
 26 27  1  0  0  0  0
 27 31  1  0  0  0  0
 27 28  2  0  0  0  0
 29 25  1  0  0  0  0
 30 26  1  0  0  0  0
 31 35  1  0  0  0  0
 32 31  2  0  0  0  0
 32 33  1  0  0  0  0
 33 34  1  0  0  0  0
 34 38  1  0  0  0  0
 35 34  2  0  0  0  0
 36 32  1  0  0  0  0
 37 38  2  0  0  0  0
 37 44  1  0  0  0  0
 38 39  1  0  0  0  0
 39 40  1  0  0  0  0
 39 41  2  0  0  0  0
 41 42  1  0  0  0  0
 43 41  1  0  0  0  0
 44 43  2  0  0  0  0
 45 46  3  0  0  0  0
 46 37  1  0  0  0  0
M  END
>  <minimizedAffinity>
-5.9394908

$$$$

 OpenBabel03272500523D

 46 51  0  0  1  0  0  0  0  0999 V2000
   41.1930   25.9400   34.3000 C   0  0  1  0  0  0  0  0  0  0  0  0
   41.4840   26.3140   32.7960 C   0  0  0  0  0  0  0  0  0  0  0  0
   40.3550   25.4220   33.2190 C   0  0  2  0  0  0  0  0  0  0  0  0
   40.8570   26.8270   34.8990 H   0  0  0  0  0  0  0  0  0  0  0  0
   41.1610   27.3130   32.4820 H   0  0  0  0  0  0  0  0  0  0  0  0
   42.4070   25.8830   32.4070 H   0  0  0  0  0  0  0  0  0  0  0  0
   40.4740   24.3680   32.9070 H   0  0  0  0  0  0  0  0  0  0  0  0
   43.0560   23.2400   35.7750 C   0  0  0  0  0  0  0  0  0  0  0  0
   43.9360   24.3010   35.9870 C   0  0  0  0  0  0  0  0  0  0  0  0
   43.3460   25.4680   35.4540 C   0  0  0  0  0  0  0  0  0  0  0  0
   42.1620   25.0850   34.9540 N   0  0  0  0  0  0  0  0  0  0  0  0
   42.0360   23.7940   35.1600 N   0  0  0  0  0  0  0  0  0  0  0  0
   44.9230   24.2970   36.4720 H   0  0  0  0  0  0  0  0  0  0  0  0
   43.7590   26.4490   35.4530 H   0  0  0  0  0  0  0  0  0  0  0  0
   44.5180   21.2010   35.8110 C   0  0  0  0  0  0  0  0  0  0  0  0
   43.3330   21.8960   36.1900 C   0  0  0  0  0  0  0  0  0  0  0  0
   42.4410   21.2140   36.9880 C   0  0  0  0  0  0  0  0  0  0  0  0
   42.7370   19.9360   37.3640 N   0  0  0  0  0  0  0  0  0  0  0  0
   43.8630   19.3190   36.9840 C   0  0  0  0  0  0  0  0  0  0  0  0
   44.7730   19.9530   36.1970 N   0  0  0  0  0  0  0  0  0  0  0  0
   45.2010   21.7470   35.1900 H   0  0  0  0  0  0  0  0  0  0  0  0
   41.5260   21.7210   37.2940 H   0  0  0  0  0  0  0  0  0  0  0  0
   43.9550   18.3060   37.3630 H   0  0  0  0  0  0  0  0  0  0  0  0
   38.9430   25.9160   33.0690 C   0  0  0  0  0  0  0  0  0  0  0  0
   37.8370   25.1160   32.8510 C   0  0  0  0  0  0  0  0  0  0  0  0
   36.7500   25.9270   32.7900 N   0  0  0  0  0  0  0  0  0  0  0  0
   37.1490   27.2080   32.9640 C   0  0  0  0  0  0  0  0  0  0  0  0
   38.4880   27.1970   33.1330 N   0  0  0  0  0  0  0  0  0  0  0  0
   37.8220   24.0260   32.7450 H   0  0  0  0  0  0  0  0  0  0  0  0
   35.7760   25.5870   32.6340 H   0  0  0  0  0  0  0  0  0  0  0  0
   36.2790   28.4190   32.9740 C   0  0  0  0  0  0  0  0  0  0  0  0
   35.8480   29.0140   31.7640 C   0  0  0  0  0  0  0  0  0  0  0  0
   34.8390   30.4270   32.3430 S   0  0  0  0  0  0  0  0  0  0  0  0
   35.1770   29.9610   34.1420 C   0  0  0  0  0  0  0  0  0  0  0  0
   35.8360   29.0400   34.0380 N   0  0  0  0  0  0  0  0  0  0  0  0
   36.0970   28.6640   30.7610 H   0  0  0  0  0  0  0  0  0  0  0  0
   33.2940   30.5960   35.5840 C   0  0  0  0  0  0  0  0  0  0  0  0
   34.6050   30.7640   35.2550 C   0  0  0  0  0  0  0  0  0  0  0  0
   35.3890   31.6670   35.9430 C   0  0  0  0  0  0  0  0  0  0  0  0
   36.4460   31.8050   35.6800 H   0  0  0  0  0  0  0  0  0  0  0  0
   34.8990   32.4330   36.9830 C   0  0  0  0  0  0  0  0  0  0  0  0
   35.5300   33.1380   37.5150 H   0  0  0  0  0  0  0  0  0  0  0  0
   33.5690   32.2550   37.3110 C   0  0  0  0  0  3  0  0  0  0  0  0
   32.7950   31.3500   36.6140 C   0  0  0  0  0  3  0  0  0  0  0  0
   31.8970   28.8820   34.2210 N   0  0  0  0  0  0  0  0  0  0  0  0
   32.5390   29.6520   34.8400 C   0  0  0  0  0  0  0  0  0  0  0  0
  1  4  1  1  0  0  0
  1 11  1  0  0  0  0
  2  3  1  0  0  0  0
  2  1  1  0  0  0  0
  3  7  1  6  0  0  0
  3  1  1  0  0  0  0
  5  2  1  0  0  0  0
  6  2  1  0  0  0  0
  8  9  1  0  0  0  0
  8 16  1  0  0  0  0
  9 13  1  0  0  0  0
 10  9  2  0  0  0  0
 11 12  1  0  0  0  0
 11 10  1  0  0  0  0
 12  8  2  0  0  0  0
 14 10  1  0  0  0  0
 15 16  2  0  0  0  0
 15 20  1  0  0  0  0
 16 17  1  0  0  0  0
 17 22  1  0  0  0  0
 17 18  2  0  0  0  0
 19 23  1  0  0  0  0
 19 18  1  0  0  0  0
 20 19  2  0  0  0  0
 21 15  1  0  0  0  0
 24 28  1  0  0  0  0
 24  3  1  0  0  0  0
 25 24  2  0  0  0  0
 26 25  1  0  0  0  0
 26 27  1  0  0  0  0
 27 31  1  0  0  0  0
 27 28  2  0  0  0  0
 29 25  1  0  0  0  0
 30 26  1  0  0  0  0
 31 35  1  0  0  0  0
 32 33  1  0  0  0  0
 32 31  2  0  0  0  0
 33 34  1  0  0  0  0
 34 38  1  0  0  0  0
 35 34  2  0  0  0  0
 36 32  1  0  0  0  0
 37 44  1  0  0  0  0
 38 37  2  0  0  0  0
 38 39  1  0  0  0  0
 39 41  2  0  0  0  0
 40 39  1  0  0  0  0
 41 43  1  0  0  0  0
 41 42  1  0  0  0  0
 44 43  2  0  0  0  0
 45 46  3  0  0  0  0
 46 37  1  0  0  0  0
M  END
>  <minimizedAffinity>
-5.9355855

$$$$

 OpenBabel03272500523D

 46 51  0  0  1  0  0  0  0  0999 V2000
   37.2290   22.3210   33.0880 C   0  0  1  0  0  0  0  0  0  0  0  0
   38.7180   22.3540   33.6040 C   0  0  0  0  0  0  0  0  0  0  0  0
   38.1250   23.4210   32.7330 C   0  0  2  0  0  0  0  0  0  0  0  0
   36.4890   22.4430   33.9230 H   0  0  0  0  0  0  0  0  0  0  0  0
   38.8560   22.6630   34.6460 H   0  0  0  0  0  0  0  0  0  0  0  0
   39.3510   21.5800   33.1680 H   0  0  0  0  0  0  0  0  0  0  0  0
   38.5510   23.4570   31.7120 H   0  0  0  0  0  0  0  0  0  0  0  0
   37.0870   20.0340   30.3160 C   0  0  0  0  0  0  0  0  0  0  0  0
   35.9430   19.6530   31.0180 C   0  0  0  0  0  0  0  0  0  0  0  0
   35.8450   20.4720   32.1650 C   0  0  0  0  0  0  0  0  0  0  0  0
   36.9010   21.2960   32.1190 N   0  0  0  0  0  0  0  0  0  0  0  0
   37.5900   21.0090   31.0380 N   0  0  0  0  0  0  0  0  0  0  0  0
   35.2110   18.8690   30.7770 H   0  0  0  0  0  0  0  0  0  0  0  0
   35.0850   20.4380   32.9100 H   0  0  0  0  0  0  0  0  0  0  0  0
   38.8390   19.4800   28.6070 C   0  0  0  0  0  0  0  0  0  0  0  0
   37.5000   19.4110   29.0920 C   0  0  0  0  0  0  0  0  0  0  0  0
   36.5970   18.7080   28.3270 C   0  0  0  0  0  0  0  0  0  0  0  0
   37.0250   18.1280   27.1680 N   0  0  0  0  0  0  0  0  0  0  0  0
   38.2930   18.2180   26.7470 C   0  0  0  0  0  0  0  0  0  0  0  0
   39.2210   18.9010   27.4710 N   0  0  0  0  0  0  0  0  0  0  0  0
   39.5290   20.0310   29.2150 H   0  0  0  0  0  0  0  0  0  0  0  0
   35.5650   18.6390   28.6740 H   0  0  0  0  0  0  0  0  0  0  0  0
   38.4780   17.7050   25.8090 H   0  0  0  0  0  0  0  0  0  0  0  0
   37.8940   24.7880   33.3130 C   0  0  0  0  0  0  0  0  0  0  0  0
   38.5040   25.2860   34.4500 C   0  0  0  0  0  0  0  0  0  0  0  0
   38.0510   26.5520   34.6380 N   0  0  0  0  0  0  0  0  0  0  0  0
   37.1770   26.8540   33.6500 C   0  0  0  0  0  0  0  0  0  0  0  0
   37.0840   25.7750   32.8450 N   0  0  0  0  0  0  0  0  0  0  0  0
   39.2240   24.7680   35.0930 H   0  0  0  0  0  0  0  0  0  0  0  0
   38.3480   27.1670   35.4260 H   0  0  0  0  0  0  0  0  0  0  0  0
   36.4480   28.1430   33.4710 C   0  0  0  0  0  0  0  0  0  0  0  0
   36.2590   28.6970   32.1820 C   0  0  0  0  0  0  0  0  0  0  0  0
   35.3340   30.2370   32.5340 S   0  0  0  0  0  0  0  0  0  0  0  0
   35.3620   29.8590   34.3840 C   0  0  0  0  0  0  0  0  0  0  0  0
   35.9280   28.8730   34.4250 N   0  0  0  0  0  0  0  0  0  0  0  0
   36.6090   28.2600   31.2460 H   0  0  0  0  0  0  0  0  0  0  0  0
   33.3790   30.7250   35.5440 C   0  0  0  0  0  0  0  0  0  0  0  0
   34.7270   30.7850   35.3580 C   0  0  0  0  0  0  0  0  0  0  0  0
   35.4900   31.6930   36.0630 C   0  0  0  0  0  0  0  0  0  0  0  0
   36.5770   31.7440   35.9150 H   0  0  0  0  0  0  0  0  0  0  0  0
   34.9420   32.5710   36.9770 C   0  0  0  0  0  0  0  0  0  0  0  0
   35.5570   33.2790   37.5240 H   0  0  0  0  0  0  0  0  0  0  0  0
   33.5750   32.5030   37.1600 C   0  0  0  0  0  3  0  0  0  0  0  0
   32.8220   31.5910   36.4490 C   0  0  0  0  0  3  0  0  0  0  0  0
   32.0400   28.9650   34.1820 N   0  0  0  0  0  0  0  0  0  0  0  0
   32.6480   29.7690   34.7900 C   0  0  0  0  0  0  0  0  0  0  0  0
  1  2  1  0  0  0  0
  1  4  1  1  0  0  0
  2  5  1  0  0  0  0
  3  7  1  6  0  0  0
  3  1  1  0  0  0  0
  3 24  1  0  0  0  0
  3  2  1  0  0  0  0
  6  2  1  0  0  0  0
  8  9  1  0  0  0  0
  8 12  2  0  0  0  0
  9 10  2  0  0  0  0
 10 14  1  0  0  0  0
 11 10  1  0  0  0  0
 11  1  1  0  0  0  0
 12 11  1  0  0  0  0
 13  9  1  0  0  0  0
 15 16  1  0  0  0  0
 15 21  1  0  0  0  0
 16  8  1  0  0  0  0
 17 22  1  0  0  0  0
 17 16  2  0  0  0  0
 18 17  1  0  0  0  0
 19 18  2  0  0  0  0
 19 20  1  0  0  0  0
 20 15  2  0  0  0  0
 23 19  1  0  0  0  0
 24 25  2  0  0  0  0
 25 26  1  0  0  0  0
 25 29  1  0  0  0  0
 26 30  1  0  0  0  0
 27 26  1  0  0  0  0
 28 24  1  0  0  0  0
 28 27  2  0  0  0  0
 31 27  1  0  0  0  0
 31 35  1  0  0  0  0
 32 33  1  0  0  0  0
 32 31  2  0  0  0  0
 33 34  1  0  0  0  0
 34 35  2  0  0  0  0
 34 38  1  0  0  0  0
 36 32  1  0  0  0  0
 37 44  1  0  0  0  0
 38 37  2  0  0  0  0
 38 39  1  0  0  0  0
 39 41  2  0  0  0  0
 40 39  1  0  0  0  0
 41 43  1  0  0  0  0
 41 42  1  0  0  0  0
 44 43  2  0  0  0  0
 45 46  3  0  0  0  0
 46 37  1  0  0  0  0
M  END
>  <minimizedAffinity>
-5.85901451

$$$$

 OpenBabel03272500523D

 46 51  0  0  1  0  0  0  0  0999 V2000
   40.5280   26.7710   32.8730 C   0  0  1  0  0  0  0  0  0  0  0  0
   40.7650   26.5310   31.3330 C   0  0  0  0  0  0  0  0  0  0  0  0
   39.5230   26.0970   32.0510 C   0  0  2  0  0  0  0  0  0  0  0  0
   40.4180   27.8600   33.1190 H   0  0  0  0  0  0  0  0  0  0  0  0
   40.6170   27.4030   30.6850 H   0  0  0  0  0  0  0  0  0  0  0  0
   41.5540   25.8100   31.1170 H   0  0  0  0  0  0  0  0  0  0  0  0
   39.4110   25.0000   32.1340 H   0  0  0  0  0  0  0  0  0  0  0  0
   41.9850   24.3730   35.1230 C   0  0  0  0  0  0  0  0  0  0  0  0
   43.0020   25.3270   35.0750 C   0  0  0  0  0  0  0  0  0  0  0  0
   42.5830   26.3650   34.2140 C   0  0  0  0  0  0  0  0  0  0  0  0
   41.3630   26.0150   33.7820 N   0  0  0  0  0  0  0  0  0  0  0  0
   41.0580   24.8610   34.3300 N   0  0  0  0  0  0  0  0  0  0  0  0
   43.9740   25.3300   35.5890 H   0  0  0  0  0  0  0  0  0  0  0  0
   43.1280   27.2440   33.9620 H   0  0  0  0  0  0  0  0  0  0  0  0
   41.0400   22.7650   36.8020 C   0  0  0  0  0  0  0  0  0  0  0  0
   42.0690   23.1740   35.9050 C   0  0  0  0  0  0  0  0  0  0  0  0
   43.1750   22.3580   35.8140 C   0  0  0  0  0  0  0  0  0  0  0  0
   43.2220   21.2250   36.5730 N   0  0  0  0  0  0  0  0  0  0  0  0
   42.2320   20.8770   37.4050 C   0  0  0  0  0  0  0  0  0  0  0  0
   41.1210   21.6530   37.5270 N   0  0  0  0  0  0  0  0  0  0  0  0
   40.1870   23.4130   36.8610 H   0  0  0  0  0  0  0  0  0  0  0  0
   43.9780   22.6460   35.1350 H   0  0  0  0  0  0  0  0  0  0  0  0
   42.4160   19.9510   37.9390 H   0  0  0  0  0  0  0  0  0  0  0  0
   38.2250   26.7900   31.7430 C   0  0  0  0  0  0  0  0  0  0  0  0
   37.3180   26.3940   30.7770 C   0  0  0  0  0  0  0  0  0  0  0  0
   36.2730   27.2600   30.8170 N   0  0  0  0  0  0  0  0  0  0  0  0
   36.5040   28.1810   31.7810 C   0  0  0  0  0  0  0  0  0  0  0  0
   37.6960   27.8910   32.3430 N   0  0  0  0  0  0  0  0  0  0  0  0
   37.4110   25.5420   30.0960 H   0  0  0  0  0  0  0  0  0  0  0  0
   35.4400   27.1970   30.1920 H   0  0  0  0  0  0  0  0  0  0  0  0
   35.6100   29.3110   32.1640 C   0  0  0  0  0  0  0  0  0  0  0  0
   35.1890   30.2620   31.2040 C   0  0  0  0  0  0  0  0  0  0  0  0
   34.1430   31.3970   32.1880 S   0  0  0  0  0  0  0  0  0  0  0  0
   34.4590   30.3760   33.7450 C   0  0  0  0  0  0  0  0  0  0  0  0
   35.1380   29.5470   33.3620 N   0  0  0  0  0  0  0  0  0  0  0  0
   35.4610   30.2610   30.1470 H   0  0  0  0  0  0  0  0  0  0  0  0
   32.6220   30.2830   35.3710 C   0  0  0  0  0  0  0  0  0  0  0  0
   33.8530   30.7660   35.0450 C   0  0  0  0  0  0  0  0  0  0  0  0
   34.5260   31.6040   35.9090 C   0  0  0  0  0  0  0  0  0  0  0  0
   35.5190   31.9960   35.6500 H   0  0  0  0  0  0  0  0  0  0  0  0
   34.0010   31.9930   37.1270 C   0  0  0  0  0  0  0  0  0  0  0  0
   34.5450   32.6530   37.7950 H   0  0  0  0  0  0  0  0  0  0  0  0
   32.7520   31.4980   37.4490 C   0  0  0  0  0  3  0  0  0  0  0  0
   32.0890   30.6600   36.5760 C   0  0  0  0  0  3  0  0  0  0  0  0
   31.4350   28.7270   33.6630 N   0  0  0  0  0  0  0  0  0  0  0  0
   31.9790   29.4240   34.4410 C   0  0  0  0  0  0  0  0  0  0  0  0
  1  4  1  1  0  0  0
  1 11  1  0  0  0  0
  2  3  1  0  0  0  0
  2  1  1  0  0  0  0
  3  7  1  1  0  0  0
  3  1  1  0  0  0  0
  5  2  1  0  0  0  0
  6  2  1  0  0  0  0
  8 16  1  0  0  0  0
  9  8  1  0  0  0  0
  9 13  1  0  0  0  0
 10  9  2  0  0  0  0
 11 10  1  0  0  0  0
 11 12  1  0  0  0  0
 12  8  2  0  0  0  0
 14 10  1  0  0  0  0
 15 21  1  0  0  0  0
 15 20  1  0  0  0  0
 16 15  2  0  0  0  0
 17 16  1  0  0  0  0
 17 18  2  0  0  0  0
 18 19  1  0  0  0  0
 19 20  2  0  0  0  0
 19 23  1  0  0  0  0
 22 17  1  0  0  0  0
 24  3  1  0  0  0  0
 24 28  1  0  0  0  0
 25 26  1  0  0  0  0
 25 24  2  0  0  0  0
 26 27  1  0  0  0  0
 27 31  1  0  0  0  0
 27 28  2  0  0  0  0
 29 25  1  0  0  0  0
 30 26  1  0  0  0  0
 31 35  1  0  0  0  0
 32 31  2  0  0  0  0
 32 33  1  0  0  0  0
 33 34  1  0  0  0  0
 34 38  1  0  0  0  0
 35 34  2  0  0  0  0
 36 32  1  0  0  0  0
 37 44  1  0  0  0  0
 38 37  2  0  0  0  0
 38 39  1  0  0  0  0
 39 41  2  0  0  0  0
 40 39  1  0  0  0  0
 41 43  1  0  0  0  0
 41 42  1  0  0  0  0
 44 43  2  0  0  0  0
 45 46  3  0  0  0  0
 46 37  1  0  0  0  0
M  END
>  <minimizedAffinity>
-5.73899555

$$$$
