
     RDKit          3D

 43 46  0  0  0  0  0  0  0  0999 V2000
   34.5388   29.1315   48.6232 C   0  0  2  0  0  0  0  0  0  0  0  0
   35.1771   28.3909   49.7473 C   0  0  0  0  0  0  0  0  0  0  0  0
   36.3112   29.1663   50.2503 N   0  0  0  0  0  0  0  0  0  0  0  0
   37.2602   29.8962   51.0434 C   0  0  0  0  0  0  0  0  0  0  0  0
   37.4693   30.0792   52.2558 O   0  0  0  0  0  0  0  0  0  0  0  0
   37.9862   30.4191   49.9209 C   0  0  1  0  0  0  0  0  0  0  0  0
   37.1579   29.4191   49.1245 C   0  0  2  0  0  0  0  0  0  0  0  0
   35.9533   30.1318   47.9819 S   0  0  0  0  0  0  0  0  0  0  0  0
   33.3344   29.9443   48.9502 C   0  0  0  0  0  0  0  0  0  0  0  0
   34.2566   28.1260   47.4869 C   0  0  0  0  0  0  0  0  0  0  0  0
   34.3177   28.8047   46.2723 O   0  0  0  0  0  0  0  0  0  0  0  0
   37.7696   31.8442   49.5852 C   0  0  0  0  0  0  0  0  0  0  0  0
   36.7513   32.3470   50.1622 O   0  0  0  0  0  0  0  0  0  0  0  0
   38.6114   32.5977   48.7073 C   0  0  0  0  0  0  0  0  0  0  0  0
   39.1352   33.7838   49.1663 C   0  0  0  0  0  0  0  0  0  0  0  0
   39.9631   34.5254   48.2949 C   0  0  0  0  0  0  0  0  0  0  0  0
   40.1934   34.0166   47.0449 N   0  0  0  0  0  0  0  0  0  0  0  0
   39.6728   32.8668   46.6296 C   0  0  0  0  0  0  0  0  0  0  0  0
   38.8784   32.1495   47.4578 N   0  0  0  0  0  0  0  0  0  0  0  0
   34.4461   28.3508   50.5935 H   0  0  0  0  0  0  0  0  0  0  0  0
   35.4561   27.3480   49.5095 H   0  0  0  0  0  0  0  0  0  0  0  0
   39.0451   30.0805   49.8167 H   0  0  0  0  0  0  0  0  0  0  0  0
   37.7091   28.5438   48.7332 H   0  0  0  0  0  0  0  0  0  0  0  0
   32.4785   29.6049   48.3515 H   0  0  0  0  0  0  0  0  0  0  0  0
   33.4885   31.0291   48.6861 H   0  0  0  0  0  0  0  0  0  0  0  0
   33.0949   29.9222   50.0372 H   0  0  0  0  0  0  0  0  0  0  0  0
   33.2509   27.7127   47.7032 H   0  0  0  0  0  0  0  0  0  0  0  0
   35.0157   27.3342   47.5671 H   0  0  0  0  0  0  0  0  0  0  0  0
   33.8510   29.6656   46.3371 H   0  0  0  0  0  0  0  0  0  0  0  0
   38.9583   34.1937   50.1535 H   0  0  0  0  0  0  0  0  0  0  0  0
   40.3957   35.4662   48.6195 H   0  0  0  0  0  0  0  0  0  0  0  0
   36.3961   32.6613   45.1758 N   0  0  0  0  0  0  0  0  0  0  0  0
   37.4787   32.4195   44.8487 C   0  0  0  0  0  0  0  0  0  0  0  0
   38.8326   32.1302   44.4472 C   0  0  0  0  0  0  0  0  0  0  0  0
   39.9277   32.3377   45.2939 C   0  0  0  0  0  0  0  0  0  0  0  0
   41.2081   32.0413   44.8533 C   0  0  0  0  0  0  0  0  0  0  0  0
   42.0480   32.2037   45.5115 H   0  0  0  0  0  0  0  0  0  0  0  0
   41.4052   31.5367   43.5672 C   0  0  0  0  0  0  0  0  0  0  0  0
   42.3971   31.2926   43.1875 H   0  0  0  0  0  0  0  0  0  0  0  0
   40.2979   31.3476   42.7657 C   0  0  0  0  0  0  0  0  0  0  0  0
   38.9927   31.6274   43.1557 C   0  0  0  0  0  0  0  0  0  0  0  0
   40.4314   30.9513   41.7497 H   0  0  0  0  0  0  0  0  0  0  0  0
   38.1712   31.4627   42.4961 H   0  0  0  0  0  0  0  0  0  0  0  0
  1 10  1  6
  1  9  1  0
  1  2  1  0
  2  3  1  0
  3  4  1  0
  4  5  2  0
  6  4  1  0
  7  6  1  0
  7  3  1  0
  8  1  1  0
  8  7  1  0
 11 10  1  0
 12  6  1  0
 12 13  2  0
 14 15  2  0
 14 12  1  0
 16 15  1  0
 17 16  2  0
 18 17  1  0
 18 19  2  0
 19 14  1  0
  2 20  1  0
  2 21  1  0
  6 22  1  1
  7 23  1  6
  9 24  1  0
  9 25  1  0
  9 26  1  0
 10 27  1  0
 10 28  1  0
 11 29  1  0
 15 30  1  0
 16 31  1  0
 32 33  3  0
 33 34  1  0
 34 35  2  0
 35 36  1  0
 36 37  1  0
 36 38  2  0
 38 39  1  0
 38 40  1  0
 40 41  2  0
 41 34  1  0
 40 42  1  0
 41 43  1  0
 18 35  1  0
M  ISO  8  20  13  21  13  22  13  23  13  24   8  25   8  26   8  27   8
M  ISO  6  28   8  29   3  30  14  31  14  37  15  39  16
M  END
>  <DihAtoms>  (1) 
16,17,34,33

>  <DihDeg>  (1) 
0.0020959047191252524

$$$$
