
 OpenBabel03272501083D

 41 44  0  0  1  0  0  0  0  0999 V2000
   38.0580   32.1900   46.0940 O   0  0  0  0  0  0  0  0  0  0  0  0
   38.7970   32.2130   47.2260 C   0  0  2  0  0  0  0  0  0  0  0  0
   37.9190   32.4140   48.5030 C   0  0  2  0  0  0  0  0  0  0  0  0
   38.8770   33.0430   49.3990 C   0  0  0  0  0  0  0  0  0  0  0  0
   39.6960   33.8720   48.6450 O   0  0  0  0  0  0  0  0  0  0  0  0
   39.5120   33.5880   47.3350 C   0  0  0  0  0  0  0  0  0  0  0  0
   39.5250   31.4190   47.3520 H   0  0  0  0  0  0  0  0  0  0  0  0
   37.1390   33.1330   48.1720 H   0  0  0  0  0  0  0  0  0  0  0  0
   39.5380   32.3900   49.9670 H   0  0  0  0  0  0  0  0  0  0  0  0
   38.3190   33.6920   50.1340 H   0  0  0  0  0  0  0  0  0  0  0  0
   40.4870   33.4470   46.8150 H   0  0  0  0  0  0  0  0  0  0  0  0
   38.8880   34.3620   46.8640 H   0  0  0  0  0  0  0  0  0  0  0  0
   37.1740   29.1880   50.2870 C   0  0  0  0  0  0  0  0  0  0  0  0
   37.8540   30.3850   49.9280 C   0  0  0  0  0  0  0  0  0  0  0  0
   37.2720   31.1940   48.9150 C   0  0  0  0  0  0  0  0  0  0  0  0
   36.0920   30.7930   48.3330 N   0  0  0  0  0  0  0  0  0  0  0  0
   35.4900   29.6580   48.7050 C   0  0  0  0  0  0  0  0  0  0  0  0
   36.0060   28.8520   49.6660 N   0  0  0  0  0  0  0  0  0  0  0  0
   37.6440   28.6040   51.0550 H   0  0  0  0  0  0  0  0  0  0  0  0
   38.7770   30.6480   50.4220 H   0  0  0  0  0  0  0  0  0  0  0  0
   34.5640   29.3110   48.2690 H   0  0  0  0  0  0  0  0  0  0  0  0
   40.4670   31.6660   44.2430 Cl  0  0  0  0  0  0  0  0  0  0  0  0
   38.8540   31.0240   44.0210 C   0  0  0  0  0  0  0  0  0  0  0  0
   37.9570   31.4130   44.9970 C   0  0  0  0  0  0  0  0  0  0  0  0
   36.6760   30.9070   44.8270 C   0  0  0  0  0  0  0  0  0  0  0  0
   36.3170   30.0880   43.7840 C   0  0  0  0  0  0  0  0  0  0  0  0
   37.2770   29.7440   42.8490 C   0  0  0  0  0  0  0  0  0  0  0  0
   38.5800   30.2100   42.9480 C   0  0  0  0  0  0  0  0  0  0  0  0
   35.8410   31.1020   45.4890 H   0  0  0  0  0  0  0  0  0  0  0  0
   35.3280   29.6790   43.6290 H   0  0  0  0  0  0  0  0  0  0  0  0
   37.0640   29.1040   42.0030 H   0  0  0  0  0  0  0  0  0  0  0  0
   40.1950   28.6280   41.9060 C   0  0  0  0  0  0  0  0  0  0  0  0
   39.6660   29.9110   42.0220 C   0  0  0  0  0  0  0  0  0  0  0  0
   40.2190   30.8830   41.2170 C   0  0  0  0  0  0  0  0  0  0  0  0
   39.7960   31.8830   41.3180 H   0  0  0  0  0  0  0  0  0  0  0  0
   41.2440   30.6890   40.3140 C   0  0  0  0  0  0  0  0  0  0  0  0
   41.6200   31.5120   39.7200 H   0  0  0  0  0  0  0  0  0  0  0  0
   41.7440   29.4120   40.2250 C   0  0  0  0  0  3  0  0  0  0  0  0
   41.2220   28.4080   41.0090 C   0  0  0  0  0  3  0  0  0  0  0  0
   39.1930   26.7600   43.4140 N   0  0  0  0  0  0  0  0  0  0  0  0
   39.6290   27.5940   42.7410 C   0  0  0  0  0  0  0  0  0  0  0  0
  1  2  1  0  0  0  0
  2  6  1  0  0  0  0
  2  7  1  1  0  0  0
  2  3  1  0  0  0  0
  3  8  1  6  0  0  0
  3 15  1  0  0  0  0
  3  4  1  0  0  0  0
  4  9  1  0  0  0  0
  4 10  1  0  0  0  0
  5  4  1  0  0  0  0
  6  5  1  0  0  0  0
 11  6  1  0  0  0  0
 12  6  1  0  0  0  0
 13 19  1  0  0  0  0
 14 13  1  0  0  0  0
 14 20  1  0  0  0  0
 15 14  2  0  0  0  0
 16 17  2  0  0  0  0
 16 15  1  0  0  0  0
 17 18  1  0  0  0  0
 18 13  2  0  0  0  0
 21 17  1  0  0  0  0
 23 22  1  0  0  0  0
 23 24  1  0  0  0  0
 24  1  1  0  0  0  0
 25 24  2  0  0  0  0
 25 29  1  0  0  0  0
 26 25  1  0  0  0  0
 27 28  1  0  0  0  0
 27 26  2  0  0  0  0
 28 23  2  0  0  0  0
 30 26  1  0  0  0  0
 31 27  1  0  0  0  0
 32 33  1  0  0  0  0
 32 41  1  0  0  0  0
 33 28  1  0  0  0  0
 34 35  1  0  0  0  0
 34 33  2  0  0  0  0
 36 34  1  0  0  0  0
 37 36  1  0  0  0  0
 38 36  2  0  0  0  0
 38 39  1  0  0  0  0
 39 32  2  0  0  0  0
 41 40  3  0  0  0  0
M  END
>  <minimizedAffinity>
-5.92384148

>  <minimizedRMSD>
1.21224475

$$$$
