
 OpenBabel03272502393D

 41 44  0  0  1  0  0  0  0  0999 V2000
   32.5740   28.1010   48.0500 N   0  0  0  0  0  0  0  0  0  0  0  0
   33.2660   28.0390   46.7770 C   0  0  0  0  0  0  0  0  0  0  0  0
   34.5580   28.7520   47.0540 C   0  0  0  0  0  0  0  0  0  0  0  0
   34.3770   29.3660   48.5180 C   0  0  1  0  0  0  0  0  0  0  0  0
   33.5750   28.3000   49.1170 C   0  0  0  0  0  0  0  0  0  0  0  0
   33.4250   26.9950   46.4380 H   0  0  0  0  0  0  0  0  0  0  0  0
   32.7090   28.6450   46.0380 H   0  0  0  0  0  0  0  0  0  0  0  0
   34.7720   29.6040   46.3810 H   0  0  0  0  0  0  0  0  0  0  0  0
   35.3840   28.0490   47.1600 H   0  0  0  0  0  0  0  0  0  0  0  0
   33.8660   30.3080   48.2880 H   0  0  0  0  0  0  0  0  0  0  0  0
   34.1140   27.3350   49.1560 H   0  0  0  0  0  0  0  0  0  0  0  0
   33.0730   28.5460   50.0720 H   0  0  0  0  0  0  0  0  0  0  0  0
   36.0360   31.5110   47.6670 F   0  0  0  0  0  0  0  0  0  0  0  0
   36.4060   30.6630   48.6410 C   0  0  0  0  0  0  0  0  0  0  0  0
   35.7090   29.5750   49.0870 C   0  0  0  0  0  0  0  0  0  0  0  0
   36.2710   28.8090   50.1250 C   0  0  0  0  0  0  0  0  0  0  0  0
   37.4780   29.1200   50.6930 C   0  0  0  0  0  0  0  0  0  0  0  0
   38.1740   30.2370   50.2190 C   0  0  0  0  0  0  0  0  0  0  0  0
   37.6200   31.0090   49.1800 C   0  0  0  0  0  0  0  0  0  0  0  0
   35.6580   27.9680   50.4180 H   0  0  0  0  0  0  0  0  0  0  0  0
   37.8360   28.4800   51.4870 H   0  0  0  0  0  0  0  0  0  0  0  0
   39.1230   30.4730   50.6720 H   0  0  0  0  0  0  0  0  0  0  0  0
   38.9720   32.0690   47.4730 C   0  0  0  0  0  0  0  0  0  0  0  0
   38.4250   32.1500   48.7600 C   0  0  0  0  0  0  0  0  0  0  0  0
   38.6620   33.2680   49.5510 C   0  0  0  0  0  0  0  0  0  0  0  0
   38.2150   33.2810   50.5410 H   0  0  0  0  0  0  0  0  0  0  0  0
   39.4460   34.2750   49.0200 C   0  0  0  0  0  0  0  0  0  0  0  0
   39.6130   35.1300   49.6570 H   0  0  0  0  0  0  0  0  0  0  0  0
   39.9810   34.1900   47.7560 C   0  0  0  0  0  3  0  0  0  0  0  0
   39.7560   33.0850   46.9550 C   0  0  0  0  0  3  0  0  0  0  0  0
   38.5330   29.9650   45.9860 N   0  0  0  0  0  0  0  0  0  0  0  0
   38.7270   30.9060   46.6470 C   0  0  0  0  0  0  0  0  0  0  0  0
   31.1850   27.9980   48.2720 C   0  0  0  0  0  0  0  0  0  0  0  0
   30.3650   28.3250   47.1830 C   0  0  0  0  0  0  0  0  0  0  0  0
   28.9730   28.2520   47.3420 C   0  0  0  0  0  0  0  0  0  0  0  0
   28.5120   27.8550   48.5850 N   0  0  0  0  0  0  0  0  0  0  0  0
   29.3320   27.5510   49.6020 C   0  0  0  0  0  0  0  0  0  0  0  0
   30.6780   27.6220   49.4470 N   0  0  0  0  0  0  0  0  0  0  0  0
   30.6660   28.6340   46.2100 H   0  0  0  0  0  0  0  0  0  0  0  0
   28.2800   28.4880   46.5490 H   0  0  0  0  0  0  0  0  0  0  0  0
   28.8570   27.2550   50.5200 H   0  0  0  0  0  0  0  0  0  0  0  0
  1 33  1  0  0  0  0
  1  5  1  0  0  0  0
  2  3  1  0  0  0  0
  2  1  1  0  0  0  0
  3  9  1  0  0  0  0
  3  4  1  0  0  0  0
  4 10  1  6  0  0  0
  4 15  1  0  0  0  0
  4  5  1  0  0  0  0
  5 11  1  0  0  0  0
  5 12  1  0  0  0  0
  6  2  1  0  0  0  0
  7  2  1  0  0  0  0
  8  3  1  0  0  0  0
 13 14  1  0  0  0  0
 14 15  2  0  0  0  0
 14 19  1  0  0  0  0
 15 16  1  0  0  0  0
 16 20  1  0  0  0  0
 16 17  2  0  0  0  0
 17 21  1  0  0  0  0
 18 22  1  0  0  0  0
 18 17  1  0  0  0  0
 19 18  2  0  0  0  0
 23 24  1  0  0  0  0
 24 19  1  0  0  0  0
 24 25  2  0  0  0  0
 25 26  1  0  0  0  0
 27 25  1  0  0  0  0
 27 28  1  0  0  0  0
 29 27  2  0  0  0  0
 30 23  2  0  0  0  0
 30 29  1  0  0  0  0
 31 32  3  0  0  0  0
 32 23  1  0  0  0  0
 33 38  1  0  0  0  0
 34 35  1  0  0  0  0
 34 33  2  0  0  0  0
 35 36  2  0  0  0  0
 36 37  1  0  0  0  0
 37 41  1  0  0  0  0
 38 37  2  0  0  0  0
 39 34  1  0  0  0  0
 40 35  1  0  0  0  0
M  END
>  <minimizedAffinity>
-6.79971552

>  <minimizedRMSD>
2.73339868

$$$$
