
 OpenBabel03262520283D

 21 22  0  0  0  0  0  0  0  0999 V2000
   37.8910   29.9000   50.2110 C   0  0  0  0  0  0  0  0  0  0  0  0
   38.4080   31.2140   50.3210 C   0  0  0  0  0  0  0  0  0  0  0  0
   38.0260   32.1250   49.3500 C   0  0  0  0  0  0  0  0  0  0  0  0
   37.1930   31.7290   48.3600 N   0  0  0  0  0  0  0  0  0  0  0  0
   36.7140   30.4760   48.2750 C   0  0  0  0  0  0  0  0  0  0  0  0
   37.0660   29.5710   49.1990 N   0  0  0  0  0  0  0  0  0  0  0  0
   38.5540   33.4490   49.4720 N   0  0  0  0  0  0  0  0  0  0  0  0
   38.1870   29.1790   50.9680 H   0  0  0  0  0  0  0  0  0  0  0  0
   39.0690   31.4220   51.1570 H   0  0  0  0  0  0  0  0  0  0  0  0
   39.5150   33.8340   49.3140 H   0  0  0  0  0  0  0  0  0  0  0  0
   37.7450   34.0560   49.7780 H   0  0  0  0  0  0  0  0  0  0  0  0
   34.5880   29.5660   47.3990 C   0  0  0  0  0  0  0  0  0  0  0  0
   35.8210   30.1370   47.1710 C   0  0  0  0  0  0  0  0  0  0  0  0
   36.2760   30.4200   45.8870 C   0  0  0  0  0  0  0  0  0  0  0  0
   37.2410   30.8670   45.6980 H   0  0  0  0  0  0  0  0  0  0  0  0
   35.4350   30.1030   44.8150 C   0  0  0  0  0  0  0  0  0  0  0  0
   35.7850   30.3210   43.8150 H   0  0  0  0  0  0  0  0  0  0  0  0
   34.2080   29.5320   45.0820 C   0  0  0  0  0  3  0  0  0  0  0  0
   33.7430   29.2470   46.3510 C   0  0  0  0  0  3  0  0  0  0  0  0
   33.8210   29.0970   49.8390 N   0  0  0  0  0  0  0  0  0  0  0  0
   34.1700   29.2980   48.7370 C   0  0  0  0  0  0  0  0  0  0  0  0
  1  2  1  0  0  0  0
  1  8  1  0  0  0  0
  2  9  1  0  0  0  0
  3  7  1  0  0  0  0
  3  2  2  0  0  0  0
  4  3  1  0  0  0  0
  5  4  2  0  0  0  0
  5  6  1  0  0  0  0
  6  1  2  0  0  0  0
  7 11  1  0  0  0  0
 10  7  1  0  0  0  0
 12 21  1  0  0  0  0
 13 12  1  0  0  0  0
 13  5  1  0  0  0  0
 14 13  2  0  0  0  0
 15 14  1  0  0  0  0
 16 18  2  0  0  0  0
 16 14  1  0  0  0  0
 17 16  1  0  0  0  0
 18 19  1  0  0  0  0
 19 12  2  0  0  0  0
 21 20  3  0  0  0  0
M  END
>  <minimizedAffinity>
-4.4843359

>  <minimizedRMSD>
3.13177514

$$$$
