
 OpenBabel03272508573D

 41 44  0  0  1  0  0  0  0  0999 V2000
   39.1720   31.4180   43.3430 C   0  0  0  0  0  0  0  0  0  0  0  0
   40.1980   30.5210   43.5240 C   0  0  0  0  0  0  0  0  0  0  0  0
   40.9210   30.1520   42.3990 C   0  0  0  0  0  0  0  0  0  0  0  0
   40.5780   30.6900   41.1900 C   0  0  0  0  0  0  0  0  0  0  0  0
   39.5480   31.5860   41.0130 C   0  0  0  0  0  0  0  0  0  0  0  0
   38.8610   31.9290   42.1300 N   0  0  0  0  0  0  0  0  0  0  0  0
   40.4750   30.0880   44.4860 H   0  0  0  0  0  0  0  0  0  0  0  0
   41.7290   29.4470   42.5400 H   0  0  0  0  0  0  0  0  0  0  0  0
   41.1970   30.3470   40.3820 H   0  0  0  0  0  0  0  0  0  0  0  0
   38.3890   31.8470   44.5320 C   0  0  0  0  0  0  0  0  0  0  0  0
   37.3190   32.4530   44.4200 O   0  0  0  0  0  0  0  0  0  0  0  0
   38.9390   31.5200   45.8370 N   0  0  0  0  0  0  0  0  0  0  0  0
   39.9110   31.1970   45.9980 H   0  0  0  0  0  0  0  0  0  0  0  0
   38.4130   31.0750   48.2290 C   0  0  2  0  0  0  0  0  0  0  0  0
   38.6620   32.5350   48.1070 C   0  0  0  0  0  0  0  0  0  0  0  0
   38.0570   31.6610   46.9770 C   0  0  1  0  0  0  0  0  0  0  0  0
   39.3490   30.4760   48.3360 H   0  0  0  0  0  0  0  0  0  0  0  0
   37.9720   33.2590   48.5910 H   0  0  0  0  0  0  0  0  0  0  0  0
   39.6810   32.9000   47.9770 H   0  0  0  0  0  0  0  0  0  0  0  0
   36.9800   31.8970   46.7660 H   0  0  0  0  0  0  0  0  0  0  0  0
   35.0530   30.2120   49.5370 C   0  0  0  0  0  0  0  0  0  0  0  0
   35.3780   29.5800   50.7720 C   0  0  0  0  0  0  0  0  0  0  0  0
   36.7540   29.4720   51.1420 C   0  0  0  0  0  0  0  0  0  0  0  0
   37.7200   29.9750   50.3040 N   0  0  0  0  0  0  0  0  0  0  0  0
   37.3330   30.5630   49.1420 C   0  0  0  0  0  0  0  0  0  0  0  0
   36.0130   30.7010   48.7240 N   0  0  0  0  0  0  0  0  0  0  0  0
   34.0020   30.2630   49.3130 H   0  0  0  0  0  0  0  0  0  0  0  0
   34.6500   29.1850   51.4340 H   0  0  0  0  0  0  0  0  0  0  0  0
   37.0100   28.9950   52.0780 H   0  0  0  0  0  0  0  0  0  0  0  0
   39.1590   32.1330   39.7080 C   0  0  0  0  0  0  0  0  0  0  0  0
   39.9680   31.9830   38.7300 O   0  0  0  0  0  0  0  0  0  0  0  0
   36.8450   32.0950   39.0020 C   0  0  0  0  0  0  0  0  0  0  0  0
   38.0020   32.8570   39.2220 C   0  0  0  0  0  0  0  0  0  0  0  0
   37.8280   34.1840   38.9310 C   0  0  0  0  0  0  0  0  0  0  0  0
   38.6830   34.8190   39.0890 H   0  0  0  0  0  0  0  0  0  0  0  0
   36.6760   34.7720   38.4710 C   0  0  0  0  0  0  0  0  0  0  0  0
   36.6730   35.8360   38.2790 H   0  0  0  0  0  0  0  0  0  0  0  0
   35.6020   33.9520   38.2870 C   0  0  0  0  0  3  0  0  0  0  0  0
   35.6240   32.5980   38.5360 C   0  0  0  0  0  3  0  0  0  0  0  0
   36.8940   29.5150   39.4900 N   0  0  0  0  0  0  0  0  0  0  0  0
   36.8660   30.6640   39.2650 C   0  0  0  0  0  0  0  0  0  0  0  0
  1  2  1  0  0  0  0
  1 10  1  0  0  0  0
  2  7  1  0  0  0  0
  3  8  1  0  0  0  0
  3  2  2  0  0  0  0
  4  3  1  0  0  0  0
  5  4  2  0  0  0  0
  5  6  1  0  0  0  0
  6  1  2  0  0  0  0
  9  4  1  0  0  0  0
 10 12  1  0  0  0  0
 11 10  2  0  0  0  0
 12 13  1  0  0  0  0
 12 16  1  0  0  0  0
 14 17  1  6  0  0  0
 14 25  1  0  0  0  0
 15 14  1  0  0  0  0
 15 18  1  0  0  0  0
 16 20  1  6  0  0  0
 16 15  1  0  0  0  0
 16 14  1  0  0  0  0
 19 15  1  0  0  0  0
 21 22  1  0  0  0  0
 22 23  2  0  0  0  0
 22 28  1  0  0  0  0
 23 29  1  0  0  0  0
 24 23  1  0  0  0  0
 25 24  2  0  0  0  0
 26 25  1  0  0  0  0
 26 21  2  0  0  0  0
 27 21  1  0  0  0  0
 30  5  1  0  0  0  0
 31 30  2  0  0  0  0
 32 33  1  0  0  0  0
 32 41  1  0  0  0  0
 33 30  1  0  0  0  0
 34 35  1  0  0  0  0
 34 33  2  0  0  0  0
 36 34  1  0  0  0  0
 37 36  1  0  0  0  0
 38 36  2  0  0  0  0
 38 39  1  0  0  0  0
 39 32  2  0  0  0  0
 41 40  3  0  0  0  0
M  END
>  <minimizedAffinity>
-4.95428276

>  <minimizedRMSD>
2.11389613

$$$$
