
 OpenBabel03272508573D

 41 44  0  0  1  0  0  0  0  0999 V2000
   39.1080   31.5140   43.3020 C   0  0  0  0  0  0  0  0  0  0  0  0
   40.1210   30.5980   43.4540 C   0  0  0  0  0  0  0  0  0  0  0  0
   40.8390   30.2540   42.3170 C   0  0  0  0  0  0  0  0  0  0  0  0
   40.5040   30.8360   41.1270 C   0  0  0  0  0  0  0  0  0  0  0  0
   39.4870   31.7530   40.9790 C   0  0  0  0  0  0  0  0  0  0  0  0
   38.8050   32.0690   42.1070 N   0  0  0  0  0  0  0  0  0  0  0  0
   40.3920   30.1290   44.4010 H   0  0  0  0  0  0  0  0  0  0  0  0
   41.6370   29.5340   42.4340 H   0  0  0  0  0  0  0  0  0  0  0  0
   41.1180   30.5110   40.3070 H   0  0  0  0  0  0  0  0  0  0  0  0
   38.3320   31.9150   44.5050 C   0  0  0  0  0  0  0  0  0  0  0  0
   37.2310   32.4650   44.4120 O   0  0  0  0  0  0  0  0  0  0  0  0
   38.9270   31.6300   45.8000 N   0  0  0  0  0  0  0  0  0  0  0  0
   39.9180   31.3590   45.9410 H   0  0  0  0  0  0  0  0  0  0  0  0
   38.4320   31.0990   48.1800 C   0  0  2  0  0  0  0  0  0  0  0  0
   38.7020   32.5580   48.1120 C   0  0  0  0  0  0  0  0  0  0  0  0
   38.0660   31.7390   46.9590 C   0  0  1  0  0  0  0  0  0  0  0  0
   39.3610   30.4820   48.2490 H   0  0  0  0  0  0  0  0  0  0  0  0
   38.0290   33.2720   48.6360 H   0  0  0  0  0  0  0  0  0  0  0  0
   39.7240   32.9140   47.9810 H   0  0  0  0  0  0  0  0  0  0  0  0
   36.9890   31.9980   46.7750 H   0  0  0  0  0  0  0  0  0  0  0  0
   35.0810   30.2300   49.5070 C   0  0  0  0  0  0  0  0  0  0  0  0
   35.4150   29.5470   50.7120 C   0  0  0  0  0  0  0  0  0  0  0  0
   36.7960   29.4070   51.0560 C   0  0  0  0  0  0  0  0  0  0  0  0
   37.7560   29.9280   50.2230 N   0  0  0  0  0  0  0  0  0  0  0  0
   37.3590   30.5660   49.0900 C   0  0  0  0  0  0  0  0  0  0  0  0
   36.0350   30.7370   48.6990 N   0  0  0  0  0  0  0  0  0  0  0  0
   34.0270   30.3040   49.3010 H   0  0  0  0  0  0  0  0  0  0  0  0
   34.6920   29.1360   51.3690 H   0  0  0  0  0  0  0  0  0  0  0  0
   37.0580   28.8900   51.9680 H   0  0  0  0  0  0  0  0  0  0  0  0
   39.1060   32.3470   39.6930 C   0  0  0  0  0  0  0  0  0  0  0  0
   38.9630   33.6160   39.6380 O   0  0  0  0  0  0  0  0  0  0  0  0
   37.5240   31.3380   38.1660 C   0  0  0  0  0  0  0  0  0  0  0  0
   38.8280   31.8100   38.3760 C   0  0  0  0  0  0  0  0  0  0  0  0
   39.6270   31.6780   37.2710 C   0  0  0  0  0  0  0  0  0  0  0  0
   40.6380   32.0320   37.3740 H   0  0  0  0  0  0  0  0  0  0  0  0
   39.2570   31.1490   36.0590 C   0  0  0  0  0  0  0  0  0  0  0  0
   39.9890   31.1010   35.2660 H   0  0  0  0  0  0  0  0  0  0  0  0
   37.9680   30.7140   35.9480 C   0  0  0  0  0  3  0  0  0  0  0  0
   37.0490   30.7830   36.9710 C   0  0  0  0  0  3  0  0  0  0  0  0
   35.7730   31.4810   40.1190 N   0  0  0  0  0  0  0  0  0  0  0  0
   36.5490   31.4090   39.2450 C   0  0  0  0  0  0  0  0  0  0  0  0
  1  2  1  0  0  0  0
  1 10  1  0  0  0  0
  2  7  1  0  0  0  0
  3  8  1  0  0  0  0
  3  2  2  0  0  0  0
  4  3  1  0  0  0  0
  5  4  2  0  0  0  0
  5  6  1  0  0  0  0
  6  1  2  0  0  0  0
  9  4  1  0  0  0  0
 10 12  1  0  0  0  0
 11 10  2  0  0  0  0
 12 13  1  0  0  0  0
 12 16  1  0  0  0  0
 14 17  1  6  0  0  0
 14 25  1  0  0  0  0
 15 14  1  0  0  0  0
 15 18  1  0  0  0  0
 16 20  1  6  0  0  0
 16 15  1  0  0  0  0
 16 14  1  0  0  0  0
 19 15  1  0  0  0  0
 21 22  1  0  0  0  0
 22 23  2  0  0  0  0
 22 28  1  0  0  0  0
 23 29  1  0  0  0  0
 24 23  1  0  0  0  0
 25 24  2  0  0  0  0
 26 25  1  0  0  0  0
 26 21  2  0  0  0  0
 27 21  1  0  0  0  0
 30  5  1  0  0  0  0
 31 30  2  0  0  0  0
 32 33  1  0  0  0  0
 32 41  1  0  0  0  0
 33 30  1  0  0  0  0
 34 35  1  0  0  0  0
 34 33  2  0  0  0  0
 36 34  1  0  0  0  0
 37 36  1  0  0  0  0
 38 36  2  0  0  0  0
 38 39  1  0  0  0  0
 39 32  2  0  0  0  0
 41 40  3  0  0  0  0
M  END
>  <minimizedAffinity>
-4.73289776

>  <minimizedRMSD>
0.749972939

$$$$
