
 OpenBabel03272508573D

 41 44  0  0  1  0  0  0  0  0999 V2000
   39.1090   31.5140   43.2990 C   0  0  0  0  0  0  0  0  0  0  0  0
   40.1220   30.5970   43.4510 C   0  0  0  0  0  0  0  0  0  0  0  0
   40.8400   30.2540   42.3140 C   0  0  0  0  0  0  0  0  0  0  0  0
   40.5040   30.8360   41.1230 C   0  0  0  0  0  0  0  0  0  0  0  0
   39.4870   31.7530   40.9760 C   0  0  0  0  0  0  0  0  0  0  0  0
   38.8050   32.0690   42.1040 N   0  0  0  0  0  0  0  0  0  0  0  0
   40.3930   30.1280   44.3980 H   0  0  0  0  0  0  0  0  0  0  0  0
   41.6370   29.5330   42.4300 H   0  0  0  0  0  0  0  0  0  0  0  0
   41.1180   30.5100   40.3040 H   0  0  0  0  0  0  0  0  0  0  0  0
   38.3330   31.9150   44.5020 C   0  0  0  0  0  0  0  0  0  0  0  0
   37.2320   32.4660   44.4100 O   0  0  0  0  0  0  0  0  0  0  0  0
   38.9280   31.6300   45.7970 N   0  0  0  0  0  0  0  0  0  0  0  0
   39.9190   31.3580   45.9380 H   0  0  0  0  0  0  0  0  0  0  0  0
   38.4330   31.0980   48.1770 C   0  0  2  0  0  0  0  0  0  0  0  0
   38.7040   32.5570   48.1100 C   0  0  0  0  0  0  0  0  0  0  0  0
   38.0670   31.7380   46.9560 C   0  0  1  0  0  0  0  0  0  0  0  0
   39.3610   30.4800   48.2450 H   0  0  0  0  0  0  0  0  0  0  0  0
   38.0320   33.2710   48.6340 H   0  0  0  0  0  0  0  0  0  0  0  0
   39.7260   32.9120   47.9780 H   0  0  0  0  0  0  0  0  0  0  0  0
   36.9900   31.9990   46.7730 H   0  0  0  0  0  0  0  0  0  0  0  0
   35.0810   30.2250   49.5000 C   0  0  0  0  0  0  0  0  0  0  0  0
   35.4150   29.5470   50.7080 C   0  0  0  0  0  0  0  0  0  0  0  0
   36.7950   29.4130   51.0560 C   0  0  0  0  0  0  0  0  0  0  0  0
   37.7550   29.9340   50.2230 N   0  0  0  0  0  0  0  0  0  0  0  0
   37.3590   30.5650   49.0870 C   0  0  0  0  0  0  0  0  0  0  0  0
   36.0360   30.7310   48.6920 N   0  0  0  0  0  0  0  0  0  0  0  0
   34.0280   30.2940   49.2910 H   0  0  0  0  0  0  0  0  0  0  0  0
   34.6920   29.1370   51.3660 H   0  0  0  0  0  0  0  0  0  0  0  0
   37.0580   28.9010   51.9710 H   0  0  0  0  0  0  0  0  0  0  0  0
   39.1060   32.3470   39.6900 C   0  0  0  0  0  0  0  0  0  0  0  0
   38.9640   33.6160   39.6350 O   0  0  0  0  0  0  0  0  0  0  0  0
   37.5230   31.3380   38.1640 C   0  0  0  0  0  0  0  0  0  0  0  0
   38.8270   31.8100   38.3730 C   0  0  0  0  0  0  0  0  0  0  0  0
   39.6250   31.6760   37.2690 C   0  0  0  0  0  0  0  0  0  0  0  0
   40.6370   32.0290   37.3700 H   0  0  0  0  0  0  0  0  0  0  0  0
   39.2550   31.1460   36.0560 C   0  0  0  0  0  0  0  0  0  0  0  0
   39.9860   31.0990   35.2630 H   0  0  0  0  0  0  0  0  0  0  0  0
   37.9650   30.7120   35.9460 C   0  0  0  0  0  3  0  0  0  0  0  0
   37.0480   30.7820   36.9690 C   0  0  0  0  0  3  0  0  0  0  0  0
   35.7740   31.4820   40.1180 N   0  0  0  0  0  0  0  0  0  0  0  0
   36.5490   31.4100   39.2440 C   0  0  0  0  0  0  0  0  0  0  0  0
  1  2  1  0  0  0  0
  1 10  1  0  0  0  0
  2  7  1  0  0  0  0
  3  8  1  0  0  0  0
  3  2  2  0  0  0  0
  4  3  1  0  0  0  0
  5  4  2  0  0  0  0
  5  6  1  0  0  0  0
  6  1  2  0  0  0  0
  9  4  1  0  0  0  0
 10 12  1  0  0  0  0
 11 10  2  0  0  0  0
 12 13  1  0  0  0  0
 12 16  1  0  0  0  0
 14 17  1  6  0  0  0
 14 25  1  0  0  0  0
 15 14  1  0  0  0  0
 15 18  1  0  0  0  0
 16 20  1  6  0  0  0
 16 15  1  0  0  0  0
 16 14  1  0  0  0  0
 19 15  1  0  0  0  0
 21 22  1  0  0  0  0
 22 23  2  0  0  0  0
 22 28  1  0  0  0  0
 23 29  1  0  0  0  0
 24 23  1  0  0  0  0
 25 24  2  0  0  0  0
 26 25  1  0  0  0  0
 26 21  2  0  0  0  0
 27 21  1  0  0  0  0
 30  5  1  0  0  0  0
 31 30  2  0  0  0  0
 32 33  1  0  0  0  0
 32 41  1  0  0  0  0
 33 30  1  0  0  0  0
 34 35  1  0  0  0  0
 34 33  2  0  0  0  0
 36 34  1  0  0  0  0
 37 36  1  0  0  0  0
 38 36  2  0  0  0  0
 38 39  1  0  0  0  0
 39 32  2  0  0  0  0
 41 40  3  0  0  0  0
M  END
>  <minimizedAffinity>
-4.73414707

>  <minimizedRMSD>
0.271357149

$$$$
