REMARK  Name = 
REMARK  6 active torsions:
REMARK  status: ('A' for Active; 'I' for Inactive)
REMARK    1  A    between atoms: C_1  and  C_8
REMARK    2  A    between atoms: C_3  and  N_12
REMARK    3  A    between atoms: C_10  and  C_13
REMARK    4  A    between atoms: C_17  and  C_19
REMARK    5  A    between atoms: C_19  and  C_35
REMARK    6  A    between atoms: C_33  and  C_34
REMARK                            x       y       z     vdW  Elec       q    Type
REMARK                         _______ _______ _______ _____ _____    ______ ____
ROOT
ATOM      1  C   UNL     1      39.126  31.501  43.285  0.00  0.00    +0.000 A 
ATOM      2  C   UNL     1      40.141  30.588  43.444  0.00  0.00    +0.000 A 
ATOM      3  C   UNL     1      40.864  30.242  42.311  0.00  0.00    +0.000 A 
ATOM      4  C   UNL     1      40.531  30.818  41.117  0.00  0.00    +0.000 A 
ATOM      5  C   UNL     1      39.512  31.731  40.962  0.00  0.00    +0.000 A 
ATOM      6  N   UNL     1      38.825  32.050  42.086  0.00  0.00    +0.000 NA
ATOM      7  H   UNL     1      40.410  30.124  44.394  0.00  0.00    +0.000 HD
ATOM      8  H   UNL     1      41.663  29.524  42.434  0.00  0.00    +0.000 HD
ATOM      9  H   UNL     1      41.149  30.491  40.301  0.00  0.00    +0.000 HD
ENDROOT
BRANCH   1  10
ATOM     10  C   UNL     1      38.344  31.905  44.483  0.00  0.00    +0.000 C 
ATOM     11  O   UNL     1      37.238  32.444  44.384  0.00  0.00    +0.000 OA
ATOM     12  N   UNL     1      38.940  31.636  45.781  0.00  0.00    +0.000 N 
ATOM     13  H   UNL     1      39.933  31.375  45.926  0.00  0.00    +0.000 HD
BRANCH  12  16
ATOM     14  C   UNL     1      38.442  31.113  48.163  0.00  0.00    +0.000 C 
ATOM     15  C   UNL     1      38.706  32.573  48.089  0.00  0.00    +0.000 C 
ATOM     16  C   UNL     1      38.076  31.746  46.938  0.00  0.00    +0.000 C 
ATOM     17  H   UNL     1      39.373  30.500  48.236  0.00  0.00    +0.000 HD
ATOM     18  H   UNL     1      38.030  33.287  48.608  0.00  0.00    +0.000 HD
ATOM     19  H   UNL     1      39.727  32.932  47.958  0.00  0.00    +0.000 HD
ATOM     20  H   UNL     1      36.998  32.001  46.751  0.00  0.00    +0.000 HD
BRANCH  14  25
ATOM     21  C   UNL     1      35.090  30.261  49.499  0.00  0.00    +0.000 A 
ATOM     22  C   UNL     1      35.425  29.561  50.694  0.00  0.00    +0.000 A 
ATOM     23  C   UNL     1      36.806  29.404  51.029  0.00  0.00    +0.000 A 
ATOM     24  N   UNL     1      37.766  29.926  50.196  0.00  0.00    +0.000 NA
ATOM     25  C   UNL     1      37.369  30.580  49.073  0.00  0.00    +0.000 A 
ATOM     26  N   UNL     1      36.045  30.768  48.691  0.00  0.00    +0.000 NA
ATOM     27  H   UNL     1      34.036  30.347  49.300  0.00  0.00    +0.000 HD
ATOM     28  H   UNL     1      34.702  29.150  51.351  0.00  0.00    +0.000 HD
ATOM     29  H   UNL     1      37.069  28.875  51.934  0.00  0.00    +0.000 HD
ENDBRANCH  14  25
ENDBRANCH  12  16
ENDBRANCH   1  10
BRANCH   5  30
ATOM     30  C   UNL     1      39.134  32.319  39.672  0.00  0.00    +0.000 C 
ATOM     31  O   UNL     1      38.871  33.569  39.637  0.00  0.00    +0.000 OA
BRANCH  30  33
ATOM     32  C   UNL     1      40.006  30.972  37.860  0.00  0.00    +0.000 A 
ATOM     33  C   UNL     1      38.970  31.792  38.332  0.00  0.00    +0.000 A 
ATOM     34  C   UNL     1      37.961  31.952  37.420  0.00  0.00    +0.000 A 
ATOM     35  H   UNL     1      37.134  32.567  37.732  0.00  0.00    +0.000 HD
ATOM     36  C   UNL     1      37.904  31.401  36.164  0.00  0.00    +0.000 A 
ATOM     37  H   UNL     1      37.046  31.609  35.540  0.00  0.00    +0.000 HD
ATOM     38  C   UNL     1      38.959  30.618  35.791  0.00  0.00    +0.000 A 
ATOM     39  C   UNL     1      40.044  30.365  36.599  0.00  0.00    +0.000 A 
BRANCH  32  41
ATOM     40  N   UNL     1      42.069  30.486  39.412  0.00  0.00    +0.000 NA
ATOM     41  C   UNL     1      41.154  30.702  38.713  0.00  0.00    +0.000 C 
ENDBRANCH  32  41
ENDBRANCH  30  33
ENDBRANCH   5  30
TORSDOF 6
