
 OpenBabel03272508563D

 41 44  0  0  1  0  0  0  0  0999 V2000
   39.1810   31.4010   43.2790 C   0  0  0  0  0  0  0  0  0  0  0  0
   40.2340   30.5370   43.4590 C   0  0  0  0  0  0  0  0  0  0  0  0
   40.9450   30.1620   42.3270 C   0  0  0  0  0  0  0  0  0  0  0  0
   40.5640   30.6640   41.1140 C   0  0  0  0  0  0  0  0  0  0  0  0
   39.5060   31.5290   40.9390 C   0  0  0  0  0  0  0  0  0  0  0  0
   38.8320   31.8770   42.0620 N   0  0  0  0  0  0  0  0  0  0  0  0
   40.5420   30.1320   44.4240 H   0  0  0  0  0  0  0  0  0  0  0  0
   41.7740   29.4820   42.4660 H   0  0  0  0  0  0  0  0  0  0  0  0
   41.1760   30.3200   40.3010 H   0  0  0  0  0  0  0  0  0  0  0  0
   38.4100   31.8350   44.4740 C   0  0  0  0  0  0  0  0  0  0  0  0
   37.3510   32.4600   44.3700 O   0  0  0  0  0  0  0  0  0  0  0  0
   38.9590   31.4890   45.7740 N   0  0  0  0  0  0  0  0  0  0  0  0
   39.9270   31.1480   45.9290 H   0  0  0  0  0  0  0  0  0  0  0  0
   38.4370   31.0400   48.1660 C   0  0  2  0  0  0  0  0  0  0  0  0
   38.7070   32.4960   48.0500 C   0  0  0  0  0  0  0  0  0  0  0  0
   38.0850   31.6370   46.9190 C   0  0  1  0  0  0  0  0  0  0  0  0
   39.3650   30.4260   48.2660 H   0  0  0  0  0  0  0  0  0  0  0  0
   38.0290   33.2280   48.5410 H   0  0  0  0  0  0  0  0  0  0  0  0
   39.7310   32.8470   47.9180 H   0  0  0  0  0  0  0  0  0  0  0  0
   37.0100   31.8890   46.7140 H   0  0  0  0  0  0  0  0  0  0  0  0
   35.0700   30.2530   49.5020 C   0  0  0  0  0  0  0  0  0  0  0  0
   35.3910   29.5750   50.7140 C   0  0  0  0  0  0  0  0  0  0  0  0
   36.7680   29.4110   51.0600 C   0  0  0  0  0  0  0  0  0  0  0  0
   37.7380   29.9040   50.2210 N   0  0  0  0  0  0  0  0  0  0  0  0
   37.3540   30.5380   49.0820 C   0  0  0  0  0  0  0  0  0  0  0  0
   36.0340   30.7320   48.6880 N   0  0  0  0  0  0  0  0  0  0  0  0
   34.0180   30.3460   49.2960 H   0  0  0  0  0  0  0  0  0  0  0  0
   34.6600   29.1870   51.3760 H   0  0  0  0  0  0  0  0  0  0  0  0
   37.0210   28.8990   51.9770 H   0  0  0  0  0  0  0  0  0  0  0  0
   39.0770   32.0360   39.6310 C   0  0  0  0  0  0  0  0  0  0  0  0
   39.1070   33.2990   39.4380 O   0  0  0  0  0  0  0  0  0  0  0  0
   39.5530   31.1230   37.4410 C   0  0  0  0  0  0  0  0  0  0  0  0
   38.5890   31.4130   38.4170 C   0  0  0  0  0  0  0  0  0  0  0  0
   37.3240   31.0450   38.0420 C   0  0  0  0  0  0  0  0  0  0  0  0
   36.5420   31.2380   38.7570 H   0  0  0  0  0  0  0  0  0  0  0  0
   36.9660   30.4550   36.8540 C   0  0  0  0  0  0  0  0  0  0  0  0
   35.9280   30.2140   36.6830 H   0  0  0  0  0  0  0  0  0  0  0  0
   37.9730   30.2110   35.9640 C   0  0  0  0  0  3  0  0  0  0  0  0
   39.2930   30.5240   36.2020 C   0  0  0  0  0  3  0  0  0  0  0  0
   42.0690   31.7150   37.9040 N   0  0  0  0  0  0  0  0  0  0  0  0
   40.9490   31.4530   37.6890 C   0  0  0  0  0  0  0  0  0  0  0  0
  1  2  1  0  0  0  0
  1 10  1  0  0  0  0
  2  7  1  0  0  0  0
  3  8  1  0  0  0  0
  3  2  2  0  0  0  0
  4  3  1  0  0  0  0
  5  4  2  0  0  0  0
  5  6  1  0  0  0  0
  6  1  2  0  0  0  0
  9  4  1  0  0  0  0
 10 12  1  0  0  0  0
 11 10  2  0  0  0  0
 12 13  1  0  0  0  0
 12 16  1  0  0  0  0
 14 17  1  6  0  0  0
 14 25  1  0  0  0  0
 15 14  1  0  0  0  0
 15 18  1  0  0  0  0
 16 20  1  6  0  0  0
 16 15  1  0  0  0  0
 16 14  1  0  0  0  0
 19 15  1  0  0  0  0
 21 22  1  0  0  0  0
 22 23  2  0  0  0  0
 22 28  1  0  0  0  0
 23 29  1  0  0  0  0
 24 23  1  0  0  0  0
 25 24  2  0  0  0  0
 26 25  1  0  0  0  0
 26 21  2  0  0  0  0
 27 21  1  0  0  0  0
 30  5  1  0  0  0  0
 31 30  2  0  0  0  0
 32 41  1  0  0  0  0
 32 33  1  0  0  0  0
 33 30  1  0  0  0  0
 34 33  2  0  0  0  0
 34 35  1  0  0  0  0
 36 34  1  0  0  0  0
 37 36  1  0  0  0  0
 38 39  1  0  0  0  0
 38 36  2  0  0  0  0
 39 32  2  0  0  0  0
 41 40  3  0  0  0  0
M  END
>  <minimizedAffinity>
-4.7569356

>  <minimizedRMSD>
0.570280075

$$$$
