
 OpenBabel03272508573D

 41 44  0  0  1  0  0  0  0  0999 V2000
   39.0910   31.5000   43.4280 C   0  0  0  0  0  0  0  0  0  0  0  0
   40.0660   30.5440   43.5820 C   0  0  0  0  0  0  0  0  0  0  0  0
   40.8050   30.2050   42.4570 C   0  0  0  0  0  0  0  0  0  0  0  0
   40.5250   30.8310   41.2740 C   0  0  0  0  0  0  0  0  0  0  0  0
   39.5460   31.7870   41.1230 C   0  0  0  0  0  0  0  0  0  0  0  0
   38.8420   32.0970   42.2400 N   0  0  0  0  0  0  0  0  0  0  0  0
   40.2920   30.0400   44.5230 H   0  0  0  0  0  0  0  0  0  0  0  0
   41.5720   29.4530   42.5770 H   0  0  0  0  0  0  0  0  0  0  0  0
   41.1510   30.5060   40.4640 H   0  0  0  0  0  0  0  0  0  0  0  0
   38.2940   31.8970   44.6180 C   0  0  0  0  0  0  0  0  0  0  0  0
   37.1560   32.3630   44.5110 O   0  0  0  0  0  0  0  0  0  0  0  0
   38.9140   31.7100   45.9190 N   0  0  0  0  0  0  0  0  0  0  0  0
   39.9220   31.5160   46.0640 H   0  0  0  0  0  0  0  0  0  0  0  0
   38.4160   31.1490   48.2920 C   0  0  2  0  0  0  0  0  0  0  0  0
   38.6920   32.6080   48.2440 C   0  0  0  0  0  0  0  0  0  0  0  0
   38.0530   31.8070   47.0790 C   0  0  1  0  0  0  0  0  0  0  0  0
   39.3410   30.5260   48.3520 H   0  0  0  0  0  0  0  0  0  0  0  0
   38.0230   33.3180   48.7770 H   0  0  0  0  0  0  0  0  0  0  0  0
   39.7160   32.9600   48.1170 H   0  0  0  0  0  0  0  0  0  0  0  0
   36.9770   32.0750   46.8990 H   0  0  0  0  0  0  0  0  0  0  0  0
   35.0650   30.2010   49.5660 C   0  0  0  0  0  0  0  0  0  0  0  0
   35.3930   29.5760   50.8040 C   0  0  0  0  0  0  0  0  0  0  0  0
   36.7680   29.5020   51.1880 C   0  0  0  0  0  0  0  0  0  0  0  0
   37.7300   30.0290   50.3600 N   0  0  0  0  0  0  0  0  0  0  0  0
   37.3400   30.6090   49.1940 C   0  0  0  0  0  0  0  0  0  0  0  0
   36.0210   30.7150   48.7640 N   0  0  0  0  0  0  0  0  0  0  0  0
   34.0150   30.2270   49.3310 H   0  0  0  0  0  0  0  0  0  0  0  0
   34.6690   29.1630   51.4580 H   0  0  0  0  0  0  0  0  0  0  0  0
   37.0260   29.0300   52.1260 H   0  0  0  0  0  0  0  0  0  0  0  0
   39.2250   32.4290   39.8440 C   0  0  0  0  0  0  0  0  0  0  0  0
   38.6310   33.5610   39.8740 O   0  0  0  0  0  0  0  0  0  0  0  0
   38.5310   31.1240   37.9280 C   0  0  0  0  0  0  0  0  0  0  0  0
   39.4260   32.0680   38.4550 C   0  0  0  0  0  0  0  0  0  0  0  0
   40.3520   32.4910   37.5400 C   0  0  0  0  0  0  0  0  0  0  0  0
   41.0610   33.2230   37.8880 H   0  0  0  0  0  0  0  0  0  0  0  0
   40.4540   32.0790   36.2350 C   0  0  0  0  0  0  0  0  0  0  0  0
   41.2370   32.4950   35.6150 H   0  0  0  0  0  0  0  0  0  0  0  0
   39.5400   31.1580   35.8100 C   0  0  0  0  0  3  0  0  0  0  0  0
   38.5500   30.6400   36.6140 C   0  0  0  0  0  3  0  0  0  0  0  0
   36.6380   30.1480   39.4660 N   0  0  0  0  0  0  0  0  0  0  0  0
   37.4830   30.5750   38.7750 C   0  0  0  0  0  0  0  0  0  0  0  0
  1  2  1  0  0  0  0
  1 10  1  0  0  0  0
  2  7  1  0  0  0  0
  3  8  1  0  0  0  0
  3  2  2  0  0  0  0
  4  3  1  0  0  0  0
  5  4  2  0  0  0  0
  5  6  1  0  0  0  0
  6  1  2  0  0  0  0
  9  4  1  0  0  0  0
 10 12  1  0  0  0  0
 11 10  2  0  0  0  0
 12 13  1  0  0  0  0
 12 16  1  0  0  0  0
 14 17  1  6  0  0  0
 14 25  1  0  0  0  0
 15 14  1  0  0  0  0
 15 18  1  0  0  0  0
 16 20  1  6  0  0  0
 16 15  1  0  0  0  0
 16 14  1  0  0  0  0
 19 15  1  0  0  0  0
 21 22  1  0  0  0  0
 22 23  2  0  0  0  0
 22 28  1  0  0  0  0
 23 29  1  0  0  0  0
 24 23  1  0  0  0  0
 25 24  2  0  0  0  0
 26 25  1  0  0  0  0
 26 21  2  0  0  0  0
 27 21  1  0  0  0  0
 30 31  2  0  0  0  0
 30  5  1  0  0  0  0
 32 33  1  0  0  0  0
 32 41  1  0  0  0  0
 33 30  1  0  0  0  0
 34 35  1  0  0  0  0
 34 33  2  0  0  0  0
 36 34  1  0  0  0  0
 37 36  1  0  0  0  0
 38 36  2  0  0  0  0
 38 39  1  0  0  0  0
 39 32  2  0  0  0  0
 41 40  3  0  0  0  0
M  END
>  <minimizedAffinity>
-4.75200224

>  <minimizedRMSD>
0.52801919

$$$$
