REMARK  Name = 
REMARK  5 active torsions:
REMARK  status: ('A' for Active; 'I' for Inactive)
REMARK    1  A    between atoms: C_1  and  S_7
REMARK    2  A    between atoms: S_7  and  C_8
REMARK    3  A    between atoms: C_8  and  S_9
REMARK    4  A    between atoms: S_9  and  C_18
REMARK    5  A    between atoms: C_16  and  C_17
REMARK                            x       y       z     vdW  Elec       q    Type
REMARK                         _______ _______ _______ _____ _____    ______ ____
ROOT
ATOM      1  C   UNL     1      35.493  29.356  50.737  0.00  0.00    +0.000 C 
ATOM      2  H   UNL     1      35.226  28.861  51.693  0.00  0.00    +0.000 HD
ATOM      3  H   UNL     1      35.115  30.396  50.742  0.00  0.00    +0.000 HD
ENDROOT
BRANCH   1   4
ATOM      4  S   UNL     1      37.292  29.325  50.584  0.00  0.00    +0.000 S 
BRANCH   4   5
ATOM      5  C   UNL     1      37.768  30.522  49.341  0.00  0.00    +0.000 A 
ATOM      6  C   UNL     1      38.237  31.729  49.841  0.00  0.00    +0.000 A 
ATOM      7  C   UNL     1      38.623  32.698  48.918  0.00  0.00    +0.000 A 
ATOM      8  N   UNL     1      38.526  32.425  47.572  0.00  0.00    +0.000 NA
ATOM      9  C   UNL     1      38.064  31.238  47.161  0.00  0.00    +0.000 A 
ATOM     10  N   UNL     1      37.687  30.292  48.023  0.00  0.00    +0.000 NA
ATOM     11  H   UNL     1      38.336  31.997  50.878  0.00  0.00    +0.000 HD
ATOM     12  H   UNL     1      38.994  33.652  49.262  0.00  0.00    +0.000 HD
ATOM     13  H   UNL     1      38.028  31.126  46.085  0.00  0.00    +0.000 HD
ENDBRANCH   4   5
ENDBRANCH   1   4
BRANCH   1  14
ATOM     14  S   UNL     1      34.693  28.400  49.394  0.00  0.00    +0.000 S 
BRANCH  14  16
ATOM     15  C   UNL     1      34.073  25.823  49.047  0.00  0.00    +0.000 A 
ATOM     16  C   UNL     1      35.066  26.661  49.568  0.00  0.00    +0.000 A 
ATOM     17  C   UNL     1      36.187  26.077  50.135  0.00  0.00    +0.000 A 
ATOM     18  H   UNL     1      36.886  26.785  50.502  0.00  0.00    +0.000 HD
ATOM     19  C   UNL     1      36.269  24.700  50.159  0.00  0.00    +0.000 A 
ATOM     20  H   UNL     1      37.137  24.279  50.598  0.00  0.00    +0.000 HD
ATOM     21  C   UNL     1      35.309  23.855  49.656  0.00  0.00    +0.000 A 
ATOM     22  C   UNL     1      34.193  24.435  49.091  0.00  0.00    +0.000 A 
BRANCH  15  24
ATOM     23  N   UNL     1      31.908  26.715  47.928  0.00  0.00    +0.000 NA
ATOM     24  C   UNL     1      32.864  26.312  48.432  0.00  0.00    +0.000 C 
ENDBRANCH  15  24
ENDBRANCH  14  16
ENDBRANCH   1  14
TORSDOF 5
