REMARK  Name = 
REMARK  4 active torsions:
REMARK  status: ('A' for Active; 'I' for Inactive)
REMARK    1  A    between atoms: C_1  and  C_9
REMARK    2  A    between atoms: C_6  and  N_15
REMARK    3  A    between atoms: C_13  and  C_33
REMARK    4  A    between atoms: C_31  and  C_32
REMARK                            x       y       z     vdW  Elec       q    Type
REMARK                         _______ _______ _______ _____ _____    ______ ____
ROOT
ATOM      1  C   UNL     1      38.133  30.565  47.325  0.00  0.00    +0.000 C 
ATOM      2  C   UNL     1      37.507  30.741  46.024  0.00  0.00    +0.000 C 
ATOM      3  C   UNL     1      38.550  30.566  44.963  0.00  0.00    +0.000 C 
ATOM      4  C   UNL     1      39.810  31.262  45.329  0.00  0.00    +0.000 C 
ATOM      5  C   UNL     1      39.710  32.274  46.391  0.00  0.00    +0.000 C 
ATOM      6  C   UNL     1      38.938  31.824  47.631  0.00  0.00    +0.000 C 
ATOM      7  H   UNL     1      38.903  29.742  47.293  0.00  0.00    +0.000 HD
ATOM      8  H   UNL     1      36.640  30.061  45.855  0.00  0.00    +0.000 HD
ATOM      9  H   UNL     1      37.087  31.764  45.891  0.00  0.00    +0.000 HD
ATOM     10  H   UNL     1      38.136  30.850  43.973  0.00  0.00    +0.000 HD
ATOM     11  H   UNL     1      38.737  29.454  44.897  0.00  0.00    +0.000 HD
ATOM     12  H   UNL     1      40.610  30.526  45.605  0.00  0.00    +0.000 HD
ATOM     13  H   UNL     1      40.180  31.771  44.415  0.00  0.00    +0.000 HD
ATOM     14  H   UNL     1      39.245  33.244  46.045  0.00  0.00    +0.000 HD
ATOM     15  H   UNL     1      40.725  32.548  46.741  0.00  0.00    +0.000 HD
ATOM     16  H   UNL     1      39.663  31.541  48.436  0.00  0.00    +0.000 HD
ENDROOT
BRANCH   1  19
ATOM     17  C   UNL     1      36.934  29.632  50.715  0.00  0.00    +0.000 A 
ATOM     18  C   UNL     1      37.817  29.841  49.620  0.00  0.00    +0.000 A 
ATOM     19  C   UNL     1      37.237  30.366  48.473  0.00  0.00    +0.000 A 
ATOM     20  N   UNL     1      35.881  30.655  48.439  0.00  0.00    +0.000 NA
ATOM     21  C   UNL     1      35.090  30.440  49.498  0.00  0.00    +0.000 A 
ATOM     22  N   UNL     1      35.608  29.927  50.645  0.00  0.00    +0.000 NA
ATOM     23  H   UNL     1      37.298  29.229  51.642  0.00  0.00    +0.000 HD
ATOM     24  H   UNL     1      38.865  29.598  49.702  0.00  0.00    +0.000 HD
ATOM     25  H   UNL     1      34.057  30.711  49.328  0.00  0.00    +0.000 HD
ENDBRANCH   1  19
BRANCH   6  28
ATOM     26  C   UNL     1      38.259  33.812  49.251  0.00  0.00    +0.000 C 
ATOM     27  O   UNL     1      39.357  33.620  49.854  0.00  0.00    +0.000 OA
ATOM     28  N   UNL     1      38.151  32.914  48.144  0.00  0.00    +0.000 N 
ATOM     29  H   UNL     1      37.311  33.007  47.489  0.00  0.00    +0.000 HD
BRANCH  26  31
ATOM     30  C   UNL     1      36.321  34.392  50.542  0.00  0.00    +0.000 A 
ATOM     31  C   UNL     1      37.157  34.736  49.484  0.00  0.00    +0.000 A 
ATOM     32  C   UNL     1      36.893  35.879  48.764  0.00  0.00    +0.000 A 
ATOM     33  H   UNL     1      37.564  36.105  47.958  0.00  0.00    +0.000 HD
ATOM     34  C   UNL     1      35.800  36.662  49.107  0.00  0.00    +0.000 A 
ATOM     35  H   UNL     1      35.595  37.559  48.540  0.00  0.00    +0.000 HD
ATOM     36  C   UNL     1      34.952  36.342  50.155  0.00  0.00    +0.000 A 
ATOM     37  C   UNL     1      35.253  35.192  50.848  0.00  0.00    +0.000 A 
BRANCH  30  39
ATOM     38  N   UNL     1      36.690  32.272  51.977  0.00  0.00    +0.000 NA
ATOM     39  C   UNL     1      36.520  33.219  51.347  0.00  0.00    +0.000 C 
ENDBRANCH  30  39
ENDBRANCH  26  31
ENDBRANCH   6  28
TORSDOF 4
