
     RDKit          3D

 26 27  0  0  0  0  0  0  0  0999 V2000
   37.7678   30.5218   49.3409 C   0  0  0  0  0  0  0  0  0  0  0  0
   38.2372   31.7291   49.8409 C   0  0  0  0  0  0  0  0  0  0  0  0
   38.6232   32.6977   48.9184 C   0  0  0  0  0  0  0  0  0  0  0  0
   38.5262   32.4250   47.5717 N   0  0  0  0  0  0  0  0  0  0  0  0
   38.0643   31.2379   47.1612 C   0  0  0  0  0  0  0  0  0  0  0  0
   37.6873   30.2919   48.0235 N   0  0  0  0  0  0  0  0  0  0  0  0
   37.2916   29.3245   50.5841 S   0  0  0  0  0  0  0  0  0  0  0  0
   35.4934   29.3564   50.7374 C   0  0  0  0  0  0  0  0  0  0  0  0
   34.6931   28.3998   49.3939 S   0  0  0  0  0  0  0  0  0  0  0  0
   38.3355   31.9975   50.8782 H   0  0  0  0  0  0  0  0  0  0  0  0
   38.9943   33.6522   49.2624 H   0  0  0  0  0  0  0  0  0  0  0  0
   38.0281   31.1256   46.0848 H   0  0  0  0  0  0  0  0  0  0  0  0
   35.2260   28.8613   51.6929 H   0  0  0  0  0  0  0  0  0  0  0  0
   35.1151   30.3965   50.7421 H   0  0  0  0  0  0  0  0  0  0  0  0
   31.5978   26.7328   48.7731 N   0  0  0  0  0  0  0  0  0  0  0  0
   32.6428   26.3257   49.0434 C   0  0  0  0  0  0  0  0  0  0  0  0
   33.9584   25.8296   49.3625 C   0  0  0  0  0  0  0  0  0  0  0  0
   35.0658   26.6610   49.5676 C   0  0  0  0  0  0  0  0  0  0  0  0
   36.2834   26.0705   49.8674 C   0  0  0  0  0  0  0  0  0  0  0  0
   37.0646   26.7739   50.0063 H   0  0  0  0  0  0  0  0  0  0  0  0
   36.3433   24.6950   49.9488 C   0  0  0  0  0  0  0  0  0  0  0  0
   37.2867   24.2688   50.1794 H   0  0  0  0  0  0  0  0  0  0  0  0
   35.2717   23.8567   49.7522 C   0  0  0  0  0  0  0  0  0  0  0  0
   34.0607   24.4426   49.4541 C   0  0  0  0  0  0  0  0  0  0  0  0
   35.3669   22.7800   49.8270 H   0  0  0  0  0  0  0  0  0  0  0  0
   33.2171   23.7883   49.2991 H   0  0  0  0  0  0  0  0  0  0  0  0
  1  2  2  0
  1  7  1  0
  3  2  1  0
  4  3  2  0
  5  4  1  0
  5  6  2  0
  6  1  1  0
  7  8  1  0
  9  8  1  0
  2 10  1  0
  3 11  1  0
  5 12  1  0
  8 13  1  0
  8 14  1  0
 15 16  3  0
 16 17  1  0
 17 18  2  0
 18 19  1  0
 19 20  1  0
 19 21  2  0
 21 22  1  0
 21 23  1  0
 23 24  2  0
 24 17  1  0
 23 25  1  0
 24 26  1  0
  9 18  1  0
M  ISO  7  10  14  11  14  12  14  13   8  14   8  20  15  22  16
M  END
>  <DihAtoms>  (1) 
7,8,17,16

>  <DihDeg>  (1) 
91.56016354842987

$$$$
