REMARK  Name = 
REMARK  4 active torsions:
REMARK  status: ('A' for Active; 'I' for Inactive)
REMARK    1  A    between atoms: C_1  and  C_8
REMARK    2  A    between atoms: C_6  and  N_15
REMARK    3  A    between atoms: C_13  and  C_27
REMARK    4  A    between atoms: C_25  and  C_26
REMARK                            x       y       z     vdW  Elec       q    Type
REMARK                         _______ _______ _______ _____ _____    ______ ____
ROOT
ATOM      1  C   UNL     1      38.110  31.195  47.903  0.00  0.00    +0.000 A 
ATOM      2  C   UNL     1      38.389  30.389  46.788  0.00  0.00    +0.000 A 
ATOM      3  C   UNL     1      39.175  30.816  45.733  0.00  0.00    +0.000 A 
ATOM      4  C   UNL     1      39.718  32.124  45.779  0.00  0.00    +0.000 A 
ATOM      5  C   UNL     1      39.427  32.883  46.877  0.00  0.00    +0.000 A 
ATOM      6  C   UNL     1      38.658  32.464  47.918  0.00  0.00    +0.000 A 
ATOM      7  H   UNL     1      37.985  29.383  46.736  0.00  0.00    +0.000 HD
ATOM      8  H   UNL     1      39.341  30.114  44.901  0.00  0.00    +0.000 HD
ATOM      9  H   UNL     1      40.297  32.336  44.917  0.00  0.00    +0.000 HD
ATOM     10  H   UNL     1      39.884  33.833  46.688  0.00  0.00    +0.000 HD
ENDROOT
BRANCH   1  12
ATOM     11  C   UNL     1      37.853  29.967  49.973  0.00  0.00    +0.000 A 
ATOM     12  C   UNL     1      37.230  30.610  48.889  0.00  0.00    +0.000 A 
ATOM     13  C   UNL     1      35.826  30.609  48.873  0.00  0.00    +0.000 A 
ATOM     14  N   UNL     1      35.142  30.017  49.859  0.00  0.00    +0.000 NA
ATOM     15  C   UNL     1      35.756  29.406  50.890  0.00  0.00    +0.000 A 
ATOM     16  N   UNL     1      37.103  29.388  50.935  0.00  0.00    +0.000 NA
ATOM     17  H   UNL     1      38.928  29.931  50.048  0.00  0.00    +0.000 HD
ATOM     18  H   UNL     1      35.383  31.104  48.024  0.00  0.00    +0.000 HD
ATOM     19  H   UNL     1      35.221  28.919  51.700  0.00  0.00    +0.000 HD
ENDBRANCH   1  12
BRANCH   6  22
ATOM     20  C   UNL     1      39.296  34.326  49.170  0.00  0.00    +0.000 C 
ATOM     21  O   UNL     1      40.395  34.267  48.482  0.00  0.00    +0.000 OA
ATOM     22  N   UNL     1      38.392  33.242  49.049  0.00  0.00    +0.000 N 
ATOM     23  H   UNL     1      37.716  33.258  49.817  0.00  0.00    +0.000 HD
BRANCH  20  25
ATOM     24  C   UNL     1      39.524  35.818  51.233  0.00  0.00    +0.000 A 
ATOM     25  C   UNL     1      39.309  35.576  49.921  0.00  0.00    +0.000 A 
ATOM     26  C   UNL     1      39.077  36.625  49.029  0.00  0.00    +0.000 A 
ATOM     27  H   UNL     1      38.886  36.572  47.943  0.00  0.00    +0.000 HD
ATOM     28  C   UNL     1      39.055  37.965  49.437  0.00  0.00    +0.000 A 
ATOM     29  H   UNL     1      38.882  38.801  48.799  0.00  0.00    +0.000 HD
ATOM     30  C   UNL     1      39.282  38.181  50.800  0.00  0.00    +0.000 A 
ATOM     31  C   UNL     1      39.511  37.127  51.674  0.00  0.00    +0.000 A 
BRANCH  24  33
ATOM     32  N   UNL     1      39.941  33.745  52.702  0.00  0.00    +0.000 NA
ATOM     33  C   UNL     1      39.751  34.676  52.041  0.00  0.00    +0.000 C 
ENDBRANCH  24  33
ENDBRANCH  20  25
ENDBRANCH   6  22
TORSDOF 4
