
 OpenBabel03272508393D

 32 34  0  0  1  0  0  0  0  0999 V2000
   37.7930   22.3700   33.0290 N   0  0  0  0  0  0  0  0  0  0  0  0
   38.5020   22.3280   34.3020 C   0  0  0  0  0  0  0  0  0  0  0  0
   38.3980   23.5920   35.0890 C   0  0  2  0  0  0  0  0  0  0  0  0
   38.4980   24.7850   34.3210 N   0  0  0  0  0  0  0  0  0  0  0  0
   37.5830   24.7210   33.1880 C   0  0  0  0  0  0  0  0  0  0  0  0
   38.1170   23.5900   32.3470 C   0  0  0  0  0  0  0  0  0  0  0  0
   38.0420   21.4840   34.8800 H   0  0  0  0  0  0  0  0  0  0  0  0
   39.5420   22.0370   34.0390 H   0  0  0  0  0  0  0  0  0  0  0  0
   37.3630   23.5920   35.5170 H   0  0  0  0  0  0  0  0  0  0  0  0
   39.4440   24.9200   33.9410 H   0  0  0  0  0  0  0  0  0  0  0  0
   37.5490   25.6790   32.6380 H   0  0  0  0  0  0  0  0  0  0  0  0
   36.5930   24.4150   33.5790 H   0  0  0  0  0  0  0  0  0  0  0  0
   37.6180   23.6810   31.3380 H   0  0  0  0  0  0  0  0  0  0  0  0
   39.1910   23.7090   32.1600 H   0  0  0  0  0  0  0  0  0  0  0  0
   36.9270   21.3490   32.5680 C   0  0  0  0  0  0  0  0  0  0  0  0
   35.9910   20.7270   33.4080 C   0  0  0  0  0  0  0  0  0  0  0  0
   35.1770   19.7270   32.8580 C   0  0  0  0  0  0  0  0  0  0  0  0
   35.3370   19.4090   31.5350 N   0  0  0  0  0  0  0  0  0  0  0  0
   36.2650   20.0440   30.7560 C   0  0  0  0  0  0  0  0  0  0  0  0
   37.0500   21.0010   31.2620 N   0  0  0  0  0  0  0  0  0  0  0  0
   35.9110   21.0150   34.4250 H   0  0  0  0  0  0  0  0  0  0  0  0
   34.4390   19.2140   33.4620 H   0  0  0  0  0  0  0  0  0  0  0  0
   36.2990   19.7110   29.7340 H   0  0  0  0  0  0  0  0  0  0  0  0
   37.6600   23.7730   38.1920 O   0  0  0  0  0  0  0  0  0  0  0  0
   38.7120   23.4040   37.5670 C   0  0  0  0  0  0  0  0  0  0  0  0
   39.3240   23.5350   36.2450 C   0  0  1  0  0  3  0  0  0  0  0  0
   40.1810   22.2710   36.1700 C   0  0  0  0  0  3  0  0  0  0  0  0
   39.5040   21.4250   35.9930 H   0  0  0  0  0  0  0  0  0  0  0  0
   40.7150   22.2140   37.5870 C   0  0  0  0  0  3  0  0  0  0  0  0
   41.0710   21.1980   37.8190 H   0  0  0  0  0  0  0  0  0  0  0  0
   39.5680   22.6090   38.4130 N   0  0  0  0  0  0  0  0  0  0  0  0
   39.5660   22.2680   39.4170 H   0  0  0  0  0  0  0  0  0  0  0  0
  1  2  1  0  0  0  0
  2  7  1  0  0  0  0
  2  3  1  0  0  0  0
  3  9  1  1  0  0  0
  3 26  1  0  0  0  0
  4  3  1  0  0  0  0
  5 12  1  0  0  0  0
  5  4  1  0  0  0  0
  6  1  1  0  0  0  0
  6  5  1  0  0  0  0
  8  2  1  0  0  0  0
 10  4  1  0  0  0  0
 11  5  1  0  0  0  0
 13  6  1  0  0  0  0
 14  6  1  0  0  0  0
 15  1  1  0  0  0  0
 15 16  1  0  0  0  0
 16 21  1  0  0  0  0
 17 16  2  0  0  0  0
 17 22  1  0  0  0  0
 18 17  1  0  0  0  0
 19 20  1  0  0  0  0
 19 18  2  0  0  0  0
 20 15  2  0  0  0  0
 23 19  1  0  0  0  0
 25 24  2  0  0  0  0
 25 31  1  0  0  0  0
 26 27  1  6  0  0  0
 26 25  1  0  0  0  0
 27 29  1  0  0  0  0
 28 27  1  0  0  0  0
 29 30  1  0  0  0  0
 29 31  1  0  0  0  0
 31 32  1  0  0  0  0
M  END
>  <minimizedAffinity>
-5.09298325

$$$$

 OpenBabel03272508393D

 32 34  0  0  1  0  0  0  0  0999 V2000
   37.9600   26.7080   33.8900 N   0  0  0  0  0  0  0  0  0  0  0  0
   37.6660   25.6320   34.8280 C   0  0  0  0  0  0  0  0  0  0  0  0
   38.7530   25.3890   35.8210 C   0  0  2  0  0  0  0  0  0  0  0  0
   40.0730   25.4600   35.2950 N   0  0  0  0  0  0  0  0  0  0  0  0
   40.2350   26.6930   34.5350 C   0  0  0  0  0  0  0  0  0  0  0  0
   39.2870   26.5380   33.3730 C   0  0  0  0  0  0  0  0  0  0  0  0
   36.7280   25.9390   35.3610 H   0  0  0  0  0  0  0  0  0  0  0  0
   37.4260   24.7550   34.1880 H   0  0  0  0  0  0  0  0  0  0  0  0
   38.6760   26.2280   36.5590 H   0  0  0  0  0  0  0  0  0  0  0  0
   40.2740   24.6790   34.6560 H   0  0  0  0  0  0  0  0  0  0  0  0
   41.2830   26.8360   34.2120 H   0  0  0  0  0  0  0  0  0  0  0  0
   39.8650   27.5230   35.1680 H   0  0  0  0  0  0  0  0  0  0  0  0
   39.5760   27.3280   32.6200 H   0  0  0  0  0  0  0  0  0  0  0  0
   39.4340   25.5760   32.8690 H   0  0  0  0  0  0  0  0  0  0  0  0
   37.0530   27.7460   33.5620 C   0  0  0  0  0  0  0  0  0  0  0  0
   36.2740   28.3920   34.5330 C   0  0  0  0  0  0  0  0  0  0  0  0
   35.4050   29.4070   34.1100 C   0  0  0  0  0  0  0  0  0  0  0  0
   35.3620   29.7150   32.7760 N   0  0  0  0  0  0  0  0  0  0  0  0
   36.1420   29.0560   31.8660 C   0  0  0  0  0  0  0  0  0  0  0  0
   36.9760   28.0850   32.2500 N   0  0  0  0  0  0  0  0  0  0  0  0
   36.3490   28.1120   35.5530 H   0  0  0  0  0  0  0  0  0  0  0  0
   34.7810   29.9390   34.8170 H   0  0  0  0  0  0  0  0  0  0  0  0
   36.0230   29.3840   30.8480 H   0  0  0  0  0  0  0  0  0  0  0  0
   40.7100   22.9140   36.3220 O   0  0  0  0  0  0  0  0  0  0  0  0
   39.6070   23.2750   36.8580 C   0  0  0  0  0  0  0  0  0  0  0  0
   38.4670   24.1460   36.5770 C   0  0  1  0  0  3  0  0  0  0  0  0
   37.9800   24.4880   37.9850 C   0  0  0  0  0  3  0  0  0  0  0  0
   38.6850   25.2140   38.4100 H   0  0  0  0  0  0  0  0  0  0  0  0
   38.1480   23.1460   38.6700 C   0  0  0  0  0  3  0  0  0  0  0  0
   38.1730   23.2770   39.7630 H   0  0  0  0  0  0  0  0  0  0  0  0
   39.4150   22.6340   38.1360 N   0  0  0  0  0  0  0  0  0  0  0  0
   39.9350   21.9320   38.7380 H   0  0  0  0  0  0  0  0  0  0  0  0
  1  2  1  0  0  0  0
  2  7  1  0  0  0  0
  2  3  1  0  0  0  0
  3  9  1  1  0  0  0
  3 26  1  0  0  0  0
  4  3  1  0  0  0  0
  5 12  1  0  0  0  0
  5  4  1  0  0  0  0
  6  1  1  0  0  0  0
  6  5  1  0  0  0  0
  8  2  1  0  0  0  0
 10  4  1  0  0  0  0
 11  5  1  0  0  0  0
 13  6  1  0  0  0  0
 14  6  1  0  0  0  0
 15  1  1  0  0  0  0
 15 16  1  0  0  0  0
 16 21  1  0  0  0  0
 17 16  2  0  0  0  0
 17 22  1  0  0  0  0
 18 17  1  0  0  0  0
 19 20  1  0  0  0  0
 19 18  2  0  0  0  0
 20 15  2  0  0  0  0
 23 19  1  0  0  0  0
 24 25  2  0  0  0  0
 25 31  1  0  0  0  0
 26 25  1  1  0  0  0
 26 27  1  0  0  0  0
 27 28  1  0  0  0  0
 27 29  1  0  0  0  0
 29 30  1  0  0  0  0
 31 29  1  0  0  0  0
 31 32  1  0  0  0  0
M  END
>  <minimizedAffinity>
-4.98904562

$$$$

 OpenBabel03272508393D

 32 34  0  0  1  0  0  0  0  0999 V2000
   38.6720   25.2270   33.0930 N   0  0  0  0  0  0  0  0  0  0  0  0
   38.2030   24.4990   34.2650 C   0  0  0  0  0  0  0  0  0  0  0  0
   39.1540   24.5360   35.4150 C   0  0  2  0  0  0  0  0  0  0  0  0
   40.5260   24.4010   35.0620 N   0  0  0  0  0  0  0  0  0  0  0  0
   40.8560   25.3370   33.9950 C   0  0  0  0  0  0  0  0  0  0  0  0
   40.0340   24.8650   32.8230 C   0  0  0  0  0  0  0  0  0  0  0  0
   37.2350   24.9840   34.5590 H   0  0  0  0  0  0  0  0  0  0  0  0
   37.9750   23.4760   33.8930 H   0  0  0  0  0  0  0  0  0  0  0  0
   39.0540   25.5630   35.8510 H   0  0  0  0  0  0  0  0  0  0  0  0
   40.7420   23.4560   34.7170 H   0  0  0  0  0  0  0  0  0  0  0  0
   41.9400   25.3400   33.7780 H   0  0  0  0  0  0  0  0  0  0  0  0
   40.4760   26.3320   34.2980 H   0  0  0  0  0  0  0  0  0  0  0  0
   40.4580   25.3770   31.9110 H   0  0  0  0  0  0  0  0  0  0  0  0
   40.1690   23.7910   32.6520 H   0  0  0  0  0  0  0  0  0  0  0  0
   37.8810   26.1430   32.3570 C   0  0  0  0  0  0  0  0  0  0  0  0
   38.3240   27.4400   32.0570 C   0  0  0  0  0  0  0  0  0  0  0  0
   37.4680   28.2730   31.3230 C   0  0  0  0  0  0  0  0  0  0  0  0
   36.2480   27.7810   30.9400 N   0  0  0  0  0  0  0  0  0  0  0  0
   35.8610   26.5080   31.2580 C   0  0  0  0  0  0  0  0  0  0  0  0
   36.6630   25.6990   31.9570 N   0  0  0  0  0  0  0  0  0  0  0  0
   39.2790   27.7670   32.3790 H   0  0  0  0  0  0  0  0  0  0  0  0
   37.7590   29.2830   31.0640 H   0  0  0  0  0  0  0  0  0  0  0  0
   34.8830   26.2320   30.9040 H   0  0  0  0  0  0  0  0  0  0  0  0
   40.9400   22.5120   37.1230 O   0  0  0  0  0  0  0  0  0  0  0  0
   39.7470   22.9480   37.2590 C   0  0  0  0  0  0  0  0  0  0  0  0
   38.7010   23.5940   36.4650 C   0  0  1  0  0  3  0  0  0  0  0  0
   37.9120   24.3440   37.5390 C   0  0  0  0  0  3  0  0  0  0  0  0
   38.5060   25.2180   37.8340 H   0  0  0  0  0  0  0  0  0  0  0  0
   37.9170   23.3170   38.6540 C   0  0  0  0  0  3  0  0  0  0  0  0
   37.6970   23.8020   39.6180 H   0  0  0  0  0  0  0  0  0  0  0  0
   39.2700   22.7520   38.6070 N   0  0  0  0  0  0  0  0  0  0  0  0
   39.6390   22.3260   39.5050 H   0  0  0  0  0  0  0  0  0  0  0  0
  1  2  1  0  0  0  0
  2  7  1  0  0  0  0
  2  3  1  0  0  0  0
  3  9  1  1  0  0  0
  3 26  1  0  0  0  0
  4  3  1  0  0  0  0
  5 12  1  0  0  0  0
  5  4  1  0  0  0  0
  6  1  1  0  0  0  0
  6  5  1  0  0  0  0
  8  2  1  0  0  0  0
 10  4  1  0  0  0  0
 11  5  1  0  0  0  0
 13  6  1  0  0  0  0
 14  6  1  0  0  0  0
 15  1  1  0  0  0  0
 16 15  1  0  0  0  0
 16 21  1  0  0  0  0
 17 16  2  0  0  0  0
 18 19  2  0  0  0  0
 18 17  1  0  0  0  0
 19 20  1  0  0  0  0
 20 15  2  0  0  0  0
 22 17  1  0  0  0  0
 23 19  1  0  0  0  0
 24 25  2  0  0  0  0
 25 31  1  0  0  0  0
 26 25  1  1  0  0  0
 26 27  1  0  0  0  0
 27 28  1  0  0  0  0
 27 29  1  0  0  0  0
 29 30  1  0  0  0  0
 31 29  1  0  0  0  0
 31 32  1  0  0  0  0
M  END
>  <minimizedAffinity>
-4.95762682

$$$$

 OpenBabel03272508393D

 32 34  0  0  1  0  0  0  0  0999 V2000
   39.1340   25.4450   35.0760 N   0  0  0  0  0  0  0  0  0  0  0  0
   37.8910   25.3710   34.3170 C   0  0  0  0  0  0  0  0  0  0  0  0
   38.0070   25.8920   32.9240 C   0  0  2  0  0  0  0  0  0  0  0  0
   38.7890   27.0730   32.7890 N   0  0  0  0  0  0  0  0  0  0  0  0
   40.0710   26.8950   33.4590 C   0  0  0  0  0  0  0  0  0  0  0  0
   39.7100   26.7490   34.9150 C   0  0  0  0  0  0  0  0  0  0  0  0
   37.6130   24.2840   34.2920 H   0  0  0  0  0  0  0  0  0  0  0  0
   37.1430   25.9020   34.9450 H   0  0  0  0  0  0  0  0  0  0  0  0
   38.5540   25.1000   32.3530 H   0  0  0  0  0  0  0  0  0  0  0  0
   38.3310   27.8880   33.2190 H   0  0  0  0  0  0  0  0  0  0  0  0
   40.7490   27.7480   33.2730 H   0  0  0  0  0  0  0  0  0  0  0  0
   40.4930   25.9300   33.1150 H   0  0  0  0  0  0  0  0  0  0  0  0
   40.6680   26.8860   35.4950 H   0  0  0  0  0  0  0  0  0  0  0  0
   39.0460   27.5580   35.2400 H   0  0  0  0  0  0  0  0  0  0  0  0
   39.6620   24.3770   35.8420 C   0  0  0  0  0  0  0  0  0  0  0  0
   40.8960   23.7810   35.5410 C   0  0  0  0  0  0  0  0  0  0  0  0
   41.3350   22.7300   36.3580 C   0  0  0  0  0  0  0  0  0  0  0  0
   40.5390   22.3400   37.4040 N   0  0  0  0  0  0  0  0  0  0  0  0
   39.3430   22.9540   37.6570 C   0  0  0  0  0  0  0  0  0  0  0  0
   38.9080   23.9570   36.8880 N   0  0  0  0  0  0  0  0  0  0  0  0
   41.4700   24.1240   34.7180 H   0  0  0  0  0  0  0  0  0  0  0  0
   42.2790   22.2340   36.1710 H   0  0  0  0  0  0  0  0  0  0  0  0
   38.8060   22.5630   38.5030 H   0  0  0  0  0  0  0  0  0  0  0  0
   37.0500   27.8470   30.5850 O   0  0  0  0  0  0  0  0  0  0  0  0
   36.5430   26.7940   31.1020 C   0  0  0  0  0  0  0  0  0  0  0  0
   36.6580   25.9840   32.3140 C   0  0  1  0  0  3  0  0  0  0  0  0
   36.2130   24.6090   31.8160 C   0  0  0  0  0  3  0  0  0  0  0  0
   37.0350   24.1940   31.2190 H   0  0  0  0  0  0  0  0  0  0  0  0
   35.0650   25.0030   30.9060 C   0  0  0  0  0  3  0  0  0  0  0  0
   34.8430   24.1890   30.2000 H   0  0  0  0  0  0  0  0  0  0  0  0
   35.5490   26.2140   30.2330 N   0  0  0  0  0  0  0  0  0  0  0  0
   35.1160   26.4390   29.2910 H   0  0  0  0  0  0  0  0  0  0  0  0
  1 15  1  0  0  0  0
  2  8  1  0  0  0  0
  2  1  1  0  0  0  0
  3  9  1  6  0  0  0
  3  2  1  0  0  0  0
  4  3  1  0  0  0  0
  4 10  1  0  0  0  0
  4  5  1  0  0  0  0
  5  6  1  0  0  0  0
  6  1  1  0  0  0  0
  6 14  1  0  0  0  0
  6 13  1  0  0  0  0
  7  2  1  0  0  0  0
 11  5  1  0  0  0  0
 12  5  1  0  0  0  0
 15 20  1  0  0  0  0
 16 15  2  0  0  0  0
 16 17  1  0  0  0  0
 17 18  2  0  0  0  0
 18 19  1  0  0  0  0
 19 23  1  0  0  0  0
 20 19  2  0  0  0  0
 21 16  1  0  0  0  0
 22 17  1  0  0  0  0
 24 25  2  0  0  0  0
 26 25  1  6  0  0  0
 26  3  1  0  0  0  0
 27 26  1  0  0  0  0
 28 27  1  0  0  0  0
 29 27  1  0  0  0  0
 30 29  1  0  0  0  0
 31 29  1  0  0  0  0
 31 25  1  0  0  0  0
 32 31  1  0  0  0  0
M  END
>  <minimizedAffinity>
-4.78444242

$$$$

 OpenBabel03272508393D

 32 34  0  0  1  0  0  0  0  0999 V2000
   38.5070   23.6170   34.5690 N   0  0  0  0  0  0  0  0  0  0  0  0
   38.2990   24.8330   33.7920 C   0  0  0  0  0  0  0  0  0  0  0  0
   37.2130   24.7170   32.7750 C   0  0  2  0  0  0  0  0  0  0  0  0
   37.1740   23.4770   32.0790 N   0  0  0  0  0  0  0  0  0  0  0  0
   37.2080   22.3740   33.0320 C   0  0  0  0  0  0  0  0  0  0  0  0
   38.5630   22.4910   33.6820 C   0  0  0  0  0  0  0  0  0  0  0  0
   38.0380   25.6310   34.5360 H   0  0  0  0  0  0  0  0  0  0  0  0
   39.2990   25.0730   33.3680 H   0  0  0  0  0  0  0  0  0  0  0  0
   36.2560   24.7700   33.3550 H   0  0  0  0  0  0  0  0  0  0  0  0
   37.9810   23.3630   31.4520 H   0  0  0  0  0  0  0  0  0  0  0  0
   37.0600   21.4000   32.5310 H   0  0  0  0  0  0  0  0  0  0  0  0
   36.4410   22.5810   33.8040 H   0  0  0  0  0  0  0  0  0  0  0  0
   38.7440   21.5130   34.2160 H   0  0  0  0  0  0  0  0  0  0  0  0
   39.3560   22.5720   32.9310 H   0  0  0  0  0  0  0  0  0  0  0  0
   38.6290   23.5870   35.9800 C   0  0  0  0  0  0  0  0  0  0  0  0
   37.7390   24.2700   36.8220 C   0  0  0  0  0  0  0  0  0  0  0  0
   37.9420   24.1800   38.2050 C   0  0  0  0  0  0  0  0  0  0  0  0
   38.9960   23.4340   38.6630 N   0  0  0  0  0  0  0  0  0  0  0  0
   39.8380   22.7860   37.8020 C   0  0  0  0  0  0  0  0  0  0  0  0
   39.6600   22.8600   36.4790 N   0  0  0  0  0  0  0  0  0  0  0  0
   36.9400   24.8340   36.4120 H   0  0  0  0  0  0  0  0  0  0  0  0
   37.2850   24.6880   38.9010 H   0  0  0  0  0  0  0  0  0  0  0  0
   40.6290   22.2300   38.2750 H   0  0  0  0  0  0  0  0  0  0  0  0
   35.0640   25.5320   30.5560 O   0  0  0  0  0  0  0  0  0  0  0  0
   36.0090   26.1720   31.1300 C   0  0  0  0  0  0  0  0  0  0  0  0
   37.2280   25.9090   31.8940 C   0  0  1  0  0  3  0  0  0  0  0  0
   37.3540   27.1810   32.7320 C   0  0  0  0  0  3  0  0  0  0  0  0
   36.6030   27.1240   33.5310 H   0  0  0  0  0  0  0  0  0  0  0  0
   36.9440   28.2260   31.7130 C   0  0  0  0  0  3  0  0  0  0  0  0
   36.6460   29.1560   32.2210 H   0  0  0  0  0  0  0  0  0  0  0  0
   35.8310   27.5980   30.9920 N   0  0  0  0  0  0  0  0  0  0  0  0
   35.1370   28.2510   30.5270 H   0  0  0  0  0  0  0  0  0  0  0  0
  1 15  1  0  0  0  0
  2  7  1  0  0  0  0
  2  1  1  0  0  0  0
  3  9  1  1  0  0  0
  3  2  1  0  0  0  0
  4  3  1  0  0  0  0
  4  5  1  0  0  0  0
  5  6  1  0  0  0  0
  5 12  1  0  0  0  0
  6 13  1  0  0  0  0
  6  1  1  0  0  0  0
  8  2  1  0  0  0  0
 10  4  1  0  0  0  0
 11  5  1  0  0  0  0
 14  6  1  0  0  0  0
 15 20  2  0  0  0  0
 15 16  1  0  0  0  0
 16 17  2  0  0  0  0
 17 18  1  0  0  0  0
 17 22  1  0  0  0  0
 19 23  1  0  0  0  0
 19 18  2  0  0  0  0
 20 19  1  0  0  0  0
 21 16  1  0  0  0  0
 24 25  2  0  0  0  0
 26 25  1  1  0  0  0
 26 27  1  0  0  0  0
 26  3  1  0  0  0  0
 27 28  1  0  0  0  0
 29 30  1  0  0  0  0
 29 27  1  0  0  0  0
 31 25  1  0  0  0  0
 31 29  1  0  0  0  0
 32 31  1  0  0  0  0
M  END
>  <minimizedAffinity>
-4.76811981

$$$$

 OpenBabel03272508393D

 32 34  0  0  1  0  0  0  0  0999 V2000
   36.9610   25.0370   31.5510 N   0  0  0  0  0  0  0  0  0  0  0  0
   36.0570   23.8950   31.4860 C   0  0  0  0  0  0  0  0  0  0  0  0
   36.7540   22.5760   31.5130 C   0  0  2  0  0  0  0  0  0  0  0  0
   37.9480   22.5140   30.7410 N   0  0  0  0  0  0  0  0  0  0  0  0
   38.8100   23.6420   31.0730 C   0  0  0  0  0  0  0  0  0  0  0  0
   38.0310   24.8480   30.6150 C   0  0  0  0  0  0  0  0  0  0  0  0
   35.3850   23.9860   32.3800 H   0  0  0  0  0  0  0  0  0  0  0  0
   35.4420   24.0700   30.5760 H   0  0  0  0  0  0  0  0  0  0  0  0
   37.0730   22.4290   32.5760 H   0  0  0  0  0  0  0  0  0  0  0  0
   37.7560   22.5640   29.7320 H   0  0  0  0  0  0  0  0  0  0  0  0
   39.7950   23.5590   30.5790 H   0  0  0  0  0  0  0  0  0  0  0  0
   38.8860   23.6860   32.1770 H   0  0  0  0  0  0  0  0  0  0  0  0
   38.7620   25.7090   30.5950 H   0  0  0  0  0  0  0  0  0  0  0  0
   37.6850   24.7260   29.5820 H   0  0  0  0  0  0  0  0  0  0  0  0
   36.7810   26.1450   32.4150 C   0  0  0  0  0  0  0  0  0  0  0  0
   36.1930   27.3430   31.9830 C   0  0  0  0  0  0  0  0  0  0  0  0
   36.0580   28.3820   32.9130 C   0  0  0  0  0  0  0  0  0  0  0  0
   36.5060   28.1760   34.1920 N   0  0  0  0  0  0  0  0  0  0  0  0
   37.0740   26.9890   34.5660 C   0  0  0  0  0  0  0  0  0  0  0  0
   37.2110   25.9860   33.6930 N   0  0  0  0  0  0  0  0  0  0  0  0
   35.8640   27.4460   30.9800 H   0  0  0  0  0  0  0  0  0  0  0  0
   35.6120   29.3280   32.6330 H   0  0  0  0  0  0  0  0  0  0  0  0
   37.3870   26.9430   35.5940 H   0  0  0  0  0  0  0  0  0  0  0  0
   37.2570   19.9050   29.8340 O   0  0  0  0  0  0  0  0  0  0  0  0
   36.3280   20.2710   30.6310 C   0  0  0  0  0  0  0  0  0  0  0  0
   35.7840   21.4950   31.2180 C   0  0  1  0  0  3  0  0  0  0  0  0
   35.1690   20.9730   32.5170 C   0  0  0  0  0  3  0  0  0  0  0  0
   35.9930   20.7680   33.2120 H   0  0  0  0  0  0  0  0  0  0  0  0
   34.5670   19.6680   32.0340 C   0  0  0  0  0  3  0  0  0  0  0  0
   34.3810   18.9960   32.8860 H   0  0  0  0  0  0  0  0  0  0  0  0
   35.5740   19.1370   31.1080 N   0  0  0  0  0  0  0  0  0  0  0  0
   35.5750   18.0870   30.9590 H   0  0  0  0  0  0  0  0  0  0  0  0
  1 15  1  0  0  0  0
  2  3  1  0  0  0  0
  2  1  1  0  0  0  0
  2  7  1  0  0  0  0
  3  9  1  1  0  0  0
  4  5  1  0  0  0  0
  4  3  1  0  0  0  0
  5 12  1  0  0  0  0
  6  5  1  0  0  0  0
  6  1  1  0  0  0  0
  8  2  1  0  0  0  0
 10  4  1  0  0  0  0
 11  5  1  0  0  0  0
 13  6  1  0  0  0  0
 14  6  1  0  0  0  0
 15 20  1  0  0  0  0
 16 15  2  0  0  0  0
 16 17  1  0  0  0  0
 17 18  2  0  0  0  0
 18 19  1  0  0  0  0
 19 23  1  0  0  0  0
 20 19  2  0  0  0  0
 21 16  1  0  0  0  0
 22 17  1  0  0  0  0
 24 25  2  0  0  0  0
 25 31  1  0  0  0  0
 26 25  1  1  0  0  0
 26  3  1  0  0  0  0
 26 27  1  0  0  0  0
 27 28  1  0  0  0  0
 29 27  1  0  0  0  0
 29 30  1  0  0  0  0
 31 29  1  0  0  0  0
 32 31  1  0  0  0  0
M  END
>  <minimizedAffinity>
-4.65074205

$$$$

 OpenBabel03272508393D

 32 34  0  0  1  0  0  0  0  0999 V2000
   38.4580   24.8530   35.9020 N   0  0  0  0  0  0  0  0  0  0  0  0
   39.6660   24.0650   35.6860 C   0  0  0  0  0  0  0  0  0  0  0  0
   39.5610   22.6600   36.1800 C   0  0  2  0  0  0  0  0  0  0  0  0
   38.8950   22.5130   37.4280 N   0  0  0  0  0  0  0  0  0  0  0  0
   37.6210   23.2200   37.3940 C   0  0  0  0  0  0  0  0  0  0  0  0
   38.0080   24.6700   37.2520 C   0  0  0  0  0  0  0  0  0  0  0  0
   39.8350   24.0640   34.5770 H   0  0  0  0  0  0  0  0  0  0  0  0
   40.4800   24.6570   36.1570 H   0  0  0  0  0  0  0  0  0  0  0  0
   38.9230   22.1270   35.4310 H   0  0  0  0  0  0  0  0  0  0  0  0
   39.4420   22.9070   38.2050 H   0  0  0  0  0  0  0  0  0  0  0  0
   37.0250   23.0280   38.3050 H   0  0  0  0  0  0  0  0  0  0  0  0
   37.0980   22.9150   36.4670 H   0  0  0  0  0  0  0  0  0  0  0  0
   37.0850   25.2710   37.4970 H   0  0  0  0  0  0  0  0  0  0  0  0
   38.7580   24.9540   37.9990 H   0  0  0  0  0  0  0  0  0  0  0  0
   37.8500   25.6630   34.9120 C   0  0  0  0  0  0  0  0  0  0  0  0
   37.4340   26.9760   35.1730 C   0  0  0  0  0  0  0  0  0  0  0  0
   36.8420   27.6990   34.1270 C   0  0  0  0  0  0  0  0  0  0  0  0
   36.7010   27.0870   32.9090 N   0  0  0  0  0  0  0  0  0  0  0  0
   37.1240   25.8020   32.7040 C   0  0  0  0  0  0  0  0  0  0  0  0
   37.6900   25.0980   33.6880 N   0  0  0  0  0  0  0  0  0  0  0  0
   37.5680   27.3990   36.1360 H   0  0  0  0  0  0  0  0  0  0  0  0
   36.5020   28.7160   34.2740 H   0  0  0  0  0  0  0  0  0  0  0  0
   36.9610   25.4280   31.7080 H   0  0  0  0  0  0  0  0  0  0  0  0
   41.0610   21.5030   33.6080 O   0  0  0  0  0  0  0  0  0  0  0  0
   41.4530   21.7860   34.7910 C   0  0  0  0  0  0  0  0  0  0  0  0
   40.8940   22.0130   36.1230 C   0  0  1  0  0  3  0  0  0  0  0  0
   41.9480   22.9250   36.7530 C   0  0  0  0  0  3  0  0  0  0  0  0
   41.8250   23.9230   36.3120 H   0  0  0  0  0  0  0  0  0  0  0  0
   43.2180   22.2840   36.2290 C   0  0  0  0  0  3  0  0  0  0  0  0
   44.0560   22.9930   36.2930 H   0  0  0  0  0  0  0  0  0  0  0  0
   42.8880   21.9280   34.8440 N   0  0  0  0  0  0  0  0  0  0  0  0
   43.7010   21.8420   34.1690 H   0  0  0  0  0  0  0  0  0  0  0  0
  1  6  1  0  0  0  0
  2  1  1  0  0  0  0
  2  8  1  0  0  0  0
  2  3  1  0  0  0  0
  3  9  1  6  0  0  0
  3  4  1  0  0  0  0
  4 10  1  0  0  0  0
  5  4  1  0  0  0  0
  5 11  1  0  0  0  0
  6  5  1  0  0  0  0
  6 13  1  0  0  0  0
  6 14  1  0  0  0  0
  7  2  1  0  0  0  0
 12  5  1  0  0  0  0
 15 16  1  0  0  0  0
 15  1  1  0  0  0  0
 16 21  1  0  0  0  0
 17 22  1  0  0  0  0
 17 16  2  0  0  0  0
 18 17  1  0  0  0  0
 19 18  2  0  0  0  0
 19 20  1  0  0  0  0
 20 15  2  0  0  0  0
 23 19  1  0  0  0  0
 24 25  2  0  0  0  0
 25 31  1  0  0  0  0
 26 25  1  6  0  0  0
 26  3  1  0  0  0  0
 26 27  1  0  0  0  0
 28 27  1  0  0  0  0
 29 30  1  0  0  0  0
 29 27  1  0  0  0  0
 31 29  1  0  0  0  0
 32 31  1  0  0  0  0
M  END
>  <minimizedAffinity>
-4.54583645

$$$$

 OpenBabel03272508393D

 32 34  0  0  1  0  0  0  0  0999 V2000
   38.9300   24.1010   35.8480 N   0  0  0  0  0  0  0  0  0  0  0  0
   38.3060   24.0760   34.5310 C   0  0  0  0  0  0  0  0  0  0  0  0
   37.9300   25.4270   34.0200 C   0  0  2  0  0  0  0  0  0  0  0  0
   37.3750   26.3020   34.9940 N   0  0  0  0  0  0  0  0  0  0  0  0
   38.2310   26.3370   36.1730 C   0  0  0  0  0  0  0  0  0  0  0  0
   38.1580   24.9350   36.7220 C   0  0  0  0  0  0  0  0  0  0  0  0
   39.0600   23.6080   33.8440 H   0  0  0  0  0  0  0  0  0  0  0  0
   37.4520   23.3710   34.6330 H   0  0  0  0  0  0  0  0  0  0  0  0
   38.8920   25.9020   33.6990 H   0  0  0  0  0  0  0  0  0  0  0  0
   36.4440   25.9920   35.3020 H   0  0  0  0  0  0  0  0  0  0  0  0
   37.8900   27.0970   36.9000 H   0  0  0  0  0  0  0  0  0  0  0  0
   39.2670   26.5110   35.8240 H   0  0  0  0  0  0  0  0  0  0  0  0
   38.5720   24.9840   37.7710 H   0  0  0  0  0  0  0  0  0  0  0  0
   37.1180   24.6060   36.8270 H   0  0  0  0  0  0  0  0  0  0  0  0
   40.1140   23.3980   36.1800 C   0  0  0  0  0  0  0  0  0  0  0  0
   40.1180   22.3210   37.0780 C   0  0  0  0  0  0  0  0  0  0  0  0
   41.3410   21.6890   37.3420 C   0  0  0  0  0  0  0  0  0  0  0  0
   42.4650   22.1550   36.7130 N   0  0  0  0  0  0  0  0  0  0  0  0
   42.4110   23.2100   35.8440 C   0  0  0  0  0  0  0  0  0  0  0  0
   41.2540   23.8250   35.5790 N   0  0  0  0  0  0  0  0  0  0  0  0
   39.2160   22.0040   37.5370 H   0  0  0  0  0  0  0  0  0  0  0  0
   41.4010   20.8530   38.0280 H   0  0  0  0  0  0  0  0  0  0  0  0
   43.3560   23.4860   35.4100 H   0  0  0  0  0  0  0  0  0  0  0  0
   38.0100   27.2450   31.3940 O   0  0  0  0  0  0  0  0  0  0  0  0
   37.5040   26.0980   31.6450 C   0  0  0  0  0  0  0  0  0  0  0  0
   37.1100   25.2830   32.7930 C   0  0  1  0  0  3  0  0  0  0  0  0
   37.2460   23.8670   32.2340 C   0  0  0  0  0  3  0  0  0  0  0  0
   38.3170   23.6350   32.1830 H   0  0  0  0  0  0  0  0  0  0  0  0
   36.6960   24.0680   30.8350 C   0  0  0  0  0  3  0  0  0  0  0  0
   37.0260   23.2510   30.1760 H   0  0  0  0  0  0  0  0  0  0  0  0
   37.2350   25.3700   30.4280 N   0  0  0  0  0  0  0  0  0  0  0  0
   37.3280   25.5420   29.3850 H   0  0  0  0  0  0  0  0  0  0  0  0
  1 15  1  0  0  0  0
  1  6  1  0  0  0  0
  2  8  1  0  0  0  0
  2  1  1  0  0  0  0
  3  9  1  6  0  0  0
  3  2  1  0  0  0  0
  3  4  1  0  0  0  0
  4 10  1  0  0  0  0
  4  5  1  0  0  0  0
  5  6  1  0  0  0  0
  5 11  1  0  0  0  0
  6 14  1  0  0  0  0
  6 13  1  0  0  0  0
  7  2  1  0  0  0  0
 12  5  1  0  0  0  0
 15 16  1  0  0  0  0
 16 17  2  0  0  0  0
 16 21  1  0  0  0  0
 17 22  1  0  0  0  0
 18 17  1  0  0  0  0
 19 18  2  0  0  0  0
 20 19  1  0  0  0  0
 20 15  2  0  0  0  0
 23 19  1  0  0  0  0
 24 25  2  0  0  0  0
 26 25  1  6  0  0  0
 26  3  1  0  0  0  0
 27 26  1  0  0  0  0
 28 27  1  0  0  0  0
 29 27  1  0  0  0  0
 30 29  1  0  0  0  0
 31 29  1  0  0  0  0
 31 25  1  0  0  0  0
 32 31  1  0  0  0  0
M  END
>  <minimizedAffinity>
-4.54255009

$$$$

 OpenBabel03272508393D

 32 34  0  0  1  0  0  0  0  0999 V2000
   38.7210   24.6190   34.6920 N   0  0  0  0  0  0  0  0  0  0  0  0
   38.4510   26.0060   34.3320 C   0  0  0  0  0  0  0  0  0  0  0  0
   37.3950   26.1600   33.2890 C   0  0  2  0  0  0  0  0  0  0  0  0
   37.4510   25.2060   32.2340 N   0  0  0  0  0  0  0  0  0  0  0  0
   37.5380   23.8610   32.7890 C   0  0  0  0  0  0  0  0  0  0  0  0
   38.8690   23.8400   33.4970 C   0  0  0  0  0  0  0  0  0  0  0  0
   38.1230   26.5090   35.2800 H   0  0  0  0  0  0  0  0  0  0  0  0
   39.4410   26.4240   34.0470 H   0  0  0  0  0  0  0  0  0  0  0  0
   36.4250   25.9710   33.8160 H   0  0  0  0  0  0  0  0  0  0  0  0
   38.2770   25.3440   31.6360 H   0  0  0  0  0  0  0  0  0  0  0  0
   37.4650   23.0910   32.0000 H   0  0  0  0  0  0  0  0  0  0  0  0
   36.7440   23.7670   33.5550 H   0  0  0  0  0  0  0  0  0  0  0  0
   39.1030   22.7540   33.7000 H   0  0  0  0  0  0  0  0  0  0  0  0
   39.6700   24.2000   32.8420 H   0  0  0  0  0  0  0  0  0  0  0  0
   38.8170   24.1480   36.0240 C   0  0  0  0  0  0  0  0  0  0  0  0
   39.7950   23.2250   36.4220 C   0  0  0  0  0  0  0  0  0  0  0  0
   39.8080   22.8190   37.7630 C   0  0  0  0  0  0  0  0  0  0  0  0
   38.8690   23.3420   38.6130 N   0  0  0  0  0  0  0  0  0  0  0  0
   37.9350   24.2400   38.1770 C   0  0  0  0  0  0  0  0  0  0  0  0
   37.9060   24.6390   36.9020 N   0  0  0  0  0  0  0  0  0  0  0  0
   40.4970   22.8530   35.7200 H   0  0  0  0  0  0  0  0  0  0  0  0
   40.5410   22.1080   38.1240 H   0  0  0  0  0  0  0  0  0  0  0  0
   37.2500   24.5820   38.9340 H   0  0  0  0  0  0  0  0  0  0  0  0
   39.1550   27.5260   31.0000 O   0  0  0  0  0  0  0  0  0  0  0  0
   38.0910   27.8830   31.6100 C   0  0  0  0  0  0  0  0  0  0  0  0
   37.3500   27.5690   32.8310 C   0  0  1  0  0  3  0  0  0  0  0  0
   35.9220   27.9490   32.4380 C   0  0  0  0  0  3  0  0  0  0  0  0
   35.5460   27.1640   31.7690 H   0  0  0  0  0  0  0  0  0  0  0  0
   36.1800   29.2170   31.6490 C   0  0  0  0  0  3  0  0  0  0  0  0
   35.3180   29.4450   31.0040 H   0  0  0  0  0  0  0  0  0  0  0  0
   37.3930   28.9140   30.8800 N   0  0  0  0  0  0  0  0  0  0  0  0
   37.5380   29.4640   29.9850 H   0  0  0  0  0  0  0  0  0  0  0  0
  1 15  1  0  0  0  0
  2  1  1  0  0  0  0
  2  7  1  0  0  0  0
  3  9  1  1  0  0  0
  3  2  1  0  0  0  0
  4  5  1  0  0  0  0
  4  3  1  0  0  0  0
  5  6  1  0  0  0  0
  5 12  1  0  0  0  0
  6 13  1  0  0  0  0
  6  1  1  0  0  0  0
  8  2  1  0  0  0  0
 10  4  1  0  0  0  0
 11  5  1  0  0  0  0
 14  6  1  0  0  0  0
 15 16  2  0  0  0  0
 15 20  1  0  0  0  0
 16 17  1  0  0  0  0
 17 22  1  0  0  0  0
 17 18  2  0  0  0  0
 19 18  1  0  0  0  0
 19 23  1  0  0  0  0
 20 19  2  0  0  0  0
 21 16  1  0  0  0  0
 24 25  2  0  0  0  0
 26 25  1  6  0  0  0
 26  3  1  0  0  0  0
 27 26  1  0  0  0  0
 28 27  1  0  0  0  0
 29 27  1  0  0  0  0
 30 29  1  0  0  0  0
 31 25  1  0  0  0  0
 31 29  1  0  0  0  0
 32 31  1  0  0  0  0
M  END
>  <minimizedAffinity>
-4.53806162

$$$$
