
 OpenBabel03272508393D

 32 34  0  0  1  0  0  0  0  0999 V2000
   37.7190   31.2080   45.0620 N   0  0  0  0  0  0  0  0  0  0  0  0
   37.3070   30.4700   46.2500 C   0  0  0  0  0  0  0  0  0  0  0  0
   37.8540   31.0270   47.5220 C   0  0  2  0  0  0  0  0  0  0  0  0
   39.2080   31.4580   47.4530 N   0  0  0  0  0  0  0  0  0  0  0  0
   39.3900   32.3340   46.3020 C   0  0  0  0  0  0  0  0  0  0  0  0
   39.1330   31.4400   45.1150 C   0  0  0  0  0  0  0  0  0  0  0  0
   36.1860   30.5200   46.2670 H   0  0  0  0  0  0  0  0  0  0  0  0
   37.6000   29.4180   46.0470 H   0  0  0  0  0  0  0  0  0  0  0  0
   37.2530   31.9490   47.7270 H   0  0  0  0  0  0  0  0  0  0  0  0
   39.8570   30.6680   47.3410 H   0  0  0  0  0  0  0  0  0  0  0  0
   40.4010   32.7800   46.2860 H   0  0  0  0  0  0  0  0  0  0  0  0
   38.5850   33.0940   46.3340 H   0  0  0  0  0  0  0  0  0  0  0  0
   39.5280   31.9910   44.2120 H   0  0  0  0  0  0  0  0  0  0  0  0
   39.7200   30.5170   45.1820 H   0  0  0  0  0  0  0  0  0  0  0  0
   36.8340   31.6180   44.0340 C   0  0  0  0  0  0  0  0  0  0  0  0
   37.1460   32.6630   43.1520 C   0  0  0  0  0  0  0  0  0  0  0  0
   36.2060   32.9950   42.1680 C   0  0  0  0  0  0  0  0  0  0  0  0
   35.0340   32.2860   42.1180 N   0  0  0  0  0  0  0  0  0  0  0  0
   34.7760   31.2740   43.0020 C   0  0  0  0  0  0  0  0  0  0  0  0
   35.6600   30.9430   43.9470 N   0  0  0  0  0  0  0  0  0  0  0  0
   38.0690   33.1780   43.2370 H   0  0  0  0  0  0  0  0  0  0  0  0
   36.3950   33.7930   41.4610 H   0  0  0  0  0  0  0  0  0  0  0  0
   33.8250   30.7890   42.8660 H   0  0  0  0  0  0  0  0  0  0  0  0
   38.7040   31.3260   50.5870 O   0  0  0  0  0  0  0  0  0  0  0  0
   37.8650   30.5740   49.9850 C   0  0  0  0  0  0  0  0  0  0  0  0
   37.5710   30.0910   48.6360 C   0  0  1  0  0  0  0  0  0  0  0  0
   36.0690   29.8170   48.7220 C   0  0  0  0  0  0  0  0  0  0  0  0
   35.5560   30.7870   48.7040 H   0  0  0  0  0  0  0  0  0  0  0  0
   35.9770   29.2130   50.1100 C   0  0  0  0  0  0  0  0  0  0  0  0
   34.9420   29.2680   50.4800 H   0  0  0  0  0  0  0  0  0  0  0  0
   36.9030   30.0230   50.9090 N   0  0  0  0  0  0  0  0  0  0  0  0
   36.7200   30.0630   51.9530 H   0  0  0  0  0  0  0  0  0  0  0  0
  1  6  1  0  0  0  0
  1  2  1  0  0  0  0
  2  7  1  0  0  0  0
  2  3  1  0  0  0  0
  3  9  1  1  0  0  0
  3 26  1  0  0  0  0
  4  3  1  0  0  0  0
  5 12  1  0  0  0  0
  5  4  1  0  0  0  0
  6 14  1  0  0  0  0
  6  5  1  0  0  0  0
  8  2  1  0  0  0  0
 10  4  1  0  0  0  0
 11  5  1  0  0  0  0
 13  6  1  0  0  0  0
 15  1  1  0  0  0  0
 16 21  1  0  0  0  0
 16 15  2  0  0  0  0
 17 16  1  0  0  0  0
 18 17  2  0  0  0  0
 18 19  1  0  0  0  0
 19 20  2  0  0  0  0
 20 15  1  0  0  0  0
 22 17  1  0  0  0  0
 23 19  1  0  0  0  0
 25 24  2  0  0  0  0
 25 31  1  0  0  0  0
 26 27  1  1  0  0  0
 26 25  1  0  0  0  0
 27 29  1  0  0  0  0
 28 27  1  0  0  0  0
 29 30  1  0  0  0  0
 29 31  1  0  0  0  0
 31 32  1  0  0  0  0
M  END
>  <minimizedAffinity>
-4.80684996

>  <minimizedRMSD>
4.84446239

$$$$
