REMARK  Name = 
REMARK  3 active torsions:
REMARK  status: ('A' for Active; 'I' for Inactive)
REMARK    1  A    between atoms: C_3  and  C_11
REMARK    2  A    between atoms: C_10  and  N_15
REMARK    3  A    between atoms: C_13  and  C_24
REMARK                            x       y       z     vdW  Elec       q    Type
REMARK                         _______ _______ _______ _____ _____    ______ ____
ROOT
ATOM      1  C   UNL     1      36.065  29.436  50.797  0.00  0.00    +0.000 A 
ATOM      2  C   UNL     1      37.036  29.922  49.917  0.00  0.00    +0.000 A 
ATOM      3  C   UNL     1      36.742  30.546  48.707  0.00  0.00    +0.000 A 
ATOM      4  N   UNL     1      35.422  30.651  48.435  0.00  0.00    +0.000 NA
ATOM      5  C   UNL     1      34.489  30.182  49.283  0.00  0.00    +0.000 A 
ATOM      6  N   UNL     1      34.776  29.593  50.428  0.00  0.00    +0.000 NA
ATOM      7  H   UNL     1      36.377  28.961  51.723  0.00  0.00    +0.000 HD
ENDROOT
BRANCH   3  10
ATOM      8 CL   UNL     1      37.725  33.218  49.447  0.00  0.00    +0.000 Cl
ATOM      9  C   UNL     1      38.288  32.295  48.085  0.00  0.00    +0.000 A 
ATOM     10  C   UNL     1      37.766  31.042  47.811  0.00  0.00    +0.000 A 
ATOM     11  C   UNL     1      38.262  30.381  46.720  0.00  0.00    +0.000 A 
ATOM     12  C   UNL     1      39.240  30.892  45.893  0.00  0.00    +0.000 A 
ATOM     13  C   UNL     1      39.742  32.173  46.210  0.00  0.00    +0.000 A 
ATOM     14 CL   UNL     1      40.973  32.798  45.155  0.00  0.00    +0.000 Cl
ATOM     15  C   UNL     1      39.275  32.879  47.298  0.00  0.00    +0.000 A 
ATOM     16  H   UNL     1      37.824  29.397  46.541  0.00  0.00    +0.000 HD
ATOM     17  H   UNL     1      39.611  30.353  45.044  0.00  0.00    +0.000 HD
ATOM     18  H   UNL     1      39.684  33.863  47.513  0.00  0.00    +0.000 HD
ENDBRANCH   3  10
BRANCH   5  21
ATOM     19  O   UNL     1      33.256  32.793  48.564  0.00  0.00    +0.000 OA
ATOM     20  C   UNL     1      33.073  31.650  48.069  0.00  0.00    +0.000 C 
ATOM     21  C   UNL     1      33.070  30.366  48.856  0.00  0.00    +0.000 C 
ATOM     22  C   UNL     1      32.639  29.323  47.872  0.00  0.00    +0.000 C 
ATOM     23  H   UNL     1      31.836  28.649  48.241  0.00  0.00    +0.000 HD
ATOM     24  C   UNL     1      32.138  30.098  46.656  0.00  0.00    +0.000 C 
ATOM     25  H   UNL     1      32.383  29.526  45.743  0.00  0.00    +0.000 HD
ATOM     26  N   UNL     1      32.838  31.374  46.693  0.00  0.00    +0.000 N 
ATOM     27  H   UNL     1      33.100  31.946  45.857  0.00  0.00    +0.000 HD
ENDBRANCH   5  21
BRANCH   2  28
ATOM     28  N   UNL     1      38.399  29.756  50.308  0.00  0.00    +0.000 N 
ATOM     29  H   UNL     1      38.716  28.845  50.706  0.00  0.00    +0.000 HD
ATOM     30  H   UNL     1      39.138  30.484  50.232  0.00  0.00    +0.000 HD
ENDBRANCH   2  28
TORSDOF 3
