
 OpenBabel03272502173D

 33 35  0  0  1  0  0  0  0  0999 V2000
   37.2710   30.6910   48.8530 C   0  0  0  0  0  0  0  0  0  0  0  0
   37.3010   31.9250   49.5460 C   0  0  0  0  0  0  0  0  0  0  0  0
   38.1790   32.9040   49.1060 C   0  0  0  0  0  0  0  0  0  0  0  0
   38.9720   32.6250   48.0230 N   0  0  0  0  0  0  0  0  0  0  0  0
   38.9190   31.4440   47.3880 C   0  0  0  0  0  0  0  0  0  0  0  0
   38.0720   30.4820   47.8020 N   0  0  0  0  0  0  0  0  0  0  0  0
   36.7190   32.2110   50.3870 H   0  0  0  0  0  0  0  0  0  0  0  0
   38.2590   33.8730   49.5840 H   0  0  0  0  0  0  0  0  0  0  0  0
   39.9040   33.7470   45.6050 O   0  0  0  0  0  0  0  0  0  0  0  0
   40.0350   32.4950   45.4650 C   0  0  0  0  0  0  0  0  0  0  0  0
   39.8090   31.2110   46.2210 C   0  0  2  0  0  0  0  0  0  0  0  0
   39.2030   30.3660   45.1480 C   0  0  0  0  0  0  0  0  0  0  0  0
   39.2510   29.2820   45.4220 H   0  0  0  0  0  0  0  0  0  0  0  0
   40.0950   30.6840   43.9520 C   0  0  0  0  0  0  0  0  0  0  0  0
   40.9960   30.0180   43.9440 H   0  0  0  0  0  0  0  0  0  0  0  0
   40.5640   32.0260   44.2200 N   0  0  0  0  0  0  0  0  0  0  0  0
   41.2080   32.4960   43.5160 H   0  0  0  0  0  0  0  0  0  0  0  0
   36.1000   29.5550   49.5390 S   0  0  0  0  0  0  0  0  0  0  0  0
   33.5590   28.7720   49.0620 N   0  0  0  0  0  0  0  0  0  0  0  0
   34.3920   29.9530   49.0030 C   0  0  2  0  0  0  0  0  0  0  0  0
   34.4460   30.4220   47.5650 C   0  0  0  0  0  0  0  0  0  0  0  0
   33.3800   29.8720   46.8220 O   0  0  0  0  0  0  0  0  0  0  0  0
   33.7130   28.5040   46.6950 C   0  0  0  0  0  0  0  0  0  0  0  0
   33.9900   27.8560   48.0300 C   0  0  2  0  0  0  0  0  0  0  0  0
   32.5670   29.0120   49.0210 H   0  0  0  0  0  0  0  0  0  0  0  0
   34.0130   30.7210   49.6870 H   0  0  0  0  0  0  0  0  0  0  0  0
   35.3780   30.1010   47.0580 H   0  0  0  0  0  0  0  0  0  0  0  0
   34.3790   31.5340   47.5830 H   0  0  0  0  0  0  0  0  0  0  0  0
   32.9360   27.9780   46.1250 H   0  0  0  0  0  0  0  0  0  0  0  0
   34.6370   28.5050   46.0620 H   0  0  0  0  0  0  0  0  0  0  0  0
   35.0730   27.6690   48.1580 H   0  0  0  0  0  0  0  0  0  0  0  0
   33.2460   26.6650   48.1580 O   0  0  0  0  0  0  0  0  0  0  0  0
   33.8840   25.9100   48.1930 H   0  0  0  0  0  0  0  0  0  0  0  0
  1 18  1  0  0  0  0
  1  2  1  0  0  0  0
  2  7  1  0  0  0  0
  3  2  2  0  0  0  0
  3  8  1  0  0  0  0
  4  3  1  0  0  0  0
  5  6  1  0  0  0  0
  5  4  2  0  0  0  0
  6  1  2  0  0  0  0
 10  9  2  0  0  0  0
 10 11  1  0  0  0  0
 11  5  1  1  0  0  0
 12 13  1  0  0  0  0
 12 11  1  0  0  0  0
 14 16  1  0  0  0  0
 14 12  1  0  0  0  0
 15 14  1  0  0  0  0
 16 10  1  0  0  0  0
 17 16  1  0  0  0  0
 20 19  1  0  0  0  0
 20 18  1  0  0  0  0
 20 26  1  1  0  0  0
 21 28  1  0  0  0  0
 21 20  1  0  0  0  0
 22 21  1  0  0  0  0
 23 22  1  0  0  0  0
 23 24  1  0  0  0  0
 24 31  1  1  0  0  0
 24 32  1  0  0  0  0
 24 19  1  0  0  0  0
 25 19  1  0  0  0  0
 27 21  1  0  0  0  0
 29 23  1  0  0  0  0
 30 23  1  0  0  0  0
 32 33  1  0  0  0  0
M  END
>  <minimizedAffinity>
-5.79363823

>  <minimizedRMSD>
0.721931458

$$$$
