
 OpenBabel03272508113D

 34 36  0  0  1  0  0  0  0  0999 V2000
   36.7180   29.4160   44.0290 Cl  0  0  0  0  0  0  0  0  0  0  0  0
   38.3760   29.8130   43.5680 C   0  0  0  0  0  0  0  0  0  0  0  0
   39.3350   30.3120   44.4610 C   0  0  0  0  0  0  0  0  0  0  0  0
   40.6010   30.5820   43.9680 C   0  0  0  0  0  0  0  0  0  0  0  0
   40.8940   30.3630   42.6320 C   0  0  0  0  0  0  0  0  0  0  0  0
   39.9780   29.8820   41.7540 C   0  0  0  0  0  0  0  0  0  0  0  0
   38.7360   29.6150   42.2350 C   0  0  0  0  0  0  0  0  0  0  0  0
   41.2740   30.9560   44.7020 H   0  0  0  0  0  0  0  0  0  0  0  0
   41.9110   30.6030   42.3330 H   0  0  0  0  0  0  0  0  0  0  0  0
   40.2760   29.7350   40.7220 H   0  0  0  0  0  0  0  0  0  0  0  0
   38.7950   27.0690   40.6570 O   0  0  0  0  0  0  0  0  0  0  0  0
   38.3210   28.1730   40.2790 C   0  0  0  0  0  0  0  0  0  0  0  0
   37.7050   29.0800   41.2740 C   0  0  2  0  0  3  0  0  0  0  0  0
   37.1720   30.2660   40.4930 C   0  0  0  0  0  3  0  0  0  0  0  0
   36.0860   30.1060   40.2480 H   0  0  0  0  0  0  0  0  0  0  0  0
   38.0210   30.2180   39.2450 C   0  0  0  0  0  3  0  0  0  0  0  0
   37.5450   30.7490   38.4010 H   0  0  0  0  0  0  0  0  0  0  0  0
   38.2300   28.8100   38.9900 N   0  0  0  0  0  0  0  0  0  0  0  0
   38.3230   28.2030   38.1230 H   0  0  0  0  0  0  0  0  0  0  0  0
   38.8440   30.4550   45.7350 O   0  0  0  0  0  0  0  0  0  0  0  0
   39.3980   32.5280   47.1800 O   0  0  0  0  0  0  0  0  0  0  0  0
   38.2740   31.8390   46.4900 P   0  0  1  0  0  0  0  0  0  0  0  0
   37.6940   32.8460   45.2300 O   0  0  0  0  0  0  0  0  0  0  0  0
   36.8950   32.3820   44.8750 H   0  0  0  0  0  0  0  0  0  0  0  0
   36.9880   31.4340   47.5180 O   0  0  0  0  0  0  0  0  0  0  0  0
   37.5070   30.5300   51.0490 C   0  0  0  0  0  0  0  0  0  0  0  0
   37.6070   31.3180   49.9010 C   0  0  0  0  0  0  0  0  0  0  0  0
   37.0170   30.8550   48.7200 C   0  0  0  0  0  0  0  0  0  0  0  0
   36.3700   29.6470   48.7600 N   0  0  0  0  0  0  0  0  0  0  0  0
   36.2970   28.9200   49.8900 C   0  0  0  0  0  0  0  0  0  0  0  0
   36.8680   29.3700   51.0300 N   0  0  0  0  0  0  0  0  0  0  0  0
   37.9950   30.9870   51.8850 H   0  0  0  0  0  0  0  0  0  0  0  0
   38.0830   32.2700   49.7470 H   0  0  0  0  0  0  0  0  0  0  0  0
   35.7850   27.9610   49.9320 H   0  0  0  0  0  0  0  0  0  0  0  0
  2  1  1  0  0  0  0
  2  3  1  0  0  0  0
  3 20  1  0  0  0  0
  4  3  2  0  0  0  0
  4  8  1  0  0  0  0
  5  4  1  0  0  0  0
  6  7  1  0  0  0  0
  6  5  2  0  0  0  0
  7  2  2  0  0  0  0
  9  5  1  0  0  0  0
 10  6  1  0  0  0  0
 12 11  2  0  0  0  0
 12 13  1  0  0  0  0
 13  7  1  1  0  0  0
 14 13  1  0  0  0  0
 15 14  1  0  0  0  0
 16 14  1  0  0  0  0
 17 16  1  0  0  0  0
 18 16  1  0  0  0  0
 18 12  1  0  0  0  0
 19 18  1  0  0  0  0
 20 22  1  0  0  0  0
 22 21  2  1  0  0  0
 22 25  1  0  0  0  0
 23 22  1  0  0  0  0
 24 23  1  0  0  0  0
 25 28  1  0  0  0  0
 26 32  1  0  0  0  0
 27 26  2  0  0  0  0
 28 29  2  0  0  0  0
 28 27  1  0  0  0  0
 29 30  1  0  0  0  0
 30 34  1  0  0  0  0
 30 31  2  0  0  0  0
 31 26  1  0  0  0  0
 33 27  1  0  0  0  0
M  END
>  <minimizedAffinity>
-4.92531586

>  <minimizedRMSD>
1.58293366

$$$$
