
 OpenBabel03272502173D

 33 35  0  0  1  0  0  0  0  0999 V2000
   37.2710   30.6920   48.8520 C   0  0  0  0  0  0  0  0  0  0  0  0
   37.3010   31.9260   49.5450 C   0  0  0  0  0  0  0  0  0  0  0  0
   38.1800   32.9050   49.1050 C   0  0  0  0  0  0  0  0  0  0  0  0
   38.9730   32.6250   48.0230 N   0  0  0  0  0  0  0  0  0  0  0  0
   38.9200   31.4450   47.3880 C   0  0  0  0  0  0  0  0  0  0  0  0
   38.0730   30.4830   47.8010 N   0  0  0  0  0  0  0  0  0  0  0  0
   36.7200   32.2120   50.3860 H   0  0  0  0  0  0  0  0  0  0  0  0
   38.2600   33.8730   49.5830 H   0  0  0  0  0  0  0  0  0  0  0  0
   39.9030   33.7470   45.6040 O   0  0  0  0  0  0  0  0  0  0  0  0
   40.0350   32.4950   45.4660 C   0  0  0  0  0  0  0  0  0  0  0  0
   39.8100   31.2110   46.2210 C   0  0  2  0  0  3  0  0  0  0  0  0
   39.2030   30.3660   45.1470 C   0  0  0  0  0  3  0  0  0  0  0  0
   39.2520   29.2820   45.4220 H   0  0  0  0  0  0  0  0  0  0  0  0
   40.0950   30.6840   43.9510 C   0  0  0  0  0  3  0  0  0  0  0  0
   40.9970   30.0180   43.9440 H   0  0  0  0  0  0  0  0  0  0  0  0
   40.5640   32.0260   44.2190 N   0  0  0  0  0  0  0  0  0  0  0  0
   41.2070   32.4950   43.5150 H   0  0  0  0  0  0  0  0  0  0  0  0
   36.1000   29.5560   49.5390 S   0  0  0  0  0  0  0  0  0  0  0  0
   33.5590   28.7730   49.0620 N   0  0  0  0  0  0  0  0  0  0  0  0
   34.3920   29.9540   49.0020 C   0  0  2  0  0  0  0  0  0  0  0  0
   34.4460   30.4220   47.5630 C   0  0  0  0  0  0  0  0  0  0  0  0
   33.3800   29.8720   46.8220 O   0  0  0  0  0  0  0  0  0  0  0  0
   33.7130   28.5040   46.6950 C   0  0  0  0  0  0  0  0  0  0  0  0
   33.9890   27.8560   48.0300 C   0  0  2  0  0  0  0  0  0  0  0  0
   32.5670   29.0140   49.0210 H   0  0  0  0  0  0  0  0  0  0  0  0
   34.0130   30.7220   49.6850 H   0  0  0  0  0  0  0  0  0  0  0  0
   35.3790   30.1000   47.0570 H   0  0  0  0  0  0  0  0  0  0  0  0
   34.3790   31.5340   47.5820 H   0  0  0  0  0  0  0  0  0  0  0  0
   32.9360   27.9780   46.1250 H   0  0  0  0  0  0  0  0  0  0  0  0
   34.6370   28.5050   46.0620 H   0  0  0  0  0  0  0  0  0  0  0  0
   35.0730   27.6690   48.1590 H   0  0  0  0  0  0  0  0  0  0  0  0
   33.2460   26.6660   48.1590 O   0  0  0  0  0  0  0  0  0  0  0  0
   33.8830   25.9100   48.1940 H   0  0  0  0  0  0  0  0  0  0  0  0
  1 18  1  0  0  0  0
  1  2  1  0  0  0  0
  2  7  1  0  0  0  0
  3  2  2  0  0  0  0
  3  8  1  0  0  0  0
  4  3  1  0  0  0  0
  5  6  1  0  0  0  0
  5  4  2  0  0  0  0
  6  1  2  0  0  0  0
 10  9  2  0  0  0  0
 10 11  1  0  0  0  0
 11  5  1  1  0  0  0
 12 13  1  0  0  0  0
 12 11  1  0  0  0  0
 14 16  1  0  0  0  0
 14 12  1  0  0  0  0
 15 14  1  0  0  0  0
 16 10  1  0  0  0  0
 17 16  1  0  0  0  0
 20 19  1  0  0  0  0
 20 18  1  0  0  0  0
 20 26  1  1  0  0  0
 21 28  1  0  0  0  0
 21 20  1  0  0  0  0
 22 21  1  0  0  0  0
 23 22  1  0  0  0  0
 23 24  1  0  0  0  0
 24 31  1  1  0  0  0
 24 32  1  0  0  0  0
 24 19  1  0  0  0  0
 25 19  1  0  0  0  0
 27 21  1  0  0  0  0
 29 23  1  0  0  0  0
 30 23  1  0  0  0  0
 32 33  1  0  0  0  0
M  END
>  <minimizedAffinity>
-5.79316807

>  <minimizedRMSD>
0.445747077

$$$$
