
 OpenBabel03272508113D

 34 36  0  0  1  0  0  0  0  0999 V2000
   36.7180   29.4160   44.0280 Cl  0  0  0  0  0  0  0  0  0  0  0  0
   38.3760   29.8130   43.5670 C   0  0  0  0  0  0  0  0  0  0  0  0
   39.3340   30.3110   44.4600 C   0  0  0  0  0  0  0  0  0  0  0  0
   40.6000   30.5810   43.9670 C   0  0  0  0  0  0  0  0  0  0  0  0
   40.8940   30.3630   42.6310 C   0  0  0  0  0  0  0  0  0  0  0  0
   39.9780   29.8820   41.7530 C   0  0  0  0  0  0  0  0  0  0  0  0
   38.7360   29.6150   42.2340 C   0  0  0  0  0  0  0  0  0  0  0  0
   41.2730   30.9560   44.7010 H   0  0  0  0  0  0  0  0  0  0  0  0
   41.9110   30.6030   42.3320 H   0  0  0  0  0  0  0  0  0  0  0  0
   40.2760   29.7340   40.7210 H   0  0  0  0  0  0  0  0  0  0  0  0
   38.7970   27.0690   40.6550 O   0  0  0  0  0  0  0  0  0  0  0  0
   38.3230   28.1730   40.2780 C   0  0  0  0  0  0  0  0  0  0  0  0
   37.7050   29.0800   41.2730 C   0  0  2  0  0  3  0  0  0  0  0  0
   37.1720   30.2650   40.4920 C   0  0  0  0  0  3  0  0  0  0  0  0
   36.0870   30.1050   40.2450 H   0  0  0  0  0  0  0  0  0  0  0  0
   38.0230   30.2190   39.2440 C   0  0  0  0  0  3  0  0  0  0  0  0
   37.5460   30.7500   38.3990 H   0  0  0  0  0  0  0  0  0  0  0  0
   38.2330   28.8110   38.9890 N   0  0  0  0  0  0  0  0  0  0  0  0
   38.3260   28.2040   38.1220 H   0  0  0  0  0  0  0  0  0  0  0  0
   38.8430   30.4550   45.7340 O   0  0  0  0  0  0  0  0  0  0  0  0
   39.3980   32.5270   47.1800 O   0  0  0  0  0  0  0  0  0  0  0  0
   38.2740   31.8380   46.4900 P   0  0  1  0  0  0  0  0  0  0  0  0
   37.6940   32.8460   45.2290 O   0  0  0  0  0  0  0  0  0  0  0  0
   36.8950   32.3820   44.8740 H   0  0  0  0  0  0  0  0  0  0  0  0
   36.9880   31.4330   47.5180 O   0  0  0  0  0  0  0  0  0  0  0  0
   37.5070   30.5300   51.0490 C   0  0  0  0  0  0  0  0  0  0  0  0
   37.6080   31.3180   49.9000 C   0  0  0  0  0  0  0  0  0  0  0  0
   37.0170   30.8550   48.7190 C   0  0  0  0  0  0  0  0  0  0  0  0
   36.3690   29.6470   48.7600 N   0  0  0  0  0  0  0  0  0  0  0  0
   36.2970   28.9200   49.8900 C   0  0  0  0  0  0  0  0  0  0  0  0
   36.8680   29.3700   51.0300 N   0  0  0  0  0  0  0  0  0  0  0  0
   37.9960   30.9870   51.8850 H   0  0  0  0  0  0  0  0  0  0  0  0
   38.0840   32.2690   49.7470 H   0  0  0  0  0  0  0  0  0  0  0  0
   35.7840   27.9610   49.9330 H   0  0  0  0  0  0  0  0  0  0  0  0
  2  1  1  0  0  0  0
  2  3  1  0  0  0  0
  3 20  1  0  0  0  0
  4  3  2  0  0  0  0
  4  8  1  0  0  0  0
  5  4  1  0  0  0  0
  6  7  1  0  0  0  0
  6  5  2  0  0  0  0
  7  2  2  0  0  0  0
  9  5  1  0  0  0  0
 10  6  1  0  0  0  0
 12 11  2  0  0  0  0
 12 13  1  0  0  0  0
 13  7  1  1  0  0  0
 14 13  1  0  0  0  0
 15 14  1  0  0  0  0
 16 14  1  0  0  0  0
 17 16  1  0  0  0  0
 18 16  1  0  0  0  0
 18 12  1  0  0  0  0
 19 18  1  0  0  0  0
 20 22  1  0  0  0  0
 22 21  2  1  0  0  0
 22 25  1  0  0  0  0
 23 22  1  0  0  0  0
 24 23  1  0  0  0  0
 25 28  1  0  0  0  0
 26 32  1  0  0  0  0
 27 26  2  0  0  0  0
 28 29  2  0  0  0  0
 28 27  1  0  0  0  0
 29 30  1  0  0  0  0
 30 34  1  0  0  0  0
 30 31  2  0  0  0  0
 31 26  1  0  0  0  0
 33 27  1  0  0  0  0
M  END
>  <minimizedAffinity>
-4.92568016

>  <minimizedRMSD>
0.718013585

$$$$
