
 OpenBabel03272505183D

 33 35  0  0  1  0  0  0  0  0999 V2000
   37.1430   29.4780   50.1790 C   0  0  0  0  0  0  0  0  0  0  0  0
   38.0280   30.1090   49.2840 C   0  0  0  0  0  0  0  0  0  0  0  0
   37.6060   30.5020   48.0200 C   0  0  0  0  0  0  0  0  0  0  0  0
   36.3060   30.2160   47.7710 N   0  0  0  0  0  0  0  0  0  0  0  0
   35.4550   29.6200   48.6060 C   0  0  0  0  0  0  0  0  0  0  0  0
   35.8800   29.2450   49.8250 N   0  0  0  0  0  0  0  0  0  0  0  0
   37.5580   29.2050   51.1430 H   0  0  0  0  0  0  0  0  0  0  0  0
   39.0390   30.2850   49.5920 H   0  0  0  0  0  0  0  0  0  0  0  0
   38.9880   32.4110   47.4710 C   0  0  0  0  0  0  0  0  0  0  0  0
   38.5770   31.1410   47.1680 C   0  0  0  0  0  0  0  0  0  0  0  0
   39.1240   30.5540   46.0570 C   0  0  0  0  0  0  0  0  0  0  0  0
   40.0320   31.1810   45.2790 C   0  0  0  0  0  0  0  0  0  0  0  0
   40.4700   32.4670   45.5540 C   0  0  0  0  0  0  0  0  0  0  0  0
   39.9250   33.0550   46.6620 C   0  0  0  0  0  0  0  0  0  0  0  0
   38.7930   29.5430   45.8250 H   0  0  0  0  0  0  0  0  0  0  0  0
   40.4060   30.6350   44.4220 H   0  0  0  0  0  0  0  0  0  0  0  0
   41.1980   32.9290   44.9010 H   0  0  0  0  0  0  0  0  0  0  0  0
   40.3120   34.0610   46.8180 H   0  0  0  0  0  0  0  0  0  0  0  0
   39.2760   34.2770   48.9480 N   0  0  0  0  0  0  0  0  0  0  0  0
   38.5720   33.2350   48.5710 C   0  0  0  0  0  0  0  0  0  0  0  0
   37.5660   33.3910   49.5440 N   0  0  0  0  0  0  0  0  0  0  0  0
   38.9570   34.8740   49.7440 H   0  0  0  0  0  0  0  0  0  0  0  0
   37.6060   32.8490   50.4420 H   0  0  0  0  0  0  0  0  0  0  0  0
   36.7340   33.9870   49.5380 H   0  0  0  0  0  0  0  0  0  0  0  0
   34.3050   27.1290   48.3720 O   0  0  0  0  0  0  0  0  0  0  0  0
   33.9000   28.0180   47.5510 C   0  0  0  0  0  0  0  0  0  0  0  0
   34.0490   29.3820   48.1640 C   0  0  2  0  0  3  0  0  0  0  0  0
   33.6770   30.2830   47.0090 C   0  0  0  0  0  3  0  0  0  0  0  0
   32.6180   30.5890   47.1020 H   0  0  0  0  0  0  0  0  0  0  0  0
   33.7970   29.4050   45.7800 C   0  0  0  0  0  3  0  0  0  0  0  0
   34.8570   29.3770   45.4590 H   0  0  0  0  0  0  0  0  0  0  0  0
   33.3520   28.1080   46.2390 N   0  0  0  0  0  0  0  0  0  0  0  0
   32.7990   27.2440   45.9750 H   0  0  0  0  0  0  0  0  0  0  0  0
  1  7  1  0  0  0  0
  2  8  1  0  0  0  0
  2  1  2  0  0  0  0
  3  2  1  0  0  0  0
  4  3  2  0  0  0  0
  4  5  1  0  0  0  0
  5  6  2  0  0  0  0
  6  1  1  0  0  0  0
  9 20  1  0  0  0  0
 10  9  1  0  0  0  0
 10  3  1  0  0  0  0
 11 10  2  0  0  0  0
 12 13  2  0  0  0  0
 12 11  1  0  0  0  0
 13 14  1  0  0  0  0
 14 18  1  0  0  0  0
 14  9  2  0  0  0  0
 15 11  1  0  0  0  0
 16 12  1  0  0  0  0
 17 13  1  0  0  0  0
 19 22  1  0  0  0  0
 20 19  2  0  0  0  0
 20 21  1  0  0  0  0
 21 23  1  0  0  0  0
 24 21  1  0  0  0  0
 26 27  1  0  0  0  0
 26 25  2  0  0  0  0
 27  5  1  6  0  0  0
 28 29  1  0  0  0  0
 28 27  1  0  0  0  0
 30 32  1  0  0  0  0
 30 28  1  0  0  0  0
 31 30  1  0  0  0  0
 32 26  1  0  0  0  0
 33 32  1  0  0  0  0
M  END
>  <minimizedAffinity>
-6.39491606

>  <minimizedRMSD>
1.0830791

$$$$
