
 OpenBabel03272504333D

 40 43  0  0  1  0  0  0  0  0999 V2000
   35.0580   29.6160   47.5590 C   0  0  0  0  0  0  0  0  0  0  0  0
   35.2180   30.0400   46.2490 C   0  0  0  0  0  0  0  0  0  0  0  0
   34.1880   29.8890   45.3360 C   0  0  0  0  0  0  0  0  0  0  0  0
   33.0360   29.3140   45.7840 N   0  0  0  0  0  0  0  0  0  0  0  0
   32.9070   28.9100   47.0690 C   0  0  0  0  0  0  0  0  0  0  0  0
   33.9050   29.0550   47.9560 N   0  0  0  0  0  0  0  0  0  0  0  0
   36.1660   30.4790   46.0020 H   0  0  0  0  0  0  0  0  0  0  0  0
   34.3210   30.2220   44.3190 H   0  0  0  0  0  0  0  0  0  0  0  0
   36.0800   29.7430   48.5500 N   0  0  0  0  0  0  0  0  0  0  0  0
   36.1430   28.8820   49.7240 C   0  0  0  0  0  0  0  0  0  0  0  0
   36.4450   29.5880   51.0040 C   0  0  0  0  0  0  0  0  0  0  0  0
   37.1920   30.7770   50.9350 N   0  0  0  0  0  0  0  0  0  0  0  0
   36.9350   31.5740   49.7460 C   0  0  0  0  0  0  0  0  0  0  0  0
   37.1570   30.6720   48.5670 C   0  0  0  0  0  0  0  0  0  0  0  0
   36.9190   28.0990   49.5010 H   0  0  0  0  0  0  0  0  0  0  0  0
   35.1770   28.3240   49.7910 H   0  0  0  0  0  0  0  0  0  0  0  0
   35.4710   29.7560   51.5350 H   0  0  0  0  0  0  0  0  0  0  0  0
   36.9970   28.8600   51.6650 H   0  0  0  0  0  0  0  0  0  0  0  0
   38.2050   30.7230   51.1770 H   0  0  0  0  0  0  0  0  0  0  0  0
   35.9260   31.9910   49.7530 H   0  0  0  0  0  0  0  0  0  0  0  0
   37.7400   32.3480   49.7340 H   0  0  0  0  0  0  0  0  0  0  0  0
   38.1220   30.1360   48.6640 H   0  0  0  0  0  0  0  0  0  0  0  0
   37.1690   31.2480   47.6350 H   0  0  0  0  0  0  0  0  0  0  0  0
   31.6430   28.3020   47.4810 C   0  0  0  0  0  0  0  0  0  0  0  0
   31.6170   27.3820   48.5110 C   0  0  0  0  0  0  0  0  0  0  0  0
   30.4570   26.7690   48.9510 C   0  0  0  0  0  0  0  0  0  0  0  0
   29.3290   27.1270   48.3030 N   0  0  0  0  0  0  0  0  0  0  0  0
   29.3600   28.0250   47.2970 C   0  0  0  0  0  0  0  0  0  0  0  0
   30.4920   28.6190   46.8720 N   0  0  0  0  0  0  0  0  0  0  0  0
   32.5460   27.1240   49.0060 H   0  0  0  0  0  0  0  0  0  0  0  0
   30.5020   26.0580   49.7630 H   0  0  0  0  0  0  0  0  0  0  0  0
   28.5920   27.1560   44.4830 O   0  0  0  0  0  0  0  0  0  0  0  0
   28.1550   28.1490   45.1460 C   0  0  0  0  0  0  0  0  0  0  0  0
   28.1040   28.4040   46.5970 C   0  0  2  0  0  3  0  0  0  0  0  0
   27.8660   29.9100   46.6420 C   0  0  0  0  0  3  0  0  0  0  0  0
   28.8200   30.4010   46.4410 H   0  0  0  0  0  0  0  0  0  0  0  0
   26.9180   30.0800   45.4620 C   0  0  0  0  0  3  0  0  0  0  0  0
   25.9460   29.6470   45.7400 H   0  0  0  0  0  0  0  0  0  0  0  0
   27.5970   29.2600   44.4560 N   0  0  0  0  0  0  0  0  0  0  0  0
   27.6210   29.5180   43.4300 H   0  0  0  0  0  0  0  0  0  0  0  0
  1  6  1  0  0  0  0
  1  9  1  0  0  0  0
  2  1  2  0  0  0  0
  3  4  2  0  0  0  0
  3  2  1  0  0  0  0
  4  5  1  0  0  0  0
  5 24  1  0  0  0  0
  5  6  2  0  0  0  0
  7  2  1  0  0  0  0
  8  3  1  0  0  0  0
  9 14  1  0  0  0  0
  9 10  1  0  0  0  0
 10 16  1  0  0  0  0
 10 11  1  0  0  0  0
 11 17  1  0  0  0  0
 11 18  1  0  0  0  0
 12 11  1  0  0  0  0
 12 19  1  0  0  0  0
 13 20  1  0  0  0  0
 13 12  1  0  0  0  0
 14 22  1  0  0  0  0
 14 13  1  0  0  0  0
 15 10  1  0  0  0  0
 21 13  1  0  0  0  0
 23 14  1  0  0  0  0
 24 25  1  0  0  0  0
 25 26  2  0  0  0  0
 25 30  1  0  0  0  0
 26 31  1  0  0  0  0
 27 26  1  0  0  0  0
 28 27  2  0  0  0  0
 29 28  1  0  0  0  0
 29 24  2  0  0  0  0
 32 33  2  0  0  0  0
 33 34  1  0  0  0  0
 34 35  1  0  0  0  0
 34 28  1  1  0  0  0
 36 35  1  0  0  0  0
 37 38  1  0  0  0  0
 37 35  1  0  0  0  0
 39 33  1  0  0  0  0
 39 37  1  0  0  0  0
 40 39  1  0  0  0  0
M  END
>  <minimizedAffinity>
-5.07854128

>  <minimizedRMSD>
0.401558995

$$$$
