
 OpenBabel03272510193D

 36 39  0  0  1  0  0  0  0  0999 V2000
   37.3050   29.1380   50.8150 Br  0  0  0  0  0  0  0  0  0  0  0  0
   35.9470   29.2770   49.4790 C   0  0  0  0  0  0  0  0  0  0  0  0
   35.9700   30.3040   48.5510 C   0  0  0  0  0  0  0  0  0  0  0  0
   34.9620   30.3540   47.6100 C   0  0  0  0  0  0  0  0  0  0  0  0
   33.9350   29.4190   47.5590 C   0  0  0  0  0  0  0  0  0  0  0  0
   33.9400   28.4190   48.4890 C   0  0  0  0  0  0  0  0  0  0  0  0
   34.9440   28.3590   49.4360 C   0  0  0  0  0  0  0  0  0  0  0  0
   34.9850   31.1470   46.8980 H   0  0  0  0  0  0  0  0  0  0  0  0
   33.1770   27.6470   48.5230 H   0  0  0  0  0  0  0  0  0  0  0  0
   34.9450   27.5660   50.1690 H   0  0  0  0  0  0  0  0  0  0  0  0
   37.9240   33.1960   49.6110 C   0  0  0  0  0  0  0  0  0  0  0  0
   38.9980   33.2290   48.6710 C   0  0  0  0  0  0  0  0  0  0  0  0
   39.0250   32.2530   47.6910 C   0  0  0  0  0  0  0  0  0  0  0  0
   38.0340   31.3040   47.6590 N   0  0  0  0  0  0  0  0  0  0  0  0
   37.0330   31.3070   48.5700 C   0  0  0  0  0  0  0  0  0  0  0  0
   36.9780   32.2550   49.5470 N   0  0  0  0  0  0  0  0  0  0  0  0
   37.9370   33.9760   50.3640 H   0  0  0  0  0  0  0  0  0  0  0  0
   39.7530   34.0070   48.7490 H   0  0  0  0  0  0  0  0  0  0  0  0
   39.8270   32.2480   46.9600 H   0  0  0  0  0  0  0  0  0  0  0  0
   32.8710   29.4570   46.5800 C   0  0  0  0  0  0  0  0  0  0  0  0
   32.2040   28.3630   46.0900 C   0  0  0  0  0  0  0  0  0  0  0  0
   31.1890   28.4440   45.1500 C   0  0  0  0  0  0  0  0  0  0  0  0
   30.8310   29.6420   44.6860 N   0  0  0  0  0  0  0  0  0  0  0  0
   31.4690   30.7290   45.1480 C   0  0  0  0  0  0  0  0  0  0  0  0
   32.4480   30.6330   46.0570 N   0  0  0  0  0  0  0  0  0  0  0  0
   32.4920   27.3810   46.4680 H   0  0  0  0  0  0  0  0  0  0  0  0
   30.7050   27.5450   44.8080 H   0  0  0  0  0  0  0  0  0  0  0  0
   28.5380   31.6790   45.0040 O   0  0  0  0  0  0  0  0  0  0  0  0
   29.5810   32.1910   44.4890 C   0  0  0  0  0  0  0  0  0  0  0  0
   31.0520   32.0520   44.6160 C   0  0  2  0  0  3  0  0  0  0  0  0
   31.5410   32.2090   43.1890 C   0  0  0  0  0  3  0  0  0  0  0  0
   32.5550   32.6080   43.1210 H   0  0  0  0  0  0  0  0  0  0  0  0
   30.5180   33.1290   42.5310 C   0  0  0  0  0  3  0  0  0  0  0  0
   31.0100   34.1030   42.3730 H   0  0  0  0  0  0  0  0  0  0  0  0
   29.4160   33.2080   43.4810 N   0  0  0  0  0  0  0  0  0  0  0  0
   28.6870   33.9560   43.3120 H   0  0  0  0  0  0  0  0  0  0  0  0
  2  1  1  0  0  0  0
  3 15  1  0  0  0  0
  3  2  2  0  0  0  0
  4  3  1  0  0  0  0
  5  4  2  0  0  0  0
  5  6  1  0  0  0  0
  6  9  1  0  0  0  0
  6  7  2  0  0  0  0
  7  2  1  0  0  0  0
  7 10  1  0  0  0  0
  8  4  1  0  0  0  0
 11 17  1  0  0  0  0
 12 18  1  0  0  0  0
 12 11  2  0  0  0  0
 13 12  1  0  0  0  0
 14 13  2  0  0  0  0
 14 15  1  0  0  0  0
 15 16  2  0  0  0  0
 16 11  1  0  0  0  0
 19 13  1  0  0  0  0
 20  5  1  0  0  0  0
 21 26  1  0  0  0  0
 21 20  1  0  0  0  0
 22 21  2  0  0  0  0
 23 24  2  0  0  0  0
 23 22  1  0  0  0  0
 24 25  1  0  0  0  0
 25 20  2  0  0  0  0
 27 22  1  0  0  0  0
 29 30  1  0  0  0  0
 29 28  2  0  0  0  0
 30 24  1  6  0  0  0
 31 30  1  0  0  0  0
 32 31  1  0  0  0  0
 33 31  1  0  0  0  0
 33 35  1  0  0  0  0
 34 33  1  0  0  0  0
 35 29  1  0  0  0  0
 36 35  1  0  0  0  0
M  END
>  <minimizedAffinity>
-6.46017218

>  <minimizedRMSD>
0.378180623

$$$$
