
 OpenBabel03272510223D

 36 39  0  0  1  0  0  0  0  0999 V2000
   35.3100   31.4130   31.8940 Br  0  0  0  0  0  0  0  0  0  0  0  0
   35.9320   29.6980   32.4590 C   0  0  0  0  0  0  0  0  0  0  0  0
   35.8000   29.2950   33.7770 C   0  0  0  0  0  0  0  0  0  0  0  0
   36.2680   28.0450   34.1260 C   0  0  0  0  0  0  0  0  0  0  0  0
   36.8600   27.1830   33.2110 C   0  0  0  0  0  0  0  0  0  0  0  0
   36.9760   27.6090   31.9190 C   0  0  0  0  0  0  0  0  0  0  0  0
   36.5110   28.8580   31.5580 C   0  0  0  0  0  0  0  0  0  0  0  0
   36.1630   27.7410   35.1420 H   0  0  0  0  0  0  0  0  0  0  0  0
   37.4260   27.0010   31.1400 H   0  0  0  0  0  0  0  0  0  0  0  0
   36.6040   29.1930   30.5350 H   0  0  0  0  0  0  0  0  0  0  0  0
   33.2110   30.8850   35.7960 C   0  0  0  0  0  0  0  0  0  0  0  0
   33.9460   31.7930   36.6160 C   0  0  0  0  0  0  0  0  0  0  0  0
   35.3190   31.8390   36.4550 C   0  0  0  0  0  0  0  0  0  0  0  0
   35.9150   31.0220   35.5280 N   0  0  0  0  0  0  0  0  0  0  0  0
   35.1820   30.1720   34.7690 C   0  0  0  0  0  0  0  0  0  0  0  0
   33.8280   30.1050   34.9040 N   0  0  0  0  0  0  0  0  0  0  0  0
   32.1380   30.8770   35.9510 H   0  0  0  0  0  0  0  0  0  0  0  0
   33.4170   32.4150   37.3330 H   0  0  0  0  0  0  0  0  0  0  0  0
   35.9090   32.5180   37.0620 H   0  0  0  0  0  0  0  0  0  0  0  0
   37.3560   25.8700   33.5600 C   0  0  0  0  0  0  0  0  0  0  0  0
   37.3670   24.7790   32.7290 C   0  0  0  0  0  0  0  0  0  0  0  0
   37.8520   23.5360   33.1040 C   0  0  0  0  0  0  0  0  0  0  0  0
   38.3370   23.3760   34.3370 N   0  0  0  0  0  0  0  0  0  0  0  0
   38.3370   24.4280   35.1700 C   0  0  0  0  0  0  0  0  0  0  0  0
   37.8650   25.6230   34.7920 N   0  0  0  0  0  0  0  0  0  0  0  0
   36.9730   24.9050   31.7200 H   0  0  0  0  0  0  0  0  0  0  0  0
   37.8320   22.7200   32.4020 H   0  0  0  0  0  0  0  0  0  0  0  0
   40.1900   22.0890   35.9530 O   0  0  0  0  0  0  0  0  0  0  0  0
   39.5930   22.9320   36.6930 C   0  0  0  0  0  0  0  0  0  0  0  0
   38.8820   24.2250   36.5380 C   0  0  2  0  0  3  0  0  0  0  0  0
   37.7440   24.1160   37.5340 C   0  0  0  0  0  3  0  0  0  0  0  0
   37.4080   25.0820   37.9150 H   0  0  0  0  0  0  0  0  0  0  0  0
   38.2850   23.2190   38.6420 C   0  0  0  0  0  3  0  0  0  0  0  0
   38.4530   23.8580   39.5240 H   0  0  0  0  0  0  0  0  0  0  0  0
   39.5250   22.6670   38.1090 N   0  0  0  0  0  0  0  0  0  0  0  0
   40.1660   22.1770   38.7910 H   0  0  0  0  0  0  0  0  0  0  0  0
  1  2  1  0  0  0  0
  2  3  1  0  0  0  0
  3  4  2  0  0  0  0
  3 15  1  0  0  0  0
  4  8  1  0  0  0  0
  5 20  1  0  0  0  0
  5  4  1  0  0  0  0
  6  5  2  0  0  0  0
  7  6  1  0  0  0  0
  7  2  2  0  0  0  0
  9  6  1  0  0  0  0
 10  7  1  0  0  0  0
 11 17  1  0  0  0  0
 11 12  1  0  0  0  0
 12 18  1  0  0  0  0
 13 12  2  0  0  0  0
 13 19  1  0  0  0  0
 14 13  1  0  0  0  0
 15 16  1  0  0  0  0
 15 14  2  0  0  0  0
 16 11  2  0  0  0  0
 20 25  1  0  0  0  0
 21 22  1  0  0  0  0
 21 20  2  0  0  0  0
 22 23  2  0  0  0  0
 23 24  1  0  0  0  0
 25 24  2  0  0  0  0
 26 21  1  0  0  0  0
 27 22  1  0  0  0  0
 28 29  2  0  0  0  0
 29 35  1  0  0  0  0
 30 24  1  6  0  0  0
 30 29  1  0  0  0  0
 30 31  1  0  0  0  0
 31 32  1  0  0  0  0
 31 33  1  0  0  0  0
 33 34  1  0  0  0  0
 35 33  1  0  0  0  0
 35 36  1  0  0  0  0
M  END
>  <minimizedAffinity>
-6.77883291

$$$$

 OpenBabel03272510223D

 36 39  0  0  1  0  0  0  0  0999 V2000
   35.2440   31.6870   31.9270 Br  0  0  0  0  0  0  0  0  0  0  0  0
   35.8950   29.9350   32.3200 C   0  0  0  0  0  0  0  0  0  0  0  0
   35.7740   29.4030   33.5930 C   0  0  0  0  0  0  0  0  0  0  0  0
   36.2640   28.1330   33.8170 C   0  0  0  0  0  0  0  0  0  0  0  0
   36.8660   27.3740   32.8210 C   0  0  0  0  0  0  0  0  0  0  0  0
   36.9700   27.9260   31.5760 C   0  0  0  0  0  0  0  0  0  0  0  0
   36.4840   29.1970   31.3400 C   0  0  0  0  0  0  0  0  0  0  0  0
   36.1680   27.7290   34.7990 H   0  0  0  0  0  0  0  0  0  0  0  0
   37.4260   27.4040   30.7410 H   0  0  0  0  0  0  0  0  0  0  0  0
   36.5670   29.6300   30.3550 H   0  0  0  0  0  0  0  0  0  0  0  0
   35.4310   31.7040   36.4020 C   0  0  0  0  0  0  0  0  0  0  0  0
   34.0380   31.6420   36.7080 C   0  0  0  0  0  0  0  0  0  0  0  0
   33.2470   30.8080   35.9400 C   0  0  0  0  0  0  0  0  0  0  0  0
   33.8210   30.0820   34.9270 N   0  0  0  0  0  0  0  0  0  0  0  0
   35.1460   30.1690   34.6670 C   0  0  0  0  0  0  0  0  0  0  0  0
   35.9530   30.9820   35.4060 N   0  0  0  0  0  0  0  0  0  0  0  0
   36.0190   32.3690   37.0250 H   0  0  0  0  0  0  0  0  0  0  0  0
   33.6430   32.2430   37.5240 H   0  0  0  0  0  0  0  0  0  0  0  0
   32.1840   30.7370   36.1450 H   0  0  0  0  0  0  0  0  0  0  0  0
   37.3840   26.0410   33.0390 C   0  0  0  0  0  0  0  0  0  0  0  0
   37.5850   25.0980   32.0640 C   0  0  0  0  0  0  0  0  0  0  0  0
   38.0840   23.8290   32.3160 C   0  0  0  0  0  0  0  0  0  0  0  0
   38.3900   23.4930   33.5700 N   0  0  0  0  0  0  0  0  0  0  0  0
   38.2020   24.3980   34.5440 C   0  0  0  0  0  0  0  0  0  0  0  0
   37.7190   25.6190   34.2830 N   0  0  0  0  0  0  0  0  0  0  0  0
   37.3370   25.3690   31.0360 H   0  0  0  0  0  0  0  0  0  0  0  0
   38.2180   23.1360   31.5030 H   0  0  0  0  0  0  0  0  0  0  0  0
   37.1140   21.8660   35.9300 O   0  0  0  0  0  0  0  0  0  0  0  0
   37.7560   22.8460   36.4230 C   0  0  0  0  0  0  0  0  0  0  0  0
   38.5510   24.0000   35.9330 C   0  0  2  0  0  3  0  0  0  0  0  0
   38.1780   25.1110   36.8950 C   0  0  0  0  0  3  0  0  0  0  0  0
   38.9620   25.8600   37.0160 H   0  0  0  0  0  0  0  0  0  0  0  0
   37.8600   24.3960   38.2050 C   0  0  0  0  0  3  0  0  0  0  0  0
   38.6810   24.6220   38.9050 H   0  0  0  0  0  0  0  0  0  0  0  0
   37.7960   22.9820   37.8570 N   0  0  0  0  0  0  0  0  0  0  0  0
   37.7880   22.2900   38.6560 H   0  0  0  0  0  0  0  0  0  0  0  0
  1  2  1  0  0  0  0
  2  3  1  0  0  0  0
  3  4  2  0  0  0  0
  3 15  1  0  0  0  0
  4  8  1  0  0  0  0
  5 20  1  0  0  0  0
  5  4  1  0  0  0  0
  6  5  2  0  0  0  0
  7  6  1  0  0  0  0
  7  2  2  0  0  0  0
  9  6  1  0  0  0  0
 10  7  1  0  0  0  0
 11 12  1  0  0  0  0
 11 17  1  0  0  0  0
 12 18  1  0  0  0  0
 13 19  1  0  0  0  0
 13 12  2  0  0  0  0
 14 13  1  0  0  0  0
 15 14  2  0  0  0  0
 15 16  1  0  0  0  0
 16 11  2  0  0  0  0
 20 25  1  0  0  0  0
 21 22  1  0  0  0  0
 21 20  2  0  0  0  0
 22 23  2  0  0  0  0
 23 24  1  0  0  0  0
 25 24  2  0  0  0  0
 26 21  1  0  0  0  0
 27 22  1  0  0  0  0
 28 29  2  0  0  0  0
 29 35  1  0  0  0  0
 30 24  1  6  0  0  0
 30 29  1  0  0  0  0
 30 31  1  0  0  0  0
 31 32  1  0  0  0  0
 31 33  1  0  0  0  0
 33 34  1  0  0  0  0
 35 33  1  0  0  0  0
 35 36  1  0  0  0  0
M  END
>  <minimizedAffinity>
-6.41647005

$$$$

 OpenBabel03272510223D

 36 39  0  0  1  0  0  0  0  0999 V2000
   39.9430   24.2720   34.8640 Br  0  0  0  0  0  0  0  0  0  0  0  0
   38.7170   25.7230   34.6670 C   0  0  0  0  0  0  0  0  0  0  0  0
   37.8780   25.7980   33.5680 C   0  0  0  0  0  0  0  0  0  0  0  0
   37.0140   26.8700   33.4810 C   0  0  0  0  0  0  0  0  0  0  0  0
   36.9540   27.8670   34.4470 C   0  0  0  0  0  0  0  0  0  0  0  0
   37.7940   27.7660   35.5180 C   0  0  0  0  0  0  0  0  0  0  0  0
   38.6640   26.6970   35.6170 C   0  0  0  0  0  0  0  0  0  0  0  0
   36.3700   26.9210   32.6320 H   0  0  0  0  0  0  0  0  0  0  0  0
   37.8150   28.4990   36.3180 H   0  0  0  0  0  0  0  0  0  0  0  0
   39.3270   26.6190   36.4650 H   0  0  0  0  0  0  0  0  0  0  0  0
   38.7890   24.0800   30.4820 C   0  0  0  0  0  0  0  0  0  0  0  0
   38.0220   22.8780   30.5370 C   0  0  0  0  0  0  0  0  0  0  0  0
   37.2070   22.6840   31.6380 C   0  0  0  0  0  0  0  0  0  0  0  0
   37.1650   23.6410   32.6200 N   0  0  0  0  0  0  0  0  0  0  0  0
   37.9100   24.7690   32.5310 C   0  0  0  0  0  0  0  0  0  0  0  0
   38.7220   24.9880   31.4600 N   0  0  0  0  0  0  0  0  0  0  0  0
   39.4170   24.1960   29.6050 H   0  0  0  0  0  0  0  0  0  0  0  0
   38.0980   22.1570   29.7270 H   0  0  0  0  0  0  0  0  0  0  0  0
   36.6100   21.7810   31.7120 H   0  0  0  0  0  0  0  0  0  0  0  0
   36.0550   28.9970   34.3700 C   0  0  0  0  0  0  0  0  0  0  0  0
   35.1360   29.2140   33.3740 C   0  0  0  0  0  0  0  0  0  0  0  0
   34.2920   30.3130   33.3380 C   0  0  0  0  0  0  0  0  0  0  0  0
   34.3650   31.2170   34.3170 N   0  0  0  0  0  0  0  0  0  0  0  0
   35.2560   31.0280   35.3030 C   0  0  0  0  0  0  0  0  0  0  0  0
   36.0640   29.9610   35.3220 N   0  0  0  0  0  0  0  0  0  0  0  0
   35.0720   28.4770   32.5720 H   0  0  0  0  0  0  0  0  0  0  0  0
   33.5920   30.4230   32.5270 H   0  0  0  0  0  0  0  0  0  0  0  0
   33.1230   31.3280   37.5110 O   0  0  0  0  0  0  0  0  0  0  0  0
   34.0850   32.1000   37.2040 C   0  0  0  0  0  0  0  0  0  0  0  0
   35.3190   32.0490   36.3810 C   0  0  2  0  0  3  0  0  0  0  0  0
   35.3880   33.4360   35.7730 C   0  0  0  0  0  3  0  0  0  0  0  0
   36.4050   33.7570   35.5420 H   0  0  0  0  0  0  0  0  0  0  0  0
   34.7190   34.3420   36.8020 C   0  0  0  0  0  3  0  0  0  0  0  0
   35.5140   34.9510   37.2630 H   0  0  0  0  0  0  0  0  0  0  0  0
   34.0900   33.4340   37.7520 N   0  0  0  0  0  0  0  0  0  0  0  0
   33.7420   33.8510   38.6590 H   0  0  0  0  0  0  0  0  0  0  0  0
  2  1  1  0  0  0  0
  2  7  1  0  0  0  0
  3  2  2  0  0  0  0
  4  3  1  0  0  0  0
  4  5  2  0  0  0  0
  5  6  1  0  0  0  0
  6  7  2  0  0  0  0
  6  9  1  0  0  0  0
  7 10  1  0  0  0  0
  8  4  1  0  0  0  0
 11 12  2  0  0  0  0
 11 16  1  0  0  0  0
 12 13  1  0  0  0  0
 13 19  1  0  0  0  0
 13 14  2  0  0  0  0
 15 14  1  0  0  0  0
 15  3  1  0  0  0  0
 16 15  2  0  0  0  0
 17 11  1  0  0  0  0
 18 12  1  0  0  0  0
 20  5  1  0  0  0  0
 20 25  1  0  0  0  0
 21 20  2  0  0  0  0
 22 21  1  0  0  0  0
 22 23  2  0  0  0  0
 23 24  1  0  0  0  0
 24 25  2  0  0  0  0
 26 21  1  0  0  0  0
 27 22  1  0  0  0  0
 29 28  2  0  0  0  0
 29 35  1  0  0  0  0
 30 24  1  6  0  0  0
 30 29  1  0  0  0  0
 31 30  1  0  0  0  0
 31 33  1  0  0  0  0
 32 31  1  0  0  0  0
 33 34  1  0  0  0  0
 33 35  1  0  0  0  0
 35 36  1  0  0  0  0
M  END
>  <minimizedAffinity>
-5.94744015

$$$$

 OpenBabel03272510223D

 36 39  0  0  1  0  0  0  0  0999 V2000
   34.9760   32.0150   32.3570 Br  0  0  0  0  0  0  0  0  0  0  0  0
   35.6660   30.3130   32.8820 C   0  0  0  0  0  0  0  0  0  0  0  0
   35.5170   29.8580   34.1810 C   0  0  0  0  0  0  0  0  0  0  0  0
   36.0360   28.6210   34.5020 C   0  0  0  0  0  0  0  0  0  0  0  0
   36.6950   27.8210   33.5770 C   0  0  0  0  0  0  0  0  0  0  0  0
   36.8270   28.2970   32.3040 C   0  0  0  0  0  0  0  0  0  0  0  0
   36.3110   29.5340   31.9710 C   0  0  0  0  0  0  0  0  0  0  0  0
   35.9180   28.2770   35.5040 H   0  0  0  0  0  0  0  0  0  0  0  0
   37.3270   27.7390   31.5190 H   0  0  0  0  0  0  0  0  0  0  0  0
   36.4160   29.9080   30.9640 H   0  0  0  0  0  0  0  0  0  0  0  0
   35.0200   32.2470   36.8930 C   0  0  0  0  0  0  0  0  0  0  0  0
   33.6070   32.2270   37.0930 C   0  0  0  0  0  0  0  0  0  0  0  0
   32.8550   31.3900   36.2880 C   0  0  0  0  0  0  0  0  0  0  0  0
   33.4850   30.6220   35.3420 N   0  0  0  0  0  0  0  0  0  0  0  0
   34.8290   30.6700   35.1840 C   0  0  0  0  0  0  0  0  0  0  0  0
   35.5970   31.4830   35.9610 N   0  0  0  0  0  0  0  0  0  0  0  0
   35.5760   32.9150   37.5420 H   0  0  0  0  0  0  0  0  0  0  0  0
   33.1660   32.8590   37.8590 H   0  0  0  0  0  0  0  0  0  0  0  0
   31.7780   31.3500   36.4130 H   0  0  0  0  0  0  0  0  0  0  0  0
   37.2460   26.5220   33.8970 C   0  0  0  0  0  0  0  0  0  0  0  0
   37.7460   26.1510   35.1190 C   0  0  0  0  0  0  0  0  0  0  0  0
   38.2660   24.8930   35.3840 C   0  0  0  0  0  0  0  0  0  0  0  0
   38.2880   23.9850   34.4080 N   0  0  0  0  0  0  0  0  0  0  0  0
   37.8060   24.3230   33.2010 C   0  0  0  0  0  0  0  0  0  0  0  0
   37.3070   25.5430   32.9630 N   0  0  0  0  0  0  0  0  0  0  0  0
   37.7280   26.8910   35.9210 H   0  0  0  0  0  0  0  0  0  0  0  0
   38.6420   24.6670   36.3670 H   0  0  0  0  0  0  0  0  0  0  0  0
   35.3380   23.4540   31.5680 O   0  0  0  0  0  0  0  0  0  0  0  0
   36.4940   22.9300   31.6280 C   0  0  0  0  0  0  0  0  0  0  0  0
   37.8430   23.2940   32.1300 C   0  0  2  0  0  3  0  0  0  0  0  0
   38.3670   21.9860   32.6910 C   0  0  0  0  0  3  0  0  0  0  0  0
   39.4560   21.9110   32.6670 H   0  0  0  0  0  0  0  0  0  0  0  0
   37.6990   20.9080   31.8440 C   0  0  0  0  0  3  0  0  0  0  0  0
   38.4790   20.4710   31.1990 H   0  0  0  0  0  0  0  0  0  0  0  0
   36.6730   21.6080   31.0820 N   0  0  0  0  0  0  0  0  0  0  0  0
   36.2260   21.0830   30.2810 H   0  0  0  0  0  0  0  0  0  0  0  0
  1  2  1  0  0  0  0
  2  3  1  0  0  0  0
  3  4  2  0  0  0  0
  3 15  1  0  0  0  0
  4  8  1  0  0  0  0
  5 20  1  0  0  0  0
  5  4  1  0  0  0  0
  6  5  2  0  0  0  0
  7  6  1  0  0  0  0
  7  2  2  0  0  0  0
  9  6  1  0  0  0  0
 10  7  1  0  0  0  0
 11 12  1  0  0  0  0
 11 17  1  0  0  0  0
 12 18  1  0  0  0  0
 13 19  1  0  0  0  0
 13 12  2  0  0  0  0
 14 13  1  0  0  0  0
 15 14  2  0  0  0  0
 15 16  1  0  0  0  0
 16 11  2  0  0  0  0
 20 21  1  0  0  0  0
 21 22  2  0  0  0  0
 21 26  1  0  0  0  0
 22 27  1  0  0  0  0
 23 22  1  0  0  0  0
 24 23  2  0  0  0  0
 25 24  1  0  0  0  0
 25 20  2  0  0  0  0
 28 29  2  0  0  0  0
 29 30  1  0  0  0  0
 30 31  1  0  0  0  0
 30 24  1  1  0  0  0
 32 31  1  0  0  0  0
 33 31  1  0  0  0  0
 34 33  1  0  0  0  0
 35 29  1  0  0  0  0
 35 33  1  0  0  0  0
 36 35  1  0  0  0  0
M  END
>  <minimizedAffinity>
-5.94062805

$$$$

 OpenBabel03272510223D

 36 39  0  0  1  0  0  0  0  0999 V2000
   33.7790   31.8590   32.3790 Br  0  0  0  0  0  0  0  0  0  0  0  0
   34.9080   30.3530   32.7050 C   0  0  0  0  0  0  0  0  0  0  0  0
   35.1420   29.9090   33.9960 C   0  0  0  0  0  0  0  0  0  0  0  0
   35.9670   28.8170   34.1690 C   0  0  0  0  0  0  0  0  0  0  0  0
   36.5640   28.1510   33.1050 C   0  0  0  0  0  0  0  0  0  0  0  0
   36.3150   28.6130   31.8450 C   0  0  0  0  0  0  0  0  0  0  0  0
   35.4900   29.7060   31.6590 C   0  0  0  0  0  0  0  0  0  0  0  0
   36.1430   28.4800   35.1650 H   0  0  0  0  0  0  0  0  0  0  0  0
   36.7400   28.1540   30.9580 H   0  0  0  0  0  0  0  0  0  0  0  0
   35.2940   30.0690   30.6620 H   0  0  0  0  0  0  0  0  0  0  0  0
   34.7910   32.1260   36.8700 C   0  0  0  0  0  0  0  0  0  0  0  0
   33.4530   31.8870   37.3080 C   0  0  0  0  0  0  0  0  0  0  0  0
   32.7010   30.9660   36.6020 C   0  0  0  0  0  0  0  0  0  0  0  0
   33.2590   30.3260   35.5240 N   0  0  0  0  0  0  0  0  0  0  0  0
   34.5320   30.5820   35.1410 C   0  0  0  0  0  0  0  0  0  0  0  0
   35.2990   31.4830   35.8150 N   0  0  0  0  0  0  0  0  0  0  0  0
   35.3490   32.8550   37.4480 H   0  0  0  0  0  0  0  0  0  0  0  0
   33.0680   32.4260   38.1690 H   0  0  0  0  0  0  0  0  0  0  0  0
   31.6800   30.7600   36.9070 H   0  0  0  0  0  0  0  0  0  0  0  0
   37.4320   27.0060   33.2700 C   0  0  0  0  0  0  0  0  0  0  0  0
   37.1560   25.7330   32.8380 C   0  0  0  0  0  0  0  0  0  0  0  0
   38.0160   24.6610   33.0170 C   0  0  0  0  0  0  0  0  0  0  0  0
   39.1780   24.8610   33.6400 N   0  0  0  0  0  0  0  0  0  0  0  0
   39.4720   26.0980   34.0730 C   0  0  0  0  0  0  0  0  0  0  0  0
   38.6300   27.1230   33.8920 N   0  0  0  0  0  0  0  0  0  0  0  0
   36.2070   25.5640   32.3270 H   0  0  0  0  0  0  0  0  0  0  0  0
   37.7380   23.6860   32.6530 H   0  0  0  0  0  0  0  0  0  0  0  0
   41.7690   27.8250   32.9530 O   0  0  0  0  0  0  0  0  0  0  0  0
   41.7680   27.0180   33.9340 C   0  0  0  0  0  0  0  0  0  0  0  0
   40.7730   26.2960   34.7650 C   0  0  2  0  0  3  0  0  0  0  0  0
   41.4340   24.9530   35.0110 C   0  0  0  0  0  3  0  0  0  0  0  0
   41.1200   24.4810   35.9420 H   0  0  0  0  0  0  0  0  0  0  0  0
   42.9300   25.2520   34.9940 C   0  0  0  0  0  3  0  0  0  0  0  0
   43.2910   25.1590   36.0320 H   0  0  0  0  0  0  0  0  0  0  0  0
   43.0370   26.6140   34.4860 N   0  0  0  0  0  0  0  0  0  0  0  0
   43.9740   27.0920   34.5850 H   0  0  0  0  0  0  0  0  0  0  0  0
  1  2  1  0  0  0  0
  2  3  1  0  0  0  0
  3  4  2  0  0  0  0
  3 15  1  0  0  0  0
  4  8  1  0  0  0  0
  5 20  1  0  0  0  0
  5  4  1  0  0  0  0
  6  5  2  0  0  0  0
  7  6  1  0  0  0  0
  7  2  2  0  0  0  0
  9  6  1  0  0  0  0
 10  7  1  0  0  0  0
 11 12  1  0  0  0  0
 11 17  1  0  0  0  0
 12 18  1  0  0  0  0
 13 19  1  0  0  0  0
 13 12  2  0  0  0  0
 14 13  1  0  0  0  0
 15 14  2  0  0  0  0
 15 16  1  0  0  0  0
 16 11  2  0  0  0  0
 20 25  1  0  0  0  0
 21 22  1  0  0  0  0
 21 20  2  0  0  0  0
 22 23  2  0  0  0  0
 23 24  1  0  0  0  0
 25 24  2  0  0  0  0
 26 21  1  0  0  0  0
 27 22  1  0  0  0  0
 28 29  2  0  0  0  0
 29 35  1  0  0  0  0
 29 30  1  0  0  0  0
 30 24  1  6  0  0  0
 30 31  1  0  0  0  0
 31 32  1  0  0  0  0
 33 31  1  0  0  0  0
 33 34  1  0  0  0  0
 35 36  1  0  0  0  0
 35 33  1  0  0  0  0
M  END
>  <minimizedAffinity>
-5.91706467

$$$$

 OpenBabel03272510223D

 36 39  0  0  1  0  0  0  0  0999 V2000
   40.1170   24.7830   31.9270 Br  0  0  0  0  0  0  0  0  0  0  0  0
   38.7640   26.0220   32.4560 C   0  0  0  0  0  0  0  0  0  0  0  0
   38.0300   25.8190   33.6120 C   0  0  0  0  0  0  0  0  0  0  0  0
   37.0650   26.7480   33.9440 C   0  0  0  0  0  0  0  0  0  0  0  0
   36.8060   27.8700   33.1670 C   0  0  0  0  0  0  0  0  0  0  0  0
   37.5450   28.0430   32.0320 C   0  0  0  0  0  0  0  0  0  0  0  0
   38.5140   27.1200   31.6900 C   0  0  0  0  0  0  0  0  0  0  0  0
   36.5030   26.5850   34.8350 H   0  0  0  0  0  0  0  0  0  0  0  0
   37.4090   28.8900   31.3670 H   0  0  0  0  0  0  0  0  0  0  0  0
   39.0980   27.2590   30.7930 H   0  0  0  0  0  0  0  0  0  0  0  0
   39.2430   23.8120   36.4060 C   0  0  0  0  0  0  0  0  0  0  0  0
   38.7710   22.5000   36.0970 C   0  0  0  0  0  0  0  0  0  0  0  0
   38.0450   22.3360   34.9320 C   0  0  0  0  0  0  0  0  0  0  0  0
   37.8080   23.4220   34.1280 N   0  0  0  0  0  0  0  0  0  0  0  0
   38.2720   24.6510   34.4570 C   0  0  0  0  0  0  0  0  0  0  0  0
   38.9910   24.8450   35.5980 N   0  0  0  0  0  0  0  0  0  0  0  0
   39.8080   23.9020   37.3270 H   0  0  0  0  0  0  0  0  0  0  0  0
   38.9920   21.6800   36.7750 H   0  0  0  0  0  0  0  0  0  0  0  0
   37.6710   21.3520   34.6660 H   0  0  0  0  0  0  0  0  0  0  0  0
   35.7980   28.8530   33.4990 C   0  0  0  0  0  0  0  0  0  0  0  0
   34.6160   29.0360   32.8280 C   0  0  0  0  0  0  0  0  0  0  0  0
   33.6760   29.9920   33.1800 C   0  0  0  0  0  0  0  0  0  0  0  0
   33.9200   30.7850   34.2250 N   0  0  0  0  0  0  0  0  0  0  0  0
   35.0700   30.6270   34.8980 C   0  0  0  0  0  0  0  0  0  0  0  0
   35.9680   29.6980   34.5450 N   0  0  0  0  0  0  0  0  0  0  0  0
   34.4110   28.3890   31.9730 H   0  0  0  0  0  0  0  0  0  0  0  0
   32.7670   30.0830   32.6100 H   0  0  0  0  0  0  0  0  0  0  0  0
   33.0530   31.0750   37.1880 O   0  0  0  0  0  0  0  0  0  0  0  0
   34.1250   31.7020   36.9200 C   0  0  0  0  0  0  0  0  0  0  0  0
   35.3200   31.5220   36.0580 C   0  0  2  0  0  3  0  0  0  0  0  0
   35.6090   32.9290   35.5700 C   0  0  0  0  0  3  0  0  0  0  0  0
   36.6620   33.0970   35.3370 H   0  0  0  0  0  0  0  0  0  0  0  0
   35.1180   33.8360   36.6930 C   0  0  0  0  0  3  0  0  0  0  0  0
   36.0100   34.2610   37.1800 H   0  0  0  0  0  0  0  0  0  0  0  0
   34.3610   32.9620   37.5800 N   0  0  0  0  0  0  0  0  0  0  0  0
   34.1020   33.3470   38.5300 H   0  0  0  0  0  0  0  0  0  0  0  0
  1  2  1  0  0  0  0
  2  3  1  0  0  0  0
  3  4  2  0  0  0  0
  3 15  1  0  0  0  0
  4  8  1  0  0  0  0
  5 20  1  0  0  0  0
  5  4  1  0  0  0  0
  6  5  2  0  0  0  0
  7  6  1  0  0  0  0
  7  2  2  0  0  0  0
  9  6  1  0  0  0  0
 10  7  1  0  0  0  0
 11 17  1  0  0  0  0
 12 11  1  0  0  0  0
 12 18  1  0  0  0  0
 13 12  2  0  0  0  0
 14 15  2  0  0  0  0
 14 13  1  0  0  0  0
 15 16  1  0  0  0  0
 16 11  2  0  0  0  0
 19 13  1  0  0  0  0
 20 25  1  0  0  0  0
 21 22  1  0  0  0  0
 21 20  2  0  0  0  0
 22 23  2  0  0  0  0
 23 24  1  0  0  0  0
 25 24  2  0  0  0  0
 26 21  1  0  0  0  0
 27 22  1  0  0  0  0
 29 28  2  0  0  0  0
 29 35  1  0  0  0  0
 30 24  1  6  0  0  0
 30 29  1  0  0  0  0
 31 30  1  0  0  0  0
 31 33  1  0  0  0  0
 32 31  1  0  0  0  0
 33 34  1  0  0  0  0
 33 35  1  0  0  0  0
 35 36  1  0  0  0  0
M  END
>  <minimizedAffinity>
-5.89178991

$$$$

 OpenBabel03272510223D

 36 39  0  0  1  0  0  0  0  0999 V2000
   35.1920   32.0910   32.2560 Br  0  0  0  0  0  0  0  0  0  0  0  0
   35.7650   30.3050   32.6140 C   0  0  0  0  0  0  0  0  0  0  0  0
   35.6100   29.7500   33.8730 C   0  0  0  0  0  0  0  0  0  0  0  0
   36.0430   28.4550   34.0720 C   0  0  0  0  0  0  0  0  0  0  0  0
   36.6220   27.6950   33.0650 C   0  0  0  0  0  0  0  0  0  0  0  0
   36.7630   28.2700   31.8340 C   0  0  0  0  0  0  0  0  0  0  0  0
   36.3330   29.5650   31.6230 C   0  0  0  0  0  0  0  0  0  0  0  0
   35.9200   28.0340   35.0440 H   0  0  0  0  0  0  0  0  0  0  0  0
   37.2050   27.7480   30.9910 H   0  0  0  0  0  0  0  0  0  0  0  0
   36.4440   30.0170   30.6490 H   0  0  0  0  0  0  0  0  0  0  0  0
   33.0540   31.0630   36.1200 C   0  0  0  0  0  0  0  0  0  0  0  0
   33.7900   31.9300   36.9830 C   0  0  0  0  0  0  0  0  0  0  0  0
   35.1520   32.0440   36.7710 C   0  0  0  0  0  0  0  0  0  0  0  0
   35.7370   31.3310   35.7560 N   0  0  0  0  0  0  0  0  0  0  0  0
   35.0030   30.5180   34.9590 C   0  0  0  0  0  0  0  0  0  0  0  0
   33.6600   30.3840   35.1420 N   0  0  0  0  0  0  0  0  0  0  0  0
   31.9900   31.0000   36.3170 H   0  0  0  0  0  0  0  0  0  0  0  0
   33.2690   32.4690   37.7700 H   0  0  0  0  0  0  0  0  0  0  0  0
   35.7430   32.6940   37.4090 H   0  0  0  0  0  0  0  0  0  0  0  0
   37.0820   26.3370   33.2570 C   0  0  0  0  0  0  0  0  0  0  0  0
   37.7120   25.8630   34.3800 C   0  0  0  0  0  0  0  0  0  0  0  0
   38.1380   24.5520   34.5230 C   0  0  0  0  0  0  0  0  0  0  0  0
   37.9320   23.6930   33.5240 N   0  0  0  0  0  0  0  0  0  0  0  0
   37.3190   24.1310   32.4130 C   0  0  0  0  0  0  0  0  0  0  0  0
   36.9130   25.4010   32.2910 N   0  0  0  0  0  0  0  0  0  0  0  0
   37.8820   26.5620   35.2000 H   0  0  0  0  0  0  0  0  0  0  0  0
   38.6260   24.2450   35.4320 H   0  0  0  0  0  0  0  0  0  0  0  0
   35.1460   21.9420   32.4640 O   0  0  0  0  0  0  0  0  0  0  0  0
   36.1200   22.0970   31.6620 C   0  0  0  0  0  0  0  0  0  0  0  0
   37.1010   23.1540   31.3140 C   0  0  2  0  0  3  0  0  0  0  0  0
   38.3760   22.3740   31.0590 C   0  0  0  0  0  3  0  0  0  0  0  0
   39.0520   22.8670   30.3580 H   0  0  0  0  0  0  0  0  0  0  0  0
   37.9020   21.0190   30.5440 C   0  0  0  0  0  3  0  0  0  0  0  0
   38.1470   20.9770   29.4700 H   0  0  0  0  0  0  0  0  0  0  0  0
   36.4660   21.0030   30.7900 N   0  0  0  0  0  0  0  0  0  0  0  0
   35.9060   20.2370   30.3230 H   0  0  0  0  0  0  0  0  0  0  0  0
  1  2  1  0  0  0  0
  2  3  1  0  0  0  0
  3  4  2  0  0  0  0
  3 15  1  0  0  0  0
  4  8  1  0  0  0  0
  5 20  1  0  0  0  0
  5  4  1  0  0  0  0
  6  5  2  0  0  0  0
  7  6  1  0  0  0  0
  7  2  2  0  0  0  0
  9  6  1  0  0  0  0
 10  7  1  0  0  0  0
 11 17  1  0  0  0  0
 11 12  1  0  0  0  0
 12 18  1  0  0  0  0
 13 12  2  0  0  0  0
 13 19  1  0  0  0  0
 14 13  1  0  0  0  0
 15 16  1  0  0  0  0
 15 14  2  0  0  0  0
 16 11  2  0  0  0  0
 20 21  1  0  0  0  0
 21 22  2  0  0  0  0
 21 26  1  0  0  0  0
 22 27  1  0  0  0  0
 23 22  1  0  0  0  0
 24 23  2  0  0  0  0
 25 24  1  0  0  0  0
 25 20  2  0  0  0  0
 29 28  2  0  0  0  0
 30 29  1  0  0  0  0
 30 24  1  1  0  0  0
 31 30  1  0  0  0  0
 32 31  1  0  0  0  0
 33 35  1  0  0  0  0
 33 31  1  0  0  0  0
 34 33  1  0  0  0  0
 35 29  1  0  0  0  0
 36 35  1  0  0  0  0
M  END
>  <minimizedAffinity>
-5.89090586

$$$$

 OpenBabel03272510223D

 36 39  0  0  1  0  0  0  0  0999 V2000
   34.8910   32.3150   32.3450 Br  0  0  0  0  0  0  0  0  0  0  0  0
   35.5250   30.5330   32.6110 C   0  0  0  0  0  0  0  0  0  0  0  0
   35.4180   29.9210   33.8490 C   0  0  0  0  0  0  0  0  0  0  0  0
   35.8940   28.6320   33.9810 C   0  0  0  0  0  0  0  0  0  0  0  0
   36.4690   27.9330   32.9280 C   0  0  0  0  0  0  0  0  0  0  0  0
   36.5610   28.5630   31.7200 C   0  0  0  0  0  0  0  0  0  0  0  0
   36.0880   29.8530   31.5750 C   0  0  0  0  0  0  0  0  0  0  0  0
   35.8090   28.1670   34.9370 H   0  0  0  0  0  0  0  0  0  0  0  0
   36.9960   28.0920   30.8440 H   0  0  0  0  0  0  0  0  0  0  0  0
   36.1610   30.3490   30.6190 H   0  0  0  0  0  0  0  0  0  0  0  0
   35.1490   32.0540   36.7950 C   0  0  0  0  0  0  0  0  0  0  0  0
   33.7640   31.9740   37.1330 C   0  0  0  0  0  0  0  0  0  0  0  0
   32.9520   31.1860   36.3370 C   0  0  0  0  0  0  0  0  0  0  0  0
   33.5000   30.5200   35.2690 N   0  0  0  0  0  0  0  0  0  0  0  0
   34.8190   30.6230   34.9820 C   0  0  0  0  0  0  0  0  0  0  0  0
   35.6440   31.3910   35.7470 N   0  0  0  0  0  0  0  0  0  0  0  0
   35.7530   32.6820   37.4410 H   0  0  0  0  0  0  0  0  0  0  0  0
   33.3900   32.5260   37.9910 H   0  0  0  0  0  0  0  0  0  0  0  0
   31.8950   31.1020   36.5640 H   0  0  0  0  0  0  0  0  0  0  0  0
   36.9730   26.5820   33.0500 C   0  0  0  0  0  0  0  0  0  0  0  0
   36.8220   25.5910   32.1130 C   0  0  0  0  0  0  0  0  0  0  0  0
   37.3210   24.3080   32.2710 C   0  0  0  0  0  0  0  0  0  0  0  0
   37.9860   24.0040   33.3870 N   0  0  0  0  0  0  0  0  0  0  0  0
   38.1470   24.9560   34.3190 C   0  0  0  0  0  0  0  0  0  0  0  0
   37.6580   26.1920   34.1520 N   0  0  0  0  0  0  0  0  0  0  0  0
   36.2800   25.8350   31.1980 H   0  0  0  0  0  0  0  0  0  0  0  0
   37.1680   23.5760   31.4950 H   0  0  0  0  0  0  0  0  0  0  0  0
   41.1830   24.4180   34.4020 O   0  0  0  0  0  0  0  0  0  0  0  0
   40.3000   24.2110   35.2920 C   0  0  0  0  0  0  0  0  0  0  0  0
   38.8900   24.5940   35.5540 C   0  0  2  0  0  3  0  0  0  0  0  0
   38.2970   23.3370   36.1620 C   0  0  0  0  0  3  0  0  0  0  0  0
   37.4640   23.5360   36.8370 H   0  0  0  0  0  0  0  0  0  0  0  0
   39.4660   22.6650   36.8750 C   0  0  0  0  0  3  0  0  0  0  0  0
   39.2940   22.7780   37.9570 H   0  0  0  0  0  0  0  0  0  0  0  0
   40.6500   23.3850   36.4200 N   0  0  0  0  0  0  0  0  0  0  0  0
   41.5500   23.2120   36.9470 H   0  0  0  0  0  0  0  0  0  0  0  0
  1  2  1  0  0  0  0
  2  3  1  0  0  0  0
  3  4  2  0  0  0  0
  3 15  1  0  0  0  0
  4  8  1  0  0  0  0
  5 20  1  0  0  0  0
  5  4  1  0  0  0  0
  6  5  2  0  0  0  0
  7  6  1  0  0  0  0
  7  2  2  0  0  0  0
  9  6  1  0  0  0  0
 10  7  1  0  0  0  0
 11 12  1  0  0  0  0
 11 17  1  0  0  0  0
 12 18  1  0  0  0  0
 13 19  1  0  0  0  0
 13 12  2  0  0  0  0
 14 13  1  0  0  0  0
 15 14  2  0  0  0  0
 15 16  1  0  0  0  0
 16 11  2  0  0  0  0
 20 25  1  0  0  0  0
 21 22  1  0  0  0  0
 21 20  2  0  0  0  0
 22 23  2  0  0  0  0
 23 24  1  0  0  0  0
 25 24  2  0  0  0  0
 26 21  1  0  0  0  0
 27 22  1  0  0  0  0
 28 29  2  0  0  0  0
 29 30  1  0  0  0  0
 29 35  1  0  0  0  0
 30 24  1  6  0  0  0
 30 31  1  0  0  0  0
 31 32  1  0  0  0  0
 31 33  1  0  0  0  0
 33 34  1  0  0  0  0
 35 33  1  0  0  0  0
 35 36  1  0  0  0  0
M  END
>  <minimizedAffinity>
-5.87773085

$$$$

 OpenBabel03272510223D

 36 39  0  0  1  0  0  0  0  0999 V2000
   37.1550   30.4180   30.0380 Br  0  0  0  0  0  0  0  0  0  0  0  0
   37.3900   28.7540   30.9450 C   0  0  0  0  0  0  0  0  0  0  0  0
   38.4070   27.8870   30.5830 C   0  0  0  0  0  0  0  0  0  0  0  0
   38.5270   26.6990   31.2740 C   0  0  0  0  0  0  0  0  0  0  0  0
   37.6720   26.3440   32.3100 C   0  0  0  0  0  0  0  0  0  0  0  0
   36.6780   27.2180   32.6430 C   0  0  0  0  0  0  0  0  0  0  0  0
   36.5490   28.4110   31.9590 C   0  0  0  0  0  0  0  0  0  0  0  0
   39.3130   26.0360   30.9910 H   0  0  0  0  0  0  0  0  0  0  0  0
   35.9670   27.0210   33.4390 H   0  0  0  0  0  0  0  0  0  0  0  0
   35.7620   29.1010   32.2240 H   0  0  0  0  0  0  0  0  0  0  0  0
   39.7610   28.1570   27.2070 C   0  0  0  0  0  0  0  0  0  0  0  0
   41.0070   28.8250   27.4060 C   0  0  0  0  0  0  0  0  0  0  0  0
   41.3550   29.1670   28.7000 C   0  0  0  0  0  0  0  0  0  0  0  0
   40.5020   28.8580   29.7300 N   0  0  0  0  0  0  0  0  0  0  0  0
   39.3280   28.2240   29.4990 C   0  0  0  0  0  0  0  0  0  0  0  0
   38.9570   27.8730   28.2360 N   0  0  0  0  0  0  0  0  0  0  0  0
   39.5230   27.9060   26.1790 H   0  0  0  0  0  0  0  0  0  0  0  0
   41.6400   29.0430   26.5490 H   0  0  0  0  0  0  0  0  0  0  0  0
   42.2950   29.6750   28.8880 H   0  0  0  0  0  0  0  0  0  0  0  0
   37.7840   25.1020   33.0440 C   0  0  0  0  0  0  0  0  0  0  0  0
   37.4600   23.8610   32.5580 C   0  0  0  0  0  0  0  0  0  0  0  0
   37.5810   22.6940   33.2970 C   0  0  0  0  0  0  0  0  0  0  0  0
   38.0350   22.7650   34.5480 N   0  0  0  0  0  0  0  0  0  0  0  0
   38.3580   23.9690   35.0490 C   0  0  0  0  0  0  0  0  0  0  0  0
   38.2350   25.0860   34.3220 N   0  0  0  0  0  0  0  0  0  0  0  0
   37.0890   23.7970   31.5340 H   0  0  0  0  0  0  0  0  0  0  0  0
   37.3100   21.7510   32.8530 H   0  0  0  0  0  0  0  0  0  0  0  0
   40.2720   21.8790   36.2680 O   0  0  0  0  0  0  0  0  0  0  0  0
   39.6180   22.8070   36.8380 C   0  0  0  0  0  0  0  0  0  0  0  0
   38.8610   24.0220   36.4460 C   0  0  2  0  0  3  0  0  0  0  0  0
   37.6940   24.0310   37.4140 C   0  0  0  0  0  3  0  0  0  0  0  0
   37.3070   25.0310   37.6160 H   0  0  0  0  0  0  0  0  0  0  0  0
   38.2300   23.3570   38.6720 C   0  0  0  0  0  3  0  0  0  0  0  0
   38.3410   24.1420   39.4380 H   0  0  0  0  0  0  0  0  0  0  0  0
   39.5090   22.7810   38.2750 N   0  0  0  0  0  0  0  0  0  0  0  0
   40.1440   22.4410   39.0490 H   0  0  0  0  0  0  0  0  0  0  0  0
  1  2  1  0  0  0  0
  2  7  1  0  0  0  0
  3  2  2  0  0  0  0
  3  4  1  0  0  0  0
  4  5  2  0  0  0  0
  5  6  1  0  0  0  0
  5 20  1  0  0  0  0
  6  9  1  0  0  0  0
  7 10  1  0  0  0  0
  7  6  2  0  0  0  0
  8  4  1  0  0  0  0
 11 12  2  0  0  0  0
 11 16  1  0  0  0  0
 12 13  1  0  0  0  0
 13 19  1  0  0  0  0
 13 14  2  0  0  0  0
 15 14  1  0  0  0  0
 15  3  1  0  0  0  0
 16 15  2  0  0  0  0
 17 11  1  0  0  0  0
 18 12  1  0  0  0  0
 20 25  1  0  0  0  0
 21 20  2  0  0  0  0
 21 22  1  0  0  0  0
 22 23  2  0  0  0  0
 23 24  1  0  0  0  0
 25 24  2  0  0  0  0
 26 21  1  0  0  0  0
 27 22  1  0  0  0  0
 28 29  2  0  0  0  0
 29 35  1  0  0  0  0
 30 24  1  6  0  0  0
 30 29  1  0  0  0  0
 30 31  1  0  0  0  0
 31 32  1  0  0  0  0
 31 33  1  0  0  0  0
 33 34  1  0  0  0  0
 35 33  1  0  0  0  0
 35 36  1  0  0  0  0
M  END
>  <minimizedAffinity>
-5.81339788

$$$$
