
 OpenBabel03272504323D

 40 43  0  0  1  0  0  0  0  0999 V2000
   35.3910   29.6240   47.7050 C   0  0  0  0  0  0  0  0  0  0  0  0
   35.5970   30.1330   46.4330 C   0  0  0  0  0  0  0  0  0  0  0  0
   34.6000   30.0440   45.4750 C   0  0  0  0  0  0  0  0  0  0  0  0
   33.4330   29.4430   45.8430 N   0  0  0  0  0  0  0  0  0  0  0  0
   33.2590   28.9560   47.0940 C   0  0  0  0  0  0  0  0  0  0  0  0
   34.2240   29.0410   48.0220 N   0  0  0  0  0  0  0  0  0  0  0  0
   36.5530   30.5860   46.2490 H   0  0  0  0  0  0  0  0  0  0  0  0
   34.7690   30.4430   44.4880 H   0  0  0  0  0  0  0  0  0  0  0  0
   36.3760   29.6840   48.7380 N   0  0  0  0  0  0  0  0  0  0  0  0
   36.2870   28.8830   49.9520 C   0  0  0  0  0  0  0  0  0  0  0  0
   36.6130   29.6150   51.2120 C   0  0  0  0  0  0  0  0  0  0  0  0
   37.4960   30.7050   51.1250 N   0  0  0  0  0  0  0  0  0  0  0  0
   37.3860   31.4650   49.8900 C   0  0  0  0  0  0  0  0  0  0  0  0
   37.5520   30.4830   48.7650 C   0  0  0  0  0  0  0  0  0  0  0  0
   36.9760   28.0060   49.8040 H   0  0  0  0  0  0  0  0  0  0  0  0
   35.2610   28.4430   49.9970 H   0  0  0  0  0  0  0  0  0  0  0  0
   35.6440   29.9190   51.6860 H   0  0  0  0  0  0  0  0  0  0  0  0
   37.0480   28.8630   51.9320 H   0  0  0  0  0  0  0  0  0  0  0  0
   38.4840   30.5480   51.4190 H   0  0  0  0  0  0  0  0  0  0  0  0
   36.4330   31.9940   49.8280 H   0  0  0  0  0  0  0  0  0  0  0  0
   38.2750   32.1400   49.8820 H   0  0  0  0  0  0  0  0  0  0  0  0
   38.4430   29.8460   48.9340 H   0  0  0  0  0  0  0  0  0  0  0  0
   37.6720   31.0060   47.8100 H   0  0  0  0  0  0  0  0  0  0  0  0
   31.9810   28.3240   47.4180 C   0  0  0  0  0  0  0  0  0  0  0  0
   31.9380   27.2460   48.2810 C   0  0  0  0  0  0  0  0  0  0  0  0
   30.7650   26.6020   48.6320 C   0  0  0  0  0  0  0  0  0  0  0  0
   29.6410   27.0950   48.0720 N   0  0  0  0  0  0  0  0  0  0  0  0
   29.6890   28.1480   47.2290 C   0  0  0  0  0  0  0  0  0  0  0  0
   30.8330   28.7720   46.8910 N   0  0  0  0  0  0  0  0  0  0  0  0
   32.8650   26.8820   48.7090 H   0  0  0  0  0  0  0  0  0  0  0  0
   30.7970   25.7630   49.3120 H   0  0  0  0  0  0  0  0  0  0  0  0
   27.4150   29.4670   48.7670 O   0  0  0  0  0  0  0  0  0  0  0  0
   27.3780   28.9280   47.6160 C   0  0  0  0  0  0  0  0  0  0  0  0
   28.4370   28.6760   46.6230 C   0  0  2  0  0  3  0  0  0  0  0  0
   27.7770   27.6500   45.7100 C   0  0  0  0  0  3  0  0  0  0  0  0
   27.8180   26.6840   46.2150 H   0  0  0  0  0  0  0  0  0  0  0  0
   26.3470   28.1770   45.6830 C   0  0  0  0  0  3  0  0  0  0  0  0
   26.3370   29.1060   45.0930 H   0  0  0  0  0  0  0  0  0  0  0  0
   26.1390   28.4500   47.1070 N   0  0  0  0  0  0  0  0  0  0  0  0
   25.2090   28.2940   47.5880 H   0  0  0  0  0  0  0  0  0  0  0  0
  1  6  1  0  0  0  0
  1  9  1  0  0  0  0
  2  1  2  0  0  0  0
  3  4  2  0  0  0  0
  3  2  1  0  0  0  0
  4  5  1  0  0  0  0
  5 24  1  0  0  0  0
  5  6  2  0  0  0  0
  7  2  1  0  0  0  0
  8  3  1  0  0  0  0
  9 14  1  0  0  0  0
  9 10  1  0  0  0  0
 10 16  1  0  0  0  0
 10 11  1  0  0  0  0
 11 17  1  0  0  0  0
 11 18  1  0  0  0  0
 12 11  1  0  0  0  0
 12 19  1  0  0  0  0
 13 12  1  0  0  0  0
 14 22  1  0  0  0  0
 14 13  1  0  0  0  0
 15 10  1  0  0  0  0
 20 13  1  0  0  0  0
 21 13  1  0  0  0  0
 23 14  1  0  0  0  0
 24 25  1  0  0  0  0
 25 26  2  0  0  0  0
 25 30  1  0  0  0  0
 26 31  1  0  0  0  0
 27 26  1  0  0  0  0
 28 27  2  0  0  0  0
 29 28  1  0  0  0  0
 29 24  2  0  0  0  0
 33 32  2  0  0  0  0
 34 28  1  1  0  0  0
 34 33  1  0  0  0  0
 35 36  1  0  0  0  0
 35 34  1  0  0  0  0
 37 35  1  0  0  0  0
 37 39  1  0  0  0  0
 38 37  1  0  0  0  0
 39 40  1  0  0  0  0
 39 33  1  0  0  0  0
M  END
>  <minimizedAffinity>
-5.73027277

>  <minimizedRMSD>
0.384699494

$$$$
