
 OpenBabel03272504343D

 40 43  0  0  1  0  0  0  0  0999 V2000
   38.1240   24.7830   34.8000 C   0  0  0  0  0  0  0  0  0  0  0  0
   38.0340   23.9070   33.7300 C   0  0  0  0  0  0  0  0  0  0  0  0
   37.4700   24.3220   32.5350 C   0  0  0  0  0  0  0  0  0  0  0  0
   37.0200   25.6080   32.4690 N   0  0  0  0  0  0  0  0  0  0  0  0
   37.1230   26.4410   33.5300 C   0  0  0  0  0  0  0  0  0  0  0  0
   37.6690   26.0410   34.6900 N   0  0  0  0  0  0  0  0  0  0  0  0
   38.4180   22.9180   33.8900 H   0  0  0  0  0  0  0  0  0  0  0  0
   37.4040   23.6340   31.7070 H   0  0  0  0  0  0  0  0  0  0  0  0
   38.6940   24.4190   36.0600 N   0  0  0  0  0  0  0  0  0  0  0  0
   39.9410   23.6740   36.1680 C   0  0  0  0  0  0  0  0  0  0  0  0
   39.9300   22.5750   37.1790 C   0  0  0  0  0  0  0  0  0  0  0  0
   39.0660   22.7090   38.2800 N   0  0  0  0  0  0  0  0  0  0  0  0
   37.8160   23.3870   37.9780 C   0  0  0  0  0  0  0  0  0  0  0  0
   38.1800   24.7040   37.3540 C   0  0  0  0  0  0  0  0  0  0  0  0
   40.7420   24.4290   36.4000 H   0  0  0  0  0  0  0  0  0  0  0  0
   40.1960   23.2830   35.1520 H   0  0  0  0  0  0  0  0  0  0  0  0
   39.7390   21.6150   36.6320 H   0  0  0  0  0  0  0  0  0  0  0  0
   40.9840   22.4670   37.5660 H   0  0  0  0  0  0  0  0  0  0  0  0
   39.4850   23.0120   39.1850 H   0  0  0  0  0  0  0  0  0  0  0  0
   37.1830   22.7880   37.3190 H   0  0  0  0  0  0  0  0  0  0  0  0
   37.3520   23.6010   38.9710 H   0  0  0  0  0  0  0  0  0  0  0  0
   38.9470   25.2230   37.9640 H   0  0  0  0  0  0  0  0  0  0  0  0
   37.3000   25.3510   37.2750 H   0  0  0  0  0  0  0  0  0  0  0  0
   36.6200   27.8070   33.3890 C   0  0  0  0  0  0  0  0  0  0  0  0
   36.5110   28.3810   32.1360 C   0  0  0  0  0  0  0  0  0  0  0  0
   36.0430   29.6660   31.9290 C   0  0  0  0  0  0  0  0  0  0  0  0
   35.6930   30.3430   33.0430 N   0  0  0  0  0  0  0  0  0  0  0  0
   35.8030   29.7790   34.2630 C   0  0  0  0  0  0  0  0  0  0  0  0
   36.2590   28.5270   34.4600 N   0  0  0  0  0  0  0  0  0  0  0  0
   36.8020   27.8010   31.2680 H   0  0  0  0  0  0  0  0  0  0  0  0
   35.9810   30.0580   30.9250 H   0  0  0  0  0  0  0  0  0  0  0  0
   32.9400   30.3280   35.1430 O   0  0  0  0  0  0  0  0  0  0  0  0
   33.9970   30.9570   35.4660 C   0  0  0  0  0  0  0  0  0  0  0  0
   35.4120   30.5440   35.4770 C   0  0  2  0  0  3  0  0  0  0  0  0
   36.1310   31.8850   35.5550 C   0  0  0  0  0  3  0  0  0  0  0  0
   36.1150   32.3260   34.5570 H   0  0  0  0  0  0  0  0  0  0  0  0
   35.2020   32.6490   36.4900 C   0  0  0  0  0  3  0  0  0  0  0  0
   35.3120   32.2280   37.5000 H   0  0  0  0  0  0  0  0  0  0  0  0
   33.9010   32.3050   35.9100 N   0  0  0  0  0  0  0  0  0  0  0  0
   33.0950   32.9890   35.8690 H   0  0  0  0  0  0  0  0  0  0  0  0
  1  9  1  0  0  0  0
  2  7  1  0  0  0  0
  2  1  2  0  0  0  0
  3  2  1  0  0  0  0
  4  3  2  0  0  0  0
  4  5  1  0  0  0  0
  5  6  2  0  0  0  0
  6  1  1  0  0  0  0
  8  3  1  0  0  0  0
  9 10  1  0  0  0  0
  9 14  1  0  0  0  0
 10 15  1  0  0  0  0
 10 11  1  0  0  0  0
 11 18  1  0  0  0  0
 11 12  1  0  0  0  0
 12 19  1  0  0  0  0
 13 12  1  0  0  0  0
 13 21  1  0  0  0  0
 14 22  1  0  0  0  0
 14 13  1  0  0  0  0
 16 10  1  0  0  0  0
 17 11  1  0  0  0  0
 20 13  1  0  0  0  0
 23 14  1  0  0  0  0
 24  5  1  0  0  0  0
 24 29  1  0  0  0  0
 25 24  2  0  0  0  0
 26 25  1  0  0  0  0
 26 27  2  0  0  0  0
 27 28  1  0  0  0  0
 28 29  2  0  0  0  0
 30 25  1  0  0  0  0
 31 26  1  0  0  0  0
 32 33  2  0  0  0  0
 33 34  1  0  0  0  0
 33 39  1  0  0  0  0
 34 28  1  6  0  0  0
 34 35  1  0  0  0  0
 35 37  1  0  0  0  0
 36 35  1  0  0  0  0
 37 38  1  0  0  0  0
 39 37  1  0  0  0  0
 40 39  1  0  0  0  0
M  END
>  <minimizedAffinity>
-6.08943224

$$$$

 OpenBabel03272504343D

 40 43  0  0  1  0  0  0  0  0999 V2000
   39.0650   25.0740   35.3190 C   0  0  0  0  0  0  0  0  0  0  0  0
   40.3380   25.3660   34.8570 C   0  0  0  0  0  0  0  0  0  0  0  0
   40.5350   26.4070   33.9650 C   0  0  0  0  0  0  0  0  0  0  0  0
   39.4350   27.1130   33.5750 N   0  0  0  0  0  0  0  0  0  0  0  0
   38.2030   26.8050   34.0440 C   0  0  0  0  0  0  0  0  0  0  0  0
   38.0110   25.7960   34.9080 N   0  0  0  0  0  0  0  0  0  0  0  0
   41.1340   24.7480   35.2270 H   0  0  0  0  0  0  0  0  0  0  0  0
   41.5290   26.6280   33.6110 H   0  0  0  0  0  0  0  0  0  0  0  0
   38.7930   24.0140   36.2390 N   0  0  0  0  0  0  0  0  0  0  0  0
   37.7800   24.1230   37.2800 C   0  0  0  0  0  0  0  0  0  0  0  0
   38.1950   23.6040   38.6170 C   0  0  0  0  0  0  0  0  0  0  0  0
   39.1650   22.5870   38.6510 N   0  0  0  0  0  0  0  0  0  0  0  0
   40.1670   22.6830   37.6020 C   0  0  0  0  0  0  0  0  0  0  0  0
   39.4220   22.7410   36.2990 C   0  0  0  0  0  0  0  0  0  0  0  0
   36.8740   23.5760   36.8970 H   0  0  0  0  0  0  0  0  0  0  0  0
   37.4670   25.1940   37.3440 H   0  0  0  0  0  0  0  0  0  0  0  0
   38.5130   24.4830   39.2360 H   0  0  0  0  0  0  0  0  0  0  0  0
   37.2660   23.2260   39.1310 H   0  0  0  0  0  0  0  0  0  0  0  0
   38.8320   21.6110   38.8080 H   0  0  0  0  0  0  0  0  0  0  0  0
   40.8100   23.5550   37.7390 H   0  0  0  0  0  0  0  0  0  0  0  0
   40.7170   21.7120   37.6330 H   0  0  0  0  0  0  0  0  0  0  0  0
   38.6600   21.9360   36.2520 H   0  0  0  0  0  0  0  0  0  0  0  0
   40.1090   22.6210   35.4540 H   0  0  0  0  0  0  0  0  0  0  0  0
   37.0680   27.6040   33.5840 C   0  0  0  0  0  0  0  0  0  0  0  0
   36.5380   27.3980   32.3240 C   0  0  0  0  0  0  0  0  0  0  0  0
   35.4670   28.1160   31.8260 C   0  0  0  0  0  0  0  0  0  0  0  0
   34.9580   29.0510   32.6550 N   0  0  0  0  0  0  0  0  0  0  0  0
   35.4800   29.2500   33.8830 C   0  0  0  0  0  0  0  0  0  0  0  0
   36.5230   28.5470   34.3640 N   0  0  0  0  0  0  0  0  0  0  0  0
   36.9770   26.6360   31.6910 H   0  0  0  0  0  0  0  0  0  0  0  0
   35.0970   27.9070   30.8330 H   0  0  0  0  0  0  0  0  0  0  0  0
   32.7650   29.0720   35.2500 O   0  0  0  0  0  0  0  0  0  0  0  0
   33.4570   30.1100   35.0090 C   0  0  0  0  0  0  0  0  0  0  0  0
   34.9030   30.2860   34.7810 C   0  0  2  0  0  3  0  0  0  0  0  0
   34.9560   31.6720   34.1490 C   0  0  0  0  0  3  0  0  0  0  0  0
   34.6550   31.5700   33.1050 H   0  0  0  0  0  0  0  0  0  0  0  0
   33.8740   32.3870   34.9500 C   0  0  0  0  0  3  0  0  0  0  0  0
   34.2530   32.5440   35.9710 H   0  0  0  0  0  0  0  0  0  0  0  0
   32.8150   31.3760   34.9250 N   0  0  0  0  0  0  0  0  0  0  0  0
   31.7890   31.6260   34.8560 H   0  0  0  0  0  0  0  0  0  0  0  0
  1  9  1  0  0  0  0
  2  7  1  0  0  0  0
  2  1  2  0  0  0  0
  3  2  1  0  0  0  0
  4  3  2  0  0  0  0
  4  5  1  0  0  0  0
  5  6  2  0  0  0  0
  6  1  1  0  0  0  0
  8  3  1  0  0  0  0
  9 14  1  0  0  0  0
  9 10  1  0  0  0  0
 10 16  1  0  0  0  0
 10 11  1  0  0  0  0
 11 12  1  0  0  0  0
 11 18  1  0  0  0  0
 11 17  1  0  0  0  0
 12 19  1  0  0  0  0
 13 21  1  0  0  0  0
 13 20  1  0  0  0  0
 13 12  1  0  0  0  0
 14 13  1  0  0  0  0
 15 10  1  0  0  0  0
 22 14  1  0  0  0  0
 23 14  1  0  0  0  0
 24  5  1  0  0  0  0
 24 29  1  0  0  0  0
 25 24  2  0  0  0  0
 26 25  1  0  0  0  0
 26 27  2  0  0  0  0
 27 28  1  0  0  0  0
 28 29  2  0  0  0  0
 30 25  1  0  0  0  0
 31 26  1  0  0  0  0
 33 32  2  0  0  0  0
 34 28  1  6  0  0  0
 34 33  1  0  0  0  0
 35 34  1  0  0  0  0
 35 37  1  0  0  0  0
 36 35  1  0  0  0  0
 37 38  1  0  0  0  0
 39 37  1  0  0  0  0
 39 33  1  0  0  0  0
 40 39  1  0  0  0  0
M  END
>  <minimizedAffinity>
-6.00961208

$$$$

 OpenBabel03272504343D

 40 43  0  0  1  0  0  0  0  0999 V2000
   37.8160   25.3490   34.1370 C   0  0  0  0  0  0  0  0  0  0  0  0
   38.5620   25.5230   35.2920 C   0  0  0  0  0  0  0  0  0  0  0  0
   38.5230   26.7290   35.9720 C   0  0  0  0  0  0  0  0  0  0  0  0
   37.7310   27.7120   35.4580 N   0  0  0  0  0  0  0  0  0  0  0  0
   37.0120   27.5120   34.3280 C   0  0  0  0  0  0  0  0  0  0  0  0
   37.0490   26.3450   33.6670 N   0  0  0  0  0  0  0  0  0  0  0  0
   39.1530   24.6850   35.6090 H   0  0  0  0  0  0  0  0  0  0  0  0
   39.1070   26.8560   36.8700 H   0  0  0  0  0  0  0  0  0  0  0  0
   37.8110   24.1320   33.3880 N   0  0  0  0  0  0  0  0  0  0  0  0
   37.0630   23.9790   32.1480 C   0  0  0  0  0  0  0  0  0  0  0  0
   36.3160   22.6930   32.0180 C   0  0  0  0  0  0  0  0  0  0  0  0
   36.8190   21.5730   32.7050 N   0  0  0  0  0  0  0  0  0  0  0  0
   37.4460   21.8880   33.9790 C   0  0  0  0  0  0  0  0  0  0  0  0
   38.4960   22.9250   33.6980 C   0  0  0  0  0  0  0  0  0  0  0  0
   37.8070   24.1010   31.3130 H   0  0  0  0  0  0  0  0  0  0  0  0
   36.3740   24.8550   32.0530 H   0  0  0  0  0  0  0  0  0  0  0  0
   35.2500   22.8920   32.3000 H   0  0  0  0  0  0  0  0  0  0  0  0
   36.2690   22.4430   30.9190 H   0  0  0  0  0  0  0  0  0  0  0  0
   37.3540   20.8700   32.1510 H   0  0  0  0  0  0  0  0  0  0  0  0
   36.7150   22.2390   34.7100 H   0  0  0  0  0  0  0  0  0  0  0  0
   37.9710   20.9510   34.2850 H   0  0  0  0  0  0  0  0  0  0  0  0
   39.1280   22.6140   32.8420 H   0  0  0  0  0  0  0  0  0  0  0  0
   39.1390   23.0720   34.5730 H   0  0  0  0  0  0  0  0  0  0  0  0
   36.1820   28.6110   33.8340 C   0  0  0  0  0  0  0  0  0  0  0  0
   35.9010   28.7160   32.4850 C   0  0  0  0  0  0  0  0  0  0  0  0
   35.1240   29.7270   31.9490 C   0  0  0  0  0  0  0  0  0  0  0  0
   34.6470   30.6250   32.8360 N   0  0  0  0  0  0  0  0  0  0  0  0
   34.9260   30.5180   34.1520 C   0  0  0  0  0  0  0  0  0  0  0  0
   35.6830   29.5310   34.6690 N   0  0  0  0  0  0  0  0  0  0  0  0
   36.3040   27.9720   31.8070 H   0  0  0  0  0  0  0  0  0  0  0  0
   34.9400   29.7550   30.8850 H   0  0  0  0  0  0  0  0  0  0  0  0
   36.6070   32.4820   35.7610 O   0  0  0  0  0  0  0  0  0  0  0  0
   35.4250   32.0800   35.9990 C   0  0  0  0  0  0  0  0  0  0  0  0
   34.3890   31.5200   35.1120 C   0  0  2  0  0  3  0  0  0  0  0  0
   33.4280   30.8850   36.1100 C   0  0  0  0  0  3  0  0  0  0  0  0
   33.8680   29.9410   36.4360 H   0  0  0  0  0  0  0  0  0  0  0  0
   33.4750   31.9120   37.2360 C   0  0  0  0  0  3  0  0  0  0  0  0
   32.9480   32.8160   36.8950 H   0  0  0  0  0  0  0  0  0  0  0  0
   34.9180   32.1410   37.3260 N   0  0  0  0  0  0  0  0  0  0  0  0
   35.4130   32.3110   38.2460 H   0  0  0  0  0  0  0  0  0  0  0  0
  1  2  1  0  0  0  0
  2  7  1  0  0  0  0
  2  3  2  0  0  0  0
  3  8  1  0  0  0  0
  4  3  1  0  0  0  0
  5  4  2  0  0  0  0
  6  1  2  0  0  0  0
  6  5  1  0  0  0  0
  9 14  1  0  0  0  0
  9  1  1  0  0  0  0
 10  9  1  0  0  0  0
 11 10  1  0  0  0  0
 11 17  1  0  0  0  0
 11 12  1  0  0  0  0
 12 13  1  0  0  0  0
 13 21  1  0  0  0  0
 13 20  1  0  0  0  0
 14 13  1  0  0  0  0
 14 23  1  0  0  0  0
 15 10  1  0  0  0  0
 16 10  1  0  0  0  0
 18 11  1  0  0  0  0
 19 12  1  0  0  0  0
 22 14  1  0  0  0  0
 24  5  1  0  0  0  0
 24 29  1  0  0  0  0
 25 24  2  0  0  0  0
 26 25  1  0  0  0  0
 26 27  2  0  0  0  0
 27 28  1  0  0  0  0
 28 29  2  0  0  0  0
 30 25  1  0  0  0  0
 31 26  1  0  0  0  0
 32 33  2  0  0  0  0
 33 39  1  0  0  0  0
 34 28  1  6  0  0  0
 34 33  1  0  0  0  0
 34 35  1  0  0  0  0
 35 36  1  0  0  0  0
 35 37  1  0  0  0  0
 37 39  1  0  0  0  0
 38 37  1  0  0  0  0
 39 40  1  0  0  0  0
M  END
>  <minimizedAffinity>
-5.93539143

$$$$

 OpenBabel03272504343D

 40 43  0  0  1  0  0  0  0  0999 V2000
   36.0870   27.1650   31.9060 C   0  0  0  0  0  0  0  0  0  0  0  0
   35.4830   26.1050   31.2480 C   0  0  0  0  0  0  0  0  0  0  0  0
   35.9780   24.8200   31.3960 C   0  0  0  0  0  0  0  0  0  0  0  0
   37.0640   24.6570   32.2040 N   0  0  0  0  0  0  0  0  0  0  0  0
   37.6320   25.7110   32.8340 C   0  0  0  0  0  0  0  0  0  0  0  0
   37.1550   26.9580   32.6920 N   0  0  0  0  0  0  0  0  0  0  0  0
   34.6340   26.3450   30.6370 H   0  0  0  0  0  0  0  0  0  0  0  0
   35.5010   24.0010   30.8810 H   0  0  0  0  0  0  0  0  0  0  0  0
   35.6280   28.5140   31.7970 N   0  0  0  0  0  0  0  0  0  0  0  0
   36.1260   29.4300   30.7790 C   0  0  0  0  0  0  0  0  0  0  0  0
   36.4270   30.8080   31.2680 C   0  0  0  0  0  0  0  0  0  0  0  0
   35.7070   31.2800   32.3800 N   0  0  0  0  0  0  0  0  0  0  0  0
   35.3770   30.2530   33.3550 C   0  0  0  0  0  0  0  0  0  0  0  0
   34.6600   29.1650   32.6090 C   0  0  0  0  0  0  0  0  0  0  0  0
   35.3490   29.4510   29.9650 H   0  0  0  0  0  0  0  0  0  0  0  0
   37.0270   28.9640   30.3090 H   0  0  0  0  0  0  0  0  0  0  0  0
   37.5320   30.8670   31.4510 H   0  0  0  0  0  0  0  0  0  0  0  0
   36.2520   31.5140   30.4060 H   0  0  0  0  0  0  0  0  0  0  0  0
   34.9180   31.9360   32.1970 H   0  0  0  0  0  0  0  0  0  0  0  0
   36.2690   29.8780   33.8600 H   0  0  0  0  0  0  0  0  0  0  0  0
   34.6400   30.7320   34.0450 H   0  0  0  0  0  0  0  0  0  0  0  0
   33.8560   29.5930   31.9770 H   0  0  0  0  0  0  0  0  0  0  0  0
   34.2120   28.4480   33.3060 H   0  0  0  0  0  0  0  0  0  0  0  0
   38.7950   25.4630   33.6860 C   0  0  0  0  0  0  0  0  0  0  0  0
   39.7380   26.4540   33.8810 C   0  0  0  0  0  0  0  0  0  0  0  0
   40.8600   26.2880   34.6730 C   0  0  0  0  0  0  0  0  0  0  0  0
   40.9850   25.0770   35.2560 N   0  0  0  0  0  0  0  0  0  0  0  0
   40.0620   24.1130   35.0610 C   0  0  0  0  0  0  0  0  0  0  0  0
   38.9710   24.2790   34.2890 N   0  0  0  0  0  0  0  0  0  0  0  0
   39.5980   27.4120   33.3950 H   0  0  0  0  0  0  0  0  0  0  0  0
   41.5600   27.1010   34.7870 H   0  0  0  0  0  0  0  0  0  0  0  0
   38.3610   23.0750   37.3640 O   0  0  0  0  0  0  0  0  0  0  0  0
   39.5190   22.6920   37.0070 C   0  0  0  0  0  0  0  0  0  0  0  0
   40.2210   22.7850   35.7140 C   0  0  2  0  0  3  0  0  0  0  0  0
   41.6670   22.5250   36.1200 C   0  0  0  0  0  3  0  0  0  0  0  0
   42.0540   23.4440   36.5630 H   0  0  0  0  0  0  0  0  0  0  0  0
   41.4700   21.4580   37.1890 C   0  0  0  0  0  3  0  0  0  0  0  0
   41.1620   20.5270   36.6900 H   0  0  0  0  0  0  0  0  0  0  0  0
   40.3650   22.0450   37.9500 N   0  0  0  0  0  0  0  0  0  0  0  0
   40.2850   21.9580   39.0010 H   0  0  0  0  0  0  0  0  0  0  0  0
  1  6  1  0  0  0  0
  2  3  1  0  0  0  0
  2  1  2  0  0  0  0
  3  4  2  0  0  0  0
  4  5  1  0  0  0  0
  5 24  1  0  0  0  0
  6  5  2  0  0  0  0
  7  2  1  0  0  0  0
  8  3  1  0  0  0  0
  9  1  1  0  0  0  0
  9 14  1  0  0  0  0
 10 11  1  0  0  0  0
 10  9  1  0  0  0  0
 11 17  1  0  0  0  0
 11 12  1  0  0  0  0
 12 13  1  0  0  0  0
 13 20  1  0  0  0  0
 13 21  1  0  0  0  0
 14 23  1  0  0  0  0
 14 13  1  0  0  0  0
 15 10  1  0  0  0  0
 16 10  1  0  0  0  0
 18 11  1  0  0  0  0
 19 12  1  0  0  0  0
 22 14  1  0  0  0  0
 24 25  2  0  0  0  0
 24 29  1  0  0  0  0
 25 26  1  0  0  0  0
 26 31  1  0  0  0  0
 26 27  2  0  0  0  0
 28 27  1  0  0  0  0
 29 28  2  0  0  0  0
 30 25  1  0  0  0  0
 33 32  2  0  0  0  0
 33 39  1  0  0  0  0
 34 28  1  1  0  0  0
 34 35  1  0  0  0  0
 34 33  1  0  0  0  0
 35 36  1  0  0  0  0
 35 37  1  0  0  0  0
 37 39  1  0  0  0  0
 38 37  1  0  0  0  0
 39 40  1  0  0  0  0
M  END
>  <minimizedAffinity>
-5.76914406

$$$$

 OpenBabel03272504343D

 40 43  0  0  1  0  0  0  0  0999 V2000
   36.3260   28.5700   32.2400 C   0  0  0  0  0  0  0  0  0  0  0  0
   37.0100   28.8010   31.0560 C   0  0  0  0  0  0  0  0  0  0  0  0
   37.9030   27.8610   30.5710 C   0  0  0  0  0  0  0  0  0  0  0  0
   38.0700   26.7220   31.3020 N   0  0  0  0  0  0  0  0  0  0  0  0
   37.3880   26.5220   32.4540 C   0  0  0  0  0  0  0  0  0  0  0  0
   36.5220   27.4330   32.9260 N   0  0  0  0  0  0  0  0  0  0  0  0
   36.8040   29.7310   30.5610 H   0  0  0  0  0  0  0  0  0  0  0  0
   38.4300   28.0490   29.6490 H   0  0  0  0  0  0  0  0  0  0  0  0
   35.3920   29.4970   32.7950 N   0  0  0  0  0  0  0  0  0  0  0  0
   35.3800   29.8440   34.2100 C   0  0  0  0  0  0  0  0  0  0  0  0
   34.0240   29.9030   34.8310 C   0  0  0  0  0  0  0  0  0  0  0  0
   32.9360   30.2170   33.9970 N   0  0  0  0  0  0  0  0  0  0  0  0
   33.0570   29.7070   32.6410 C   0  0  0  0  0  0  0  0  0  0  0  0
   34.3700   30.2080   32.1090 C   0  0  0  0  0  0  0  0  0  0  0  0
   35.9080   30.8340   34.2970 H   0  0  0  0  0  0  0  0  0  0  0  0
   36.0370   29.1160   34.7460 H   0  0  0  0  0  0  0  0  0  0  0  0
   33.8540   28.9310   35.3630 H   0  0  0  0  0  0  0  0  0  0  0  0
   34.0690   30.6670   35.6590 H   0  0  0  0  0  0  0  0  0  0  0  0
   32.5700   31.1930   34.0340 H   0  0  0  0  0  0  0  0  0  0  0  0
   33.0000   28.6170   32.6150 H   0  0  0  0  0  0  0  0  0  0  0  0
   32.2450   30.2130   32.0650 H   0  0  0  0  0  0  0  0  0  0  0  0
   34.4720   31.2970   32.2920 H   0  0  0  0  0  0  0  0  0  0  0  0
   34.4450   30.0270   31.0310 H   0  0  0  0  0  0  0  0  0  0  0  0
   37.6160   25.2770   33.1860 C   0  0  0  0  0  0  0  0  0  0  0  0
   37.3610   24.0600   32.5840 C   0  0  0  0  0  0  0  0  0  0  0  0
   37.5550   22.8460   33.2170 C   0  0  0  0  0  0  0  0  0  0  0  0
   38.0160   22.9170   34.4830 N   0  0  0  0  0  0  0  0  0  0  0  0
   38.2630   24.1080   35.0660 C   0  0  0  0  0  0  0  0  0  0  0  0
   38.0730   25.2890   34.4450 N   0  0  0  0  0  0  0  0  0  0  0  0
   36.9910   24.0480   31.5650 H   0  0  0  0  0  0  0  0  0  0  0  0
   37.3360   21.9270   32.6920 H   0  0  0  0  0  0  0  0  0  0  0  0
   40.8290   22.7980   36.0520 O   0  0  0  0  0  0  0  0  0  0  0  0
   39.8210   23.1640   36.7340 C   0  0  0  0  0  0  0  0  0  0  0  0
   38.7720   24.1640   36.4630 C   0  0  2  0  0  3  0  0  0  0  0  0
   37.6970   23.7750   37.4700 C   0  0  0  0  0  3  0  0  0  0  0  0
   37.1740   22.9030   37.0740 H   0  0  0  0  0  0  0  0  0  0  0  0
   38.5600   23.3820   38.6640 C   0  0  0  0  0  3  0  0  0  0  0  0
   39.0000   24.2990   39.0830 H   0  0  0  0  0  0  0  0  0  0  0  0
   39.5750   22.5620   37.9990 N   0  0  0  0  0  0  0  0  0  0  0  0
   39.9940   21.6990   38.4450 H   0  0  0  0  0  0  0  0  0  0  0  0
  1  9  1  0  0  0  0
  1  6  1  0  0  0  0
  2  1  2  0  0  0  0
  3  2  1  0  0  0  0
  3  4  2  0  0  0  0
  4  5  1  0  0  0  0
  5  6  2  0  0  0  0
  5 24  1  0  0  0  0
  7  2  1  0  0  0  0
  8  3  1  0  0  0  0
  9 10  1  0  0  0  0
 10 15  1  0  0  0  0
 10 16  1  0  0  0  0
 10 11  1  0  0  0  0
 11 17  1  0  0  0  0
 11 18  1  0  0  0  0
 12 19  1  0  0  0  0
 12 11  1  0  0  0  0
 13 12  1  0  0  0  0
 14 22  1  0  0  0  0
 14 13  1  0  0  0  0
 14  9  1  0  0  0  0
 20 13  1  0  0  0  0
 21 13  1  0  0  0  0
 23 14  1  0  0  0  0
 24 29  1  0  0  0  0
 25 24  2  0  0  0  0
 25 26  1  0  0  0  0
 26 27  2  0  0  0  0
 27 28  1  0  0  0  0
 29 28  2  0  0  0  0
 30 25  1  0  0  0  0
 31 26  1  0  0  0  0
 32 33  2  0  0  0  0
 33 39  1  0  0  0  0
 34 28  1  6  0  0  0
 34 33  1  0  0  0  0
 34 35  1  0  0  0  0
 35 37  1  0  0  0  0
 36 35  1  0  0  0  0
 37 38  1  0  0  0  0
 39 40  1  0  0  0  0
 39 37  1  0  0  0  0
M  END
>  <minimizedAffinity>
-5.76555681

$$$$

 OpenBabel03272504343D

 40 43  0  0  1  0  0  0  0  0999 V2000
   35.6380   29.1030   33.9370 C   0  0  0  0  0  0  0  0  0  0  0  0
   35.1130   28.8420   32.6810 C   0  0  0  0  0  0  0  0  0  0  0  0
   35.6420   27.8280   31.9010 C   0  0  0  0  0  0  0  0  0  0  0  0
   36.6810   27.1160   32.4220 N   0  0  0  0  0  0  0  0  0  0  0  0
   37.1730   27.3920   33.6520 C   0  0  0  0  0  0  0  0  0  0  0  0
   36.6620   28.3750   34.4100 N   0  0  0  0  0  0  0  0  0  0  0  0
   34.2950   29.4630   32.3680 H   0  0  0  0  0  0  0  0  0  0  0  0
   35.2270   27.6320   30.9250 H   0  0  0  0  0  0  0  0  0  0  0  0
   35.1390   30.1340   34.7920 N   0  0  0  0  0  0  0  0  0  0  0  0
   33.7150   30.3990   34.9500 C   0  0  0  0  0  0  0  0  0  0  0  0
   33.3410   31.8440   34.9380 C   0  0  0  0  0  0  0  0  0  0  0  0
   34.3040   32.7730   35.3700 N   0  0  0  0  0  0  0  0  0  0  0  0
   35.6730   32.4070   35.0420 C   0  0  0  0  0  0  0  0  0  0  0  0
   35.8950   31.0290   35.5970 C   0  0  0  0  0  0  0  0  0  0  0  0
   33.4070   29.9090   35.9150 H   0  0  0  0  0  0  0  0  0  0  0  0
   33.1720   29.8360   34.1520 H   0  0  0  0  0  0  0  0  0  0  0  0
   32.9790   32.0910   33.9060 H   0  0  0  0  0  0  0  0  0  0  0  0
   32.4240   31.9570   35.5860 H   0  0  0  0  0  0  0  0  0  0  0  0
   34.2050   33.1540   36.3350 H   0  0  0  0  0  0  0  0  0  0  0  0
   35.8510   32.4440   33.9650 H   0  0  0  0  0  0  0  0  0  0  0  0
   36.3120   33.1130   35.6260 H   0  0  0  0  0  0  0  0  0  0  0  0
   35.5550   30.9760   36.6510 H   0  0  0  0  0  0  0  0  0  0  0  0
   36.9570   30.7630   35.5580 H   0  0  0  0  0  0  0  0  0  0  0  0
   38.2880   26.5870   34.1480 C   0  0  0  0  0  0  0  0  0  0  0  0
   39.5620   26.7820   33.6480 C   0  0  0  0  0  0  0  0  0  0  0  0
   40.6620   26.0570   34.0710 C   0  0  0  0  0  0  0  0  0  0  0  0
   40.4160   25.1290   35.0200 N   0  0  0  0  0  0  0  0  0  0  0  0
   39.1710   24.9420   35.5040 C   0  0  0  0  0  0  0  0  0  0  0  0
   38.1030   25.6510   35.0880 N   0  0  0  0  0  0  0  0  0  0  0  0
   39.7150   27.5390   32.8880 H   0  0  0  0  0  0  0  0  0  0  0  0
   41.6320   26.2570   33.6420 H   0  0  0  0  0  0  0  0  0  0  0  0
   38.1300   22.1280   34.9830 O   0  0  0  0  0  0  0  0  0  0  0  0
   38.0980   22.7910   36.0670 C   0  0  0  0  0  0  0  0  0  0  0  0
   38.9230   23.9130   36.5490 C   0  0  2  0  0  3  0  0  0  0  0  0
   38.0750   24.4620   37.6900 C   0  0  0  0  0  3  0  0  0  0  0  0
   37.2700   25.0510   37.2480 H   0  0  0  0  0  0  0  0  0  0  0  0
   37.5270   23.1670   38.2800 C   0  0  0  0  0  3  0  0  0  0  0  0
   38.3530   22.6470   38.7870 H   0  0  0  0  0  0  0  0  0  0  0  0
   37.1290   22.4670   37.0570 N   0  0  0  0  0  0  0  0  0  0  0  0
   36.2670   21.8550   37.0040 H   0  0  0  0  0  0  0  0  0  0  0  0
  1  6  1  0  0  0  0
  1  9  1  0  0  0  0
  2  1  2  0  0  0  0
  3  4  2  0  0  0  0
  3  2  1  0  0  0  0
  4  5  1  0  0  0  0
  5 24  1  0  0  0  0
  5  6  2  0  0  0  0
  7  2  1  0  0  0  0
  8  3  1  0  0  0  0
  9 10  1  0  0  0  0
  9 14  1  0  0  0  0
 10 15  1  0  0  0  0
 11 10  1  0  0  0  0
 11 12  1  0  0  0  0
 11 18  1  0  0  0  0
 12 19  1  0  0  0  0
 13 12  1  0  0  0  0
 13 14  1  0  0  0  0
 13 21  1  0  0  0  0
 14 22  1  0  0  0  0
 16 10  1  0  0  0  0
 17 11  1  0  0  0  0
 20 13  1  0  0  0  0
 23 14  1  0  0  0  0
 24 29  1  0  0  0  0
 25 26  1  0  0  0  0
 25 24  2  0  0  0  0
 26 27  2  0  0  0  0
 27 28  1  0  0  0  0
 29 28  2  0  0  0  0
 30 25  1  0  0  0  0
 31 26  1  0  0  0  0
 32 33  2  0  0  0  0
 33 34  1  0  0  0  0
 33 39  1  0  0  0  0
 34 28  1  6  0  0  0
 34 35  1  0  0  0  0
 35 37  1  0  0  0  0
 36 35  1  0  0  0  0
 37 38  1  0  0  0  0
 39 37  1  0  0  0  0
 40 39  1  0  0  0  0
M  END
>  <minimizedAffinity>
-5.71221542

$$$$

 OpenBabel03272504343D

 40 43  0  0  1  0  0  0  0  0999 V2000
   37.2160   27.5800   31.2770 C   0  0  0  0  0  0  0  0  0  0  0  0
   38.0890   27.5080   30.2030 C   0  0  0  0  0  0  0  0  0  0  0  0
   38.9390   26.4240   30.0670 C   0  0  0  0  0  0  0  0  0  0  0  0
   38.8740   25.4540   31.0220 N   0  0  0  0  0  0  0  0  0  0  0  0
   38.0100   25.5500   32.0600 C   0  0  0  0  0  0  0  0  0  0  0  0
   37.1850   26.6000   32.1940 N   0  0  0  0  0  0  0  0  0  0  0  0
   38.0580   28.3260   29.5090 H   0  0  0  0  0  0  0  0  0  0  0  0
   39.6150   26.3760   29.2280 H   0  0  0  0  0  0  0  0  0  0  0  0
   36.3130   28.6690   31.4770 N   0  0  0  0  0  0  0  0  0  0  0  0
   36.4490   29.9370   30.7730 C   0  0  0  0  0  0  0  0  0  0  0  0
   36.2540   31.1500   31.6210 C   0  0  0  0  0  0  0  0  0  0  0  0
   35.4250   31.0330   32.7510 N   0  0  0  0  0  0  0  0  0  0  0  0
   35.4840   29.7330   33.4000 C   0  0  0  0  0  0  0  0  0  0  0  0
   35.1850   28.7090   32.3420 C   0  0  0  0  0  0  0  0  0  0  0  0
   35.7070   29.9110   29.9280 H   0  0  0  0  0  0  0  0  0  0  0  0
   37.4520   29.9490   30.2790 H   0  0  0  0  0  0  0  0  0  0  0  0
   37.2700   31.5290   31.9070 H   0  0  0  0  0  0  0  0  0  0  0  0
   35.8350   31.9590   30.9560 H   0  0  0  0  0  0  0  0  0  0  0  0
   34.4540   31.4060   32.6740 H   0  0  0  0  0  0  0  0  0  0  0  0
   36.4560   29.5610   33.8670 H   0  0  0  0  0  0  0  0  0  0  0  0
   34.6320   29.7290   34.1230 H   0  0  0  0  0  0  0  0  0  0  0  0
   34.2770   28.9920   31.7740 H   0  0  0  0  0  0  0  0  0  0  0  0
   35.0230   27.7230   32.7920 H   0  0  0  0  0  0  0  0  0  0  0  0
   37.9940   24.4720   33.0480 C   0  0  0  0  0  0  0  0  0  0  0  0
   37.5170   23.2210   32.7040 C   0  0  0  0  0  0  0  0  0  0  0  0
   37.4730   22.1580   33.5880 C   0  0  0  0  0  0  0  0  0  0  0  0
   37.9300   22.4150   34.8310 N   0  0  0  0  0  0  0  0  0  0  0  0
   38.3940   23.6380   35.1610 C   0  0  0  0  0  0  0  0  0  0  0  0
   38.4350   24.6710   34.2980 N   0  0  0  0  0  0  0  0  0  0  0  0
   37.1590   23.0570   31.6940 H   0  0  0  0  0  0  0  0  0  0  0  0
   37.0880   21.2040   33.2580 H   0  0  0  0  0  0  0  0  0  0  0  0
   40.5790   22.0490   36.5660 O   0  0  0  0  0  0  0  0  0  0  0  0
   39.6790   22.7800   37.0870 C   0  0  0  0  0  0  0  0  0  0  0  0
   38.8940   23.9000   36.5380 C   0  0  2  0  0  3  0  0  0  0  0  0
   37.7520   24.0070   37.5410 C   0  0  0  0  0  3  0  0  0  0  0  0
   37.0430   23.2080   37.3200 H   0  0  0  0  0  0  0  0  0  0  0  0
   38.4930   23.7170   38.8410 C   0  0  0  0  0  3  0  0  0  0  0  0
   39.1310   24.5830   39.0700 H   0  0  0  0  0  0  0  0  0  0  0  0
   39.2920   22.5590   38.4380 N   0  0  0  0  0  0  0  0  0  0  0  0
   39.4970   21.7510   39.0900 H   0  0  0  0  0  0  0  0  0  0  0  0
  1  9  1  0  0  0  0
  1  6  1  0  0  0  0
  2  1  2  0  0  0  0
  3  2  1  0  0  0  0
  3  4  2  0  0  0  0
  4  5  1  0  0  0  0
  5  6  2  0  0  0  0
  5 24  1  0  0  0  0
  7  2  1  0  0  0  0
  8  3  1  0  0  0  0
  9 14  1  0  0  0  0
 10  9  1  0  0  0  0
 10 11  1  0  0  0  0
 11 17  1  0  0  0  0
 11 12  1  0  0  0  0
 12 13  1  0  0  0  0
 13 20  1  0  0  0  0
 13 21  1  0  0  0  0
 14 23  1  0  0  0  0
 14 13  1  0  0  0  0
 15 10  1  0  0  0  0
 16 10  1  0  0  0  0
 18 11  1  0  0  0  0
 19 12  1  0  0  0  0
 22 14  1  0  0  0  0
 24 29  1  0  0  0  0
 25 24  2  0  0  0  0
 25 26  1  0  0  0  0
 26 27  2  0  0  0  0
 27 28  1  0  0  0  0
 29 28  2  0  0  0  0
 30 25  1  0  0  0  0
 31 26  1  0  0  0  0
 32 33  2  0  0  0  0
 33 39  1  0  0  0  0
 34 28  1  6  0  0  0
 34 33  1  0  0  0  0
 34 35  1  0  0  0  0
 35 37  1  0  0  0  0
 36 35  1  0  0  0  0
 37 38  1  0  0  0  0
 39 37  1  0  0  0  0
 39 40  1  0  0  0  0
M  END
>  <minimizedAffinity>
-5.6860671

$$$$

 OpenBabel03272504343D

 40 43  0  0  1  0  0  0  0  0999 V2000
   36.3210   23.0940   31.8620 C   0  0  0  0  0  0  0  0  0  0  0  0
   35.5140   23.7880   30.9740 C   0  0  0  0  0  0  0  0  0  0  0  0
   35.4750   25.1720   31.0040 C   0  0  0  0  0  0  0  0  0  0  0  0
   36.2530   25.8000   31.9300 N   0  0  0  0  0  0  0  0  0  0  0  0
   37.0330   25.0960   32.7840 C   0  0  0  0  0  0  0  0  0  0  0  0
   37.0710   23.7540   32.7570 N   0  0  0  0  0  0  0  0  0  0  0  0
   34.9410   23.1960   30.2860 H   0  0  0  0  0  0  0  0  0  0  0  0
   34.8440   25.7050   30.3090 H   0  0  0  0  0  0  0  0  0  0  0  0
   36.4070   21.6680   31.8840 N   0  0  0  0  0  0  0  0  0  0  0  0
   37.1560   20.9140   30.8880 C   0  0  0  0  0  0  0  0  0  0  0  0
   36.4650   19.6950   30.3720 C   0  0  0  0  0  0  0  0  0  0  0  0
   35.5420   19.0590   31.2200 N   0  0  0  0  0  0  0  0  0  0  0  0
   34.7990   19.9670   32.0810 C   0  0  0  0  0  0  0  0  0  0  0  0
   35.8170   20.7810   32.8270 C   0  0  0  0  0  0  0  0  0  0  0  0
   38.1400   20.6490   31.3660 H   0  0  0  0  0  0  0  0  0  0  0  0
   37.4170   21.6110   30.0540 H   0  0  0  0  0  0  0  0  0  0  0  0
   35.9920   19.9640   29.3920 H   0  0  0  0  0  0  0  0  0  0  0  0
   37.2650   18.9490   30.0960 H   0  0  0  0  0  0  0  0  0  0  0  0
   35.8580   18.1970   31.7150 H   0  0  0  0  0  0  0  0  0  0  0  0
   34.1180   20.5970   31.5060 H   0  0  0  0  0  0  0  0  0  0  0  0
   34.2840   19.3100   32.8230 H   0  0  0  0  0  0  0  0  0  0  0  0
   36.5920   20.1230   33.2690 H   0  0  0  0  0  0  0  0  0  0  0  0
   35.3420   21.3520   33.6320 H   0  0  0  0  0  0  0  0  0  0  0  0
   37.8420   25.8350   33.7510 C   0  0  0  0  0  0  0  0  0  0  0  0
   37.2410   26.7080   34.6380 C   0  0  0  0  0  0  0  0  0  0  0  0
   37.9450   27.4380   35.5780 C   0  0  0  0  0  0  0  0  0  0  0  0
   39.2810   27.2470   35.5810 N   0  0  0  0  0  0  0  0  0  0  0  0
   39.8630   26.3940   34.7120 C   0  0  0  0  0  0  0  0  0  0  0  0
   39.1730   25.6850   33.7980 N   0  0  0  0  0  0  0  0  0  0  0  0
   36.1650   26.8310   34.6020 H   0  0  0  0  0  0  0  0  0  0  0  0
   37.4180   28.1040   36.2440 H   0  0  0  0  0  0  0  0  0  0  0  0
   41.8510   27.8550   32.9270 O   0  0  0  0  0  0  0  0  0  0  0  0
   42.0090   26.7550   33.5430 C   0  0  0  0  0  0  0  0  0  0  0  0
   41.3380   26.1990   34.7330 C   0  0  2  0  0  3  0  0  0  0  0  0
   41.7130   24.7240   34.6460 C   0  0  0  0  0  3  0  0  0  0  0  0
   41.0730   24.2660   33.8900 H   0  0  0  0  0  0  0  0  0  0  0  0
   43.1470   24.8280   34.1410 C   0  0  0  0  0  3  0  0  0  0  0  0
   43.7700   25.2150   34.9600 H   0  0  0  0  0  0  0  0  0  0  0  0
   42.9820   25.8270   33.0820 N   0  0  0  0  0  0  0  0  0  0  0  0
   43.5250   25.7910   32.1740 H   0  0  0  0  0  0  0  0  0  0  0  0
  1  9  1  0  0  0  0
  1  6  1  0  0  0  0
  2  3  1  0  0  0  0
  2  1  2  0  0  0  0
  3  4  2  0  0  0  0
  4  5  1  0  0  0  0
  5 24  1  0  0  0  0
  6  5  2  0  0  0  0
  7  2  1  0  0  0  0
  8  3  1  0  0  0  0
  9 14  1  0  0  0  0
 10 15  1  0  0  0  0
 10  9  1  0  0  0  0
 11 10  1  0  0  0  0
 11 12  1  0  0  0  0
 12 19  1  0  0  0  0
 12 13  1  0  0  0  0
 13 21  1  0  0  0  0
 13 14  1  0  0  0  0
 14 22  1  0  0  0  0
 14 23  1  0  0  0  0
 16 10  1  0  0  0  0
 17 11  1  0  0  0  0
 18 11  1  0  0  0  0
 20 13  1  0  0  0  0
 24 29  2  0  0  0  0
 24 25  1  0  0  0  0
 25 26  2  0  0  0  0
 26 27  1  0  0  0  0
 26 31  1  0  0  0  0
 28 27  2  0  0  0  0
 29 28  1  0  0  0  0
 30 25  1  0  0  0  0
 32 33  2  0  0  0  0
 33 34  1  0  0  0  0
 34 28  1  6  0  0  0
 35 34  1  0  0  0  0
 36 35  1  0  0  0  0
 37 35  1  0  0  0  0
 37 38  1  0  0  0  0
 39 33  1  0  0  0  0
 39 37  1  0  0  0  0
 40 39  1  0  0  0  0
M  END
>  <minimizedAffinity>
-5.61182737

$$$$

 OpenBabel03272504343D

 40 43  0  0  1  0  0  0  0  0999 V2000
   37.9990   28.2010   30.8550 C   0  0  0  0  0  0  0  0  0  0  0  0
   36.9750   29.0370   31.2710 C   0  0  0  0  0  0  0  0  0  0  0  0
   36.1670   28.6740   32.3350 C   0  0  0  0  0  0  0  0  0  0  0  0
   36.4270   27.4800   32.9390 N   0  0  0  0  0  0  0  0  0  0  0  0
   37.4350   26.6840   32.5120 C   0  0  0  0  0  0  0  0  0  0  0  0
   38.2190   27.0340   31.4800 N   0  0  0  0  0  0  0  0  0  0  0  0
   36.8570   29.9540   30.7260 H   0  0  0  0  0  0  0  0  0  0  0  0
   35.3720   29.3310   32.6520 H   0  0  0  0  0  0  0  0  0  0  0  0
   38.8680   28.5150   29.7650 N   0  0  0  0  0  0  0  0  0  0  0  0
   38.8530   29.8120   29.1010 C   0  0  0  0  0  0  0  0  0  0  0  0
   38.9220   29.7550   27.6110 C   0  0  0  0  0  0  0  0  0  0  0  0
   39.5640   28.6480   27.0280 N   0  0  0  0  0  0  0  0  0  0  0  0
   39.3940   27.4050   27.7630 C   0  0  0  0  0  0  0  0  0  0  0  0
   39.8470   27.6720   29.1700 C   0  0  0  0  0  0  0  0  0  0  0  0
   39.7180   30.3940   29.5240 H   0  0  0  0  0  0  0  0  0  0  0  0
   37.9400   30.3600   29.4400 H   0  0  0  0  0  0  0  0  0  0  0  0
   37.8770   29.8650   27.2200 H   0  0  0  0  0  0  0  0  0  0  0  0
   39.4460   30.6920   27.2650 H   0  0  0  0  0  0  0  0  0  0  0  0
   40.5380   28.7860   26.6800 H   0  0  0  0  0  0  0  0  0  0  0  0
   38.3600   27.0570   27.7300 H   0  0  0  0  0  0  0  0  0  0  0  0
   40.1220   26.6930   27.3050 H   0  0  0  0  0  0  0  0  0  0  0  0
   40.8350   28.1750   29.1710 H   0  0  0  0  0  0  0  0  0  0  0  0
   39.9290   26.7370   29.7350 H   0  0  0  0  0  0  0  0  0  0  0  0
   37.6570   25.4160   33.2070 C   0  0  0  0  0  0  0  0  0  0  0  0
   37.4070   24.2190   32.5640 C   0  0  0  0  0  0  0  0  0  0  0  0
   37.5950   22.9850   33.1600 C   0  0  0  0  0  0  0  0  0  0  0  0
   38.0460   23.0170   34.4320 N   0  0  0  0  0  0  0  0  0  0  0  0
   38.2880   24.1880   35.0540 C   0  0  0  0  0  0  0  0  0  0  0  0
   38.1030   25.3880   34.4700 N   0  0  0  0  0  0  0  0  0  0  0  0
   37.0470   24.2390   31.5420 H   0  0  0  0  0  0  0  0  0  0  0  0
   37.3820   22.0840   32.6050 H   0  0  0  0  0  0  0  0  0  0  0  0
   40.8340   22.8300   36.0250 O   0  0  0  0  0  0  0  0  0  0  0  0
   39.8230   23.1840   36.7080 C   0  0  0  0  0  0  0  0  0  0  0  0
   38.7840   24.2000   36.4570 C   0  0  2  0  0  3  0  0  0  0  0  0
   37.6970   23.7900   37.4430 C   0  0  0  0  0  3  0  0  0  0  0  0
   37.1710   22.9340   37.0170 H   0  0  0  0  0  0  0  0  0  0  0  0
   38.5450   23.3560   38.6320 C   0  0  0  0  0  3  0  0  0  0  0  0
   38.9880   24.2570   39.0820 H   0  0  0  0  0  0  0  0  0  0  0  0
   39.5600   22.5480   37.9530 N   0  0  0  0  0  0  0  0  0  0  0  0
   39.9690   21.6690   38.3780 H   0  0  0  0  0  0  0  0  0  0  0  0
  1  2  2  0  0  0  0
  1  6  1  0  0  0  0
  2  3  1  0  0  0  0
  3  8  1  0  0  0  0
  3  4  2  0  0  0  0
  5  4  1  0  0  0  0
  5 24  1  0  0  0  0
  6  5  2  0  0  0  0
  7  2  1  0  0  0  0
  9  1  1  0  0  0  0
 10 16  1  0  0  0  0
 10 15  1  0  0  0  0
 10  9  1  0  0  0  0
 11 10  1  0  0  0  0
 12 11  1  0  0  0  0
 12 13  1  0  0  0  0
 13 14  1  0  0  0  0
 14 22  1  0  0  0  0
 14 23  1  0  0  0  0
 14  9  1  0  0  0  0
 17 11  1  0  0  0  0
 18 11  1  0  0  0  0
 19 12  1  0  0  0  0
 20 13  1  0  0  0  0
 21 13  1  0  0  0  0
 24 29  1  0  0  0  0
 25 26  1  0  0  0  0
 25 24  2  0  0  0  0
 26 27  2  0  0  0  0
 27 28  1  0  0  0  0
 29 28  2  0  0  0  0
 30 25  1  0  0  0  0
 31 26  1  0  0  0  0
 32 33  2  0  0  0  0
 33 39  1  0  0  0  0
 34 28  1  6  0  0  0
 34 33  1  0  0  0  0
 34 35  1  0  0  0  0
 35 37  1  0  0  0  0
 36 35  1  0  0  0  0
 37 38  1  0  0  0  0
 39 40  1  0  0  0  0
 39 37  1  0  0  0  0
M  END
>  <minimizedAffinity>
-5.58361864

$$$$
