
 OpenBabel03272506473D

 42 45  0  0  1  0  0  0  0  0999 V2000
   32.2580   28.3130   47.4310 C   0  0  2  0  0  0  0  0  0  0  0  0
   33.4500   28.3880   48.3400 C   0  0  1  0  0  0  0  0  0  0  0  0
   34.0220   27.1530   48.3870 O   0  0  0  0  0  0  0  0  0  0  0  0
   33.4860   26.3570   47.3800 C   0  0  0  0  0  0  0  0  0  0  0  0
   32.8080   27.2810   46.3980 C   0  0  1  0  0  0  0  0  0  0  0  0
   31.3550   27.8900   47.8660 H   0  0  0  0  0  0  0  0  0  0  0  0
   33.1520   28.7540   49.3410 H   0  0  0  0  0  0  0  0  0  0  0  0
   34.2920   25.7670   46.8620 H   0  0  0  0  0  0  0  0  0  0  0  0
   32.8580   25.6260   47.8680 H   0  0  0  0  0  0  0  0  0  0  0  0
   33.5290   27.8060   45.7790 H   0  0  0  0  0  0  0  0  0  0  0  0
   32.0560   29.5480   46.7790 O   0  0  0  0  0  0  0  0  0  0  0  0
   32.4100   29.4700   45.8600 H   0  0  0  0  0  0  0  0  0  0  0  0
   34.6590   29.5430   47.5800 S   0  0  0  0  0  0  0  0  0  0  0  0
   37.2700   29.3070   50.5510 C   0  0  0  0  0  0  0  0  0  0  0  0
   37.7600   30.5960   50.7150 C   0  0  0  0  0  0  0  0  0  0  0  0
   37.2580   31.5920   49.8620 C   0  0  0  0  0  0  0  0  0  0  0  0
   36.3260   31.2490   48.9270 N   0  0  0  0  0  0  0  0  0  0  0  0
   35.8840   29.9740   48.8120 C   0  0  0  0  0  0  0  0  0  0  0  0
   36.3480   28.9860   49.6210 N   0  0  0  0  0  0  0  0  0  0  0  0
   37.6430   28.5240   51.1960 H   0  0  0  0  0  0  0  0  0  0  0  0
   38.4910   30.8740   51.4450 H   0  0  0  0  0  0  0  0  0  0  0  0
   37.5790   32.6240   49.9150 H   0  0  0  0  0  0  0  0  0  0  0  0
   31.7870   26.6080   45.7760 O   0  0  0  0  0  0  0  0  0  0  0  0
   30.2790   27.4310   43.3860 Cl  0  0  0  0  0  0  0  0  0  0  0  0
   29.6800   27.1250   45.0010 C   0  0  0  0  0  0  0  0  0  0  0  0
   30.4890   26.7340   46.0440 C   0  0  0  0  0  0  0  0  0  0  0  0
   29.8930   26.4970   47.2840 C   0  0  0  0  0  0  0  0  0  0  0  0
   28.5350   26.6550   47.4530 C   0  0  0  0  0  0  0  0  0  0  0  0
   27.7150   27.0480   46.4130 C   0  0  0  0  0  0  0  0  0  0  0  0
   28.2960   27.2830   45.1800 C   0  0  0  0  0  0  0  0  0  0  0  0
   30.4410   26.1840   48.1540 H   0  0  0  0  0  0  0  0  0  0  0  0
   28.0220   26.4890   48.3820 H   0  0  0  0  0  0  0  0  0  0  0  0
   26.6340   27.1850   46.5050 H   0  0  0  0  0  0  0  0  0  0  0  0
   26.5510   29.8390   44.7880 O   0  0  0  0  0  0  0  0  0  0  0  0
   26.3570   28.6240   44.4690 C   0  0  0  0  0  0  0  0  0  0  0  0
   27.4310   27.7060   44.0530 C   0  0  2  0  0  3  0  0  0  0  0  0
   26.6820   26.5640   43.4220 C   0  0  0  0  0  3  0  0  0  0  0  0
   26.7210   25.6320   44.0300 H   0  0  0  0  0  0  0  0  0  0  0  0
   25.2210   26.9570   43.3450 C   0  0  0  0  0  3  0  0  0  0  0  0
   24.9460   27.4160   42.3740 H   0  0  0  0  0  0  0  0  0  0  0  0
   25.1110   27.9020   44.4420 N   0  0  0  0  0  0  0  0  0  0  0  0
   24.3350   28.1030   45.1360 H   0  0  0  0  0  0  0  0  0  0  0  0
  1  6  1  1  0  0  0
  1  2  1  0  0  0  0
  2  3  1  0  0  0  0
  2  7  1  1  0  0  0
  4  9  1  0  0  0  0
  4  3  1  0  0  0  0
  5 10  1  6  0  0  0
  5  4  1  0  0  0  0
  5  1  1  0  0  0  0
  8  4  1  0  0  0  0
 11  1  1  0  0  0  0
 12 11  1  0  0  0  0
 13  2  1  0  0  0  0
 13 18  1  0  0  0  0
 14 15  1  0  0  0  0
 14 20  1  0  0  0  0
 15 21  1  0  0  0  0
 16 22  1  0  0  0  0
 16 15  2  0  0  0  0
 17 16  1  0  0  0  0
 18 17  2  0  0  0  0
 18 19  1  0  0  0  0
 19 14  2  0  0  0  0
 23 26  1  0  0  0  0
 23  5  1  0  0  0  0
 24 25  1  0  0  0  0
 25 30  2  0  0  0  0
 25 26  1  0  0  0  0
 26 27  2  0  0  0  0
 27 28  1  0  0  0  0
 27 31  1  0  0  0  0
 28 32  1  0  0  0  0
 29 33  1  0  0  0  0
 29 28  2  0  0  0  0
 30 29  1  0  0  0  0
 35 34  2  0  0  0  0
 36 35  1  0  0  0  0
 36 30  1  1  0  0  0
 37 38  1  0  0  0  0
 37 36  1  0  0  0  0
 39 37  1  0  0  0  0
 39 41  1  0  0  0  0
 40 39  1  0  0  0  0
 41 35  1  0  0  0  0
 41 42  1  0  0  0  0
M  END
>  <minimizedAffinity>
-5.38026714

>  <minimizedRMSD>
1.40128922

$$$$
