
 OpenBabel03272506473D

 42 45  0  0  1  0  0  0  0  0999 V2000
   32.2590   28.3160   47.4280 C   0  0  2  0  0  0  0  0  0  0  0  0
   33.4500   28.3900   48.3390 C   0  0  1  0  0  0  0  0  0  0  0  0
   34.0200   27.1540   48.3880 O   0  0  0  0  0  0  0  0  0  0  0  0
   33.4840   26.3580   47.3810 C   0  0  0  0  0  0  0  0  0  0  0  0
   32.8090   27.2810   46.3970 C   0  0  1  0  0  0  0  0  0  0  0  0
   31.3550   27.8950   47.8620 H   0  0  0  0  0  0  0  0  0  0  0  0
   33.1520   28.7570   49.3390 H   0  0  0  0  0  0  0  0  0  0  0  0
   34.2900   25.7660   46.8640 H   0  0  0  0  0  0  0  0  0  0  0  0
   32.8540   25.6280   47.8690 H   0  0  0  0  0  0  0  0  0  0  0  0
   33.5320   27.8040   45.7780 H   0  0  0  0  0  0  0  0  0  0  0  0
   32.0600   29.5500   46.7740 O   0  0  0  0  0  0  0  0  0  0  0  0
   32.4160   29.4710   45.8560 H   0  0  0  0  0  0  0  0  0  0  0  0
   34.6620   29.5420   47.5790 S   0  0  0  0  0  0  0  0  0  0  0  0
   37.2720   29.3060   50.5500 C   0  0  0  0  0  0  0  0  0  0  0  0
   37.7580   30.5960   50.7180 C   0  0  0  0  0  0  0  0  0  0  0  0
   37.2530   31.5930   49.8670 C   0  0  0  0  0  0  0  0  0  0  0  0
   36.3230   31.2490   48.9320 N   0  0  0  0  0  0  0  0  0  0  0  0
   35.8850   29.9740   48.8130 C   0  0  0  0  0  0  0  0  0  0  0  0
   36.3520   28.9840   49.6190 N   0  0  0  0  0  0  0  0  0  0  0  0
   37.6470   28.5230   51.1940 H   0  0  0  0  0  0  0  0  0  0  0  0
   38.4880   30.8750   51.4490 H   0  0  0  0  0  0  0  0  0  0  0  0
   37.5710   32.6260   49.9230 H   0  0  0  0  0  0  0  0  0  0  0  0
   31.7880   26.6100   45.7740 O   0  0  0  0  0  0  0  0  0  0  0  0
   30.2790   27.4320   43.3850 Cl  0  0  0  0  0  0  0  0  0  0  0  0
   29.6800   27.1260   44.9990 C   0  0  0  0  0  0  0  0  0  0  0  0
   30.4900   26.7350   46.0420 C   0  0  0  0  0  0  0  0  0  0  0  0
   29.8940   26.4990   47.2830 C   0  0  0  0  0  0  0  0  0  0  0  0
   28.5360   26.6560   47.4520 C   0  0  0  0  0  0  0  0  0  0  0  0
   27.7160   27.0490   46.4120 C   0  0  0  0  0  0  0  0  0  0  0  0
   28.2960   27.2840   45.1790 C   0  0  0  0  0  0  0  0  0  0  0  0
   30.4430   26.1860   48.1530 H   0  0  0  0  0  0  0  0  0  0  0  0
   28.0230   26.4910   48.3820 H   0  0  0  0  0  0  0  0  0  0  0  0
   26.6350   27.1860   46.5050 H   0  0  0  0  0  0  0  0  0  0  0  0
   26.5510   29.8390   44.7880 O   0  0  0  0  0  0  0  0  0  0  0  0
   26.3560   28.6230   44.4690 C   0  0  0  0  0  0  0  0  0  0  0  0
   27.4310   27.7060   44.0530 C   0  0  2  0  0  3  0  0  0  0  0  0
   26.6820   26.5640   43.4230 C   0  0  0  0  0  3  0  0  0  0  0  0
   26.7210   25.6330   44.0310 H   0  0  0  0  0  0  0  0  0  0  0  0
   25.2210   26.9570   43.3460 C   0  0  0  0  0  3  0  0  0  0  0  0
   24.9450   27.4160   42.3750 H   0  0  0  0  0  0  0  0  0  0  0  0
   25.1110   27.9020   44.4430 N   0  0  0  0  0  0  0  0  0  0  0  0
   24.3350   28.1030   45.1370 H   0  0  0  0  0  0  0  0  0  0  0  0
  1  6  1  1  0  0  0
  1  2  1  0  0  0  0
  2  3  1  0  0  0  0
  2  7  1  1  0  0  0
  4  9  1  0  0  0  0
  4  3  1  0  0  0  0
  5 10  1  6  0  0  0
  5  4  1  0  0  0  0
  5  1  1  0  0  0  0
  8  4  1  0  0  0  0
 11  1  1  0  0  0  0
 12 11  1  0  0  0  0
 13  2  1  0  0  0  0
 13 18  1  0  0  0  0
 14 15  1  0  0  0  0
 14 20  1  0  0  0  0
 15 21  1  0  0  0  0
 16 22  1  0  0  0  0
 16 15  2  0  0  0  0
 17 16  1  0  0  0  0
 18 17  2  0  0  0  0
 18 19  1  0  0  0  0
 19 14  2  0  0  0  0
 23 26  1  0  0  0  0
 23  5  1  0  0  0  0
 24 25  1  0  0  0  0
 25 30  2  0  0  0  0
 25 26  1  0  0  0  0
 26 27  2  0  0  0  0
 27 28  1  0  0  0  0
 27 31  1  0  0  0  0
 28 32  1  0  0  0  0
 29 33  1  0  0  0  0
 29 28  2  0  0  0  0
 30 29  1  0  0  0  0
 35 34  2  0  0  0  0
 36 35  1  0  0  0  0
 36 30  1  1  0  0  0
 37 38  1  0  0  0  0
 37 36  1  0  0  0  0
 39 37  1  0  0  0  0
 39 41  1  0  0  0  0
 40 39  1  0  0  0  0
 41 35  1  0  0  0  0
 41 42  1  0  0  0  0
M  END
>  <minimizedAffinity>
-5.37923241

>  <minimizedRMSD>
1.22336435

$$$$
