
     RDKit          3D

 36 38  0  0  0  0  0  0  0  0999 V2000
   38.8736   32.3472   47.5390 C   0  0  0  0  0  0  0  0  0  0  0  0
   38.3292   31.1101   47.3251 C   0  0  0  0  0  0  0  0  0  0  0  0
   38.7781   30.4065   46.2373 C   0  0  0  0  0  0  0  0  0  0  0  0
   39.7166   30.8933   45.3984 C   0  0  0  0  0  0  0  0  0  0  0  0
   40.2904   32.1416   45.5828 C   0  0  0  0  0  0  0  0  0  0  0  0
   39.8440   32.8454   46.6676 C   0  0  0  0  0  0  0  0  0  0  0  0
   36.8498   29.3171   50.2379 C   0  0  0  0  0  0  0  0  0  0  0  0
   37.7619   29.8344   49.2980 C   0  0  0  0  0  0  0  0  0  0  0  0
   37.3281   30.6223   48.2404 C   0  0  0  0  0  0  0  0  0  0  0  0
   35.9880   30.8205   48.2269 N   0  0  0  0  0  0  0  0  0  0  0  0
   35.1114   30.3387   49.1080 C   0  0  0  0  0  0  0  0  0  0  0  0
   35.5482   29.5773   50.1263 N   0  0  0  0  0  0  0  0  0  0  0  0
   39.3575   34.2976   48.8449 N   0  0  0  0  0  0  0  0  0  0  0  0
   38.5787   33.2701   48.5978 C   0  0  0  0  0  0  0  0  0  0  0  0
   37.6553   33.5514   49.6234 N   0  0  0  0  0  0  0  0  0  0  0  0
   39.1274   34.9684   49.6132 H   0  0  0  0  0  0  0  0  0  0  0  0
   38.3395   29.4239   46.0755 H   0  0  0  0  0  0  0  0  0  0  0  0
   40.0074   30.2636   44.5663 H   0  0  0  0  0  0  0  0  0  0  0  0
   41.0393   32.4900   44.8838 H   0  0  0  0  0  0  0  0  0  0  0  0
   40.3336   33.8138   46.7525 H   0  0  0  0  0  0  0  0  0  0  0  0
   37.2772   28.7123   51.0304 H   0  0  0  0  0  0  0  0  0  0  0  0
   38.8040   29.6107   49.4097 H   0  0  0  0  0  0  0  0  0  0  0  0
   37.7325   33.0754   50.5550 H   0  0  0  0  0  0  0  0  0  0  0  0
   36.8542   34.1894   49.6278 H   0  0  0  0  0  0  0  0  0  0  0  0
   33.1674   29.7423   50.9643 O   0  0  0  0  0  0  0  0  0  0  0  0
   32.8054   29.7189   49.7410 C   0  0  0  0  0  0  0  0  0  0  0  0
   33.6626   30.6587   48.9395 C   0  0  2  0  0  0  0  0  0  0  0  0
   33.1981   30.3768   47.5301 C   0  0  1  0  0  0  0  0  0  0  0  0
   32.4514   31.1343   47.2252 H   0  0  0  0  0  0  0  0  0  0  0  0
   32.4890   29.0419   47.6167 C   0  0  2  0  0  0  0  0  0  0  0  0
   33.2418   28.2301   47.5655 H   0  0  0  0  0  0  0  0  0  0  0  0
   31.8431   29.0777   48.9100 N   0  0  0  0  0  0  0  0  0  0  0  0
   33.4774   31.7182   49.2472 H   0  0  0  0  0  0  0  0  0  0  0  0
   34.0653   30.3239   46.8380 H   0  0  0  0  0  0  0  0  0  0  0  0
   31.7876   28.8991   46.7832 H   0  0  0  0  0  0  0  0  0  0  0  0
   30.9650   28.8176   49.4420 H   0  0  0  0  0  0  0  0  0  0  0  0
  1 14  1  0
  2  1  2  0
  2  9  1  0
  3  2  1  0
  4  5  1  0
  4  3  2  0
  5  6  2  0
  6  1  1  0
  8  7  2  0
  9  8  1  0
 10  9  2  0
 10 11  1  0
 11 12  2  0
 12  7  1  0
 13 16  1  0
 14 13  2  0
 14 15  1  0
  3 17  1  0
  4 18  1  0
  5 19  1  0
  6 20  1  0
  7 21  1  0
  8 22  1  0
 15 23  1  0
 15 24  1  0
 25 26  2  0
 26 27  1  0
 27 28  1  0
 28 29  1  6
 28 30  1  0
 30 31  1  1
 30 32  1  0
 32 26  1  0
 27 33  1  1
 28 34  1  0
 30 35  1  0
 32 36  1  0
 11 27  1  0
M  ISO  8  17  14  18  14  19  14  20  14  21  14  22  14  29   8  31   8
M  END
>  <DihAtoms>  (1) 
9,10,26,25

>  <DihDeg>  (1) 
57.69162087576942

$$$$
