
 OpenBabel03272510263D

 45 49  0  0  1  0  0  0  0  0999 V2000
   39.3670   33.4530   42.9860 O   0  0  0  0  0  0  0  0  0  0  0  0
   36.1810   30.2020   46.7490 C   0  0  0  0  0  0  0  0  0  0  0  0
   37.0580   30.7780   47.6660 C   0  0  0  0  0  0  0  0  0  0  0  0
   38.0480   31.6660   47.2510 C   0  0  0  0  0  0  0  0  0  0  0  0
   38.1060   31.9390   45.8930 C   0  0  0  0  0  0  0  0  0  0  0  0
   38.9810   32.7670   45.2520 N   0  0  0  0  0  0  0  0  0  0  0  0
   38.6570   32.7110   43.9450 C   0  0  0  0  0  0  0  0  0  0  0  0
   37.6390   31.9000   43.7560 N   0  0  0  0  0  0  0  0  0  0  0  0
   37.2520   31.3880   44.9500 C   0  0  0  0  0  0  0  0  0  0  0  0
   36.2670   30.4970   45.3950 C   0  0  0  0  0  0  0  0  0  0  0  0
   35.3990   29.5090   47.0290 H   0  0  0  0  0  0  0  0  0  0  0  0
   38.7120   32.1000   47.9580 H   0  0  0  0  0  0  0  0  0  0  0  0
   39.7540   33.3340   45.6860 H   0  0  0  0  0  0  0  0  0  0  0  0
   35.6130   30.0800   44.6530 H   0  0  0  0  0  0  0  0  0  0  0  0
   37.5500   30.2540   51.3440 C   0  0  0  0  0  0  0  0  0  0  0  0
   37.8110   30.6750   50.0530 C   0  0  0  0  0  0  0  0  0  0  0  0
   36.8890   30.3930   49.0510 C   0  0  0  0  0  0  0  0  0  0  0  0
   35.7680   29.7090   49.4050 N   0  0  0  0  0  0  0  0  0  0  0  0
   35.5180   29.3000   50.6650 C   0  0  0  0  0  0  0  0  0  0  0  0
   36.4060   29.5750   51.6180 N   0  0  0  0  0  0  0  0  0  0  0  0
   38.3160   30.5120   52.0690 H   0  0  0  0  0  0  0  0  0  0  0  0
   38.7120   31.2250   49.7740 H   0  0  0  0  0  0  0  0  0  0  0  0
   34.6060   28.7580   50.8870 H   0  0  0  0  0  0  0  0  0  0  0  0
   38.8320   31.7990   41.5080 N   0  0  0  0  0  0  0  0  0  0  0  0
   38.9650   33.2440   41.6310 C   0  0  1  0  0  0  0  0  0  0  0  0
   37.6870   33.8820   41.3390 C   0  0  0  0  0  0  0  0  0  0  0  0
   37.3560   33.6330   39.9950 O   0  0  0  0  0  0  0  0  0  0  0  0
   37.3500   32.3210   39.6290 C   0  0  0  0  0  0  0  0  0  0  0  0
   38.5490   31.5460   40.1160 C   0  0  1  0  0  0  0  0  0  0  0  0
   39.7320   31.3810   41.7660 H   0  0  0  0  0  0  0  0  0  0  0  0
   39.7440   33.6820   40.9920 H   0  0  0  0  0  0  0  0  0  0  0  0
   37.8630   35.0010   41.3450 H   0  0  0  0  0  0  0  0  0  0  0  0
   36.7870   33.7260   41.8670 H   0  0  0  0  0  0  0  0  0  0  0  0
   37.2730   32.2590   38.5490 H   0  0  0  0  0  0  0  0  0  0  0  0
   36.4500   31.8300   40.0550 H   0  0  0  0  0  0  0  0  0  0  0  0
   38.2760   30.4690   40.0570 H   0  0  0  0  0  0  0  0  0  0  0  0
   41.6710   30.5410   40.4060 O   0  0  0  0  0  0  0  0  0  0  0  0
   40.6640   30.5480   39.6570 C   0  0  0  0  0  0  0  0  0  0  0  0
   39.7880   31.7200   39.2960 C   0  0  1  0  0  3  0  0  0  0  0  0
   39.5680   31.4090   37.8420 C   0  0  0  0  0  3  0  0  0  0  0  0
   40.5650   31.5390   37.3480 H   0  0  0  0  0  0  0  0  0  0  0  0
   39.3080   29.9320   37.8600 C   0  0  0  0  0  3  0  0  0  0  0  0
   38.2310   29.6920   37.9900 H   0  0  0  0  0  0  0  0  0  0  0  0
   40.1120   29.4290   38.9680 N   0  0  0  0  0  0  0  0  0  0  0  0
   40.2410   28.4210   39.1900 H   0  0  0  0  0  0  0  0  0  0  0  0
  1  7  1  0  0  0  0
  2 11  1  0  0  0  0
  2  3  1  0  0  0  0
  3 17  1  0  0  0  0
  4  3  2  0  0  0  0
  4 12  1  0  0  0  0
  5  4  1  0  0  0  0
  6 13  1  0  0  0  0
  6  5  1  0  0  0  0
  7  6  1  0  0  0  0
  8  7  2  0  0  0  0
  8  9  1  0  0  0  0
  9 10  1  0  0  0  0
  9  5  2  0  0  0  0
 10  2  2  0  0  0  0
 14 10  1  0  0  0  0
 15 20  1  0  0  0  0
 15 21  1  0  0  0  0
 16 15  2  0  0  0  0
 17 18  2  0  0  0  0
 17 16  1  0  0  0  0
 18 19  1  0  0  0  0
 19 23  1  0  0  0  0
 19 20  2  0  0  0  0
 22 16  1  0  0  0  0
 24 25  1  0  0  0  0
 24 30  1  0  0  0  0
 25 31  1  6  0  0  0
 25  1  1  0  0  0  0
 26 32  1  0  0  0  0
 26 25  1  0  0  0  0
 26 33  1  0  0  0  0
 27 26  1  0  0  0  0
 28 27  1  0  0  0  0
 28 35  1  0  0  0  0
 28 29  1  0  0  0  0
 29 36  1  6  0  0  0
 29 24  1  0  0  0  0
 34 28  1  0  0  0  0
 38 37  2  0  0  0  0
 39 40  1  6  0  0  0
 39 38  1  0  0  0  0
 39 29  1  0  0  0  0
 40 42  1  0  0  0  0
 41 40  1  0  0  0  0
 42 43  1  0  0  0  0
 42 44  1  0  0  0  0
 44 45  1  0  0  0  0
 44 38  1  0  0  0  0
M  END
>  <minimizedAffinity>
-5.67855072

>  <minimizedRMSD>
0.90544045

$$$$
