
 OpenBabel03272504263D

 42 45  0  0  1  0  0  0  0  0999 V2000
   35.6290   29.5520   48.4340 C   0  0  0  0  0  0  0  0  0  0  0  0
   35.3560   28.7480   49.4840 C   0  0  0  0  0  0  0  0  0  0  0  0
   34.4640   27.7520   49.3820 C   0  0  0  0  0  0  0  0  0  0  0  0
   33.8290   27.5560   48.1960 N   0  0  0  0  0  0  0  0  0  0  0  0
   34.1060   28.3520   47.1710 C   0  0  0  0  0  0  0  0  0  0  0  0
   34.9970   29.3500   47.2680 N   0  0  0  0  0  0  0  0  0  0  0  0
   35.8730   28.9200   50.4230 H   0  0  0  0  0  0  0  0  0  0  0  0
   34.2590   27.1170   50.2370 H   0  0  0  0  0  0  0  0  0  0  0  0
   32.0170   27.8120   45.9980 C   0  0  0  0  0  0  0  0  0  0  0  0
   33.3930   28.0390   45.9540 C   0  0  0  0  0  0  0  0  0  0  0  0
   34.1530   27.9610   44.8040 C   0  0  0  0  0  0  0  0  0  0  0  0
   33.5330   27.6400   43.6160 C   0  0  0  0  0  0  0  0  0  0  0  0
   32.1810   27.3990   43.5620 C   0  0  0  0  0  0  0  0  0  0  0  0
   31.5170   27.4990   44.7410 C   0  0  0  0  0  0  0  0  0  0  0  0
   35.2180   28.1450   44.8180 H   0  0  0  0  0  0  0  0  0  0  0  0
   34.1500   27.5840   42.7180 H   0  0  0  0  0  0  0  0  0  0  0  0
   31.6850   27.1490   42.6510 H   0  0  0  0  0  0  0  0  0  0  0  0
   30.4350   27.3060   44.6950 H   0  0  0  0  0  0  0  0  0  0  0  0
   31.0640   27.9170   47.3600 S   0  0  0  0  0  0  0  0  0  0  0  0
   30.1510   26.6870   47.0440 O   0  0  0  0  0  0  0  0  0  0  0  0
   30.2360   29.1720   47.2340 O   0  0  0  0  0  0  0  0  0  0  0  0
   30.7790   27.6580   48.9110 C   0  0  0  0  0  0  0  0  0  0  0  0
   30.2850   26.4530   49.4530 F   0  0  0  0  0  0  0  0  0  0  0  0
   29.5280   28.3290   49.3020 F   0  0  0  0  0  0  0  0  0  0  0  0
   31.4090   28.4320   49.9260 F   0  0  0  0  0  0  0  0  0  0  0  0
   37.4600   32.5530   49.4880 C   0  0  0  0  0  0  0  0  0  0  0  0
   38.5100   32.6170   48.5510 C   0  0  0  0  0  0  0  0  0  0  0  0
   38.5580   31.6210   47.5750 C   0  0  0  0  0  0  0  0  0  0  0  0
   37.5940   30.6570   47.5900 N   0  0  0  0  0  0  0  0  0  0  0  0
   36.5930   30.6310   48.5180 C   0  0  0  0  0  0  0  0  0  0  0  0
   36.5360   31.5810   49.4600 N   0  0  0  0  0  0  0  0  0  0  0  0
   37.4310   33.3230   50.2370 H   0  0  0  0  0  0  0  0  0  0  0  0
   39.2310   33.4190   48.6140 H   0  0  0  0  0  0  0  0  0  0  0  0
   38.7460   29.8940   45.1760 O   0  0  0  0  0  0  0  0  0  0  0  0
   39.3330   31.0070   45.3010 C   0  0  0  0  0  0  0  0  0  0  0  0
   39.6390   31.6580   46.5790 C   0  0  1  0  0  3  0  0  0  0  0  0
   39.9230   33.0930   46.1180 C   0  0  0  0  0  3  0  0  0  0  0  0
   38.9450   33.5550   45.9250 H   0  0  0  0  0  0  0  0  0  0  0  0
   40.6320   32.8240   44.7890 C   0  0  0  0  0  3  0  0  0  0  0  0
   41.6580   32.4740   44.9700 H   0  0  0  0  0  0  0  0  0  0  0  0
   39.7850   31.7920   44.1780 N   0  0  0  0  0  0  0  0  0  0  0  0
   39.5080   31.5840   43.1720 H   0  0  0  0  0  0  0  0  0  0  0  0
  1 30  1  0  0  0  0
  1  2  1  0  0  0  0
  2  7  1  0  0  0  0
  3  2  2  0  0  0  0
  3  8  1  0  0  0  0
  4  3  1  0  0  0  0
  5  6  1  0  0  0  0
  5  4  2  0  0  0  0
  6  1  2  0  0  0  0
  9 19  1  0  0  0  0
 10  9  1  0  0  0  0
 10  5  1  0  0  0  0
 11 15  1  0  0  0  0
 11 10  2  0  0  0  0
 12 11  1  0  0  0  0
 13 12  2  0  0  0  0
 13 14  1  0  0  0  0
 14  9  2  0  0  0  0
 16 12  1  0  0  0  0
 17 13  1  0  0  0  0
 18 14  1  0  0  0  0
 19 22  1  0  0  0  0
 20 19  2  0  0  0  0
 21 19  2  0  0  0  0
 22 24  1  0  0  0  0
 22 23  1  0  0  0  0
 22 25  1  0  0  0  0
 26 32  1  0  0  0  0
 27 33  1  0  0  0  0
 27 26  2  0  0  0  0
 28 29  2  0  0  0  0
 28 27  1  0  0  0  0
 29 30  1  0  0  0  0
 30 31  2  0  0  0  0
 31 26  1  0  0  0  0
 34 35  2  0  0  0  0
 35 36  1  0  0  0  0
 36 28  1  1  0  0  0
 37 36  1  0  0  0  0
 38 37  1  0  0  0  0
 39 40  1  0  0  0  0
 39 37  1  0  0  0  0
 41 39  1  0  0  0  0
 41 35  1  0  0  0  0
 42 41  1  0  0  0  0
M  END
>  <minimizedAffinity>
-6.38472223

>  <minimizedRMSD>
0.67142123

$$$$
