
 OpenBabel03272508303D

 32 34  0  0  1  0  0  0  0  0999 V2000
   37.3690   31.1190   45.6030 N   0  0  0  0  0  0  0  0  0  0  0  0
   38.3040   32.1830   45.2600 C   0  0  0  0  0  0  0  0  0  0  0  0
   39.2680   32.4750   46.3500 C   0  0  0  0  0  0  0  0  0  0  0  0
   39.4150   31.3480   47.2040 N   0  0  0  0  0  0  0  0  0  0  0  0
   38.1310   31.2270   47.9240 C   0  0  0  0  0  0  0  0  0  0  0  0
   37.2470   30.5330   46.9300 C   0  0  1  0  0  0  0  0  0  0  0  0
   38.8900   31.9060   44.3420 H   0  0  0  0  0  0  0  0  0  0  0  0
   37.7850   33.1220   44.9930 H   0  0  0  0  0  0  0  0  0  0  0  0
   40.2940   32.6890   45.9290 H   0  0  0  0  0  0  0  0  0  0  0  0
   38.9590   33.3540   46.9360 H   0  0  0  0  0  0  0  0  0  0  0  0
   40.0980   31.5790   47.9680 H   0  0  0  0  0  0  0  0  0  0  0  0
   38.2690   30.5580   48.7850 H   0  0  0  0  0  0  0  0  0  0  0  0
   37.7460   32.2250   48.2200 H   0  0  0  0  0  0  0  0  0  0  0  0
   37.6190   29.4900   46.8330 H   0  0  0  0  0  0  0  0  0  0  0  0
   36.7750   29.3740   43.9740 C   0  0  0  0  0  0  0  0  0  0  0  0
   36.5100   30.6100   44.5900 C   0  0  0  0  0  0  0  0  0  0  0  0
   35.3700   31.3320   44.1940 C   0  0  0  0  0  0  0  0  0  0  0  0
   34.5840   30.7610   43.2140 N   0  0  0  0  0  0  0  0  0  0  0  0
   34.8900   29.5640   42.6580 C   0  0  0  0  0  0  0  0  0  0  0  0
   35.9720   28.8580   43.0190 N   0  0  0  0  0  0  0  0  0  0  0  0
   37.6390   28.7960   44.2540 H   0  0  0  0  0  0  0  0  0  0  0  0
   35.1340   32.2750   44.6340 H   0  0  0  0  0  0  0  0  0  0  0  0
   34.1210   29.3390   41.9220 H   0  0  0  0  0  0  0  0  0  0  0  0
   36.1490   31.3760   49.8230 O   0  0  0  0  0  0  0  0  0  0  0  0
   35.6260   30.8250   48.7930 C   0  0  0  0  0  0  0  0  0  0  0  0
   35.8150   30.4460   47.3760 C   0  0  2  0  0  0  0  0  0  0  0  0
   35.3110   29.0220   47.4230 C   0  0  0  0  0  0  0  0  0  0  0  0
   35.9820   28.4740   48.1140 H   0  0  0  0  0  0  0  0  0  0  0  0
   33.9670   29.2530   48.1280 C   0  0  0  0  0  0  0  0  0  0  0  0
   33.2120   29.6130   47.4180 H   0  0  0  0  0  0  0  0  0  0  0  0
   34.2890   30.3490   49.0570 N   0  0  0  0  0  0  0  0  0  0  0  0
   33.4700   30.5390   49.7030 H   0  0  0  0  0  0  0  0  0  0  0  0
  1  6  1  0  0  0  0
  2  1  1  0  0  0  0
  2  3  1  0  0  0  0
  3 10  1  0  0  0  0
  3  4  1  0  0  0  0
  4  5  1  0  0  0  0
  4 11  1  0  0  0  0
  5 13  1  0  0  0  0
  5 12  1  0  0  0  0
  6 14  1  6  0  0  0
  6 26  1  0  0  0  0
  6  5  1  0  0  0  0
  7  2  1  0  0  0  0
  8  2  1  0  0  0  0
  9  3  1  0  0  0  0
 15 21  1  0  0  0  0
 15 16  1  0  0  0  0
 16  1  1  0  0  0  0
 17 16  2  0  0  0  0
 17 22  1  0  0  0  0
 18 17  1  0  0  0  0
 19 20  1  0  0  0  0
 19 18  2  0  0  0  0
 20 15  2  0  0  0  0
 23 19  1  0  0  0  0
 25 31  1  0  0  0  0
 25 24  2  0  0  0  0
 26 27  1  1  0  0  0
 26 25  1  0  0  0  0
 27 28  1  0  0  0  0
 27 29  1  0  0  0  0
 29 31  1  0  0  0  0
 30 29  1  0  0  0  0
 31 32  1  0  0  0  0
M  END
>  <minimizedAffinity>
-3.73492742

>  <minimizedRMSD>
5.25037527

$$$$
