
     RDKit          3D

 39 42  0  0  0  0  0  0  0  0999 V2000
   37.3169   29.3338   51.0269 Br  0  0  0  0  0  0  0  0  0  0  0  0
   35.9660   29.3289   49.6771 C   0  0  0  0  0  0  0  0  0  0  0  0
   35.9923   30.2523   48.6452 C   0  0  0  0  0  0  0  0  0  0  0  0
   34.9892   30.1998   47.6991 C   0  0  0  0  0  0  0  0  0  0  0  0
   33.9637   29.2633   47.7435 C   0  0  0  0  0  0  0  0  0  0  0  0
   33.9655   28.3670   48.7726 C   0  0  0  0  0  0  0  0  0  0  0  0
   34.9642   28.4092   49.7262 C   0  0  0  0  0  0  0  0  0  0  0  0
   37.9849   33.1968   49.4573 C   0  0  0  0  0  0  0  0  0  0  0  0
   39.0185   33.1747   48.4734 C   0  0  0  0  0  0  0  0  0  0  0  0
   39.0069   32.1445   47.5500 C   0  0  0  0  0  0  0  0  0  0  0  0
   38.0174   31.1966   47.6131 N   0  0  0  0  0  0  0  0  0  0  0  0
   37.0540   31.2533   48.5630 C   0  0  0  0  0  0  0  0  0  0  0  0
   37.0384   32.2554   49.4862 N   0  0  0  0  0  0  0  0  0  0  0  0
   32.9053   29.1953   46.7598 C   0  0  0  0  0  0  0  0  0  0  0  0
   32.2556   28.0507   46.3702 C   0  0  0  0  0  0  0  0  0  0  0  0
   31.2449   28.0303   45.4220 C   0  0  0  0  0  0  0  0  0  0  0  0
   30.8724   29.1755   44.8485 N   0  0  0  0  0  0  0  0  0  0  0  0
   31.4919   30.3088   45.2119 C   0  0  0  0  0  0  0  0  0  0  0  0
   32.4671   30.3120   46.1299 N   0  0  0  0  0  0  0  0  0  0  0  0
   35.0151   30.9132   46.9074 H   0  0  0  0  0  0  0  0  0  0  0  0
   33.2033   27.6021   48.8846 H   0  0  0  0  0  0  0  0  0  0  0  0
   34.9634   27.6989   50.5395 H   0  0  0  0  0  0  0  0  0  0  0  0
   38.0277   34.0194   50.1634 H   0  0  0  0  0  0  0  0  0  0  0  0
   39.7756   33.9549   48.4748 H   0  0  0  0  0  0  0  0  0  0  0  0
   39.7775   32.0973   46.7884 H   0  0  0  0  0  0  0  0  0  0  0  0
   32.5575   27.1116   46.8371 H   0  0  0  0  0  0  0  0  0  0  0  0
   30.7759   27.0955   45.1620 H   0  0  0  0  0  0  0  0  0  0  0  0
   32.8671   33.0332   45.6589 O   0  0  0  0  0  0  0  0  0  0  0  0
   31.7678   32.7674   45.0792 C   0  0  0  0  0  0  0  0  0  0  0  0
   31.0595   31.5718   44.5590 C   0  0  2  0  0  0  0  0  0  0  0  0
   29.6082   31.8541   44.8955 C   0  0  1  0  0  0  0  0  0  0  0  0
   28.9048   31.3735   44.2140 H   0  0  0  0  0  0  0  0  0  0  0  0
   29.4937   33.3749   44.8603 C   0  0  1  0  0  0  0  0  0  0  0  0
   28.9099   33.6356   43.9625 H   0  0  0  0  0  0  0  0  0  0  0  0
   30.8674   33.8555   44.7915 N   0  0  0  0  0  0  0  0  0  0  0  0
   31.2180   31.4862   43.4577 H   0  0  0  0  0  0  0  0  0  0  0  0
   29.3985   31.4808   45.9067 H   0  0  0  0  0  0  0  0  0  0  0  0
   28.9910   33.6968   45.7920 H   0  0  0  0  0  0  0  0  0  0  0  0
   31.0094   34.8759   44.5539 H   0  0  0  0  0  0  0  0  0  0  0  0
  2  7  2  0
  2  1  1  0
  3  2  1  0
  4  5  1  0
  4  3  2  0
  5  6  2  0
  6  7  1  0
  8 13  2  0
  9  8  1  0
 10 11  1  0
 10  9  2  0
 11 12  2  0
 12  3  1  0
 12 13  1  0
 14  5  1  0
 15 14  2  0
 16 15  1  0
 17 18  1  0
 17 16  2  0
 18 19  2  0
 19 14  1  0
  4 20  1  0
  6 21  1  0
  7 22  1  0
  8 23  1  0
  9 24  1  0
 10 25  1  0
 15 26  1  0
 16 27  1  0
 28 29  2  0
 29 30  1  0
 30 31  1  0
 31 32  1  6
 31 33  1  0
 33 34  1  6
 33 35  1  0
 35 29  1  0
 30 36  1  6
 31 37  1  0
 33 38  1  0
 35 39  1  0
 18 30  1  0
M  ISO  8  20  14  21  14  22  14  23  14  24  14  25  14  26  14  27  14
M  ISO  2  32   8  34   8
M  END
>  <DihAtoms>  (1) 
16,17,29,28

>  <DihDeg>  (1) 
57.42071784163163

$$$$
