
 OpenBabel03262522453D

 37 40  0  0  1  0  0  0  0  0999 V2000
   37.6290   29.3380   43.3970 C   0  0  0  0  0  0  0  0  0  0  0  0
   38.4660   30.3540   44.0250 C   0  0  0  0  0  0  0  0  0  0  0  0
   39.6000   30.7810   43.4010 C   0  0  0  0  0  0  0  0  0  0  0  0
   39.8810   30.2040   42.1870 N   0  0  0  0  0  0  0  0  0  0  0  0
   39.1010   29.2710   41.6200 C   0  0  0  0  0  0  0  0  0  0  0  0
   37.9840   28.8420   42.2200 N   0  0  0  0  0  0  0  0  0  0  0  0
   39.4400   28.7110   40.3480 N   0  0  0  0  0  0  0  0  0  0  0  0
   36.7610   29.0560   43.9440 H   0  0  0  0  0  0  0  0  0  0  0  0
   39.1700   29.5160   39.7390 H   0  0  0  0  0  0  0  0  0  0  0  0
   39.8320   27.7330   40.3790 H   0  0  0  0  0  0  0  0  0  0  0  0
   39.3830   33.4270   42.6920 O   0  0  0  0  0  0  0  0  0  0  0  0
   39.8530   33.1280   43.8430 C   0  0  0  0  0  0  0  0  0  0  0  0
   40.5310   31.7770   43.9250 C   0  0  1  0  0  0  0  0  0  0  0  0
   40.8040   31.6950   45.3950 C   0  0  0  0  0  0  0  0  0  0  0  0
   41.8400   32.0630   45.5720 H   0  0  0  0  0  0  0  0  0  0  0  0
   39.8640   32.6850   46.0600 C   0  0  0  0  0  0  0  0  0  0  0  0
   38.8690   32.2420   46.1760 H   0  0  0  0  0  0  0  0  0  0  0  0
   39.8940   33.7780   45.1070 N   0  0  0  0  0  0  0  0  0  0  0  0
   39.9350   34.8090   45.1100 H   0  0  0  0  0  0  0  0  0  0  0  0
   38.0370   31.0120   45.3150 C   0  0  1  0  0  0  0  0  0  0  0  0
   36.8060   31.7340   45.4070 C   0  0  0  0  0  0  0  0  0  0  0  0
   36.8090   30.3380   46.0040 C   0  0  2  0  0  0  0  0  0  0  0  0
   38.8620   31.0300   46.0710 H   0  0  0  0  0  0  0  0  0  0  0  0
   36.0940   31.8910   44.5780 H   0  0  0  0  0  0  0  0  0  0  0  0
   36.7070   32.5710   46.1560 H   0  0  0  0  0  0  0  0  0  0  0  0
   36.0240   29.7770   45.4960 H   0  0  0  0  0  0  0  0  0  0  0  0
   34.1310   30.1620   47.5450 Cl  0  0  0  0  0  0  0  0  0  0  0  0
   35.6860   30.2290   48.3230 C   0  0  0  0  0  0  0  0  0  0  0  0
   36.7560   30.3610   47.4680 C   0  0  0  0  0  0  0  0  0  0  0  0
   38.0080   30.4360   48.0660 C   0  0  0  0  0  0  0  0  0  0  0  0
   38.1580   30.3810   49.4490 C   0  0  0  0  0  0  0  0  0  0  0  0
   37.0270   30.2470   50.2830 C   0  0  0  0  0  0  0  0  0  0  0  0
   37.1020   30.1890   52.0310 Cl  0  0  0  0  0  0  0  0  0  0  0  0
   35.7700   30.1710   49.6720 C   0  0  0  0  0  0  0  0  0  0  0  0
   39.0150   30.5350   47.7040 H   0  0  0  0  0  0  0  0  0  0  0  0
   39.0510   30.4260   50.0450 H   0  0  0  0  0  0  0  0  0  0  0  0
   34.8580   30.0670   50.2420 H   0  0  0  0  0  0  0  0  0  0  0  0
  1  8  1  0  0  0  0
  1  2  1  0  0  0  0
  2 20  1  0  0  0  0
  3  2  2  0  0  0  0
  4  3  1  0  0  0  0
  5  4  2  0  0  0  0
  5  6  1  0  0  0  0
  6  1  2  0  0  0  0
  7 10  1  0  0  0  0
  7  5  1  0  0  0  0
  9  7  1  0  0  0  0
 11 12  2  0  0  0  0
 12 13  1  0  0  0  0
 12 18  1  0  0  0  0
 13  3  1  1  0  0  0
 13 14  1  0  0  0  0
 14 15  1  0  0  0  0
 14 16  1  0  0  0  0
 16 17  1  0  0  0  0
 18 19  1  0  0  0  0
 18 16  1  0  0  0  0
 20 21  1  0  0  0  0
 20 22  1  0  0  0  0
 20 23  1  1  0  0  0
 21 22  1  0  0  0  0
 21 25  1  0  0  0  0
 22 26  1  6  0  0  0
 22 29  1  0  0  0  0
 24 21  1  0  0  0  0
 27 28  1  0  0  0  0
 28 34  1  0  0  0  0
 29 30  1  0  0  0  0
 29 28  2  0  0  0  0
 30 31  2  0  0  0  0
 31 36  1  0  0  0  0
 31 32  1  0  0  0  0
 32 33  1  0  0  0  0
 34 37  1  0  0  0  0
 34 32  2  0  0  0  0
 35 30  1  0  0  0  0
M  END
>  <minimizedAffinity>
-6.04365253

>  <minimizedRMSD>
1.8618089

$$$$
