REMARK  Name = 
REMARK  4 active torsions:
REMARK  status: ('A' for Active; 'I' for Inactive)
REMARK    1  A    between atoms: C_2  and  S_8
REMARK    2  A    between atoms: C_6  and  O_7
REMARK    3  A    between atoms: S_8  and  C_9
REMARK    4  A    between atoms: C_13  and  C_27
REMARK                            x       y       z     vdW  Elec       q    Type
REMARK                         _______ _______ _______ _____ _____    ______ ____
ROOT
ATOM      1  C   UNL     1      37.285  30.736  48.810  0.00  0.00    +0.000 A 
ATOM      2  C   UNL     1      37.222  31.870  49.655  0.00  0.00    +0.000 A 
ATOM      3  C   UNL     1      38.043  32.950  49.367  0.00  0.00    +0.000 A 
ATOM      4  N   UNL     1      38.873  32.862  48.279  0.00  0.00    +0.000 NA
ATOM      5  C   UNL     1      38.908  31.772  47.498  0.00  0.00    +0.000 A 
ATOM      6  N   UNL     1      38.118  30.714  47.763  0.00  0.00    +0.000 NA
ATOM      7  H   UNL     1      36.608  32.009  50.510  0.00  0.00    +0.000 HD
ATOM      8  H   UNL     1      38.051  33.852  49.966  0.00  0.00    +0.000 HD
ENDROOT
BRANCH   5  11
ATOM      9  O   UNL     1      38.098  32.887  44.751  0.00  0.00    +0.000 OA
ATOM     10  C   UNL     1      39.136  32.248  45.097  0.00  0.00    +0.000 C 
ATOM     11  C   UNL     1      39.833  31.746  46.335  0.00  0.00    +0.000 C 
ATOM     12  C   UNL     1      40.221  30.373  45.892  0.00  0.00    +0.000 C 
ATOM     13  H   UNL     1      41.019  29.953  46.555  0.00  0.00    +0.000 HD
ATOM     14  C   UNL     1      40.741  30.630  44.480  0.00  0.00    +0.000 C 
ATOM     15  H   UNL     1      41.826  30.912  44.505  0.00  0.00    +0.000 HD
ATOM     16  N   UNL     1      40.010  31.804  44.054  0.00  0.00    +0.000 N 
ATOM     17  H   UNL     1      40.184  32.190  43.079  0.00  0.00    +0.000 HD
ENDBRANCH   5  11
BRANCH   1  18
ATOM     18  S   UNL     1      36.178  29.451  49.315  0.00  0.00    +0.000 S 
BRANCH  18  20
ATOM     19  N   UNL     1      33.595  28.711  49.036  0.00  0.00    +0.000 NA
ATOM     20  C   UNL     1      34.437  29.883  48.933  0.00  0.00    +0.000 C 
ATOM     21  C   UNL     1      34.377  30.384  47.506  0.00  0.00    +0.000 C 
ATOM     22  O   UNL     1      33.245  29.865  46.844  0.00  0.00    +0.000 OA
ATOM     23  C   UNL     1      33.546  28.497  46.659  0.00  0.00    +0.000 C 
ATOM     24  C   UNL     1      33.924  27.814  47.951  0.00  0.00    +0.000 C 
ATOM     25  H   UNL     1      32.606  28.965  49.084  0.00  0.00    +0.000 HD
ATOM     26  H   UNL     1      34.128  30.639  49.663  0.00  0.00    +0.000 HD
ATOM     27  H   UNL     1      35.259  30.063  46.916  0.00  0.00    +0.000 HD
ATOM     28  H   UNL     1      34.328  31.496  47.555  0.00  0.00    +0.000 HD
ATOM     29  H   UNL     1      32.717  27.994  46.145  0.00  0.00    +0.000 HD
ATOM     30  H   UNL     1      34.414  28.501  45.951  0.00  0.00    +0.000 HD
ATOM     31  H   UNL     1      35.012  27.610  47.984  0.00  0.00    +0.000 HD
BRANCH  24  32
ATOM     32  O   UNL     1      33.177  26.630  48.115  0.00  0.00    +0.000 OA
ATOM     33  H   UNL     1      33.804  25.866  48.079  0.00  0.00    +0.000 HD
ENDBRANCH  24  32
ENDBRANCH  18  20
ENDBRANCH   1  18
TORSDOF 4
