REMARK  Name = 
REMARK  3 active torsions:
REMARK  status: ('A' for Active; 'I' for Inactive)
REMARK    1  A    between atoms: C_1  and  N_7
REMARK    2  A    between atoms: C_5  and  C_13
REMARK    3  A    between atoms: C_17  and  C_34
REMARK                            x       y       z     vdW  Elec       q    Type
REMARK                         _______ _______ _______ _____ _____    ______ ____
ROOT
ATOM      1  C   UNL     1      35.110  29.633  47.559  0.00  0.00    +0.000 A 
ATOM      2  C   UNL     1      35.283  30.048  46.248  0.00  0.00    +0.000 A 
ATOM      3  C   UNL     1      34.259  29.898  45.328  0.00  0.00    +0.000 A 
ATOM      4  N   UNL     1      33.099  29.334  45.770  0.00  0.00    +0.000 NA
ATOM      5  C   UNL     1      32.958  28.939  47.057  0.00  0.00    +0.000 A 
ATOM      6  N   UNL     1      33.950  29.083  47.950  0.00  0.00    +0.000 NA
ATOM      7  H   UNL     1      36.236  30.479  46.006  0.00  0.00    +0.000 HD
ATOM      8  H   UNL     1      34.402  30.224  44.310  0.00  0.00    +0.000 HD
ENDROOT
BRANCH   1   9
ATOM      9  N   UNL     1      36.125  29.759  48.557  0.00  0.00    +0.000 N 
ATOM     10  C   UNL     1      36.179  28.898  49.731  0.00  0.00    +0.000 C 
ATOM     11  C   UNL     1      36.472  29.603  51.014  0.00  0.00    +0.000 C 
ATOM     12  N   UNL     1      37.220  30.792  50.951  0.00  0.00    +0.000 NA
ATOM     13  C   UNL     1      36.971  31.590  49.761  0.00  0.00    +0.000 C 
ATOM     14  C   UNL     1      37.201  30.688  48.582  0.00  0.00    +0.000 C 
ATOM     15  H   UNL     1      36.957  28.115  49.513  0.00  0.00    +0.000 HD
ATOM     16  H   UNL     1      35.213  28.339  49.791  0.00  0.00    +0.000 HD
ATOM     17  H   UNL     1      35.495  29.770  51.538  0.00  0.00    +0.000 HD
ATOM     18  H   UNL     1      37.020  28.874  51.678  0.00  0.00    +0.000 HD
ATOM     19  H   UNL     1      38.231  30.737  51.200  0.00  0.00    +0.000 HD
ATOM     20  H   UNL     1      35.962  32.007  49.761  0.00  0.00    +0.000 HD
ATOM     21  H   UNL     1      37.776  32.364  49.755  0.00  0.00    +0.000 HD
ATOM     22  H   UNL     1      38.166  30.152  48.686  0.00  0.00    +0.000 HD
ATOM     23  H   UNL     1      37.220  31.265  47.651  0.00  0.00    +0.000 HD
ENDBRANCH   1   9
BRANCH   5  24
ATOM     24  C   UNL     1      31.686  28.342  47.462  0.00  0.00    +0.000 A 
ATOM     25  C   UNL     1      31.645  27.433  48.502  0.00  0.00    +0.000 A 
ATOM     26  C   UNL     1      30.478  26.831  48.937  0.00  0.00    +0.000 A 
ATOM     27  N   UNL     1      29.358  27.188  48.274  0.00  0.00    +0.000 NA
ATOM     28  C   UNL     1      29.404  28.075  47.259  0.00  0.00    +0.000 A 
ATOM     29  N   UNL     1      30.543  28.659  46.839  0.00  0.00    +0.000 NA
ATOM     30  H   UNL     1      32.568  27.175  49.008  0.00  0.00    +0.000 HD
ATOM     31  H   UNL     1      30.511  26.128  49.756  0.00  0.00    +0.000 HD
BRANCH  28  34
ATOM     32  O   UNL     1      27.534  30.338  48.068  0.00  0.00    +0.000 OA
ATOM     33  C   UNL     1      27.278  29.329  47.339  0.00  0.00    +0.000 C 
ATOM     34  C   UNL     1      28.157  28.454  46.542  0.00  0.00    +0.000 C 
ATOM     35  C   UNL     1      27.260  27.247  46.294  0.00  0.00    +0.000 C 
ATOM     36  H   UNL     1      27.250  26.651  47.208  0.00  0.00    +0.000 HD
ATOM     37  C   UNL     1      25.915  27.934  46.090  0.00  0.00    +0.000 C 
ATOM     38  H   UNL     1      25.940  28.452  45.120  0.00  0.00    +0.000 HD
ATOM     39  N   UNL     1      25.933  28.887  47.202  0.00  0.00    +0.000 N 
ATOM     40  H   UNL     1      25.064  29.143  47.749  0.00  0.00    +0.000 HD
ENDBRANCH  28  34
ENDBRANCH   5  24
TORSDOF 3
