
     RDKit          3D

 45 48  0  0  0  0  0  0  0  0999 V2000
   32.1638   28.5263   47.4265 C   0  0  2  0  0  0  0  0  0  0  0  0
   33.4068   28.3670   48.2522 C   0  0  1  0  0  0  0  0  0  0  0  0
   33.8072   27.0679   48.1647 O   0  0  0  0  0  0  0  0  0  0  0  0
   33.1076   26.4374   47.1411 C   0  0  0  0  0  0  0  0  0  0  0  0
   32.5053   27.5207   46.2825 C   0  0  1  0  0  0  0  0  0  0  0  0
   32.0929   29.8269   46.8851 O   0  0  0  0  0  0  0  0  0  0  0  0
   34.7151   29.4126   47.4971 S   0  0  0  0  0  0  0  0  0  0  0  0
   37.1296   29.2962   50.6356 C   0  0  0  0  0  0  0  0  0  0  0  0
   37.6382   30.5827   50.7593 C   0  0  0  0  0  0  0  0  0  0  0  0
   37.2123   31.5385   49.8223 C   0  0  0  0  0  0  0  0  0  0  0  0
   36.3326   31.1595   48.8514 N   0  0  0  0  0  0  0  0  0  0  0  0
   35.8702   29.8905   48.7795 C   0  0  0  0  0  0  0  0  0  0  0  0
   36.2611   28.9401   49.6695 N   0  0  0  0  0  0  0  0  0  0  0  0
   31.3662   27.0429   45.6846 O   0  0  0  0  0  0  0  0  0  0  0  0
   29.8866   29.1198   44.2147 Cl  0  0  0  0  0  0  0  0  0  0  0  0
   29.3361   28.1241   45.5433 C   0  0  0  0  0  0  0  0  0  0  0  0
   30.1253   27.1717   46.1486 C   0  0  0  0  0  0  0  0  0  0  0  0
   29.5678   26.4224   47.1873 C   0  0  0  0  0  0  0  0  0  0  0  0
   28.2680   26.6353   47.5894 C   0  0  0  0  0  0  0  0  0  0  0  0
   27.4687   27.5891   46.9880 C   0  0  0  0  0  0  0  0  0  0  0  0
   28.0107   28.3363   45.9583 C   0  0  0  0  0  0  0  0  0  0  0  0
   31.2387   28.1901   47.8911 H   0  0  0  0  0  0  0  0  0  0  0  0
   33.2226   28.6825   49.2956 H   0  0  0  0  0  0  0  0  0  0  0  0
   33.7932   25.7922   46.5243 H   0  0  0  0  0  0  0  0  0  0  0  0
   32.4158   25.7565   47.6156 H   0  0  0  0  0  0  0  0  0  0  0  0
   33.2520   27.9970   45.6546 H   0  0  0  0  0  0  0  0  0  0  0  0
   32.3780   29.7811   45.9400 H   0  0  0  0  0  0  0  0  0  0  0  0
   37.4440   28.5445   51.3462 H   0  0  0  0  0  0  0  0  0  0  0  0
   38.3279   30.8880   51.5172 H   0  0  0  0  0  0  0  0  0  0  0  0
   37.5528   32.5645   49.8377 H   0  0  0  0  0  0  0  0  0  0  0  0
   30.1026   25.6536   47.7163 H   0  0  0  0  0  0  0  0  0  0  0  0
   27.7869   26.0907   48.3810 H   0  0  0  0  0  0  0  0  0  0  0  0
   26.4338   27.7890   47.2769 H   0  0  0  0  0  0  0  0  0  0  0  0
   27.8252   29.2229   42.9743 O   0  0  0  0  0  0  0  0  0  0  0  0
   27.7665   29.8833   44.0600 C   0  0  0  0  0  0  0  0  0  0  0  0
   27.1685   29.3635   45.3016 C   0  0  2  0  0  0  0  0  0  0  0  0
   26.9846   30.5998   46.1382 C   0  0  2  0  0  0  0  0  0  0  0  0
   27.6786   30.6416   47.0068 H   0  0  0  0  0  0  0  0  0  0  0  0
   27.3202   31.7974   45.2722 C   0  0  1  0  0  0  0  0  0  0  0  0
   26.4315   32.2375   44.7765 H   0  0  0  0  0  0  0  0  0  0  0  0
   28.2441   31.2177   44.3131 N   0  0  0  0  0  0  0  0  0  0  0  0
   26.1697   28.9409   45.0024 H   0  0  0  0  0  0  0  0  0  0  0  0
   25.9238   30.7512   46.4429 H   0  0  0  0  0  0  0  0  0  0  0  0
   27.7964   32.5928   45.8730 H   0  0  0  0  0  0  0  0  0  0  0  0
   29.1114   31.5994   43.8372 H   0  0  0  0  0  0  0  0  0  0  0  0
  1  2  1  0
  3  2  1  0
  4  3  1  0
  5  4  1  0
  5  1  1  0
  6  1  1  0
  7  2  1  0
  7 12  1  0
  8  9  2  0
 10  9  1  0
 11 10  2  0
 12 11  1  0
 12 13  2  0
 13  8  1  0
 14 17  1  0
 14  5  1  0
 15 16  1  0
 16 21  2  0
 16 17  1  0
 17 18  2  0
 18 19  1  0
 20 19  2  0
 21 20  1  0
  1 22  1  1
  2 23  1  1
  4 24  1  0
  4 25  1  0
  5 26  1  6
  6 27  1  0
  8 28  1  0
  9 29  1  0
 10 30  1  0
 18 31  1  0
 19 32  1  0
 20 33  1  0
 34 35  2  0
 35 36  1  0
 36 37  1  0
 37 38  1  1
 37 39  1  0
 39 40  1  6
 39 41  1  0
 41 35  1  0
 36 42  1  6
 37 43  1  0
 39 44  1  0
 41 45  1  0
 21 36  1  0
M  ISO  8  22  13  23  13  24  13  25  13  26  13  27   3  28  14  29  14
M  ISO  6  30  14  31  14  32  14  33  14  38   8  40   8
M  END
>  <DihAtoms>  (1) 
15,20,35,34

>  <DihDeg>  (1) 
-153.22720482246967

$$$$
