REMARK  Name = 
REMARK  4 active torsions:
REMARK  status: ('A' for Active; 'I' for Inactive)
REMARK    1  A    between atoms: C_1  and  C_15
REMARK    2  A    between atoms: C_3  and  C_9
REMARK    3  A    between atoms: C_13  and  N_14
REMARK    4  A    between atoms: C_19  and  C_40
REMARK                            x       y       z     vdW  Elec       q    Type
REMARK                         _______ _______ _______ _____ _____    ______ ____
ROOT
ATOM      1  C   UNL     1      35.334  30.397  49.971  0.00  0.00    +0.000 C 
ATOM      2  C   UNL     1      36.252  31.381  49.413  0.00  0.00    +0.000 C 
ATOM      3  C   UNL     1      37.736  30.904  49.447  0.00  0.00    +0.000 C 
ATOM      4  C   UNL     1      38.215  30.579  50.769  0.00  0.00    +0.000 C 
ATOM      5  C   UNL     1      37.185  29.855  51.633  0.00  0.00    +0.000 C 
ATOM      6  C   UNL     1      36.048  29.334  50.814  0.00  0.00    +0.000 C 
ATOM      7  H   UNL     1      34.632  30.872  50.720  0.00  0.00    +0.000 HD
ATOM      8  H   UNL     1      36.276  32.290  50.107  0.00  0.00    +0.000 HD
ATOM      9  H   UNL     1      36.150  31.794  48.433  0.00  0.00    +0.000 HD
ATOM     10  H   UNL     1      37.813  30.071  48.728  0.00  0.00    +0.000 HD
ATOM     11  H   UNL     1      38.483  31.486  51.342  0.00  0.00    +0.000 HD
ATOM     12  H   UNL     1      39.160  30.003  50.683  0.00  0.00    +0.000 HD
ATOM     13  H   UNL     1      36.872  30.433  52.514  0.00  0.00    +0.000 HD
ATOM     14  H   UNL     1      37.699  28.958  52.038  0.00  0.00    +0.000 HD
ATOM     15  H   UNL     1      35.349  28.832  51.502  0.00  0.00    +0.000 HD
ATOM     16  H   UNL     1      36.470  28.595  50.094  0.00  0.00    +0.000 HD
ENDROOT
BRANCH   3  19
ATOM     17 CL   UNL     1      38.572  30.621  46.629  0.00  0.00    +0.000 Cl
ATOM     18  C   UNL     1      38.957  32.031  47.584  0.00  0.00    +0.000 A 
ATOM     19  C   UNL     1      38.476  32.068  48.869  0.00  0.00    +0.000 A 
ATOM     20  C   UNL     1      38.793  33.233  49.543  0.00  0.00    +0.000 A 
ATOM     21  C   UNL     1      39.525  34.262  48.984  0.00  0.00    +0.000 A 
ATOM     22  C   UNL     1      39.980  34.145  47.669  0.00  0.00    +0.000 A 
ATOM     23  C   UNL     1      39.681  32.987  46.954  0.00  0.00    +0.000 A 
ATOM     24  H   UNL     1      38.446  33.343  50.563  0.00  0.00    +0.000 HD
ATOM     25  H   UNL     1      39.721  35.129  49.589  0.00  0.00    +0.000 HD
ATOM     26  H   UNL     1      40.553  34.945  47.224  0.00  0.00    +0.000 HD
BRANCH  23  27
ATOM     27  N   UNL     1      40.144  32.870  45.615  0.00  0.00    +0.000 N 
ATOM     28  H   UNL     1      40.174  33.725  45.012  0.00  0.00    +0.000 HD
ATOM     29  H   UNL     1      40.445  31.932  45.264  0.00  0.00    +0.000 HD
ENDBRANCH  23  27
ENDBRANCH   3  19
BRANCH   1  30
ATOM     30  C   UNL     1      34.497  29.676  49.016  0.00  0.00    +0.000 A 
ATOM     31  C   UNL     1      34.512  30.201  47.731  0.00  0.00    +0.000 A 
ATOM     32  C   UNL     1      33.770  29.570  46.739  0.00  0.00    +0.000 A 
ATOM     33  N   UNL     1      33.041  28.430  47.087  0.00  0.00    +0.000 NA
ATOM     34  C   UNL     1      33.050  27.951  48.341  0.00  0.00    +0.000 A 
ATOM     35  N   UNL     1      33.778  28.593  49.256  0.00  0.00    +0.000 NA
ATOM     36  H   UNL     1      34.956  31.029  47.197  0.00  0.00    +0.000 HD
ATOM     37  H   UNL     1      33.615  29.761  45.709  0.00  0.00    +0.000 HD
BRANCH  34  40
ATOM     38  O   UNL     1      30.110  26.760  47.617  0.00  0.00    +0.000 OA
ATOM     39  C   UNL     1      30.850  27.091  48.586  0.00  0.00    +0.000 C 
ATOM     40  C   UNL     1      32.289  26.750  48.738  0.00  0.00    +0.000 C 
ATOM     41  C   UNL     1      32.404  26.587  50.233  0.00  0.00    +0.000 C 
ATOM     42  H   UNL     1      33.429  26.900  50.521  0.00  0.00    +0.000 HD
ATOM     43  C   UNL     1      31.381  27.533  50.825  0.00  0.00    +0.000 C 
ATOM     44  H   UNL     1      30.860  27.013  51.663  0.00  0.00    +0.000 HD
ATOM     45  N   UNL     1      30.483  27.851  49.735  0.00  0.00    +0.000 N 
ATOM     46  H   UNL     1      29.707  28.526  49.805  0.00  0.00    +0.000 HD
ENDBRANCH  34  40
ENDBRANCH   1  30
TORSDOF 4
