
 OpenBabel03262522083D

 40 43  0  0  1  0  0  0  0  0999 V2000
   38.7150   23.1910   36.2420 C   0  0  2  0  0  0  0  0  0  0  0  0
   38.0830   24.3920   36.8630 C   0  0  0  0  0  0  0  0  0  0  0  0
   37.9570   25.4380   35.8530 N   0  0  0  0  0  0  0  0  0  0  0  0
   37.4910   26.4650   34.9510 C   0  0  0  0  0  0  0  0  0  0  0  0
   36.4550   27.1310   34.8060 O   0  0  0  0  0  0  0  0  0  0  0  0
   38.7000   26.5030   34.1780 C   0  0  1  0  0  0  0  0  0  0  0  0
   39.2630   25.6470   35.3100 C   0  0  2  0  0  0  0  0  0  0  0  0
   39.6870   23.9480   34.8620 S   0  0  0  0  0  0  0  0  0  0  0  0
   37.0360   24.0820   37.1510 H   0  0  0  0  0  0  0  0  0  0  0  0
   38.5650   24.7450   37.7780 H   0  0  0  0  0  0  0  0  0  0  0  0
   39.3140   27.4390   34.1160 H   0  0  0  0  0  0  0  0  0  0  0  0
   39.9950   26.1560   35.9650 H   0  0  0  0  0  0  0  0  0  0  0  0
   37.8020   22.1040   35.8000 C   0  0  0  0  0  0  0  0  0  0  0  0
   37.8830   21.8800   34.7100 H   0  0  0  0  0  0  0  0  0  0  0  0
   36.7600   22.3990   36.0060 H   0  0  0  0  0  0  0  0  0  0  0  0
   38.0340   21.1810   36.3760 H   0  0  0  0  0  0  0  0  0  0  0  0
   39.7990   22.6690   37.2090 C   0  0  0  0  0  0  0  0  0  0  0  0
   40.6310   23.4040   37.1290 H   0  0  0  0  0  0  0  0  0  0  0  0
   40.1340   21.6620   36.8960 H   0  0  0  0  0  0  0  0  0  0  0  0
   39.2590   22.6200   38.4930 O   0  0  0  0  0  0  0  0  0  0  0  0
   39.9820   22.2890   39.0740 H   0  0  0  0  0  0  0  0  0  0  0  0
   38.6720   25.8760   32.8480 C   0  0  0  0  0  0  0  0  0  0  0  0
   39.8170   25.8380   32.2900 O   0  0  0  0  0  0  0  0  0  0  0  0
   37.4940   25.3510   32.2260 C   0  0  0  0  0  0  0  0  0  0  0  0
   36.6030   26.2380   31.6620 C   0  0  0  0  0  0  0  0  0  0  0  0
   35.4390   25.7100   31.0500 C   0  0  0  0  0  0  0  0  0  0  0  0
   35.2750   24.3540   31.0580 N   0  0  0  0  0  0  0  0  0  0  0  0
   36.1540   23.5230   31.6110 C   0  0  0  0  0  0  0  0  0  0  0  0
   37.2730   24.0150   32.2000 N   0  0  0  0  0  0  0  0  0  0  0  0
   36.7770   27.3010   31.6810 H   0  0  0  0  0  0  0  0  0  0  0  0
   34.7390   26.3950   30.6080 H   0  0  0  0  0  0  0  0  0  0  0  0
   37.9660   21.4610   30.3960 O   0  0  0  0  0  0  0  0  0  0  0  0
   37.0750   21.2430   31.2820 C   0  0  0  0  0  0  0  0  0  0  0  0
   35.9070   22.0730   31.5790 C   0  0  1  0  0  3  0  0  0  0  0  0
   35.5050   21.5360   32.9570 C   0  0  0  0  0  3  0  0  0  0  0  0
   36.1620   21.9380   33.7580 H   0  0  0  0  0  0  0  0  0  0  0  0
   35.7970   20.0470   32.7260 C   0  0  0  0  0  3  0  0  0  0  0  0
   35.7710   19.4590   33.6460 H   0  0  0  0  0  0  0  0  0  0  0  0
   37.1400   20.0770   32.1300 N   0  0  0  0  0  0  0  0  0  0  0  0
   37.9610   19.4330   32.2640 H   0  0  0  0  0  0  0  0  0  0  0  0
  1 13  1  6  0  0  0
  1  2  1  0  0  0  0
  1 17  1  0  0  0  0
  2  9  1  0  0  0  0
  2 10  1  0  0  0  0
  3  2  1  0  0  0  0
  4  3  1  0  0  0  0
  5  4  2  0  0  0  0
  6 11  1  6  0  0  0
  6  4  1  0  0  0  0
  6  7  1  0  0  0  0
  7  3  1  0  0  0  0
  7 12  1  1  0  0  0
  8  7  1  0  0  0  0
  8  1  1  0  0  0  0
 13 15  1  0  0  0  0
 13 16  1  0  0  0  0
 14 13  1  0  0  0  0
 17 20  1  0  0  0  0
 18 17  1  0  0  0  0
 19 17  1  0  0  0  0
 20 21  1  0  0  0  0
 22  6  1  0  0  0  0
 23 22  2  0  0  0  0
 24 22  1  0  0  0  0
 25 30  1  0  0  0  0
 25 24  2  0  0  0  0
 26 27  2  0  0  0  0
 26 25  1  0  0  0  0
 27 28  1  0  0  0  0
 28 29  2  0  0  0  0
 29 24  1  0  0  0  0
 31 26  1  0  0  0  0
 32 33  2  0  0  0  0
 33 34  1  0  0  0  0
 33 39  1  0  0  0  0
 34 28  1  1  0  0  0
 34 35  1  0  0  0  0
 35 36  1  0  0  0  0
 37 35  1  0  0  0  0
 37 38  1  0  0  0  0
 39 40  1  0  0  0  0
 39 37  1  0  0  0  0
M  END
>  <minimizedAffinity>
-5.99435854

$$$$

 OpenBabel03262522083D

 40 43  0  0  1  0  0  0  0  0999 V2000
   41.2690   25.7200   33.3850 C   0  0  2  0  0  0  0  0  0  0  0  0
   41.0970   25.3230   34.8130 C   0  0  0  0  0  0  0  0  0  0  0  0
   39.7300   25.6220   35.2280 N   0  0  0  0  0  0  0  0  0  0  0  0
   38.3770   25.5750   35.7290 C   0  0  0  0  0  0  0  0  0  0  0  0
   37.6860   24.7750   36.3790 O   0  0  0  0  0  0  0  0  0  0  0  0
   38.0080   26.8580   35.2010 C   0  0  1  0  0  0  0  0  0  0  0  0
   39.5070   27.0060   34.9460 C   0  0  2  0  0  0  0  0  0  0  0  0
   39.9980   27.0510   33.2080 S   0  0  0  0  0  0  0  0  0  0  0  0
   41.2140   24.2010   34.8440 H   0  0  0  0  0  0  0  0  0  0  0  0
   41.8440   25.7310   35.4980 H   0  0  0  0  0  0  0  0  0  0  0  0
   37.6920   27.6910   35.8830 H   0  0  0  0  0  0  0  0  0  0  0  0
   40.0250   27.7330   35.6000 H   0  0  0  0  0  0  0  0  0  0  0  0
   41.1470   24.6410   32.3690 C   0  0  0  0  0  0  0  0  0  0  0  0
   40.3370   24.8300   31.6260 H   0  0  0  0  0  0  0  0  0  0  0  0
   40.9220   23.6880   32.8760 H   0  0  0  0  0  0  0  0  0  0  0  0
   42.1150   24.5410   31.8300 H   0  0  0  0  0  0  0  0  0  0  0  0
   42.6090   26.4750   33.2590 C   0  0  0  0  0  0  0  0  0  0  0  0
   42.5640   26.9730   32.2650 H   0  0  0  0  0  0  0  0  0  0  0  0
   43.4530   25.7600   33.3010 H   0  0  0  0  0  0  0  0  0  0  0  0
   42.7010   27.3920   34.3050 O   0  0  0  0  0  0  0  0  0  0  0  0
   43.5630   27.8520   34.1820 H   0  0  0  0  0  0  0  0  0  0  0  0
   37.1470   26.8780   34.0100 C   0  0  0  0  0  0  0  0  0  0  0  0
   36.9840   25.7240   33.4930 O   0  0  0  0  0  0  0  0  0  0  0  0
   36.5380   28.0560   33.4710 C   0  0  0  0  0  0  0  0  0  0  0  0
   36.4400   28.1710   32.1010 C   0  0  0  0  0  0  0  0  0  0  0  0
   35.8380   29.3420   31.5760 C   0  0  0  0  0  0  0  0  0  0  0  0
   35.3940   30.2820   32.4620 N   0  0  0  0  0  0  0  0  0  0  0  0
   35.5050   30.1420   33.7800 C   0  0  0  0  0  0  0  0  0  0  0  0
   36.0780   29.0260   34.2970 N   0  0  0  0  0  0  0  0  0  0  0  0
   36.8050   27.4010   31.4420 H   0  0  0  0  0  0  0  0  0  0  0  0
   35.7570   29.4400   30.5090 H   0  0  0  0  0  0  0  0  0  0  0  0
   32.6950   30.3770   34.8130 O   0  0  0  0  0  0  0  0  0  0  0  0
   33.7300   30.9100   35.3350 C   0  0  0  0  0  0  0  0  0  0  0  0
   35.0020   31.1990   34.6710 C   0  0  1  0  0  3  0  0  0  0  0  0
   35.9230   31.4110   35.8770 C   0  0  0  0  0  3  0  0  0  0  0  0
   36.2270   30.4430   36.3320 H   0  0  0  0  0  0  0  0  0  0  0  0
   34.9430   32.1470   36.8000 C   0  0  0  0  0  3  0  0  0  0  0  0
   35.3110   32.2440   37.8240 H   0  0  0  0  0  0  0  0  0  0  0  0
   33.7430   31.3040   36.7230 N   0  0  0  0  0  0  0  0  0  0  0  0
   33.0480   31.0340   37.4670 H   0  0  0  0  0  0  0  0  0  0  0  0
  1 13  1  6  0  0  0
  1  2  1  0  0  0  0
  2  9  1  0  0  0  0
  2  3  1  0  0  0  0
  2 10  1  0  0  0  0
  3  4  1  0  0  0  0
  4  5  2  0  0  0  0
  6  4  1  0  0  0  0
  6 11  1  1  0  0  0
  7  6  1  0  0  0  0
  7  3  1  0  0  0  0
  7 12  1  1  0  0  0
  8  1  1  0  0  0  0
  8  7  1  0  0  0  0
 13 15  1  0  0  0  0
 14 13  1  0  0  0  0
 16 13  1  0  0  0  0
 17 19  1  0  0  0  0
 17  1  1  0  0  0  0
 17 20  1  0  0  0  0
 18 17  1  0  0  0  0
 21 20  1  0  0  0  0
 22  6  1  0  0  0  0
 23 22  2  0  0  0  0
 24 22  1  0  0  0  0
 24 29  1  0  0  0  0
 25 24  2  0  0  0  0
 26 25  1  0  0  0  0
 26 27  2  0  0  0  0
 27 28  1  0  0  0  0
 28 29  2  0  0  0  0
 30 25  1  0  0  0  0
 31 26  1  0  0  0  0
 32 33  2  0  0  0  0
 33 39  1  0  0  0  0
 34 28  1  1  0  0  0
 34 33  1  0  0  0  0
 34 35  1  0  0  0  0
 35 36  1  0  0  0  0
 35 37  1  0  0  0  0
 37 38  1  0  0  0  0
 39 37  1  0  0  0  0
 39 40  1  0  0  0  0
M  END
>  <minimizedAffinity>
-5.74839163

$$$$

 OpenBabel03262522083D

 40 43  0  0  1  0  0  0  0  0999 V2000
   36.7210   21.5370   31.9680 C   0  0  2  0  0  0  0  0  0  0  0  0
   38.0270   21.5280   31.2470 C   0  0  0  0  0  0  0  0  0  0  0  0
   38.5210   22.8980   31.1430 N   0  0  0  0  0  0  0  0  0  0  0  0
   39.2960   24.1150   31.1940 C   0  0  0  0  0  0  0  0  0  0  0  0
   40.4750   24.4200   31.4330 O   0  0  0  0  0  0  0  0  0  0  0  0
   38.1970   24.9730   30.8560 C   0  0  1  0  0  0  0  0  0  0  0  0
   37.4840   23.6650   30.5240 C   0  0  2  0  0  0  0  0  0  0  0  0
   36.0980   23.2390   31.6020 S   0  0  0  0  0  0  0  0  0  0  0  0
   38.7480   20.9660   31.9080 H   0  0  0  0  0  0  0  0  0  0  0  0
   38.0190   21.0100   30.2850 H   0  0  0  0  0  0  0  0  0  0  0  0
   38.2200   25.5980   29.9250 H   0  0  0  0  0  0  0  0  0  0  0  0
   37.3130   23.4830   29.4450 H   0  0  0  0  0  0  0  0  0  0  0  0
   36.7530   21.2130   33.4190 C   0  0  0  0  0  0  0  0  0  0  0  0
   36.3480   22.0330   34.0590 H   0  0  0  0  0  0  0  0  0  0  0  0
   37.7960   21.0310   33.7270 H   0  0  0  0  0  0  0  0  0  0  0  0
   36.1590   20.2900   33.5970 H   0  0  0  0  0  0  0  0  0  0  0  0
   35.7460   20.6180   31.2000 C   0  0  0  0  0  0  0  0  0  0  0  0
   34.9720   21.3030   30.7900 H   0  0  0  0  0  0  0  0  0  0  0  0
   35.2930   19.8820   31.8920 H   0  0  0  0  0  0  0  0  0  0  0  0
   36.4560   19.9610   30.1960 O   0  0  0  0  0  0  0  0  0  0  0  0
   35.7990   19.3950   29.7310 H   0  0  0  0  0  0  0  0  0  0  0  0
   37.6050   25.7730   31.9400 C   0  0  0  0  0  0  0  0  0  0  0  0
   36.5490   26.3910   31.5830 O   0  0  0  0  0  0  0  0  0  0  0  0
   38.1380   25.8590   33.2650 C   0  0  0  0  0  0  0  0  0  0  0  0
   38.9310   26.9420   33.5800 C   0  0  0  0  0  0  0  0  0  0  0  0
   39.4560   27.0190   34.8940 C   0  0  0  0  0  0  0  0  0  0  0  0
   39.1440   26.0140   35.7650 N   0  0  0  0  0  0  0  0  0  0  0  0
   38.3760   24.9810   35.4300 C   0  0  0  0  0  0  0  0  0  0  0  0
   37.8660   24.8950   34.1760 N   0  0  0  0  0  0  0  0  0  0  0  0
   39.1490   27.7110   32.8570 H   0  0  0  0  0  0  0  0  0  0  0  0
   40.0750   27.8600   35.1480 H   0  0  0  0  0  0  0  0  0  0  0  0
   39.7970   22.3480   35.6800 O   0  0  0  0  0  0  0  0  0  0  0  0
   39.1260   22.9240   36.5990 C   0  0  0  0  0  0  0  0  0  0  0  0
   38.0840   23.9370   36.4240 C   0  0  1  0  0  3  0  0  0  0  0  0
   37.9920   24.5140   37.8410 C   0  0  0  0  0  3  0  0  0  0  0  0
   38.8270   25.2160   38.0500 H   0  0  0  0  0  0  0  0  0  0  0  0
   38.1770   23.2160   38.6390 C   0  0  0  0  0  3  0  0  0  0  0  0
   38.3440   23.3900   39.7040 H   0  0  0  0  0  0  0  0  0  0  0  0
   39.3470   22.6110   37.9900 N   0  0  0  0  0  0  0  0  0  0  0  0
   40.1570   22.0780   38.4000 H   0  0  0  0  0  0  0  0  0  0  0  0
  1 17  1  6  0  0  0
  1 13  1  0  0  0  0
  2  9  1  0  0  0  0
  2  1  1  0  0  0  0
  3  4  1  0  0  0  0
  3  2  1  0  0  0  0
  4  5  2  0  0  0  0
  6 11  1  6  0  0  0
  6  4  1  0  0  0  0
  6 22  1  0  0  0  0
  7 12  1  6  0  0  0
  7  6  1  0  0  0  0
  7  3  1  0  0  0  0
  7  8  1  0  0  0  0
  8  1  1  0  0  0  0
 10  2  1  0  0  0  0
 13 16  1  0  0  0  0
 13 15  1  0  0  0  0
 13 14  1  0  0  0  0
 17 19  1  0  0  0  0
 18 17  1  0  0  0  0
 20 17  1  0  0  0  0
 21 20  1  0  0  0  0
 22 24  1  0  0  0  0
 23 22  2  0  0  0  0
 24 25  2  0  0  0  0
 24 29  1  0  0  0  0
 25 26  1  0  0  0  0
 26 31  1  0  0  0  0
 26 27  2  0  0  0  0
 28 27  1  0  0  0  0
 29 28  2  0  0  0  0
 30 25  1  0  0  0  0
 32 33  2  0  0  0  0
 33 39  1  0  0  0  0
 34 28  1  6  0  0  0
 34 33  1  0  0  0  0
 34 35  1  0  0  0  0
 35 36  1  0  0  0  0
 35 37  1  0  0  0  0
 37 38  1  0  0  0  0
 39 40  1  0  0  0  0
 39 37  1  0  0  0  0
M  END
>  <minimizedAffinity>
-5.53957748

$$$$

 OpenBabel03262522083D

 40 43  0  0  1  0  0  0  0  0999 V2000
   40.4570   26.6060   32.6110 C   0  0  2  0  0  0  0  0  0  0  0  0
   39.1540   27.2450   32.2630 C   0  0  0  0  0  0  0  0  0  0  0  0
   38.2450   26.2240   31.7520 N   0  0  0  0  0  0  0  0  0  0  0  0
   37.1340   25.3360   31.5030 C   0  0  0  0  0  0  0  0  0  0  0  0
   35.9500   25.2550   31.8640 O   0  0  0  0  0  0  0  0  0  0  0  0
   37.8660   24.4710   30.6220 C   0  0  1  0  0  0  0  0  0  0  0  0
   38.9180   25.5770   30.6690 C   0  0  2  0  0  0  0  0  0  0  0  0
   40.4690   25.1380   31.4860 S   0  0  0  0  0  0  0  0  0  0  0  0
   38.7180   27.6200   33.2340 H   0  0  0  0  0  0  0  0  0  0  0  0
   39.2290   28.1120   31.6020 H   0  0  0  0  0  0  0  0  0  0  0  0
   37.5520   24.3410   29.5530 H   0  0  0  0  0  0  0  0  0  0  0  0
   39.0280   26.1610   29.7360 H   0  0  0  0  0  0  0  0  0  0  0  0
   40.6750   26.2620   34.0410 C   0  0  0  0  0  0  0  0  0  0  0  0
   40.8620   25.1740   34.2060 H   0  0  0  0  0  0  0  0  0  0  0  0
   39.7800   26.5400   34.6220 H   0  0  0  0  0  0  0  0  0  0  0  0
   41.5450   26.8400   34.4230 H   0  0  0  0  0  0  0  0  0  0  0  0
   41.5890   27.4980   32.0590 C   0  0  0  0  0  0  0  0  0  0  0  0
   41.0740   28.2510   31.4220 H   0  0  0  0  0  0  0  0  0  0  0  0
   42.2930   26.8910   31.4590 H   0  0  0  0  0  0  0  0  0  0  0  0
   42.2550   28.0840   33.1360 O   0  0  0  0  0  0  0  0  0  0  0  0
   42.9590   28.6460   32.7400 H   0  0  0  0  0  0  0  0  0  0  0  0
   38.2810   23.1630   31.1490 C   0  0  0  0  0  0  0  0  0  0  0  0
   38.9470   22.4750   30.3080 O   0  0  0  0  0  0  0  0  0  0  0  0
   37.9840   22.6910   32.4670 C   0  0  0  0  0  0  0  0  0  0  0  0
   36.9210   21.8270   32.6270 C   0  0  0  0  0  0  0  0  0  0  0  0
   36.6330   21.3660   33.9360 C   0  0  0  0  0  0  0  0  0  0  0  0
   37.4270   21.8070   34.9560 N   0  0  0  0  0  0  0  0  0  0  0  0
   38.4460   22.6420   34.7690 C   0  0  0  0  0  0  0  0  0  0  0  0
   38.7330   23.0910   33.5210 N   0  0  0  0  0  0  0  0  0  0  0  0
   36.3230   21.5070   31.7900 H   0  0  0  0  0  0  0  0  0  0  0  0
   35.8070   20.6930   34.0700 H   0  0  0  0  0  0  0  0  0  0  0  0
   37.3940   23.8880   37.2900 O   0  0  0  0  0  0  0  0  0  0  0  0
   38.5170   23.2970   37.1620 C   0  0  0  0  0  0  0  0  0  0  0  0
   39.2570   23.0720   35.9190 C   0  0  1  0  0  3  0  0  0  0  0  0
   40.2440   21.9850   36.3550 C   0  0  0  0  0  3  0  0  0  0  0  0
   39.7560   20.9870   36.4020 H   0  0  0  0  0  0  0  0  0  0  0  0
   40.5500   22.4940   37.7700 C   0  0  0  0  0  3  0  0  0  0  0  0
   41.0990   21.7690   38.3750 H   0  0  0  0  0  0  0  0  0  0  0  0
   39.2090   22.7570   38.3070 N   0  0  0  0  0  0  0  0  0  0  0  0
   38.8170   22.6050   39.2730 H   0  0  0  0  0  0  0  0  0  0  0  0
  1 17  1  6  0  0  0
  1 13  1  0  0  0  0
  2  1  1  0  0  0  0
  2  9  1  0  0  0  0
  3  2  1  0  0  0  0
  4  3  1  0  0  0  0
  4  5  2  0  0  0  0
  6 11  1  6  0  0  0
  6  7  1  0  0  0  0
  6 22  1  0  0  0  0
  6  4  1  0  0  0  0
  7 12  1  6  0  0  0
  7  8  1  0  0  0  0
  7  3  1  0  0  0  0
  8  1  1  0  0  0  0
 10  2  1  0  0  0  0
 13 14  1  0  0  0  0
 13 16  1  0  0  0  0
 13 15  1  0  0  0  0
 17 20  1  0  0  0  0
 18 17  1  0  0  0  0
 19 17  1  0  0  0  0
 21 20  1  0  0  0  0
 22 24  1  0  0  0  0
 23 22  2  0  0  0  0
 24 25  2  0  0  0  0
 24 29  1  0  0  0  0
 25 26  1  0  0  0  0
 26 31  1  0  0  0  0
 26 27  2  0  0  0  0
 28 27  1  0  0  0  0
 29 28  2  0  0  0  0
 30 25  1  0  0  0  0
 33 32  2  0  0  0  0
 33 39  1  0  0  0  0
 34 28  1  6  0  0  0
 34 35  1  0  0  0  0
 34 33  1  0  0  0  0
 35 36  1  0  0  0  0
 35 37  1  0  0  0  0
 37 39  1  0  0  0  0
 37 38  1  0  0  0  0
 39 40  1  0  0  0  0
M  END
>  <minimizedAffinity>
-5.3473711

$$$$

 OpenBabel03262522083D

 40 43  0  0  1  0  0  0  0  0999 V2000
   38.9610   23.1440   35.7850 C   0  0  2  0  0  0  0  0  0  0  0  0
   38.6840   24.2650   36.7300 C   0  0  0  0  0  0  0  0  0  0  0  0
   38.8080   25.5310   36.0140 N   0  0  0  0  0  0  0  0  0  0  0  0
   38.6030   26.8350   35.4290 C   0  0  0  0  0  0  0  0  0  0  0  0
   37.7750   27.7510   35.5430 O   0  0  0  0  0  0  0  0  0  0  0  0
   39.7570   26.7680   34.5770 C   0  0  1  0  0  0  0  0  0  0  0  0
   40.1080   25.5410   35.4160 C   0  0  2  0  0  0  0  0  0  0  0  0
   40.0580   23.9610   34.5400 S   0  0  0  0  0  0  0  0  0  0  0  0
   37.6010   24.1610   37.0320 H   0  0  0  0  0  0  0  0  0  0  0  0
   39.2670   24.2440   37.6530 H   0  0  0  0  0  0  0  0  0  0  0  0
   40.5940   27.5070   34.6840 H   0  0  0  0  0  0  0  0  0  0  0  0
   40.9660   25.6710   36.1030 H   0  0  0  0  0  0  0  0  0  0  0  0
   37.7830   22.4640   35.1850 C   0  0  0  0  0  0  0  0  0  0  0  0
   37.7710   22.5110   34.0700 H   0  0  0  0  0  0  0  0  0  0  0  0
   36.8610   22.9460   35.5500 H   0  0  0  0  0  0  0  0  0  0  0  0
   37.7810   21.3980   35.5000 H   0  0  0  0  0  0  0  0  0  0  0  0
   39.8970   22.1430   36.4950 C   0  0  0  0  0  0  0  0  0  0  0  0
   40.9180   22.3990   36.1340 H   0  0  0  0  0  0  0  0  0  0  0  0
   39.6300   21.1060   36.2120 H   0  0  0  0  0  0  0  0  0  0  0  0
   39.7660   22.3150   37.8730 O   0  0  0  0  0  0  0  0  0  0  0  0
   40.3810   21.6650   38.2830 H   0  0  0  0  0  0  0  0  0  0  0  0
   39.5280   26.5260   33.1450 C   0  0  0  0  0  0  0  0  0  0  0  0
   40.5900   26.2070   32.5170 O   0  0  0  0  0  0  0  0  0  0  0  0
   38.2540   26.6260   32.5020 C   0  0  0  0  0  0  0  0  0  0  0  0
   37.5050   25.4780   32.3540 C   0  0  0  0  0  0  0  0  0  0  0  0
   36.2450   25.5870   31.7140 C   0  0  0  0  0  0  0  0  0  0  0  0
   35.8530   26.8230   31.2840 N   0  0  0  0  0  0  0  0  0  0  0  0
   36.6000   27.9120   31.4400 C   0  0  0  0  0  0  0  0  0  0  0  0
   37.8080   27.8230   32.0520 N   0  0  0  0  0  0  0  0  0  0  0  0
   37.8570   24.5250   32.7110 H   0  0  0  0  0  0  0  0  0  0  0  0
   35.6540   24.6970   31.5950 H   0  0  0  0  0  0  0  0  0  0  0  0
   35.6470   30.1880   33.1520 O   0  0  0  0  0  0  0  0  0  0  0  0
   36.0570   30.2800   31.9470 C   0  0  0  0  0  0  0  0  0  0  0  0
   36.1090   29.2090   30.9500 C   0  0  1  0  0  3  0  0  0  0  0  0
   37.0560   29.8190   29.9110 C   0  0  0  0  0  3  0  0  0  0  0  0
   38.1160   29.7490   30.2370 H   0  0  0  0  0  0  0  0  0  0  0  0
   36.5750   31.2740   29.9740 C   0  0  0  0  0  3  0  0  0  0  0  0
   37.2380   31.9660   29.4500 H   0  0  0  0  0  0  0  0  0  0  0  0
   36.5410   31.5330   31.4200 N   0  0  0  0  0  0  0  0  0  0  0  0
   36.7960   32.3960   31.9660 H   0  0  0  0  0  0  0  0  0  0  0  0
  1 13  1  6  0  0  0
  1 17  1  0  0  0  0
  1  2  1  0  0  0  0
  2  9  1  0  0  0  0
  2 10  1  0  0  0  0
  3  2  1  0  0  0  0
  4  5  2  0  0  0  0
  4  3  1  0  0  0  0
  6 11  1  1  0  0  0
  6  7  1  0  0  0  0
  6  4  1  0  0  0  0
  7  3  1  0  0  0  0
  7 12  1  1  0  0  0
  8  7  1  0  0  0  0
  8  1  1  0  0  0  0
 13 16  1  0  0  0  0
 13 15  1  0  0  0  0
 14 13  1  0  0  0  0
 17 20  1  0  0  0  0
 18 17  1  0  0  0  0
 19 17  1  0  0  0  0
 20 21  1  0  0  0  0
 22  6  1  0  0  0  0
 23 22  2  0  0  0  0
 24 22  1  0  0  0  0
 25 24  1  0  0  0  0
 25 30  1  0  0  0  0
 26 25  2  0  0  0  0
 27 28  2  0  0  0  0
 27 26  1  0  0  0  0
 28 29  1  0  0  0  0
 29 24  2  0  0  0  0
 31 26  1  0  0  0  0
 33 32  2  0  0  0  0
 34 28  1  1  0  0  0
 34 33  1  0  0  0  0
 35 37  1  0  0  0  0
 35 36  1  0  0  0  0
 35 34  1  0  0  0  0
 37 39  1  0  0  0  0
 38 37  1  0  0  0  0
 39 33  1  0  0  0  0
 39 40  1  0  0  0  0
M  END
>  <minimizedAffinity>
-5.3453269

$$$$

 OpenBabel03262522083D

 40 43  0  0  1  0  0  0  0  0999 V2000
   38.8950   23.3780   35.8820 C   0  0  2  0  0  0  0  0  0  0  0  0
   38.0980   24.3540   36.6810 C   0  0  0  0  0  0  0  0  0  0  0  0
   38.1160   25.6480   36.0050 N   0  0  0  0  0  0  0  0  0  0  0  0
   37.7810   26.8940   35.3580 C   0  0  0  0  0  0  0  0  0  0  0  0
   36.7600   27.5830   35.2060 O   0  0  0  0  0  0  0  0  0  0  0  0
   39.1120   27.1430   34.8800 C   0  0  1  0  0  0  0  0  0  0  0  0
   39.4900   25.9930   35.8100 C   0  0  2  0  0  0  0  0  0  0  0  0
   40.0740   24.4910   34.9930 S   0  0  0  0  0  0  0  0  0  0  0  0
   37.0320   23.9840   36.6580 H   0  0  0  0  0  0  0  0  0  0  0  0
   38.3790   24.4260   37.7350 H   0  0  0  0  0  0  0  0  0  0  0  0
   39.6800   28.0520   35.2080 H   0  0  0  0  0  0  0  0  0  0  0  0
   40.0580   26.2870   36.7140 H   0  0  0  0  0  0  0  0  0  0  0  0
   38.1370   22.4710   34.9810 C   0  0  0  0  0  0  0  0  0  0  0  0
   38.4350   22.5690   33.9100 H   0  0  0  0  0  0  0  0  0  0  0  0
   37.0620   22.7030   35.0520 H   0  0  0  0  0  0  0  0  0  0  0  0
   38.3000   21.4200   35.3050 H   0  0  0  0  0  0  0  0  0  0  0  0
   39.7990   22.5910   36.8550 C   0  0  0  0  0  0  0  0  0  0  0  0
   40.7890   23.0960   36.7970 H   0  0  0  0  0  0  0  0  0  0  0  0
   39.8770   21.5360   36.5320 H   0  0  0  0  0  0  0  0  0  0  0  0
   39.2440   22.6640   38.1320 O   0  0  0  0  0  0  0  0  0  0  0  0
   39.8520   22.1580   38.7170 H   0  0  0  0  0  0  0  0  0  0  0  0
   39.3680   26.9240   33.4480 C   0  0  0  0  0  0  0  0  0  0  0  0
   40.6070   26.9630   33.1520 O   0  0  0  0  0  0  0  0  0  0  0  0
   38.3500   26.6870   32.4710 C   0  0  0  0  0  0  0  0  0  0  0  0
   37.7430   27.7770   31.8830 C   0  0  0  0  0  0  0  0  0  0  0  0
   36.7340   27.5320   30.9180 C   0  0  0  0  0  0  0  0  0  0  0  0
   36.4270   26.2320   30.6320 N   0  0  0  0  0  0  0  0  0  0  0  0
   37.0310   25.2020   31.2180 C   0  0  0  0  0  0  0  0  0  0  0  0
   37.9980   25.4210   32.1430 N   0  0  0  0  0  0  0  0  0  0  0  0
   38.0200   28.7850   32.1420 H   0  0  0  0  0  0  0  0  0  0  0  0
   36.2560   28.3760   30.4550 H   0  0  0  0  0  0  0  0  0  0  0  0
   38.8390   23.1320   30.0110 O   0  0  0  0  0  0  0  0  0  0  0  0
   37.7550   22.9000   30.6420 C   0  0  0  0  0  0  0  0  0  0  0  0
   36.6450   23.8290   30.8570 C   0  0  1  0  0  3  0  0  0  0  0  0
   35.8920   23.1330   31.9950 C   0  0  0  0  0  3  0  0  0  0  0  0
   36.3940   23.2960   32.9740 H   0  0  0  0  0  0  0  0  0  0  0  0
   36.0690   21.6770   31.5430 C   0  0  0  0  0  3  0  0  0  0  0  0
   35.7770   20.9540   32.3080 H   0  0  0  0  0  0  0  0  0  0  0  0
   37.5060   21.6120   31.2440 N   0  0  0  0  0  0  0  0  0  0  0  0
   38.2050   20.8420   31.4100 H   0  0  0  0  0  0  0  0  0  0  0  0
  1 13  1  6  0  0  0
  1  2  1  0  0  0  0
  1 17  1  0  0  0  0
  2 10  1  0  0  0  0
  3  2  1  0  0  0  0
  4  3  1  0  0  0  0
  5  4  2  0  0  0  0
  6 11  1  1  0  0  0
  6  4  1  0  0  0  0
  6  7  1  0  0  0  0
  7  3  1  0  0  0  0
  7 12  1  1  0  0  0
  8  7  1  0  0  0  0
  8  1  1  0  0  0  0
  9  2  1  0  0  0  0
 13 15  1  0  0  0  0
 13 16  1  0  0  0  0
 14 13  1  0  0  0  0
 17 20  1  0  0  0  0
 18 17  1  0  0  0  0
 19 17  1  0  0  0  0
 20 21  1  0  0  0  0
 22  6  1  0  0  0  0
 23 22  2  0  0  0  0
 24 22  1  0  0  0  0
 25 30  1  0  0  0  0
 25 24  2  0  0  0  0
 26 25  1  0  0  0  0
 27 26  2  0  0  0  0
 27 28  1  0  0  0  0
 28 29  2  0  0  0  0
 29 24  1  0  0  0  0
 31 26  1  0  0  0  0
 32 33  2  0  0  0  0
 33 34  1  0  0  0  0
 33 39  1  0  0  0  0
 34 28  1  1  0  0  0
 34 35  1  0  0  0  0
 35 36  1  0  0  0  0
 37 35  1  0  0  0  0
 37 38  1  0  0  0  0
 39 40  1  0  0  0  0
 39 37  1  0  0  0  0
M  END
>  <minimizedAffinity>
-5.25564194

$$$$

 OpenBabel03262522083D

 40 43  0  0  1  0  0  0  0  0999 V2000
   36.9650   26.5970   31.3800 C   0  0  2  0  0  0  0  0  0  0  0  0
   38.3560   26.5110   30.8470 C   0  0  0  0  0  0  0  0  0  0  0  0
   39.2720   26.2430   31.9520 N   0  0  0  0  0  0  0  0  0  0  0  0
   40.2730   25.7040   32.8410 C   0  0  0  0  0  0  0  0  0  0  0  0
   41.1750   24.8550   32.7700 O   0  0  0  0  0  0  0  0  0  0  0  0
   39.8900   26.5160   33.9610 C   0  0  1  0  0  0  0  0  0  0  0  0
   39.0520   27.2650   32.9270 C   0  0  2  0  0  0  0  0  0  0  0  0
   37.2610   27.1220   33.1280 S   0  0  0  0  0  0  0  0  0  0  0  0
   38.3790   25.6070   30.1720 H   0  0  0  0  0  0  0  0  0  0  0  0
   38.6690   27.3620   30.2380 H   0  0  0  0  0  0  0  0  0  0  0  0
   40.6100   27.2470   34.4140 H   0  0  0  0  0  0  0  0  0  0  0  0
   39.4160   28.2780   32.6720 H   0  0  0  0  0  0  0  0  0  0  0  0
   36.1230   25.3770   31.2590 C   0  0  0  0  0  0  0  0  0  0  0  0
   35.7600   24.9970   32.2430 H   0  0  0  0  0  0  0  0  0  0  0  0
   36.7130   24.5750   30.7860 H   0  0  0  0  0  0  0  0  0  0  0  0
   35.2460   25.6060   30.6150 H   0  0  0  0  0  0  0  0  0  0  0  0
   36.2840   27.8260   30.7400 C   0  0  0  0  0  0  0  0  0  0  0  0
   36.6750   28.6980   31.3100 H   0  0  0  0  0  0  0  0  0  0  0  0
   35.1850   27.7490   30.8450 H   0  0  0  0  0  0  0  0  0  0  0  0
   36.6370   27.8750   29.3920 O   0  0  0  0  0  0  0  0  0  0  0  0
   36.1890   28.6720   29.0280 H   0  0  0  0  0  0  0  0  0  0  0  0
   39.1440   25.8630   35.0460 C   0  0  0  0  0  0  0  0  0  0  0  0
   38.7120   26.6850   35.9190 O   0  0  0  0  0  0  0  0  0  0  0  0
   38.9090   24.4540   35.1320 C   0  0  0  0  0  0  0  0  0  0  0  0
   39.6020   23.7330   36.0810 C   0  0  0  0  0  0  0  0  0  0  0  0
   39.3650   22.3380   36.1580 C   0  0  0  0  0  0  0  0  0  0  0  0
   38.4640   21.7960   35.2860 N   0  0  0  0  0  0  0  0  0  0  0  0
   37.8120   22.5180   34.3800 C   0  0  0  0  0  0  0  0  0  0  0  0
   38.0280   23.8550   34.2950 N   0  0  0  0  0  0  0  0  0  0  0  0
   40.3030   24.2070   36.7480 H   0  0  0  0  0  0  0  0  0  0  0  0
   39.9010   21.7690   36.8950 H   0  0  0  0  0  0  0  0  0  0  0  0
   38.4740   21.2830   31.7240 O   0  0  0  0  0  0  0  0  0  0  0  0
   37.4500   21.0170   32.4370 C   0  0  0  0  0  0  0  0  0  0  0  0
   36.8560   21.8610   33.4740 C   0  0  1  0  0  3  0  0  0  0  0  0
   35.9790   20.8470   34.2150 C   0  0  0  0  0  3  0  0  0  0  0  0
   36.5820   20.2060   34.8940 H   0  0  0  0  0  0  0  0  0  0  0  0
   35.4880   20.0310   33.0110 C   0  0  0  0  0  3  0  0  0  0  0  0
   34.9850   19.1060   33.2980 H   0  0  0  0  0  0  0  0  0  0  0  0
   36.7340   19.7750   32.2760 N   0  0  0  0  0  0  0  0  0  0  0  0
   37.0560   18.9190   31.7540 H   0  0  0  0  0  0  0  0  0  0  0  0
  1 17  1  6  0  0  0
  1  8  1  0  0  0  0
  2  1  1  0  0  0  0
  2  3  1  0  0  0  0
  3  4  1  0  0  0  0
  3  7  1  0  0  0  0
  4  6  1  0  0  0  0
  5  4  2  0  0  0  0
  6 11  1  1  0  0  0
  6 22  1  0  0  0  0
  7 12  1  6  0  0  0
  7  8  1  0  0  0  0
  7  6  1  0  0  0  0
  9  2  1  0  0  0  0
 10  2  1  0  0  0  0
 13  1  1  0  0  0  0
 13 14  1  0  0  0  0
 15 13  1  0  0  0  0
 16 13  1  0  0  0  0
 17 19  1  0  0  0  0
 17 18  1  0  0  0  0
 20 17  1  0  0  0  0
 21 20  1  0  0  0  0
 22 24  1  0  0  0  0
 22 23  2  0  0  0  0
 24 25  1  0  0  0  0
 25 26  2  0  0  0  0
 25 30  1  0  0  0  0
 26 31  1  0  0  0  0
 27 26  1  0  0  0  0
 28 27  2  0  0  0  0
 29 28  1  0  0  0  0
 29 24  2  0  0  0  0
 32 33  2  0  0  0  0
 33 34  1  0  0  0  0
 34 35  1  0  0  0  0
 34 28  1  1  0  0  0
 35 36  1  0  0  0  0
 37 38  1  0  0  0  0
 37 35  1  0  0  0  0
 39 33  1  0  0  0  0
 39 37  1  0  0  0  0
 40 39  1  0  0  0  0
M  END
>  <minimizedAffinity>
-5.23777866

$$$$

 OpenBabel03262522083D

 40 43  0  0  1  0  0  0  0  0999 V2000
   38.7660   26.2040   35.0730 C   0  0  2  0  0  0  0  0  0  0  0  0
   38.6010   25.5490   36.4040 C   0  0  0  0  0  0  0  0  0  0  0  0
   38.8870   24.1240   36.2710 N   0  0  0  0  0  0  0  0  0  0  0  0
   39.4000   22.7810   36.4000 C   0  0  0  0  0  0  0  0  0  0  0  0
   40.1080   22.1630   37.2110 O   0  0  0  0  0  0  0  0  0  0  0  0
   38.7950   22.3040   35.1890 C   0  0  1  0  0  0  0  0  0  0  0  0
   38.0360   23.6270   35.2350 C   0  0  2  0  0  0  0  0  0  0  0  0
   38.4360   24.7980   33.9170 S   0  0  0  0  0  0  0  0  0  0  0  0
   39.4000   25.9860   37.0700 H   0  0  0  0  0  0  0  0  0  0  0  0
   37.6460   25.7430   36.8970 H   0  0  0  0  0  0  0  0  0  0  0  0
   38.0410   21.4740   35.2120 H   0  0  0  0  0  0  0  0  0  0  0  0
   36.9590   23.5440   35.4780 H   0  0  0  0  0  0  0  0  0  0  0  0
   40.0600   26.8920   34.8190 C   0  0  0  0  0  0  0  0  0  0  0  0
   40.6070   26.4830   33.9360 H   0  0  0  0  0  0  0  0  0  0  0  0
   40.7120   26.7760   35.7000 H   0  0  0  0  0  0  0  0  0  0  0  0
   39.8670   27.9740   34.6530 H   0  0  0  0  0  0  0  0  0  0  0  0
   37.5650   27.1470   34.8530 C   0  0  0  0  0  0  0  0  0  0  0  0
   36.6680   26.5040   34.9860 H   0  0  0  0  0  0  0  0  0  0  0  0
   37.5970   27.5710   33.8310 H   0  0  0  0  0  0  0  0  0  0  0  0
   37.6260   28.1690   35.8000 O   0  0  0  0  0  0  0  0  0  0  0  0
   36.8430   28.7400   35.6280 H   0  0  0  0  0  0  0  0  0  0  0  0
   39.6740   22.1040   34.0270 C   0  0  0  0  0  0  0  0  0  0  0  0
   40.9090   22.2500   34.3050 O   0  0  0  0  0  0  0  0  0  0  0  0
   39.2140   21.7740   32.7130 C   0  0  0  0  0  0  0  0  0  0  0  0
   40.0800   21.9500   31.6550 C   0  0  0  0  0  0  0  0  0  0  0  0
   39.6150   21.6230   30.3570 C   0  0  0  0  0  0  0  0  0  0  0  0
   38.3380   21.1540   30.2370 N   0  0  0  0  0  0  0  0  0  0  0  0
   37.5250   20.9960   31.2780 C   0  0  0  0  0  0  0  0  0  0  0  0
   37.9570   21.3050   32.5260 N   0  0  0  0  0  0  0  0  0  0  0  0
   41.0790   22.3230   31.8000 H   0  0  0  0  0  0  0  0  0  0  0  0
   40.2840   21.7570   29.5260 H   0  0  0  0  0  0  0  0  0  0  0  0
   36.7870   18.1370   30.7390 O   0  0  0  0  0  0  0  0  0  0  0  0
   36.0070   19.0350   31.1970 C   0  0  0  0  0  0  0  0  0  0  0  0
   36.1620   20.4850   31.0680 C   0  0  1  0  0  3  0  0  0  0  0  0
   35.1970   20.9830   32.1490 C   0  0  0  0  0  3  0  0  0  0  0  0
   35.6400   20.8910   33.1640 H   0  0  0  0  0  0  0  0  0  0  0  0
   34.0770   19.9510   31.9630 C   0  0  0  0  0  3  0  0  0  0  0  0
   33.3360   19.9740   32.7650 H   0  0  0  0  0  0  0  0  0  0  0  0
   34.8180   18.6830   31.9350 N   0  0  0  0  0  0  0  0  0  0  0  0
   34.5760   17.7400   32.3370 H   0  0  0  0  0  0  0  0  0  0  0  0
  1 13  1  6  0  0  0
  1  2  1  0  0  0  0
  2 10  1  0  0  0  0
  2  9  1  0  0  0  0
  3  4  1  0  0  0  0
  3  2  1  0  0  0  0
  4  5  2  0  0  0  0
  6 11  1  1  0  0  0
  6  7  1  0  0  0  0
  6  4  1  0  0  0  0
  7 12  1  1  0  0  0
  7  3  1  0  0  0  0
  8  1  1  0  0  0  0
  8  7  1  0  0  0  0
 13 15  1  0  0  0  0
 14 13  1  0  0  0  0
 16 13  1  0  0  0  0
 17 18  1  0  0  0  0
 17  1  1  0  0  0  0
 17 20  1  0  0  0  0
 19 17  1  0  0  0  0
 21 20  1  0  0  0  0
 22 23  2  0  0  0  0
 22  6  1  0  0  0  0
 24 22  1  0  0  0  0
 25 30  1  0  0  0  0
 25 24  2  0  0  0  0
 26 25  1  0  0  0  0
 27 26  2  0  0  0  0
 27 28  1  0  0  0  0
 28 29  2  0  0  0  0
 29 24  1  0  0  0  0
 31 26  1  0  0  0  0
 32 33  2  0  0  0  0
 33 39  1  0  0  0  0
 34 33  1  0  0  0  0
 34 28  1  1  0  0  0
 34 35  1  0  0  0  0
 35 36  1  0  0  0  0
 37 35  1  0  0  0  0
 37 38  1  0  0  0  0
 39 37  1  0  0  0  0
 39 40  1  0  0  0  0
M  END
>  <minimizedAffinity>
-5.20434952

$$$$

 OpenBabel03262522083D

 40 43  0  0  1  0  0  0  0  0999 V2000
   32.9840   31.7510   36.2510 C   0  0  2  0  0  0  0  0  0  0  0  0
   32.3010   32.6280   35.2550 C   0  0  0  0  0  0  0  0  0  0  0  0
   32.5270   32.0920   33.9160 N   0  0  0  0  0  0  0  0  0  0  0  0
   32.3970   31.5710   32.5760 C   0  0  0  0  0  0  0  0  0  0  0  0
   31.4900   31.4680   31.7360 O   0  0  0  0  0  0  0  0  0  0  0  0
   33.7660   31.1530   32.4750 C   0  0  1  0  0  0  0  0  0  0  0  0
   33.9430   31.9680   33.7550 C   0  0  2  0  0  0  0  0  0  0  0  0
   34.3410   31.0110   35.2360 S   0  0  0  0  0  0  0  0  0  0  0  0
   31.1960   32.5410   35.4640 H   0  0  0  0  0  0  0  0  0  0  0  0
   32.5490   33.6900   35.3310 H   0  0  0  0  0  0  0  0  0  0  0  0
   34.4450   31.5890   31.6950 H   0  0  0  0  0  0  0  0  0  0  0  0
   34.5110   32.9100   33.6380 H   0  0  0  0  0  0  0  0  0  0  0  0
   32.1400   30.7420   36.9440 C   0  0  0  0  0  0  0  0  0  0  0  0
   32.4900   29.6940   36.7830 H   0  0  0  0  0  0  0  0  0  0  0  0
   31.1070   30.8110   36.5680 H   0  0  0  0  0  0  0  0  0  0  0  0
   32.1410   30.9580   38.0350 H   0  0  0  0  0  0  0  0  0  0  0  0
   33.7300   32.6570   37.2530 C   0  0  0  0  0  0  0  0  0  0  0  0
   33.0960   32.6540   38.1680 H   0  0  0  0  0  0  0  0  0  0  0  0
   33.8220   33.6810   36.8430 H   0  0  0  0  0  0  0  0  0  0  0  0
   34.9930   32.1150   37.4840 O   0  0  0  0  0  0  0  0  0  0  0  0
   35.4290   32.7180   38.1290 H   0  0  0  0  0  0  0  0  0  0  0  0
   34.0450   29.7140   32.5840 C   0  0  0  0  0  0  0  0  0  0  0  0
   33.0150   29.0280   32.8900 O   0  0  0  0  0  0  0  0  0  0  0  0
   35.3280   29.1200   32.3670 C   0  0  0  0  0  0  0  0  0  0  0  0
   36.0340   29.4830   31.2400 C   0  0  0  0  0  0  0  0  0  0  0  0
   37.3040   28.8880   31.0330 C   0  0  0  0  0  0  0  0  0  0  0  0
   37.7470   27.9920   31.9640 N   0  0  0  0  0  0  0  0  0  0  0  0
   37.0410   27.6610   33.0410 C   0  0  0  0  0  0  0  0  0  0  0  0
   35.8250   28.2230   33.2530 N   0  0  0  0  0  0  0  0  0  0  0  0
   35.6420   30.1960   30.5340 H   0  0  0  0  0  0  0  0  0  0  0  0
   37.8610   29.1660   30.1570 H   0  0  0  0  0  0  0  0  0  0  0  0
   37.0520   24.6780   32.6980 O   0  0  0  0  0  0  0  0  0  0  0  0
   37.8220   25.3440   33.4670 C   0  0  0  0  0  0  0  0  0  0  0  0
   37.5870   26.6870   33.9990 C   0  0  1  0  0  3  0  0  0  0  0  0
   38.9970   27.0730   34.4600 C   0  0  0  0  0  3  0  0  0  0  0  0
   39.6350   27.3790   33.6040 H   0  0  0  0  0  0  0  0  0  0  0  0
   39.4510   25.7120   35.0030 C   0  0  0  0  0  3  0  0  0  0  0  0
   40.5210   25.6750   35.2220 H   0  0  0  0  0  0  0  0  0  0  0  0
   39.0810   24.7980   33.9140 N   0  0  0  0  0  0  0  0  0  0  0  0
   39.5790   23.9540   33.5300 H   0  0  0  0  0  0  0  0  0  0  0  0
  1 13  1  1  0  0  0
  1 17  1  0  0  0  0
  2 10  1  0  0  0  0
  2  9  1  0  0  0  0
  2  1  1  0  0  0  0
  3  2  1  0  0  0  0
  4  3  1  0  0  0  0
  5  4  2  0  0  0  0
  6 11  1  6  0  0  0
  6  4  1  0  0  0  0
  6 22  1  0  0  0  0
  6  7  1  0  0  0  0
  7 12  1  6  0  0  0
  7  3  1  0  0  0  0
  7  8  1  0  0  0  0
  8  1  1  0  0  0  0
 13 16  1  0  0  0  0
 14 13  1  0  0  0  0
 15 13  1  0  0  0  0
 17 20  1  0  0  0  0
 17 18  1  0  0  0  0
 19 17  1  0  0  0  0
 20 21  1  0  0  0  0
 22 23  2  0  0  0  0
 24 22  1  0  0  0  0
 24 29  1  0  0  0  0
 25 24  2  0  0  0  0
 26 25  1  0  0  0  0
 26 27  2  0  0  0  0
 27 28  1  0  0  0  0
 28 29  2  0  0  0  0
 30 25  1  0  0  0  0
 31 26  1  0  0  0  0
 32 33  2  0  0  0  0
 33 39  1  0  0  0  0
 33 34  1  0  0  0  0
 34 28  1  6  0  0  0
 34 35  1  0  0  0  0
 35 37  1  0  0  0  0
 36 35  1  0  0  0  0
 37 38  1  0  0  0  0
 39 37  1  0  0  0  0
 40 39  1  0  0  0  0
M  END
>  <minimizedAffinity>
-5.18433523

$$$$
