REMARK  Name = 
REMARK  5 active torsions:
REMARK  status: ('A' for Active; 'I' for Inactive)
REMARK    1  A    between atoms: C_1  and  C_24
REMARK    2  A    between atoms: C_5  and  C_8
REMARK    3  A    between atoms: C_7  and  S_13
REMARK    4  A    between atoms: S_13  and  C_16
REMARK    5  A    between atoms: C_22  and  C_36
REMARK                            x       y       z     vdW  Elec       q    Type
REMARK                         _______ _______ _______ _____ _____    ______ ____
ROOT
ATOM      1  C   UNL     1      35.683  29.817  48.495  0.00  0.00    +0.000 A 
ATOM      2  C   UNL     1      35.472  28.885  49.449  0.00  0.00    +0.000 A 
ATOM      3  C   UNL     1      34.676  27.829  49.223  0.00  0.00    +0.000 A 
ATOM      4  N   UNL     1      34.076  27.705  48.009  0.00  0.00    +0.000 NA
ATOM      5  C   UNL     1      34.292  28.627  47.080  0.00  0.00    +0.000 A 
ATOM      6  N   UNL     1      35.087  29.685  47.301  0.00  0.00    +0.000 NA
ATOM      7  H   UNL     1      35.959  29.001  50.412  0.00  0.00    +0.000 HD
ATOM      8  H   UNL     1      34.519  27.091  50.002  0.00  0.00    +0.000 HD
ENDROOT
BRANCH   5  10
ATOM      9  C   UNL     1      32.264  28.078  45.808  0.00  0.00    +0.000 A 
ATOM     10  C   UNL     1      33.626  28.383  45.821  0.00  0.00    +0.000 A 
ATOM     11  C   UNL     1      34.415  28.449  44.690  0.00  0.00    +0.000 A 
ATOM     12  C   UNL     1      33.841  28.200  43.462  0.00  0.00    +0.000 A 
ATOM     13  C   UNL     1      32.507  27.890  43.350  0.00  0.00    +0.000 A 
ATOM     14  C   UNL     1      31.812  27.849  44.515  0.00  0.00    +0.000 A 
ATOM     15  H   UNL     1      35.467  28.690  44.749  0.00  0.00    +0.000 HD
ATOM     16  H   UNL     1      34.480  28.257  42.580  0.00  0.00    +0.000 HD
ATOM     17  H   UNL     1      32.047  27.694  42.408  0.00  0.00    +0.000 HD
ATOM     18  H   UNL     1      30.744  27.601  44.423  0.00  0.00    +0.000 HD
BRANCH   9  19
ATOM     19  S   UNL     1      31.276  28.010  47.147  0.00  0.00    +0.000 S 
ATOM     20  O   UNL     1      30.469  26.741  46.719  0.00  0.00    +0.000 OA
ATOM     21  O   UNL     1      30.357  29.204  47.088  0.00  0.00    +0.000 OA
BRANCH  19  22
ATOM     22  C   UNL     1      30.979  27.617  48.667  0.00  0.00    +0.000 C 
ATOM     23  F   UNL     1      30.541  26.349  49.104  0.00  0.00    +0.000 F 
ATOM     24  F   UNL     1      29.687  28.189  49.081  0.00  0.00    +0.000 F 
ATOM     25  F   UNL     1      31.548  28.341  49.752  0.00  0.00    +0.000 F 
ENDBRANCH  19  22
ENDBRANCH   9  19
ENDBRANCH   5  10
BRANCH   1  30
ATOM     26  C   UNL     1      37.312  32.757  49.969  0.00  0.00    +0.000 A 
ATOM     27  C   UNL     1      38.257  33.110  48.985  0.00  0.00    +0.000 A 
ATOM     28  C   UNL     1      38.306  32.323  47.834  0.00  0.00    +0.000 A 
ATOM     29  N   UNL     1      37.445  31.271  47.735  0.00  0.00    +0.000 NA
ATOM     30  C   UNL     1      36.544  30.963  48.713  0.00  0.00    +0.000 A 
ATOM     31  N   UNL     1      36.486  31.710  49.823  0.00  0.00    +0.000 NA
ATOM     32  H   UNL     1      37.281  33.368  50.853  0.00  0.00    +0.000 HD
ATOM     33  H   UNL     1      38.901  33.962  49.148  0.00  0.00    +0.000 HD
BRANCH  28  36
ATOM     34  O   UNL     1      40.781  30.812  47.230  0.00  0.00    +0.000 OA
ATOM     35  C   UNL     1      40.198  31.584  46.413  0.00  0.00    +0.000 C 
ATOM     36  C   UNL     1      39.279  32.663  46.786  0.00  0.00    +0.000 C 
ATOM     37  C   UNL     1      38.582  32.931  45.446  0.00  0.00    +0.000 C 
ATOM     38  H   UNL     1      37.849  32.124  45.311  0.00  0.00    +0.000 HD
ATOM     39  C   UNL     1      39.750  32.724  44.478  0.00  0.00    +0.000 C 
ATOM     40  H   UNL     1      40.432  33.585  44.516  0.00  0.00    +0.000 HD
ATOM     41  N   UNL     1      40.371  31.493  44.984  0.00  0.00    +0.000 N 
ATOM     42  H   UNL     1      40.853  30.675  44.505  0.00  0.00    +0.000 HD
ENDBRANCH  28  36
ENDBRANCH   1  30
TORSDOF 5
