
 OpenBabel03272504273D

 42 45  0  0  1  0  0  0  0  0999 V2000
   35.4840   29.5100   48.3190 C   0  0  0  0  0  0  0  0  0  0  0  0
   35.2670   28.7420   49.4090 C   0  0  0  0  0  0  0  0  0  0  0  0
   34.3860   27.7310   49.3790 C   0  0  0  0  0  0  0  0  0  0  0  0
   33.7060   27.4830   48.2280 N   0  0  0  0  0  0  0  0  0  0  0  0
   33.9290   28.2440   47.1650 C   0  0  0  0  0  0  0  0  0  0  0  0
   34.8090   29.2570   47.1890 N   0  0  0  0  0  0  0  0  0  0  0  0
   35.8190   28.9550   50.3190 H   0  0  0  0  0  0  0  0  0  0  0  0
   34.2250   27.1250   50.2650 H   0  0  0  0  0  0  0  0  0  0  0  0
   31.7950   27.6750   46.0920 C   0  0  0  0  0  0  0  0  0  0  0  0
   33.1720   27.8770   45.9900 C   0  0  0  0  0  0  0  0  0  0  0  0
   33.8920   27.7270   44.8220 C   0  0  0  0  0  0  0  0  0  0  0  0
   33.2280   27.3520   43.6740 C   0  0  0  0  0  0  0  0  0  0  0  0
   31.8720   27.1290   43.6770 C   0  0  0  0  0  0  0  0  0  0  0  0
   31.2490   27.3020   44.8700 C   0  0  0  0  0  0  0  0  0  0  0  0
   34.9590   27.8950   44.7910 H   0  0  0  0  0  0  0  0  0  0  0  0
   33.8140   27.2390   42.7610 H   0  0  0  0  0  0  0  0  0  0  0  0
   31.3430   26.8380   42.7980 H   0  0  0  0  0  0  0  0  0  0  0  0
   30.1640   27.1230   44.8700 H   0  0  0  0  0  0  0  0  0  0  0  0
   30.8890   27.8670   47.4760 S   0  0  0  0  0  0  0  0  0  0  0  0
   29.9360   26.6490   47.2470 O   0  0  0  0  0  0  0  0  0  0  0  0
   30.0900   29.1360   47.3170 O   0  0  0  0  0  0  0  0  0  0  0  0
   30.6490   27.6870   49.0460 C   0  0  0  0  0  0  0  0  0  0  0  0
   30.1050   26.5360   49.6540 F   0  0  0  0  0  0  0  0  0  0  0  0
   29.4560   28.4480   49.4530 F   0  0  0  0  0  0  0  0  0  0  0  0
   31.3610   28.4600   50.0050 F   0  0  0  0  0  0  0  0  0  0  0  0
   37.5380   32.3750   49.3410 C   0  0  0  0  0  0  0  0  0  0  0  0
   38.2880   32.6450   48.1800 C   0  0  0  0  0  0  0  0  0  0  0  0
   38.0640   31.8300   47.0700 C   0  0  0  0  0  0  0  0  0  0  0  0
   37.1420   30.8320   47.1780 N   0  0  0  0  0  0  0  0  0  0  0  0
   36.4350   30.6040   48.3240 C   0  0  0  0  0  0  0  0  0  0  0  0
   36.6410   31.3790   49.3970 N   0  0  0  0  0  0  0  0  0  0  0  0
   37.7170   33.0070   50.1920 H   0  0  0  0  0  0  0  0  0  0  0  0
   39.0000   33.4580   48.1830 H   0  0  0  0  0  0  0  0  0  0  0  0
   40.1710   33.8880   46.7470 O   0  0  0  0  0  0  0  0  0  0  0  0
   40.0600   32.8590   46.0190 C   0  0  0  0  0  0  0  0  0  0  0  0
   38.8280   32.0840   45.8400 C   0  0  1  0  0  0  0  0  0  0  0  0
   39.3850   30.7810   45.2520 C   0  0  0  0  0  0  0  0  0  0  0  0
   39.8150   30.2200   46.0940 H   0  0  0  0  0  0  0  0  0  0  0  0
   40.5120   31.3290   44.3760 C   0  0  0  0  0  0  0  0  0  0  0  0
   40.0980   31.7880   43.4660 H   0  0  0  0  0  0  0  0  0  0  0  0
   41.1560   32.3100   45.2580 N   0  0  0  0  0  0  0  0  0  0  0  0
   42.1660   32.6170   45.3840 H   0  0  0  0  0  0  0  0  0  0  0  0
  1 30  1  0  0  0  0
  1  2  1  0  0  0  0
  2  7  1  0  0  0  0
  3  2  2  0  0  0  0
  3  8  1  0  0  0  0
  4  3  1  0  0  0  0
  5  6  1  0  0  0  0
  5  4  2  0  0  0  0
  6  1  2  0  0  0  0
  9 19  1  0  0  0  0
 10  9  1  0  0  0  0
 10  5  1  0  0  0  0
 11 10  2  0  0  0  0
 12 13  2  0  0  0  0
 12 11  1  0  0  0  0
 13 14  1  0  0  0  0
 14  9  2  0  0  0  0
 15 11  1  0  0  0  0
 16 12  1  0  0  0  0
 17 13  1  0  0  0  0
 18 14  1  0  0  0  0
 19 22  1  0  0  0  0
 20 19  2  0  0  0  0
 21 19  2  0  0  0  0
 22 24  1  0  0  0  0
 22 23  1  0  0  0  0
 22 25  1  0  0  0  0
 26 31  1  0  0  0  0
 26 32  1  0  0  0  0
 27 33  1  0  0  0  0
 27 26  2  0  0  0  0
 28 29  2  0  0  0  0
 28 27  1  0  0  0  0
 29 30  1  0  0  0  0
 30 31  2  0  0  0  0
 35 34  2  0  0  0  0
 36 35  1  0  0  0  0
 36 28  1  1  0  0  0
 37 36  1  0  0  0  0
 37 38  1  0  0  0  0
 39 37  1  0  0  0  0
 39 41  1  0  0  0  0
 40 39  1  0  0  0  0
 41 42  1  0  0  0  0
 41 35  1  0  0  0  0
M  END
>  <minimizedAffinity>
-6.49295187

>  <minimizedRMSD>
0.889297962

$$$$
