
 OpenBabel03272510263D

 45 49  0  0  1  0  0  0  0  0999 V2000
   39.3690   33.4530   42.9860 O   0  0  0  0  0  0  0  0  0  0  0  0
   36.1810   30.2030   46.7480 C   0  0  0  0  0  0  0  0  0  0  0  0
   37.0590   30.7780   47.6650 C   0  0  0  0  0  0  0  0  0  0  0  0
   38.0480   31.6660   47.2500 C   0  0  0  0  0  0  0  0  0  0  0  0
   38.1070   31.9400   45.8920 C   0  0  0  0  0  0  0  0  0  0  0  0
   38.9820   32.7670   45.2520 N   0  0  0  0  0  0  0  0  0  0  0  0
   38.6580   32.7110   43.9440 C   0  0  0  0  0  0  0  0  0  0  0  0
   37.6400   31.9000   43.7550 N   0  0  0  0  0  0  0  0  0  0  0  0
   37.2530   31.3880   44.9480 C   0  0  0  0  0  0  0  0  0  0  0  0
   36.2680   30.4980   45.3940 C   0  0  0  0  0  0  0  0  0  0  0  0
   35.4000   29.5090   47.0270 H   0  0  0  0  0  0  0  0  0  0  0  0
   38.7130   32.1010   47.9570 H   0  0  0  0  0  0  0  0  0  0  0  0
   39.7550   33.3340   45.6850 H   0  0  0  0  0  0  0  0  0  0  0  0
   35.6140   30.0800   44.6520 H   0  0  0  0  0  0  0  0  0  0  0  0
   37.5500   30.2540   51.3420 C   0  0  0  0  0  0  0  0  0  0  0  0
   37.8110   30.6750   50.0520 C   0  0  0  0  0  0  0  0  0  0  0  0
   36.8890   30.3930   49.0500 C   0  0  0  0  0  0  0  0  0  0  0  0
   35.7680   29.7100   49.4030 N   0  0  0  0  0  0  0  0  0  0  0  0
   35.5180   29.3010   50.6640 C   0  0  0  0  0  0  0  0  0  0  0  0
   36.4060   29.5750   51.6170 N   0  0  0  0  0  0  0  0  0  0  0  0
   38.3160   30.5110   52.0680 H   0  0  0  0  0  0  0  0  0  0  0  0
   38.7130   31.2240   49.7730 H   0  0  0  0  0  0  0  0  0  0  0  0
   34.6060   28.7590   50.8860 H   0  0  0  0  0  0  0  0  0  0  0  0
   38.8320   31.8000   41.5080 N   0  0  0  0  0  0  0  0  0  0  0  0
   38.9670   33.2440   41.6300 C   0  0  1  0  0  0  0  0  0  0  0  0
   37.6890   33.8840   41.3380 C   0  0  0  0  0  0  0  0  0  0  0  0
   37.3580   33.6350   39.9940 O   0  0  0  0  0  0  0  0  0  0  0  0
   37.3510   32.3230   39.6280 C   0  0  0  0  0  0  0  0  0  0  0  0
   38.5490   31.5470   40.1150 C   0  0  1  0  0  0  0  0  0  0  0  0
   39.7320   31.3810   41.7660 H   0  0  0  0  0  0  0  0  0  0  0  0
   39.7460   33.6820   40.9910 H   0  0  0  0  0  0  0  0  0  0  0  0
   37.8660   35.0030   41.3430 H   0  0  0  0  0  0  0  0  0  0  0  0
   36.7890   33.7290   41.8650 H   0  0  0  0  0  0  0  0  0  0  0  0
   37.2750   32.2610   38.5480 H   0  0  0  0  0  0  0  0  0  0  0  0
   36.4510   31.8330   40.0540 H   0  0  0  0  0  0  0  0  0  0  0  0
   38.2750   30.4710   40.0570 H   0  0  0  0  0  0  0  0  0  0  0  0
   41.6700   30.5400   40.4070 O   0  0  0  0  0  0  0  0  0  0  0  0
   40.6630   30.5460   39.6580 C   0  0  0  0  0  0  0  0  0  0  0  0
   39.7890   31.7190   39.2960 C   0  0  1  0  0  3  0  0  0  0  0  0
   39.5680   31.4080   37.8420 C   0  0  0  0  0  3  0  0  0  0  0  0
   40.5670   31.5370   37.3490 H   0  0  0  0  0  0  0  0  0  0  0  0
   39.3080   29.9310   37.8610 C   0  0  0  0  0  3  0  0  0  0  0  0
   38.2300   29.6920   37.9910 H   0  0  0  0  0  0  0  0  0  0  0  0
   40.1110   29.4290   38.9690 N   0  0  0  0  0  0  0  0  0  0  0  0
   40.2390   28.4190   39.1910 H   0  0  0  0  0  0  0  0  0  0  0  0
  1  7  1  0  0  0  0
  2 11  1  0  0  0  0
  2  3  1  0  0  0  0
  3 17  1  0  0  0  0
  4  3  2  0  0  0  0
  4 12  1  0  0  0  0
  5  4  1  0  0  0  0
  6 13  1  0  0  0  0
  6  5  1  0  0  0  0
  7  6  1  0  0  0  0
  8  7  2  0  0  0  0
  8  9  1  0  0  0  0
  9 10  1  0  0  0  0
  9  5  2  0  0  0  0
 10  2  2  0  0  0  0
 14 10  1  0  0  0  0
 15 20  1  0  0  0  0
 15 21  1  0  0  0  0
 16 15  2  0  0  0  0
 17 18  2  0  0  0  0
 17 16  1  0  0  0  0
 18 19  1  0  0  0  0
 19 23  1  0  0  0  0
 19 20  2  0  0  0  0
 22 16  1  0  0  0  0
 24 25  1  0  0  0  0
 24 30  1  0  0  0  0
 25 31  1  6  0  0  0
 25  1  1  0  0  0  0
 26 32  1  0  0  0  0
 26 25  1  0  0  0  0
 26 33  1  0  0  0  0
 27 26  1  0  0  0  0
 28 27  1  0  0  0  0
 28 35  1  0  0  0  0
 28 29  1  0  0  0  0
 29 36  1  6  0  0  0
 29 24  1  0  0  0  0
 34 28  1  0  0  0  0
 38 37  2  0  0  0  0
 39 40  1  6  0  0  0
 39 38  1  0  0  0  0
 39 29  1  0  0  0  0
 40 42  1  0  0  0  0
 41 40  1  0  0  0  0
 42 43  1  0  0  0  0
 42 44  1  0  0  0  0
 44 45  1  0  0  0  0
 44 38  1  0  0  0  0
M  END
>  <minimizedAffinity>
-5.67624283

>  <minimizedRMSD>
1.23340631

$$$$
