
 OpenBabel03272508303D

 32 34  0  0  1  0  0  0  0  0999 V2000
   36.3640   30.2640   46.8360 N   0  0  0  0  0  0  0  0  0  0  0  0
   35.6390   30.4990   45.5950 C   0  0  0  0  0  0  0  0  0  0  0  0
   36.5310   30.5700   44.4110 C   0  0  0  0  0  0  0  0  0  0  0  0
   37.7480   29.8780   44.6590 N   0  0  0  0  0  0  0  0  0  0  0  0
   38.4670   30.6900   45.6630 C   0  0  0  0  0  0  0  0  0  0  0  0
   37.8150   30.2900   46.9540 C   0  0  1  0  0  0  0  0  0  0  0  0
   34.8910   29.6790   45.4180 H   0  0  0  0  0  0  0  0  0  0  0  0
   35.0390   31.4270   45.6340 H   0  0  0  0  0  0  0  0  0  0  0  0
   36.0560   30.0640   43.5210 H   0  0  0  0  0  0  0  0  0  0  0  0
   36.7430   31.6130   44.1270 H   0  0  0  0  0  0  0  0  0  0  0  0
   38.3640   29.9450   43.8110 H   0  0  0  0  0  0  0  0  0  0  0  0
   39.5170   30.3650   45.6950 H   0  0  0  0  0  0  0  0  0  0  0  0
   38.3650   31.7730   45.4450 H   0  0  0  0  0  0  0  0  0  0  0  0
   38.1180   29.2420   47.1640 H   0  0  0  0  0  0  0  0  0  0  0  0
   35.5050   28.6780   48.5100 C   0  0  0  0  0  0  0  0  0  0  0  0
   35.6240   29.9910   48.0200 C   0  0  0  0  0  0  0  0  0  0  0  0
   35.0070   31.0360   48.7300 C   0  0  0  0  0  0  0  0  0  0  0  0
   34.3200   30.6870   49.8750 N   0  0  0  0  0  0  0  0  0  0  0  0
   34.2410   29.4030   50.2970 C   0  0  0  0  0  0  0  0  0  0  0  0
   34.8200   28.3890   49.6370 N   0  0  0  0  0  0  0  0  0  0  0  0
   35.9640   27.8550   47.9890 H   0  0  0  0  0  0  0  0  0  0  0  0
   35.0720   32.0460   48.3920 H   0  0  0  0  0  0  0  0  0  0  0  0
   33.6520   29.3950   51.2130 H   0  0  0  0  0  0  0  0  0  0  0  0
   38.0030   29.2750   49.9910 O   0  0  0  0  0  0  0  0  0  0  0  0
   38.1670   30.4040   49.4130 C   0  0  0  0  0  0  0  0  0  0  0  0
   38.2680   31.1190   48.1220 C   0  0  2  0  0  3  0  0  0  0  0  0
   37.3420   32.2800   48.4010 C   0  0  0  0  0  3  0  0  0  0  0  0
   36.3390   31.8450   48.5800 H   0  0  0  0  0  0  0  0  0  0  0  0
   37.9200   32.7490   49.7430 C   0  0  0  0  0  3  0  0  0  0  0  0
   38.8190   33.3600   49.5880 H   0  0  0  0  0  0  0  0  0  0  0  0
   38.3260   31.4790   50.3650 N   0  0  0  0  0  0  0  0  0  0  0  0
   38.6420   31.6410   51.3650 H   0  0  0  0  0  0  0  0  0  0  0  0
  1  6  1  0  0  0  0
  1 16  1  0  0  0  0
  2  8  1  0  0  0  0
  2  1  1  0  0  0  0
  3  4  1  0  0  0  0
  3  2  1  0  0  0  0
  4  5  1  0  0  0  0
  5 12  1  0  0  0  0
  5  6  1  0  0  0  0
  6 14  1  1  0  0  0
  6 26  1  0  0  0  0
  7  2  1  0  0  0  0
  9  3  1  0  0  0  0
 10  3  1  0  0  0  0
 11  4  1  0  0  0  0
 13  5  1  0  0  0  0
 15 20  1  0  0  0  0
 16 15  2  0  0  0  0
 16 17  1  0  0  0  0
 17 18  2  0  0  0  0
 18 19  1  0  0  0  0
 19 23  1  0  0  0  0
 20 19  2  0  0  0  0
 21 15  1  0  0  0  0
 22 17  1  0  0  0  0
 25 24  2  0  0  0  0
 25 31  1  0  0  0  0
 26 27  1  1  0  0  0
 26 25  1  0  0  0  0
 27 28  1  0  0  0  0
 27 29  1  0  0  0  0
 29 31  1  0  0  0  0
 30 29  1  0  0  0  0
 31 32  1  0  0  0  0
M  END
>  <minimizedAffinity>
-3.22072673

>  <minimizedRMSD>
2.61150837

$$$$
