
 OpenBabel03272510203D

 36 39  0  0  1  0  0  0  0  0999 V2000
   37.3420   29.1300   50.8060 Br  0  0  0  0  0  0  0  0  0  0  0  0
   35.9640   29.2790   49.4920 C   0  0  0  0  0  0  0  0  0  0  0  0
   35.9760   30.3090   48.5650 C   0  0  0  0  0  0  0  0  0  0  0  0
   34.9540   30.3650   47.6400 C   0  0  0  0  0  0  0  0  0  0  0  0
   33.9230   29.4350   47.6040 C   0  0  0  0  0  0  0  0  0  0  0  0
   33.9380   28.4320   48.5310 C   0  0  0  0  0  0  0  0  0  0  0  0
   34.9560   28.3650   49.4610 C   0  0  0  0  0  0  0  0  0  0  0  0
   34.9700   31.1600   46.9300 H   0  0  0  0  0  0  0  0  0  0  0  0
   33.1720   27.6640   48.5750 H   0  0  0  0  0  0  0  0  0  0  0  0
   34.9660   27.5710   50.1930 H   0  0  0  0  0  0  0  0  0  0  0  0
   37.9510   33.1990   49.5920 C   0  0  0  0  0  0  0  0  0  0  0  0
   39.0180   33.2200   48.6450 C   0  0  0  0  0  0  0  0  0  0  0  0
   39.0340   32.2380   47.6710 C   0  0  0  0  0  0  0  0  0  0  0  0
   38.0390   31.2930   47.6530 N   0  0  0  0  0  0  0  0  0  0  0  0
   37.0440   31.3070   48.5700 C   0  0  0  0  0  0  0  0  0  0  0  0
   37.0000   32.2620   49.5410 N   0  0  0  0  0  0  0  0  0  0  0  0
   37.9720   33.9840   50.3400 H   0  0  0  0  0  0  0  0  0  0  0  0
   39.7770   33.9950   48.7120 H   0  0  0  0  0  0  0  0  0  0  0  0
   39.8310   32.2240   46.9350 H   0  0  0  0  0  0  0  0  0  0  0  0
   32.8440   29.4790   46.6420 C   0  0  0  0  0  0  0  0  0  0  0  0
   32.1060   28.4000   46.2250 C   0  0  0  0  0  0  0  0  0  0  0  0
   31.0790   28.4870   45.2980 C   0  0  0  0  0  0  0  0  0  0  0  0
   30.7800   29.6770   44.7740 N   0  0  0  0  0  0  0  0  0  0  0  0
   31.4880   30.7490   45.1640 C   0  0  0  0  0  0  0  0  0  0  0  0
   32.4770   30.6480   46.0610 N   0  0  0  0  0  0  0  0  0  0  0  0
   32.3460   27.4260   46.6520 H   0  0  0  0  0  0  0  0  0  0  0  0
   30.5390   27.6000   45.0150 H   0  0  0  0  0  0  0  0  0  0  0  0
   28.6110   31.8500   45.0010 O   0  0  0  0  0  0  0  0  0  0  0  0
   29.6730   32.2750   44.4460 C   0  0  0  0  0  0  0  0  0  0  0  0
   31.1370   32.0630   44.5650 C   0  0  2  0  0  3  0  0  0  0  0  0
   31.6130   32.1160   43.1250 C   0  0  0  0  0  3  0  0  0  0  0  0
   32.6450   32.4530   43.0250 H   0  0  0  0  0  0  0  0  0  0  0  0
   30.6310   33.0530   42.4300 C   0  0  0  0  0  3  0  0  0  0  0  0
   31.1730   33.9880   42.2130 H   0  0  0  0  0  0  0  0  0  0  0  0
   29.5490   33.2440   43.3860 N   0  0  0  0  0  0  0  0  0  0  0  0
   28.8600   34.0200   43.1860 H   0  0  0  0  0  0  0  0  0  0  0  0
  2  1  1  0  0  0  0
  3 15  1  0  0  0  0
  3  2  2  0  0  0  0
  4  3  1  0  0  0  0
  5  4  2  0  0  0  0
  5  6  1  0  0  0  0
  6  9  1  0  0  0  0
  6  7  2  0  0  0  0
  7  2  1  0  0  0  0
  7 10  1  0  0  0  0
  8  4  1  0  0  0  0
 11 17  1  0  0  0  0
 12 18  1  0  0  0  0
 12 11  2  0  0  0  0
 13 12  1  0  0  0  0
 14 13  2  0  0  0  0
 14 15  1  0  0  0  0
 15 16  2  0  0  0  0
 16 11  1  0  0  0  0
 19 13  1  0  0  0  0
 20  5  1  0  0  0  0
 21 20  1  0  0  0  0
 21 26  1  0  0  0  0
 22 21  2  0  0  0  0
 23 24  2  0  0  0  0
 23 22  1  0  0  0  0
 24 25  1  0  0  0  0
 25 20  2  0  0  0  0
 27 22  1  0  0  0  0
 29 30  1  0  0  0  0
 29 28  2  0  0  0  0
 30 24  1  6  0  0  0
 31 30  1  0  0  0  0
 32 31  1  0  0  0  0
 33 31  1  0  0  0  0
 33 35  1  0  0  0  0
 34 33  1  0  0  0  0
 35 29  1  0  0  0  0
 36 35  1  0  0  0  0
M  END
>  <minimizedAffinity>
-6.46130466

>  <minimizedRMSD>
0.686448991

$$$$
