
 OpenBabel03272510203D

 36 39  0  0  1  0  0  0  0  0999 V2000
   37.2220   29.2260   50.9020 Br  0  0  0  0  0  0  0  0  0  0  0  0
   35.8850   29.3020   49.5400 C   0  0  0  0  0  0  0  0  0  0  0  0
   35.9370   30.2700   48.5500 C   0  0  0  0  0  0  0  0  0  0  0  0
   34.9430   30.2760   47.5930 C   0  0  0  0  0  0  0  0  0  0  0  0
   33.9030   29.3540   47.5850 C   0  0  0  0  0  0  0  0  0  0  0  0
   33.8790   28.4140   48.5740 C   0  0  0  0  0  0  0  0  0  0  0  0
   34.8690   28.3970   49.5370 C   0  0  0  0  0  0  0  0  0  0  0  0
   34.9890   31.0230   46.8340 H   0  0  0  0  0  0  0  0  0  0  0  0
   33.1050   27.6570   48.6440 H   0  0  0  0  0  0  0  0  0  0  0  0
   34.8480   27.6520   50.3180 H   0  0  0  0  0  0  0  0  0  0  0  0
   37.9570   33.1530   49.5040 C   0  0  0  0  0  0  0  0  0  0  0  0
   39.0100   33.1500   48.5390 C   0  0  0  0  0  0  0  0  0  0  0  0
   39.0000   32.1530   47.5800 C   0  0  0  0  0  0  0  0  0  0  0  0
   37.9950   31.2190   47.5910 N   0  0  0  0  0  0  0  0  0  0  0  0
   37.0150   31.2560   48.5240 C   0  0  0  0  0  0  0  0  0  0  0  0
   36.9960   32.2250   49.4820 N   0  0  0  0  0  0  0  0  0  0  0  0
   37.9990   33.9490   50.2390 H   0  0  0  0  0  0  0  0  0  0  0  0
   39.7780   33.9170   48.5830 H   0  0  0  0  0  0  0  0  0  0  0  0
   39.7840   32.1200   46.8310 H   0  0  0  0  0  0  0  0  0  0  0  0
   32.8540   29.3470   46.5890 C   0  0  0  0  0  0  0  0  0  0  0  0
   32.2470   28.2260   46.0830 C   0  0  0  0  0  0  0  0  0  0  0  0
   31.2440   28.2630   45.1280 C   0  0  0  0  0  0  0  0  0  0  0  0
   30.8360   29.4460   44.6650 N   0  0  0  0  0  0  0  0  0  0  0  0
   31.4150   30.5590   45.1420 C   0  0  0  0  0  0  0  0  0  0  0  0
   32.3830   30.5050   46.0660 N   0  0  0  0  0  0  0  0  0  0  0  0
   32.5770   27.2560   46.4600 H   0  0  0  0  0  0  0  0  0  0  0  0
   30.8090   27.3440   44.7740 H   0  0  0  0  0  0  0  0  0  0  0  0
   28.4640   31.4600   45.1600 O   0  0  0  0  0  0  0  0  0  0  0  0
   29.4650   31.9760   44.5720 C   0  0  0  0  0  0  0  0  0  0  0  0
   30.9430   31.8640   44.6100 C   0  0  2  0  0  3  0  0  0  0  0  0
   31.3410   31.9990   43.1530 C   0  0  0  0  0  3  0  0  0  0  0  0
   32.3410   32.4120   43.0140 H   0  0  0  0  0  0  0  0  0  0  0  0
   30.2630   32.8880   42.5410 C   0  0  0  0  0  3  0  0  0  0  0  0
   30.7270   33.8650   42.3340 H   0  0  0  0  0  0  0  0  0  0  0  0
   29.2200   32.9700   43.5560 N   0  0  0  0  0  0  0  0  0  0  0  0
   28.4700   33.7020   43.4180 H   0  0  0  0  0  0  0  0  0  0  0  0
  2  1  1  0  0  0  0
  3  2  2  0  0  0  0
  4  3  1  0  0  0  0
  5  4  2  0  0  0  0
  5  6  1  0  0  0  0
  6  9  1  0  0  0  0
  6  7  2  0  0  0  0
  7  2  1  0  0  0  0
  7 10  1  0  0  0  0
  8  4  1  0  0  0  0
 11 17  1  0  0  0  0
 12 18  1  0  0  0  0
 12 11  2  0  0  0  0
 13 14  2  0  0  0  0
 13 12  1  0  0  0  0
 14 15  1  0  0  0  0
 15  3  1  0  0  0  0
 15 16  2  0  0  0  0
 16 11  1  0  0  0  0
 19 13  1  0  0  0  0
 20  5  1  0  0  0  0
 21 26  1  0  0  0  0
 21 20  1  0  0  0  0
 22 21  2  0  0  0  0
 23 22  1  0  0  0  0
 23 24  2  0  0  0  0
 24 25  1  0  0  0  0
 25 20  2  0  0  0  0
 27 22  1  0  0  0  0
 29 30  1  0  0  0  0
 29 28  2  0  0  0  0
 30 24  1  6  0  0  0
 31 30  1  0  0  0  0
 32 31  1  0  0  0  0
 33 31  1  0  0  0  0
 33 35  1  0  0  0  0
 34 33  1  0  0  0  0
 35 29  1  0  0  0  0
 36 35  1  0  0  0  0
M  END
>  <minimizedAffinity>
-6.43886805

>  <minimizedRMSD>
0.381411612

$$$$
