REMARK  Name = 
REMARK  2 active torsions:
REMARK  status: ('A' for Active; 'I' for Inactive)
REMARK    1  A    between atoms: C_1  and  C_15
REMARK    2  A    between atoms: C_20  and  C_38
REMARK                            x       y       z     vdW  Elec       q    Type
REMARK                         _______ _______ _______ _____ _____    ______ ____
ROOT
ATOM      1  C   UNL     1      35.445  30.371  49.806  0.00  0.00    +0.000 C 
ATOM      2  C   UNL     1      36.480  31.106  48.957  0.00  0.00    +0.000 C 
ATOM      3  C   UNL     1      37.868  30.625  49.184  0.00  0.00    +0.000 C 
ATOM      4  C   UNL     1      38.268  30.653  50.621  0.00  0.00    +0.000 C 
ATOM      5  C   UNL     1      37.237  30.099  51.539  0.00  0.00    +0.000 C 
ATOM      6  C   UNL     1      36.043  29.480  50.819  0.00  0.00    +0.000 C 
ATOM      7  H   UNL     1      34.733  31.096  50.252  0.00  0.00    +0.000 HD
ATOM      8  H   UNL     1      36.441  32.169  49.267  0.00  0.00    +0.000 HD
ATOM      9  H   UNL     1      36.248  31.084  47.878  0.00  0.00    +0.000 HD
ATOM     10  H   UNL     1      38.551  31.206  48.570  0.00  0.00    +0.000 HD
ATOM     11  H   UNL     1      37.990  29.556  48.846  0.00  0.00    +0.000 HD
ATOM     12  H   UNL     1      39.252  30.133  50.701  0.00  0.00    +0.000 HD
ATOM     13  H   UNL     1      38.461  31.722  50.874  0.00  0.00    +0.000 HD
ATOM     14  H   UNL     1      36.925  30.867  52.287  0.00  0.00    +0.000 HD
ATOM     15  H   UNL     1      37.721  29.278  52.118  0.00  0.00    +0.000 HD
ATOM     16  H   UNL     1      36.401  28.516  50.407  0.00  0.00    +0.000 HD
ENDROOT
BRANCH   1  17
ATOM     17  C   UNL     1      34.601  29.529  48.894  0.00  0.00    +0.000 A 
ATOM     18  C   UNL     1      34.109  30.178  47.760  0.00  0.00    +0.000 A 
ATOM     19  C   UNL     1      33.311  29.425  46.891  0.00  0.00    +0.000 A 
ATOM     20  N   UNL     1      33.049  28.094  47.190  0.00  0.00    +0.000 NA
ATOM     21  C   UNL     1      33.558  27.509  48.319  0.00  0.00    +0.000 A 
ATOM     22  N   UNL     1      34.316  28.219  49.145  0.00  0.00    +0.000 NA
ATOM     23  N   UNL     1      32.768  29.979  45.713  0.00  0.00    +0.000 N 
ATOM     24  C   UNL     1      33.567  30.490  44.727  0.00  0.00    +0.000 A 
ATOM     25  C   UNL     1      33.021  31.025  43.584  0.00  0.00    +0.000 A 
ATOM     26  C   UNL     1      31.658  31.028  43.464  0.00  0.00    +0.000 A 
ATOM     27  O   UNL     1      31.144  31.519  42.413  0.00  0.00    +0.000 OA
ATOM     28  N   UNL     1      30.858  30.523  44.436  0.00  0.00    +0.000 N 
ATOM     29  C   UNL     1      31.452  30.015  45.531  0.00  0.00    +0.000 A 
ATOM     30  O   UNL     1      30.622  29.566  46.385  0.00  0.00    +0.000 OA
ATOM     31  H   UNL     1      34.264  31.192  47.464  0.00  0.00    +0.000 HD
ATOM     32  H   UNL     1      33.315  26.471  48.490  0.00  0.00    +0.000 HD
ATOM     33  H   UNL     1      34.652  30.462  44.874  0.00  0.00    +0.000 HD
ATOM     34  H   UNL     1      33.715  31.411  42.847  0.00  0.00    +0.000 HD
ATOM     35  H   UNL     1      29.825  30.553  44.290  0.00  0.00    +0.000 HD
ENDBRANCH   1  17
BRANCH   6  38
ATOM     36  O   UNL     1      34.397  26.707  51.585  0.00  0.00    +0.000 OA
ATOM     37  C   UNL     1      34.229  27.951  51.585  0.00  0.00    +0.000 C 
ATOM     38  C   UNL     1      35.031  29.164  51.905  0.00  0.00    +0.000 C 
ATOM     39  C   UNL     1      34.019  30.270  52.104  0.00  0.00    +0.000 C 
ATOM     40  H   UNL     1      34.399  31.249  51.689  0.00  0.00    +0.000 HD
ATOM     41  C   UNL     1      32.730  29.839  51.466  0.00  0.00    +0.000 C 
ATOM     42  H   UNL     1      31.876  29.859  52.190  0.00  0.00    +0.000 HD
ATOM     43  N   UNL     1      32.946  28.424  51.179  0.00  0.00    +0.000 N 
ATOM     44  H   UNL     1      32.131  27.932  50.711  0.00  0.00    +0.000 HD
ENDBRANCH   6  38
TORSDOF 2
