
 OpenBabel03272506473D

 42 44  0  0  1  0  0  0  0  0999 V2000
   32.1540   28.5540   47.3370 C   0  0  2  0  0  0  0  0  0  0  0  0
   33.3930   28.3630   48.1620 C   0  0  1  0  0  0  0  0  0  0  0  0
   33.8090   27.0760   48.0050 O   0  0  0  0  0  0  0  0  0  0  0  0
   33.1250   26.4960   46.9420 C   0  0  0  0  0  0  0  0  0  0  0  0
   32.5150   27.6200   46.1410 C   0  0  1  0  0  0  0  0  0  0  0  0
   31.2300   28.1820   47.7750 H   0  0  0  0  0  0  0  0  0  0  0  0
   33.1980   28.6180   49.2210 H   0  0  0  0  0  0  0  0  0  0  0  0
   33.8220   25.8950   46.2950 H   0  0  0  0  0  0  0  0  0  0  0  0
   32.4380   25.7810   47.3720 H   0  0  0  0  0  0  0  0  0  0  0  0
   33.2600   28.1390   45.5470 H   0  0  0  0  0  0  0  0  0  0  0  0
   32.0710   29.8830   46.8700 O   0  0  0  0  0  0  0  0  0  0  0  0
   32.3630   29.8940   45.9260 H   0  0  0  0  0  0  0  0  0  0  0  0
   34.6930   29.4660   47.4780 S   0  0  0  0  0  0  0  0  0  0  0  0
   37.0840   29.2310   50.6290 C   0  0  0  0  0  0  0  0  0  0  0  0
   37.5520   30.5220   50.8340 C   0  0  0  0  0  0  0  0  0  0  0  0
   37.1060   31.5190   49.9510 C   0  0  0  0  0  0  0  0  0  0  0  0
   36.2470   31.1750   48.9500 N   0  0  0  0  0  0  0  0  0  0  0  0
   35.8220   29.8980   48.7980 C   0  0  0  0  0  0  0  0  0  0  0  0
   36.2340   28.9080   49.6330 N   0  0  0  0  0  0  0  0  0  0  0  0
   37.4140   28.4470   51.2960 H   0  0  0  0  0  0  0  0  0  0  0  0
   38.2260   30.8010   51.6160 H   0  0  0  0  0  0  0  0  0  0  0  0
   37.4160   32.5530   50.0320 H   0  0  0  0  0  0  0  0  0  0  0  0
   31.3860   27.1630   45.5090 O   0  0  0  0  0  0  0  0  0  0  0  0
   29.7690   29.2920   44.2790 Cl  0  0  0  0  0 15  0  0  0  0  0  0
   29.3000   28.1410   45.5100 C   0  0  0  0  0  3  0  0  0  0  0  0
   30.1510   27.1780   46.0040 C   0  0  0  0  0  0  0  0  0  0  0  0
   29.6570   26.3000   46.9710 C   0  0  0  0  0  0  0  0  0  0  0  0
   28.3560   26.4010   47.4140 C   0  0  0  0  0  0  0  0  0  0  0  0
   27.4960   27.3650   46.9250 C   0  0  0  0  0  0  0  0  0  0  0  0
   27.9750   28.2390   45.9660 C   0  0  0  0  0  0  0  0  0  0  0  0
   30.2420   25.5130   47.4120 H   0  0  0  0  0  0  0  0  0  0  0  0
   27.9220   25.7560   48.1560 H   0  0  0  0  0  0  0  0  0  0  0  0
   26.4580   27.4800   47.2500 H   0  0  0  0  0  0  0  0  0  0  0  0
   25.3150   27.9950   44.3580 O   0  0  0  0  0  0  0  0  0  0  0  0
   26.2850   28.8130   44.2720 C   0  0  0  0  0  0  0  0  0  0  0  0
   27.0660   29.2790   45.4310 C   0  0  2  0  0  3  0  0  0  0  0  0
   27.7940   30.4810   44.8930 C   0  0  0  0  0  3  0  0  0  0  0  0
   28.8870   30.3090   44.7790 H   0  0  0  0  0  0  0  0  0  0  0  0
   27.2640   30.7570   43.5000 C   0  0  0  0  0  3  0  0  0  0  0  0
   26.4370   31.4970   43.4890 H   0  0  0  0  0  0  0  0  0  0  0  0
   26.8150   29.4390   43.0880 N   0  0  0  0  0  0  0  0  0  0  0  0
   26.8270   28.9410   42.1520 H   0  0  0  0  0  0  0  0  0  0  0  0
  1  6  1  1  0  0  0
  1  2  1  0  0  0  0
  2  7  1  1  0  0  0
  3  2  1  0  0  0  0
  4  9  1  0  0  0  0
  4  3  1  0  0  0  0
  5 10  1  6  0  0  0
  5  4  1  0  0  0  0
  5  1  1  0  0  0  0
  8  4  1  0  0  0  0
 11  1  1  0  0  0  0
 12 11  1  0  0  0  0
 13  2  1  0  0  0  0
 13 18  1  0  0  0  0
 14 15  1  0  0  0  0
 14 20  1  0  0  0  0
 15 21  1  0  0  0  0
 16 22  1  0  0  0  0
 16 15  2  0  0  0  0
 17 16  1  0  0  0  0
 18 17  2  0  0  0  0
 18 19  1  0  0  0  0
 19 14  2  0  0  0  0
 23 26  1  0  0  0  0
 23  5  1  0  0  0  0
 25 30  2  0  0  0  0
 25 26  1  0  0  0  0
 26 27  2  0  0  0  0
 27 31  1  0  0  0  0
 27 28  1  0  0  0  0
 28 32  1  0  0  0  0
 29 33  1  0  0  0  0
 29 28  2  0  0  0  0
 30 29  1  0  0  0  0
 35 34  2  0  0  0  0
 35 36  1  0  0  0  0
 36 30  1  6  0  0  0
 37 36  1  0  0  0  0
 38 37  1  0  0  0  0
 39 37  1  0  0  0  0
 40 39  1  0  0  0  0
 41 39  1  0  0  0  0
 41 35  1  0  0  0  0
 42 41  1  0  0  0  0
M  END
>  <minimizedAffinity>
-5.08864832

>  <minimizedRMSD>
1.26455498

$$$$
