
     RDKit          3D

 47 50  0  0  0  0  0  0  0  0999 V2000
   34.6415   30.3476   48.2644 C   0  0  1  0  0  0  0  0  0  0  0  0
   33.6598   30.2309   47.2153 C   0  0  0  0  0  0  0  0  0  0  0  0
   33.4487   28.8469   46.6437 C   0  0  0  0  0  0  0  0  0  0  0  0
   33.4236   27.7433   47.5743 C   0  0  2  0  0  0  0  0  0  0  0  0
   34.4450   27.8388   48.7162 C   0  0  0  0  0  0  0  0  0  0  0  0
   34.4878   29.2282   49.2787 C   0  0  0  0  0  0  0  0  0  0  0  0
   36.4716   30.5622   46.5771 C   0  0  0  0  0  0  0  0  0  0  0  0
   36.0429   30.5928   47.8974 C   0  0  0  0  0  0  0  0  0  0  0  0
   36.9973   30.8659   48.8809 C   0  0  0  0  0  0  0  0  0  0  0  0
   38.2922   31.0867   48.4974 N   0  0  0  0  0  0  0  0  0  0  0  0
   38.6689   31.0475   47.1984 C   0  0  0  0  0  0  0  0  0  0  0  0
   37.7453   30.7819   46.2315 N   0  0  0  0  0  0  0  0  0  0  0  0
   33.7839   26.5090   46.8383 C   0  0  0  0  0  0  0  0  0  0  0  0
   34.0715   26.6091   45.4609 C   0  0  0  0  0  0  0  0  0  0  0  0
   34.4141   25.4959   44.7170 C   0  0  0  0  0  0  0  0  0  0  0  0
   34.4679   24.3086   45.3397 C   0  0  0  0  0  0  0  0  0  0  0  0
   34.1880   24.1740   46.6811 C   0  0  0  0  0  0  0  0  0  0  0  0
   33.8392   25.2885   47.4298 C   0  0  0  0  0  0  0  0  0  0  0  0
   34.3886   31.2546   48.9010 H   0  0  0  0  0  0  0  0  0  0  0  0
   33.7714   30.8923   46.3521 H   0  0  0  0  0  0  0  0  0  0  0  0
   32.6538   30.5096   47.6397 H   0  0  0  0  0  0  0  0  0  0  0  0
   34.4190   28.7300   46.0482 H   0  0  0  0  0  0  0  0  0  0  0  0
   32.5648   28.8771   45.9910 H   0  0  0  0  0  0  0  0  0  0  0  0
   32.4913   27.6018   48.1556 H   0  0  0  0  0  0  0  0  0  0  0  0
   34.3702   27.2017   49.5345 H   0  0  0  0  0  0  0  0  0  0  0  0
   35.4472   27.6722   48.2211 H   0  0  0  0  0  0  0  0  0  0  0  0
   33.5744   29.4122   49.8884 H   0  0  0  0  0  0  0  0  0  0  0  0
   35.3529   29.2874   49.9679 H   0  0  0  0  0  0  0  0  0  0  0  0
   35.8970   30.3918   45.7084 H   0  0  0  0  0  0  0  0  0  0  0  0
   36.7369   30.9059   49.9254 H   0  0  0  0  0  0  0  0  0  0  0  0
   39.7162   31.2407   47.0566 H   0  0  0  0  0  0  0  0  0  0  0  0
   34.0552   27.4729   44.8085 H   0  0  0  0  0  0  0  0  0  0  0  0
   34.6454   25.4937   43.6671 H   0  0  0  0  0  0  0  0  0  0  0  0
   34.7426   23.3900   44.7871 H   0  0  0  0  0  0  0  0  0  0  0  0
   34.2621   23.1583   47.1063 H   0  0  0  0  0  0  0  0  0  0  0  0
   34.3071   22.7761   48.4712 O   0  0  0  0  0  0  0  0  0  0  0  0
   33.4386   23.5364   49.0173 C   0  0  0  0  0  0  0  0  0  0  0  0
   33.4192   24.9709   48.7965 C   0  0  2  0  0  0  0  0  0  0  0  0
   31.8912   25.2721   48.9513 C   0  0  1  0  0  0  0  0  0  0  0  0
   31.7176   26.2184   49.4704 H   0  0  0  0  0  0  0  0  0  0  0  0
   31.3463   24.1246   49.7178 C   0  0  1  0  0  0  0  0  0  0  0  0
   30.9276   24.4069   50.7055 H   0  0  0  0  0  0  0  0  0  0  0  0
   32.4046   23.1600   49.8782 N   0  0  0  0  0  0  0  0  0  0  0  0
   33.8114   25.6194   49.5983 H   0  0  0  0  0  0  0  0  0  0  0  0
   31.4877   25.3310   47.9220 H   0  0  0  0  0  0  0  0  0  0  0  0
   30.5233   23.6281   49.1599 H   0  0  0  0  0  0  0  0  0  0  0  0
   32.3843   22.3464   50.5171 H   0  0  0  0  0  0  0  0  0  0  0  0
  1  6  1  0
  2  1  1  0
  3  2  1  0
  3  4  1  0
  4  5  1  0
  5  6  1  0
  7  8  2  0
  8  1  1  0
  8  9  1  0
 10  9  2  0
 11 10  1  0
 12  7  1  0
 12 11  2  0
 13 18  1  0
 13  4  1  0
 14 13  2  0
 15 16  2  0
 15 14  1  0
 16 17  1  0
 17 18  2  0
  1 19  1  1
  2 20  1  0
  2 21  1  0
  3 22  1  0
  3 23  1  0
  4 24  1  1
  5 25  1  0
  5 26  1  0
  6 27  1  0
  6 28  1  0
  7 29  1  0
  9 30  1  0
 11 31  1  0
 14 32  1  0
 15 33  1  0
 16 34  1  0
 17 35  1  0
 36 37  2  0
 37 38  1  0
 38 39  1  0
 39 40  1  1
 39 41  1  0
 41 42  1  1
 41 43  1  0
 43 37  1  0
 38 44  1  1
 39 45  1  0
 41 46  1  0
 43 47  1  0
 18 38  1  0
M  ISO  8  19  13  20  13  21  13  22  13  23  13  24  13  25  13  26  13
M  ISO  8  27  13  28  13  29  14  30  14  31  14  32  14  33  14  34  14
M  ISO  3  35  14  40   8  42   8
M  END
>  <DihAtoms>  (1) 
12,17,37,36

>  <DihDeg>  (1) 
-128.41053301743796

$$$$
