
 OpenBabel03262521283D

 30 32  0  0  1  0  0  0  0  0999 V2000
   38.0430   22.8260   34.3260 N   0  0  0  0  0  0  0  0  0  0  0  0
   37.8880   23.8910   33.3800 C   0  0  0  0  0  0  0  0  0  0  0  0
   38.3270   23.2440   32.0590 C   0  0  0  0  0  0  0  0  0  0  0  0
   38.6320   21.7850   32.3890 C   0  0  0  0  0  0  0  0  0  0  0  0
   37.7540   21.6120   33.6120 C   0  0  2  0  0  0  0  0  0  0  0  0
   38.5750   24.7410   33.5390 H   0  0  0  0  0  0  0  0  0  0  0  0
   36.8390   24.2450   33.3120 H   0  0  0  0  0  0  0  0  0  0  0  0
   39.2300   23.7050   31.6380 H   0  0  0  0  0  0  0  0  0  0  0  0
   37.5180   23.3720   31.3370 H   0  0  0  0  0  0  0  0  0  0  0  0
   38.4160   21.1010   31.5730 H   0  0  0  0  0  0  0  0  0  0  0  0
   39.6770   21.7580   32.7560 H   0  0  0  0  0  0  0  0  0  0  0  0
   38.1340   20.7300   34.1640 H   0  0  0  0  0  0  0  0  0  0  0  0
   38.4060   22.9320   35.6940 C   0  0  0  0  0  0  0  0  0  0  0  0
   39.7030   22.5480   36.0460 C   0  0  0  0  0  0  0  0  0  0  0  0
   40.0790   22.6470   37.3880 C   0  0  0  0  0  0  0  0  0  0  0  0
   39.1520   23.1170   38.2830 N   0  0  0  0  0  0  0  0  0  0  0  0
   37.9120   23.4770   37.9070 C   0  0  0  0  0  0  0  0  0  0  0  0
   37.5450   23.3800   36.5980 N   0  0  0  0  0  0  0  0  0  0  0  0
   40.4340   22.1820   35.3670 H   0  0  0  0  0  0  0  0  0  0  0  0
   41.0750   22.3610   37.7060 H   0  0  0  0  0  0  0  0  0  0  0  0
   37.2260   23.8390   38.6590 H   0  0  0  0  0  0  0  0  0  0  0  0
   35.6120   20.7920   35.4070 O   0  0  0  0  0  0  0  0  0  0  0  0
   35.6810   20.4580   34.1700 C   0  0  0  0  0  0  0  0  0  0  0  0
   36.3060   21.4530   33.2660 C   0  0  2  0  0  3  0  0  0  0  0  0
   36.0610   20.8860   31.9150 C   0  0  0  0  0  3  0  0  0  0  0  0
   35.6930   21.6140   31.1630 H   0  0  0  0  0  0  0  0  0  0  0  0
   34.9220   19.9230   32.1550 C   0  0  0  0  0  3  0  0  0  0  0  0
   33.9910   20.5150   32.3670 H   0  0  0  0  0  0  0  0  0  0  0  0
   35.2780   19.2950   33.4160 N   0  0  0  0  0  0  0  0  0  0  0  0
   35.3430   18.3730   33.9370 H   0  0  0  0  0  0  0  0  0  0  0  0
  1 13  1  0  0  0  0
  2  6  1  0  0  0  0
  2  1  1  0  0  0  0
  3  4  1  0  0  0  0
  3  2  1  0  0  0  0
  4 11  1  0  0  0  0
  4  5  1  0  0  0  0
  5 12  1  1  0  0  0
  5  1  1  0  0  0  0
  7  2  1  0  0  0  0
  8  3  1  0  0  0  0
  9  3  1  0  0  0  0
 10  4  1  0  0  0  0
 13 14  2  0  0  0  0
 13 18  1  0  0  0  0
 14 15  1  0  0  0  0
 15 20  1  0  0  0  0
 15 16  2  0  0  0  0
 17 16  1  0  0  0  0
 17 21  1  0  0  0  0
 18 17  2  0  0  0  0
 19 14  1  0  0  0  0
 23 22  2  0  0  0  0
 24 25  1  6  0  0  0
 24  5  1  0  0  0  0
 24 23  1  0  0  0  0
 25 27  1  0  0  0  0
 26 25  1  0  0  0  0
 27 28  1  0  0  0  0
 27 29  1  0  0  0  0
 29 30  1  0  0  0  0
 29 23  1  0  0  0  0
M  END
>  <minimizedAffinity>
-4.8107295

$$$$

 OpenBabel03262521283D

 30 32  0  0  1  0  0  0  0  0999 V2000
   38.1600   25.5210   33.5800 N   0  0  0  0  0  0  0  0  0  0  0  0
   39.4300   26.1770   33.4690 C   0  0  0  0  0  0  0  0  0  0  0  0
   39.7320   26.5880   34.9170 C   0  0  0  0  0  0  0  0  0  0  0  0
   38.5850   26.0330   35.7580 C   0  0  0  0  0  0  0  0  0  0  0  0
   38.1510   24.8840   34.8680 C   0  0  2  0  0  0  0  0  0  0  0  0
   39.4030   27.1180   32.8910 H   0  0  0  0  0  0  0  0  0  0  0  0
   40.2200   25.5030   33.0800 H   0  0  0  0  0  0  0  0  0  0  0  0
   39.7730   27.6760   35.0520 H   0  0  0  0  0  0  0  0  0  0  0  0
   40.7110   26.1800   35.1830 H   0  0  0  0  0  0  0  0  0  0  0  0
   38.8830   25.7440   36.7620 H   0  0  0  0  0  0  0  0  0  0  0  0
   37.7700   26.7810   35.7100 H   0  0  0  0  0  0  0  0  0  0  0  0
   37.1190   24.6130   35.1670 H   0  0  0  0  0  0  0  0  0  0  0  0
   37.1150   25.4960   32.6200 C   0  0  0  0  0  0  0  0  0  0  0  0
   36.5740   26.7240   32.2280 C   0  0  0  0  0  0  0  0  0  0  0  0
   35.5450   26.7190   31.2830 C   0  0  0  0  0  0  0  0  0  0  0  0
   35.1250   25.5080   30.7950 N   0  0  0  0  0  0  0  0  0  0  0  0
   35.6690   24.3460   31.1970 C   0  0  0  0  0  0  0  0  0  0  0  0
   36.6730   24.3500   32.1190 N   0  0  0  0  0  0  0  0  0  0  0  0
   36.8860   27.6710   32.5940 H   0  0  0  0  0  0  0  0  0  0  0  0
   35.0960   27.6470   30.9490 H   0  0  0  0  0  0  0  0  0  0  0  0
   35.2960   23.4240   30.7770 H   0  0  0  0  0  0  0  0  0  0  0  0
   37.5380   22.1370   34.1240 O   0  0  0  0  0  0  0  0  0  0  0  0
   38.2750   22.4630   35.1210 C   0  0  0  0  0  0  0  0  0  0  0  0
   39.0690   23.7050   34.9580 C   0  0  2  0  0  3  0  0  0  0  0  0
   39.9480   23.7060   36.1560 C   0  0  0  0  0  3  0  0  0  0  0  0
   41.0120   23.9460   35.9530 H   0  0  0  0  0  0  0  0  0  0  0  0
   39.9220   22.2610   36.5950 C   0  0  0  0  0  3  0  0  0  0  0  0
   40.4940   21.6490   35.8460 H   0  0  0  0  0  0  0  0  0  0  0  0
   38.5290   21.8860   36.4200 N   0  0  0  0  0  0  0  0  0  0  0  0
   37.7040   21.3860   36.8620 H   0  0  0  0  0  0  0  0  0  0  0  0
  1  5  1  0  0  0  0
  2  1  1  0  0  0  0
  2  3  1  0  0  0  0
  3  8  1  0  0  0  0
  3  9  1  0  0  0  0
  3  4  1  0  0  0  0
  4 10  1  0  0  0  0
  5 24  1  0  0  0  0
  5 12  1  1  0  0  0
  5  4  1  0  0  0  0
  6  2  1  0  0  0  0
  7  2  1  0  0  0  0
 11  4  1  0  0  0  0
 13  1  1  0  0  0  0
 14 19  1  0  0  0  0
 14 13  1  0  0  0  0
 15 14  2  0  0  0  0
 16 17  2  0  0  0  0
 16 15  1  0  0  0  0
 17 18  1  0  0  0  0
 18 13  2  0  0  0  0
 20 15  1  0  0  0  0
 21 17  1  0  0  0  0
 22 23  2  0  0  0  0
 23 29  1  0  0  0  0
 24 23  1  1  0  0  0
 24 25  1  0  0  0  0
 25 27  1  0  0  0  0
 26 25  1  0  0  0  0
 28 27  1  0  0  0  0
 29 27  1  0  0  0  0
 29 30  1  0  0  0  0
M  END
>  <minimizedAffinity>
-4.7083149

$$$$

 OpenBabel03262521283D

 30 32  0  0  1  0  0  0  0  0999 V2000
   38.8540   25.0720   34.8870 N   0  0  0  0  0  0  0  0  0  0  0  0
   38.1720   24.6520   33.6980 C   0  0  0  0  0  0  0  0  0  0  0  0
   37.7460   25.9800   33.0580 C   0  0  0  0  0  0  0  0  0  0  0  0
   38.3190   27.0780   33.9510 C   0  0  0  0  0  0  0  0  0  0  0  0
   39.4820   26.3240   34.5650 C   0  0  2  0  0  0  0  0  0  0  0  0
   37.2360   24.0970   33.8870 H   0  0  0  0  0  0  0  0  0  0  0  0
   38.8320   24.0810   33.0130 H   0  0  0  0  0  0  0  0  0  0  0  0
   36.6560   26.1000   33.0100 H   0  0  0  0  0  0  0  0  0  0  0  0
   38.1300   25.9980   32.0360 H   0  0  0  0  0  0  0  0  0  0  0  0
   38.5950   27.9780   33.4090 H   0  0  0  0  0  0  0  0  0  0  0  0
   37.5880   27.2310   34.7690 H   0  0  0  0  0  0  0  0  0  0  0  0
   39.7740   26.8680   35.4850 H   0  0  0  0  0  0  0  0  0  0  0  0
   38.9080   24.3990   36.1360 C   0  0  0  0  0  0  0  0  0  0  0  0
   37.9980   24.7980   37.1190 C   0  0  0  0  0  0  0  0  0  0  0  0
   38.0350   24.1460   38.3540 C   0  0  0  0  0  0  0  0  0  0  0  0
   38.9630   23.1510   38.5300 N   0  0  0  0  0  0  0  0  0  0  0  0
   39.8230   22.7950   37.5590 C   0  0  0  0  0  0  0  0  0  0  0  0
   39.7870   23.4310   36.3540 N   0  0  0  0  0  0  0  0  0  0  0  0
   37.2730   25.5650   37.0020 H   0  0  0  0  0  0  0  0  0  0  0  0
   37.3480   24.4220   39.1460 H   0  0  0  0  0  0  0  0  0  0  0  0
   40.5310   22.0040   37.7570 H   0  0  0  0  0  0  0  0  0  0  0  0
   42.1390   25.3220   35.2120 O   0  0  0  0  0  0  0  0  0  0  0  0
   41.9120   26.2760   34.3850 C   0  0  0  0  0  0  0  0  0  0  0  0
   40.6420   26.1860   33.6270 C   0  0  2  0  0  3  0  0  0  0  0  0
   40.7580   27.2870   32.6360 C   0  0  0  0  0  3  0  0  0  0  0  0
   40.4710   27.0140   31.6000 H   0  0  0  0  0  0  0  0  0  0  0  0
   42.2450   27.5530   32.6010 C   0  0  0  0  0  3  0  0  0  0  0  0
   42.7520   26.6870   32.0960 H   0  0  0  0  0  0  0  0  0  0  0  0
   42.6300   27.4680   33.9990 N   0  0  0  0  0  0  0  0  0  0  0  0
   43.1990   27.9240   34.7700 H   0  0  0  0  0  0  0  0  0  0  0  0
  1 13  1  0  0  0  0
  2  6  1  0  0  0  0
  2  1  1  0  0  0  0
  3  2  1  0  0  0  0
  3  4  1  0  0  0  0
  4  5  1  0  0  0  0
  4 11  1  0  0  0  0
  5  1  1  0  0  0  0
  5 12  1  1  0  0  0
  7  2  1  0  0  0  0
  8  3  1  0  0  0  0
  9  3  1  0  0  0  0
 10  4  1  0  0  0  0
 13 18  2  0  0  0  0
 13 14  1  0  0  0  0
 14 15  2  0  0  0  0
 15 16  1  0  0  0  0
 15 20  1  0  0  0  0
 17 21  1  0  0  0  0
 17 16  2  0  0  0  0
 18 17  1  0  0  0  0
 19 14  1  0  0  0  0
 23 22  2  0  0  0  0
 24 25  1  6  0  0  0
 24 23  1  0  0  0  0
 24  5  1  0  0  0  0
 26 25  1  0  0  0  0
 27 25  1  0  0  0  0
 27 29  1  0  0  0  0
 28 27  1  0  0  0  0
 29 23  1  0  0  0  0
 29 30  1  0  0  0  0
M  END
>  <minimizedAffinity>
-4.66641474

$$$$

 OpenBabel03262521283D

 30 32  0  0  1  0  0  0  0  0999 V2000
   38.6380   25.3550   34.0600 N   0  0  0  0  0  0  0  0  0  0  0  0
   39.7900   26.1310   34.4120 C   0  0  0  0  0  0  0  0  0  0  0  0
   39.2510   27.0760   35.4940 C   0  0  0  0  0  0  0  0  0  0  0  0
   37.7940   26.6750   35.7120 C   0  0  0  0  0  0  0  0  0  0  0  0
   37.8590   25.2300   35.2610 C   0  0  2  0  0  0  0  0  0  0  0  0
   40.1610   26.7840   33.6020 H   0  0  0  0  0  0  0  0  0  0  0  0
   40.6130   25.5050   34.8150 H   0  0  0  0  0  0  0  0  0  0  0  0
   39.2840   28.1310   35.1930 H   0  0  0  0  0  0  0  0  0  0  0  0
   39.8770   26.9620   36.3820 H   0  0  0  0  0  0  0  0  0  0  0  0
   37.4520   26.8190   36.7330 H   0  0  0  0  0  0  0  0  0  0  0  0
   37.2030   27.2100   34.9420 H   0  0  0  0  0  0  0  0  0  0  0  0
   36.8220   24.9140   35.0280 H   0  0  0  0  0  0  0  0  0  0  0  0
   38.3180   24.8130   32.7880 C   0  0  0  0  0  0  0  0  0  0  0  0
   37.0110   24.9920   32.3250 C   0  0  0  0  0  0  0  0  0  0  0  0
   36.6770   24.4660   31.0740 C   0  0  0  0  0  0  0  0  0  0  0  0
   37.6530   23.8050   30.3720 N   0  0  0  0  0  0  0  0  0  0  0  0
   38.9000   23.6530   30.8510 C   0  0  0  0  0  0  0  0  0  0  0  0
   39.2270   24.1650   32.0710 N   0  0  0  0  0  0  0  0  0  0  0  0
   36.2430   25.5000   32.8530 H   0  0  0  0  0  0  0  0  0  0  0  0
   35.6770   24.5810   30.6750 H   0  0  0  0  0  0  0  0  0  0  0  0
   39.6260   23.1230   30.2520 H   0  0  0  0  0  0  0  0  0  0  0  0
   38.2940   22.3590   35.0310 O   0  0  0  0  0  0  0  0  0  0  0  0
   37.9660   22.9520   36.1210 C   0  0  0  0  0  0  0  0  0  0  0  0
   38.4810   24.3320   36.2860 C   0  0  2  0  0  3  0  0  0  0  0  0
   38.1190   24.6650   37.6880 C   0  0  0  0  0  3  0  0  0  0  0  0
   38.9280   25.1440   38.2770 H   0  0  0  0  0  0  0  0  0  0  0  0
   37.8980   23.3060   38.3110 C   0  0  0  0  0  3  0  0  0  0  0  0
   38.8920   22.7910   38.4080 H   0  0  0  0  0  0  0  0  0  0  0  0
   37.1840   22.5790   37.2760 N   0  0  0  0  0  0  0  0  0  0  0  0
   36.3670   21.9300   37.0790 H   0  0  0  0  0  0  0  0  0  0  0  0
  1  2  1  0  0  0  0
  1  5  1  0  0  0  0
  2  7  1  0  0  0  0
  2  3  1  0  0  0  0
  3  4  1  0  0  0  0
  3  9  1  0  0  0  0
  4 10  1  0  0  0  0
  5 12  1  6  0  0  0
  5  4  1  0  0  0  0
  5 24  1  0  0  0  0
  6  2  1  0  0  0  0
  8  3  1  0  0  0  0
 11  4  1  0  0  0  0
 13  1  1  0  0  0  0
 14 13  1  0  0  0  0
 14 19  1  0  0  0  0
 15 14  2  0  0  0  0
 16 17  2  0  0  0  0
 16 15  1  0  0  0  0
 17 18  1  0  0  0  0
 18 13  2  0  0  0  0
 20 15  1  0  0  0  0
 21 17  1  0  0  0  0
 22 23  2  0  0  0  0
 23 29  1  0  0  0  0
 24 23  1  6  0  0  0
 24 25  1  0  0  0  0
 25 26  1  0  0  0  0
 25 27  1  0  0  0  0
 27 28  1  0  0  0  0
 29 27  1  0  0  0  0
 30 29  1  0  0  0  0
M  END
>  <minimizedAffinity>
-4.66576815

$$$$

 OpenBabel03262521283D

 30 32  0  0  1  0  0  0  0  0999 V2000
   34.4340   29.7470   33.7570 N   0  0  0  0  0  0  0  0  0  0  0  0
   33.5500   30.3430   32.7990 C   0  0  0  0  0  0  0  0  0  0  0  0
   32.1900   30.2920   33.5060 C   0  0  0  0  0  0  0  0  0  0  0  0
   32.4600   29.7120   34.8930 C   0  0  0  0  0  0  0  0  0  0  0  0
   33.9170   30.1010   35.0510 C   0  0  2  0  0  0  0  0  0  0  0  0
   33.4270   29.7560   31.8710 H   0  0  0  0  0  0  0  0  0  0  0  0
   33.8290   31.3900   32.5630 H   0  0  0  0  0  0  0  0  0  0  0  0
   31.4650   29.6490   32.9920 H   0  0  0  0  0  0  0  0  0  0  0  0
   31.7830   31.3060   33.5250 H   0  0  0  0  0  0  0  0  0  0  0  0
   31.7990   30.1000   35.6620 H   0  0  0  0  0  0  0  0  0  0  0  0
   32.4490   28.6100   34.7800 H   0  0  0  0  0  0  0  0  0  0  0  0
   34.3450   29.4500   35.8390 H   0  0  0  0  0  0  0  0  0  0  0  0
   35.5890   28.9650   33.4970 C   0  0  0  0  0  0  0  0  0  0  0  0
   36.0880   28.9710   32.1910 C   0  0  0  0  0  0  0  0  0  0  0  0
   37.2250   28.2070   31.9170 C   0  0  0  0  0  0  0  0  0  0  0  0
   37.7870   27.4960   32.9460 N   0  0  0  0  0  0  0  0  0  0  0  0
   37.2780   27.5150   34.1910 C   0  0  0  0  0  0  0  0  0  0  0  0
   36.1690   28.2590   34.4590 N   0  0  0  0  0  0  0  0  0  0  0  0
   35.6670   29.5150   31.3820 H   0  0  0  0  0  0  0  0  0  0  0  0
   37.6470   28.1820   30.9190 H   0  0  0  0  0  0  0  0  0  0  0  0
   37.7650   26.9330   34.9600 H   0  0  0  0  0  0  0  0  0  0  0  0
   36.3930   31.4170   35.8370 O   0  0  0  0  0  0  0  0  0  0  0  0
   35.2390   31.7100   36.3170 C   0  0  0  0  0  0  0  0  0  0  0  0
   34.0940   31.5500   35.3890 C   0  0  2  0  0  3  0  0  0  0  0  0
   32.9600   32.1430   36.1420 C   0  0  0  0  0  3  0  0  0  0  0  0
   32.3150   32.8270   35.5530 H   0  0  0  0  0  0  0  0  0  0  0  0
   33.6520   33.0060   37.1710 C   0  0  0  0  0  3  0  0  0  0  0  0
   34.1140   33.8870   36.6470 H   0  0  0  0  0  0  0  0  0  0  0  0
   34.7690   32.1800   37.5980 N   0  0  0  0  0  0  0  0  0  0  0  0
   35.3160   31.8290   38.4380 H   0  0  0  0  0  0  0  0  0  0  0  0
  1  5  1  0  0  0  0
  2  3  1  0  0  0  0
  2  1  1  0  0  0  0
  3  9  1  0  0  0  0
  3  4  1  0  0  0  0
  4  5  1  0  0  0  0
  4 10  1  0  0  0  0
  5 24  1  0  0  0  0
  5 12  1  1  0  0  0
  6  2  1  0  0  0  0
  7  2  1  0  0  0  0
  8  3  1  0  0  0  0
 11  4  1  0  0  0  0
 13  1  1  0  0  0  0
 13 18  1  0  0  0  0
 14 13  2  0  0  0  0
 15 14  1  0  0  0  0
 15 16  2  0  0  0  0
 16 17  1  0  0  0  0
 17 18  2  0  0  0  0
 17 21  1  0  0  0  0
 19 14  1  0  0  0  0
 20 15  1  0  0  0  0
 22 23  2  0  0  0  0
 23 29  1  0  0  0  0
 24 25  1  1  0  0  0
 24 23  1  0  0  0  0
 25 27  1  0  0  0  0
 26 25  1  0  0  0  0
 27 29  1  0  0  0  0
 28 27  1  0  0  0  0
 29 30  1  0  0  0  0
M  END
>  <minimizedAffinity>
-4.53959036

$$$$

 OpenBabel03262521283D

 30 32  0  0  1  0  0  0  0  0999 V2000
   40.1620   24.9100   34.3230 N   0  0  0  0  0  0  0  0  0  0  0  0
   40.7230   24.3030   33.1520 C   0  0  0  0  0  0  0  0  0  0  0  0
   42.2150   24.2070   33.4960 C   0  0  0  0  0  0  0  0  0  0  0  0
   42.3500   24.7260   34.9260 C   0  0  0  0  0  0  0  0  0  0  0  0
   40.9490   24.4430   35.4310 C   0  0  2  0  0  0  0  0  0  0  0  0
   40.6650   24.9320   32.2460 H   0  0  0  0  0  0  0  0  0  0  0  0
   40.3010   23.2960   32.9560 H   0  0  0  0  0  0  0  0  0  0  0  0
   42.8450   24.8200   32.8390 H   0  0  0  0  0  0  0  0  0  0  0  0
   42.5210   23.1650   33.3750 H   0  0  0  0  0  0  0  0  0  0  0  0
   43.1440   24.2440   35.4900 H   0  0  0  0  0  0  0  0  0  0  0  0
   42.4320   25.8280   34.8530 H   0  0  0  0  0  0  0  0  0  0  0  0
   40.7900   25.0790   36.3240 H   0  0  0  0  0  0  0  0  0  0  0  0
   39.0540   25.7950   34.3910 C   0  0  0  0  0  0  0  0  0  0  0  0
   39.0290   26.7130   35.4440 C   0  0  0  0  0  0  0  0  0  0  0  0
   37.9470   27.5930   35.5270 C   0  0  0  0  0  0  0  0  0  0  0  0
   36.9710   27.5040   34.5670 N   0  0  0  0  0  0  0  0  0  0  0  0
   37.0290   26.6070   33.5680 C   0  0  0  0  0  0  0  0  0  0  0  0
   38.0840   25.7480   33.4870 N   0  0  0  0  0  0  0  0  0  0  0  0
   39.7750   26.7960   36.1960 H   0  0  0  0  0  0  0  0  0  0  0  0
   37.8860   28.3210   36.3260 H   0  0  0  0  0  0  0  0  0  0  0  0
   36.2290   26.5850   32.8420 H   0  0  0  0  0  0  0  0  0  0  0  0
   38.4940   23.2260   36.4190 O   0  0  0  0  0  0  0  0  0  0  0  0
   39.6710   22.8650   36.7790 C   0  0  0  0  0  0  0  0  0  0  0  0
   40.7310   22.9960   35.7510 C   0  0  2  0  0  3  0  0  0  0  0  0
   41.9000   22.3280   36.3790 C   0  0  0  0  0  3  0  0  0  0  0  0
   42.4510   21.6310   35.7140 H   0  0  0  0  0  0  0  0  0  0  0  0
   41.2640   21.4710   37.4480 C   0  0  0  0  0  3  0  0  0  0  0  0
   40.7120   20.6280   36.9500 H   0  0  0  0  0  0  0  0  0  0  0  0
   40.2350   22.3370   37.9990 N   0  0  0  0  0  0  0  0  0  0  0  0
   39.7880   22.6900   38.8940 H   0  0  0  0  0  0  0  0  0  0  0  0
  1 13  1  0  0  0  0
  1  5  1  0  0  0  0
  2  3  1  0  0  0  0
  2  1  1  0  0  0  0
  3  4  1  0  0  0  0
  4  5  1  0  0  0  0
  4 10  1  0  0  0  0
  5 24  1  0  0  0  0
  5 12  1  1  0  0  0
  6  2  1  0  0  0  0
  7  2  1  0  0  0  0
  8  3  1  0  0  0  0
  9  3  1  0  0  0  0
 11  4  1  0  0  0  0
 13 14  1  0  0  0  0
 14 15  2  0  0  0  0
 14 19  1  0  0  0  0
 15 20  1  0  0  0  0
 16 15  1  0  0  0  0
 17 16  2  0  0  0  0
 18 17  1  0  0  0  0
 18 13  2  0  0  0  0
 21 17  1  0  0  0  0
 22 23  2  0  0  0  0
 23 29  1  0  0  0  0
 24 25  1  1  0  0  0
 24 23  1  0  0  0  0
 25 27  1  0  0  0  0
 26 25  1  0  0  0  0
 27 29  1  0  0  0  0
 28 27  1  0  0  0  0
 29 30  1  0  0  0  0
M  END
>  <minimizedAffinity>
-4.41419983

$$$$

 OpenBabel03262521283D

 30 32  0  0  1  0  0  0  0  0999 V2000
   38.7530   24.4320   34.5730 N   0  0  0  0  0  0  0  0  0  0  0  0
   39.7680   24.2520   33.5780 C   0  0  0  0  0  0  0  0  0  0  0  0
   38.9570   24.0660   32.2880 C   0  0  0  0  0  0  0  0  0  0  0  0
   37.4940   24.2410   32.6850 C   0  0  0  0  0  0  0  0  0  0  0  0
   37.6660   25.1080   33.9170 C   0  0  2  0  0  0  0  0  0  0  0  0
   40.3570   23.3250   33.6970 H   0  0  0  0  0  0  0  0  0  0  0  0
   40.4380   25.1320   33.4950 H   0  0  0  0  0  0  0  0  0  0  0  0
   39.0840   23.0710   31.8440 H   0  0  0  0  0  0  0  0  0  0  0  0
   39.3080   24.8040   31.5620 H   0  0  0  0  0  0  0  0  0  0  0  0
   36.8810   24.6800   31.9020 H   0  0  0  0  0  0  0  0  0  0  0  0
   37.1470   23.2550   33.0510 H   0  0  0  0  0  0  0  0  0  0  0  0
   36.7340   25.0230   34.5090 H   0  0  0  0  0  0  0  0  0  0  0  0
   38.7960   24.0310   35.9340 C   0  0  0  0  0  0  0  0  0  0  0  0
   39.8990   23.2780   36.3460 C   0  0  0  0  0  0  0  0  0  0  0  0
   39.9600   22.8760   37.6830 C   0  0  0  0  0  0  0  0  0  0  0  0
   38.9320   23.2440   38.5130 N   0  0  0  0  0  0  0  0  0  0  0  0
   37.8860   23.9690   38.0800 C   0  0  0  0  0  0  0  0  0  0  0  0
   37.8260   24.3620   36.7760 N   0  0  0  0  0  0  0  0  0  0  0  0
   40.7030   22.9840   35.7180 H   0  0  0  0  0  0  0  0  0  0  0  0
   40.7960   22.2910   38.0470 H   0  0  0  0  0  0  0  0  0  0  0  0
   37.1070   24.2280   38.7820 H   0  0  0  0  0  0  0  0  0  0  0  0
   37.8370   27.3380   35.7810 O   0  0  0  0  0  0  0  0  0  0  0  0
   37.3570   27.4280   34.5950 C   0  0  0  0  0  0  0  0  0  0  0  0
   37.9670   26.5360   33.5810 C   0  0  2  0  0  3  0  0  0  0  0  0
   37.3620   27.0030   32.3080 C   0  0  0  0  0  3  0  0  0  0  0  0
   38.0780   27.1290   31.4690 H   0  0  0  0  0  0  0  0  0  0  0  0
   36.8770   28.3910   32.6550 C   0  0  0  0  0  3  0  0  0  0  0  0
   37.7700   29.0610   32.7850 H   0  0  0  0  0  0  0  0  0  0  0  0
   36.3180   28.2250   33.9850 N   0  0  0  0  0  0  0  0  0  0  0  0
   35.4960   28.4570   34.6160 H   0  0  0  0  0  0  0  0  0  0  0  0
  1 13  1  0  0  0  0
  2  6  1  0  0  0  0
  2  1  1  0  0  0  0
  3  4  1  0  0  0  0
  3  2  1  0  0  0  0
  4 11  1  0  0  0  0
  4  5  1  0  0  0  0
  5 12  1  1  0  0  0
  5  1  1  0  0  0  0
  7  2  1  0  0  0  0
  8  3  1  0  0  0  0
  9  3  1  0  0  0  0
 10  4  1  0  0  0  0
 13 14  2  0  0  0  0
 13 18  1  0  0  0  0
 14 15  1  0  0  0  0
 15 20  1  0  0  0  0
 15 16  2  0  0  0  0
 17 16  1  0  0  0  0
 17 21  1  0  0  0  0
 18 17  2  0  0  0  0
 19 14  1  0  0  0  0
 23 22  2  0  0  0  0
 24 25  1  6  0  0  0
 24  5  1  0  0  0  0
 24 23  1  0  0  0  0
 25 27  1  0  0  0  0
 26 25  1  0  0  0  0
 27 28  1  0  0  0  0
 27 29  1  0  0  0  0
 29 23  1  0  0  0  0
 29 30  1  0  0  0  0
M  END
>  <minimizedAffinity>
-4.34584475

$$$$

 OpenBabel03262521283D

 30 32  0  0  1  0  0  0  0  0999 V2000
   39.3150   25.6080   34.5420 N   0  0  0  0  0  0  0  0  0  0  0  0
   39.9220   26.7940   35.0700 C   0  0  0  0  0  0  0  0  0  0  0  0
   41.1020   27.0290   34.1170 C   0  0  0  0  0  0  0  0  0  0  0  0
   40.9990   25.9440   33.0480 C   0  0  0  0  0  0  0  0  0  0  0  0
   39.5130   25.6570   33.1190 C   0  0  2  0  0  0  0  0  0  0  0  0
   40.3680   26.6650   36.0720 H   0  0  0  0  0  0  0  0  0  0  0  0
   39.2310   27.6610   35.0590 H   0  0  0  0  0  0  0  0  0  0  0  0
   42.0760   26.9420   34.6140 H   0  0  0  0  0  0  0  0  0  0  0  0
   41.0170   28.0450   33.7230 H   0  0  0  0  0  0  0  0  0  0  0  0
   41.3560   26.2620   32.0720 H   0  0  0  0  0  0  0  0  0  0  0  0
   41.5040   25.0490   33.4600 H   0  0  0  0  0  0  0  0  0  0  0  0
   39.3510   24.6600   32.6640 H   0  0  0  0  0  0  0  0  0  0  0  0
   38.6480   24.5840   35.2650 C   0  0  0  0  0  0  0  0  0  0  0  0
   38.1970   24.8950   36.5510 C   0  0  0  0  0  0  0  0  0  0  0  0
   37.5380   23.9000   37.2770 C   0  0  0  0  0  0  0  0  0  0  0  0
   37.3710   22.6750   36.6850 N   0  0  0  0  0  0  0  0  0  0  0  0
   37.8190   22.4120   35.4450 C   0  0  0  0  0  0  0  0  0  0  0  0
   38.4630   23.3820   34.7360 N   0  0  0  0  0  0  0  0  0  0  0  0
   38.3180   25.8380   37.0260 H   0  0  0  0  0  0  0  0  0  0  0  0
   37.1710   24.0970   38.2770 H   0  0  0  0  0  0  0  0  0  0  0  0
   37.6580   21.4270   35.0310 H   0  0  0  0  0  0  0  0  0  0  0  0
   36.6460   25.5650   32.6170 O   0  0  0  0  0  0  0  0  0  0  0  0
   37.5010   26.0770   31.8090 C   0  0  0  0  0  0  0  0  0  0  0  0
   38.6880   26.7040   32.4370 C   0  0  2  0  0  3  0  0  0  0  0  0
   39.3680   27.3670   31.2940 C   0  0  0  0  0  3  0  0  0  0  0  0
   39.7050   28.4060   31.4900 H   0  0  0  0  0  0  0  0  0  0  0  0
   38.2690   27.4720   30.2630 C   0  0  0  0  0  3  0  0  0  0  0  0
   37.5250   28.2390   30.6110 H   0  0  0  0  0  0  0  0  0  0  0  0
   37.5880   26.1940   30.3730 N   0  0  0  0  0  0  0  0  0  0  0  0
   37.1680   25.3860   29.8270 H   0  0  0  0  0  0  0  0  0  0  0  0
  1  2  1  0  0  0  0
  1 13  1  0  0  0  0
  2  6  1  0  0  0  0
  3  8  1  0  0  0  0
  3  2  1  0  0  0  0
  4  5  1  0  0  0  0
  4 11  1  0  0  0  0
  4  3  1  0  0  0  0
  5 12  1  6  0  0  0
  5  1  1  0  0  0  0
  7  2  1  0  0  0  0
  9  3  1  0  0  0  0
 10  4  1  0  0  0  0
 13 14  1  0  0  0  0
 14 19  1  0  0  0  0
 14 15  2  0  0  0  0
 15 20  1  0  0  0  0
 16 15  1  0  0  0  0
 17 16  2  0  0  0  0
 18 13  2  0  0  0  0
 18 17  1  0  0  0  0
 21 17  1  0  0  0  0
 23 24  1  0  0  0  0
 23 22  2  0  0  0  0
 24 25  1  6  0  0  0
 24  5  1  0  0  0  0
 25 26  1  0  0  0  0
 27 29  1  0  0  0  0
 27 28  1  0  0  0  0
 27 25  1  0  0  0  0
 29 23  1  0  0  0  0
 30 29  1  0  0  0  0
M  END
>  <minimizedAffinity>
-4.33366394

$$$$

 OpenBabel03262521283D

 30 32  0  0  1  0  0  0  0  0999 V2000
   38.2270   25.2650   35.1010 N   0  0  0  0  0  0  0  0  0  0  0  0
   37.2990   26.3530   35.1900 C   0  0  0  0  0  0  0  0  0  0  0  0
   37.7910   27.3160   34.1010 C   0  0  0  0  0  0  0  0  0  0  0  0
   38.9610   26.6120   33.4180 C   0  0  0  0  0  0  0  0  0  0  0  0
   38.5990   25.1700   33.7160 C   0  0  2  0  0  0  0  0  0  0  0  0
   37.3560   26.9190   36.1370 H   0  0  0  0  0  0  0  0  0  0  0  0
   36.2550   26.0350   34.9890 H   0  0  0  0  0  0  0  0  0  0  0  0
   38.1440   28.2730   34.5050 H   0  0  0  0  0  0  0  0  0  0  0  0
   36.9510   27.5230   33.4330 H   0  0  0  0  0  0  0  0  0  0  0  0
   39.0540   26.8490   32.3620 H   0  0  0  0  0  0  0  0  0  0  0  0
   39.8590   26.8340   34.0270 H   0  0  0  0  0  0  0  0  0  0  0  0
   39.5230   24.5700   33.5950 H   0  0  0  0  0  0  0  0  0  0  0  0
   38.6940   24.4390   36.1570 C   0  0  0  0  0  0  0  0  0  0  0  0
   37.9800   24.4690   37.3580 C   0  0  0  0  0  0  0  0  0  0  0  0
   38.4230   23.6610   38.4090 C   0  0  0  0  0  0  0  0  0  0  0  0
   39.5340   22.8840   38.1990 N   0  0  0  0  0  0  0  0  0  0  0  0
   40.1950   22.8820   37.0280 C   0  0  0  0  0  0  0  0  0  0  0  0
   39.7630   23.6700   36.0030 N   0  0  0  0  0  0  0  0  0  0  0  0
   37.1180   25.0630   37.5390 H   0  0  0  0  0  0  0  0  0  0  0  0
   37.9010   23.6520   39.3580 H   0  0  0  0  0  0  0  0  0  0  0  0
   41.0640   22.2490   36.9230 H   0  0  0  0  0  0  0  0  0  0  0  0
   37.4810   22.4810   33.7120 O   0  0  0  0  0  0  0  0  0  0  0  0
   37.6460   23.1930   32.6580 C   0  0  0  0  0  0  0  0  0  0  0  0
   37.5010   24.6570   32.8370 C   0  0  2  0  0  3  0  0  0  0  0  0
   37.5410   25.1760   31.4450 C   0  0  0  0  0  3  0  0  0  0  0  0
   36.7640   25.9300   31.2060 H   0  0  0  0  0  0  0  0  0  0  0  0
   37.2060   23.9550   30.6200 C   0  0  0  0  0  3  0  0  0  0  0  0
   36.1220   23.7030   30.7780 H   0  0  0  0  0  0  0  0  0  0  0  0
   37.9510   22.8960   31.2780 N   0  0  0  0  0  0  0  0  0  0  0  0
   38.5820   22.0560   31.1240 H   0  0  0  0  0  0  0  0  0  0  0  0
  1  2  1  0  0  0  0
  1 13  1  0  0  0  0
  2  6  1  0  0  0  0
  3  8  1  0  0  0  0
  3  2  1  0  0  0  0
  4  5  1  0  0  0  0
  4 11  1  0  0  0  0
  4  3  1  0  0  0  0
  5 12  1  6  0  0  0
  5  1  1  0  0  0  0
  7  2  1  0  0  0  0
  9  3  1  0  0  0  0
 10  4  1  0  0  0  0
 13 14  1  0  0  0  0
 14 19  1  0  0  0  0
 14 15  2  0  0  0  0
 15 20  1  0  0  0  0
 16 15  1  0  0  0  0
 17 16  2  0  0  0  0
 18 13  2  0  0  0  0
 18 17  1  0  0  0  0
 21 17  1  0  0  0  0
 23 24  1  0  0  0  0
 23 22  2  0  0  0  0
 24 25  1  6  0  0  0
 24  5  1  0  0  0  0
 26 25  1  0  0  0  0
 27 28  1  0  0  0  0
 27 29  1  0  0  0  0
 27 25  1  0  0  0  0
 29 23  1  0  0  0  0
 30 29  1  0  0  0  0
M  END
>  <minimizedAffinity>
-4.29636908

$$$$
