
 OpenBabel03272502173D

 33 35  0  0  1  0  0  0  0  0999 V2000
   37.3070   30.7950   48.8010 C   0  0  0  0  0  0  0  0  0  0  0  0
   37.2190   31.8440   49.7470 C   0  0  0  0  0  0  0  0  0  0  0  0
   37.9100   33.0190   49.4900 C   0  0  0  0  0  0  0  0  0  0  0  0
   38.6420   33.1020   48.3330 N   0  0  0  0  0  0  0  0  0  0  0  0
   38.7030   32.0880   47.4570 C   0  0  0  0  0  0  0  0  0  0  0  0
   38.0390   30.9400   47.6900 N   0  0  0  0  0  0  0  0  0  0  0  0
   36.6760   31.8510   50.6590 H   0  0  0  0  0  0  0  0  0  0  0  0
   37.8910   33.8650   50.1650 H   0  0  0  0  0  0  0  0  0  0  0  0
   37.4110   32.4950   44.6980 O   0  0  0  0  0  0  0  0  0  0  0  0
   38.6250   32.3130   45.0100 C   0  0  0  0  0  0  0  0  0  0  0  0
   39.5170   32.2480   46.2230 C   0  0  2  0  0  3  0  0  0  0  0  0
   40.3540   31.0580   45.8830 C   0  0  0  0  0  3  0  0  0  0  0  0
   41.2810   31.0340   46.5100 H   0  0  0  0  0  0  0  0  0  0  0  0
   40.6760   31.3070   44.4120 C   0  0  0  0  0  3  0  0  0  0  0  0
   41.5840   31.9540   44.3110 H   0  0  0  0  0  0  0  0  0  0  0  0
   39.5490   32.0820   43.9410 N   0  0  0  0  0  0  0  0  0  0  0  0
   39.5230   32.3810   42.9210 H   0  0  0  0  0  0  0  0  0  0  0  0
   36.3710   29.3700   49.2780 S   0  0  0  0  0  0  0  0  0  0  0  0
   33.8700   28.3790   49.0360 N   0  0  0  0  0  0  0  0  0  0  0  0
   34.5730   29.6430   49.0370 C   0  0  2  0  0  0  0  0  0  0  0  0
   34.3710   30.2970   47.6870 C   0  0  0  0  0  0  0  0  0  0  0  0
   33.2630   29.7330   47.0220 O   0  0  0  0  0  0  0  0  0  0  0  0
   33.6960   28.4390   46.6560 C   0  0  0  0  0  0  0  0  0  0  0  0
   34.2250   27.6580   47.8350 C   0  0  2  0  0  0  0  0  0  0  0  0
   32.8640   28.5110   49.1630 H   0  0  0  0  0  0  0  0  0  0  0  0
   34.2310   30.2690   49.8690 H   0  0  0  0  0  0  0  0  0  0  0  0
   35.2440   30.1500   47.0200 H   0  0  0  0  0  0  0  0  0  0  0  0
   34.2070   31.3830   47.8750 H   0  0  0  0  0  0  0  0  0  0  0  0
   32.8960   27.9090   46.1250 H   0  0  0  0  0  0  0  0  0  0  0  0
   34.5130   28.6250   45.9130 H   0  0  0  0  0  0  0  0  0  0  0  0
   35.3280   27.5770   47.7890 H   0  0  0  0  0  0  0  0  0  0  0  0
   33.6210   26.3860   47.8880 O   0  0  0  0  0  0  0  0  0  0  0  0
   34.3230   25.7070   47.7280 H   0  0  0  0  0  0  0  0  0  0  0  0
  1 18  1  0  0  0  0
  1  2  1  0  0  0  0
  2  7  1  0  0  0  0
  3  2  2  0  0  0  0
  3  8  1  0  0  0  0
  4  3  1  0  0  0  0
  5  6  1  0  0  0  0
  5  4  2  0  0  0  0
  6  1  2  0  0  0  0
  9 10  2  0  0  0  0
 10 11  1  0  0  0  0
 11  5  1  1  0  0  0
 12 11  1  0  0  0  0
 12 13  1  0  0  0  0
 14 12  1  0  0  0  0
 15 14  1  0  0  0  0
 16 14  1  0  0  0  0
 16 10  1  0  0  0  0
 17 16  1  0  0  0  0
 19 20  1  0  0  0  0
 19 25  1  0  0  0  0
 20 18  1  0  0  0  0
 20 26  1  1  0  0  0
 21 28  1  0  0  0  0
 21 20  1  0  0  0  0
 22 21  1  0  0  0  0
 23 22  1  0  0  0  0
 23 24  1  0  0  0  0
 24 31  1  6  0  0  0
 24 32  1  0  0  0  0
 24 19  1  0  0  0  0
 27 21  1  0  0  0  0
 29 23  1  0  0  0  0
 30 23  1  0  0  0  0
 33 32  1  0  0  0  0
M  END
>  <minimizedAffinity>
-5.76018906

>  <minimizedRMSD>
0.516637802

$$$$
