
 OpenBabel03272506473D

 42 44  0  0  1  0  0  0  0  0999 V2000
   32.1670   28.5330   47.3530 C   0  0  2  0  0  0  0  0  0  0  0  0
   33.4060   28.3600   48.1810 C   0  0  1  0  0  0  0  0  0  0  0  0
   33.8350   27.0760   48.0330 O   0  0  0  0  0  0  0  0  0  0  0  0
   33.1590   26.4820   46.9730 C   0  0  0  0  0  0  0  0  0  0  0  0
   32.5390   27.5950   46.1630 C   0  0  1  0  0  0  0  0  0  0  0  0
   31.2460   28.1540   47.7920 H   0  0  0  0  0  0  0  0  0  0  0  0
   33.2070   28.6190   49.2380 H   0  0  0  0  0  0  0  0  0  0  0  0
   33.8630   25.8840   46.3310 H   0  0  0  0  0  0  0  0  0  0  0  0
   32.4780   25.7630   47.4070 H   0  0  0  0  0  0  0  0  0  0  0  0
   33.2810   28.1180   45.5680 H   0  0  0  0  0  0  0  0  0  0  0  0
   32.0710   29.8580   46.8770 O   0  0  0  0  0  0  0  0  0  0  0  0
   32.3650   29.8660   45.9340 H   0  0  0  0  0  0  0  0  0  0  0  0
   34.6970   29.4710   47.4920 S   0  0  0  0  0  0  0  0  0  0  0  0
   37.1000   29.2400   50.6330 C   0  0  0  0  0  0  0  0  0  0  0  0
   37.5720   30.5320   50.8330 C   0  0  0  0  0  0  0  0  0  0  0  0
   37.1230   31.5270   49.9500 C   0  0  0  0  0  0  0  0  0  0  0  0
   36.2590   31.1810   48.9540 N   0  0  0  0  0  0  0  0  0  0  0  0
   35.8320   29.9050   48.8060 C   0  0  0  0  0  0  0  0  0  0  0  0
   36.2460   28.9170   49.6420 N   0  0  0  0  0  0  0  0  0  0  0  0
   37.4320   28.4580   51.3010 H   0  0  0  0  0  0  0  0  0  0  0  0
   38.2490   30.8120   51.6110 H   0  0  0  0  0  0  0  0  0  0  0  0
   37.4350   32.5600   50.0270 H   0  0  0  0  0  0  0  0  0  0  0  0
   31.4160   27.1230   45.5330 O   0  0  0  0  0  0  0  0  0  0  0  0
   29.8370   29.2230   44.2070 Cl  0  0  0  0  0 15  0  0  0  0  0  0
   29.3390   28.1190   45.4690 C   0  0  0  0  0  3  0  0  0  0  0  0
   30.1740   27.1660   46.0090 C   0  0  0  0  0  0  0  0  0  0  0  0
   29.6570   26.3260   46.9980 C   0  0  0  0  0  0  0  0  0  0  0  0
   28.3520   26.4540   47.4170 C   0  0  0  0  0  0  0  0  0  0  0  0
   27.5070   27.4080   46.8830 C   0  0  0  0  0  0  0  0  0  0  0  0
   28.0090   28.2440   45.9020 C   0  0  0  0  0  0  0  0  0  0  0  0
   30.2290   25.5490   47.4730 H   0  0  0  0  0  0  0  0  0  0  0  0
   27.9010   25.8380   48.1740 H   0  0  0  0  0  0  0  0  0  0  0  0
   26.4670   27.5430   47.1890 H   0  0  0  0  0  0  0  0  0  0  0  0
   25.3060   27.9740   44.3720 O   0  0  0  0  0  0  0  0  0  0  0  0
   26.2970   28.7550   44.2100 C   0  0  0  0  0  0  0  0  0  0  0  0
   27.1180   29.2730   45.3180 C   0  0  2  0  0  3  0  0  0  0  0  0
   27.8670   30.4150   44.6850 C   0  0  0  0  0  3  0  0  0  0  0  0
   28.9520   30.2030   44.5600 H   0  0  0  0  0  0  0  0  0  0  0  0
   27.3120   30.6140   43.2890 C   0  0  0  0  0  3  0  0  0  0  0  0
   26.5070   31.3750   43.2470 H   0  0  0  0  0  0  0  0  0  0  0  0
   26.8160   29.2850   42.9760 N   0  0  0  0  0  0  0  0  0  0  0  0
   26.7920   28.7260   42.0750 H   0  0  0  0  0  0  0  0  0  0  0  0
  1  6  1  1  0  0  0
  1  2  1  0  0  0  0
  2  7  1  1  0  0  0
  3  2  1  0  0  0  0
  4  9  1  0  0  0  0
  4  3  1  0  0  0  0
  5 10  1  6  0  0  0
  5  4  1  0  0  0  0
  5  1  1  0  0  0  0
  8  4  1  0  0  0  0
 11  1  1  0  0  0  0
 12 11  1  0  0  0  0
 13  2  1  0  0  0  0
 13 18  1  0  0  0  0
 14 15  1  0  0  0  0
 14 20  1  0  0  0  0
 15 21  1  0  0  0  0
 16 22  1  0  0  0  0
 16 15  2  0  0  0  0
 17 16  1  0  0  0  0
 18 17  2  0  0  0  0
 18 19  1  0  0  0  0
 19 14  2  0  0  0  0
 23 26  1  0  0  0  0
 23  5  1  0  0  0  0
 25 30  2  0  0  0  0
 25 26  1  0  0  0  0
 26 27  2  0  0  0  0
 27 28  1  0  0  0  0
 27 31  1  0  0  0  0
 28 32  1  0  0  0  0
 29 33  1  0  0  0  0
 29 28  2  0  0  0  0
 30 29  1  0  0  0  0
 35 34  2  0  0  0  0
 35 36  1  0  0  0  0
 36 30  1  6  0  0  0
 37 36  1  0  0  0  0
 38 37  1  0  0  0  0
 39 37  1  0  0  0  0
 40 39  1  0  0  0  0
 41 39  1  0  0  0  0
 41 35  1  0  0  0  0
 42 41  1  0  0  0  0
M  END
>  <minimizedAffinity>
-5.08156538

>  <minimizedRMSD>
0.883936465

$$$$
