REMARK  Name = 
REMARK  6 active torsions:
REMARK  status: ('A' for Active; 'I' for Inactive)
REMARK    1  A    between atoms: C_1  and  O_6
REMARK    2  A    between atoms: C_2  and  S_7
REMARK    3  A    between atoms: C_5  and  O_14
REMARK    4  A    between atoms: S_7  and  C_12
REMARK    5  A    between atoms: O_14  and  C_17
REMARK    6  A    between atoms: C_21  and  C_36
REMARK                            x       y       z     vdW  Elec       q    Type
REMARK                         _______ _______ _______ _____ _____    ______ ____
ROOT
ATOM      1  C   UNL     1      32.164  28.526  47.426  0.00  0.00    +0.000 C 
ATOM      2  C   UNL     1      33.407  28.367  48.252  0.00  0.00    +0.000 C 
ATOM      3  O   UNL     1      33.807  27.068  48.165  0.00  0.00    +0.000 OA
ATOM      4  C   UNL     1      33.108  26.437  47.141  0.00  0.00    +0.000 C 
ATOM      5  C   UNL     1      32.505  27.521  46.282  0.00  0.00    +0.000 C 
ATOM      6  H   UNL     1      31.239  28.190  47.891  0.00  0.00    +0.000 HD
ATOM      7  H   UNL     1      33.223  28.683  49.296  0.00  0.00    +0.000 HD
ATOM      8  H   UNL     1      33.793  25.792  46.524  0.00  0.00    +0.000 HD
ATOM      9  H   UNL     1      32.416  25.756  47.616  0.00  0.00    +0.000 HD
ATOM     10  H   UNL     1      33.252  27.997  45.655  0.00  0.00    +0.000 HD
ENDROOT
BRANCH   1  11
ATOM     11  O   UNL     1      32.093  29.827  46.885  0.00  0.00    +0.000 OA
ATOM     12  H   UNL     1      32.378  29.781  45.940  0.00  0.00    +0.000 HD
ENDBRANCH   1  11
BRANCH   2  13
ATOM     13  S   UNL     1      34.715  29.413  47.497  0.00  0.00    +0.000 S 
BRANCH  13  18
ATOM     14  C   UNL     1      37.130  29.296  50.636  0.00  0.00    +0.000 A 
ATOM     15  C   UNL     1      37.638  30.583  50.759  0.00  0.00    +0.000 A 
ATOM     16  C   UNL     1      37.212  31.538  49.822  0.00  0.00    +0.000 A 
ATOM     17  N   UNL     1      36.333  31.160  48.851  0.00  0.00    +0.000 NA
ATOM     18  C   UNL     1      35.870  29.890  48.779  0.00  0.00    +0.000 A 
ATOM     19  N   UNL     1      36.261  28.940  49.669  0.00  0.00    +0.000 NA
ATOM     20  H   UNL     1      37.444  28.544  51.346  0.00  0.00    +0.000 HD
ATOM     21  H   UNL     1      38.328  30.888  51.517  0.00  0.00    +0.000 HD
ATOM     22  H   UNL     1      37.553  32.565  49.838  0.00  0.00    +0.000 HD
ENDBRANCH  13  18
ENDBRANCH   2  13
BRANCH   5  23
ATOM     23  O   UNL     1      31.366  27.043  45.685  0.00  0.00    +0.000 OA
BRANCH  23  26
ATOM     24 CL   UNL     1      29.887  29.120  44.215  0.00  0.00    +0.000 Cl
ATOM     25  C   UNL     1      29.336  28.124  45.543  0.00  0.00    +0.000 A 
ATOM     26  C   UNL     1      30.125  27.172  46.149  0.00  0.00    +0.000 A 
ATOM     27  C   UNL     1      29.568  26.422  47.187  0.00  0.00    +0.000 A 
ATOM     28  C   UNL     1      28.268  26.635  47.589  0.00  0.00    +0.000 A 
ATOM     29  C   UNL     1      27.469  27.589  46.988  0.00  0.00    +0.000 A 
ATOM     30  C   UNL     1      28.011  28.336  45.958  0.00  0.00    +0.000 A 
ATOM     31  H   UNL     1      30.103  25.654  47.716  0.00  0.00    +0.000 HD
ATOM     32  H   UNL     1      27.787  26.091  48.381  0.00  0.00    +0.000 HD
ATOM     33  H   UNL     1      26.434  27.789  47.277  0.00  0.00    +0.000 HD
BRANCH  30  36
ATOM     34  O   UNL     1      25.484  28.056  44.153  0.00  0.00    +0.000 OA
ATOM     35  C   UNL     1      26.474  28.854  44.107  0.00  0.00    +0.000 C 
ATOM     36  C   UNL     1      27.169  29.363  45.302  0.00  0.00    +0.000 C 
ATOM     37  C   UNL     1      27.961  30.525  44.769  0.00  0.00    +0.000 C 
ATOM     38  H   UNL     1      29.057  30.330  44.752  0.00  0.00    +0.000 HD
ATOM     39  C   UNL     1      27.550  30.742  43.326  0.00  0.00    +0.000 C 
ATOM     40  H   UNL     1      26.743  31.493  43.213  0.00  0.00    +0.000 HD
ATOM     41  N   UNL     1      27.110  29.412  42.942  0.00  0.00    +0.000 N 
ATOM     42  H   UNL     1      27.187  28.869  42.035  0.00  0.00    +0.000 HD
ENDBRANCH  30  36
ENDBRANCH  23  26
ENDBRANCH   5  23
TORSDOF 6
