
 OpenBabel03272508313D

 32 34  0  0  1  0  0  0  0  0999 V2000
   40.3350   25.2610   34.8020 N   0  0  0  0  0  0  0  0  0  0  0  0
   41.6090   25.8400   34.3960 C   0  0  0  0  0  0  0  0  0  0  0  0
   42.6960   24.8340   34.3060 C   0  0  0  0  0  0  0  0  0  0  0  0
   42.1600   23.5340   34.1010 N   0  0  0  0  0  0  0  0  0  0  0  0
   41.4870   23.1800   35.3680 C   0  0  0  0  0  0  0  0  0  0  0  0
   40.1700   23.8910   35.2650 C   0  0  1  0  0  0  0  0  0  0  0  0
   41.5100   26.3350   33.3910 H   0  0  0  0  0  0  0  0  0  0  0  0
   41.9360   26.6460   35.0790 H   0  0  0  0  0  0  0  0  0  0  0  0
   43.3630   25.0440   33.4190 H   0  0  0  0  0  0  0  0  0  0  0  0
   43.3290   24.8430   35.2070 H   0  0  0  0  0  0  0  0  0  0  0  0
   42.9450   22.8390   34.0440 H   0  0  0  0  0  0  0  0  0  0  0  0
   41.2920   22.0980   35.3760 H   0  0  0  0  0  0  0  0  0  0  0  0
   42.0870   23.5080   36.2420 H   0  0  0  0  0  0  0  0  0  0  0  0
   39.5810   23.3760   34.4760 H   0  0  0  0  0  0  0  0  0  0  0  0
   38.1690   25.8400   33.7900 C   0  0  0  0  0  0  0  0  0  0  0  0
   39.1680   26.0720   34.7520 C   0  0  0  0  0  0  0  0  0  0  0  0
   38.9870   27.1170   35.6760 C   0  0  0  0  0  0  0  0  0  0  0  0
   37.8210   27.8460   35.5670 N   0  0  0  0  0  0  0  0  0  0  0  0
   36.8930   27.5740   34.6170 C   0  0  0  0  0  0  0  0  0  0  0  0
   37.0440   26.5840   33.7250 N   0  0  0  0  0  0  0  0  0  0  0  0
   38.2770   25.0490   33.0680 H   0  0  0  0  0  0  0  0  0  0  0  0
   39.7210   27.3270   36.4210 H   0  0  0  0  0  0  0  0  0  0  0  0
   36.0770   28.2830   34.7440 H   0  0  0  0  0  0  0  0  0  0  0  0
   40.8720   22.0790   37.8160 O   0  0  0  0  0  0  0  0  0  0  0  0
   39.8870   22.8300   37.4960 C   0  0  0  0  0  0  0  0  0  0  0  0
   39.3620   23.8190   36.5290 C   0  0  2  0  0  3  0  0  0  0  0  0
   37.9830   23.2450   36.3020 C   0  0  0  0  0  3  0  0  0  0  0  0
   38.1300   22.2390   35.8600 H   0  0  0  0  0  0  0  0  0  0  0  0
   37.5340   23.0780   37.7600 C   0  0  0  0  0  3  0  0  0  0  0  0
   37.1880   24.0330   38.1730 H   0  0  0  0  0  0  0  0  0  0  0  0
   38.7920   22.7120   38.4310 N   0  0  0  0  0  0  0  0  0  0  0  0
   38.6100   22.4470   39.4410 H   0  0  0  0  0  0  0  0  0  0  0  0
  1  6  1  0  0  0  0
  2  1  1  0  0  0  0
  2  8  1  0  0  0  0
  3  2  1  0  0  0  0
  3 10  1  0  0  0  0
  4  3  1  0  0  0  0
  4  5  1  0  0  0  0
  5 12  1  0  0  0  0
  5 13  1  0  0  0  0
  6 14  1  6  0  0  0
  6  5  1  0  0  0  0
  6 26  1  0  0  0  0
  7  2  1  0  0  0  0
  9  3  1  0  0  0  0
 11  4  1  0  0  0  0
 15 16  1  0  0  0  0
 16  1  1  0  0  0  0
 16 17  2  0  0  0  0
 17 22  1  0  0  0  0
 18 17  1  0  0  0  0
 19 23  1  0  0  0  0
 19 18  2  0  0  0  0
 20 15  2  0  0  0  0
 20 19  1  0  0  0  0
 21 15  1  0  0  0  0
 25 24  2  0  0  0  0
 25 31  1  0  0  0  0
 26 27  1  6  0  0  0
 26 25  1  0  0  0  0
 27 29  1  0  0  0  0
 28 27  1  0  0  0  0
 29 30  1  0  0  0  0
 29 31  1  0  0  0  0
 31 32  1  0  0  0  0
M  END
>  <minimizedAffinity>
-4.88673067

$$$$

 OpenBabel03272508313D

 32 34  0  0  1  0  0  0  0  0999 V2000
   39.2470   23.4350   34.0210 N   0  0  0  0  0  0  0  0  0  0  0  0
   39.5630   22.4720   32.9740 C   0  0  0  0  0  0  0  0  0  0  0  0
   38.5860   21.3570   32.9040 C   0  0  0  0  0  0  0  0  0  0  0  0
   37.3370   21.7480   33.4590 N   0  0  0  0  0  0  0  0  0  0  0  0
   37.5760   21.8870   34.9110 C   0  0  0  0  0  0  0  0  0  0  0  0
   38.2100   23.2420   35.0240 C   0  0  1  0  0  0  0  0  0  0  0  0
   39.5840   22.9780   31.9710 H   0  0  0  0  0  0  0  0  0  0  0  0
   40.5740   22.0410   33.0980 H   0  0  0  0  0  0  0  0  0  0  0  0
   38.3790   21.0730   31.8310 H   0  0  0  0  0  0  0  0  0  0  0  0
   38.9610   20.4590   33.4190 H   0  0  0  0  0  0  0  0  0  0  0  0
   36.6640   20.9440   33.4020 H   0  0  0  0  0  0  0  0  0  0  0  0
   36.6070   21.9180   35.4280 H   0  0  0  0  0  0  0  0  0  0  0  0
   38.2300   21.0720   35.2850 H   0  0  0  0  0  0  0  0  0  0  0  0
   37.4230   23.9920   34.7920 H   0  0  0  0  0  0  0  0  0  0  0  0
   41.3710   24.6320   34.3480 C   0  0  0  0  0  0  0  0  0  0  0  0
   39.9900   24.6460   34.0830 C   0  0  0  0  0  0  0  0  0  0  0  0
   39.3550   25.8820   33.8690 C   0  0  0  0  0  0  0  0  0  0  0  0
   40.1510   27.0070   33.9350 N   0  0  0  0  0  0  0  0  0  0  0  0
   41.4790   26.9300   34.1920 C   0  0  0  0  0  0  0  0  0  0  0  0
   42.1060   25.7630   34.4000 N   0  0  0  0  0  0  0  0  0  0  0  0
   41.8870   23.7020   34.5170 H   0  0  0  0  0  0  0  0  0  0  0  0
   38.3090   25.9370   33.6680 H   0  0  0  0  0  0  0  0  0  0  0  0
   41.8730   27.9450   34.1880 H   0  0  0  0  0  0  0  0  0  0  0  0
   40.4410   21.5660   36.6040 O   0  0  0  0  0  0  0  0  0  0  0  0
   39.6760   22.5440   36.9080 C   0  0  0  0  0  0  0  0  0  0  0  0
   38.7060   23.5440   36.4100 C   0  0  2  0  0  3  0  0  0  0  0  0
   37.6260   23.3950   37.4560 C   0  0  0  0  0  3  0  0  0  0  0  0
   37.2550   22.3530   37.3780 H   0  0  0  0  0  0  0  0  0  0  0  0
   38.4820   23.5170   38.7230 C   0  0  0  0  0  3  0  0  0  0  0  0
   38.7030   24.5690   38.9440 H   0  0  0  0  0  0  0  0  0  0  0  0
   39.7330   22.8570   38.3170 N   0  0  0  0  0  0  0  0  0  0  0  0
   40.3880   22.7620   39.1460 H   0  0  0  0  0  0  0  0  0  0  0  0
  1 16  1  0  0  0  0
  1  6  1  0  0  0  0
  2  8  1  0  0  0  0
  2  1  1  0  0  0  0
  3  2  1  0  0  0  0
  3 10  1  0  0  0  0
  3  4  1  0  0  0  0
  4  5  1  0  0  0  0
  5  6  1  0  0  0  0
  5 13  1  0  0  0  0
  5 12  1  0  0  0  0
  6 14  1  6  0  0  0
  6 26  1  0  0  0  0
  7  2  1  0  0  0  0
  9  3  1  0  0  0  0
 11  4  1  0  0  0  0
 15 20  1  0  0  0  0
 15 21  1  0  0  0  0
 16 15  2  0  0  0  0
 17 18  2  0  0  0  0
 17 16  1  0  0  0  0
 18 19  1  0  0  0  0
 19 20  2  0  0  0  0
 22 17  1  0  0  0  0
 23 19  1  0  0  0  0
 24 25  2  0  0  0  0
 25 31  1  0  0  0  0
 26 25  1  1  0  0  0
 26 27  1  0  0  0  0
 27 29  1  0  0  0  0
 28 27  1  0  0  0  0
 29 30  1  0  0  0  0
 31 29  1  0  0  0  0
 31 32  1  0  0  0  0
M  END
>  <minimizedAffinity>
-4.54410172

$$$$

 OpenBabel03272508313D

 32 34  0  0  1  0  0  0  0  0999 V2000
   38.0420   25.9910   33.9240 N   0  0  0  0  0  0  0  0  0  0  0  0
   37.0760   27.0720   34.0710 C   0  0  0  0  0  0  0  0  0  0  0  0
   37.2750   27.8560   35.3150 C   0  0  0  0  0  0  0  0  0  0  0  0
   38.6160   27.7410   35.7720 N   0  0  0  0  0  0  0  0  0  0  0  0
   38.7570   26.3450   36.2350 C   0  0  0  0  0  0  0  0  0  0  0  0
   38.9790   25.5840   34.9620 C   0  0  1  0  0  0  0  0  0  0  0  0
   37.1460   27.7800   33.2000 H   0  0  0  0  0  0  0  0  0  0  0  0
   36.0350   26.7030   34.0550 H   0  0  0  0  0  0  0  0  0  0  0  0
   37.0990   28.9560   35.1270 H   0  0  0  0  0  0  0  0  0  0  0  0
   36.5790   27.5390   36.1070 H   0  0  0  0  0  0  0  0  0  0  0  0
   38.7320   28.3000   36.6530 H   0  0  0  0  0  0  0  0  0  0  0  0
   39.6690   26.2650   36.8450 H   0  0  0  0  0  0  0  0  0  0  0  0
   37.8510   26.0150   36.7840 H   0  0  0  0  0  0  0  0  0  0  0  0
   39.9860   25.8620   34.5840 H   0  0  0  0  0  0  0  0  0  0  0  0
   36.9660   24.5620   32.2350 C   0  0  0  0  0  0  0  0  0  0  0  0
   38.0870   25.2760   32.6950 C   0  0  0  0  0  0  0  0  0  0  0  0
   39.2540   25.2800   31.9110 C   0  0  0  0  0  0  0  0  0  0  0  0
   39.2080   24.5720   30.7280 N   0  0  0  0  0  0  0  0  0  0  0  0
   38.0970   23.9030   30.3370 C   0  0  0  0  0  0  0  0  0  0  0  0
   36.9720   23.8850   31.0680 N   0  0  0  0  0  0  0  0  0  0  0  0
   36.0570   24.5380   32.8120 H   0  0  0  0  0  0  0  0  0  0  0  0
   40.1270   25.8070   32.2250 H   0  0  0  0  0  0  0  0  0  0  0  0
   38.3170   23.4340   29.3800 H   0  0  0  0  0  0  0  0  0  0  0  0
   37.1700   23.9880   37.0750 O   0  0  0  0  0  0  0  0  0  0  0  0
   38.1050   23.6560   36.2670 C   0  0  0  0  0  0  0  0  0  0  0  0
   38.9820   24.0950   35.1600 C   0  0  2  0  0  3  0  0  0  0  0  0
   40.3100   23.5840   35.6700 C   0  0  0  0  0  3  0  0  0  0  0  0
   40.5080   24.1180   36.6200 H   0  0  0  0  0  0  0  0  0  0  0  0
   39.9160   22.1360   35.9950 C   0  0  0  0  0  3  0  0  0  0  0  0
   39.9050   21.5230   35.0850 H   0  0  0  0  0  0  0  0  0  0  0  0
   38.5310   22.2900   36.4670 N   0  0  0  0  0  0  0  0  0  0  0  0
   38.1630   21.3700   36.8430 H   0  0  0  0  0  0  0  0  0  0  0  0
  1  2  1  0  0  0  0
  1  6  1  0  0  0  0
  2  3  1  0  0  0  0
  3  4  1  0  0  0  0
  3 10  1  0  0  0  0
  4  5  1  0  0  0  0
  4 11  1  0  0  0  0
  5 13  1  0  0  0  0
  5 12  1  0  0  0  0
  6 14  1  6  0  0  0
  6 26  1  0  0  0  0
  6  5  1  0  0  0  0
  7  2  1  0  0  0  0
  8  2  1  0  0  0  0
  9  3  1  0  0  0  0
 15 16  1  0  0  0  0
 15 21  1  0  0  0  0
 16  1  1  0  0  0  0
 17 22  1  0  0  0  0
 17 16  2  0  0  0  0
 18 17  1  0  0  0  0
 19 18  2  0  0  0  0
 19 20  1  0  0  0  0
 20 15  2  0  0  0  0
 23 19  1  0  0  0  0
 25 31  1  0  0  0  0
 25 24  2  0  0  0  0
 26 27  1  1  0  0  0
 26 25  1  0  0  0  0
 27 29  1  0  0  0  0
 27 28  1  0  0  0  0
 29 31  1  0  0  0  0
 30 29  1  0  0  0  0
 31 32  1  0  0  0  0
M  END
>  <minimizedAffinity>
-4.43062305

$$$$

 OpenBabel03272508313D

 32 34  0  0  1  0  0  0  0  0999 V2000
   38.6330   23.7320   35.1370 N   0  0  0  0  0  0  0  0  0  0  0  0
   38.1220   25.0700   35.4040 C   0  0  0  0  0  0  0  0  0  0  0  0
   39.1730   26.1150   35.3160 C   0  0  0  0  0  0  0  0  0  0  0  0
   40.2480   25.6780   34.4950 N   0  0  0  0  0  0  0  0  0  0  0  0
   40.9150   24.6030   35.2580 C   0  0  0  0  0  0  0  0  0  0  0  0
   40.0450   23.4080   34.9950 C   0  0  1  0  0  0  0  0  0  0  0  0
   37.3110   25.3320   34.6710 H   0  0  0  0  0  0  0  0  0  0  0  0
   37.6430   25.1410   36.3970 H   0  0  0  0  0  0  0  0  0  0  0  0
   38.7660   27.0510   34.8330 H   0  0  0  0  0  0  0  0  0  0  0  0
   39.5490   26.3930   36.3130 H   0  0  0  0  0  0  0  0  0  0  0  0
   40.9790   26.4300   34.4510 H   0  0  0  0  0  0  0  0  0  0  0  0
   41.9020   24.4120   34.8120 H   0  0  0  0  0  0  0  0  0  0  0  0
   40.9800   24.8610   36.3350 H   0  0  0  0  0  0  0  0  0  0  0  0
   40.1840   23.1300   33.9280 H   0  0  0  0  0  0  0  0  0  0  0  0
   37.4700   22.0610   33.7560 C   0  0  0  0  0  0  0  0  0  0  0  0
   37.7080   22.6600   35.0060 C   0  0  0  0  0  0  0  0  0  0  0  0
   37.0200   22.1710   36.1310 C   0  0  0  0  0  0  0  0  0  0  0  0
   36.1510   21.1210   35.9190 N   0  0  0  0  0  0  0  0  0  0  0  0
   35.9650   20.5840   34.6890 C   0  0  0  0  0  0  0  0  0  0  0  0
   36.6080   21.0330   33.6010 N   0  0  0  0  0  0  0  0  0  0  0  0
   37.9800   22.4110   32.8740 H   0  0  0  0  0  0  0  0  0  0  0  0
   37.1700   22.5990   37.0970 H   0  0  0  0  0  0  0  0  0  0  0  0
   35.2390   19.7790   34.7900 H   0  0  0  0  0  0  0  0  0  0  0  0
   39.8190   23.1870   38.1860 O   0  0  0  0  0  0  0  0  0  0  0  0
   40.2960   22.4330   37.2690 C   0  0  0  0  0  0  0  0  0  0  0  0
   40.4310   22.2090   35.8130 C   0  0  2  0  0  3  0  0  0  0  0  0
   41.9110   21.9100   35.7380 C   0  0  0  0  0  3  0  0  0  0  0  0
   42.4330   22.8220   36.0880 H   0  0  0  0  0  0  0  0  0  0  0  0
   42.0090   20.8390   36.8320 C   0  0  0  0  0  3  0  0  0  0  0  0
   41.6810   19.8630   36.4530 H   0  0  0  0  0  0  0  0  0  0  0  0
   41.0200   21.3090   37.8160 N   0  0  0  0  0  0  0  0  0  0  0  0
   41.0630   20.7190   38.6960 H   0  0  0  0  0  0  0  0  0  0  0  0
  1  2  1  0  0  0  0
  2  8  1  0  0  0  0
  3  2  1  0  0  0  0
  3 10  1  0  0  0  0
  4  5  1  0  0  0  0
  4  3  1  0  0  0  0
  5 13  1  0  0  0  0
  6 14  1  6  0  0  0
  6  1  1  0  0  0  0
  6  5  1  0  0  0  0
  6 26  1  0  0  0  0
  7  2  1  0  0  0  0
  9  3  1  0  0  0  0
 11  4  1  0  0  0  0
 12  5  1  0  0  0  0
 15 16  1  0  0  0  0
 16  1  1  0  0  0  0
 16 17  2  0  0  0  0
 17 22  1  0  0  0  0
 18 17  1  0  0  0  0
 19 23  1  0  0  0  0
 19 18  2  0  0  0  0
 20 15  2  0  0  0  0
 20 19  1  0  0  0  0
 21 15  1  0  0  0  0
 25 31  1  0  0  0  0
 25 24  2  0  0  0  0
 26 27  1  1  0  0  0
 26 25  1  0  0  0  0
 27 28  1  0  0  0  0
 27 29  1  0  0  0  0
 29 31  1  0  0  0  0
 30 29  1  0  0  0  0
 31 32  1  0  0  0  0
M  END
>  <minimizedAffinity>
-4.32199335

$$$$

 OpenBabel03272508313D

 32 34  0  0  1  0  0  0  0  0999 V2000
   38.9490   24.2820   36.1440 N   0  0  0  0  0  0  0  0  0  0  0  0
   37.9410   24.2730   37.1960 C   0  0  0  0  0  0  0  0  0  0  0  0
   38.2200   23.2670   38.2510 C   0  0  0  0  0  0  0  0  0  0  0  0
   39.6050   22.9510   38.2890 N   0  0  0  0  0  0  0  0  0  0  0  0
   39.8750   22.2050   37.0430 C   0  0  0  0  0  0  0  0  0  0  0  0
   40.0090   23.2920   36.0170 C   0  0  1  0  0  0  0  0  0  0  0  0
   37.8800   25.2830   37.6860 H   0  0  0  0  0  0  0  0  0  0  0  0
   36.9270   24.0880   36.7970 H   0  0  0  0  0  0  0  0  0  0  0  0
   37.9600   23.6750   39.2710 H   0  0  0  0  0  0  0  0  0  0  0  0
   37.6290   22.3500   38.1000 H   0  0  0  0  0  0  0  0  0  0  0  0
   39.7770   22.2370   39.0390 H   0  0  0  0  0  0  0  0  0  0  0  0
   40.8470   21.7000   37.1350 H   0  0  0  0  0  0  0  0  0  0  0  0
   39.0500   21.4980   36.8170 H   0  0  0  0  0  0  0  0  0  0  0  0
   40.9540   23.8350   36.2350 H   0  0  0  0  0  0  0  0  0  0  0  0
   37.7720   25.5040   34.3620 C   0  0  0  0  0  0  0  0  0  0  0  0
   38.9090   25.3160   35.1670 C   0  0  0  0  0  0  0  0  0  0  0  0
   40.0070   26.1780   34.9990 C   0  0  0  0  0  0  0  0  0  0  0  0
   39.8820   27.1620   34.0390 N   0  0  0  0  0  0  0  0  0  0  0  0
   38.7580   27.2940   33.2940 C   0  0  0  0  0  0  0  0  0  0  0  0
   37.6990   26.4840   33.4360 N   0  0  0  0  0  0  0  0  0  0  0  0
   36.9150   24.8610   34.4650 H   0  0  0  0  0  0  0  0  0  0  0  0
   40.8900   26.0680   35.5880 H   0  0  0  0  0  0  0  0  0  0  0  0
   38.9100   28.1350   32.6200 H   0  0  0  0  0  0  0  0  0  0  0  0
   37.7310   21.6590   34.4590 O   0  0  0  0  0  0  0  0  0  0  0  0
   38.9420   21.9780   34.1960 C   0  0  0  0  0  0  0  0  0  0  0  0
   40.1210   22.7670   34.6140 C   0  0  2  0  0  3  0  0  0  0  0  0
   41.1950   21.7120   34.4770 C   0  0  0  0  0  3  0  0  0  0  0  0
   40.9350   20.9050   35.1910 H   0  0  0  0  0  0  0  0  0  0  0  0
   40.8900   21.2240   33.0540 C   0  0  0  0  0  3  0  0  0  0  0  0
   41.3130   21.9090   32.3090 H   0  0  0  0  0  0  0  0  0  0  0  0
   39.4230   21.3280   32.9990 N   0  0  0  0  0  0  0  0  0  0  0  0
   39.0550   20.9070   32.0980 H   0  0  0  0  0  0  0  0  0  0  0  0
  1  2  1  0  0  0  0
  2  7  1  0  0  0  0
  2  3  1  0  0  0  0
  3  4  1  0  0  0  0
  3  9  1  0  0  0  0
  4 11  1  0  0  0  0
  5 12  1  0  0  0  0
  5  4  1  0  0  0  0
  6  1  1  0  0  0  0
  6 14  1  1  0  0  0
  6  5  1  0  0  0  0
  8  2  1  0  0  0  0
 10  3  1  0  0  0  0
 13  5  1  0  0  0  0
 15 21  1  0  0  0  0
 15 16  1  0  0  0  0
 16  1  1  0  0  0  0
 17 16  2  0  0  0  0
 17 22  1  0  0  0  0
 18 17  1  0  0  0  0
 19 20  1  0  0  0  0
 19 18  2  0  0  0  0
 20 15  2  0  0  0  0
 23 19  1  0  0  0  0
 25 24  2  0  0  0  0
 26 25  1  1  0  0  0
 26  6  1  0  0  0  0
 27 26  1  0  0  0  0
 27 28  1  0  0  0  0
 29 27  1  0  0  0  0
 30 29  1  0  0  0  0
 31 29  1  0  0  0  0
 31 25  1  0  0  0  0
 32 31  1  0  0  0  0
M  END
>  <minimizedAffinity>
-4.19327927

$$$$

 OpenBabel03272508313D

 32 34  0  0  1  0  0  0  0  0999 V2000
   39.9150   25.1300   34.9170 N   0  0  0  0  0  0  0  0  0  0  0  0
   41.3010   24.6850   34.8410 C   0  0  0  0  0  0  0  0  0  0  0  0
   42.2100   25.7240   34.2960 C   0  0  0  0  0  0  0  0  0  0  0  0
   41.6600   27.0210   34.4870 N   0  0  0  0  0  0  0  0  0  0  0  0
   40.4960   27.0940   33.5810 C   0  0  0  0  0  0  0  0  0  0  0  0
   39.4230   26.3750   34.3450 C   0  0  1  0  0  0  0  0  0  0  0  0
   41.6740   24.3960   35.8600 H   0  0  0  0  0  0  0  0  0  0  0  0
   41.4100   23.7710   34.2280 H   0  0  0  0  0  0  0  0  0  0  0  0
   43.1980   25.7160   34.8420 H   0  0  0  0  0  0  0  0  0  0  0  0
   42.4190   25.5570   33.2280 H   0  0  0  0  0  0  0  0  0  0  0  0
   42.3180   27.7380   34.0920 H   0  0  0  0  0  0  0  0  0  0  0  0
   40.1950   28.1460   33.4760 H   0  0  0  0  0  0  0  0  0  0  0  0
   40.7220   26.6190   32.6040 H   0  0  0  0  0  0  0  0  0  0  0  0
   39.1510   27.0160   35.2110 H   0  0  0  0  0  0  0  0  0  0  0  0
   38.6990   23.0020   35.1350 C   0  0  0  0  0  0  0  0  0  0  0  0
   38.9680   24.3070   35.5860 C   0  0  0  0  0  0  0  0  0  0  0  0
   38.2910   24.7820   36.7230 C   0  0  0  0  0  0  0  0  0  0  0  0
   37.3980   23.9160   37.3210 N   0  0  0  0  0  0  0  0  0  0  0  0
   37.1820   22.6680   36.8400 C   0  0  0  0  0  0  0  0  0  0  0  0
   37.8160   22.1920   35.7570 N   0  0  0  0  0  0  0  0  0  0  0  0
   39.2000   22.6090   34.2670 H   0  0  0  0  0  0  0  0  0  0  0  0
   38.4640   25.7660   37.0970 H   0  0  0  0  0  0  0  0  0  0  0  0
   36.4430   22.1920   37.4820 H   0  0  0  0  0  0  0  0  0  0  0  0
   39.2270   24.7420   31.5920 O   0  0  0  0  0  0  0  0  0  0  0  0
   38.4060   25.4460   32.2750 C   0  0  0  0  0  0  0  0  0  0  0  0
   38.1690   26.1680   33.5440 C   0  0  2  0  0  3  0  0  0  0  0  0
   37.6110   27.4630   33.0010 C   0  0  0  0  0  3  0  0  0  0  0  0
   38.4130   27.9170   32.3850 H   0  0  0  0  0  0  0  0  0  0  0  0
   36.5330   26.9000   32.0640 C   0  0  0  0  0  3  0  0  0  0  0  0
   35.6340   26.6220   32.6280 H   0  0  0  0  0  0  0  0  0  0  0  0
   37.1670   25.6690   31.5660 N   0  0  0  0  0  0  0  0  0  0  0  0
   36.5740   25.2280   30.8060 H   0  0  0  0  0  0  0  0  0  0  0  0
  1 16  1  0  0  0  0
  2  1  1  0  0  0  0
  2  7  1  0  0  0  0
  3  4  1  0  0  0  0
  3  2  1  0  0  0  0
  3  9  1  0  0  0  0
  5  6  1  0  0  0  0
  5  4  1  0  0  0  0
  6  1  1  0  0  0  0
  6 14  1  1  0  0  0
  8  2  1  0  0  0  0
 10  3  1  0  0  0  0
 11  4  1  0  0  0  0
 12  5  1  0  0  0  0
 13  5  1  0  0  0  0
 15 16  2  0  0  0  0
 15 20  1  0  0  0  0
 16 17  1  0  0  0  0
 17 22  1  0  0  0  0
 17 18  2  0  0  0  0
 19 18  1  0  0  0  0
 19 23  1  0  0  0  0
 20 19  2  0  0  0  0
 21 15  1  0  0  0  0
 24 25  2  0  0  0  0
 26 25  1  6  0  0  0
 26  6  1  0  0  0  0
 27 26  1  0  0  0  0
 28 27  1  0  0  0  0
 29 30  1  0  0  0  0
 29 27  1  0  0  0  0
 31 29  1  0  0  0  0
 31 25  1  0  0  0  0
 32 31  1  0  0  0  0
M  END
>  <minimizedAffinity>
-4.17328644

$$$$

 OpenBabel03272508313D

 32 34  0  0  1  0  0  0  0  0999 V2000
   38.4860   22.7620   34.5800 N   0  0  0  0  0  0  0  0  0  0  0  0
   37.4290   21.8700   34.1220 C   0  0  0  0  0  0  0  0  0  0  0  0
   37.5080   21.5830   32.6680 C   0  0  0  0  0  0  0  0  0  0  0  0
   38.8320   21.7750   32.1900 N   0  0  0  0  0  0  0  0  0  0  0  0
   39.0680   23.2330   32.2520 C   0  0  0  0  0  0  0  0  0  0  0  0
   39.4060   23.4620   33.6950 C   0  0  1  0  0  0  0  0  0  0  0  0
   37.4780   20.8910   34.6720 H   0  0  0  0  0  0  0  0  0  0  0  0
   36.4230   22.2710   34.3440 H   0  0  0  0  0  0  0  0  0  0  0  0
   37.2490   20.5040   32.4580 H   0  0  0  0  0  0  0  0  0  0  0  0
   36.8060   22.2090   32.0950 H   0  0  0  0  0  0  0  0  0  0  0  0
   38.8630   21.5710   31.1600 H   0  0  0  0  0  0  0  0  0  0  0  0
   39.9550   23.4740   31.6500 H   0  0  0  0  0  0  0  0  0  0  0  0
   38.1680   23.7940   31.9250 H   0  0  0  0  0  0  0  0  0  0  0  0
   40.4030   23.0050   33.8750 H   0  0  0  0  0  0  0  0  0  0  0  0
   37.6290   23.5940   36.7310 C   0  0  0  0  0  0  0  0  0  0  0  0
   38.6430   22.9760   35.9770 C   0  0  0  0  0  0  0  0  0  0  0  0
   39.8150   22.5600   36.6340 C   0  0  0  0  0  0  0  0  0  0  0  0
   39.8810   22.7930   37.9920 N   0  0  0  0  0  0  0  0  0  0  0  0
   38.8690   23.3940   38.6650 C   0  0  0  0  0  0  0  0  0  0  0  0
   37.7430   23.8000   38.0600 N   0  0  0  0  0  0  0  0  0  0  0  0
   36.7200   23.9260   36.2580 H   0  0  0  0  0  0  0  0  0  0  0  0
   40.6080   22.0880   36.0990 H   0  0  0  0  0  0  0  0  0  0  0  0
   39.1640   23.4590   39.7100 H   0  0  0  0  0  0  0  0  0  0  0  0
   37.1020   25.6590   33.3060 O   0  0  0  0  0  0  0  0  0  0  0  0
   38.3270   25.7020   33.6740 C   0  0  0  0  0  0  0  0  0  0  0  0
   39.5240   24.9180   34.0470 C   0  0  2  0  0  3  0  0  0  0  0  0
   40.5650   25.6310   33.2150 C   0  0  0  0  0  3  0  0  0  0  0  0
   40.2670   25.4940   32.1560 H   0  0  0  0  0  0  0  0  0  0  0  0
   40.2670   27.0800   33.6250 C   0  0  0  0  0  3  0  0  0  0  0  0
   40.7250   27.3120   34.5940 H   0  0  0  0  0  0  0  0  0  0  0  0
   38.8060   27.0600   33.7950 N   0  0  0  0  0  0  0  0  0  0  0  0
   38.4390   28.0390   33.9680 H   0  0  0  0  0  0  0  0  0  0  0  0
  1 16  1  0  0  0  0
  2  8  1  0  0  0  0
  2  1  1  0  0  0  0
  2  7  1  0  0  0  0
  3  2  1  0  0  0  0
  4  5  1  0  0  0  0
  4  3  1  0  0  0  0
  5  6  1  0  0  0  0
  6 14  1  1  0  0  0
  6 26  1  0  0  0  0
  6  1  1  0  0  0  0
  9  3  1  0  0  0  0
 10  3  1  0  0  0  0
 11  4  1  0  0  0  0
 12  5  1  0  0  0  0
 13  5  1  0  0  0  0
 15 20  1  0  0  0  0
 16 17  1  0  0  0  0
 16 15  2  0  0  0  0
 17 18  2  0  0  0  0
 18 19  1  0  0  0  0
 19 23  1  0  0  0  0
 20 19  2  0  0  0  0
 21 15  1  0  0  0  0
 22 17  1  0  0  0  0
 24 25  2  0  0  0  0
 25 31  1  0  0  0  0
 25 26  1  0  0  0  0
 26 27  1  6  0  0  0
 27 29  1  0  0  0  0
 28 27  1  0  0  0  0
 29 31  1  0  0  0  0
 29 30  1  0  0  0  0
 31 32  1  0  0  0  0
M  END
>  <minimizedAffinity>
-4.15002251

$$$$

 OpenBabel03272508313D

 32 34  0  0  1  0  0  0  0  0999 V2000
   38.1450   24.3100   34.9520 N   0  0  0  0  0  0  0  0  0  0  0  0
   37.7990   24.6570   36.3240 C   0  0  0  0  0  0  0  0  0  0  0  0
   37.8660   23.4960   37.2450 C   0  0  0  0  0  0  0  0  0  0  0  0
   38.7380   22.4980   36.7320 N   0  0  0  0  0  0  0  0  0  0  0  0
   38.0490   21.9410   35.5500 C   0  0  0  0  0  0  0  0  0  0  0  0
   38.3440   22.9480   34.4770 C   0  0  1  0  0  0  0  0  0  0  0  0
   38.4940   25.4500   36.7130 H   0  0  0  0  0  0  0  0  0  0  0  0
   36.7890   25.1020   36.3980 H   0  0  0  0  0  0  0  0  0  0  0  0
   38.2920   23.8040   38.2450 H   0  0  0  0  0  0  0  0  0  0  0  0
   36.8690   23.0670   37.4270 H   0  0  0  0  0  0  0  0  0  0  0  0
   38.7680   21.6870   37.3980 H   0  0  0  0  0  0  0  0  0  0  0  0
   38.5320   20.9940   35.2720 H   0  0  0  0  0  0  0  0  0  0  0  0
   36.9630   21.8220   35.7430 H   0  0  0  0  0  0  0  0  0  0  0  0
   39.4260   22.8680   34.2400 H   0  0  0  0  0  0  0  0  0  0  0  0
   37.2140   26.1740   33.6430 C   0  0  0  0  0  0  0  0  0  0  0  0
   38.3010   25.3560   34.0000 C   0  0  0  0  0  0  0  0  0  0  0  0
   39.5520   25.5970   33.4060 C   0  0  0  0  0  0  0  0  0  0  0  0
   39.6200   26.6390   32.5040 N   0  0  0  0  0  0  0  0  0  0  0  0
   38.5370   27.3940   32.2010 C   0  0  0  0  0  0  0  0  0  0  0  0
   37.3330   27.1830   32.7530 N   0  0  0  0  0  0  0  0  0  0  0  0
   36.2420   26.0150   34.0790 H   0  0  0  0  0  0  0  0  0  0  0  0
   40.4020   24.9980   33.6480 H   0  0  0  0  0  0  0  0  0  0  0  0
   38.8510   28.1400   31.4730 H   0  0  0  0  0  0  0  0  0  0  0  0
   35.9060   20.8910   34.1450 O   0  0  0  0  0  0  0  0  0  0  0  0
   36.5780   21.6190   33.3360 C   0  0  0  0  0  0  0  0  0  0  0  0
   37.5960   22.6840   33.2010 C   0  0  2  0  0  3  0  0  0  0  0  0
   38.4720   22.0650   32.1370 C   0  0  0  0  0  3  0  0  0  0  0  0
   38.8770   21.1280   32.5690 H   0  0  0  0  0  0  0  0  0  0  0  0
   37.3970   21.7030   31.1030 C   0  0  0  0  0  3  0  0  0  0  0  0
   37.1130   22.5830   30.5130 H   0  0  0  0  0  0  0  0  0  0  0  0
   36.2580   21.3320   31.9580 N   0  0  0  0  0  0  0  0  0  0  0  0
   35.4660   20.9410   31.3710 H   0  0  0  0  0  0  0  0  0  0  0  0
  1  2  1  0  0  0  0
  2  8  1  0  0  0  0
  2  7  1  0  0  0  0
  2  3  1  0  0  0  0
  3 10  1  0  0  0  0
  3  9  1  0  0  0  0
  4  3  1  0  0  0  0
  4 11  1  0  0  0  0
  5 13  1  0  0  0  0
  5  4  1  0  0  0  0
  6 14  1  6  0  0  0
  6  1  1  0  0  0  0
  6  5  1  0  0  0  0
 12  5  1  0  0  0  0
 15 16  1  0  0  0  0
 15 21  1  0  0  0  0
 16  1  1  0  0  0  0
 17 22  1  0  0  0  0
 17 16  2  0  0  0  0
 18 17  1  0  0  0  0
 19 18  2  0  0  0  0
 19 20  1  0  0  0  0
 20 15  2  0  0  0  0
 23 19  1  0  0  0  0
 25 24  2  0  0  0  0
 26 27  1  6  0  0  0
 26 25  1  0  0  0  0
 26  6  1  0  0  0  0
 27 28  1  0  0  0  0
 29 31  1  0  0  0  0
 29 27  1  0  0  0  0
 30 29  1  0  0  0  0
 31 25  1  0  0  0  0
 32 31  1  0  0  0  0
M  END
>  <minimizedAffinity>
-4.14951372

$$$$

 OpenBabel03272508313D

 32 34  0  0  1  0  0  0  0  0999 V2000
   40.4870   24.0880   34.1660 N   0  0  0  0  0  0  0  0  0  0  0  0
   40.4840   23.5100   32.8280 C   0  0  0  0  0  0  0  0  0  0  0  0
   39.2420   23.8110   32.0740 C   0  0  0  0  0  0  0  0  0  0  0  0
   38.6210   24.9860   32.5800 N   0  0  0  0  0  0  0  0  0  0  0  0
   38.1130   24.6200   33.9180 C   0  0  0  0  0  0  0  0  0  0  0  0
   39.3330   24.7240   34.7850 C   0  0  1  0  0  0  0  0  0  0  0  0
   41.3540   23.8990   32.2330 H   0  0  0  0  0  0  0  0  0  0  0  0
   40.6200   22.4130   32.8500 H   0  0  0  0  0  0  0  0  0  0  0  0
   39.4730   24.0190   30.9890 H   0  0  0  0  0  0  0  0  0  0  0  0
   38.5350   22.9680   32.1080 H   0  0  0  0  0  0  0  0  0  0  0  0
   37.7440   25.1770   32.0350 H   0  0  0  0  0  0  0  0  0  0  0  0
   37.3940   25.3840   34.2460 H   0  0  0  0  0  0  0  0  0  0  0  0
   37.6740   23.6000   33.9120 H   0  0  0  0  0  0  0  0  0  0  0  0
   39.5900   25.8020   34.8630 H   0  0  0  0  0  0  0  0  0  0  0  0
   42.1380   22.8230   35.4800 C   0  0  0  0  0  0  0  0  0  0  0  0
   41.6850   24.0360   34.9300 C   0  0  0  0  0  0  0  0  0  0  0  0
   42.4470   25.1990   35.1410 C   0  0  0  0  0  0  0  0  0  0  0  0
   43.6020   25.0580   35.8820 N   0  0  0  0  0  0  0  0  0  0  0  0
   43.9870   23.8600   36.3860 C   0  0  0  0  0  0  0  0  0  0  0  0
   43.2770   22.7380   36.2000 N   0  0  0  0  0  0  0  0  0  0  0  0
   41.5770   21.9140   35.3390 H   0  0  0  0  0  0  0  0  0  0  0  0
   42.1380   26.1390   34.7420 H   0  0  0  0  0  0  0  0  0  0  0  0
   44.9200   24.0160   36.9240 H   0  0  0  0  0  0  0  0  0  0  0  0
   38.2430   21.8110   35.5670 O   0  0  0  0  0  0  0  0  0  0  0  0
   38.5140   22.8720   36.2290 C   0  0  0  0  0  0  0  0  0  0  0  0
   39.1040   24.2270   36.1850 C   0  0  2  0  0  3  0  0  0  0  0  0
   38.0210   25.0000   36.9010 C   0  0  0  0  0  3  0  0  0  0  0  0
   37.1060   24.9030   36.2840 H   0  0  0  0  0  0  0  0  0  0  0  0
   37.8650   24.1200   38.1490 C   0  0  0  0  0  3  0  0  0  0  0  0
   38.6540   24.3370   38.8790 H   0  0  0  0  0  0  0  0  0  0  0  0
   38.0930   22.7710   37.6070 N   0  0  0  0  0  0  0  0  0  0  0  0
   37.8980   22.0370   38.3470 H   0  0  0  0  0  0  0  0  0  0  0  0
  1  6  1  0  0  0  0
  1 16  1  0  0  0  0
  2  8  1  0  0  0  0
  2  1  1  0  0  0  0
  3 10  1  0  0  0  0
  3  4  1  0  0  0  0
  3  2  1  0  0  0  0
  4  5  1  0  0  0  0
  5 12  1  0  0  0  0
  5  6  1  0  0  0  0
  6 14  1  1  0  0  0
  6 26  1  0  0  0  0
  7  2  1  0  0  0  0
  9  3  1  0  0  0  0
 11  4  1  0  0  0  0
 13  5  1  0  0  0  0
 15 20  1  0  0  0  0
 16 17  1  0  0  0  0
 16 15  2  0  0  0  0
 17 18  2  0  0  0  0
 18 19  1  0  0  0  0
 19 23  1  0  0  0  0
 20 19  2  0  0  0  0
 21 15  1  0  0  0  0
 22 17  1  0  0  0  0
 24 25  2  0  0  0  0
 25 31  1  0  0  0  0
 26 25  1  6  0  0  0
 26 27  1  0  0  0  0
 27 29  1  0  0  0  0
 28 27  1  0  0  0  0
 29 30  1  0  0  0  0
 31 29  1  0  0  0  0
 31 32  1  0  0  0  0
M  END
>  <minimizedAffinity>
-4.10246086

$$$$
