
 OpenBabel03272506473D

 42 45  0  0  1  0  0  0  0  0999 V2000
   32.2560   28.3140   47.4290 C   0  0  2  0  0  0  0  0  0  0  0  0
   33.4460   28.3860   48.3420 C   0  0  1  0  0  0  0  0  0  0  0  0
   34.0160   27.1510   48.3880 O   0  0  0  0  0  0  0  0  0  0  0  0
   33.4820   26.3570   47.3780 C   0  0  0  0  0  0  0  0  0  0  0  0
   32.8080   27.2830   46.3960 C   0  0  1  0  0  0  0  0  0  0  0  0
   31.3510   27.8910   47.8620 H   0  0  0  0  0  0  0  0  0  0  0  0
   33.1460   28.7510   49.3430 H   0  0  0  0  0  0  0  0  0  0  0  0
   34.2890   25.7670   46.8610 H   0  0  0  0  0  0  0  0  0  0  0  0
   32.8520   25.6250   47.8640 H   0  0  0  0  0  0  0  0  0  0  0  0
   33.5310   27.8080   45.7800 H   0  0  0  0  0  0  0  0  0  0  0  0
   32.0570   29.5500   46.7790 O   0  0  0  0  0  0  0  0  0  0  0  0
   32.4130   29.4740   45.8610 H   0  0  0  0  0  0  0  0  0  0  0  0
   34.6580   29.5410   47.5870 S   0  0  0  0  0  0  0  0  0  0  0  0
   37.2760   29.3000   50.5510 C   0  0  0  0  0  0  0  0  0  0  0  0
   37.7470   30.5940   50.7340 C   0  0  0  0  0  0  0  0  0  0  0  0
   37.2290   31.5950   49.8960 C   0  0  0  0  0  0  0  0  0  0  0  0
   36.3010   31.2510   48.9570 N   0  0  0  0  0  0  0  0  0  0  0  0
   35.8780   29.9720   48.8240 C   0  0  0  0  0  0  0  0  0  0  0  0
   36.3580   28.9790   49.6180 N   0  0  0  0  0  0  0  0  0  0  0  0
   37.6610   28.5140   51.1850 H   0  0  0  0  0  0  0  0  0  0  0  0
   38.4740   30.8730   51.4670 H   0  0  0  0  0  0  0  0  0  0  0  0
   37.5350   32.6300   49.9640 H   0  0  0  0  0  0  0  0  0  0  0  0
   31.7880   26.6120   45.7710 O   0  0  0  0  0  0  0  0  0  0  0  0
   30.2780   27.4350   43.3820 Cl  0  0  0  0  0  0  0  0  0  0  0  0
   29.6790   27.1260   44.9960 C   0  0  0  0  0  0  0  0  0  0  0  0
   30.4890   26.7350   46.0380 C   0  0  0  0  0  0  0  0  0  0  0  0
   29.8940   26.4960   47.2790 C   0  0  0  0  0  0  0  0  0  0  0  0
   28.5360   26.6510   47.4480 C   0  0  0  0  0  0  0  0  0  0  0  0
   27.7150   27.0440   46.4080 C   0  0  0  0  0  0  0  0  0  0  0  0
   28.2950   27.2820   45.1750 C   0  0  0  0  0  0  0  0  0  0  0  0
   30.4420   26.1830   48.1490 H   0  0  0  0  0  0  0  0  0  0  0  0
   28.0230   26.4840   48.3770 H   0  0  0  0  0  0  0  0  0  0  0  0
   26.6340   27.1790   46.5010 H   0  0  0  0  0  0  0  0  0  0  0  0
   26.5500   29.8370   44.7850 O   0  0  0  0  0  0  0  0  0  0  0  0
   26.3550   28.6220   44.4660 C   0  0  0  0  0  0  0  0  0  0  0  0
   27.4300   27.7040   44.0490 C   0  0  2  0  0  0  0  0  0  0  0  0
   26.6800   26.5620   43.4190 C   0  0  0  0  0  0  0  0  0  0  0  0
   26.7190   25.6320   44.0280 H   0  0  0  0  0  0  0  0  0  0  0  0
   25.2180   26.9550   43.3430 C   0  0  0  0  0  0  0  0  0  0  0  0
   24.9430   27.4140   42.3730 H   0  0  0  0  0  0  0  0  0  0  0  0
   25.1100   27.9000   44.4410 N   0  0  0  0  0  0  0  0  0  0  0  0
   24.3340   28.1020   45.1340 H   0  0  0  0  0  0  0  0  0  0  0  0
  1  6  1  1  0  0  0
  1  2  1  0  0  0  0
  2  3  1  0  0  0  0
  2  7  1  1  0  0  0
  4  9  1  0  0  0  0
  4  3  1  0  0  0  0
  5 10  1  6  0  0  0
  5  4  1  0  0  0  0
  5  1  1  0  0  0  0
  8  4  1  0  0  0  0
 11  1  1  0  0  0  0
 12 11  1  0  0  0  0
 13  2  1  0  0  0  0
 13 18  1  0  0  0  0
 14 15  1  0  0  0  0
 14 20  1  0  0  0  0
 15 21  1  0  0  0  0
 16 22  1  0  0  0  0
 16 15  2  0  0  0  0
 17 16  1  0  0  0  0
 18 17  2  0  0  0  0
 18 19  1  0  0  0  0
 19 14  2  0  0  0  0
 23 26  1  0  0  0  0
 23  5  1  0  0  0  0
 24 25  1  0  0  0  0
 25 30  2  0  0  0  0
 25 26  1  0  0  0  0
 26 27  2  0  0  0  0
 27 28  1  0  0  0  0
 27 31  1  0  0  0  0
 28 32  1  0  0  0  0
 29 33  1  0  0  0  0
 29 28  2  0  0  0  0
 30 29  1  0  0  0  0
 35 34  2  0  0  0  0
 36 35  1  0  0  0  0
 36 30  1  1  0  0  0
 37 38  1  0  0  0  0
 37 36  1  0  0  0  0
 39 37  1  0  0  0  0
 39 41  1  0  0  0  0
 40 39  1  0  0  0  0
 41 35  1  0  0  0  0
 41 42  1  0  0  0  0
M  END
>  <minimizedAffinity>
-5.38251638

>  <minimizedRMSD>
1.30622709

$$$$
