
     RDKit          3D

 37 39  0  0  0  0  0  0  0  0999 V2000
   39.4433   32.4829   47.0994 O   0  0  0  0  0  0  0  0  0  0  0  0
   38.3086   31.8127   46.4068 P   0  0  2  0  0  0  0  0  0  0  0  0
   37.7225   32.8474   45.1715 O   0  0  0  0  0  0  0  0  0  0  0  0
   37.0322   31.3943   47.4395 O   0  0  0  0  0  0  0  0  0  0  0  0
   37.6049   30.5371   50.9736 C   0  0  0  0  0  0  0  0  0  0  0  0
   37.7003   31.3026   49.8098 C   0  0  0  0  0  0  0  0  0  0  0  0
   37.0724   30.8353   48.6500 C   0  0  0  0  0  0  0  0  0  0  0  0
   36.3956   29.6450   48.7249 N   0  0  0  0  0  0  0  0  0  0  0  0
   36.3296   28.9395   49.8693 C   0  0  0  0  0  0  0  0  0  0  0  0
   36.9372   29.3932   50.9885 N   0  0  0  0  0  0  0  0  0  0  0  0
   38.8650   30.4423   45.6188 O   0  0  0  0  0  0  0  0  0  0  0  0
   36.6227   29.4427   44.0432 Cl  0  0  0  0  0  0  0  0  0  0  0  0
   38.2528   29.8265   43.4812 C   0  0  0  0  0  0  0  0  0  0  0  0
   39.2721   30.3045   44.3151 C   0  0  0  0  0  0  0  0  0  0  0  0
   40.5073   30.5663   43.7449 C   0  0  0  0  0  0  0  0  0  0  0  0
   40.7117   30.3567   42.3910 C   0  0  0  0  0  0  0  0  0  0  0  0
   39.7369   29.8947   41.5694 C   0  0  0  0  0  0  0  0  0  0  0  0
   38.5247   29.6372   42.1262 C   0  0  0  0  0  0  0  0  0  0  0  0
   36.9170   32.3943   44.8160 H   0  0  0  0  0  0  0  0  0  0  0  0
   38.1235   30.9955   51.7915 H   0  0  0  0  0  0  0  0  0  0  0  0
   38.1962   32.2394   49.6300 H   0  0  0  0  0  0  0  0  0  0  0  0
   35.7952   27.9944   49.9386 H   0  0  0  0  0  0  0  0  0  0  0  0
   41.2300   30.9257   44.4377 H   0  0  0  0  0  0  0  0  0  0  0  0
   41.7108   30.5886   42.0300 H   0  0  0  0  0  0  0  0  0  0  0  0
   39.9674   29.7538   40.5186 H   0  0  0  0  0  0  0  0  0  0  0  0
   37.2661   26.9186   42.0798 O   0  0  0  0  0  0  0  0  0  0  0  0
   37.5015   27.6513   41.0837 C   0  0  0  0  0  0  0  0  0  0  0  0
   37.4295   29.1230   41.2276 C   0  0  2  0  0  0  0  0  0  0  0  0
   37.6853   29.6958   39.8468 C   0  0  1  0  0  0  0  0  0  0  0  0
   36.7088   29.8879   39.3239 H   0  0  0  0  0  0  0  0  0  0  0  0
   38.4425   28.5701   39.1815 C   0  0  1  0  0  0  0  0  0  0  0  0
   38.3886   28.6311   38.0797 H   0  0  0  0  0  0  0  0  0  0  0  0
   37.8556   27.3610   39.7169 N   0  0  0  0  0  0  0  0  0  0  0  0
   36.4496   29.4962   41.5627 H   0  0  0  0  0  0  0  0  0  0  0  0
   38.2584   30.6352   39.9232 H   0  0  0  0  0  0  0  0  0  0  0  0
   39.5141   28.6933   39.4336 H   0  0  0  0  0  0  0  0  0  0  0  0
   37.6506   26.3882   39.3413 H   0  0  0  0  0  0  0  0  0  0  0  0
  2  1  2  0
  2  4  1  1
  3  2  1  0
  4  7  1  0
  5 10  2  0
  6  5  1  0
  7  8  1  0
  7  6  2  0
  8  9  2  0
  9 10  1  0
 11  2  1  0
 13 12  1  0
 13 14  2  0
 14 11  1  0
 15 14  1  0
 16 15  2  0
 17 18  2  0
 17 16  1  0
 18 13  1  0
  3 19  1  0
  5 20  1  0
  6 21  1  0
  9 22  1  0
 15 23  1  0
 16 24  1  0
 17 25  1  0
 26 27  2  0
 27 28  1  0
 28 29  1  0
 29 30  1  6
 29 31  1  0
 31 32  1  6
 31 33  1  0
 33 27  1  0
 28 34  1  1
 29 35  1  0
 31 36  1  0
 33 37  1  0
 18 28  1  0
M  ISO  8  19   3  20  14  21  14  22  14  23  14  24  14  25  14  30   8
M  ISO  1  32   8
M  END
>  <DihAtoms>  (1) 
16,17,27,26

>  <DihDeg>  (1) 
25.518537578184745

$$$$
