
 OpenBabel03272506533D

 44 47  0  0  1  0  0  0  0  0999 V2000
   35.8000   29.2790   43.0260 C   0  0  1  0  0  0  0  0  0  0  0  0
   34.6070   28.5550   43.3870 C   0  0  0  0  0  0  0  0  0  0  0  0
   34.2990   28.4630   44.8640 C   0  0  0  0  0  0  0  0  0  0  0  0
   34.5080   29.6490   45.6600 C   0  0  2  0  0  0  0  0  0  0  0  0
   35.7610   30.4570   45.2950 C   0  0  0  0  0  0  0  0  0  0  0  0
   35.9040   30.5780   43.8070 C   0  0  0  0  0  0  0  0  0  0  0  0
   35.6810   29.6720   41.9660 H   0  0  0  0  0  0  0  0  0  0  0  0
   34.5050   27.5380   43.0010 H   0  0  0  0  0  0  0  0  0  0  0  0
   33.7190   29.0970   42.9530 H   0  0  0  0  0  0  0  0  0  0  0  0
   35.1090   27.7230   45.1890 H   0  0  0  0  0  0  0  0  0  0  0  0
   33.2890   28.0440   44.9780 H   0  0  0  0  0  0  0  0  0  0  0  0
   33.7360   30.4410   45.5880 H   0  0  0  0  0  0  0  0  0  0  0  0
   35.8870   31.4190   45.6720 H   0  0  0  0  0  0  0  0  0  0  0  0
   36.6270   29.8190   45.6400 H   0  0  0  0  0  0  0  0  0  0  0  0
   35.1500   31.2980   43.4170 H   0  0  0  0  0  0  0  0  0  0  0  0
   36.9020   31.0090   43.5970 H   0  0  0  0  0  0  0  0  0  0  0  0
   34.7150   29.2330   47.0660 C   0  0  0  0  0  0  0  0  0  0  0  0
   35.6110   29.9770   47.8620 C   0  0  0  0  0  0  0  0  0  0  0  0
   35.8490   29.6410   49.1810 C   0  0  0  0  0  0  0  0  0  0  0  0
   35.2010   28.5830   49.6920 C   0  0  0  0  0  0  0  0  0  0  0  0
   34.3240   27.8320   48.9440 C   0  0  0  0  0  0  0  0  0  0  0  0
   34.0870   28.1620   47.6180 C   0  0  0  0  0  0  0  0  0  0  0  0
   36.2220   30.8320   47.6040 H   0  0  0  0  0  0  0  0  0  0  0  0
   36.5160   30.1580   49.8460 H   0  0  0  0  0  0  0  0  0  0  0  0
   35.3540   28.2790   50.7460 H   0  0  0  0  0  0  0  0  0  0  0  0
   33.8360   26.9820   49.4520 H   0  0  0  0  0  0  0  0  0  0  0  0
   31.3430   28.4450   47.5900 O   0  0  0  0  0  0  0  0  0  0  0  0
   31.8660   27.3160   47.3010 C   0  0  0  0  0  0  0  0  0  0  0  0
   33.2570   27.1870   46.9060 C   0  0  2  0  0  0  0  0  0  0  0  0
   33.5800   25.7500   47.4330 C   0  0  0  0  0  0  0  0  0  0  0  0
   34.2300   25.2050   46.7430 H   0  0  0  0  0  0  0  0  0  0  0  0
   32.2630   25.0840   47.5770 C   0  0  0  0  0  0  0  0  0  0  0  0
   32.1340   24.2040   46.9160 H   0  0  0  0  0  0  0  0  0  0  0  0
   31.2430   26.0660   47.3100 N   0  0  0  0  0  0  0  0  0  0  0  0
   30.2390   25.8640   47.1560 H   0  0  0  0  0  0  0  0  0  0  0  0
   37.1290   27.1810   42.7560 C   0  0  0  0  0  0  0  0  0  0  0  0
   37.0750   28.5530   42.9590 C   0  0  0  0  0  0  0  0  0  0  0  0
   38.2880   29.2330   43.1030 C   0  0  0  0  0  0  0  0  0  0  0  0
   39.4530   28.5190   43.0360 N   0  0  0  0  0  0  0  0  0  0  0  0
   39.4610   27.1810   42.8370 C   0  0  0  0  0  0  0  0  0  0  0  0
   38.2840   26.5090   42.6950 N   0  0  0  0  0  0  0  0  0  0  0  0
   36.3260   26.5110   42.6090 H   0  0  0  0  0  0  0  0  0  0  0  0
   38.3230   30.2970   43.2630 H   0  0  0  0  0  0  0  0  0  0  0  0
   40.4510   26.7650   42.8080 H   0  0  0  0  0  0  0  0  0  0  0  0
  1  7  1  6  0  0  0
  1  2  1  0  0  0  0
  1  6  1  0  0  0  0
  2  3  1  0  0  0  0
  3 11  1  0  0  0  0
  3 10  1  0  0  0  0
  3  4  1  0  0  0  0
  4 12  1  6  0  0  0
  4 17  1  0  0  0  0
  5 14  1  0  0  0  0
  5  4  1  0  0  0  0
  5 13  1  0  0  0  0
  6  5  1  0  0  0  0
  8  2  1  0  0  0  0
  9  2  1  0  0  0  0
 15  6  1  0  0  0  0
 16  6  1  0  0  0  0
 17 22  2  0  0  0  0
 17 18  1  0  0  0  0
 18 19  2  0  0  0  0
 19 20  1  0  0  0  0
 19 24  1  0  0  0  0
 20 25  1  0  0  0  0
 21 26  1  0  0  0  0
 21 20  2  0  0  0  0
 22 21  1  0  0  0  0
 23 18  1  0  0  0  0
 28 34  1  0  0  0  0
 28 27  2  0  0  0  0
 29 28  1  0  0  0  0
 29 30  1  0  0  0  0
 29 22  1  1  0  0  0
 30 32  1  0  0  0  0
 31 30  1  0  0  0  0
 33 32  1  0  0  0  0
 34 32  1  0  0  0  0
 35 34  1  0  0  0  0
 36 37  1  0  0  0  0
 37  1  1  0  0  0  0
 37 38  2  0  0  0  0
 38 43  1  0  0  0  0
 39 38  1  0  0  0  0
 40 39  2  0  0  0  0
 41 36  2  0  0  0  0
 41 40  1  0  0  0  0
 42 36  1  0  0  0  0
 44 40  1  0  0  0  0
M  END
>  <minimizedAffinity>
-4.97812796

>  <minimizedRMSD>
4.69309568

$$$$
