
 OpenBabel03272503453D

 33 35  0  0  1  0  0  0  0  0999 V2000
   37.4920   25.6200   34.3870 C   0  0  0  0  0  0  0  0  0  0  0  0
   38.6550   25.6570   35.1800 C   0  0  0  0  0  0  0  0  0  0  0  0
   39.6820   26.5030   34.7510 C   0  0  0  0  0  0  0  0  0  0  0  0
   39.5190   27.2330   33.6220 N   0  0  0  0  0  0  0  0  0  0  0  0
   38.3820   27.1660   32.8900 C   0  0  0  0  0  0  0  0  0  0  0  0
   37.3770   26.3610   33.2770 N   0  0  0  0  0  0  0  0  0  0  0  0
   36.6800   24.9690   34.7010 H   0  0  0  0  0  0  0  0  0  0  0  0
   40.5590   26.5330   35.3460 H   0  0  0  0  0  0  0  0  0  0  0  0
   39.4970   23.6950   36.2950 C   0  0  0  0  0  0  0  0  0  0  0  0
   38.6970   24.8220   36.3660 C   0  0  0  0  0  0  0  0  0  0  0  0
   37.9790   25.1380   37.4930 C   0  0  0  0  0  0  0  0  0  0  0  0
   38.0380   24.3270   38.6020 C   0  0  0  0  0  0  0  0  0  0  0  0
   38.8310   23.2010   38.5470 C   0  0  0  0  0  0  0  0  0  0  0  0
   39.5620   22.8660   37.4160 C   0  0  0  0  0  0  0  0  0  0  0  0
   37.3720   26.0160   37.5110 H   0  0  0  0  0  0  0  0  0  0  0  0
   37.5060   24.5080   39.5210 H   0  0  0  0  0  0  0  0  0  0  0  0
   38.9120   22.5250   39.3980 H   0  0  0  0  0  0  0  0  0  0  0  0
   40.1760   21.9560   37.4320 H   0  0  0  0  0  0  0  0  0  0  0  0
   41.5870   23.4800   35.1300 N   0  0  0  0  0  0  0  0  0  0  0  0
   40.3070   23.2450   35.1650 C   0  0  0  0  0  0  0  0  0  0  0  0
   39.8500   22.5330   34.0130 N   0  0  0  0  0  0  0  0  0  0  0  0
   42.0840   23.9860   35.8650 H   0  0  0  0  0  0  0  0  0  0  0  0
   39.7300   21.5330   33.6740 H   0  0  0  0  0  0  0  0  0  0  0  0
   39.4670   22.8800   33.0860 H   0  0  0  0  0  0  0  0  0  0  0  0
   38.6410   26.1910   30.2890 O   0  0  0  0  0  0  0  0  0  0  0  0
   37.7670   27.0840   30.5090 C   0  0  0  0  0  0  0  0  0  0  0  0
   38.1340   27.9300   31.6510 C   0  0  1  0  0  3  0  0  0  0  0  0
   36.9050   28.8360   31.7800 C   0  0  0  0  0  3  0  0  0  0  0  0
   36.0780   28.3560   32.3340 H   0  0  0  0  0  0  0  0  0  0  0  0
   36.4760   28.9200   30.3290 C   0  0  0  0  0  3  0  0  0  0  0  0
   35.4810   29.3650   30.2110 H   0  0  0  0  0  0  0  0  0  0  0  0
   36.5180   27.4990   29.9520 N   0  0  0  0  0  0  0  0  0  0  0  0
   35.9830   26.7310   29.4480 H   0  0  0  0  0  0  0  0  0  0  0  0
  1  7  1  0  0  0  0
  1  2  1  0  0  0  0
  2 10  1  0  0  0  0
  3  2  2  0  0  0  0
  3  8  1  0  0  0  0
  4  3  1  0  0  0  0
  5  6  1  0  0  0  0
  5  4  2  0  0  0  0
  6  1  2  0  0  0  0
  9 10  2  0  0  0  0
  9 14  1  0  0  0  0
 10 11  1  0  0  0  0
 11 15  1  0  0  0  0
 11 12  2  0  0  0  0
 12 16  1  0  0  0  0
 13 12  1  0  0  0  0
 13 17  1  0  0  0  0
 14 18  1  0  0  0  0
 14 13  2  0  0  0  0
 19 20  2  0  0  0  0
 19 22  1  0  0  0  0
 20  9  1  0  0  0  0
 21 20  1  0  0  0  0
 23 21  1  0  0  0  0
 24 21  1  0  0  0  0
 25 26  2  0  0  0  0
 26 27  1  0  0  0  0
 27 28  1  0  0  0  0
 27  5  1  1  0  0  0
 28 29  1  0  0  0  0
 30 28  1  0  0  0  0
 31 30  1  0  0  0  0
 32 30  1  0  0  0  0
 32 26  1  0  0  0  0
 33 32  1  0  0  0  0
M  END
>  <minimizedAffinity>
-5.40448332

$$$$

 OpenBabel03272503453D

 33 35  0  0  1  0  0  0  0  0999 V2000
   38.1500   27.3090   34.6640 C   0  0  0  0  0  0  0  0  0  0  0  0
   37.4200   26.9390   33.5180 C   0  0  0  0  0  0  0  0  0  0  0  0
   37.3140   25.5700   33.2560 C   0  0  0  0  0  0  0  0  0  0  0  0
   37.9010   24.6810   34.0920 N   0  0  0  0  0  0  0  0  0  0  0  0
   38.5940   25.0830   35.1820 C   0  0  0  0  0  0  0  0  0  0  0  0
   38.7140   26.3920   35.4610 N   0  0  0  0  0  0  0  0  0  0  0  0
   38.2460   28.3680   34.8890 H   0  0  0  0  0  0  0  0  0  0  0  0
   36.7650   25.2880   32.3930 H   0  0  0  0  0  0  0  0  0  0  0  0
   37.4150   28.1970   31.4640 C   0  0  0  0  0  0  0  0  0  0  0  0
   36.8430   27.9960   32.7080 C   0  0  0  0  0  0  0  0  0  0  0  0
   35.7880   28.7510   33.1580 C   0  0  0  0  0  0  0  0  0  0  0  0
   35.2620   29.7460   32.3680 C   0  0  0  0  0  0  0  0  0  0  0  0
   35.8210   29.9590   31.1260 C   0  0  0  0  0  0  0  0  0  0  0  0
   36.8870   29.2060   30.6570 C   0  0  0  0  0  0  0  0  0  0  0  0
   35.3720   28.5660   34.1240 H   0  0  0  0  0  0  0  0  0  0  0  0
   34.4370   30.3780   32.6500 H   0  0  0  0  0  0  0  0  0  0  0  0
   35.4410   30.7350   30.4620 H   0  0  0  0  0  0  0  0  0  0  0  0
   37.2900   29.4220   29.6580 H   0  0  0  0  0  0  0  0  0  0  0  0
   38.3350   26.6220   29.9000 N   0  0  0  0  0  0  0  0  0  0  0  0
   38.5340   27.4700   30.8680 C   0  0  0  0  0  0  0  0  0  0  0  0
   39.9120   27.5720   31.2300 N   0  0  0  0  0  0  0  0  0  0  0  0
   37.4100   26.4150   29.5180 H   0  0  0  0  0  0  0  0  0  0  0  0
   40.7820   28.1200   30.9610 H   0  0  0  0  0  0  0  0  0  0  0  0
   40.4820   27.0510   31.9580 H   0  0  0  0  0  0  0  0  0  0  0  0
   37.3700   23.7840   37.3280 O   0  0  0  0  0  0  0  0  0  0  0  0
   38.3440   23.2070   36.7550 C   0  0  0  0  0  0  0  0  0  0  0  0
   39.2590   24.1740   36.1370 C   0  0  1  0  0  3  0  0  0  0  0  0
   40.2660   23.2540   35.4380 C   0  0  0  0  0  3  0  0  0  0  0  0
   39.9030   22.8920   34.4590 H   0  0  0  0  0  0  0  0  0  0  0  0
   40.2500   22.0670   36.3810 C   0  0  0  0  0  3  0  0  0  0  0  0
   40.7580   21.1920   35.9620 H   0  0  0  0  0  0  0  0  0  0  0  0
   38.8020   21.8690   36.5430 N   0  0  0  0  0  0  0  0  0  0  0  0
   38.0340   21.1340   36.5550 H   0  0  0  0  0  0  0  0  0  0  0  0
  1  7  1  0  0  0  0
  1  6  1  0  0  0  0
  2  1  2  0  0  0  0
  3  2  1  0  0  0  0
  3  4  2  0  0  0  0
  4  5  1  0  0  0  0
  5  6  2  0  0  0  0
  8  3  1  0  0  0  0
  9 10  1  0  0  0  0
 10 11  2  0  0  0  0
 10  2  1  0  0  0  0
 11 15  1  0  0  0  0
 12 16  1  0  0  0  0
 12 11  1  0  0  0  0
 13 12  2  0  0  0  0
 14 13  1  0  0  0  0
 14  9  2  0  0  0  0
 17 13  1  0  0  0  0
 18 14  1  0  0  0  0
 19 20  2  0  0  0  0
 20 21  1  0  0  0  0
 20  9  1  0  0  0  0
 21 24  1  0  0  0  0
 22 19  1  0  0  0  0
 23 21  1  0  0  0  0
 26 25  2  0  0  0  0
 27  5  1  6  0  0  0
 27 26  1  0  0  0  0
 28 27  1  0  0  0  0
 28 30  1  0  0  0  0
 29 28  1  0  0  0  0
 30 32  1  0  0  0  0
 31 30  1  0  0  0  0
 32 33  1  0  0  0  0
 32 26  1  0  0  0  0
M  END
>  <minimizedAffinity>
-5.36087132

$$$$

 OpenBabel03272503453D

 33 35  0  0  1  0  0  0  0  0999 V2000
   38.1850   26.8510   35.8710 C   0  0  0  0  0  0  0  0  0  0  0  0
   38.2230   25.5340   35.3740 C   0  0  0  0  0  0  0  0  0  0  0  0
   37.5990   25.3090   34.1430 C   0  0  0  0  0  0  0  0  0  0  0  0
   37.0030   26.3390   33.4980 N   0  0  0  0  0  0  0  0  0  0  0  0
   36.9910   27.5900   34.0140 C   0  0  0  0  0  0  0  0  0  0  0  0
   37.5820   27.8380   35.1950 N   0  0  0  0  0  0  0  0  0  0  0  0
   38.6640   27.0510   36.8270 H   0  0  0  0  0  0  0  0  0  0  0  0
   37.6250   24.3180   33.7660 H   0  0  0  0  0  0  0  0  0  0  0  0
   40.1300   24.1010   35.7060 C   0  0  0  0  0  0  0  0  0  0  0  0
   38.8960   24.5250   36.1700 C   0  0  0  0  0  0  0  0  0  0  0  0
   38.3360   24.0230   37.3180 C   0  0  0  0  0  0  0  0  0  0  0  0
   38.9980   23.0670   38.0520 C   0  0  0  0  0  0  0  0  0  0  0  0
   40.2270   22.6340   37.6030 C   0  0  0  0  0  0  0  0  0  0  0  0
   40.8080   23.1300   36.4450 C   0  0  0  0  0  0  0  0  0  0  0  0
   37.3830   24.3750   37.6450 H   0  0  0  0  0  0  0  0  0  0  0  0
   38.6240   22.6270   38.9610 H   0  0  0  0  0  0  0  0  0  0  0  0
   40.7930   21.8780   38.1470 H   0  0  0  0  0  0  0  0  0  0  0  0
   41.7900   22.7460   36.1380 H   0  0  0  0  0  0  0  0  0  0  0  0
   41.6110   25.5940   34.5450 N   0  0  0  0  0  0  0  0  0  0  0  0
   40.8350   24.5490   34.5070 C   0  0  0  0  0  0  0  0  0  0  0  0
   40.7830   23.9540   33.2100 N   0  0  0  0  0  0  0  0  0  0  0  0
   41.7610   26.1500   35.3890 H   0  0  0  0  0  0  0  0  0  0  0  0
   41.3010   23.2300   32.6300 H   0  0  0  0  0  0  0  0  0  0  0  0
   40.1220   24.1140   32.3950 H   0  0  0  0  0  0  0  0  0  0  0  0
   35.8170   27.6270   31.4830 O   0  0  0  0  0  0  0  0  0  0  0  0
   35.3460   28.3990   32.3720 C   0  0  0  0  0  0  0  0  0  0  0  0
   36.3620   28.7600   33.3690 C   0  0  1  0  0  3  0  0  0  0  0  0
   35.5450   29.5880   34.3660 C   0  0  0  0  0  3  0  0  0  0  0  0
   34.9870   28.9600   35.0850 H   0  0  0  0  0  0  0  0  0  0  0  0
   34.5230   30.2060   33.4340 C   0  0  0  0  0  3  0  0  0  0  0  0
   33.7010   30.6890   33.9740 H   0  0  0  0  0  0  0  0  0  0  0  0
   34.0950   29.0210   32.6760 N   0  0  0  0  0  0  0  0  0  0  0  0
   33.2450   28.5030   32.3040 H   0  0  0  0  0  0  0  0  0  0  0  0
  1  7  1  0  0  0  0
  2  1  1  0  0  0  0
  2 10  1  0  0  0  0
  3  2  2  0  0  0  0
  4  5  2  0  0  0  0
  4  3  1  0  0  0  0
  5  6  1  0  0  0  0
  6  1  2  0  0  0  0
  8  3  1  0  0  0  0
  9 10  2  0  0  0  0
  9 14  1  0  0  0  0
 10 11  1  0  0  0  0
 11 15  1  0  0  0  0
 11 12  2  0  0  0  0
 12 16  1  0  0  0  0
 13 12  1  0  0  0  0
 13 17  1  0  0  0  0
 14 13  2  0  0  0  0
 18 14  1  0  0  0  0
 19 22  1  0  0  0  0
 20 19  2  0  0  0  0
 20  9  1  0  0  0  0
 21 20  1  0  0  0  0
 23 21  1  0  0  0  0
 24 21  1  0  0  0  0
 25 26  2  0  0  0  0
 26 32  1  0  0  0  0
 26 27  1  0  0  0  0
 27  5  1  1  0  0  0
 27 28  1  0  0  0  0
 28 29  1  0  0  0  0
 30 31  1  0  0  0  0
 30 28  1  0  0  0  0
 32 30  1  0  0  0  0
 33 32  1  0  0  0  0
M  END
>  <minimizedAffinity>
-5.31867647

$$$$

 OpenBabel03272503453D

 33 35  0  0  1  0  0  0  0  0999 V2000
   38.3480   24.9110   33.0440 C   0  0  0  0  0  0  0  0  0  0  0  0
   38.9330   26.1820   33.1960 C   0  0  0  0  0  0  0  0  0  0  0  0
   39.2810   26.5630   34.4960 C   0  0  0  0  0  0  0  0  0  0  0  0
   39.0470   25.7150   35.5250 N   0  0  0  0  0  0  0  0  0  0  0  0
   38.4810   24.5010   35.3310 C   0  0  0  0  0  0  0  0  0  0  0  0
   38.1350   24.1080   34.0940 N   0  0  0  0  0  0  0  0  0  0  0  0
   38.0690   24.5940   32.0420 H   0  0  0  0  0  0  0  0  0  0  0  0
   39.7230   27.5200   34.6140 H   0  0  0  0  0  0  0  0  0  0  0  0
   38.0300   27.7130   31.5690 C   0  0  0  0  0  0  0  0  0  0  0  0
   39.1270   26.9900   32.0050 C   0  0  0  0  0  0  0  0  0  0  0  0
   40.3340   27.0290   31.3520 C   0  0  0  0  0  0  0  0  0  0  0  0
   40.4880   27.8030   30.2260 C   0  0  0  0  0  0  0  0  0  0  0  0
   39.4040   28.5300   29.7800 C   0  0  0  0  0  0  0  0  0  0  0  0
   38.1780   28.5010   30.4270 C   0  0  0  0  0  0  0  0  0  0  0  0
   41.1580   26.4570   31.7180 H   0  0  0  0  0  0  0  0  0  0  0  0
   41.4010   27.8850   29.6610 H   0  0  0  0  0  0  0  0  0  0  0  0
   39.4740   29.1580   28.8920 H   0  0  0  0  0  0  0  0  0  0  0  0
   37.3520   29.1010   30.0240 H   0  0  0  0  0  0  0  0  0  0  0  0
   35.7180   27.0670   31.6610 N   0  0  0  0  0  0  0  0  0  0  0  0
   36.6970   27.7600   32.1670 C   0  0  0  0  0  0  0  0  0  0  0  0
   36.2970   28.5180   33.3100 N   0  0  0  0  0  0  0  0  0  0  0  0
   35.8200   26.4730   30.8360 H   0  0  0  0  0  0  0  0  0  0  0  0
   36.2140   28.4110   34.3640 H   0  0  0  0  0  0  0  0  0  0  0  0
   35.9330   29.5120   33.3950 H   0  0  0  0  0  0  0  0  0  0  0  0
   39.8880   22.1400   35.8110 O   0  0  0  0  0  0  0  0  0  0  0  0
   39.3690   22.7380   36.8010 C   0  0  0  0  0  0  0  0  0  0  0  0
   38.1950   23.5260   36.4030 C   0  0  1  0  0  3  0  0  0  0  0  0
   37.8200   24.2200   37.7170 C   0  0  0  0  0  3  0  0  0  0  0  0
   38.4270   25.1230   37.9100 H   0  0  0  0  0  0  0  0  0  0  0  0
   38.2640   23.1690   38.7150 C   0  0  0  0  0  3  0  0  0  0  0  0
   38.2710   23.5460   39.7440 H   0  0  0  0  0  0  0  0  0  0  0  0
   39.6080   22.8610   38.2050 N   0  0  0  0  0  0  0  0  0  0  0  0
   40.6190   22.7090   38.4950 H   0  0  0  0  0  0  0  0  0  0  0  0
  1  2  2  0  0  0  0
  1  6  1  0  0  0  0
  2  3  1  0  0  0  0
  3  8  1  0  0  0  0
  3  4  2  0  0  0  0
  5  4  1  0  0  0  0
  6  5  2  0  0  0  0
  7  1  1  0  0  0  0
  9 10  1  0  0  0  0
  9 20  1  0  0  0  0
 10  2  1  0  0  0  0
 11 15  1  0  0  0  0
 11 10  2  0  0  0  0
 12 11  1  0  0  0  0
 13 12  2  0  0  0  0
 13 14  1  0  0  0  0
 14  9  2  0  0  0  0
 16 12  1  0  0  0  0
 17 13  1  0  0  0  0
 18 14  1  0  0  0  0
 19 20  2  0  0  0  0
 20 21  1  0  0  0  0
 21 24  1  0  0  0  0
 21 23  1  0  0  0  0
 22 19  1  0  0  0  0
 25 26  2  0  0  0  0
 26 32  1  0  0  0  0
 27  5  1  6  0  0  0
 27 26  1  0  0  0  0
 27 28  1  0  0  0  0
 28 29  1  0  0  0  0
 28 30  1  0  0  0  0
 30 31  1  0  0  0  0
 32 33  1  0  0  0  0
 32 30  1  0  0  0  0
M  END
>  <minimizedAffinity>
-5.28343201

$$$$

 OpenBabel03272503453D

 33 35  0  0  1  0  0  0  0  0999 V2000
   40.1200   25.8870   34.8360 C   0  0  0  0  0  0  0  0  0  0  0  0
   39.8800   24.5070   34.6900 C   0  0  0  0  0  0  0  0  0  0  0  0
   38.9530   24.1310   33.7130 C   0  0  0  0  0  0  0  0  0  0  0  0
   38.3430   25.0830   32.9690 N   0  0  0  0  0  0  0  0  0  0  0  0
   38.6050   26.3990   33.1450 C   0  0  0  0  0  0  0  0  0  0  0  0
   39.4900   26.7920   34.0760 N   0  0  0  0  0  0  0  0  0  0  0  0
   40.8360   26.2040   35.5900 H   0  0  0  0  0  0  0  0  0  0  0  0
   38.7700   23.0920   33.5990 H   0  0  0  0  0  0  0  0  0  0  0  0
   39.8980   23.0730   36.6250 C   0  0  0  0  0  0  0  0  0  0  0  0
   40.6040   23.5940   35.5550 C   0  0  0  0  0  0  0  0  0  0  0  0
   41.9170   23.2700   35.3200 C   0  0  0  0  0  0  0  0  0  0  0  0
   42.5780   22.4020   36.1570 C   0  0  0  0  0  0  0  0  0  0  0  0
   41.8870   21.8750   37.2280 C   0  0  0  0  0  0  0  0  0  0  0  0
   40.5610   22.1920   37.4810 C   0  0  0  0  0  0  0  0  0  0  0  0
   42.4300   23.6920   34.4840 H   0  0  0  0  0  0  0  0  0  0  0  0
   43.6050   22.1010   36.0380 H   0  0  0  0  0  0  0  0  0  0  0  0
   42.3650   21.1830   37.9210 H   0  0  0  0  0  0  0  0  0  0  0  0
   40.0640   21.7400   38.3490 H   0  0  0  0  0  0  0  0  0  0  0  0
   37.5730   22.4700   36.7060 N   0  0  0  0  0  0  0  0  0  0  0  0
   38.5060   23.3340   36.9880 C   0  0  0  0  0  0  0  0  0  0  0  0
   37.9970   24.4890   37.6570 N   0  0  0  0  0  0  0  0  0  0  0  0
   37.7540   21.5890   36.2200 H   0  0  0  0  0  0  0  0  0  0  0  0
   37.7880   24.8280   38.6420 H   0  0  0  0  0  0  0  0  0  0  0  0
   37.6530   25.4190   37.2780 H   0  0  0  0  0  0  0  0  0  0  0  0
   39.2150   27.0990   30.5140 O   0  0  0  0  0  0  0  0  0  0  0  0
   38.0280   27.2800   30.9210 C   0  0  0  0  0  0  0  0  0  0  0  0
   37.9790   27.4910   32.3720 C   0  0  1  0  0  3  0  0  0  0  0  0
   36.4710   27.5770   32.6290 C   0  0  0  0  0  3  0  0  0  0  0  0
   35.9950   26.5820   32.7050 H   0  0  0  0  0  0  0  0  0  0  0  0
   36.0070   28.1890   31.3220 C   0  0  0  0  0  3  0  0  0  0  0  0
   34.9180   28.1550   31.2070 H   0  0  0  0  0  0  0  0  0  0  0  0
   36.7150   27.3360   30.3570 N   0  0  0  0  0  0  0  0  0  0  0  0
   36.6000   26.7870   29.4540 H   0  0  0  0  0  0  0  0  0  0  0  0
  1  7  1  0  0  0  0
  2  1  1  0  0  0  0
  2 10  1  0  0  0  0
  3  2  2  0  0  0  0
  4  5  2  0  0  0  0
  4  3  1  0  0  0  0
  5  6  1  0  0  0  0
  6  1  2  0  0  0  0
  8  3  1  0  0  0  0
  9 20  1  0  0  0  0
  9 14  1  0  0  0  0
 10  9  2  0  0  0  0
 11 10  1  0  0  0  0
 11 12  2  0  0  0  0
 12 13  1  0  0  0  0
 13 14  2  0  0  0  0
 13 17  1  0  0  0  0
 14 18  1  0  0  0  0
 15 11  1  0  0  0  0
 16 12  1  0  0  0  0
 19 20  2  0  0  0  0
 20 21  1  0  0  0  0
 21 23  1  0  0  0  0
 22 19  1  0  0  0  0
 24 21  1  0  0  0  0
 25 26  2  0  0  0  0
 26 27  1  0  0  0  0
 27 28  1  0  0  0  0
 27  5  1  1  0  0  0
 28 29  1  0  0  0  0
 30 28  1  0  0  0  0
 31 30  1  0  0  0  0
 32 26  1  0  0  0  0
 32 30  1  0  0  0  0
 33 32  1  0  0  0  0
M  END
>  <minimizedAffinity>
-5.24648952

$$$$

 OpenBabel03272503453D

 33 35  0  0  1  0  0  0  0  0999 V2000
   34.0620   29.9820   32.7730 C   0  0  0  0  0  0  0  0  0  0  0  0
   34.2120   29.6100   34.1230 C   0  0  0  0  0  0  0  0  0  0  0  0
   35.4260   29.0150   34.4800 C   0  0  0  0  0  0  0  0  0  0  0  0
   36.3800   28.8270   33.5380 N   0  0  0  0  0  0  0  0  0  0  0  0
   36.1920   29.2000   32.2510 C   0  0  0  0  0  0  0  0  0  0  0  0
   35.0350   29.7740   31.8770 N   0  0  0  0  0  0  0  0  0  0  0  0
   33.1260   30.4460   32.4720 H   0  0  0  0  0  0  0  0  0  0  0  0
   35.5430   28.7340   35.4960 H   0  0  0  0  0  0  0  0  0  0  0  0
   33.2580   30.9450   35.8870 C   0  0  0  0  0  0  0  0  0  0  0  0
   33.1070   29.8700   35.0280 C   0  0  0  0  0  0  0  0  0  0  0  0
   31.9790   29.0890   35.0270 C   0  0  0  0  0  0  0  0  0  0  0  0
   30.9480   29.3590   35.8960 C   0  0  0  0  0  0  0  0  0  0  0  0
   31.0830   30.4270   36.7580 C   0  0  0  0  0  0  0  0  0  0  0  0
   32.2170   31.2260   36.7730 C   0  0  0  0  0  0  0  0  0  0  0  0
   31.8980   28.2670   34.3490 H   0  0  0  0  0  0  0  0  0  0  0  0
   30.0340   28.7930   35.9550 H   0  0  0  0  0  0  0  0  0  0  0  0
   30.2960   30.6830   37.4660 H   0  0  0  0  0  0  0  0  0  0  0  0
   32.2660   32.0630   37.4820 H   0  0  0  0  0  0  0  0  0  0  0  0
   35.1020   31.9120   37.0860 N   0  0  0  0  0  0  0  0  0  0  0  0
   34.4000   31.8520   35.9910 C   0  0  0  0  0  0  0  0  0  0  0  0
   34.8820   32.7420   34.9830 N   0  0  0  0  0  0  0  0  0  0  0  0
   34.8950   31.3520   37.9150 H   0  0  0  0  0  0  0  0  0  0  0  0
   35.5850   32.7600   34.1870 H   0  0  0  0  0  0  0  0  0  0  0  0
   34.6170   33.7450   34.7540 H   0  0  0  0  0  0  0  0  0  0  0  0
   36.9490   26.7740   31.0990 O   0  0  0  0  0  0  0  0  0  0  0  0
   36.9710   27.8130   30.3730 C   0  0  0  0  0  0  0  0  0  0  0  0
   37.1850   29.0270   31.1710 C   0  0  1  0  0  3  0  0  0  0  0  0
   37.0680   30.1270   30.1110 C   0  0  0  0  0  3  0  0  0  0  0  0
   36.0190   30.3950   29.8880 H   0  0  0  0  0  0  0  0  0  0  0  0
   37.6040   29.3930   28.8980 C   0  0  0  0  0  3  0  0  0  0  0  0
   37.4230   29.9380   27.9650 H   0  0  0  0  0  0  0  0  0  0  0  0
   36.8460   28.1360   28.9860 N   0  0  0  0  0  0  0  0  0  0  0  0
   36.2810   27.4360   28.4200 H   0  0  0  0  0  0  0  0  0  0  0  0
  1  2  1  0  0  0  0
  2  3  2  0  0  0  0
  2 10  1  0  0  0  0
  3  8  1  0  0  0  0
  4  3  1  0  0  0  0
  5  4  2  0  0  0  0
  6  5  1  0  0  0  0
  6  1  2  0  0  0  0
  7  1  1  0  0  0  0
  9 20  1  0  0  0  0
  9 14  1  0  0  0  0
 10  9  2  0  0  0  0
 11 10  1  0  0  0  0
 11 12  2  0  0  0  0
 12 16  1  0  0  0  0
 12 13  1  0  0  0  0
 13 14  2  0  0  0  0
 13 17  1  0  0  0  0
 14 18  1  0  0  0  0
 15 11  1  0  0  0  0
 19 22  1  0  0  0  0
 20 19  2  0  0  0  0
 21 20  1  0  0  0  0
 23 21  1  0  0  0  0
 24 21  1  0  0  0  0
 26 25  2  0  0  0  0
 26 27  1  0  0  0  0
 27  5  1  1  0  0  0
 28 27  1  0  0  0  0
 29 28  1  0  0  0  0
 30 32  1  0  0  0  0
 30 28  1  0  0  0  0
 31 30  1  0  0  0  0
 32 26  1  0  0  0  0
 33 32  1  0  0  0  0
M  END
>  <minimizedAffinity>
-5.2270751

$$$$

 OpenBabel03272503453D

 33 35  0  0  1  0  0  0  0  0999 V2000
   35.6050   25.2250   31.0430 C   0  0  0  0  0  0  0  0  0  0  0  0
   36.4320   24.4050   31.8350 C   0  0  0  0  0  0  0  0  0  0  0  0
   37.2090   25.0460   32.8040 C   0  0  0  0  0  0  0  0  0  0  0  0
   37.1350   26.3910   32.9380 N   0  0  0  0  0  0  0  0  0  0  0  0
   36.3250   27.1400   32.1530 C   0  0  0  0  0  0  0  0  0  0  0  0
   35.5670   26.5530   31.2120 N   0  0  0  0  0  0  0  0  0  0  0  0
   34.9920   24.7490   30.2820 H   0  0  0  0  0  0  0  0  0  0  0  0
   37.8330   24.4320   33.4030 H   0  0  0  0  0  0  0  0  0  0  0  0
   37.5000   22.4590   30.8990 C   0  0  0  0  0  0  0  0  0  0  0  0
   36.4140   22.9760   31.5840 C   0  0  0  0  0  0  0  0  0  0  0  0
   35.3730   22.1860   32.0060 C   0  0  0  0  0  0  0  0  0  0  0  0
   35.3840   20.8340   31.7550 C   0  0  0  0  0  0  0  0  0  0  0  0
   36.4590   20.3040   31.0730 C   0  0  0  0  0  0  0  0  0  0  0  0
   37.5180   21.0880   30.6390 C   0  0  0  0  0  0  0  0  0  0  0  0
   34.5520   22.6190   32.5320 H   0  0  0  0  0  0  0  0  0  0  0  0
   34.6070   20.1500   32.0530 H   0  0  0  0  0  0  0  0  0  0  0  0
   36.5160   19.2400   30.8480 H   0  0  0  0  0  0  0  0  0  0  0  0
   38.3470   20.6090   30.1010 H   0  0  0  0  0  0  0  0  0  0  0  0
   39.8120   23.1040   31.0090 N   0  0  0  0  0  0  0  0  0  0  0  0
   38.6650   23.1840   30.3970 C   0  0  0  0  0  0  0  0  0  0  0  0
   38.7190   24.0270   29.2460 N   0  0  0  0  0  0  0  0  0  0  0  0
   39.9570   22.5520   31.8570 H   0  0  0  0  0  0  0  0  0  0  0  0
   38.9400   23.9680   28.2080 H   0  0  0  0  0  0  0  0  0  0  0  0
   38.5240   25.0650   29.1310 H   0  0  0  0  0  0  0  0  0  0  0  0
   37.7360   29.0030   30.6280 O   0  0  0  0  0  0  0  0  0  0  0  0
   36.5600   29.3010   31.0000 C   0  0  0  0  0  0  0  0  0  0  0  0
   36.1930   28.6080   32.2410 C   0  0  1  0  0  3  0  0  0  0  0  0
   34.7330   29.0370   32.4220 C   0  0  0  0  0  3  0  0  0  0  0  0
   34.0330   28.4330   31.8160 H   0  0  0  0  0  0  0  0  0  0  0  0
   34.7770   30.4190   31.8000 C   0  0  0  0  0  3  0  0  0  0  0  0
   33.7770   30.8370   31.6400 H   0  0  0  0  0  0  0  0  0  0  0  0
   35.4870   30.1290   30.5460 N   0  0  0  0  0  0  0  0  0  0  0  0
   35.4810   30.3070   29.4980 H   0  0  0  0  0  0  0  0  0  0  0  0
  1  6  2  0  0  0  0
  1  2  1  0  0  0  0
  2  3  2  0  0  0  0
  3  4  1  0  0  0  0
  3  8  1  0  0  0  0
  5  4  2  0  0  0  0
  6  5  1  0  0  0  0
  7  1  1  0  0  0  0
  9 10  1  0  0  0  0
 10  2  1  0  0  0  0
 10 11  2  0  0  0  0
 11 15  1  0  0  0  0
 12 11  1  0  0  0  0
 12 16  1  0  0  0  0
 13 12  2  0  0  0  0
 14  9  2  0  0  0  0
 14 13  1  0  0  0  0
 17 13  1  0  0  0  0
 18 14  1  0  0  0  0
 19 22  1  0  0  0  0
 20  9  1  0  0  0  0
 20 19  2  0  0  0  0
 21 20  1  0  0  0  0
 23 21  1  0  0  0  0
 24 21  1  0  0  0  0
 25 26  2  0  0  0  0
 26 27  1  0  0  0  0
 27  5  1  6  0  0  0
 27 28  1  0  0  0  0
 29 28  1  0  0  0  0
 30 28  1  0  0  0  0
 31 30  1  0  0  0  0
 32 26  1  0  0  0  0
 32 30  1  0  0  0  0
 33 32  1  0  0  0  0
M  END
>  <minimizedAffinity>
-5.16731548

$$$$

 OpenBabel03272503453D

 33 35  0  0  1  0  0  0  0  0999 V2000
   38.0980   24.2850   33.6450 C   0  0  0  0  0  0  0  0  0  0  0  0
   38.4330   25.0510   34.7780 C   0  0  0  0  0  0  0  0  0  0  0  0
   38.4870   26.4380   34.6060 C   0  0  0  0  0  0  0  0  0  0  0  0
   38.2220   26.9710   33.3900 N   0  0  0  0  0  0  0  0  0  0  0  0
   37.9050   26.1950   32.3270 C   0  0  0  0  0  0  0  0  0  0  0  0
   37.8450   24.8590   32.4620 N   0  0  0  0  0  0  0  0  0  0  0  0
   38.0500   23.2050   33.7550 H   0  0  0  0  0  0  0  0  0  0  0  0
   38.7390   27.0180   35.4570 H   0  0  0  0  0  0  0  0  0  0  0  0
   39.9230   23.7230   36.1260 C   0  0  0  0  0  0  0  0  0  0  0  0
   38.6930   24.3490   36.0220 C   0  0  0  0  0  0  0  0  0  0  0  0
   37.7670   24.3130   37.0330 C   0  0  0  0  0  0  0  0  0  0  0  0
   38.0410   23.6400   38.2010 C   0  0  0  0  0  0  0  0  0  0  0  0
   39.2620   23.0110   38.3200 C   0  0  0  0  0  0  0  0  0  0  0  0
   40.2100   23.0370   37.3080 C   0  0  0  0  0  0  0  0  0  0  0  0
   36.8280   24.8080   36.9170 H   0  0  0  0  0  0  0  0  0  0  0  0
   37.3670   23.5660   39.0370 H   0  0  0  0  0  0  0  0  0  0  0  0
   39.5290   22.4630   39.2240 H   0  0  0  0  0  0  0  0  0  0  0  0
   41.1650   22.5170   37.4610 H   0  0  0  0  0  0  0  0  0  0  0  0
   41.1930   22.6160   34.4130 N   0  0  0  0  0  0  0  0  0  0  0  0
   40.9930   23.6840   35.1310 C   0  0  0  0  0  0  0  0  0  0  0  0
   41.9120   24.7320   34.8200 N   0  0  0  0  0  0  0  0  0  0  0  0
   40.6350   21.7650   34.5070 H   0  0  0  0  0  0  0  0  0  0  0  0
   42.0090   25.5530   34.1520 H   0  0  0  0  0  0  0  0  0  0  0  0
   42.8560   24.9800   35.2390 H   0  0  0  0  0  0  0  0  0  0  0  0
   35.3690   26.3870   31.1790 O   0  0  0  0  0  0  0  0  0  0  0  0
   36.2440   27.2420   30.8430 C   0  0  0  0  0  0  0  0  0  0  0  0
   37.6040   26.7040   30.9740 C   0  0  1  0  0  3  0  0  0  0  0  0
   38.4620   27.9250   30.6240 C   0  0  0  0  0  3  0  0  0  0  0  0
   38.5940   28.6120   31.4790 H   0  0  0  0  0  0  0  0  0  0  0  0
   37.5490   28.6220   29.6340 C   0  0  0  0  0  3  0  0  0  0  0  0
   37.8840   29.6390   29.4010 H   0  0  0  0  0  0  0  0  0  0  0  0
   36.2770   28.5910   30.3700 N   0  0  0  0  0  0  0  0  0  0  0  0
   35.4360   29.1770   30.6520 H   0  0  0  0  0  0  0  0  0  0  0  0
  1  7  1  0  0  0  0
  1  2  1  0  0  0  0
  2 10  1  0  0  0  0
  3  2  2  0  0  0  0
  3  8  1  0  0  0  0
  4  3  1  0  0  0  0
  5  6  1  0  0  0  0
  5  4  2  0  0  0  0
  6  1  2  0  0  0  0
  9 14  1  0  0  0  0
 10  9  2  0  0  0  0
 10 11  1  0  0  0  0
 11 12  2  0  0  0  0
 12 13  1  0  0  0  0
 12 16  1  0  0  0  0
 13 17  1  0  0  0  0
 14 18  1  0  0  0  0
 14 13  2  0  0  0  0
 15 11  1  0  0  0  0
 19 22  1  0  0  0  0
 19 20  2  0  0  0  0
 20  9  1  0  0  0  0
 21 20  1  0  0  0  0
 21 24  1  0  0  0  0
 23 21  1  0  0  0  0
 26 27  1  0  0  0  0
 26 25  2  0  0  0  0
 27  5  1  1  0  0  0
 28 27  1  0  0  0  0
 28 29  1  0  0  0  0
 30 32  1  0  0  0  0
 30 28  1  0  0  0  0
 31 30  1  0  0  0  0
 32 33  1  0  0  0  0
 32 26  1  0  0  0  0
M  END
>  <minimizedAffinity>
-5.12300014

$$$$

 OpenBabel03272503453D

 33 35  0  0  1  0  0  0  0  0999 V2000
   34.6210   30.8540   32.7950 C   0  0  0  0  0  0  0  0  0  0  0  0
   34.3800   30.1230   33.9740 C   0  0  0  0  0  0  0  0  0  0  0  0
   35.1610   28.9800   34.1750 C   0  0  0  0  0  0  0  0  0  0  0  0
   36.0890   28.6350   33.2530 N   0  0  0  0  0  0  0  0  0  0  0  0
   36.2860   29.3680   32.1330 C   0  0  0  0  0  0  0  0  0  0  0  0
   35.5510   30.4720   31.9110 N   0  0  0  0  0  0  0  0  0  0  0  0
   34.0260   31.7470   32.6170 H   0  0  0  0  0  0  0  0  0  0  0  0
   34.9820   28.4270   35.0620 H   0  0  0  0  0  0  0  0  0  0  0  0
   32.0420   30.4120   34.4770 C   0  0  0  0  0  0  0  0  0  0  0  0
   33.3530   30.6070   34.8780 C   0  0  0  0  0  0  0  0  0  0  0  0
   33.6700   31.2220   36.0630 C   0  0  0  0  0  0  0  0  0  0  0  0
   32.6750   31.6710   36.8990 C   0  0  0  0  0  0  0  0  0  0  0  0
   31.3640   31.4850   36.5140 C   0  0  0  0  0  0  0  0  0  0  0  0
   31.0260   30.8660   35.3200 C   0  0  0  0  0  0  0  0  0  0  0  0
   34.6930   31.3550   36.3390 H   0  0  0  0  0  0  0  0  0  0  0  0
   32.8440   32.1620   37.8430 H   0  0  0  0  0  0  0  0  0  0  0  0
   30.5390   31.8220   37.1400 H   0  0  0  0  0  0  0  0  0  0  0  0
   29.9640   30.7460   35.0670 H   0  0  0  0  0  0  0  0  0  0  0  0
   31.1060   30.4940   32.2660 N   0  0  0  0  0  0  0  0  0  0  0  0
   31.5690   29.7770   33.2490 C   0  0  0  0  0  0  0  0  0  0  0  0
   31.5450   28.3780   32.9630 N   0  0  0  0  0  0  0  0  0  0  0  0
   31.0400   31.5140   32.2990 H   0  0  0  0  0  0  0  0  0  0  0  0
   32.1550   27.6320   32.5150 H   0  0  0  0  0  0  0  0  0  0  0  0
   30.8070   27.6390   33.1540 H   0  0  0  0  0  0  0  0  0  0  0  0
   36.7600   26.8470   31.0350 O   0  0  0  0  0  0  0  0  0  0  0  0
   36.9340   27.8630   30.2960 C   0  0  0  0  0  0  0  0  0  0  0  0
   37.2780   29.0530   31.0850 C   0  0  1  0  0  3  0  0  0  0  0  0
   37.3310   30.1410   30.0080 C   0  0  0  0  0  3  0  0  0  0  0  0
   36.3310   30.5360   29.7510 H   0  0  0  0  0  0  0  0  0  0  0  0
   37.8020   29.3250   28.8200 C   0  0  0  0  0  3  0  0  0  0  0  0
   37.7170   29.8740   27.8750 H   0  0  0  0  0  0  0  0  0  0  0  0
   36.8890   28.1760   28.9020 N   0  0  0  0  0  0  0  0  0  0  0  0
   36.2550   27.5440   28.3290 H   0  0  0  0  0  0  0  0  0  0  0  0
  1  2  1  0  0  0  0
  2  3  2  0  0  0  0
  2 10  1  0  0  0  0
  3  8  1  0  0  0  0
  4  3  1  0  0  0  0
  5  4  2  0  0  0  0
  6  5  1  0  0  0  0
  6  1  2  0  0  0  0
  7  1  1  0  0  0  0
  9 10  2  0  0  0  0
  9 14  1  0  0  0  0
 10 11  1  0  0  0  0
 11 15  1  0  0  0  0
 11 12  2  0  0  0  0
 12 16  1  0  0  0  0
 13 12  1  0  0  0  0
 13 17  1  0  0  0  0
 14 13  2  0  0  0  0
 18 14  1  0  0  0  0
 19 22  1  0  0  0  0
 19 20  2  0  0  0  0
 20  9  1  0  0  0  0
 21 24  1  0  0  0  0
 21 20  1  0  0  0  0
 23 21  1  0  0  0  0
 26 25  2  0  0  0  0
 26 27  1  0  0  0  0
 27  5  1  1  0  0  0
 28 27  1  0  0  0  0
 29 28  1  0  0  0  0
 30 32  1  0  0  0  0
 30 28  1  0  0  0  0
 31 30  1  0  0  0  0
 32 26  1  0  0  0  0
 33 32  1  0  0  0  0
M  END
>  <minimizedAffinity>
-5.11105967

$$$$
