
 OpenBabel03272510203D

 36 39  0  0  1  0  0  0  0  0999 V2000
   37.3640   29.2450   50.9120 Br  0  0  0  0  0  0  0  0  0  0  0  0
   35.9980   29.3070   49.5790 C   0  0  0  0  0  0  0  0  0  0  0  0
   36.0130   30.2810   48.5940 C   0  0  0  0  0  0  0  0  0  0  0  0
   34.9990   30.2750   47.6580 C   0  0  0  0  0  0  0  0  0  0  0  0
   33.9750   29.3360   47.6660 C   0  0  0  0  0  0  0  0  0  0  0  0
   33.9880   28.3900   48.6500 C   0  0  0  0  0  0  0  0  0  0  0  0
   34.9970   28.3840   49.5920 C   0  0  0  0  0  0  0  0  0  0  0  0
   35.0160   31.0270   46.9030 H   0  0  0  0  0  0  0  0  0  0  0  0
   33.2270   27.6190   48.7310 H   0  0  0  0  0  0  0  0  0  0  0  0
   35.0060   27.6340   50.3690 H   0  0  0  0  0  0  0  0  0  0  0  0
   37.9950   33.2010   49.5130 C   0  0  0  0  0  0  0  0  0  0  0  0
   39.0350   33.2120   48.5350 C   0  0  0  0  0  0  0  0  0  0  0  0
   39.0310   32.2120   47.5800 C   0  0  0  0  0  0  0  0  0  0  0  0
   38.0420   31.2610   47.6060 N   0  0  0  0  0  0  0  0  0  0  0  0
   37.0730   31.2850   48.5510 C   0  0  0  0  0  0  0  0  0  0  0  0
   37.0490   32.2570   49.5060 N   0  0  0  0  0  0  0  0  0  0  0  0
   38.0320   34.0000   50.2450 H   0  0  0  0  0  0  0  0  0  0  0  0
   39.7910   33.9930   48.5670 H   0  0  0  0  0  0  0  0  0  0  0  0
   39.8070   32.1900   46.8220 H   0  0  0  0  0  0  0  0  0  0  0  0
   32.9050   29.3170   46.6930 C   0  0  0  0  0  0  0  0  0  0  0  0
   31.8660   28.4210   46.6730 C   0  0  0  0  0  0  0  0  0  0  0  0
   30.8600   28.4380   45.7190 C   0  0  0  0  0  0  0  0  0  0  0  0
   30.8890   29.3680   44.7640 N   0  0  0  0  0  0  0  0  0  0  0  0
   31.8960   30.2560   44.7610 C   0  0  0  0  0  0  0  0  0  0  0  0
   32.8600   30.2270   45.6900 N   0  0  0  0  0  0  0  0  0  0  0  0
   31.8380   27.6590   47.4530 H   0  0  0  0  0  0  0  0  0  0  0  0
   30.0730   27.7040   45.7620 H   0  0  0  0  0  0  0  0  0  0  0  0
   29.9110   32.6120   44.6140 O   0  0  0  0  0  0  0  0  0  0  0  0
   30.7410   32.1990   43.7450 C   0  0  0  0  0  0  0  0  0  0  0  0
   31.9070   31.2830   43.6860 C   0  0  2  0  0  3  0  0  0  0  0  0
   31.7550   30.6140   42.3350 C   0  0  0  0  0  3  0  0  0  0  0  0
   32.7040   30.2910   41.9030 H   0  0  0  0  0  0  0  0  0  0  0  0
   31.0550   31.6550   41.4670 C   0  0  0  0  0  3  0  0  0  0  0  0
   31.7980   32.0260   40.7420 H   0  0  0  0  0  0  0  0  0  0  0  0
   30.6170   32.6880   42.3950 N   0  0  0  0  0  0  0  0  0  0  0  0
   30.2870   33.6020   41.9790 H   0  0  0  0  0  0  0  0  0  0  0  0
  2  7  1  0  0  0  0
  2  1  1  0  0  0  0
  3  2  2  0  0  0  0
  4  5  2  0  0  0  0
  4  3  1  0  0  0  0
  5  6  1  0  0  0  0
  6  9  1  0  0  0  0
  6  7  2  0  0  0  0
  7 10  1  0  0  0  0
  8  4  1  0  0  0  0
 11 17  1  0  0  0  0
 12 18  1  0  0  0  0
 12 11  2  0  0  0  0
 13 14  2  0  0  0  0
 13 12  1  0  0  0  0
 14 15  1  0  0  0  0
 15  3  1  0  0  0  0
 15 16  2  0  0  0  0
 16 11  1  0  0  0  0
 19 13  1  0  0  0  0
 20  5  1  0  0  0  0
 21 20  1  0  0  0  0
 21 26  1  0  0  0  0
 22 27  1  0  0  0  0
 22 21  2  0  0  0  0
 23 22  1  0  0  0  0
 24 23  2  0  0  0  0
 24 25  1  0  0  0  0
 25 20  2  0  0  0  0
 29 28  2  0  0  0  0
 30 29  1  0  0  0  0
 30 24  1  1  0  0  0
 31 30  1  0  0  0  0
 32 31  1  0  0  0  0
 33 31  1  0  0  0  0
 33 35  1  0  0  0  0
 34 33  1  0  0  0  0
 35 29  1  0  0  0  0
 36 35  1  0  0  0  0
M  END
>  <minimizedAffinity>
-6.13377523

>  <minimizedRMSD>
0.957884252

$$$$
