
 OpenBabel03272506473D

 42 45  0  0  1  0  0  0  0  0999 V2000
   32.2360   28.5870   47.4450 C   0  0  2  0  0  0  0  0  0  0  0  0
   33.4850   28.3340   48.2370 C   0  0  1  0  0  0  0  0  0  0  0  0
   33.8040   27.0160   48.1100 O   0  0  0  0  0  0  0  0  0  0  0  0
   33.0450   26.4530   47.0890 C   0  0  0  0  0  0  0  0  0  0  0  0
   32.4900   27.5930   46.2700 C   0  0  1  0  0  0  0  0  0  0  0  0
   31.3030   28.2960   47.9240 H   0  0  0  0  0  0  0  0  0  0  0  0
   33.3440   28.6340   49.2920 H   0  0  0  0  0  0  0  0  0  0  0  0
   33.6760   25.7840   46.4400 H   0  0  0  0  0  0  0  0  0  0  0  0
   32.3240   25.8030   47.5640 H   0  0  0  0  0  0  0  0  0  0  0  0
   33.2500   28.0390   45.6370 H   0  0  0  0  0  0  0  0  0  0  0  0
   32.2320   29.9030   46.9360 O   0  0  0  0  0  0  0  0  0  0  0  0
   32.4920   29.8640   45.9840 H   0  0  0  0  0  0  0  0  0  0  0  0
   34.8370   29.3180   47.4760 S   0  0  0  0  0  0  0  0  0  0  0  0
   37.1590   29.3360   50.6870 C   0  0  0  0  0  0  0  0  0  0  0  0
   37.6520   30.6320   50.7790 C   0  0  0  0  0  0  0  0  0  0  0  0
   37.2450   31.5490   49.7960 C   0  0  0  0  0  0  0  0  0  0  0  0
   36.3990   31.1280   48.8140 N   0  0  0  0  0  0  0  0  0  0  0  0
   35.9490   29.8520   48.7740 C   0  0  0  0  0  0  0  0  0  0  0  0
   36.3220   28.9380   49.7080 N   0  0  0  0  0  0  0  0  0  0  0  0
   37.4580   28.6130   51.4320 H   0  0  0  0  0  0  0  0  0  0  0  0
   38.3160   30.9700   51.5450 H   0  0  0  0  0  0  0  0  0  0  0  0
   37.5760   32.5790   49.7850 H   0  0  0  0  0  0  0  0  0  0  0  0
   31.3110   27.1990   45.6890 O   0  0  0  0  0  0  0  0  0  0  0  0
   30.7130   29.2700   43.6850 Cl  0  0  0  0  0  0  0  0  0  0  0  0
   29.7260   28.7350   45.0260 C   0  0  0  0  0  0  0  0  0  0  0  0
   30.1140   27.7420   45.8990 C   0  0  0  0  0  0  0  0  0  0  0  0
   29.2320   27.3850   46.9200 C   0  0  0  0  0  0  0  0  0  0  0  0
   28.0120   28.0110   47.0460 C   0  0  0  0  0  0  0  0  0  0  0  0
   27.6140   29.0090   46.1770 C   0  0  0  0  0  0  0  0  0  0  0  0
   28.4810   29.3700   45.1610 C   0  0  0  0  0  0  0  0  0  0  0  0
   29.4440   26.6190   47.6440 H   0  0  0  0  0  0  0  0  0  0  0  0
   27.2940   27.7800   47.8120 H   0  0  0  0  0  0  0  0  0  0  0  0
   26.6560   29.5310   46.2430 H   0  0  0  0  0  0  0  0  0  0  0  0
   29.5990   32.2480   44.7240 O   0  0  0  0  0  0  0  0  0  0  0  0
   28.4130   31.7870   44.7010 C   0  0  0  0  0  0  0  0  0  0  0  0
   28.0710   30.4370   44.2200 C   0  0  2  0  0  3  0  0  0  0  0  0
   26.5820   30.5120   44.0210 C   0  0  0  0  0  3  0  0  0  0  0  0
   26.0160   29.9130   44.7680 H   0  0  0  0  0  0  0  0  0  0  0  0
   26.1600   31.9520   44.2280 C   0  0  0  0  0  3  0  0  0  0  0  0
   26.1170   32.5320   43.2840 H   0  0  0  0  0  0  0  0  0  0  0  0
   27.2000   32.4400   45.1170 N   0  0  0  0  0  0  0  0  0  0  0  0
   27.1840   33.1240   45.9270 H   0  0  0  0  0  0  0  0  0  0  0  0
  1  6  1  1  0  0  0
  1  2  1  0  0  0  0
  2  7  1  1  0  0  0
  3  2  1  0  0  0  0
  4  9  1  0  0  0  0
  4  3  1  0  0  0  0
  5 10  1  6  0  0  0
  5  4  1  0  0  0  0
  5  1  1  0  0  0  0
  8  4  1  0  0  0  0
 11  1  1  0  0  0  0
 12 11  1  0  0  0  0
 13  2  1  0  0  0  0
 13 18  1  0  0  0  0
 14 15  1  0  0  0  0
 14 20  1  0  0  0  0
 15 21  1  0  0  0  0
 16 15  2  0  0  0  0
 17 16  1  0  0  0  0
 18 17  2  0  0  0  0
 18 19  1  0  0  0  0
 19 14  2  0  0  0  0
 22 16  1  0  0  0  0
 23 26  1  0  0  0  0
 23  5  1  0  0  0  0
 24 25  1  0  0  0  0
 25 30  2  0  0  0  0
 25 26  1  0  0  0  0
 26 27  2  0  0  0  0
 27 28  1  0  0  0  0
 27 31  1  0  0  0  0
 28 32  1  0  0  0  0
 29 33  1  0  0  0  0
 29 28  2  0  0  0  0
 30 29  1  0  0  0  0
 35 34  2  0  0  0  0
 35 41  1  0  0  0  0
 36 35  1  0  0  0  0
 36 30  1  1  0  0  0
 37 36  1  0  0  0  0
 37 39  1  0  0  0  0
 37 38  1  0  0  0  0
 39 41  1  0  0  0  0
 40 39  1  0  0  0  0
 41 42  1  0  0  0  0
M  END
>  <minimizedAffinity>
-5.09958553

>  <minimizedRMSD>
1.13368928

$$$$
