
 OpenBabel03272507243D

 30 32  0  0  1  0  0  0  0  0999 V2000
   34.9160   28.1960   49.0860 C   0  0  0  0  0  0  0  0  0  0  0  0
   36.0550   29.0050   49.3030 C   0  0  0  0  0  0  0  0  0  0  0  0
   36.0920   30.2750   48.7060 C   0  0  0  0  0  0  0  0  0  0  0  0
   35.0330   30.6420   47.9650 N   0  0  0  0  0  0  0  0  0  0  0  0
   33.9490   29.8660   47.7600 C   0  0  0  0  0  0  0  0  0  0  0  0
   33.8990   28.6350   48.3300 N   0  0  0  0  0  0  0  0  0  0  0  0
   37.2000   31.1230   48.8880 N   0  0  0  0  0  0  0  0  0  0  0  0
   38.1020   31.1120   50.0280 C   0  0  0  0  0  0  0  0  0  0  0  0
   38.9810   32.3080   49.8880 C   0  0  0  0  0  0  0  0  0  0  0  0
   38.1750   33.1920   48.9790 C   0  0  0  0  0  0  0  0  0  0  0  0
   37.6540   32.1470   48.0080 C   0  0  1  0  0  0  0  0  0  0  0  0
   34.9420   27.2140   49.5760 H   0  0  0  0  0  0  0  0  0  0  0  0
   36.8930   28.6700   49.9130 H   0  0  0  0  0  0  0  0  0  0  0  0
   33.0980   30.1650   47.1620 H   0  0  0  0  0  0  0  0  0  0  0  0
   37.5670   31.0480   50.9940 H   0  0  0  0  0  0  0  0  0  0  0  0
   38.7180   30.1940   49.9410 H   0  0  0  0  0  0  0  0  0  0  0  0
   39.0770   32.8050   50.8720 H   0  0  0  0  0  0  0  0  0  0  0  0
   39.9860   32.1030   49.4790 H   0  0  0  0  0  0  0  0  0  0  0  0
   37.3240   33.6290   49.5070 H   0  0  0  0  0  0  0  0  0  0  0  0
   38.8240   33.9390   48.4820 H   0  0  0  0  0  0  0  0  0  0  0  0
   36.8300   32.5860   47.4010 H   0  0  0  0  0  0  0  0  0  0  0  0
   37.4210   30.2800   45.4110 O   0  0  0  0  0  0  0  0  0  0  0  0
   38.0600   31.3110   45.7990 C   0  0  0  0  0  0  0  0  0  0  0  0
   38.7180   31.6260   47.0840 C   0  0  1  0  0  0  0  0  0  0  0  0
   39.7440   32.6440   46.7140 C   0  0  0  0  0  0  0  0  0  0  0  0
   39.6740   33.5460   47.3620 H   0  0  0  0  0  0  0  0  0  0  0  0
   39.5580   33.0290   45.2790 C   0  0  0  0  0  0  0  0  0  0  0  0
   40.2910   32.5220   44.6020 H   0  0  0  0  0  0  0  0  0  0  0  0
   38.2610   32.4440   44.9550 N   0  0  0  0  0  0  0  0  0  0  0  0
   37.6330   32.8470   44.2110 H   0  0  0  0  0  0  0  0  0  0  0  0
  1  2  1  0  0  0  0
  1 12  1  0  0  0  0
  2 13  1  0  0  0  0
  3  7  1  0  0  0  0
  3  2  2  0  0  0  0
  4  3  1  0  0  0  0
  5  4  2  0  0  0  0
  5  6  1  0  0  0  0
  6  1  2  0  0  0  0
  7  8  1  0  0  0  0
  8 15  1  0  0  0  0
  9  8  1  0  0  0  0
  9 17  1  0  0  0  0
 10 19  1  0  0  0  0
 10  9  1  0  0  0  0
 11 21  1  6  0  0  0
 11  7  1  0  0  0  0
 11 10  1  0  0  0  0
 14  5  1  0  0  0  0
 16  8  1  0  0  0  0
 18  9  1  0  0  0  0
 20 10  1  0  0  0  0
 22 23  2  0  0  0  0
 24 23  1  6  0  0  0
 24 11  1  0  0  0  0
 25 24  1  0  0  0  0
 25 26  1  0  0  0  0
 27 25  1  0  0  0  0
 28 27  1  0  0  0  0
 29 27  1  0  0  0  0
 29 23  1  0  0  0  0
 30 29  1  0  0  0  0
M  END
>  <minimizedAffinity>
-5.41678095

>  <minimizedRMSD>
3.02159095

$$$$
