
 OpenBabel03272504263D

 42 45  0  0  1  0  0  0  0  0999 V2000
   35.5890   29.6000   48.3050 C   0  0  0  0  0  0  0  0  0  0  0  0
   35.3580   28.8450   49.4000 C   0  0  0  0  0  0  0  0  0  0  0  0
   34.4880   27.8240   49.3680 C   0  0  0  0  0  0  0  0  0  0  0  0
   33.8330   27.5530   48.2070 N   0  0  0  0  0  0  0  0  0  0  0  0
   34.0700   28.3020   47.1380 C   0  0  0  0  0  0  0  0  0  0  0  0
   34.9380   29.3250   47.1650 N   0  0  0  0  0  0  0  0  0  0  0  0
   35.8900   29.0760   50.3180 H   0  0  0  0  0  0  0  0  0  0  0  0
   34.3170   27.2290   50.2580 H   0  0  0  0  0  0  0  0  0  0  0  0
   31.9640   27.6860   46.0340 C   0  0  0  0  0  0  0  0  0  0  0  0
   33.3400   27.9110   45.9540 C   0  0  0  0  0  0  0  0  0  0  0  0
   34.0830   27.7620   44.8000 C   0  0  0  0  0  0  0  0  0  0  0  0
   33.4450   27.3660   43.6440 C   0  0  0  0  0  0  0  0  0  0  0  0
   32.0940   27.1190   43.6260 C   0  0  0  0  0  0  0  0  0  0  0  0
   31.4470   27.2930   44.8070 C   0  0  0  0  0  0  0  0  0  0  0  0
   35.1470   27.9490   44.7860 H   0  0  0  0  0  0  0  0  0  0  0  0
   34.0490   27.2540   42.7430 H   0  0  0  0  0  0  0  0  0  0  0  0
   31.5850   26.8110   42.7410 H   0  0  0  0  0  0  0  0  0  0  0  0
   30.3650   27.0950   44.7900 H   0  0  0  0  0  0  0  0  0  0  0  0
   31.0320   27.8750   47.4000 S   0  0  0  0  0  0  0  0  0  0  0  0
   30.0480   26.6920   47.1200 O   0  0  0  0  0  0  0  0  0  0  0  0
   30.2760   29.1720   47.2520 O   0  0  0  0  0  0  0  0  0  0  0  0
   30.7480   27.6680   48.9590 C   0  0  0  0  0  0  0  0  0  0  0  0
   30.2050   26.5000   49.5340 F   0  0  0  0  0  0  0  0  0  0  0  0
   29.5310   28.4030   49.3410 F   0  0  0  0  0  0  0  0  0  0  0  0
   31.4190   28.4380   49.9510 F   0  0  0  0  0  0  0  0  0  0  0  0
   37.7050   32.4040   49.3680 C   0  0  0  0  0  0  0  0  0  0  0  0
   38.3460   32.7760   48.1690 C   0  0  0  0  0  0  0  0  0  0  0  0
   38.0290   32.0490   47.0220 C   0  0  0  0  0  0  0  0  0  0  0  0
   37.1270   31.0320   47.1310 N   0  0  0  0  0  0  0  0  0  0  0  0
   36.5290   30.7040   48.3130 C   0  0  0  0  0  0  0  0  0  0  0  0
   36.8240   31.3940   49.4220 N   0  0  0  0  0  0  0  0  0  0  0  0
   37.9560   32.9690   50.2470 H   0  0  0  0  0  0  0  0  0  0  0  0
   39.0490   33.5970   48.1750 H   0  0  0  0  0  0  0  0  0  0  0  0
   40.5910   30.9460   46.0250 O   0  0  0  0  0  0  0  0  0  0  0  0
   39.7070   31.4760   45.2900 C   0  0  0  0  0  0  0  0  0  0  0  0
   38.6780   32.4100   45.7530 C   0  0  1  0  0  3  0  0  0  0  0  0
   37.6850   32.3570   44.5840 C   0  0  0  0  0  3  0  0  0  0  0  0
   37.1240   31.4180   44.6980 H   0  0  0  0  0  0  0  0  0  0  0  0
   38.6510   32.2330   43.4040 C   0  0  0  0  0  3  0  0  0  0  0  0
   39.1320   33.2010   43.2030 H   0  0  0  0  0  0  0  0  0  0  0  0
   39.6030   31.2190   43.8740 N   0  0  0  0  0  0  0  0  0  0  0  0
   40.1390   30.4440   43.3800 H   0  0  0  0  0  0  0  0  0  0  0  0
  1 30  1  0  0  0  0
  1  2  1  0  0  0  0
  2  7  1  0  0  0  0
  3  2  2  0  0  0  0
  3  8  1  0  0  0  0
  4  3  1  0  0  0  0
  5  6  1  0  0  0  0
  5  4  2  0  0  0  0
  6  1  2  0  0  0  0
  9 19  1  0  0  0  0
 10  9  1  0  0  0  0
 10  5  1  0  0  0  0
 11 10  2  0  0  0  0
 12 11  1  0  0  0  0
 13 12  2  0  0  0  0
 13 14  1  0  0  0  0
 14  9  2  0  0  0  0
 15 11  1  0  0  0  0
 16 12  1  0  0  0  0
 17 13  1  0  0  0  0
 18 14  1  0  0  0  0
 19 22  1  0  0  0  0
 20 19  2  0  0  0  0
 21 19  2  0  0  0  0
 22 24  1  0  0  0  0
 22 23  1  0  0  0  0
 22 25  1  0  0  0  0
 26 31  1  0  0  0  0
 26 32  1  0  0  0  0
 27 33  1  0  0  0  0
 27 26  2  0  0  0  0
 28 29  2  0  0  0  0
 28 27  1  0  0  0  0
 29 30  1  0  0  0  0
 30 31  2  0  0  0  0
 35 36  1  0  0  0  0
 35 34  2  0  0  0  0
 36 28  1  1  0  0  0
 37 38  1  0  0  0  0
 37 36  1  0  0  0  0
 39 41  1  0  0  0  0
 39 37  1  0  0  0  0
 40 39  1  0  0  0  0
 41 35  1  0  0  0  0
 42 41  1  0  0  0  0
M  END
>  <minimizedAffinity>
-6.17918777

>  <minimizedRMSD>
0.770080626

$$$$
