
 OpenBabel03272503403D

 41 44  0  0  1  0  0  0  0  0999 V2000
   39.7390   31.1830   41.7170 C   0  0  2  0  0  0  0  0  0  0  0  0
   39.6160   32.3150   42.7090 C   0  0  1  0  0  0  0  0  0  0  0  0
   38.4240   33.0220   42.0950 C   0  0  0  0  0  0  0  0  0  0  0  0
   38.5150   32.8920   40.7300 O   0  0  0  0  0  0  0  0  0  0  0  0
   39.4900   31.9940   40.4320 C   0  0  0  0  0  0  0  0  0  0  0  0
   40.6970   30.6770   41.6740 H   0  0  0  0  0  0  0  0  0  0  0  0
   40.4660   32.9920   42.7050 H   0  0  0  0  0  0  0  0  0  0  0  0
   38.3910   34.0770   42.3800 H   0  0  0  0  0  0  0  0  0  0  0  0
   37.5160   32.4590   42.4290 H   0  0  0  0  0  0  0  0  0  0  0  0
   40.4360   32.5520   40.2560 H   0  0  0  0  0  0  0  0  0  0  0  0
   39.3350   31.3470   39.5670 H   0  0  0  0  0  0  0  0  0  0  0  0
   38.3800   31.1630   45.8730 C   0  0  0  0  0  0  0  0  0  0  0  0
   39.7030   30.9880   46.0620 C   0  0  0  0  0  0  0  0  0  0  0  0
   40.2820   31.4170   44.8650 C   0  0  0  0  0  0  0  0  0  0  0  0
   39.3180   31.8200   44.0270 N   0  0  0  0  0  0  0  0  0  0  0  0
   38.1390   31.6690   44.6350 N   0  0  0  0  0  0  0  0  0  0  0  0
   40.1700   30.5960   46.9670 H   0  0  0  0  0  0  0  0  0  0  0  0
   41.3650   31.4040   44.6920 H   0  0  0  0  0  0  0  0  0  0  0  0
   36.4990   30.6290   49.0810 C   0  0  0  0  0  0  0  0  0  0  0  0
   37.5070   30.9330   48.1990 C   0  0  0  0  0  0  0  0  0  0  0  0
   37.3420   30.8530   46.8420 C   0  0  0  0  0  0  0  0  0  0  0  0
   36.1100   30.4490   46.4110 N   0  0  0  0  0  0  0  0  0  0  0  0
   35.1170   30.1510   47.2990 C   0  0  0  0  0  0  0  0  0  0  0  0
   35.3030   30.2360   48.6040 N   0  0  0  0  0  0  0  0  0  0  0  0
   38.5110   31.2610   48.5050 H   0  0  0  0  0  0  0  0  0  0  0  0
   34.1570   29.8370   46.9700 H   0  0  0  0  0  0  0  0  0  0  0  0
   36.8630   30.7720   50.4150 O   0  0  0  0  0  0  0  0  0  0  0  0
   36.9090   29.7100   51.3330 C   0  0  0  0  0  0  0  0  0  0  0  0
   35.6360   29.2400   51.6560 F   0  0  0  0  0  0  0  0  0  0  0  0
   37.5820   30.0970   52.4480 F   0  0  0  0  0  0  0  0  0  0  0  0
   37.6110   28.6570   50.7500 F   0  0  0  0  0  0  0  0  0  0  0  0
   38.6570   30.3210   41.9080 O   0  0  0  0  0  0  0  0  0  0  0  0
   41.6860   29.2200   42.2450 O   0  0  0  0  0  0  0  0  0  0  0  0
   40.4710   28.8550   42.0880 C   0  0  0  0  0  0  0  0  0  0  0  0
   39.0350   28.9910   41.7860 C   0  0  1  0  0  3  0  0  0  0  0  0
   38.4200   28.1900   42.9300 C   0  0  0  0  0  3  0  0  0  0  0  0
   37.3810   27.9090   42.7680 H   0  0  0  0  0  0  0  0  0  0  0  0
   39.2380   26.8910   42.8710 C   0  0  0  0  0  3  0  0  0  0  0  0
   38.7410   26.2430   42.1410 H   0  0  0  0  0  0  0  0  0  0  0  0
   40.5000   27.4320   42.3870 N   0  0  0  0  0  0  0  0  0  0  0  0
   41.1420   26.5930   42.3820 H   0  0  0  0  0  0  0  0  0  0  0  0
  1  6  1  1  0  0  0
  1 32  1  0  0  0  0
  1  2  1  0  0  0  0
  2  7  1  6  0  0  0
  2 15  1  0  0  0  0
  3  8  1  0  0  0  0
  3  9  1  0  0  0  0
  3  2  1  0  0  0  0
  4  3  1  0  0  0  0
  5  4  1  0  0  0  0
  5  1  1  0  0  0  0
 10  5  1  0  0  0  0
 11  5  1  0  0  0  0
 12 13  1  0  0  0  0
 12 21  1  0  0  0  0
 13 17  1  0  0  0  0
 14 13  2  0  0  0  0
 15 16  1  0  0  0  0
 15 14  1  0  0  0  0
 16 12  2  0  0  0  0
 18 14  1  0  0  0  0
 19 27  1  0  0  0  0
 20 25  1  0  0  0  0
 20 19  2  0  0  0  0
 21 20  1  0  0  0  0
 22 21  2  0  0  0  0
 22 23  1  0  0  0  0
 23 24  2  0  0  0  0
 24 19  1  0  0  0  0
 26 23  1  0  0  0  0
 27 28  1  0  0  0  0
 28 29  1  0  0  0  0
 28 30  1  0  0  0  0
 31 28  1  0  0  0  0
 34 33  2  0  0  0  0
 34 40  1  0  0  0  0
 35 32  1  1  0  0  0
 35 34  1  0  0  0  0
 35 36  1  0  0  0  0
 37 36  1  0  0  0  0
 38 36  1  0  0  0  0
 39 38  1  0  0  0  0
 40 38  1  0  0  0  0
 41 40  1  0  0  0  0
M  END
>  <minimizedAffinity>
-6.68326569

>  <minimizedRMSD>
0.564549625

$$$$
