
     RDKit          3D

 26 27  0  0  0  0  0  0  0  0999 V2000
   37.3844   30.1229   51.1048 C   0  0  0  0  0  0  0  0  0  0  0  0
   38.2174   30.8894   50.2580 C   0  0  0  0  0  0  0  0  0  0  0  0
   37.6893   31.4404   49.0930 C   0  0  0  0  0  0  0  0  0  0  0  0
   36.3644   31.2011   48.8320 N   0  0  0  0  0  0  0  0  0  0  0  0
   35.5819   30.4642   49.6551 C   0  0  0  0  0  0  0  0  0  0  0  0
   36.1077   29.9488   50.7604 N   0  0  0  0  0  0  0  0  0  0  0  0
   33.9132   28.8354   49.2004 C   0  0  0  0  0  0  0  0  0  0  0  0
   34.6889   27.8406   49.3207 O   0  0  0  0  0  0  0  0  0  0  0  0
   34.2122   30.2444   49.3400 N   0  0  0  0  0  0  0  0  0  0  0  0
   38.0714   29.6618   52.2006 O   0  0  0  0  0  0  0  0  0  0  0  0
   39.2685   31.1085   50.4170 H   0  0  0  0  0  0  0  0  0  0  0  0
   38.2864   32.0335   48.4142 H   0  0  0  0  0  0  0  0  0  0  0  0
   32.9353   28.4028   48.9611 H   0  0  0  0  0  0  0  0  0  0  0  0
   33.4204   30.8774   49.1973 H   0  0  0  0  0  0  0  0  0  0  0  0
   39.2475   28.6981   54.6798 O   0  0  0  0  0  0  0  0  0  0  0  0
   38.3266   28.1276   54.0380 C   0  0  0  0  0  0  0  0  0  0  0  0
   37.3936   28.8745   53.1583 C   0  0  2  0  0  0  0  0  0  0  0  0
   36.6191   27.7434   52.4942 C   0  0  1  0  0  0  0  0  0  0  0  0
   35.5728   28.0380   52.2898 H   0  0  0  0  0  0  0  0  0  0  0  0
   36.7009   26.6315   53.5060 C   0  0  1  0  0  0  0  0  0  0  0  0
   35.9670   26.7778   54.3178 H   0  0  0  0  0  0  0  0  0  0  0  0
   38.0504   26.7186   54.0602 N   0  0  0  0  0  0  0  0  0  0  0  0
   36.7207   29.4813   53.8016 H   0  0  0  0  0  0  0  0  0  0  0  0
   37.1519   27.4831   51.5698 H   0  0  0  0  0  0  0  0  0  0  0  0
   36.5603   25.6506   52.9804 H   0  0  0  0  0  0  0  0  0  0  0  0
   38.6449   25.9469   54.3832 H   0  0  0  0  0  0  0  0  0  0  0  0
  1 10  1  0
  2  1  2  0
  3  2  1  0
  4  3  2  0
  4  5  1  0
  5  6  2  0
  6  1  1  0
  7  8  2  0
  7  9  1  0
  9  5  1  0
  2 11  1  0
  3 12  1  0
  7 13  1  0
  9 14  1  0
 15 16  2  0
 16 17  1  0
 17 18  1  0
 18 19  1  6
 18 20  1  0
 20 21  1  1
 20 22  1  0
 22 16  1  0
 17 23  1  1
 18 24  1  0
 20 25  1  0
 22 26  1  0
 10 17  1  0
M  ISO  5  11  14  12  14  13   6  19   8  21   8
M  END
>  <DihAtoms>  (1) 
0,9,16,15

>  <DihDeg>  (1) 
-122.2280998040459

$$$$
