REMARK  Name = 
REMARK  6 active torsions:
REMARK  status: ('A' for Active; 'I' for Inactive)
REMARK    1  A    between atoms: C_1  and  C_8
REMARK    2  A    between atoms: N_4  and  C_18
REMARK    3  A    between atoms: C_6  and  O_12
REMARK    4  A    between atoms: O_12  and  C_13
REMARK    5  A    between atoms: C_17  and  O_22
REMARK    6  A    between atoms: O_22  and  C_35
REMARK                            x       y       z     vdW  Elec       q    Type
REMARK                         _______ _______ _______ _____ _____    ______ ____
ROOT
ATOM      1  C   UNL     1      39.927  30.728  41.907  0.00  0.00    +0.000 C 
ATOM      2  C   UNL     1      39.947  31.957  42.785  0.00  0.00    +0.000 C 
ATOM      3  C   UNL     1      38.873  32.757  42.074  0.00  0.00    +0.000 C 
ATOM      4  O   UNL     1      38.966  32.485  40.730  0.00  0.00    +0.000 OA
ATOM      5  C   UNL     1      39.812  31.438  40.545  0.00  0.00    +0.000 C 
ATOM      6  H   UNL     1      40.806  30.095  41.939  0.00  0.00    +0.000 HD
ATOM      7  H   UNL     1      40.882  32.509  42.741  0.00  0.00    +0.000 HD
ATOM      8  H   UNL     1      38.982  33.830  42.257  0.00  0.00    +0.000 HD
ATOM      9  H   UNL     1      37.891  32.358  42.433  0.00  0.00    +0.000 HD
ATOM     10  H   UNL     1      40.829  31.842  40.345  0.00  0.00    +0.000 HD
ATOM     11  H   UNL     1      39.582  30.737  39.741  0.00  0.00    +0.000 HD
ENDROOT
BRANCH   2  15
ATOM     12  C   UNL     1      38.508  31.147  45.969  0.00  0.00    +0.000 A 
ATOM     13  C   UNL     1      39.811  31.204  46.310  0.00  0.00    +0.000 A 
ATOM     14  C   UNL     1      40.466  31.520  45.117  0.00  0.00    +0.000 A 
ATOM     15  N   UNL     1      39.563  31.637  44.134  0.00  0.00    +0.000 N 
ATOM     16  N   UNL     1      38.351  31.410  44.645  0.00  0.00    +0.000 NA
ATOM     17  H   UNL     1      40.216  31.033  47.309  0.00  0.00    +0.000 HD
ATOM     18  H   UNL     1      41.554  31.641  45.052  0.00  0.00    +0.000 HD
BRANCH  12  21
ATOM     19  C   UNL     1      36.436  30.628  49.060  0.00  0.00    +0.000 A 
ATOM     20  C   UNL     1      37.496  30.927  48.239  0.00  0.00    +0.000 A 
ATOM     21  C   UNL     1      37.413  30.843  46.875  0.00  0.00    +0.000 A 
ATOM     22  N   UNL     1      36.208  30.441  46.372  0.00  0.00    +0.000 NA
ATOM     23  C   UNL     1      35.163  30.148  47.199  0.00  0.00    +0.000 A 
ATOM     24  N   UNL     1      35.270  30.237  48.513  0.00  0.00    +0.000 NA
ATOM     25  H   UNL     1      38.481  31.253  48.604  0.00  0.00    +0.000 HD
ATOM     26  H   UNL     1      34.223  29.835  46.814  0.00  0.00    +0.000 HD
BRANCH  19  27
ATOM     27  O   UNL     1      36.719  30.775  50.413  0.00  0.00    +0.000 OA
BRANCH  27  28
ATOM     28  C   UNL     1      36.799  29.703  51.317  0.00  0.00    +0.000 C 
ATOM     29  F   UNL     1      35.542  29.185  51.629  0.00  0.00    +0.000 F 
ATOM     30  F   UNL     1      37.453  30.099  52.440  0.00  0.00    +0.000 F 
ATOM     31  F   UNL     1      37.539  28.683  50.724  0.00  0.00    +0.000 F 
ENDBRANCH  27  28
ENDBRANCH  19  27
ENDBRANCH  12  21
ENDBRANCH   2  15
BRANCH   1  32
ATOM     32  O   UNL     1      38.733  30.045  42.147  0.00  0.00    +0.000 OA
BRANCH  32  35
ATOM     33  O   UNL     1      36.686  27.731  41.166  0.00  0.00    +0.000 OA
ATOM     34  C   UNL     1      37.848  27.935  41.658  0.00  0.00    +0.000 C 
ATOM     35  C   UNL     1      38.946  28.681  42.297  0.00  0.00    +0.000 C 
ATOM     36  C   UNL     1      40.129  28.262  41.427  0.00  0.00    +0.000 C 
ATOM     37  H   UNL     1      41.102  28.463  41.870  0.00  0.00    +0.000 HD
ATOM     38  C   UNL     1      39.967  26.736  41.403  0.00  0.00    +0.000 C 
ATOM     39  H   UNL     1      40.477  26.353  42.292  0.00  0.00    +0.000 HD
ATOM     40  N   UNL     1      38.516  26.653  41.499  0.00  0.00    +0.000 N 
ATOM     41  H   UNL     1      38.322  25.617  41.424  0.00  0.00    +0.000 HD
ENDBRANCH  32  35
ENDBRANCH   1  32
TORSDOF 6
