
 OpenBabel03272503403D

 41 44  0  0  1  0  0  0  0  0999 V2000
   39.7400   31.1830   41.7170 C   0  0  2  0  0  0  0  0  0  0  0  0
   39.6170   32.3150   42.7100 C   0  0  1  0  0  0  0  0  0  0  0  0
   38.4250   33.0220   42.0960 C   0  0  0  0  0  0  0  0  0  0  0  0
   38.5170   32.8930   40.7300 O   0  0  0  0  0  0  0  0  0  0  0  0
   39.4920   31.9950   40.4320 C   0  0  0  0  0  0  0  0  0  0  0  0
   40.6980   30.6770   41.6740 H   0  0  0  0  0  0  0  0  0  0  0  0
   40.4670   32.9930   42.7060 H   0  0  0  0  0  0  0  0  0  0  0  0
   38.3920   34.0780   42.3800 H   0  0  0  0  0  0  0  0  0  0  0  0
   37.5170   32.4590   42.4290 H   0  0  0  0  0  0  0  0  0  0  0  0
   40.4380   32.5530   40.2570 H   0  0  0  0  0  0  0  0  0  0  0  0
   39.3370   31.3480   39.5670 H   0  0  0  0  0  0  0  0  0  0  0  0
   38.3790   31.1620   45.8720 C   0  0  0  0  0  0  0  0  0  0  0  0
   39.7020   30.9870   46.0630 C   0  0  0  0  0  0  0  0  0  0  0  0
   40.2820   31.4160   44.8660 C   0  0  0  0  0  0  0  0  0  0  0  0
   39.3180   31.8190   44.0270 N   0  0  0  0  0  0  0  0  0  0  0  0
   38.1390   31.6690   44.6340 N   0  0  0  0  0  0  0  0  0  0  0  0
   40.1690   30.5940   46.9670 H   0  0  0  0  0  0  0  0  0  0  0  0
   41.3650   31.4020   44.6930 H   0  0  0  0  0  0  0  0  0  0  0  0
   36.4970   30.6290   49.0800 C   0  0  0  0  0  0  0  0  0  0  0  0
   37.5050   30.9330   48.1980 C   0  0  0  0  0  0  0  0  0  0  0  0
   37.3410   30.8520   46.8410 C   0  0  0  0  0  0  0  0  0  0  0  0
   36.1090   30.4480   46.4100 N   0  0  0  0  0  0  0  0  0  0  0  0
   35.1160   30.1500   47.2970 C   0  0  0  0  0  0  0  0  0  0  0  0
   35.3010   30.2360   48.6020 N   0  0  0  0  0  0  0  0  0  0  0  0
   38.5090   31.2610   48.5050 H   0  0  0  0  0  0  0  0  0  0  0  0
   34.1560   29.8360   46.9680 H   0  0  0  0  0  0  0  0  0  0  0  0
   36.8600   30.7720   50.4140 O   0  0  0  0  0  0  0  0  0  0  0  0
   36.9080   29.7100   51.3310 C   0  0  0  0  0  0  0  0  0  0  0  0
   35.6360   29.2400   51.6570 F   0  0  0  0  0  0  0  0  0  0  0  0
   37.5830   30.0970   52.4450 F   0  0  0  0  0  0  0  0  0  0  0  0
   37.6080   28.6570   50.7470 F   0  0  0  0  0  0  0  0  0  0  0  0
   38.6580   30.3220   41.9070 O   0  0  0  0  0  0  0  0  0  0  0  0
   41.6860   29.2200   42.2460 O   0  0  0  0  0  0  0  0  0  0  0  0
   40.4720   28.8560   42.0890 C   0  0  0  0  0  0  0  0  0  0  0  0
   39.0360   28.9920   41.7850 C   0  0  1  0  0  3  0  0  0  0  0  0
   38.4200   28.1900   42.9300 C   0  0  0  0  0  3  0  0  0  0  0  0
   37.3820   27.9090   42.7680 H   0  0  0  0  0  0  0  0  0  0  0  0
   39.2380   26.8920   42.8710 C   0  0  0  0  0  3  0  0  0  0  0  0
   38.7430   26.2440   42.1420 H   0  0  0  0  0  0  0  0  0  0  0  0
   40.5010   27.4330   42.3870 N   0  0  0  0  0  0  0  0  0  0  0  0
   41.1430   26.5940   42.3820 H   0  0  0  0  0  0  0  0  0  0  0  0
  1  6  1  1  0  0  0
  1 32  1  0  0  0  0
  1  2  1  0  0  0  0
  2  7  1  1  0  0  0
  2 15  1  0  0  0  0
  3  8  1  0  0  0  0
  3  9  1  0  0  0  0
  3  2  1  0  0  0  0
  4  3  1  0  0  0  0
  5  4  1  0  0  0  0
  5  1  1  0  0  0  0
 10  5  1  0  0  0  0
 11  5  1  0  0  0  0
 12 13  1  0  0  0  0
 12 21  1  0  0  0  0
 13 17  1  0  0  0  0
 14 13  2  0  0  0  0
 15 16  1  0  0  0  0
 15 14  1  0  0  0  0
 16 12  2  0  0  0  0
 18 14  1  0  0  0  0
 19 27  1  0  0  0  0
 20 25  1  0  0  0  0
 20 19  2  0  0  0  0
 21 20  1  0  0  0  0
 22 21  2  0  0  0  0
 22 23  1  0  0  0  0
 23 24  2  0  0  0  0
 24 19  1  0  0  0  0
 26 23  1  0  0  0  0
 27 28  1  0  0  0  0
 28 29  1  0  0  0  0
 28 30  1  0  0  0  0
 31 28  1  0  0  0  0
 34 33  2  0  0  0  0
 34 40  1  0  0  0  0
 35 32  1  1  0  0  0
 35 34  1  0  0  0  0
 35 36  1  0  0  0  0
 37 36  1  0  0  0  0
 38 36  1  0  0  0  0
 39 38  1  0  0  0  0
 40 38  1  0  0  0  0
 41 40  1  0  0  0  0
M  END
>  <minimizedAffinity>
-6.6806159

>  <minimizedRMSD>
0.436039358

$$$$
