
 OpenBabel03272503403D

 41 44  0  0  1  0  0  0  0  0999 V2000
   39.5710   31.0840   41.7770 C   0  0  2  0  0  0  0  0  0  0  0  0
   39.7400   32.2140   42.7650 C   0  0  1  0  0  0  0  0  0  0  0  0
   38.6920   33.1570   42.2080 C   0  0  0  0  0  0  0  0  0  0  0  0
   38.6820   33.0150   40.8410 O   0  0  0  0  0  0  0  0  0  0  0  0
   39.4310   31.9330   40.5000 C   0  0  0  0  0  0  0  0  0  0  0  0
   40.3980   30.3890   41.6890 H   0  0  0  0  0  0  0  0  0  0  0  0
   40.7120   32.6980   42.7110 H   0  0  0  0  0  0  0  0  0  0  0  0
   38.8960   34.1950   42.4850 H   0  0  0  0  0  0  0  0  0  0  0  0
   37.7050   32.7960   42.5920 H   0  0  0  0  0  0  0  0  0  0  0  0
   40.4630   32.2810   40.2710 H   0  0  0  0  0  0  0  0  0  0  0  0
   39.0990   31.3350   39.6500 H   0  0  0  0  0  0  0  0  0  0  0  0
   38.4360   31.1970   45.9470 C   0  0  0  0  0  0  0  0  0  0  0  0
   39.7580   31.1190   46.2020 C   0  0  0  0  0  0  0  0  0  0  0  0
   40.3630   31.5040   45.0030 C   0  0  0  0  0  0  0  0  0  0  0  0
   39.4140   31.7890   44.1000 N   0  0  0  0  0  0  0  0  0  0  0  0
   38.2210   31.6040   44.6690 N   0  0  0  0  0  0  0  0  0  0  0  0
   40.2070   30.8170   47.1500 H   0  0  0  0  0  0  0  0  0  0  0  0
   41.4510   31.5480   44.8750 H   0  0  0  0  0  0  0  0  0  0  0  0
   36.4860   30.6540   49.1130 C   0  0  0  0  0  0  0  0  0  0  0  0
   37.5130   30.9580   48.2530 C   0  0  0  0  0  0  0  0  0  0  0  0
   37.3770   30.8860   46.8930 C   0  0  0  0  0  0  0  0  0  0  0  0
   36.1520   30.4910   46.4340 N   0  0  0  0  0  0  0  0  0  0  0  0
   35.1400   30.1920   47.2990 C   0  0  0  0  0  0  0  0  0  0  0  0
   35.2990   30.2690   48.6080 N   0  0  0  0  0  0  0  0  0  0  0  0
   38.5130   31.2790   48.5820 H   0  0  0  0  0  0  0  0  0  0  0  0
   34.1850   29.8840   46.9480 H   0  0  0  0  0  0  0  0  0  0  0  0
   36.8220   30.7880   50.4550 O   0  0  0  0  0  0  0  0  0  0  0  0
   36.8740   29.7160   51.3600 C   0  0  0  0  0  0  0  0  0  0  0  0
   35.6040   29.2210   51.6610 F   0  0  0  0  0  0  0  0  0  0  0  0
   37.5250   30.1010   52.4890 F   0  0  0  0  0  0  0  0  0  0  0  0
   37.6000   28.6820   50.7750 F   0  0  0  0  0  0  0  0  0  0  0  0
   38.3440   30.4680   42.0310 O   0  0  0  0  0  0  0  0  0  0  0  0
   38.1220   28.5580   39.4220 O   0  0  0  0  0  0  0  0  0  0  0  0
   38.3920   28.5640   40.6720 C   0  0  0  0  0  0  0  0  0  0  0  0
   38.4600   29.0850   42.0480 C   0  0  1  0  0  3  0  0  0  0  0  0
   39.8900   28.7090   42.4310 C   0  0  0  0  0  3  0  0  0  0  0  0
   40.0870   28.7390   43.5000 H   0  0  0  0  0  0  0  0  0  0  0  0
   39.9390   27.2310   42.0190 C   0  0  0  0  0  3  0  0  0  0  0  0
   39.5540   26.6570   42.8680 H   0  0  0  0  0  0  0  0  0  0  0  0
   39.0170   27.2700   40.8930 N   0  0  0  0  0  0  0  0  0  0  0  0
   39.0490   26.2850   40.5120 H   0  0  0  0  0  0  0  0  0  0  0  0
  1  6  1  6  0  0  0
  1 32  1  0  0  0  0
  1  2  1  0  0  0  0
  2  7  1  6  0  0  0
  2 15  1  0  0  0  0
  3  8  1  0  0  0  0
  3  9  1  0  0  0  0
  3  2  1  0  0  0  0
  4  3  1  0  0  0  0
  5  4  1  0  0  0  0
  5  1  1  0  0  0  0
 10  5  1  0  0  0  0
 11  5  1  0  0  0  0
 12 13  1  0  0  0  0
 12 21  1  0  0  0  0
 13 17  1  0  0  0  0
 14 13  2  0  0  0  0
 15 16  1  0  0  0  0
 15 14  1  0  0  0  0
 16 12  2  0  0  0  0
 18 14  1  0  0  0  0
 19 27  1  0  0  0  0
 20 25  1  0  0  0  0
 20 19  2  0  0  0  0
 21 20  1  0  0  0  0
 22 21  2  0  0  0  0
 22 23  1  0  0  0  0
 23 24  2  0  0  0  0
 24 19  1  0  0  0  0
 26 23  1  0  0  0  0
 27 28  1  0  0  0  0
 28 29  1  0  0  0  0
 28 30  1  0  0  0  0
 31 28  1  0  0  0  0
 33 34  2  0  0  0  0
 34 40  1  0  0  0  0
 34 35  1  0  0  0  0
 35 32  1  6  0  0  0
 35 36  1  0  0  0  0
 36 37  1  0  0  0  0
 38 36  1  0  0  0  0
 38 39  1  0  0  0  0
 40 38  1  0  0  0  0
 41 40  1  0  0  0  0
M  END
>  <minimizedAffinity>
-6.05024958

>  <minimizedRMSD>
0.546546161

$$$$
