
 OpenBabel03272504563D

 33 35  0  0  1  0  0  0  0  0999 V2000
   37.0360   31.5600   48.6340 C   0  0  1  0  0  0  0  0  0  0  0  0
   36.3160   30.8560   47.5980 C   0  0  0  0  0  0  0  0  0  0  0  0
   37.2580   30.1240   48.4940 C   0  0  2  0  0  0  0  0  0  0  0  0
   36.5540   31.8540   49.6300 H   0  0  0  0  0  0  0  0  0  0  0  0
   35.2800   31.1030   47.7000 H   0  0  0  0  0  0  0  0  0  0  0  0
   36.6730   31.0110   46.5580 H   0  0  0  0  0  0  0  0  0  0  0  0
   38.0130   29.6140   47.9320 H   0  0  0  0  0  0  0  0  0  0  0  0
   38.1830   32.4670   48.2950 C   0  0  0  0  0  0  0  0  0  0  0  0
   38.5400   33.4100   49.2870 C   0  0  0  0  0  0  0  0  0  0  0  0
   39.5940   34.2230   48.9440 C   0  0  0  0  0  0  0  0  0  0  0  0
   40.2110   34.0860   47.7250 N   0  0  0  0  0  0  0  0  0  0  0  0
   39.8320   33.1710   46.8150 C   0  0  0  0  0  0  0  0  0  0  0  0
   38.7830   32.3420   47.1220 N   0  0  0  0  0  0  0  0  0  0  0  0
   40.4590   33.0260   45.5700 N   0  0  0  0  0  0  0  0  0  0  0  0
   38.0550   33.5150   50.2410 H   0  0  0  0  0  0  0  0  0  0  0  0
   39.9460   34.9780   49.6320 H   0  0  0  0  0  0  0  0  0  0  0  0
   40.2490   32.2430   44.9420 H   0  0  0  0  0  0  0  0  0  0  0  0
   41.1640   33.7210   45.2450 H   0  0  0  0  0  0  0  0  0  0  0  0
   36.6560   29.3230   49.4730 O   0  0  0  0  0  0  0  0  0  0  0  0
   34.6330   27.7610   49.8090 O   0  0  0  0  0  0  0  0  0  0  0  0
   35.0800   28.9720   49.0560 P   0  0  1  0  0  0  0  0  0  0  0  0
   34.0500   30.2520   49.6080 O   0  0  0  0  0  0  0  0  0  0  0  0
   34.1170   30.1840   50.5930 H   0  0  0  0  0  0  0  0  0  0  0  0
   34.9700   28.8190   47.3890 O   0  0  0  0  0  0  0  0  0  0  0  0
   32.7230   30.4350   46.2510 O   0  0  0  0  0  0  0  0  0  0  0  0
   32.7960   29.2880   46.7630 C   0  0  0  0  0  0  0  0  0  0  0  0
   33.8250   28.2280   46.9300 C   0  0  2  0  0  0  0  0  0  0  0  0
   33.2410   27.3740   48.0490 C   0  0  0  0  0  0  0  0  0  0  0  0
   33.4590   27.7780   49.0450 H   0  0  0  0  0  0  0  0  0  0  0  0
   31.7580   27.4170   47.7040 C   0  0  0  0  0  0  0  0  0  0  0  0
   31.1700   27.0890   48.5620 H   0  0  0  0  0  0  0  0  0  0  0  0
   31.5900   28.8180   47.3670 N   0  0  0  0  0  0  0  0  0  0  0  0
   30.6640   29.2740   47.5980 H   0  0  0  0  0  0  0  0  0  0  0  0
  1  4  1  1  0  0  0
  2  5  1  0  0  0  0
  2  3  1  0  0  0  0
  2  1  1  0  0  0  0
  3  7  1  6  0  0  0
  3  1  1  0  0  0  0
  3 19  1  0  0  0  0
  6  2  1  0  0  0  0
  8  1  1  0  0  0  0
  8  9  1  0  0  0  0
  9 15  1  0  0  0  0
 10  9  2  0  0  0  0
 10 16  1  0  0  0  0
 11 10  1  0  0  0  0
 12 13  1  0  0  0  0
 12 11  2  0  0  0  0
 13  8  2  0  0  0  0
 14 12  1  0  0  0  0
 17 14  1  0  0  0  0
 18 14  1  0  0  0  0
 21 19  1  0  0  0  0
 21 22  1  0  0  0  0
 21 20  2  1  0  0  0
 22 23  1  0  0  0  0
 24 21  1  0  0  0  0
 25 26  2  0  0  0  0
 26 27  1  0  0  0  0
 26 32  1  0  0  0  0
 27 24  1  1  0  0  0
 27 28  1  0  0  0  0
 28 29  1  0  0  0  0
 30 28  1  0  0  0  0
 30 31  1  0  0  0  0
 32 33  1  0  0  0  0
 32 30  1  0  0  0  0
M  END
>  <minimizedAffinity>
-5.14579535

>  <minimizedRMSD>
1.50403035

$$$$
