
 OpenBabel03272504563D

 33 35  0  0  1  0  0  0  0  0999 V2000
   36.9530   31.4890   48.7140 C   0  0  1  0  0  0  0  0  0  0  0  0
   36.1570   30.8830   47.6730 C   0  0  0  0  0  0  0  0  0  0  0  0
   37.1320   30.0640   48.4500 C   0  0  2  0  0  0  0  0  0  0  0  0
   36.5380   31.7130   49.7570 H   0  0  0  0  0  0  0  0  0  0  0  0
   35.1340   31.1400   47.8560 H   0  0  0  0  0  0  0  0  0  0  0  0
   36.4550   31.1120   46.6280 H   0  0  0  0  0  0  0  0  0  0  0  0
   37.8410   29.5860   47.8060 H   0  0  0  0  0  0  0  0  0  0  0  0
   38.0990   32.3980   48.3770 C   0  0  0  0  0  0  0  0  0  0  0  0
   38.4540   33.3400   49.3700 C   0  0  0  0  0  0  0  0  0  0  0  0
   39.5070   34.1540   49.0290 C   0  0  0  0  0  0  0  0  0  0  0  0
   40.1270   34.0190   47.8110 N   0  0  0  0  0  0  0  0  0  0  0  0
   39.7500   33.1040   46.9000 C   0  0  0  0  0  0  0  0  0  0  0  0
   38.7020   32.2730   47.2050 N   0  0  0  0  0  0  0  0  0  0  0  0
   40.3790   32.9610   45.6560 N   0  0  0  0  0  0  0  0  0  0  0  0
   37.9670   33.4440   50.3240 H   0  0  0  0  0  0  0  0  0  0  0  0
   39.8570   34.9100   49.7180 H   0  0  0  0  0  0  0  0  0  0  0  0
   40.1720   32.1780   45.0280 H   0  0  0  0  0  0  0  0  0  0  0  0
   41.0840   33.6570   45.3330 H   0  0  0  0  0  0  0  0  0  0  0  0
   36.5690   29.2000   49.3990 O   0  0  0  0  0  0  0  0  0  0  0  0
   34.5830   27.5690   49.5910 O   0  0  0  0  0  0  0  0  0  0  0  0
   34.9660   28.9080   49.0490 P   0  0  1  0  0  0  0  0  0  0  0  0
   33.9820   30.0440   49.9130 O   0  0  0  0  0  0  0  0  0  0  0  0
   34.1290   29.7920   50.8590 H   0  0  0  0  0  0  0  0  0  0  0  0
   34.7210   29.0720   47.3970 O   0  0  0  0  0  0  0  0  0  0  0  0
   34.8570   28.4170   44.4800 O   0  0  0  0  0  0  0  0  0  0  0  0
   33.9620   28.3010   45.3570 C   0  0  0  0  0  0  0  0  0  0  0  0
   33.8900   28.1440   46.8330 C   0  0  2  0  0  3  0  0  0  0  0  0
   32.4490   28.5400   47.1390 C   0  0  0  0  0  3  0  0  0  0  0  0
   32.3190   29.6250   47.2210 H   0  0  0  0  0  0  0  0  0  0  0  0
   31.7260   27.9470   45.9360 C   0  0  0  0  0  3  0  0  0  0  0  0
   30.7270   28.3810   45.8560 H   0  0  0  0  0  0  0  0  0  0  0  0
   32.6230   28.3170   44.8580 N   0  0  0  0  0  0  0  0  0  0  0  0
   32.1980   28.5330   43.9140 H   0  0  0  0  0  0  0  0  0  0  0  0
  1  4  1  1  0  0  0
  2  5  1  0  0  0  0
  2  3  1  0  0  0  0
  2  1  1  0  0  0  0
  3  7  1  6  0  0  0
  3  1  1  0  0  0  0
  3 19  1  0  0  0  0
  6  2  1  0  0  0  0
  8  1  1  0  0  0  0
  8  9  1  0  0  0  0
  9 15  1  0  0  0  0
 10  9  2  0  0  0  0
 10 16  1  0  0  0  0
 11 10  1  0  0  0  0
 12 13  1  0  0  0  0
 12 11  2  0  0  0  0
 13  8  2  0  0  0  0
 14 12  1  0  0  0  0
 17 14  1  0  0  0  0
 18 14  1  0  0  0  0
 21 19  1  0  0  0  0
 21 20  2  1  0  0  0
 21 22  1  0  0  0  0
 22 23  1  0  0  0  0
 24 21  1  0  0  0  0
 25 26  2  0  0  0  0
 26 27  1  0  0  0  0
 27 28  1  0  0  0  0
 27 24  1  1  0  0  0
 28 29  1  0  0  0  0
 30 28  1  0  0  0  0
 31 30  1  0  0  0  0
 32 26  1  0  0  0  0
 32 30  1  0  0  0  0
 33 32  1  0  0  0  0
M  END
>  <minimizedAffinity>
-4.61519623

>  <minimizedRMSD>
0.949944377

$$$$
