
 OpenBabel03272504563D

 33 35  0  0  1  0  0  0  0  0999 V2000
   36.9510   31.4870   48.7160 C   0  0  1  0  0  0  0  0  0  0  0  0
   36.1550   30.8820   47.6740 C   0  0  0  0  0  0  0  0  0  0  0  0
   37.1310   30.0630   48.4510 C   0  0  2  0  0  0  0  0  0  0  0  0
   36.5360   31.7110   49.7590 H   0  0  0  0  0  0  0  0  0  0  0  0
   35.1320   31.1390   47.8570 H   0  0  0  0  0  0  0  0  0  0  0  0
   36.4530   31.1110   46.6300 H   0  0  0  0  0  0  0  0  0  0  0  0
   37.8390   29.5850   47.8070 H   0  0  0  0  0  0  0  0  0  0  0  0
   38.0970   32.3970   48.3790 C   0  0  0  0  0  0  0  0  0  0  0  0
   38.4510   33.3390   49.3720 C   0  0  0  0  0  0  0  0  0  0  0  0
   39.5050   34.1540   49.0320 C   0  0  0  0  0  0  0  0  0  0  0  0
   40.1240   34.0180   47.8140 N   0  0  0  0  0  0  0  0  0  0  0  0
   39.7480   33.1030   46.9030 C   0  0  0  0  0  0  0  0  0  0  0  0
   38.7000   32.2720   47.2080 N   0  0  0  0  0  0  0  0  0  0  0  0
   40.3780   32.9600   45.6590 N   0  0  0  0  0  0  0  0  0  0  0  0
   37.9640   33.4430   50.3260 H   0  0  0  0  0  0  0  0  0  0  0  0
   39.8540   34.9100   49.7210 H   0  0  0  0  0  0  0  0  0  0  0  0
   40.1700   32.1770   45.0300 H   0  0  0  0  0  0  0  0  0  0  0  0
   41.0830   33.6560   45.3360 H   0  0  0  0  0  0  0  0  0  0  0  0
   36.5680   29.1980   49.4000 O   0  0  0  0  0  0  0  0  0  0  0  0
   34.5820   27.5660   49.5900 O   0  0  0  0  0  0  0  0  0  0  0  0
   34.9640   28.9070   49.0500 P   0  0  1  0  0  0  0  0  0  0  0  0
   33.9800   30.0400   49.9160 O   0  0  0  0  0  0  0  0  0  0  0  0
   34.1270   29.7870   50.8620 H   0  0  0  0  0  0  0  0  0  0  0  0
   34.7190   29.0730   47.3990 O   0  0  0  0  0  0  0  0  0  0  0  0
   34.8570   28.4220   44.4820 O   0  0  0  0  0  0  0  0  0  0  0  0
   33.9620   28.3040   45.3570 C   0  0  0  0  0  0  0  0  0  0  0  0
   33.8890   28.1450   46.8330 C   0  0  2  0  0  3  0  0  0  0  0  0
   32.4480   28.5390   47.1370 C   0  0  0  0  0  3  0  0  0  0  0  0
   32.3160   29.6240   47.2220 H   0  0  0  0  0  0  0  0  0  0  0  0
   31.7260   27.9470   45.9340 C   0  0  0  0  0  3  0  0  0  0  0  0
   30.7260   28.3800   45.8540 H   0  0  0  0  0  0  0  0  0  0  0  0
   32.6230   28.3180   44.8570 N   0  0  0  0  0  0  0  0  0  0  0  0
   32.1990   28.5360   43.9130 H   0  0  0  0  0  0  0  0  0  0  0  0
  1  4  1  1  0  0  0
  2  5  1  0  0  0  0
  2  3  1  0  0  0  0
  2  1  1  0  0  0  0
  3  7  1  6  0  0  0
  3  1  1  0  0  0  0
  3 19  1  0  0  0  0
  6  2  1  0  0  0  0
  8  1  1  0  0  0  0
  8  9  1  0  0  0  0
  9 15  1  0  0  0  0
 10  9  2  0  0  0  0
 10 16  1  0  0  0  0
 11 10  1  0  0  0  0
 12 13  1  0  0  0  0
 12 11  2  0  0  0  0
 13  8  2  0  0  0  0
 14 12  1  0  0  0  0
 17 14  1  0  0  0  0
 18 14  1  0  0  0  0
 21 19  1  0  0  0  0
 21 20  2  1  0  0  0
 21 22  1  0  0  0  0
 22 23  1  0  0  0  0
 24 21  1  0  0  0  0
 25 26  2  0  0  0  0
 26 27  1  0  0  0  0
 27 28  1  0  0  0  0
 27 24  1  1  0  0  0
 28 29  1  0  0  0  0
 30 28  1  0  0  0  0
 31 30  1  0  0  0  0
 32 26  1  0  0  0  0
 32 30  1  0  0  0  0
 33 32  1  0  0  0  0
M  END
>  <minimizedAffinity>
-4.61295605

>  <minimizedRMSD>
1.13663101

$$$$
