
 OpenBabel03272504563D

 33 35  0  0  1  0  0  0  0  0999 V2000
   36.9400   31.4810   48.7120 C   0  0  1  0  0  0  0  0  0  0  0  0
   36.1450   30.8800   47.6670 C   0  0  0  0  0  0  0  0  0  0  0  0
   37.1190   30.0570   48.4420 C   0  0  2  0  0  0  0  0  0  0  0  0
   36.5230   31.7010   49.7550 H   0  0  0  0  0  0  0  0  0  0  0  0
   35.1230   31.1370   47.8490 H   0  0  0  0  0  0  0  0  0  0  0  0
   36.4460   31.1120   46.6230 H   0  0  0  0  0  0  0  0  0  0  0  0
   37.8280   29.5810   47.7980 H   0  0  0  0  0  0  0  0  0  0  0  0
   38.0880   32.3910   48.3800 C   0  0  0  0  0  0  0  0  0  0  0  0
   38.4380   33.3320   49.3750 C   0  0  0  0  0  0  0  0  0  0  0  0
   39.4930   34.1470   49.0390 C   0  0  0  0  0  0  0  0  0  0  0  0
   40.1170   34.0130   47.8230 N   0  0  0  0  0  0  0  0  0  0  0  0
   39.7430   33.0990   46.9090 C   0  0  0  0  0  0  0  0  0  0  0  0
   38.6940   32.2680   47.2100 N   0  0  0  0  0  0  0  0  0  0  0  0
   40.3770   32.9570   45.6680 N   0  0  0  0  0  0  0  0  0  0  0  0
   37.9480   33.4350   50.3270 H   0  0  0  0  0  0  0  0  0  0  0  0
   39.8400   34.9020   49.7300 H   0  0  0  0  0  0  0  0  0  0  0  0
   40.1720   32.1750   45.0370 H   0  0  0  0  0  0  0  0  0  0  0  0
   41.0830   33.6540   45.3480 H   0  0  0  0  0  0  0  0  0  0  0  0
   36.5540   29.1900   49.3870 O   0  0  0  0  0  0  0  0  0  0  0  0
   34.5670   27.5590   49.5710 O   0  0  0  0  0  0  0  0  0  0  0  0
   34.9520   28.9000   49.0330 P   0  0  1  0  0  0  0  0  0  0  0  0
   33.9660   30.0340   49.8970 O   0  0  0  0  0  0  0  0  0  0  0  0
   34.1100   29.7800   50.8430 H   0  0  0  0  0  0  0  0  0  0  0  0
   34.7110   29.0670   47.3810 O   0  0  0  0  0  0  0  0  0  0  0  0
   34.8700   28.4010   44.4670 O   0  0  0  0  0  0  0  0  0  0  0  0
   33.9670   28.2910   45.3370 C   0  0  0  0  0  0  0  0  0  0  0  0
   33.8810   28.1390   46.8130 C   0  0  2  0  0  3  0  0  0  0  0  0
   32.4390   28.5410   47.1050 C   0  0  0  0  0  3  0  0  0  0  0  0
   32.3130   29.6270   47.1820 H   0  0  0  0  0  0  0  0  0  0  0  0
   31.7240   27.9460   45.8970 C   0  0  0  0  0  3  0  0  0  0  0  0
   30.7270   28.3820   45.8080 H   0  0  0  0  0  0  0  0  0  0  0  0
   32.6320   28.3090   44.8270 N   0  0  0  0  0  0  0  0  0  0  0  0
   32.2170   28.5230   43.8780 H   0  0  0  0  0  0  0  0  0  0  0  0
  1  4  1  1  0  0  0
  2  5  1  0  0  0  0
  2  3  1  0  0  0  0
  2  1  1  0  0  0  0
  3  7  1  6  0  0  0
  3  1  1  0  0  0  0
  3 19  1  0  0  0  0
  6  2  1  0  0  0  0
  8  1  1  0  0  0  0
  8  9  1  0  0  0  0
  9 15  1  0  0  0  0
 10  9  2  0  0  0  0
 10 16  1  0  0  0  0
 11 10  1  0  0  0  0
 12 13  1  0  0  0  0
 12 11  2  0  0  0  0
 13  8  2  0  0  0  0
 14 12  1  0  0  0  0
 17 14  1  0  0  0  0
 18 14  1  0  0  0  0
 21 19  1  0  0  0  0
 21 20  2  1  0  0  0
 21 22  1  0  0  0  0
 22 23  1  0  0  0  0
 24 21  1  0  0  0  0
 25 26  2  0  0  0  0
 26 27  1  0  0  0  0
 27 28  1  0  0  0  0
 27 24  1  1  0  0  0
 28 29  1  0  0  0  0
 30 28  1  0  0  0  0
 31 30  1  0  0  0  0
 32 26  1  0  0  0  0
 32 30  1  0  0  0  0
 33 32  1  0  0  0  0
M  END
>  <minimizedAffinity>
-4.60922527

>  <minimizedRMSD>
1.16150546

$$$$
