
 OpenBabel03272504563D

 33 35  0  0  1  0  0  0  0  0999 V2000
   36.9230   31.4710   48.6980 C   0  0  1  0  0  0  0  0  0  0  0  0
   36.1360   30.8730   47.6450 C   0  0  0  0  0  0  0  0  0  0  0  0
   37.1040   30.0480   48.4250 C   0  0  2  0  0  0  0  0  0  0  0  0
   36.4980   31.6880   49.7390 H   0  0  0  0  0  0  0  0  0  0  0  0
   35.1120   31.1300   47.8200 H   0  0  0  0  0  0  0  0  0  0  0  0
   36.4440   31.1100   46.6040 H   0  0  0  0  0  0  0  0  0  0  0  0
   37.8180   29.5740   47.7840 H   0  0  0  0  0  0  0  0  0  0  0  0
   38.0720   32.3820   48.3780 C   0  0  0  0  0  0  0  0  0  0  0  0
   38.4170   33.3180   49.3800 C   0  0  0  0  0  0  0  0  0  0  0  0
   39.4740   34.1340   49.0550 C   0  0  0  0  0  0  0  0  0  0  0  0
   40.1050   34.0070   47.8420 N   0  0  0  0  0  0  0  0  0  0  0  0
   39.7380   33.0970   46.9220 C   0  0  0  0  0  0  0  0  0  0  0  0
   38.6860   32.2650   47.2110 N   0  0  0  0  0  0  0  0  0  0  0  0
   40.3790   32.9620   45.6830 N   0  0  0  0  0  0  0  0  0  0  0  0
   37.9210   33.4160   50.3300 H   0  0  0  0  0  0  0  0  0  0  0  0
   39.8170   34.8860   49.7520 H   0  0  0  0  0  0  0  0  0  0  0  0
   40.1780   32.1830   45.0480 H   0  0  0  0  0  0  0  0  0  0  0  0
   41.0880   33.6600   45.3710 H   0  0  0  0  0  0  0  0  0  0  0  0
   36.5320   29.1780   49.3620 O   0  0  0  0  0  0  0  0  0  0  0  0
   34.5400   27.5500   49.5280 O   0  0  0  0  0  0  0  0  0  0  0  0
   34.9310   28.8910   48.9960 P   0  0  1  0  0  0  0  0  0  0  0  0
   33.9420   30.0240   49.8580 O   0  0  0  0  0  0  0  0  0  0  0  0
   34.0790   29.7660   50.8040 H   0  0  0  0  0  0  0  0  0  0  0  0
   34.7010   29.0640   47.3440 O   0  0  0  0  0  0  0  0  0  0  0  0
   34.8970   28.3680   44.4400 O   0  0  0  0  0  0  0  0  0  0  0  0
   33.9770   28.2840   45.2940 C   0  0  0  0  0  0  0  0  0  0  0  0
   33.8630   28.1480   46.7690 C   0  0  2  0  0  3  0  0  0  0  0  0
   32.4250   28.5810   47.0320 C   0  0  0  0  0  3  0  0  0  0  0  0
   32.3180   29.6700   47.0970 H   0  0  0  0  0  0  0  0  0  0  0  0
   31.7190   27.9890   45.8180 C   0  0  0  0  0  3  0  0  0  0  0  0
   30.7330   28.4450   45.7080 H   0  0  0  0  0  0  0  0  0  0  0  0
   32.6520   28.3240   44.7600 N   0  0  0  0  0  0  0  0  0  0  0  0
   32.2580   28.5380   43.8020 H   0  0  0  0  0  0  0  0  0  0  0  0
  1  4  1  1  0  0  0
  2  5  1  0  0  0  0
  2  3  1  0  0  0  0
  2  1  1  0  0  0  0
  3  7  1  6  0  0  0
  3  1  1  0  0  0  0
  3 19  1  0  0  0  0
  6  2  1  0  0  0  0
  8  1  1  0  0  0  0
  8  9  1  0  0  0  0
  9 15  1  0  0  0  0
 10  9  2  0  0  0  0
 10 16  1  0  0  0  0
 11 10  1  0  0  0  0
 12 13  1  0  0  0  0
 12 11  2  0  0  0  0
 13  8  2  0  0  0  0
 14 12  1  0  0  0  0
 17 14  1  0  0  0  0
 18 14  1  0  0  0  0
 21 19  1  0  0  0  0
 21 20  2  1  0  0  0
 21 22  1  0  0  0  0
 22 23  1  0  0  0  0
 24 21  1  0  0  0  0
 25 26  2  0  0  0  0
 26 27  1  0  0  0  0
 27 28  1  0  0  0  0
 27 24  1  1  0  0  0
 28 29  1  0  0  0  0
 30 28  1  0  0  0  0
 31 30  1  0  0  0  0
 32 26  1  0  0  0  0
 32 30  1  0  0  0  0
 33 32  1  0  0  0  0
M  END
>  <minimizedAffinity>
-4.59081554

>  <minimizedRMSD>
0.96499747

$$$$
