
     RDKit          3D

 36 38  0  0  0  0  0  0  0  0999 V2000
   36.9926   31.5621   48.6689 C   0  0  1  0  0  0  0  0  0  0  0  0
   36.2384   30.9004   47.6306 C   0  0  0  0  0  0  0  0  0  0  0  0
   37.1831   30.1257   48.4876 C   0  0  2  0  0  0  0  0  0  0  0  0
   38.1515   32.4553   48.3293 C   0  0  0  0  0  0  0  0  0  0  0  0
   38.5456   33.3659   49.3364 C   0  0  0  0  0  0  0  0  0  0  0  0
   39.6094   34.1665   48.9917 C   0  0  0  0  0  0  0  0  0  0  0  0
   40.1996   34.0465   47.7577 N   0  0  0  0  0  0  0  0  0  0  0  0
   39.7852   33.1624   46.8342 C   0  0  0  0  0  0  0  0  0  0  0  0
   38.7256   32.3457   47.1418 N   0  0  0  0  0  0  0  0  0  0  0  0
   40.3845   33.0346   45.5736 N   0  0  0  0  0  0  0  0  0  0  0  0
   36.5835   29.3123   49.4595 O   0  0  0  0  0  0  0  0  0  0  0  0
   34.6064   27.6761   49.6942 O   0  0  0  0  0  0  0  0  0  0  0  0
   35.0115   28.9562   49.0368 P   0  0  1  0  0  0  0  0  0  0  0  0
   33.9591   30.1595   49.7066 O   0  0  0  0  0  0  0  0  0  0  0  0
   34.8771   28.9378   47.3651 O   0  0  0  0  0  0  0  0  0  0  0  0
   36.5371   31.8396   49.6821 H   0  0  0  0  0  0  0  0  0  0  0  0
   35.2093   31.1641   47.7604 H   0  0  0  0  0  0  0  0  0  0  0  0
   36.5768   31.0741   46.5876 H   0  0  0  0  0  0  0  0  0  0  0  0
   37.9157   29.6163   47.8984 H   0  0  0  0  0  0  0  0  0  0  0  0
   38.0812   33.4572   50.3020 H   0  0  0  0  0  0  0  0  0  0  0  0
   39.9895   34.8975   49.6910 H   0  0  0  0  0  0  0  0  0  0  0  0
   40.1481   32.2722   44.9322 H   0  0  0  0  0  0  0  0  0  0  0  0
   41.0978   33.7240   45.2516 H   0  0  0  0  0  0  0  0  0  0  0  0
   34.0445   30.0127   50.6819 H   0  0  0  0  0  0  0  0  0  0  0  0
   36.2783   28.5712   44.7463 O   0  0  0  0  0  0  0  0  0  0  0  0
   35.4121   27.9048   45.3696 C   0  0  0  0  0  0  0  0  0  0  0  0
   34.9915   27.7064   46.7813 C   0  0  2  0  0  0  0  0  0  0  0  0
   33.5949   27.1135   46.6308 C   0  0  2  0  0  0  0  0  0  0  0  0
   32.8256   27.8800   46.4822 H   0  0  0  0  0  0  0  0  0  0  0  0
   33.7887   26.2242   45.4085 C   0  0  2  0  0  0  0  0  0  0  0  0
   32.8158   25.9438   44.9992 H   0  0  0  0  0  0  0  0  0  0  0  0
   34.5682   27.0946   44.5493 N   0  0  0  0  0  0  0  0  0  0  0  0
   35.6392   26.9843   47.3224 H   0  0  0  0  0  0  0  0  0  0  0  0
   33.4001   26.4968   47.5470 H   0  0  0  0  0  0  0  0  0  0  0  0
   34.4221   25.3761   45.7397 H   0  0  0  0  0  0  0  0  0  0  0  0
   34.4199   27.0199   43.5050 H   0  0  0  0  0  0  0  0  0  0  0  0
  2  3  1  0
  2  1  1  0
  3  1  1  0
  3 11  1  0
  4  1  1  0
  4  5  2  0
  6  5  1  0
  7  6  2  0
  8  9  2  0
  8  7  1  0
  9  4  1  0
 10  8  1  0
 13 11  1  6
 13 12  2  0
 13 14  1  0
 15 13  1  0
  1 16  1  1
  2 17  1  0
  2 18  1  0
  3 19  1  6
  5 20  1  0
  6 21  1  0
 10 22  1  0
 10 23  1  0
 14 24  1  0
 25 26  2  0
 26 27  1  0
 27 28  1  0
 28 29  1  6
 28 30  1  0
 30 31  1  6
 30 32  1  0
 32 26  1  0
 27 33  1  1
 28 34  1  0
 30 35  1  0
 32 36  1  0
 15 27  1  0
M  ISO  8  16  13  17  13  18  13  19  13  20  14  21  14  24   3  29   8
M  ISO  1  31   8
M  END
>  <DihAtoms>  (1) 
12,14,26,25

>  <DihDeg>  (1) 
-126.85463064127408

$$$$
