
 OpenBabel03272506423D

 32 34  0  0  1  0  0  0  0  0999 V2000
   32.3650   28.3170   47.4860 C   0  0  2  0  0  0  0  0  0  0  0  0
   33.5760   28.3490   48.3940 C   0  0  1  0  0  0  0  0  0  0  0  0
   34.1470   27.1000   48.3600 O   0  0  0  0  0  0  0  0  0  0  0  0
   33.5320   26.3410   47.3930 C   0  0  0  0  0  0  0  0  0  0  0  0
   32.8670   27.3280   46.4400 C   0  0  1  0  0  0  0  0  0  0  0  0
   31.4610   27.8940   47.9720 H   0  0  0  0  0  0  0  0  0  0  0  0
   33.3560   28.7000   49.4100 H   0  0  0  0  0  0  0  0  0  0  0  0
   32.7860   25.6120   47.8000 H   0  0  0  0  0  0  0  0  0  0  0  0
   34.2950   25.7230   46.8570 H   0  0  0  0  0  0  0  0  0  0  0  0
   33.6310   27.7890   45.8040 H   0  0  0  0  0  0  0  0  0  0  0  0
   32.1340   29.5780   46.9310 O   0  0  0  0  0  0  0  0  0  0  0  0
   32.9470   29.8090   46.4430 H   0  0  0  0  0  0  0  0  0  0  0  0
   34.7730   29.5090   47.6290 S   0  0  0  0  0  0  0  0  0  0  0  0
   37.3480   29.3170   50.6490 C   0  0  0  0  0  0  0  0  0  0  0  0
   37.8430   30.6290   50.7630 C   0  0  0  0  0  0  0  0  0  0  0  0
   37.3650   31.5940   49.8810 C   0  0  0  0  0  0  0  0  0  0  0  0
   36.4500   31.2360   48.9550 N   0  0  0  0  0  0  0  0  0  0  0  0
   35.9860   29.9640   48.8620 C   0  0  0  0  0  0  0  0  0  0  0  0
   36.4280   29.0150   49.7000 N   0  0  0  0  0  0  0  0  0  0  0  0
   37.6460   28.4950   51.2760 H   0  0  0  0  0  0  0  0  0  0  0  0
   38.5790   30.8070   51.5460 H   0  0  0  0  0  0  0  0  0  0  0  0
   37.7530   32.5990   49.9780 H   0  0  0  0  0  0  0  0  0  0  0  0
   31.8300   26.7220   45.7490 O   0  0  0  0  0  0  0  0  0  0  0  0
   30.3210   28.9650   44.3850 O   0  0  0  0  0  0  0  0  0  0  0  0
   31.3450   28.2680   44.0640 C   0  0  0  0  0  0  0  0  0  0  0  0
   31.9020   26.9250   44.3770 C   0  0  1  0  0  3  0  0  0  0  0  0
   33.3250   27.0620   43.8760 C   0  0  0  0  0  3  0  0  0  0  0  0
   33.9050   27.6950   44.5530 H   0  0  0  0  0  0  0  0  0  0  0  0
   33.1080   27.8700   42.6040 C   0  0  0  0  0  3  0  0  0  0  0  0
   34.0240   28.2500   42.1550 H   0  0  0  0  0  0  0  0  0  0  0  0
   32.2390   28.9270   43.1430 N   0  0  0  0  0  0  0  0  0  0  0  0
   32.3670   29.9300   42.8180 H   0  0  0  0  0  0  0  0  0  0  0  0
  1  6  1  1  0  0  0
  1  2  1  0  0  0  0
  2  7  1  1  0  0  0
  3  2  1  0  0  0  0
  4  8  1  0  0  0  0
  4  3  1  0  0  0  0
  5 10  1  6  0  0  0
  5  4  1  0  0  0  0
  5  1  1  0  0  0  0
  9  4  1  0  0  0  0
 11  1  1  0  0  0  0
 12 11  1  0  0  0  0
 13  2  1  0  0  0  0
 13 18  1  0  0  0  0
 14 15  1  0  0  0  0
 14 20  1  0  0  0  0
 15 21  1  0  0  0  0
 16 22  1  0  0  0  0
 16 15  2  0  0  0  0
 17 16  1  0  0  0  0
 18 17  2  0  0  0  0
 18 19  1  0  0  0  0
 19 14  2  0  0  0  0
 23  5  1  0  0  0  0
 25 26  1  0  0  0  0
 25 24  2  0  0  0  0
 26 23  1  1  0  0  0
 27 26  1  0  0  0  0
 27 28  1  0  0  0  0
 29 31  1  0  0  0  0
 29 27  1  0  0  0  0
 30 29  1  0  0  0  0
 31 25  1  0  0  0  0
 32 31  1  0  0  0  0
M  END
>  <minimizedAffinity>
-3.83658218

>  <minimizedRMSD>
0.475756019

$$$$
