
 OpenBabel03272506423D

 32 34  0  0  1  0  0  0  0  0999 V2000
   32.3840   28.3430   47.5190 C   0  0  2  0  0  0  0  0  0  0  0  0
   33.6240   28.4150   48.3850 C   0  0  1  0  0  0  0  0  0  0  0  0
   34.1950   27.1650   48.3890 O   0  0  0  0  0  0  0  0  0  0  0  0
   33.5490   26.3630   47.4770 C   0  0  0  0  0  0  0  0  0  0  0  0
   32.8520   27.3070   46.5030 C   0  0  1  0  0  0  0  0  0  0  0  0
   31.4970   27.9430   48.0530 H   0  0  0  0  0  0  0  0  0  0  0  0
   33.4370   28.8110   49.3910 H   0  0  0  0  0  0  0  0  0  0  0  0
   32.8170   25.6540   47.9410 H   0  0  0  0  0  0  0  0  0  0  0  0
   34.2950   25.7220   46.9440 H   0  0  0  0  0  0  0  0  0  0  0  0
   33.5950   27.7390   45.8220 H   0  0  0  0  0  0  0  0  0  0  0  0
   32.1340   29.5780   46.9160 O   0  0  0  0  0  0  0  0  0  0  0  0
   32.9300   29.7870   46.3920 H   0  0  0  0  0  0  0  0  0  0  0  0
   34.7950   29.5390   47.5300 S   0  0  0  0  0  0  0  0  0  0  0  0
   37.3950   29.4740   50.5340 C   0  0  0  0  0  0  0  0  0  0  0  0
   37.9990   30.7440   50.4940 C   0  0  0  0  0  0  0  0  0  0  0  0
   37.5880   31.6390   49.5110 C   0  0  0  0  0  0  0  0  0  0  0  0
   36.6310   31.2570   48.6380 N   0  0  0  0  0  0  0  0  0  0  0  0
   36.0610   30.0260   48.6950 C   0  0  0  0  0  0  0  0  0  0  0  0
   36.4380   29.1450   49.6320 N   0  0  0  0  0  0  0  0  0  0  0  0
   37.6340   28.7060   51.2490 H   0  0  0  0  0  0  0  0  0  0  0  0
   38.7600   30.9460   51.2460 H   0  0  0  0  0  0  0  0  0  0  0  0
   38.0590   32.6130   49.4890 H   0  0  0  0  0  0  0  0  0  0  0  0
   31.7940   26.6720   45.8730 O   0  0  0  0  0  0  0  0  0  0  0  0
   33.2440   24.5850   44.2270 O   0  0  0  0  0  0  0  0  0  0  0  0
   32.3300   25.4400   43.9620 C   0  0  0  0  0  0  0  0  0  0  0  0
   31.8620   26.7480   44.4890 C   0  0  1  0  0  3  0  0  0  0  0  0
   30.5000   26.8700   43.8360 C   0  0  0  0  0  3  0  0  0  0  0  0
   29.7910   26.1840   44.3130 H   0  0  0  0  0  0  0  0  0  0  0  0
   30.7880   26.3070   42.4530 C   0  0  0  0  0  3  0  0  0  0  0  0
   29.9000   26.1240   41.8510 H   0  0  0  0  0  0  0  0  0  0  0  0
   31.4930   25.0760   42.8430 N   0  0  0  0  0  0  0  0  0  0  0  0
   31.3130   24.1760   42.3090 H   0  0  0  0  0  0  0  0  0  0  0  0
  1  6  1  1  0  0  0
  1  2  1  0  0  0  0
  2  3  1  0  0  0  0
  2  7  1  1  0  0  0
  4  8  1  0  0  0  0
  4  3  1  0  0  0  0
  5 10  1  6  0  0  0
  5  4  1  0  0  0  0
  5  1  1  0  0  0  0
  9  4  1  0  0  0  0
 11  1  1  0  0  0  0
 12 11  1  0  0  0  0
 13  2  1  0  0  0  0
 13 18  1  0  0  0  0
 14 20  1  0  0  0  0
 15 14  1  0  0  0  0
 15 21  1  0  0  0  0
 16 15  2  0  0  0  0
 17 18  2  0  0  0  0
 17 16  1  0  0  0  0
 18 19  1  0  0  0  0
 19 14  2  0  0  0  0
 22 16  1  0  0  0  0
 23  5  1  0  0  0  0
 25 24  2  0  0  0  0
 25 26  1  0  0  0  0
 26 23  1  1  0  0  0
 27 28  1  0  0  0  0
 27 26  1  0  0  0  0
 29 31  1  0  0  0  0
 29 27  1  0  0  0  0
 30 29  1  0  0  0  0
 31 25  1  0  0  0  0
 32 31  1  0  0  0  0
M  END
>  <minimizedAffinity>
-3.731848

>  <minimizedRMSD>
0.410863638

$$$$
