
 OpenBabel03272506423D

 32 34  0  0  1  0  0  0  0  0999 V2000
   32.2750   28.2710   47.4640 C   0  0  2  0  0  0  0  0  0  0  0  0
   33.4990   28.3000   48.3560 C   0  0  1  0  0  0  0  0  0  0  0  0
   34.0690   27.0510   48.3090 O   0  0  0  0  0  0  0  0  0  0  0  0
   33.4410   26.2950   47.3470 C   0  0  0  0  0  0  0  0  0  0  0  0
   32.7630   27.2860   46.4080 C   0  0  1  0  0  0  0  0  0  0  0  0
   31.3780   27.8460   47.9610 H   0  0  0  0  0  0  0  0  0  0  0  0
   33.2920   28.6470   49.3760 H   0  0  0  0  0  0  0  0  0  0  0  0
   32.7010   25.5650   47.7620 H   0  0  0  0  0  0  0  0  0  0  0  0
   34.1970   25.6800   46.7990 H   0  0  0  0  0  0  0  0  0  0  0  0
   33.5180   27.7500   45.7630 H   0  0  0  0  0  0  0  0  0  0  0  0
   32.0360   29.5340   46.9170 O   0  0  0  0  0  0  0  0  0  0  0  0
   32.8420   29.7680   46.4200 H   0  0  0  0  0  0  0  0  0  0  0  0
   34.6850   29.4630   47.5800 S   0  0  0  0  0  0  0  0  0  0  0  0
   37.2930   29.2990   50.5720 C   0  0  0  0  0  0  0  0  0  0  0  0
   37.7600   30.6210   50.6940 C   0  0  0  0  0  0  0  0  0  0  0  0
   37.2520   31.5830   49.8270 C   0  0  0  0  0  0  0  0  0  0  0  0
   36.3360   31.2140   48.9060 N   0  0  0  0  0  0  0  0  0  0  0  0
   35.8990   29.9330   48.8050 C   0  0  0  0  0  0  0  0  0  0  0  0
   36.3720   28.9860   49.6280 N   0  0  0  0  0  0  0  0  0  0  0  0
   37.6160   28.4780   51.1870 H   0  0  0  0  0  0  0  0  0  0  0  0
   38.5000   30.8070   51.4710 H   0  0  0  0  0  0  0  0  0  0  0  0
   37.6180   32.5960   49.9300 H   0  0  0  0  0  0  0  0  0  0  0  0
   31.7170   26.6830   45.7280 O   0  0  0  0  0  0  0  0  0  0  0  0
   32.8670   24.7240   43.7270 O   0  0  0  0  0  0  0  0  0  0  0  0
   32.0360   25.6910   43.6350 C   0  0  0  0  0  0  0  0  0  0  0  0
   31.7300   26.9500   44.3660 C   0  0  1  0  0  3  0  0  0  0  0  0
   30.3590   27.2920   43.8190 C   0  0  0  0  0  3  0  0  0  0  0  0
   29.6060   26.6180   44.2370 H   0  0  0  0  0  0  0  0  0  0  0  0
   30.5250   26.9070   42.3560 C   0  0  0  0  0  3  0  0  0  0  0  0
   29.5970   26.9010   41.7880 H   0  0  0  0  0  0  0  0  0  0  0  0
   31.1160   25.5730   42.5300 N   0  0  0  0  0  0  0  0  0  0  0  0
   30.8210   24.7790   41.8890 H   0  0  0  0  0  0  0  0  0  0  0  0
  1  6  1  1  0  0  0
  1  2  1  0  0  0  0
  2  7  1  1  0  0  0
  3  2  1  0  0  0  0
  4  8  1  0  0  0  0
  4  3  1  0  0  0  0
  5 10  1  6  0  0  0
  5  4  1  0  0  0  0
  5  1  1  0  0  0  0
  9  4  1  0  0  0  0
 11  1  1  0  0  0  0
 12 11  1  0  0  0  0
 13  2  1  0  0  0  0
 13 18  1  0  0  0  0
 14 15  1  0  0  0  0
 14 20  1  0  0  0  0
 15 21  1  0  0  0  0
 16 22  1  0  0  0  0
 16 15  2  0  0  0  0
 17 16  1  0  0  0  0
 18 17  2  0  0  0  0
 18 19  1  0  0  0  0
 19 14  2  0  0  0  0
 23  5  1  0  0  0  0
 25 24  2  0  0  0  0
 25 26  1  0  0  0  0
 26 23  1  1  0  0  0
 27 28  1  0  0  0  0
 27 26  1  0  0  0  0
 29 31  1  0  0  0  0
 29 27  1  0  0  0  0
 30 29  1  0  0  0  0
 31 25  1  0  0  0  0
 32 31  1  0  0  0  0
M  END
>  <minimizedAffinity>
-3.71771646

>  <minimizedRMSD>
1.1869489

$$$$
