
 OpenBabel03272506423D

 32 34  0  0  1  0  0  0  0  0999 V2000
   32.2480   28.1870   47.5650 C   0  0  2  0  0  0  0  0  0  0  0  0
   33.5200   28.1850   48.3870 C   0  0  1  0  0  0  0  0  0  0  0  0
   34.1030   26.9500   48.2380 O   0  0  0  0  0  0  0  0  0  0  0  0
   33.4310   26.2390   47.2710 C   0  0  0  0  0  0  0  0  0  0  0  0
   32.6880   27.2700   46.4290 C   0  0  1  0  0  0  0  0  0  0  0  0
   31.3870   27.7200   48.0870 H   0  0  0  0  0  0  0  0  0  0  0  0
   33.3670   28.4710   49.4350 H   0  0  0  0  0  0  0  0  0  0  0  0
   32.7250   25.4750   47.6850 H   0  0  0  0  0  0  0  0  0  0  0  0
   34.1630   25.6680   46.6470 H   0  0  0  0  0  0  0  0  0  0  0  0
   33.4000   27.7810   45.7710 H   0  0  0  0  0  0  0  0  0  0  0  0
   31.9620   29.4740   47.1050 O   0  0  0  0  0  0  0  0  0  0  0  0
   32.7360   29.7480   46.5770 H   0  0  0  0  0  0  0  0  0  0  0  0
   34.6450   29.4090   47.6130 S   0  0  0  0  0  0  0  0  0  0  0  0
   37.2820   29.2890   50.5820 C   0  0  0  0  0  0  0  0  0  0  0  0
   37.7410   30.6140   50.6890 C   0  0  0  0  0  0  0  0  0  0  0  0
   37.2170   31.5660   49.8190 C   0  0  0  0  0  0  0  0  0  0  0  0
   36.2960   31.1830   48.9100 N   0  0  0  0  0  0  0  0  0  0  0  0
   35.8670   29.8980   48.8240 C   0  0  0  0  0  0  0  0  0  0  0  0
   36.3540   28.9610   49.6500 N   0  0  0  0  0  0  0  0  0  0  0  0
   37.6170   28.4740   51.2010 H   0  0  0  0  0  0  0  0  0  0  0  0
   38.4860   30.8120   51.4580 H   0  0  0  0  0  0  0  0  0  0  0  0
   37.5770   32.5820   49.9100 H   0  0  0  0  0  0  0  0  0  0  0  0
   31.6130   26.6890   45.7760 O   0  0  0  0  0  0  0  0  0  0  0  0
   31.6830   24.8050   43.4070 O   0  0  0  0  0  0  0  0  0  0  0  0
   31.2050   25.9770   43.5880 C   0  0  0  0  0  0  0  0  0  0  0  0
   31.4600   27.1440   44.4730 C   0  0  1  0  0  3  0  0  0  0  0  0
   30.1960   27.9560   44.2770 C   0  0  0  0  0  3  0  0  0  0  0  0
   29.3570   27.4780   44.7930 H   0  0  0  0  0  0  0  0  0  0  0  0
   29.9570   27.7650   42.7860 C   0  0  0  0  0  3  0  0  0  0  0  0
   28.9870   28.1190   42.4410 H   0  0  0  0  0  0  0  0  0  0  0  0
   30.1090   26.3050   42.7080 N   0  0  0  0  0  0  0  0  0  0  0  0
   29.4610   25.7410   42.0830 H   0  0  0  0  0  0  0  0  0  0  0  0
  1  6  1  1  0  0  0
  1  2  1  0  0  0  0
  2  7  1  1  0  0  0
  3  2  1  0  0  0  0
  4  8  1  0  0  0  0
  4  3  1  0  0  0  0
  5 10  1  6  0  0  0
  5  4  1  0  0  0  0
  5  1  1  0  0  0  0
  9  4  1  0  0  0  0
 11  1  1  0  0  0  0
 12 11  1  0  0  0  0
 13  2  1  0  0  0  0
 13 18  1  0  0  0  0
 14 15  1  0  0  0  0
 14 20  1  0  0  0  0
 15 21  1  0  0  0  0
 16 22  1  0  0  0  0
 16 15  2  0  0  0  0
 17 16  1  0  0  0  0
 18 17  2  0  0  0  0
 18 19  1  0  0  0  0
 19 14  2  0  0  0  0
 23  5  1  0  0  0  0
 24 25  2  0  0  0  0
 25 26  1  0  0  0  0
 26 23  1  1  0  0  0
 27 26  1  0  0  0  0
 27 28  1  0  0  0  0
 29 27  1  0  0  0  0
 30 29  1  0  0  0  0
 31 29  1  0  0  0  0
 31 25  1  0  0  0  0
 32 31  1  0  0  0  0
M  END
>  <minimizedAffinity>
-3.73299289

>  <minimizedRMSD>
1.69985533

$$$$
