
     RDKit          3D

 35 37  0  0  0  0  0  0  0  0999 V2000
   34.8002   29.5399   47.5139 S   0  0  0  0  0  0  0  0  0  0  0  0
   37.3710   29.4681   50.5422 C   0  0  0  0  0  0  0  0  0  0  0  0
   37.9750   30.7385   50.5113 C   0  0  0  0  0  0  0  0  0  0  0  0
   37.5734   31.6360   49.5270 C   0  0  0  0  0  0  0  0  0  0  0  0
   36.6248   31.2558   48.6442 N   0  0  0  0  0  0  0  0  0  0  0  0
   36.0546   30.0246   48.6918 C   0  0  0  0  0  0  0  0  0  0  0  0
   36.4230   29.1407   49.6296 N   0  0  0  0  0  0  0  0  0  0  0  0
   32.3861   28.3510   47.4843 C   0  0  2  0  0  0  0  0  0  0  0  0
   33.6250   28.4086   48.3528 C   0  0  1  0  0  0  0  0  0  0  0  0
   34.1918   27.1571   48.3423 O   0  0  0  0  0  0  0  0  0  0  0  0
   33.5448   26.3692   47.4185 C   0  0  0  0  0  0  0  0  0  0  0  0
   32.8526   27.3266   46.4560 C   0  0  1  0  0  0  0  0  0  0  0  0
   32.1400   29.5937   46.8963 O   0  0  0  0  0  0  0  0  0  0  0  0
   31.7937   26.7023   45.8170 O   0  0  0  0  0  0  0  0  0  0  0  0
   37.6038   28.6975   51.2571 H   0  0  0  0  0  0  0  0  0  0  0  0
   38.7288   30.9389   51.2714 H   0  0  0  0  0  0  0  0  0  0  0  0
   38.0442   32.6096   49.5124 H   0  0  0  0  0  0  0  0  0  0  0  0
   31.4972   27.9472   48.0116 H   0  0  0  0  0  0  0  0  0  0  0  0
   33.4369   28.7932   49.3634 H   0  0  0  0  0  0  0  0  0  0  0  0
   32.8106   25.6561   47.8730 H   0  0  0  0  0  0  0  0  0  0  0  0
   34.2899   25.7319   46.8799 H   0  0  0  0  0  0  0  0  0  0  0  0
   33.5983   27.7650   45.7815 H   0  0  0  0  0  0  0  0  0  0  0  0
   32.9380   29.8072   46.3757 H   0  0  0  0  0  0  0  0  0  0  0  0
   32.6530   29.2193   44.3714 O   0  0  0  0  0  0  0  0  0  0  0  0
   32.6414   27.9812   44.0538 C   0  0  0  0  0  0  0  0  0  0  0  0
   31.8883   26.7565   44.4328 C   0  0  1  0  0  0  0  0  0  0  0  0
   32.7714   25.6665   43.8591 C   0  0  1  0  0  0  0  0  0  0  0  0
   33.6754   25.5554   44.4657 H   0  0  0  0  0  0  0  0  0  0  0  0
   33.2032   26.3037   42.5463 C   0  0  1  0  0  0  0  0  0  0  0  0
   33.9993   25.7691   42.0310 H   0  0  0  0  0  0  0  0  0  0  0  0
   33.6139   27.6228   43.0496 N   0  0  0  0  0  0  0  0  0  0  0  0
   30.9076   26.7659   43.9341 H   0  0  0  0  0  0  0  0  0  0  0  0
   32.2130   24.7263   43.6895 H   0  0  0  0  0  0  0  0  0  0  0  0
   32.2945   26.4615   41.9025 H   0  0  0  0  0  0  0  0  0  0  0  0
   34.4806   28.0913   42.6515 H   0  0  0  0  0  0  0  0  0  0  0  0
  1  6  1  0
  3  2  2  0
  4  3  1  0
  5  6  1  0
  5  4  2  0
  6  7  2  0
  7  2  1  0
  8 13  1  0
  8  9  1  0
  9  1  1  0
  9 10  1  0
 11 10  1  0
 12 14  1  0
 12 11  1  0
 12  8  1  0
  2 15  1  0
  3 16  1  0
  4 17  1  0
  8 18  1  1
  9 19  1  1
 11 20  1  0
 11 21  1  0
 12 22  1  6
 13 23  1  0
 24 25  2  0
 25 26  1  0
 26 27  1  0
 27 28  1  1
 27 29  1  0
 29 30  1  6
 29 31  1  0
 31 25  1  0
 26 32  1  6
 27 33  1  0
 29 34  1  0
 31 35  1  0
 14 26  1  0
M  ISO  8  15  14  16  14  17  14  18  13  19  13  20  13  21  13  22  13
M  ISO  3  23   3  28   8  30   8
M  END
>  <DihAtoms>  (1) 
11,13,25,24

>  <DihDeg>  (1) 
121.42887036351355

$$$$
