
     RDKit          3D

 45 47  0  0  0  0  0  0  0  0999 V2000
   37.6497   30.4605   48.5192 Cl  0  0  0  0  0  0  0  0  0  0  0  0
   36.4809   30.3084   47.2071 C   0  0  0  0  0  0  0  0  0  0  0  0
   36.8359   30.6970   45.9517 C   0  0  0  0  0  0  0  0  0  0  0  0
   35.9396   30.5837   44.9247 C   0  0  0  0  0  0  0  0  0  0  0  0
   34.6819   30.0725   45.1864 C   0  0  0  0  0  0  0  0  0  0  0  0
   34.3684   29.6887   46.4913 C   0  0  0  0  0  0  0  0  0  0  0  0
   35.2478   29.7942   47.5270 C   0  0  0  0  0  0  0  0  0  0  0  0
   39.8511   32.8321   45.9622 C   0  0  0  0  0  0  0  0  0  0  0  0
   40.7018   32.1058   45.0859 C   0  0  0  0  0  0  0  0  0  0  0  0
   40.2081   30.9275   44.5360 C   0  0  0  0  0  0  0  0  0  0  0  0
   38.9503   30.5174   44.8500 N   0  0  0  0  0  0  0  0  0  0  0  0
   38.1662   31.2354   45.6899 C   0  0  0  0  0  0  0  0  0  0  0  0
   38.6217   32.3696   46.2283 N   0  0  0  0  0  0  0  0  0  0  0  0
   41.0721   30.2227   43.6662 N   0  0  0  0  0  0  0  0  0  0  0  0
   34.9042   29.3972   48.8751 C   0  0  0  0  0  0  0  0  0  0  0  0
   34.1974   28.1386   49.0904 C   0  0  0  0  0  0  0  0  0  0  0  0
   32.8850   28.3431   49.4333 O   0  0  0  0  0  0  0  0  0  0  0  0
   32.6264   26.6068   47.4710 O   0  0  0  0  0  0  0  0  0  0  0  0
   31.8640   27.5602   48.3578 P   0  0  2  0  0  0  0  0  0  0  0  0
   31.1019   28.7850   47.4277 O   0  0  0  0  0  0  0  0  0  0  0  0
   30.6598   26.7024   49.1309 O   0  0  0  0  0  0  0  0  0  0  0  0
   36.2614   30.9070   43.9262 H   0  0  0  0  0  0  0  0  0  0  0  0
   34.0540   30.0267   44.3043 H   0  0  0  0  0  0  0  0  0  0  0  0
   33.3965   29.3367   46.4851 H   0  0  0  0  0  0  0  0  0  0  0  0
   40.2151   33.7550   46.4035 H   0  0  0  0  0  0  0  0  0  0  0  0
   41.6888   32.5095   44.8937 H   0  0  0  0  0  0  0  0  0  0  0  0
   41.4480   30.4649   42.7097 H   0  0  0  0  0  0  0  0  0  0  0  0
   41.3092   29.3392   44.1541 H   0  0  0  0  0  0  0  0  0  0  0  0
   35.8230   29.4014   49.4976 H   0  0  0  0  0  0  0  0  0  0  0  0
   34.2875   30.2394   49.3108 H   0  0  0  0  0  0  0  0  0  0  0  0
   34.6578   27.5038   49.8824 H   0  0  0  0  0  0  0  0  0  0  0  0
   34.2496   27.5222   48.1569 H   0  0  0  0  0  0  0  0  0  0  0  0
   30.9216   29.5352   48.0223 H   0  0  0  0  0  0  0  0  0  0  0  0
   30.5854   26.5897   45.8834 O   0  0  0  0  0  0  0  0  0  0  0  0
   30.5634   25.9264   46.9655 C   0  0  0  0  0  0  0  0  0  0  0  0
   29.7657   26.2272   48.2079 C   0  0  1  0  0  0  0  0  0  0  0  0
   29.3564   24.8271   48.5971 C   0  0  2  0  0  0  0  0  0  0  0  0
   28.6615   24.3784   47.8298 H   0  0  0  0  0  0  0  0  0  0  0  0
   30.6810   24.0841   48.4236 C   0  0  2  0  0  0  0  0  0  0  0  0
   30.5170   23.0188   48.1670 H   0  0  0  0  0  0  0  0  0  0  0  0
   31.2831   24.7379   47.2752 N   0  0  0  0  0  0  0  0  0  0  0  0
   28.9283   26.9061   47.9899 H   0  0  0  0  0  0  0  0  0  0  0  0
   28.9755   24.7359   49.6257 H   0  0  0  0  0  0  0  0  0  0  0  0
   31.2652   24.2219   49.3572 H   0  0  0  0  0  0  0  0  0  0  0  0
   32.1174   24.3985   46.7473 H   0  0  0  0  0  0  0  0  0  0  0  0
  2  7  2  0
  2  1  1  0
  3  2  1  0
  4  5  1  0
  4  3  2  0
  5  6  2  0
  6  7  1  0
  7 15  1  0
  8 13  2  0
  9  8  1  0
 10 11  1  0
 10  9  2  0
 11 12  2  0
 12  3  1  0
 12 13  1  0
 14 10  1  0
 15 16  1  0
 16 17  1  0
 18 19  2  0
 19 21  1  1
 19 17  1  0
 20 19  1  0
  4 22  1  0
  5 23  1  0
  6 24  1  0
  8 25  1  0
  9 26  1  0
 14 27  1  0
 14 28  1  0
 15 29  1  0
 15 30  1  0
 16 31  1  0
 16 32  1  0
 20 33  1  0
 34 35  2  0
 35 36  1  0
 36 37  1  0
 37 38  1  6
 37 39  1  0
 39 40  1  6
 39 41  1  0
 41 35  1  0
 36 42  1  6
 37 43  1  0
 39 44  1  0
 41 45  1  0
 21 36  1  0
M  ISO  8  22  14  23  14  24  14  25  14  26  14  29   8  30   8  31   8
M  ISO  4  32   8  33   3  38   8  40   8
M  END
>  <DihAtoms>  (1) 
18,20,35,34

>  <DihDeg>  (1) 
123.28721365584056

$$$$
