
 OpenBabel03262523543D

 29 30  0  0  1  0  0  0  0  0999 V2000
   37.7480   30.3010   47.0850 C   0  0  1  0  0  0  0  0  0  0  0  0
   37.0980   30.8640   45.8980 C   0  0  0  0  0  0  0  0  0  0  0  0
   37.9430   30.5340   44.6960 C   0  0  0  0  0  0  0  0  0  0  0  0
   39.3930   30.6830   44.9940 C   0  0  0  0  0  0  0  0  0  0  0  0
   39.7170   31.5320   46.1670 C   0  0  0  0  0  0  0  0  0  0  0  0
   38.9450   31.2010   47.4030 C   0  0  1  0  0  0  0  0  0  0  0  0
   38.1640   29.2970   46.8670 H   0  0  0  0  0  0  0  0  0  0  0  0
   36.1130   30.3410   45.7420 H   0  0  0  0  0  0  0  0  0  0  0  0
   36.8740   31.9380   45.9350 H   0  0  0  0  0  0  0  0  0  0  0  0
   37.6920   31.2970   43.9190 H   0  0  0  0  0  0  0  0  0  0  0  0
   37.6530   29.5550   44.2940 H   0  0  0  0  0  0  0  0  0  0  0  0
   39.7830   29.6520   45.2160 H   0  0  0  0  0  0  0  0  0  0  0  0
   39.9630   31.0110   44.1130 H   0  0  0  0  0  0  0  0  0  0  0  0
   40.8110   31.5530   46.3200 H   0  0  0  0  0  0  0  0  0  0  0  0
   39.4580   32.5910   45.8700 H   0  0  0  0  0  0  0  0  0  0  0  0
   39.6230   30.5900   48.0270 H   0  0  0  0  0  0  0  0  0  0  0  0
   36.7630   29.6480   50.6190 C   0  0  0  0  0  0  0  0  0  0  0  0
   37.5640   29.7350   49.4610 C   0  0  0  0  0  0  0  0  0  0  0  0
   36.9450   30.2060   48.3080 C   0  0  0  0  0  0  0  0  0  0  0  0
   35.6140   30.5570   48.3410 N   0  0  0  0  0  0  0  0  0  0  0  0
   34.8870   30.4550   49.4720 C   0  0  0  0  0  0  0  0  0  0  0  0
   35.4640   30.0020   50.6080 N   0  0  0  0  0  0  0  0  0  0  0  0
   37.1520   29.2940   51.5650 H   0  0  0  0  0  0  0  0  0  0  0  0
   38.5820   29.4240   49.5920 H   0  0  0  0  0  0  0  0  0  0  0  0
   33.8530   30.7480   49.4220 H   0  0  0  0  0  0  0  0  0  0  0  0
   38.5690   32.4050   48.1820 C   0  0  0  0  0  0  0  0  0  0  0  0
   39.3240   33.3680   48.7580 C   0  0  0  0  0  0  0  0  0  0  0  0
   38.9130   34.5870   49.5450 C   0  0  0  0  0  0  0  0  0  0  0  0
   39.1710   35.4580   48.9280 H   0  0  0  0  0  0  0  0  0  0  0  0
  1  7  1  6  0  0  0
  1  6  1  0  0  0  0
  1 19  1  0  0  0  0
  2  9  1  0  0  0  0
  2  1  1  0  0  0  0
  3  4  1  0  0  0  0
  3  2  1  0  0  0  0
  4 12  1  0  0  0  0
  4  5  1  0  0  0  0
  5 14  1  0  0  0  0
  5  6  1  0  0  0  0
  6 16  1  1  0  0  0
  6 26  1  0  0  0  0
  8  2  1  0  0  0  0
 10  3  1  0  0  0  0
 11  3  1  0  0  0  0
 13  4  1  0  0  0  0
 15  5  1  0  0  0  0
 17 23  1  0  0  0  0
 18 24  1  0  0  0  0
 18 17  2  0  0  0  0
 19 20  2  0  0  0  0
 19 18  1  0  0  0  0
 20 21  1  0  0  0  0
 21 22  2  0  0  0  0
 22 17  1  0  0  0  0
 25 21  1  0  0  0  0
 26 27  2  0  0  0  0
 27 28  1  0  0  0  0
 29 28  1  0  0  0  0
M  END
>  <minimizedAffinity>
-4.46613741

>  <minimizedRMSD>
1.33721209

$$$$
