REMARK  Name = 
REMARK  6 active torsions:
REMARK  status: ('A' for Active; 'I' for Inactive)
REMARK    1  A    between atoms: C_1  and  C_8
REMARK    2  A    between atoms: C_6  and  N_15
REMARK    3  A    between atoms: C_13  and  O_16
REMARK    4  A    between atoms: O_16  and  C_17
REMARK    5  A    between atoms: C_17  and  C_27
REMARK    6  A    between atoms: C_28  and  C_29
REMARK                            x       y       z     vdW  Elec       q    Type
REMARK                         _______ _______ _______ _____ _____    ______ ____
ROOT
ATOM      1  C   UNL     1      38.111  31.884  47.414  0.00  0.00    +0.000 A 
ATOM      2  C   UNL     1      38.585  32.789  48.324  0.00  0.00    +0.000 A 
ATOM      3  C   UNL     1      38.085  32.867  49.629  0.00  0.00    +0.000 A 
ATOM      4  C   UNL     1      37.030  31.939  49.989  0.00  0.00    +0.000 A 
ATOM      5  C   UNL     1      36.608  31.069  49.041  0.00  0.00    +0.000 A 
ATOM      6  C   UNL     1      37.093  31.003  47.790  0.00  0.00    +0.000 A 
ATOM      7  H   UNL     1      39.386  33.502  48.070  0.00  0.00    +0.000 HD
ATOM      8  H   UNL     1      38.509  33.613  50.300  0.00  0.00    +0.000 HD
ATOM      9  H   UNL     1      36.757  32.118  50.999  0.00  0.00    +0.000 HD
ATOM     10  H   UNL     1      35.857  30.474  49.536  0.00  0.00    +0.000 HD
ENDROOT
BRANCH   1  12
ATOM     11  C   UNL     1      39.994  31.266  45.991  0.00  0.00    +0.000 A 
ATOM     12  C   UNL     1      38.745  31.912  46.113  0.00  0.00    +0.000 A 
ATOM     13  C   UNL     1      38.281  32.491  44.958  0.00  0.00    +0.000 A 
ATOM     14  N   UNL     1      38.999  32.420  43.821  0.00  0.00    +0.000 NA
ATOM     15  C   UNL     1      40.159  31.815  43.726  0.00  0.00    +0.000 A 
ATOM     16  N   UNL     1      40.655  31.239  44.810  0.00  0.00    +0.000 NA
ATOM     17  H   UNL     1      40.439  30.782  46.851  0.00  0.00    +0.000 HD
ATOM     18  H   UNL     1      37.312  32.992  45.053  0.00  0.00    +0.000 HD
ATOM     19  H   UNL     1      40.717  31.772  42.801  0.00  0.00    +0.000 HD
ENDBRANCH   1  12
BRANCH   6  22
ATOM     20  C   UNL     1      35.159  29.969  46.942  0.00  0.00    +0.000 C 
ATOM     21  O   UNL     1      34.521  30.629  47.856  0.00  0.00    +0.000 OA
ATOM     22  N   UNL     1      36.601  30.112  46.870  0.00  0.00    +0.000 N 
ATOM     23  H   UNL     1      37.177  29.597  46.203  0.00  0.00    +0.000 HD
BRANCH  20  24
ATOM     24  O   UNL     1      34.454  29.167  46.088  0.00  0.00    +0.000 OA
BRANCH  24  25
ATOM     25  C   UNL     1      33.366  29.576  45.326  0.00  0.00    +0.000 C 
ATOM     26  O   UNL     1      33.364  30.723  44.679  0.00  0.00    +0.000 OA
BRANCH  25  27
ATOM     27  C   UNL     1      32.157  28.730  45.182  0.00  0.00    +0.000 C 
ATOM     28  C   UNL     1      32.019  27.830  44.241  0.00  0.00    +0.000 C 
BRANCH  28  29
ATOM     29  C   UNL     1      30.829  26.957  44.054  0.00  0.00    +0.000 C 
ATOM     30  H   UNL     1      30.013  27.162  44.762  0.00  0.00    +0.000 HD
ENDBRANCH  28  29
ENDBRANCH  25  27
ENDBRANCH  24  25
ENDBRANCH  20  24
ENDBRANCH   6  22
TORSDOF 6
