
 OpenBabel03272509523D

 38 40  0  0  0  0  0  0  0  0999 V2000
   37.3520   30.1800   51.5320 C   0  0  0  0  0  0  0  0  0  0  0  0
   38.0850   30.8710   50.5370 C   0  0  0  0  0  0  0  0  0  0  0  0
   37.7150   30.6590   49.2190 C   0  0  0  0  0  0  0  0  0  0  0  0
   36.6690   29.7990   48.9930 N   0  0  0  0  0  0  0  0  0  0  0  0
   36.0000   29.1660   49.9530 C   0  0  0  0  0  0  0  0  0  0  0  0
   36.3550   29.3670   51.2410 N   0  0  0  0  0  0  0  0  0  0  0  0
   37.7020   30.3980   52.5400 H   0  0  0  0  0  0  0  0  0  0  0  0
   38.9080   31.5470   50.7200 H   0  0  0  0  0  0  0  0  0  0  0  0
   38.9420   33.2740   49.0290 F   0  0  0  0  0  0  0  0  0  0  0  0
   38.9140   32.4840   47.9590 C   0  0  0  0  0  0  0  0  0  0  0  0
   38.3370   31.2680   48.0660 C   0  0  0  0  0  0  0  0  0  0  0  0
   38.3640   30.5330   46.8900 C   0  0  0  0  0  0  0  0  0  0  0  0
   38.9280   31.0030   45.7310 C   0  0  0  0  0  0  0  0  0  0  0  0
   39.5000   32.2400   45.6660 C   0  0  0  0  0  0  0  0  0  0  0  0
   39.4880   32.9900   46.8130 C   0  0  0  0  0  0  0  0  0  0  0  0
   37.9420   29.5250   46.7970 H   0  0  0  0  0  0  0  0  0  0  0  0
   38.9470   30.4180   44.8030 H   0  0  0  0  0  0  0  0  0  0  0  0
   39.9480   32.6320   44.7640 H   0  0  0  0  0  0  0  0  0  0  0  0
   39.9350   33.9750   46.7890 H   0  0  0  0  0  0  0  0  0  0  0  0
   35.0100   28.3720   49.4820 O   0  0  0  0  0  0  0  0  0  0  0  0
   34.4800   28.6320   48.1800 C   0  0  0  0  0  0  0  0  0  0  0  0
   35.2880   28.8720   47.4630 H   0  0  0  0  0  0  0  0  0  0  0  0
   33.8590   29.5460   48.2890 H   0  0  0  0  0  0  0  0  0  0  0  0
   33.5920   27.5140   47.7400 C   0  0  0  0  0  0  0  0  0  0  0  0
   33.7680   26.5630   48.2530 H   0  0  0  0  0  0  0  0  0  0  0  0
   33.8530   27.3110   46.6600 H   0  0  0  0  0  0  0  0  0  0  0  0
   32.1530   27.8870   47.7130 C   0  0  0  0  0  0  0  0  0  0  0  0
   31.3380   27.4140   48.7460 C   0  0  0  0  0  0  0  0  0  0  0  0
   30.0050   27.7130   48.7940 C   0  0  0  0  0  0  0  0  0  0  0  0
   29.4680   28.4590   47.8510 N   0  0  0  0  0  0  0  0  0  0  0  0
   30.2670   28.9200   46.8410 C   0  0  0  0  0  0  0  0  0  0  0  0
   31.5820   28.6530   46.7520 N   0  0  0  0  0  0  0  0  0  0  0  0
   31.7950   26.8000   49.5180 H   0  0  0  0  0  0  0  0  0  0  0  0
   29.3490   27.3570   49.5890 H   0  0  0  0  0  0  0  0  0  0  0  0
   29.6230   29.7430   45.8200 C   0  0  0  0  0  3  0  0  0  0  0  0
   30.2810   30.5900   45.0850 C   0  0  0  0  0  3  0  0  0  0  0  0
   29.6350   31.4410   44.0360 C   0  0  0  0  0  2  0  0  0  0  0  0
   28.5400   31.3140   44.1660 H   0  0  0  0  0  0  0  0  0  0  0  0
  1  7  1  0  0  0  0
  2  8  1  0  0  0  0
  2  1  2  0  0  0  0
  3  2  1  0  0  0  0
  4  3  2  0  0  0  0
  4  5  1  0  0  0  0
  5  6  2  0  0  0  0
  6  1  1  0  0  0  0
 10 11  1  0  0  0  0
 10  9  1  0  0  0  0
 11  3  1  0  0  0  0
 12 11  2  0  0  0  0
 13 12  1  0  0  0  0
 14 13  2  0  0  0  0
 14 15  1  0  0  0  0
 15 10  2  0  0  0  0
 16 12  1  0  0  0  0
 17 13  1  0  0  0  0
 18 14  1  0  0  0  0
 19 15  1  0  0  0  0
 20  5  1  0  0  0  0
 21 23  1  0  0  0  0
 21 20  1  0  0  0  0
 22 21  1  0  0  0  0
 24 21  1  0  0  0  0
 24 25  1  0  0  0  0
 26 24  1  0  0  0  0
 27 24  1  0  0  0  0
 27 28  1  0  0  0  0
 28 29  2  0  0  0  0
 28 33  1  0  0  0  0
 29 34  1  0  0  0  0
 30 29  1  0  0  0  0
 31 30  2  0  0  0  0
 32 31  1  0  0  0  0
 32 27  2  0  0  0  0
 35 31  1  0  0  0  0
 36 35  2  0  0  0  0
 37 38  1  0  0  0  0
 37 36  1  0  0  0  0
M  END
>  <minimizedAffinity>
-6.29217005

>  <minimizedRMSD>
0.240911976

$$$$
