
 OpenBabel03272509533D

 38 40  0  0  0  0  0  0  0  0999 V2000
   37.2860   30.1460   51.4590 C   0  0  0  0  0  0  0  0  0  0  0  0
   38.0450   30.8380   50.4830 C   0  0  0  0  0  0  0  0  0  0  0  0
   37.6930   30.6440   49.1560 C   0  0  0  0  0  0  0  0  0  0  0  0
   36.6400   29.8010   48.9040 N   0  0  0  0  0  0  0  0  0  0  0  0
   35.9460   29.1670   49.8480 C   0  0  0  0  0  0  0  0  0  0  0  0
   36.2830   29.3500   51.1430 N   0  0  0  0  0  0  0  0  0  0  0  0
   37.6230   30.3500   52.4740 H   0  0  0  0  0  0  0  0  0  0  0  0
   38.8740   31.5000   50.6860 H   0  0  0  0  0  0  0  0  0  0  0  0
   38.9190   33.2620   49.0000 F   0  0  0  0  0  0  0  0  0  0  0  0
   38.9180   32.4730   47.9290 C   0  0  0  0  0  0  0  0  0  0  0  0
   38.3420   31.2560   48.0200 C   0  0  0  0  0  0  0  0  0  0  0  0
   38.4010   30.5220   46.8440 C   0  0  0  0  0  0  0  0  0  0  0  0
   38.9910   30.9960   45.7000 C   0  0  0  0  0  0  0  0  0  0  0  0
   39.5620   32.2340   45.6510 C   0  0  0  0  0  0  0  0  0  0  0  0
   39.5200   32.9830   46.7990 C   0  0  0  0  0  0  0  0  0  0  0  0
   37.9840   29.5140   46.7390 H   0  0  0  0  0  0  0  0  0  0  0  0
   39.0350   30.4110   44.7730 H   0  0  0  0  0  0  0  0  0  0  0  0
   40.0310   32.6280   44.7610 H   0  0  0  0  0  0  0  0  0  0  0  0
   39.9650   33.9690   46.7860 H   0  0  0  0  0  0  0  0  0  0  0  0
   34.9540   28.3910   49.3520 O   0  0  0  0  0  0  0  0  0  0  0  0
   34.3730   28.7380   48.0930 C   0  0  0  0  0  0  0  0  0  0  0  0
   35.1500   29.0500   47.3690 H   0  0  0  0  0  0  0  0  0  0  0  0
   33.7380   29.6270   48.2930 H   0  0  0  0  0  0  0  0  0  0  0  0
   33.4920   27.6370   47.5980 C   0  0  0  0  0  0  0  0  0  0  0  0
   33.7670   26.6380   47.9530 H   0  0  0  0  0  0  0  0  0  0  0  0
   33.6380   27.5960   46.4790 H   0  0  0  0  0  0  0  0  0  0  0  0
   32.0440   27.9230   47.7760 C   0  0  0  0  0  0  0  0  0  0  0  0
   31.4350   27.4950   48.9590 C   0  0  0  0  0  0  0  0  0  0  0  0
   30.1080   27.7200   49.1980 C   0  0  0  0  0  0  0  0  0  0  0  0
   29.3800   28.3510   48.3010 N   0  0  0  0  0  0  0  0  0  0  0  0
   29.9770   28.7690   47.1440 C   0  0  0  0  0  0  0  0  0  0  0  0
   31.2780   28.5710   46.8640 N   0  0  0  0  0  0  0  0  0  0  0  0
   32.0480   26.9750   49.6910 H   0  0  0  0  0  0  0  0  0  0  0  0
   29.6110   27.3960   50.1140 H   0  0  0  0  0  0  0  0  0  0  0  0
   29.1260   29.4640   46.1810 C   0  0  0  0  0  3  0  0  0  0  0  0
   27.9170   29.8480   46.4630 C   0  0  0  0  0  3  0  0  0  0  0  0
   27.0330   30.5610   45.4890 C   0  0  0  0  0  2  0  0  0  0  0  0
   27.5510   30.5120   44.5080 H   0  0  0  0  0  0  0  0  0  0  0  0
  1  7  1  0  0  0  0
  2  8  1  0  0  0  0
  2  1  2  0  0  0  0
  3  2  1  0  0  0  0
  4  3  2  0  0  0  0
  4  5  1  0  0  0  0
  5  6  2  0  0  0  0
  6  1  1  0  0  0  0
 10 11  1  0  0  0  0
 10  9  1  0  0  0  0
 11  3  1  0  0  0  0
 12 11  2  0  0  0  0
 13 12  1  0  0  0  0
 14 13  2  0  0  0  0
 14 15  1  0  0  0  0
 15 10  2  0  0  0  0
 16 12  1  0  0  0  0
 17 13  1  0  0  0  0
 18 14  1  0  0  0  0
 19 15  1  0  0  0  0
 20  5  1  0  0  0  0
 21 23  1  0  0  0  0
 21 20  1  0  0  0  0
 22 21  1  0  0  0  0
 24 27  1  0  0  0  0
 24 25  1  0  0  0  0
 24 21  1  0  0  0  0
 26 24  1  0  0  0  0
 27 28  1  0  0  0  0
 28 29  2  0  0  0  0
 28 33  1  0  0  0  0
 29 34  1  0  0  0  0
 30 29  1  0  0  0  0
 31 30  2  0  0  0  0
 32 31  1  0  0  0  0
 32 27  2  0  0  0  0
 35 36  2  0  0  0  0
 35 31  1  0  0  0  0
 37 36  1  0  0  0  0
 38 37  1  0  0  0  0
M  END
>  <minimizedAffinity>
-6.40202427

>  <minimizedRMSD>
0.314529419

$$$$
