
 OpenBabel03272509383D

 25 26  0  0  0  0  0  0  0  0999 V2000
   36.0430   29.5180   49.1140 C   0  0  0  0  0  0  0  0  0  0  0  0
   36.1610   29.4420   50.5070 C   0  0  0  0  0  0  0  0  0  0  0  0
   37.1620   30.1070   51.2040 C   0  0  0  0  0  0  0  0  0  0  0  0
   38.0940   30.8800   50.5170 C   0  0  0  0  0  0  0  0  0  0  0  0
   37.9660   30.9440   49.1510 C   0  0  0  0  0  0  0  0  0  0  0  0
   36.9690   30.2820   48.4780 C   0  0  0  0  0  0  0  0  0  0  0  0
   35.4350   28.8400   51.0390 H   0  0  0  0  0  0  0  0  0  0  0  0
   37.1470   29.9710   52.2710 H   0  0  0  0  0  0  0  0  0  0  0  0
   38.8320   31.3530   51.1500 H   0  0  0  0  0  0  0  0  0  0  0  0
   38.7540   31.5750   48.7660 H   0  0  0  0  0  0  0  0  0  0  0  0
   34.9640   28.7970   48.4720 C   0  0  0  0  0  0  0  0  0  0  0  0
   34.6280   27.7130   49.0750 O   0  0  0  0  0  0  0  0  0  0  0  0
   32.9410   30.8840   46.3000 C   0  0  0  0  0  0  0  0  0  0  0  0
   32.9590   30.2210   45.0790 C   0  0  0  0  0  0  0  0  0  0  0  0
   33.6700   29.0390   44.9970 C   0  0  0  0  0  0  0  0  0  0  0  0
   34.3190   28.5700   46.1000 N   0  0  0  0  0  0  0  0  0  0  0  0
   34.2860   29.2220   47.2530 C   0  0  0  0  0  0  0  0  0  0  0  0
   33.5950   30.3770   47.3430 N   0  0  0  0  0  0  0  0  0  0  0  0
   32.4020   31.8150   46.4290 H   0  0  0  0  0  0  0  0  0  0  0  0
   32.3980   30.7140   44.2970 H   0  0  0  0  0  0  0  0  0  0  0  0
   33.6690   28.5450   44.0430 H   0  0  0  0  0  0  0  0  0  0  0  0
   36.9810   30.4530   47.0440 C   0  0  0  0  0  3  0  0  0  0  0  0
   37.6060   31.3840   46.3500 C   0  0  0  0  0  3  0  0  0  0  0  0
   37.7280   31.7040   44.9250 C   0  0  0  0  0  2  0  0  0  0  0  0
   37.0620   32.5700   44.6440 H   0  0  0  0  0  0  0  0  0  0  0  0
  1  2  1  0  0  0  0
  2  7  1  0  0  0  0
  2  3  2  0  0  0  0
  3  8  1  0  0  0  0
  4  9  1  0  0  0  0
  4  3  1  0  0  0  0
  5  4  2  0  0  0  0
  6  1  2  0  0  0  0
  6  5  1  0  0  0  0
 10  5  1  0  0  0  0
 11 12  2  0  0  0  0
 11  1  1  0  0  0  0
 13 19  1  0  0  0  0
 13 18  1  0  0  0  0
 14 13  2  0  0  0  0
 15 14  1  0  0  0  0
 15 16  2  0  0  0  0
 16 17  1  0  0  0  0
 17 18  2  0  0  0  0
 17 11  1  0  0  0  0
 20 14  1  0  0  0  0
 21 15  1  0  0  0  0
 22  6  1  0  0  0  0
 23 22  2  0  0  0  0
 24 23  1  0  0  0  0
 25 24  1  0  0  0  0
M  END
>  <minimizedAffinity>
-5.13866711

>  <minimizedRMSD>
0.853490889

$$$$
