
 OpenBabel03272505543D

 29 30  0  0  1  0  0  0  0  0999 V2000
   35.5370   30.2460   49.7760 C   0  0  2  0  0  0  0  0  0  0  0  0
   36.3770   31.2470   49.0070 C   0  0  0  0  0  0  0  0  0  0  0  0
   37.8480   30.9760   49.1080 C   0  0  2  0  0  0  0  0  0  0  0  0
   38.3370   30.8610   50.5300 C   0  0  0  0  0  0  0  0  0  0  0  0
   37.3890   30.1220   51.4250 C   0  0  0  0  0  0  0  0  0  0  0  0
   36.3510   29.3460   50.6390 C   0  0  0  0  0  0  0  0  0  0  0  0
   34.8090   30.8150   50.3800 H   0  0  0  0  0  0  0  0  0  0  0  0
   36.1020   31.1960   47.9520 H   0  0  0  0  0  0  0  0  0  0  0  0
   36.2100   32.2720   49.3810 H   0  0  0  0  0  0  0  0  0  0  0  0
   38.0520   30.0450   48.5450 H   0  0  0  0  0  0  0  0  0  0  0  0
   39.2630   30.2230   50.4750 H   0  0  0  0  0  0  0  0  0  0  0  0
   38.6770   31.8320   50.9360 H   0  0  0  0  0  0  0  0  0  0  0  0
   37.8720   29.4720   52.1670 H   0  0  0  0  0  0  0  0  0  0  0  0
   36.7970   30.9190   51.9640 H   0  0  0  0  0  0  0  0  0  0  0  0
   36.9160   28.5940   50.0440 H   0  0  0  0  0  0  0  0  0  0  0  0
   35.7320   28.8170   51.3730 H   0  0  0  0  0  0  0  0  0  0  0  0
   34.7640   29.3980   48.8220 C   0  0  0  0  0  0  0  0  0  0  0  0
   34.2880   30.0380   47.6640 C   0  0  0  0  0  0  0  0  0  0  0  0
   33.5540   29.2560   46.7710 C   0  0  0  0  0  0  0  0  0  0  0  0
   33.3390   27.9250   47.0680 N   0  0  0  0  0  0  0  0  0  0  0  0
   33.8160   27.3520   48.1940 C   0  0  0  0  0  0  0  0  0  0  0  0
   34.5240   28.1040   49.0550 N   0  0  0  0  0  0  0  0  0  0  0  0
   34.4220   31.0590   47.3870 H   0  0  0  0  0  0  0  0  0  0  0  0
   33.1590   29.6870   45.8590 H   0  0  0  0  0  0  0  0  0  0  0  0
   33.5920   26.3040   48.3310 H   0  0  0  0  0  0  0  0  0  0  0  0
   38.5430   32.1650   48.5360 C   0  0  0  0  0  3  0  0  0  0  0  0
   39.0820   32.2160   47.3340 C   0  0  0  0  0  3  0  0  0  0  0  0
   38.9960   31.0070   46.4790 C   0  0  0  0  0  2  0  0  0  0  0  0
   37.9330   30.6800   46.4450 H   0  0  0  0  0  0  0  0  0  0  0  0
  1  7  1  1  0  0  0
  1  6  1  0  0  0  0
  2  3  1  0  0  0  0
  2  9  1  0  0  0  0
  2  1  1  0  0  0  0
  3 10  1  6  0  0  0
  3  4  1  0  0  0  0
  4 12  1  0  0  0  0
  4  5  1  0  0  0  0
  5 14  1  0  0  0  0
  5 13  1  0  0  0  0
  6 16  1  0  0  0  0
  6  5  1  0  0  0  0
  8  2  1  0  0  0  0
 11  4  1  0  0  0  0
 15  6  1  0  0  0  0
 17 22  1  0  0  0  0
 17  1  1  0  0  0  0
 18 17  2  0  0  0  0
 19 20  2  0  0  0  0
 19 18  1  0  0  0  0
 20 21  1  0  0  0  0
 21 25  1  0  0  0  0
 21 22  2  0  0  0  0
 23 18  1  0  0  0  0
 24 19  1  0  0  0  0
 26  3  1  0  0  0  0
 27 26  2  0  0  0  0
 28 27  1  0  0  0  0
 29 28  1  0  0  0  0
M  END
>  <minimizedAffinity>
-5.82851553

>  <minimizedRMSD>
0.534099519

$$$$
