
 OpenBabel03272500583D

 30 31  0  0  0  0  0  0  0  0999 V2000
   38.1860   31.8640   47.4370 C   0  0  0  0  0  0  0  0  0  0  0  0
   38.7950   32.6740   48.3560 C   0  0  0  0  0  0  0  0  0  0  0  0
   38.3750   32.7360   49.6900 C   0  0  0  0  0  0  0  0  0  0  0  0
   37.2550   31.8960   50.0700 C   0  0  0  0  0  0  0  0  0  0  0  0
   36.6990   31.1180   49.1110 C   0  0  0  0  0  0  0  0  0  0  0  0
   37.1080   31.0670   47.8320 C   0  0  0  0  0  0  0  0  0  0  0  0
   39.6470   33.3190   48.0880 H   0  0  0  0  0  0  0  0  0  0  0  0
   38.9060   33.4040   50.3670 H   0  0  0  0  0  0  0  0  0  0  0  0
   37.0550   32.0510   51.1010 H   0  0  0  0  0  0  0  0  0  0  0  0
   35.9210   30.5750   49.6220 H   0  0  0  0  0  0  0  0  0  0  0  0
   39.9840   31.2390   45.9110 C   0  0  0  0  0  0  0  0  0  0  0  0
   38.7500   31.8950   46.1040 C   0  0  0  0  0  0  0  0  0  0  0  0
   38.2300   32.4850   44.9790 C   0  0  0  0  0  0  0  0  0  0  0  0
   38.8850   32.4150   43.8040 N   0  0  0  0  0  0  0  0  0  0  0  0
   40.0320   31.8010   43.6430 C   0  0  0  0  0  0  0  0  0  0  0  0
   40.5810   31.2140   44.6960 N   0  0  0  0  0  0  0  0  0  0  0  0
   40.4710   30.7460   46.7430 H   0  0  0  0  0  0  0  0  0  0  0  0
   37.2720   32.9940   45.1290 H   0  0  0  0  0  0  0  0  0  0  0  0
   40.5390   31.7590   42.6900 H   0  0  0  0  0  0  0  0  0  0  0  0
   35.0760   30.0690   47.1970 C   0  0  0  0  0  0  0  0  0  0  0  0
   34.5910   30.5920   48.2780 O   0  0  0  0  0  0  0  0  0  0  0  0
   36.4820   30.2740   46.9040 N   0  0  0  0  0  0  0  0  0  0  0  0
   36.9460   29.8630   46.0930 H   0  0  0  0  0  0  0  0  0  0  0  0
   34.2500   29.3480   46.3800 O   0  0  0  0  0  0  0  0  0  0  0  0
   32.8630   29.4360   46.3710 C   0  0  0  0  0  0  0  0  0  0  0  0
   32.2390   30.5250   45.9720 O   0  0  0  0  0  0  0  0  0  0  0  0
   32.0100   28.2970   46.7880 C   0  0  0  0  0  0  0  0  0  0  0  0
   31.9830   27.8310   48.0120 C   0  0  0  0  0  0  0  0  0  0  0  0
   31.1470   26.6940   48.4800 C   0  0  0  0  0  0  0  0  0  0  0  0
   30.5620   26.2160   47.6820 H   0  0  0  0  0  0  0  0  0  0  0  0
  1  6  2  0  0  0  0
  1  2  1  0  0  0  0
  2  3  2  0  0  0  0
  3  4  1  0  0  0  0
  3  8  1  0  0  0  0
  4  9  1  0  0  0  0
  5 10  1  0  0  0  0
  5  4  2  0  0  0  0
  6  5  1  0  0  0  0
  7  2  1  0  0  0  0
 11 12  1  0  0  0  0
 11 17  1  0  0  0  0
 12  1  1  0  0  0  0
 13 18  1  0  0  0  0
 13 12  2  0  0  0  0
 14 13  1  0  0  0  0
 15 14  2  0  0  0  0
 15 16  1  0  0  0  0
 16 11  2  0  0  0  0
 19 15  1  0  0  0  0
 20 21  2  0  0  0  0
 22 20  1  0  0  0  0
 22  6  1  0  0  0  0
 23 22  1  0  0  0  0
 24 20  1  0  0  0  0
 25 24  1  0  0  0  0
 25 27  1  0  0  0  0
 26 25  2  0  0  0  0
 27 28  2  0  0  0  0
 28 29  1  0  0  0  0
 30 29  1  0  0  0  0
M  END
>  <minimizedAffinity>
-5.60416746

>  <minimizedRMSD>
1.35501695

$$$$
