
 OpenBabel03272508403D

 37 39  0  0  1  0  0  0  0  0999 V2000
   33.6050   30.0090   43.6770 N   0  0  0  0  0  0  0  0  0  0  0  0
   34.1340   30.3090   45.0040 C   0  0  0  0  0  0  0  0  0  0  0  0
   35.5930   30.3740   45.0750 C   0  0  2  0  0  0  0  0  0  0  0  0
   36.2370   29.2530   44.3380 N   0  0  0  0  0  0  0  0  0  0  0  0
   35.7130   29.2820   42.9590 C   0  0  0  0  0  0  0  0  0  0  0  0
   34.2670   28.8780   43.1320 C   0  0  0  0  0  0  0  0  0  0  0  0
   33.6210   31.1900   45.3720 H   0  0  0  0  0  0  0  0  0  0  0  0
   33.8240   29.3520   45.5480 H   0  0  0  0  0  0  0  0  0  0  0  0
   36.0660   31.2230   44.5490 H   0  0  0  0  0  0  0  0  0  0  0  0
   35.9540   28.3680   44.7830 H   0  0  0  0  0  0  0  0  0  0  0  0
   35.8310   30.2720   42.5170 H   0  0  0  0  0  0  0  0  0  0  0  0
   36.2230   28.4640   42.4270 H   0  0  0  0  0  0  0  0  0  0  0  0
   34.2450   27.9980   43.8070 H   0  0  0  0  0  0  0  0  0  0  0  0
   33.8460   28.5490   42.1650 H   0  0  0  0  0  0  0  0  0  0  0  0
   37.9260   32.1020   45.7180 Cl  0  0  0  0  0  0  0  0  0  0  0  0
   37.0760   31.1090   46.9030 C   0  0  0  0  0  0  0  0  0  0  0  0
   36.0360   30.3400   46.4560 C   0  0  0  0  0  0  0  0  0  0  0  0
   35.2700   29.5050   47.2820 C   0  0  0  0  0  0  0  0  0  0  0  0
   35.6320   29.4890   48.6350 C   0  0  0  0  0  0  0  0  0  0  0  0
   36.6980   30.2720   49.0980 C   0  0  0  0  0  0  0  0  0  0  0  0
   37.4040   31.0720   48.2240 C   0  0  0  0  0  0  0  0  0  0  0  0
   34.4440   28.8400   47.2050 H   0  0  0  0  0  0  0  0  0  0  0  0
   35.1950   28.9310   49.4500 H   0  0  0  0  0  0  0  0  0  0  0  0
   37.0340   30.3100   50.1220 H   0  0  0  0  0  0  0  0  0  0  0  0
   38.5140   31.8960   48.6750 C   0  0  0  0  0  3  0  0  0  0  0  0
   38.3570   33.1310   49.0960 C   0  0  0  0  0  3  0  0  0  0  0  0
   39.4510   34.0150   49.5640 C   0  0  0  0  0  2  0  0  0  0  0  0
   39.6750   34.8530   48.8790 H   0  0  0  0  0  0  0  0  0  0  0  0
   32.5680   30.7690   43.0770 C   0  0  0  0  0  0  0  0  0  0  0  0
   32.4960   30.9630   41.6940 C   0  0  0  0  0  0  0  0  0  0  0  0
   31.4450   31.7200   41.1830 C   0  0  0  0  0  0  0  0  0  0  0  0
   30.5240   32.2430   42.0810 N   0  0  0  0  0  0  0  0  0  0  0  0
   30.6420   32.0240   43.4050 C   0  0  0  0  0  0  0  0  0  0  0  0
   31.6340   31.3070   43.9070 N   0  0  0  0  0  0  0  0  0  0  0  0
   33.2420   30.5310   41.0500 H   0  0  0  0  0  0  0  0  0  0  0  0
   31.3390   31.9020   40.1270 H   0  0  0  0  0  0  0  0  0  0  0  0
   29.9220   32.4330   44.0970 H   0  0  0  0  0  0  0  0  0  0  0  0
  1  2  1  0  0  0  0
  2  3  1  0  0  0  0
  2  7  1  0  0  0  0
  2  8  1  0  0  0  0
  3  9  1  6  0  0  0
  3 17  1  0  0  0  0
  4 10  1  0  0  0  0
  4  3  1  0  0  0  0
  5  6  1  0  0  0  0
  5  4  1  0  0  0  0
  6  1  1  0  0  0  0
  6 13  1  0  0  0  0
 11  5  1  0  0  0  0
 12  5  1  0  0  0  0
 14  6  1  0  0  0  0
 15 16  1  0  0  0  0
 16 21  1  0  0  0  0
 17 16  2  0  0  0  0
 17 18  1  0  0  0  0
 18 19  2  0  0  0  0
 19 20  1  0  0  0  0
 19 23  1  0  0  0  0
 20 24  1  0  0  0  0
 21 25  1  0  0  0  0
 21 20  2  0  0  0  0
 22 18  1  0  0  0  0
 25 26  2  0  0  0  0
 26 27  1  0  0  0  0
 28 27  1  0  0  0  0
 29  1  1  0  0  0  0
 29 34  1  0  0  0  0
 30 29  2  0  0  0  0
 31 30  1  0  0  0  0
 31 32  2  0  0  0  0
 32 33  1  0  0  0  0
 33 34  2  0  0  0  0
 33 37  1  0  0  0  0
 35 30  1  0  0  0  0
 36 31  1  0  0  0  0
M  END
>  <minimizedAffinity>
-4.62905121

>  <minimizedRMSD>
2.6371274

$$$$
