
 OpenBabel03272509493D

 28 29  0  0  0  0  0  0  0  0999 V2000
   33.7340   28.6020   48.7370 C   0  0  0  0  0  0  0  0  0  0  0  0
   34.1920   29.1220   47.8880 H   0  0  0  0  0  0  0  0  0  0  0  0
   33.1120   29.3590   49.2860 H   0  0  0  0  0  0  0  0  0  0  0  0
   32.8270   27.4840   48.3280 C   0  0  0  0  0  0  0  0  0  0  0  0
   33.0680   27.1480   47.2820 H   0  0  0  0  0  0  0  0  0  0  0  0
   32.9630   26.5840   48.9740 H   0  0  0  0  0  0  0  0  0  0  0  0
   31.3930   27.8730   48.3340 C   0  0  0  0  0  0  0  0  0  0  0  0
   30.7140   27.7390   49.5200 C   0  0  0  0  0  0  0  0  0  0  0  0
   29.3810   28.0660   49.6560 C   0  0  0  0  0  0  0  0  0  0  0  0
   28.7250   28.5300   48.5980 N   0  0  0  0  0  0  0  0  0  0  0  0
   29.3950   28.6650   47.4190 C   0  0  0  0  0  0  0  0  0  0  0  0
   30.6970   28.3480   47.2790 N   0  0  0  0  0  0  0  0  0  0  0  0
   31.2080   27.3650   50.4130 H   0  0  0  0  0  0  0  0  0  0  0  0
   28.8700   27.9530   50.5950 H   0  0  0  0  0  0  0  0  0  0  0  0
   28.9250   29.0360   46.5120 H   0  0  0  0  0  0  0  0  0  0  0  0
   34.6980   28.1490   49.6800 O   0  0  0  0  0  0  0  0  0  0  0  0
   37.1720   30.1680   51.3780 C   0  0  0  0  0  0  0  0  0  0  0  0
   37.8670   30.6810   50.2760 C   0  0  0  0  0  0  0  0  0  0  0  0
   37.4530   30.3100   48.9940 C   0  0  0  0  0  0  0  0  0  0  0  0
   36.3780   29.4550   48.9040 N   0  0  0  0  0  0  0  0  0  0  0  0
   35.7370   28.9820   49.9880 C   0  0  0  0  0  0  0  0  0  0  0  0
   36.1460   29.3490   51.2220 N   0  0  0  0  0  0  0  0  0  0  0  0
   37.5380   30.4900   52.3450 H   0  0  0  0  0  0  0  0  0  0  0  0
   38.7130   31.3540   50.3430 H   0  0  0  0  0  0  0  0  0  0  0  0
   38.1020   30.7840   47.7610 C   0  0  0  0  0  3  0  0  0  0  0  0
   38.7630   31.9290   47.7120 C   0  0  0  0  0  3  0  0  0  0  0  0
   39.3790   32.3010   46.4040 C   0  0  0  0  0  2  0  0  0  0  0  0
   38.6820   32.0210   45.5960 H   0  0  0  0  0  0  0  0  0  0  0  0
  1  3  1  0  0  0  0
  1 16  1  0  0  0  0
  2  1  1  0  0  0  0
  4  7  1  0  0  0  0
  4  1  1  0  0  0  0
  4  6  1  0  0  0  0
  5  4  1  0  0  0  0
  7  8  1  0  0  0  0
  8  9  2  0  0  0  0
  8 13  1  0  0  0  0
  9 14  1  0  0  0  0
 10  9  1  0  0  0  0
 11 10  2  0  0  0  0
 12 11  1  0  0  0  0
 12  7  2  0  0  0  0
 15 11  1  0  0  0  0
 16 21  1  0  0  0  0
 17 23  1  0  0  0  0
 18 24  1  0  0  0  0
 18 17  2  0  0  0  0
 19 18  1  0  0  0  0
 20 19  2  0  0  0  0
 20 21  1  0  0  0  0
 21 22  2  0  0  0  0
 22 17  1  0  0  0  0
 25 19  1  0  0  0  0
 26 25  2  0  0  0  0
 27 26  1  0  0  0  0
 28 27  1  0  0  0  0
M  END
>  <minimizedAffinity>
-5.28169489

>  <minimizedRMSD>
0.129823133

$$$$
