
 OpenBabel03272507363D

 14 14  0  0  0  0  0  0  0  0999 V2000
   34.4920   30.1770   47.9650 C   0  0  0  0  0  0  0  0  0  0  0  0
   34.1100   28.9110   48.4000 C   0  0  0  0  0  0  0  0  0  0  0  0
   34.9490   28.2320   49.2680 C   0  0  0  0  0  0  0  0  0  0  0  0
   36.1050   28.8270   49.6540 N   0  0  0  0  0  0  0  0  0  0  0  0
   36.4670   30.0650   49.2210 C   0  0  0  0  0  0  0  0  0  0  0  0
   35.6500   30.7060   48.3880 N   0  0  0  0  0  0  0  0  0  0  0  0
   34.7930   27.2640   49.6830 H   0  0  0  0  0  0  0  0  0  0  0  0
   37.3890   30.5380   49.5310 H   0  0  0  0  0  0  0  0  0  0  0  0
   33.5720   30.7440   47.1070 O   0  0  0  0  0  0  0  0  0  0  0  0
   33.8200   31.3750   46.3350 H   0  0  0  0  0  0  0  0  0  0  0  0
   32.8750   28.2510   47.9950 C   0  0  0  0  0  3  0  0  0  0  0  0
   32.0180   27.7520   48.8660 C   0  0  0  0  0  3  0  0  0  0  0  0
   30.7610   27.0750   48.5540 C   0  0  0  0  0  2  0  0  0  0  0  0
   30.8110   26.0160   48.8870 H   0  0  0  0  0  0  0  0  0  0  0  0
  1  6  2  0  0  0  0
  1  2  1  0  0  0  0
  2  3  2  0  0  0  0
  3  4  1  0  0  0  0
  3  7  1  0  0  0  0
  5  8  1  0  0  0  0
  5  4  2  0  0  0  0
  6  5  1  0  0  0  0
  9  1  1  0  0  0  0
 10  9  1  0  0  0  0
 11  2  1  0  0  0  0
 11 12  2  0  0  0  0
 13 12  1  0  0  0  0
 13 14  1  0  0  0  0
M  END
>  <minimizedAffinity>
-3.50751424

>  <minimizedRMSD>
6.38075304

$$$$
