
 OpenBabel03272509373D

 25 26  0  0  0  0  0  0  0  0999 V2000
   35.9590   29.4170   49.2400 C   0  0  0  0  0  0  0  0  0  0  0  0
   35.9830   29.3480   50.6390 C   0  0  0  0  0  0  0  0  0  0  0  0
   36.9530   29.9920   51.3960 C   0  0  0  0  0  0  0  0  0  0  0  0
   37.9460   30.7400   50.7680 C   0  0  0  0  0  0  0  0  0  0  0  0
   37.9090   30.7980   49.3960 C   0  0  0  0  0  0  0  0  0  0  0  0
   36.9430   30.1550   48.6630 C   0  0  0  0  0  0  0  0  0  0  0  0
   35.2100   28.7660   51.1240 H   0  0  0  0  0  0  0  0  0  0  0  0
   36.8650   29.8640   52.4610 H   0  0  0  0  0  0  0  0  0  0  0  0
   38.6520   31.1990   51.4460 H   0  0  0  0  0  0  0  0  0  0  0  0
   38.7360   31.4080   49.0610 H   0  0  0  0  0  0  0  0  0  0  0  0
   34.9070   28.7180   48.5320 C   0  0  0  0  0  0  0  0  0  0  0  0
   34.5460   27.6170   49.0870 O   0  0  0  0  0  0  0  0  0  0  0  0
   33.0020   30.8870   46.3350 C   0  0  0  0  0  0  0  0  0  0  0  0
   33.0520   30.2490   45.1010 C   0  0  0  0  0  0  0  0  0  0  0  0
   33.7440   29.0560   45.0190 C   0  0  0  0  0  0  0  0  0  0  0  0
   34.3440   28.5520   46.1340 N   0  0  0  0  0  0  0  0  0  0  0  0
   34.2820   29.1810   47.2990 C   0  0  0  0  0  0  0  0  0  0  0  0
   33.6090   30.3460   47.3880 N   0  0  0  0  0  0  0  0  0  0  0  0
   32.4760   31.8250   46.4630 H   0  0  0  0  0  0  0  0  0  0  0  0
   32.5290   30.7690   44.3100 H   0  0  0  0  0  0  0  0  0  0  0  0
   33.7680   28.5810   44.0550 H   0  0  0  0  0  0  0  0  0  0  0  0
   37.0530   30.3160   47.2310 C   0  0  0  0  0  3  0  0  0  0  0  0
   38.1180   30.6690   46.5410 C   0  0  0  0  0  3  0  0  0  0  0  0
   38.4070   30.8790   45.1190 C   0  0  0  0  0  2  0  0  0  0  0  0
   38.4270   31.9760   44.8660 H   0  0  0  0  0  0  0  0  0  0  0  0
  1  2  1  0  0  0  0
  2  7  1  0  0  0  0
  2  3  2  0  0  0  0
  3  8  1  0  0  0  0
  4  3  1  0  0  0  0
  4  9  1  0  0  0  0
  5  4  2  0  0  0  0
  6  1  2  0  0  0  0
  6  5  1  0  0  0  0
 10  5  1  0  0  0  0
 11 12  2  0  0  0  0
 11  1  1  0  0  0  0
 13 19  1  0  0  0  0
 13 18  1  0  0  0  0
 14 13  2  0  0  0  0
 15 14  1  0  0  0  0
 15 16  2  0  0  0  0
 16 17  1  0  0  0  0
 17 18  2  0  0  0  0
 17 11  1  0  0  0  0
 20 14  1  0  0  0  0
 21 15  1  0  0  0  0
 22  6  1  0  0  0  0
 23 22  2  0  0  0  0
 24 23  1  0  0  0  0
 25 24  1  0  0  0  0
M  END
>  <minimizedAffinity>
-5.03962708

>  <minimizedRMSD>
0.812108755

$$$$
