
 OpenBabel03272509533D

 38 40  0  0  0  0  0  0  0  0999 V2000
   37.2130   30.0790   51.5580 C   0  0  0  0  0  0  0  0  0  0  0  0
   37.9770   30.8030   50.6110 C   0  0  0  0  0  0  0  0  0  0  0  0
   37.6460   30.6410   49.2750 C   0  0  0  0  0  0  0  0  0  0  0  0
   36.6050   29.7930   48.9870 N   0  0  0  0  0  0  0  0  0  0  0  0
   35.9060   29.1280   49.9040 C   0  0  0  0  0  0  0  0  0  0  0  0
   36.2230   29.2810   51.2080 N   0  0  0  0  0  0  0  0  0  0  0  0
   37.5340   30.2600   52.5830 H   0  0  0  0  0  0  0  0  0  0  0  0
   38.7960   31.4690   50.8420 H   0  0  0  0  0  0  0  0  0  0  0  0
   38.8340   33.2790   49.1990 F   0  0  0  0  0  0  0  0  0  0  0  0
   38.8620   32.5160   48.1100 C   0  0  0  0  0  0  0  0  0  0  0  0
   38.3030   31.2880   48.1640 C   0  0  0  0  0  0  0  0  0  0  0  0
   38.3920   30.5840   46.9720 C   0  0  0  0  0  0  0  0  0  0  0  0
   38.9930   31.0920   45.8490 C   0  0  0  0  0  0  0  0  0  0  0  0
   39.5450   32.3390   45.8380 C   0  0  0  0  0  0  0  0  0  0  0  0
   39.4740   33.0610   47.0020 C   0  0  0  0  0  0  0  0  0  0  0  0
   37.9920   29.5710   46.8370 H   0  0  0  0  0  0  0  0  0  0  0  0
   39.0610   30.5300   44.9090 H   0  0  0  0  0  0  0  0  0  0  0  0
   40.0230   32.7610   44.9650 H   0  0  0  0  0  0  0  0  0  0  0  0
   39.9040   34.0530   47.0200 H   0  0  0  0  0  0  0  0  0  0  0  0
   34.9280   28.3540   49.3750 O   0  0  0  0  0  0  0  0  0  0  0  0
   34.3630   28.7260   48.1160 C   0  0  0  0  0  0  0  0  0  0  0  0
   35.1490   29.0470   47.4060 H   0  0  0  0  0  0  0  0  0  0  0  0
   33.7310   29.6140   48.3250 H   0  0  0  0  0  0  0  0  0  0  0  0
   33.4830   27.6380   47.5920 C   0  0  0  0  0  0  0  0  0  0  0  0
   33.7550   26.6320   47.9260 H   0  0  0  0  0  0  0  0  0  0  0  0
   33.6340   27.6220   46.4730 H   0  0  0  0  0  0  0  0  0  0  0  0
   32.0340   27.9230   47.7690 C   0  0  0  0  0  0  0  0  0  0  0  0
   31.4250   27.4910   48.9500 C   0  0  0  0  0  0  0  0  0  0  0  0
   30.0970   27.7140   49.1880 C   0  0  0  0  0  0  0  0  0  0  0  0
   29.3690   28.3480   48.2920 N   0  0  0  0  0  0  0  0  0  0  0  0
   29.9680   28.7700   47.1370 C   0  0  0  0  0  0  0  0  0  0  0  0
   31.2690   28.5740   46.8590 N   0  0  0  0  0  0  0  0  0  0  0  0
   32.0370   26.9690   49.6810 H   0  0  0  0  0  0  0  0  0  0  0  0
   29.5990   27.3870   50.1020 H   0  0  0  0  0  0  0  0  0  0  0  0
   29.1180   29.4680   46.1760 C   0  0  0  0  0  3  0  0  0  0  0  0
   27.9080   29.8520   46.4590 C   0  0  0  0  0  3  0  0  0  0  0  0
   27.0260   30.5670   45.4840 C   0  0  0  0  0  2  0  0  0  0  0  0
   27.5440   30.5190   44.5040 H   0  0  0  0  0  0  0  0  0  0  0  0
  1  7  1  0  0  0  0
  2  8  1  0  0  0  0
  2  1  2  0  0  0  0
  3  2  1  0  0  0  0
  4  3  2  0  0  0  0
  4  5  1  0  0  0  0
  5  6  2  0  0  0  0
  6  1  1  0  0  0  0
 10 11  1  0  0  0  0
 10  9  1  0  0  0  0
 11  3  1  0  0  0  0
 12 11  2  0  0  0  0
 13 12  1  0  0  0  0
 14 13  2  0  0  0  0
 14 15  1  0  0  0  0
 15 19  1  0  0  0  0
 15 10  2  0  0  0  0
 16 12  1  0  0  0  0
 17 13  1  0  0  0  0
 18 14  1  0  0  0  0
 20  5  1  0  0  0  0
 21 23  1  0  0  0  0
 21 20  1  0  0  0  0
 22 21  1  0  0  0  0
 24 27  1  0  0  0  0
 24 25  1  0  0  0  0
 24 21  1  0  0  0  0
 26 24  1  0  0  0  0
 27 28  1  0  0  0  0
 28 29  2  0  0  0  0
 28 33  1  0  0  0  0
 29 34  1  0  0  0  0
 30 29  1  0  0  0  0
 31 30  2  0  0  0  0
 32 31  1  0  0  0  0
 32 27  2  0  0  0  0
 35 36  2  0  0  0  0
 35 31  1  0  0  0  0
 37 36  1  0  0  0  0
 38 37  1  0  0  0  0
M  END
>  <minimizedAffinity>
-6.40413952

>  <minimizedRMSD>
0.68346417

$$$$
