
 OpenBabel03272506533D

 39 41  0  0  1  0  0  0  0  0999 V2000
   34.2140   29.6500   48.1670 C   0  0  1  0  0  0  0  0  0  0  0  0
   33.3210   29.7500   47.0390 C   0  0  0  0  0  0  0  0  0  0  0  0
   33.2440   28.5400   46.1340 C   0  0  0  0  0  0  0  0  0  0  0  0
   33.2350   27.2340   46.7810 C   0  0  2  0  0  0  0  0  0  0  0  0
   34.1090   27.0860   48.0180 C   0  0  0  0  0  0  0  0  0  0  0  0
   34.0540   28.3290   48.8720 C   0  0  0  0  0  0  0  0  0  0  0  0
   33.8700   30.3980   48.9560 H   0  0  0  0  0  0  0  0  0  0  0  0
   32.2640   29.8450   47.4290 H   0  0  0  0  0  0  0  0  0  0  0  0
   33.4260   30.6150   46.3790 H   0  0  0  0  0  0  0  0  0  0  0  0
   34.2580   28.6120   45.6090 H   0  0  0  0  0  0  0  0  0  0  0  0
   32.4240   28.6550   45.4240 H   0  0  0  0  0  0  0  0  0  0  0  0
   32.2420   26.8830   47.1200 H   0  0  0  0  0  0  0  0  0  0  0  0
   33.6560   26.3780   48.7090 H   0  0  0  0  0  0  0  0  0  0  0  0
   35.1540   26.9080   47.7530 H   0  0  0  0  0  0  0  0  0  0  0  0
   34.8860   28.2490   49.6030 H   0  0  0  0  0  0  0  0  0  0  0  0
   33.1200   28.3870   49.5090 H   0  0  0  0  0  0  0  0  0  0  0  0
   33.7330   26.2410   45.7950 C   0  0  0  0  0  0  0  0  0  0  0  0
   34.4710   26.7000   44.7120 C   0  0  0  0  0  0  0  0  0  0  0  0
   34.9490   25.8400   43.7430 C   0  0  0  0  0  0  0  0  0  0  0  0
   34.6840   24.5110   43.8640 C   0  0  0  0  0  0  0  0  0  0  0  0
   33.9490   24.0390   44.9330 C   0  0  0  0  0  0  0  0  0  0  0  0
   33.4730   24.9200   45.8970 C   0  0  0  0  0  0  0  0  0  0  0  0
   34.7570   27.7050   44.4400 H   0  0  0  0  0  0  0  0  0  0  0  0
   35.5310   26.1420   42.8740 H   0  0  0  0  0  0  0  0  0  0  0  0
   35.0650   23.8140   43.0950 H   0  0  0  0  0  0  0  0  0  0  0  0
   33.8070   22.9690   44.8990 H   0  0  0  0  0  0  0  0  0  0  0  0
   32.5880   24.3150   46.8260 C   0  0  0  0  0  3  0  0  0  0  0  0
   32.6290   23.4170   47.7820 C   0  0  0  0  0  3  0  0  0  0  0  0
   33.7490   22.6020   48.3180 C   0  0  0  0  0  2  0  0  0  0  0  0
   34.0090   21.7340   47.6990 H   0  0  0  0  0  0  0  0  0  0  0  0
   36.1130   30.5080   46.7930 C   0  0  0  0  0  0  0  0  0  0  0  0
   35.6220   30.0320   47.9960 C   0  0  0  0  0  0  0  0  0  0  0  0
   36.5250   29.9290   49.0620 C   0  0  0  0  0  0  0  0  0  0  0  0
   37.8220   30.2960   48.8670 N   0  0  0  0  0  0  0  0  0  0  0  0
   38.2560   30.7580   47.6670 C   0  0  0  0  0  0  0  0  0  0  0  0
   37.3880   30.8630   46.6220 N   0  0  0  0  0  0  0  0  0  0  0  0
   35.5770   30.6730   45.8770 H   0  0  0  0  0  0  0  0  0  0  0  0
   36.1910   29.5650   50.0190 H   0  0  0  0  0  0  0  0  0  0  0  0
   39.3000   31.0200   47.6210 H   0  0  0  0  0  0  0  0  0  0  0  0
  1  6  1  0  0  0  0
  1  7  1  1  0  0  0
  2  8  1  0  0  0  0
  2  1  1  0  0  0  0
  3  4  1  0  0  0  0
  3  2  1  0  0  0  0
  4 12  1  1  0  0  0
  4  5  1  0  0  0  0
  5 13  1  0  0  0  0
  5  6  1  0  0  0  0
  6 16  1  0  0  0  0
  6 15  1  0  0  0  0
  9  2  1  0  0  0  0
 10  3  1  0  0  0  0
 11  3  1  0  0  0  0
 14  5  1  0  0  0  0
 17 22  1  0  0  0  0
 17  4  1  0  0  0  0
 18 17  2  0  0  0  0
 19 20  2  0  0  0  0
 19 18  1  0  0  0  0
 20 21  1  0  0  0  0
 21 22  2  0  0  0  0
 22 27  1  0  0  0  0
 23 18  1  0  0  0  0
 24 19  1  0  0  0  0
 25 20  1  0  0  0  0
 26 21  1  0  0  0  0
 27 28  2  0  0  0  0
 28 29  1  0  0  0  0
 30 29  1  0  0  0  0
 31 32  1  0  0  0  0
 32  1  1  0  0  0  0
 32 33  2  0  0  0  0
 33 38  1  0  0  0  0
 34 33  1  0  0  0  0
 35 34  2  0  0  0  0
 36 31  2  0  0  0  0
 36 35  1  0  0  0  0
 37 31  1  0  0  0  0
 39 35  1  0  0  0  0
M  END
>  <minimizedAffinity>
-4.13507843

>  <minimizedRMSD>
1.18806469

$$$$
