
     RDKit          3D

 18 18  0  0  0  0  0  0  0  0999 V2000
   37.3065   29.9956   51.1815 C   0  0  0  0  0  0  0  0  0  0  0  0
   37.9484   30.9140   50.3552 C   0  0  0  0  0  0  0  0  0  0  0  0
   37.2731   31.3819   49.2404 C   0  0  0  0  0  0  0  0  0  0  0  0
   36.0179   30.9264   49.0011 N   0  0  0  0  0  0  0  0  0  0  0  0
   35.4014   30.0282   49.8164 C   0  0  0  0  0  0  0  0  0  0  0  0
   36.0627   29.5878   50.8841 N   0  0  0  0  0  0  0  0  0  0  0  0
   38.0840   29.6103   52.2534 O   0  0  0  0  0  0  0  0  0  0  0  0
   37.6314   32.0809   48.5211 H   0  0  0  0  0  0  0  0  0  0  0  0
   34.4015   29.6661   49.6230 H   0  0  0  0  0  0  0  0  0  0  0  0
   38.0534   28.6752   52.6781 H   0  0  0  0  0  0  0  0  0  0  0  0
   39.2971   31.4148   50.5910 C   0  0  0  0  0  0  0  0  0  0  0  0
   39.5324   32.6263   51.0592 C   0  0  0  0  0  0  0  0  0  0  0  0
   40.8453   33.2109   51.3254 C   0  0  0  0  0  0  0  0  0  0  0  0
   41.0129   34.0788   50.6514 H   0  0  0  0  0  0  0  0  0  0  0  0
   40.1789   30.8126   50.3918 H   0  0  0  0  0  0  0  0  0  0  0  0
   38.8391   33.3849   51.3248 H   0  0  0  0  0  0  0  0  0  0  0  0
   40.9722   33.4897   52.4086 H   0  0  0  0  0  0  0  0  0  0  0  0
   41.6728   32.4981   51.0460 H   0  0  0  0  0  0  0  0  0  0  0  0
  1  7  1  0
  2  1  2  0
  3  2  1  0
  4  3  2  0
  4  5  1  0
  5  6  2  0
  6  1  1  0
  3  8  1  0
  5  9  1  0
  7 10  1  0
 11 12  2  3
 12 13  1  0
 13 14  1  0
 11 15  1  0
 12 16  1  0
 13 17  1  0
 13 18  1  0
  2 11  1  0
M  ISO  4   8  14   9  14  10   3  14   8
M  END
>  <DihAtoms>  (1) 
0,1,10,11

>  <DihDeg>  (1) 
-179.69728947522051

$$$$
