
 OpenBabel03272509373D

 25 26  0  0  1  0  0  0  0  0999 V2000
   35.9580   29.4140   49.2380 C   0  0  0  0  0  0  0  0  0  0  0  0
   35.9980   29.3360   50.6350 C   0  0  0  0  0  0  0  0  0  0  0  0
   36.9760   29.9750   51.3850 C   0  0  0  0  0  0  0  0  0  0  0  0
   37.9640   30.7250   50.7510 C   0  0  0  0  0  0  0  0  0  0  0  0
   37.9120   30.7910   49.3800 C   0  0  0  0  0  0  0  0  0  0  0  0
   36.9360   30.1530   48.6540 C   0  0  0  0  0  0  0  0  0  0  0  0
   35.2290   28.7530   51.1260 H   0  0  0  0  0  0  0  0  0  0  0  0
   36.9000   29.8410   52.4500 H   0  0  0  0  0  0  0  0  0  0  0  0
   38.6780   31.1790   51.4230 H   0  0  0  0  0  0  0  0  0  0  0  0
   38.7350   31.4010   49.0390 H   0  0  0  0  0  0  0  0  0  0  0  0
   34.8970   28.7210   48.5370 C   0  0  1  0  0  3  0  0  0  0  0  0
   34.5240   27.6290   49.1030 O   0  0  0  0  0  1  0  0  0  0  0  0
   33.0050   30.8860   46.3250 C   0  0  0  0  0  0  0  0  0  0  0  0
   33.0530   30.2400   45.0950 C   0  0  0  0  0  0  0  0  0  0  0  0
   33.7390   29.0430   45.0210 C   0  0  0  0  0  0  0  0  0  0  0  0
   34.3350   28.5420   46.1400 N   0  0  0  0  0  0  0  0  0  0  0  0
   34.2750   29.1790   47.3010 C   0  0  0  0  0  0  0  0  0  0  0  0
   33.6080   30.3480   47.3820 N   0  0  0  0  0  0  0  0  0  0  0  0
   32.4840   31.8270   46.4470 H   0  0  0  0  0  0  0  0  0  0  0  0
   32.5340   30.7580   44.3010 H   0  0  0  0  0  0  0  0  0  0  0  0
   33.7620   28.5620   44.0600 H   0  0  0  0  0  0  0  0  0  0  0  0
   37.0310   30.3230   47.2220 C   0  0  0  0  0  3  0  0  0  0  0  0
   37.5650   31.3340   46.5660 C   0  0  0  0  0  3  0  0  0  0  0  0
   37.7450   31.6680   45.1490 C   0  0  0  0  0  2  0  0  0  0  0  0
   36.9850   32.4280   44.8110 H   0  0  0  0  0  0  0  0  0  0  0  0
  1  2  1  0  0  0  0
  2  7  1  0  0  0  0
  2  3  2  0  0  0  0
  3  8  1  0  0  0  0
  4  3  1  0  0  0  0
  4  9  1  0  0  0  0
  5  4  2  0  0  0  0
  6  1  2  0  0  0  0
  6  5  1  0  0  0  0
 10  5  1  0  0  0  0
 11 12  1  1  0  0  0
 11  1  1  0  0  0  0
 13 19  1  0  0  0  0
 13 18  1  0  0  0  0
 14 13  2  0  0  0  0
 15 14  1  0  0  0  0
 15 16  2  0  0  0  0
 16 17  1  0  0  0  0
 17 18  2  0  0  0  0
 17 11  1  0  0  0  0
 20 14  1  0  0  0  0
 21 15  1  0  0  0  0
 22  6  1  0  0  0  0
 23 22  2  0  0  0  0
 24 23  1  0  0  0  0
 25 24  1  0  0  0  0
M  END
>  <minimizedAffinity>
-5.07993221

>  <minimizedRMSD>
0.581298769

$$$$
