REMARK  Name = 
REMARK  3 active torsions:
REMARK  status: ('A' for Active; 'I' for Inactive)
REMARK    1  A    between atoms: C_2  and  C_20
REMARK    2  A    between atoms: C_3  and  C_7
REMARK    3  A    between atoms: C_21  and  C_22
REMARK                            x       y       z     vdW  Elec       q    Type
REMARK                         _______ _______ _______ _____ _____    ______ ____
ROOT
ATOM      1  C   UNL     1      37.248  30.075  51.479  0.00  0.00    +0.000 A 
ATOM      2  C   UNL     1      37.990  30.779  50.498  0.00  0.00    +0.000 A 
ATOM      3  C   UNL     1      37.662  30.630  49.178  0.00  0.00    +0.000 A 
ATOM      4  N   UNL     1      36.636  29.800  48.909  0.00  0.00    +0.000 NA
ATOM      5  C   UNL     1      35.938  29.132  49.848  0.00  0.00    +0.000 A 
ATOM      6  N   UNL     1      36.241  29.270  51.117  0.00  0.00    +0.000 NA
ATOM      7  H   UNL     1      37.413  30.117  52.544  0.00  0.00    +0.000 HD
ATOM      8  H   UNL     1      35.162  28.515  49.486  0.00  0.00    +0.000 HD
ENDROOT
BRANCH   3   9
ATOM      9  C   UNL     1      38.331  31.299  48.078  0.00  0.00    +0.000 A 
ATOM     10  C   UNL     1      38.800  32.583  48.341  0.00  0.00    +0.000 A 
ATOM     11  C   UNL     1      39.492  33.308  47.387  0.00  0.00    +0.000 A 
ATOM     12  C   UNL     1      39.684  32.681  46.161  0.00  0.00    +0.000 A 
ATOM     13  C   UNL     1      39.230  31.392  45.843  0.00  0.00    +0.000 A 
ATOM     14  C   UNL     1      38.536  30.703  46.849  0.00  0.00    +0.000 A 
ATOM     15  H   UNL     1      38.700  33.207  49.213  0.00  0.00    +0.000 HD
ATOM     16  H   UNL     1      39.901  34.289  47.465  0.00  0.00    +0.000 HD
ATOM     17  H   UNL     1      40.221  33.160  45.323  0.00  0.00    +0.000 HD
ATOM     18  H   UNL     1      39.401  30.950  44.879  0.00  0.00    +0.000 HD
ATOM     19  H   UNL     1      38.154  29.712  46.691  0.00  0.00    +0.000 HD
ENDBRANCH   3   9
BRANCH   2  20
ATOM     20  C   UNL     1      39.110  31.538  50.896  0.00  0.00    +0.000 C 
ATOM     21  C   UNL     1      40.057  32.300  51.295  0.00  0.00    +0.000 C 
BRANCH  21  22
ATOM     22  C   UNL     1      40.581  33.519  51.928  0.00  0.00    +0.000 C 
ATOM     23  H   UNL     1      41.156  34.115  51.193  0.00  0.00    +0.000 HD
ENDBRANCH  21  22
ENDBRANCH   2  20
TORSDOF 3
