
 OpenBabel03272502083D

 34 36  0  0  0  0  0  0  0  0999 V2000
   36.0000   28.0780   34.8640 F   0  0  0  0  0  0  0  0  0  0  0  0
   36.1540   28.7560   33.6820 C   0  0  0  0  0  0  0  0  0  0  0  0
   36.8370   28.2120   32.6100 C   0  0  0  0  0  0  0  0  0  0  0  0
   36.9380   28.9490   31.4460 C   0  0  0  0  0  0  0  0  0  0  0  0
   36.3630   30.2200   31.3530 C   0  0  0  0  0  0  0  0  0  0  0  0
   35.6940   30.7040   32.4640 C   0  0  0  0  0  0  0  0  0  0  0  0
   35.5720   30.0210   33.6150 C   0  0  0  0  0  0  0  0  0  0  0  0
   37.4820   28.4630   30.6550 H   0  0  0  0  0  0  0  0  0  0  0  0
   36.4670   30.7550   30.4280 H   0  0  0  0  0  0  0  0  0  0  0  0
   35.2760   31.6900   32.3180 H   0  0  0  0  0  0  0  0  0  0  0  0
   32.5070   29.4320   33.8850 Br  0  0  0  0  0  0  0  0  0  0  0  0
   33.5540   30.4580   35.1020 C   0  0  0  0  0  0  0  0  0  0  0  0
   34.8690   30.5950   34.7450 C   0  0  0  0  0  0  0  0  0  0  0  0
   35.6970   31.3740   35.5730 C   0  0  0  0  0  0  0  0  0  0  0  0
   35.2000   31.9690   36.6910 C   0  0  0  0  0  0  0  0  0  0  0  0
   33.8710   31.7890   36.9910 C   0  0  0  0  0  0  0  0  0  0  0  0
   33.0110   31.0170   36.1880 C   0  0  0  0  0  0  0  0  0  0  0  0
   36.7470   31.5400   35.3730 H   0  0  0  0  0  0  0  0  0  0  0  0
   35.7850   32.5810   37.3690 H   0  0  0  0  0  0  0  0  0  0  0  0
   33.4280   32.2460   37.8780 H   0  0  0  0  0  0  0  0  0  0  0  0
   31.6910   30.7950   36.4250 O   0  0  0  0  0  0  0  0  0  0  0  0
   30.9130   31.3920   36.2480 H   0  0  0  0  0  0  0  0  0  0  0  0
   38.6370   26.8240   33.4000 C   0  0  0  0  0  0  0  0  0  0  0  0
   37.3800   26.9050   32.8310 C   0  0  0  0  0  0  0  0  0  0  0  0
   36.7390   25.7210   32.5240 C   0  0  0  0  0  0  0  0  0  0  0  0
   37.3450   24.5340   32.7840 N   0  0  0  0  0  0  0  0  0  0  0  0
   38.5540   24.4920   33.3320 C   0  0  0  0  0  0  0  0  0  0  0  0
   39.2000   25.6160   33.6410 N   0  0  0  0  0  0  0  0  0  0  0  0
   39.2460   27.6850   33.6870 H   0  0  0  0  0  0  0  0  0  0  0  0
   35.7650   25.8270   32.0820 H   0  0  0  0  0  0  0  0  0  0  0  0
   39.1890   23.1940   33.6050 C   0  0  0  0  0  3  0  0  0  0  0  0
   38.9990   22.5560   34.7500 C   0  0  0  0  0  3  0  0  0  0  0  0
   38.1430   23.1080   35.8110 C   0  0  0  0  0  2  0  0  0  0  0  0
   37.0730   23.1950   35.5530 H   0  0  0  0  0  0  0  0  0  0  0  0
  2  1  1  0  0  0  0
  3 24  1  0  0  0  0
  3  2  2  0  0  0  0
  4  3  1  0  0  0  0
  5  4  2  0  0  0  0
  5  6  1  0  0  0  0
  6  7  2  0  0  0  0
  7  2  1  0  0  0  0
  7 13  1  0  0  0  0
  8  4  1  0  0  0  0
  9  5  1  0  0  0  0
 10  6  1  0  0  0  0
 11 12  1  0  0  0  0
 12 17  1  0  0  0  0
 13 12  2  0  0  0  0
 13 14  1  0  0  0  0
 14 15  2  0  0  0  0
 15 16  1  0  0  0  0
 15 19  1  0  0  0  0
 16 20  1  0  0  0  0
 17 21  1  0  0  0  0
 17 16  2  0  0  0  0
 18 14  1  0  0  0  0
 22 21  1  0  0  0  0
 23 28  1  0  0  0  0
 23 29  1  0  0  0  0
 24 23  2  0  0  0  0
 25 26  2  0  0  0  0
 25 24  1  0  0  0  0
 26 27  1  0  0  0  0
 27 31  1  0  0  0  0
 27 28  2  0  0  0  0
 30 25  1  0  0  0  0
 31 32  2  0  0  0  0
 32 33  1  0  0  0  0
 34 33  1  0  0  0  0
M  END
>  <minimizedAffinity>
-5.87290716

$$$$

 OpenBabel03272502083D

 34 36  0  0  0  0  0  0  0  0999 V2000
   35.8950   28.1880   34.9410 F   0  0  0  0  0  0  0  0  0  0  0  0
   35.7720   28.8520   33.7470 C   0  0  0  0  0  0  0  0  0  0  0  0
   36.4490   28.4460   32.6120 C   0  0  0  0  0  0  0  0  0  0  0  0
   36.2640   29.1560   31.4410 C   0  0  0  0  0  0  0  0  0  0  0  0
   35.4080   30.2620   31.4040 C   0  0  0  0  0  0  0  0  0  0  0  0
   34.7620   30.6130   32.5770 C   0  0  0  0  0  0  0  0  0  0  0  0
   34.9150   29.9500   33.7360 C   0  0  0  0  0  0  0  0  0  0  0  0
   36.8210   28.7840   30.6000 H   0  0  0  0  0  0  0  0  0  0  0  0
   35.2950   30.7820   30.4710 H   0  0  0  0  0  0  0  0  0  0  0  0
   34.1190   31.4750   32.4720 H   0  0  0  0  0  0  0  0  0  0  0  0
   36.2520   32.1780   35.4860 Br  0  0  0  0  0  0  0  0  0  0  0  0
   34.5700   31.3530   35.8320 C   0  0  0  0  0  0  0  0  0  0  0  0
   34.2170   30.3820   34.9320 C   0  0  0  0  0  0  0  0  0  0  0  0
   33.0070   29.6990   35.1440 C   0  0  0  0  0  0  0  0  0  0  0  0
   32.2170   29.9980   36.2100 C   0  0  0  0  0  0  0  0  0  0  0  0
   32.6310   30.9830   37.0740 C   0  0  0  0  0  0  0  0  0  0  0  0
   33.8340   31.6890   36.8960 C   0  0  0  0  0  0  0  0  0  0  0  0
   32.6460   28.9180   34.4880 H   0  0  0  0  0  0  0  0  0  0  0  0
   31.2740   29.5070   36.4290 H   0  0  0  0  0  0  0  0  0  0  0  0
   32.0300   31.2580   37.9430 H   0  0  0  0  0  0  0  0  0  0  0  0
   34.3030   32.6750   37.7060 O   0  0  0  0  0  0  0  0  0  0  0  0
   34.7700   32.5970   38.5840 H   0  0  0  0  0  0  0  0  0  0  0  0
   36.7300   26.0570   32.5730 C   0  0  0  0  0  0  0  0  0  0  0  0
   37.2940   27.3020   32.7790 C   0  0  0  0  0  0  0  0  0  0  0  0
   38.6300   27.3500   33.1230 C   0  0  0  0  0  0  0  0  0  0  0  0
   39.3410   26.2000   33.2470 N   0  0  0  0  0  0  0  0  0  0  0  0
   38.7680   25.0190   33.0420 C   0  0  0  0  0  0  0  0  0  0  0  0
   37.4800   24.9380   32.7080 N   0  0  0  0  0  0  0  0  0  0  0  0
   35.6860   25.8850   32.2980 H   0  0  0  0  0  0  0  0  0  0  0  0
   39.0300   28.3360   33.2760 H   0  0  0  0  0  0  0  0  0  0  0  0
   39.5590   23.7870   33.1810 C   0  0  0  0  0  3  0  0  0  0  0  0
   39.7060   23.1870   34.3530 C   0  0  0  0  0  3  0  0  0  0  0  0
   39.0890   23.7170   35.5770 C   0  0  0  0  0  2  0  0  0  0  0  0
   37.9850   23.7090   35.5870 H   0  0  0  0  0  0  0  0  0  0  0  0
  2  1  1  0  0  0  0
  3 24  1  0  0  0  0
  3  2  2  0  0  0  0
  4  3  1  0  0  0  0
  5  4  2  0  0  0  0
  5  6  1  0  0  0  0
  6  7  2  0  0  0  0
  7  2  1  0  0  0  0
  7 13  1  0  0  0  0
  8  4  1  0  0  0  0
  9  5  1  0  0  0  0
 10  6  1  0  0  0  0
 11 12  1  0  0  0  0
 12 17  1  0  0  0  0
 13 14  1  0  0  0  0
 13 12  2  0  0  0  0
 14 15  2  0  0  0  0
 15 19  1  0  0  0  0
 15 16  1  0  0  0  0
 16 20  1  0  0  0  0
 17 16  2  0  0  0  0
 17 21  1  0  0  0  0
 18 14  1  0  0  0  0
 21 22  1  0  0  0  0
 23 28  2  0  0  0  0
 23 24  1  0  0  0  0
 24 25  2  0  0  0  0
 25 26  1  0  0  0  0
 25 30  1  0  0  0  0
 27 31  1  0  0  0  0
 27 26  2  0  0  0  0
 28 27  1  0  0  0  0
 29 23  1  0  0  0  0
 31 32  2  0  0  0  0
 32 33  1  0  0  0  0
 33 34  1  0  0  0  0
M  END
>  <minimizedAffinity>
-5.82323837

$$$$

 OpenBabel03272502083D

 34 36  0  0  0  0  0  0  0  0999 V2000
   35.4710   28.2580   34.0030 F   0  0  0  0  0  0  0  0  0  0  0  0
   35.8530   28.9910   32.9070 C   0  0  0  0  0  0  0  0  0  0  0  0
   35.7840   30.3720   32.8920 C   0  0  0  0  0  0  0  0  0  0  0  0
   36.2000   31.0430   31.7590 C   0  0  0  0  0  0  0  0  0  0  0  0
   36.6800   30.3410   30.6480 C   0  0  0  0  0  0  0  0  0  0  0  0
   36.7210   28.9590   30.7320 C   0  0  0  0  0  0  0  0  0  0  0  0
   36.3260   28.2680   31.8150 C   0  0  0  0  0  0  0  0  0  0  0  0
   36.1180   32.1140   31.8180 H   0  0  0  0  0  0  0  0  0  0  0  0
   36.9920   30.9060   29.7900 H   0  0  0  0  0  0  0  0  0  0  0  0
   37.1020   28.4870   29.8380 H   0  0  0  0  0  0  0  0  0  0  0  0
   38.7260   26.9120   33.3020 Br  0  0  0  0  0  0  0  0  0  0  0  0
   37.2980   25.9990   32.4330 C   0  0  0  0  0  0  0  0  0  0  0  0
   36.3830   26.8200   31.8280 C   0  0  0  0  0  0  0  0  0  0  0  0
   35.3210   26.2180   31.1300 C   0  0  0  0  0  0  0  0  0  0  0  0
   35.2110   24.8640   31.0630 C   0  0  0  0  0  0  0  0  0  0  0  0
   36.1640   24.1000   31.6940 C   0  0  0  0  0  0  0  0  0  0  0  0
   37.2410   24.6640   32.4010 C   0  0  0  0  0  0  0  0  0  0  0  0
   34.5510   26.7830   30.6220 H   0  0  0  0  0  0  0  0  0  0  0  0
   34.4180   24.3400   30.5420 H   0  0  0  0  0  0  0  0  0  0  0  0
   36.1170   23.0090   31.6680 H   0  0  0  0  0  0  0  0  0  0  0  0
   38.2140   23.9710   33.0490 O   0  0  0  0  0  0  0  0  0  0  0  0
   39.0210   23.5230   32.6730 H   0  0  0  0  0  0  0  0  0  0  0  0
   33.9980   31.4990   34.0450 C   0  0  0  0  0  0  0  0  0  0  0  0
   35.2750   30.9730   34.0890 C   0  0  0  0  0  0  0  0  0  0  0  0
   35.9610   31.0590   35.2840 C   0  0  0  0  0  0  0  0  0  0  0  0
   35.3780   31.6430   36.3610 N   0  0  0  0  0  0  0  0  0  0  0  0
   34.1480   32.1390   36.2850 C   0  0  0  0  0  0  0  0  0  0  0  0
   33.4580   32.0720   35.1470 N   0  0  0  0  0  0  0  0  0  0  0  0
   33.3530   31.4940   33.1620 H   0  0  0  0  0  0  0  0  0  0  0  0
   36.9510   30.6390   35.2760 H   0  0  0  0  0  0  0  0  0  0  0  0
   33.5380   32.7680   37.4660 C   0  0  0  0  0  3  0  0  0  0  0  0
   33.7380   34.0460   37.7530 C   0  0  0  0  0  3  0  0  0  0  0  0
   34.5790   34.9060   36.9080 C   0  0  0  0  0  2  0  0  0  0  0  0
   34.1970   35.0800   35.8880 H   0  0  0  0  0  0  0  0  0  0  0  0
  2  1  1  0  0  0  0
  3  2  1  0  0  0  0
  3 24  1  0  0  0  0
  4  8  1  0  0  0  0
  4  3  2  0  0  0  0
  5  6  2  0  0  0  0
  5  4  1  0  0  0  0
  6  7  1  0  0  0  0
  7 13  1  0  0  0  0
  7  2  2  0  0  0  0
  9  5  1  0  0  0  0
 10  6  1  0  0  0  0
 12 11  1  0  0  0  0
 13 12  2  0  0  0  0
 14 13  1  0  0  0  0
 15 14  2  0  0  0  0
 15 16  1  0  0  0  0
 16 17  2  0  0  0  0
 17 12  1  0  0  0  0
 17 21  1  0  0  0  0
 18 14  1  0  0  0  0
 19 15  1  0  0  0  0
 20 16  1  0  0  0  0
 22 21  1  0  0  0  0
 23 24  2  0  0  0  0
 23 28  1  0  0  0  0
 24 25  1  0  0  0  0
 25 26  2  0  0  0  0
 27 26  1  0  0  0  0
 27 31  1  0  0  0  0
 28 27  2  0  0  0  0
 29 23  1  0  0  0  0
 30 25  1  0  0  0  0
 31 32  2  0  0  0  0
 33 32  1  0  0  0  0
 34 33  1  0  0  0  0
M  END
>  <minimizedAffinity>
-5.82226944

$$$$

 OpenBabel03272502083D

 34 36  0  0  0  0  0  0  0  0999 V2000
   35.4970   28.3930   34.4130 F   0  0  0  0  0  0  0  0  0  0  0  0
   35.7860   29.2780   33.4050 C   0  0  0  0  0  0  0  0  0  0  0  0
   36.4460   28.8860   32.2560 C   0  0  0  0  0  0  0  0  0  0  0  0
   36.6890   29.8300   31.2770 C   0  0  0  0  0  0  0  0  0  0  0  0
   36.2780   31.1560   31.4460 C   0  0  0  0  0  0  0  0  0  0  0  0
   35.6230   31.4790   32.6220 C   0  0  0  0  0  0  0  0  0  0  0  0
   35.3660   30.5930   33.5980 C   0  0  0  0  0  0  0  0  0  0  0  0
   37.2050   29.4540   30.4120 H   0  0  0  0  0  0  0  0  0  0  0  0
   36.4890   31.8540   30.6580 H   0  0  0  0  0  0  0  0  0  0  0  0
   35.3360   32.5200   32.6810 H   0  0  0  0  0  0  0  0  0  0  0  0
   32.3240   29.9020   33.8800 Br  0  0  0  0  0  0  0  0  0  0  0  0
   33.3880   30.7930   35.1860 C   0  0  0  0  0  0  0  0  0  0  0  0
   34.6890   31.0040   34.8120 C   0  0  0  0  0  0  0  0  0  0  0  0
   35.5260   31.6930   35.7070 C   0  0  0  0  0  0  0  0  0  0  0  0
   35.0530   32.1310   36.9050 C   0  0  0  0  0  0  0  0  0  0  0  0
   33.7380   31.8830   37.2180 C   0  0  0  0  0  0  0  0  0  0  0  0
   32.8690   31.1980   36.3490 C   0  0  0  0  0  0  0  0  0  0  0  0
   36.5660   31.9070   35.4990 H   0  0  0  0  0  0  0  0  0  0  0  0
   35.6460   32.6670   37.6380 H   0  0  0  0  0  0  0  0  0  0  0  0
   33.3130   32.2150   38.1680 H   0  0  0  0  0  0  0  0  0  0  0  0
   31.5610   30.9170   36.5940 O   0  0  0  0  0  0  0  0  0  0  0  0
   30.7660   31.5130   36.5160 H   0  0  0  0  0  0  0  0  0  0  0  0
   35.9490   26.6350   31.5650 C   0  0  0  0  0  0  0  0  0  0  0  0
   36.8150   27.5030   32.2030 C   0  0  0  0  0  0  0  0  0  0  0  0
   37.9740   26.9730   32.7360 C   0  0  0  0  0  0  0  0  0  0  0  0
   38.2290   25.6450   32.6210 N   0  0  0  0  0  0  0  0  0  0  0  0
   37.3750   24.8390   32.0010 C   0  0  0  0  0  0  0  0  0  0  0  0
   36.2480   25.3170   31.4750 N   0  0  0  0  0  0  0  0  0  0  0  0
   35.0020   26.9280   31.1030 H   0  0  0  0  0  0  0  0  0  0  0  0
   38.6190   27.6810   33.2250 H   0  0  0  0  0  0  0  0  0  0  0  0
   37.6740   23.4030   31.8890 C   0  0  0  0  0  3  0  0  0  0  0  0
   38.3160   22.9080   30.8410 C   0  0  0  0  0  3  0  0  0  0  0  0
   38.7660   23.7650   29.7340 C   0  0  0  0  0  2  0  0  0  0  0  0
   39.5400   24.5060   29.9980 H   0  0  0  0  0  0  0  0  0  0  0  0
  2  7  1  0  0  0  0
  2  1  1  0  0  0  0
  3  2  2  0  0  0  0
  4  5  2  0  0  0  0
  4  3  1  0  0  0  0
  5  6  1  0  0  0  0
  6 10  1  0  0  0  0
  6  7  2  0  0  0  0
  7 13  1  0  0  0  0
  8  4  1  0  0  0  0
  9  5  1  0  0  0  0
 11 12  1  0  0  0  0
 12 17  1  0  0  0  0
 13 12  2  0  0  0  0
 13 14  1  0  0  0  0
 14 15  2  0  0  0  0
 15 16  1  0  0  0  0
 15 19  1  0  0  0  0
 16 20  1  0  0  0  0
 17 21  1  0  0  0  0
 17 16  2  0  0  0  0
 18 14  1  0  0  0  0
 22 21  1  0  0  0  0
 23 24  1  0  0  0  0
 24  3  1  0  0  0  0
 24 25  2  0  0  0  0
 25 30  1  0  0  0  0
 26 25  1  0  0  0  0
 27 26  2  0  0  0  0
 28 23  2  0  0  0  0
 28 27  1  0  0  0  0
 29 23  1  0  0  0  0
 31 27  1  0  0  0  0
 32 31  2  0  0  0  0
 33 34  1  0  0  0  0
 33 32  1  0  0  0  0
M  END
>  <minimizedAffinity>
-5.72279501

$$$$

 OpenBabel03272502083D

 34 36  0  0  0  0  0  0  0  0999 V2000
   35.7580   27.8720   34.9200 F   0  0  0  0  0  0  0  0  0  0  0  0
   36.1490   28.2980   33.6760 C   0  0  0  0  0  0  0  0  0  0  0  0
   37.2520   27.7670   33.0340 C   0  0  0  0  0  0  0  0  0  0  0  0
   37.5760   28.2350   31.7760 C   0  0  0  0  0  0  0  0  0  0  0  0
   36.8040   29.2270   31.1620 C   0  0  0  0  0  0  0  0  0  0  0  0
   35.7130   29.7150   31.8620 C   0  0  0  0  0  0  0  0  0  0  0  0
   35.3640   29.2880   33.0870 C   0  0  0  0  0  0  0  0  0  0  0  0
   38.4450   27.7770   31.3380 H   0  0  0  0  0  0  0  0  0  0  0  0
   37.0940   29.5590   30.1840 H   0  0  0  0  0  0  0  0  0  0  0  0
   35.1660   30.4780   31.3260 H   0  0  0  0  0  0  0  0  0  0  0  0
   35.8990   31.2990   35.4280 Br  0  0  0  0  0  0  0  0  0  0  0  0
   34.1850   30.7710   34.7860 C   0  0  0  0  0  0  0  0  0  0  0  0
   34.2170   29.8540   33.7680 C   0  0  0  0  0  0  0  0  0  0  0  0
   32.9890   29.3840   33.2690 C   0  0  0  0  0  0  0  0  0  0  0  0
   31.8120   29.8320   33.7830 C   0  0  0  0  0  0  0  0  0  0  0  0
   31.8530   30.7540   34.8010 C   0  0  0  0  0  0  0  0  0  0  0  0
   33.0600   31.2470   35.3280 C   0  0  0  0  0  0  0  0  0  0  0  0
   32.9140   28.6600   32.4680 H   0  0  0  0  0  0  0  0  0  0  0  0
   30.8340   29.5090   33.4420 H   0  0  0  0  0  0  0  0  0  0  0  0
   30.9340   31.1430   35.2450 H   0  0  0  0  0  0  0  0  0  0  0  0
   33.1750   32.1590   36.3300 O   0  0  0  0  0  0  0  0  0  0  0  0
   33.0900   32.0230   37.3140 H   0  0  0  0  0  0  0  0  0  0  0  0
   37.5950   25.4430   33.5550 C   0  0  0  0  0  0  0  0  0  0  0  0
   37.9590   26.7590   33.7660 C   0  0  0  0  0  0  0  0  0  0  0  0
   38.9830   27.0040   34.6610 C   0  0  0  0  0  0  0  0  0  0  0  0
   39.5910   25.9700   35.2950 N   0  0  0  0  0  0  0  0  0  0  0  0
   39.2160   24.7160   35.0690 C   0  0  0  0  0  0  0  0  0  0  0  0
   38.2330   24.4450   34.2120 N   0  0  0  0  0  0  0  0  0  0  0  0
   36.8030   25.1180   32.8750 H   0  0  0  0  0  0  0  0  0  0  0  0
   39.2350   28.0400   34.7980 H   0  0  0  0  0  0  0  0  0  0  0  0
   39.8920   23.6120   35.7690 C   0  0  0  0  0  3  0  0  0  0  0  0
   39.4580   23.1630   36.9370 C   0  0  0  0  0  3  0  0  0  0  0  0
   38.2800   23.7410   37.5990 C   0  0  0  0  0  2  0  0  0  0  0  0
   37.3240   23.5990   37.0650 H   0  0  0  0  0  0  0  0  0  0  0  0
  2  1  1  0  0  0  0
  3  2  2  0  0  0  0
  3 24  1  0  0  0  0
  4  3  1  0  0  0  0
  5  4  2  0  0  0  0
  5  6  1  0  0  0  0
  6  7  2  0  0  0  0
  7  2  1  0  0  0  0
  7 13  1  0  0  0  0
  8  4  1  0  0  0  0
  9  5  1  0  0  0  0
 10  6  1  0  0  0  0
 12 17  1  0  0  0  0
 12 11  1  0  0  0  0
 13 12  2  0  0  0  0
 14 13  1  0  0  0  0
 14 15  2  0  0  0  0
 15 16  1  0  0  0  0
 16 20  1  0  0  0  0
 16 17  2  0  0  0  0
 17 21  1  0  0  0  0
 18 14  1  0  0  0  0
 19 15  1  0  0  0  0
 21 22  1  0  0  0  0
 23 24  2  0  0  0  0
 23 28  1  0  0  0  0
 24 25  1  0  0  0  0
 25 30  1  0  0  0  0
 25 26  2  0  0  0  0
 27 26  1  0  0  0  0
 27 31  1  0  0  0  0
 28 27  2  0  0  0  0
 29 23  1  0  0  0  0
 31 32  2  0  0  0  0
 32 33  1  0  0  0  0
 34 33  1  0  0  0  0
M  END
>  <minimizedAffinity>
-5.6035676

$$$$

 OpenBabel03272502083D

 34 36  0  0  0  0  0  0  0  0999 V2000
   36.2200   27.4170   34.8410 F   0  0  0  0  0  0  0  0  0  0  0  0
   36.4730   27.9760   33.6130 C   0  0  0  0  0  0  0  0  0  0  0  0
   36.0070   29.2320   33.2730 C   0  0  0  0  0  0  0  0  0  0  0  0
   36.3140   29.7360   32.0240 C   0  0  0  0  0  0  0  0  0  0  0  0
   37.0790   28.9900   31.1210 C   0  0  0  0  0  0  0  0  0  0  0  0
   37.5120   27.7400   31.5280 C   0  0  0  0  0  0  0  0  0  0  0  0
   37.2360   27.2130   32.7330 C   0  0  0  0  0  0  0  0  0  0  0  0
   35.9190   30.7170   31.8280 H   0  0  0  0  0  0  0  0  0  0  0  0
   37.2920   29.4230   30.1620 H   0  0  0  0  0  0  0  0  0  0  0  0
   38.0970   27.2240   30.7790 H   0  0  0  0  0  0  0  0  0  0  0  0
   39.6680   27.0080   34.6970 Br  0  0  0  0  0  0  0  0  0  0  0  0
   38.7210   25.5370   33.9430 C   0  0  0  0  0  0  0  0  0  0  0  0
   37.7110   25.8900   33.0870 C   0  0  0  0  0  0  0  0  0  0  0  0
   36.9920   24.8570   32.4590 C   0  0  0  0  0  0  0  0  0  0  0  0
   37.2940   23.5530   32.6990 C   0  0  0  0  0  0  0  0  0  0  0  0
   38.3180   23.2700   33.5710 C   0  0  0  0  0  0  0  0  0  0  0  0
   39.0610   24.2740   34.2180 C   0  0  0  0  0  0  0  0  0  0  0  0
   36.1790   25.0380   31.7680 H   0  0  0  0  0  0  0  0  0  0  0  0
   36.7780   22.7130   32.2470 H   0  0  0  0  0  0  0  0  0  0  0  0
   38.5970   22.2380   33.7950 H   0  0  0  0  0  0  0  0  0  0  0  0
   40.0820   24.0670   35.0910 O   0  0  0  0  0  0  0  0  0  0  0  0
   41.0330   23.8350   34.9010 H   0  0  0  0  0  0  0  0  0  0  0  0
   35.8990   30.7620   35.1270 C   0  0  0  0  0  0  0  0  0  0  0  0
   35.2350   29.8930   34.2820 C   0  0  0  0  0  0  0  0  0  0  0  0
   33.8760   29.7330   34.4680 C   0  0  0  0  0  0  0  0  0  0  0  0
   33.2410   30.4180   35.4530 N   0  0  0  0  0  0  0  0  0  0  0  0
   33.9100   31.2450   36.2480 C   0  0  0  0  0  0  0  0  0  0  0  0
   35.2210   31.4230   36.0950 N   0  0  0  0  0  0  0  0  0  0  0  0
   36.9700   30.9740   35.0830 H   0  0  0  0  0  0  0  0  0  0  0  0
   33.3970   29.0490   33.7920 H   0  0  0  0  0  0  0  0  0  0  0  0
   33.1990   31.9770   37.3090 C   0  0  0  0  0  3  0  0  0  0  0  0
   32.6840   33.1790   37.0960 C   0  0  0  0  0  3  0  0  0  0  0  0
   32.7940   33.8480   35.7920 C   0  0  0  0  0  2  0  0  0  0  0  0
   32.2600   33.3520   34.9630 H   0  0  0  0  0  0  0  0  0  0  0  0
  2  1  1  0  0  0  0
  3  2  1  0  0  0  0
  3 24  1  0  0  0  0
  4  3  2  0  0  0  0
  5  6  2  0  0  0  0
  5  4  1  0  0  0  0
  6  7  1  0  0  0  0
  7 13  1  0  0  0  0
  7  2  2  0  0  0  0
  8  4  1  0  0  0  0
  9  5  1  0  0  0  0
 10  6  1  0  0  0  0
 12 17  1  0  0  0  0
 12 11  1  0  0  0  0
 13 12  2  0  0  0  0
 14 15  2  0  0  0  0
 14 13  1  0  0  0  0
 15 16  1  0  0  0  0
 16 20  1  0  0  0  0
 16 17  2  0  0  0  0
 17 21  1  0  0  0  0
 18 14  1  0  0  0  0
 19 15  1  0  0  0  0
 22 21  1  0  0  0  0
 23 28  1  0  0  0  0
 24 25  1  0  0  0  0
 24 23  2  0  0  0  0
 25 26  2  0  0  0  0
 26 27  1  0  0  0  0
 27 31  1  0  0  0  0
 28 27  2  0  0  0  0
 29 23  1  0  0  0  0
 30 25  1  0  0  0  0
 32 31  2  0  0  0  0
 33 32  1  0  0  0  0
 34 33  1  0  0  0  0
M  END
>  <minimizedAffinity>
-5.54647207

$$$$

 OpenBabel03272502083D

 34 36  0  0  0  0  0  0  0  0999 V2000
   36.4440   25.3400   32.4650 F   0  0  0  0  0  0  0  0  0  0  0  0
   37.6520   25.5700   33.0730 C   0  0  0  0  0  0  0  0  0  0  0  0
   38.5410   24.5460   33.3420 C   0  0  0  0  0  0  0  0  0  0  0  0
   39.7450   24.8560   33.9430 C   0  0  0  0  0  0  0  0  0  0  0  0
   40.0600   26.1780   34.2730 C   0  0  0  0  0  0  0  0  0  0  0  0
   39.1230   27.1530   33.9760 C   0  0  0  0  0  0  0  0  0  0  0  0
   37.9400   26.8950   33.3920 C   0  0  0  0  0  0  0  0  0  0  0  0
   40.3870   24.0110   34.1220 H   0  0  0  0  0  0  0  0  0  0  0  0
   41.0070   26.3710   34.7390 H   0  0  0  0  0  0  0  0  0  0  0  0
   39.4350   28.1490   34.2590 H   0  0  0  0  0  0  0  0  0  0  0  0
   37.8120   28.0280   30.4750 Br  0  0  0  0  0  0  0  0  0  0  0  0
   36.7310   28.5970   31.9370 C   0  0  0  0  0  0  0  0  0  0  0  0
   36.9990   27.9640   33.1220 C   0  0  0  0  0  0  0  0  0  0  0  0
   36.2700   28.3590   34.2580 C   0  0  0  0  0  0  0  0  0  0  0  0
   35.3280   29.3370   34.1730 C   0  0  0  0  0  0  0  0  0  0  0  0
   35.1080   29.9290   32.9530 C   0  0  0  0  0  0  0  0  0  0  0  0
   35.8170   29.5620   31.7950 C   0  0  0  0  0  0  0  0  0  0  0  0
   36.4120   27.9180   35.2350 H   0  0  0  0  0  0  0  0  0  0  0  0
   34.7330   29.6870   35.0110 H   0  0  0  0  0  0  0  0  0  0  0  0
   34.3620   30.7180   32.8370 H   0  0  0  0  0  0  0  0  0  0  0  0
   35.6500   30.1010   30.5580 O   0  0  0  0  0  0  0  0  0  0  0  0
   35.9990   30.9620   30.1970 H   0  0  0  0  0  0  0  0  0  0  0  0
   37.6580   22.3940   33.9560 C   0  0  0  0  0  0  0  0  0  0  0  0
   38.1030   23.2380   32.9570 C   0  0  0  0  0  0  0  0  0  0  0  0
   38.0870   22.7600   31.6610 C   0  0  0  0  0  0  0  0  0  0  0  0
   37.6420   21.5030   31.4070 N   0  0  0  0  0  0  0  0  0  0  0  0
   37.2200   20.7170   32.3910 C   0  0  0  0  0  0  0  0  0  0  0  0
   37.2230   21.1480   33.6530 N   0  0  0  0  0  0  0  0  0  0  0  0
   37.6210   22.6520   35.0180 H   0  0  0  0  0  0  0  0  0  0  0  0
   38.4420   23.4460   30.9140 H   0  0  0  0  0  0  0  0  0  0  0  0
   36.7430   19.3590   32.0910 C   0  0  0  0  0  3  0  0  0  0  0  0
   35.4550   19.1000   31.9140 C   0  0  0  0  0  3  0  0  0  0  0  0
   34.4340   20.1530   32.0080 C   0  0  0  0  0  2  0  0  0  0  0  0
   34.4960   20.9380   31.2330 H   0  0  0  0  0  0  0  0  0  0  0  0
  1  2  1  0  0  0  0
  2  3  2  0  0  0  0
  2  7  1  0  0  0  0
  3  4  1  0  0  0  0
  4  8  1  0  0  0  0
  4  5  2  0  0  0  0
  5  9  1  0  0  0  0
  6 10  1  0  0  0  0
  6  5  1  0  0  0  0
  7  6  2  0  0  0  0
 11 12  1  0  0  0  0
 12 13  1  0  0  0  0
 13  7  1  0  0  0  0
 13 14  2  0  0  0  0
 14 18  1  0  0  0  0
 15 14  1  0  0  0  0
 15 19  1  0  0  0  0
 16 15  2  0  0  0  0
 17 12  2  0  0  0  0
 17 16  1  0  0  0  0
 20 16  1  0  0  0  0
 21 17  1  0  0  0  0
 22 21  1  0  0  0  0
 23 29  1  0  0  0  0
 24  3  1  0  0  0  0
 24 23  2  0  0  0  0
 25 24  1  0  0  0  0
 26 25  2  0  0  0  0
 26 27  1  0  0  0  0
 27 28  2  0  0  0  0
 28 23  1  0  0  0  0
 30 25  1  0  0  0  0
 31 27  1  0  0  0  0
 32 33  1  0  0  0  0
 32 31  2  0  0  0  0
 34 33  1  0  0  0  0
M  END
>  <minimizedAffinity>
-5.53671217

$$$$

 OpenBabel03272502083D

 34 36  0  0  0  0  0  0  0  0999 V2000
   39.0200   24.9060   33.7790 F   0  0  0  0  0  0  0  0  0  0  0  0
   38.4350   23.7980   33.2200 C   0  0  0  0  0  0  0  0  0  0  0  0
   37.6160   23.8850   32.1100 C   0  0  0  0  0  0  0  0  0  0  0  0
   37.0740   22.7240   31.5940 C   0  0  0  0  0  0  0  0  0  0  0  0
   37.3490   21.4840   32.1810 C   0  0  0  0  0  0  0  0  0  0  0  0
   38.1780   21.4710   33.2900 C   0  0  0  0  0  0  0  0  0  0  0  0
   38.7240   22.5760   33.8240 C   0  0  0  0  0  0  0  0  0  0  0  0
   36.4480   22.8670   30.7310 H   0  0  0  0  0  0  0  0  0  0  0  0
   36.9060   20.6090   31.7450 H   0  0  0  0  0  0  0  0  0  0  0  0
   38.3440   20.4800   33.6890 H   0  0  0  0  0  0  0  0  0  0  0  0
   37.3830   22.9520   36.6300 Br  0  0  0  0  0  0  0  0  0  0  0  0
   39.2260   22.5810   36.3190 C   0  0  0  0  0  0  0  0  0  0  0  0
   39.5720   22.4890   34.9970 C   0  0  0  0  0  0  0  0  0  0  0  0
   40.9240   22.2580   34.6870 C   0  0  0  0  0  0  0  0  0  0  0  0
   41.8510   22.1280   35.6730 C   0  0  0  0  0  0  0  0  0  0  0  0
   41.4350   22.2290   36.9780 C   0  0  0  0  0  0  0  0  0  0  0  0
   40.0930   22.4600   37.3290 C   0  0  0  0  0  0  0  0  0  0  0  0
   41.2920   22.1710   33.6720 H   0  0  0  0  0  0  0  0  0  0  0  0
   42.9080   21.9500   35.4990 H   0  0  0  0  0  0  0  0  0  0  0  0
   42.1430   22.1320   37.8040 H   0  0  0  0  0  0  0  0  0  0  0  0
   39.6110   22.5680   38.5960 O   0  0  0  0  0  0  0  0  0  0  0  0
   39.6470   23.3480   39.2160 H   0  0  0  0  0  0  0  0  0  0  0  0
   36.1200   25.7000   31.6020 C   0  0  0  0  0  0  0  0  0  0  0  0
   37.4110   25.2090   31.6020 C   0  0  0  0  0  0  0  0  0  0  0  0
   38.4090   26.0330   31.1200 C   0  0  0  0  0  0  0  0  0  0  0  0
   38.1040   27.2760   30.6700 N   0  0  0  0  0  0  0  0  0  0  0  0
   36.8520   27.7170   30.6830 C   0  0  0  0  0  0  0  0  0  0  0  0
   35.8650   26.9480   31.1420 N   0  0  0  0  0  0  0  0  0  0  0  0
   35.2450   25.1480   31.9550 H   0  0  0  0  0  0  0  0  0  0  0  0
   39.3990   25.6140   31.1370 H   0  0  0  0  0  0  0  0  0  0  0  0
   36.5460   29.0690   30.1900 C   0  0  0  0  0  3  0  0  0  0  0  0
   36.1620   30.0360   31.0100 C   0  0  0  0  0  3  0  0  0  0  0  0
   36.0190   29.8130   32.4560 C   0  0  0  0  0  2  0  0  0  0  0  0
   36.9580   29.5820   32.9900 H   0  0  0  0  0  0  0  0  0  0  0  0
  2  1  1  0  0  0  0
  2  7  1  0  0  0  0
  3  2  2  0  0  0  0
  4  3  1  0  0  0  0
  4  5  2  0  0  0  0
  5  6  1  0  0  0  0
  6 10  1  0  0  0  0
  6  7  2  0  0  0  0
  7 13  1  0  0  0  0
  8  4  1  0  0  0  0
  9  5  1  0  0  0  0
 12 11  1  0  0  0  0
 12 17  1  0  0  0  0
 13 12  2  0  0  0  0
 14 13  1  0  0  0  0
 14 15  2  0  0  0  0
 15 16  1  0  0  0  0
 16 17  2  0  0  0  0
 16 20  1  0  0  0  0
 17 21  1  0  0  0  0
 18 14  1  0  0  0  0
 19 15  1  0  0  0  0
 21 22  1  0  0  0  0
 23 24  1  0  0  0  0
 23 29  1  0  0  0  0
 24  3  1  0  0  0  0
 25 30  1  0  0  0  0
 25 24  2  0  0  0  0
 26 27  2  0  0  0  0
 26 25  1  0  0  0  0
 27 28  1  0  0  0  0
 28 23  2  0  0  0  0
 31 27  1  0  0  0  0
 31 32  2  0  0  0  0
 32 33  1  0  0  0  0
 33 34  1  0  0  0  0
M  END
>  <minimizedAffinity>
-5.47906256

$$$$

 OpenBabel03272502083D

 34 36  0  0  0  0  0  0  0  0999 V2000
   38.6090   26.3140   34.9050 F   0  0  0  0  0  0  0  0  0  0  0  0
   38.0930   25.4330   33.9890 C   0  0  0  0  0  0  0  0  0  0  0  0
   37.1550   25.8210   33.0500 C   0  0  0  0  0  0  0  0  0  0  0  0
   36.6920   24.8810   32.1490 C   0  0  0  0  0  0  0  0  0  0  0  0
   37.1620   23.5640   32.1860 C   0  0  0  0  0  0  0  0  0  0  0  0
   38.1010   23.2450   33.1530 C   0  0  0  0  0  0  0  0  0  0  0  0
   38.5770   24.1270   34.0470 C   0  0  0  0  0  0  0  0  0  0  0  0
   35.9650   25.2530   31.4490 H   0  0  0  0  0  0  0  0  0  0  0  0
   36.7730   22.8690   31.4660 H   0  0  0  0  0  0  0  0  0  0  0  0
   38.4160   22.2110   33.1190 H   0  0  0  0  0  0  0  0  0  0  0  0
   37.5050   23.0910   36.8010 Br  0  0  0  0  0  0  0  0  0  0  0  0
   39.3370   23.2040   36.2930 C   0  0  0  0  0  0  0  0  0  0  0  0
   39.5490   23.7200   35.0420 C   0  0  0  0  0  0  0  0  0  0  0  0
   40.8790   23.8730   34.6110 C   0  0  0  0  0  0  0  0  0  0  0  0
   41.9160   23.5170   35.4160 C   0  0  0  0  0  0  0  0  0  0  0  0
   41.6320   23.0040   36.6590 C   0  0  0  0  0  0  0  0  0  0  0  0
   40.3160   22.8360   37.1260 C   0  0  0  0  0  0  0  0  0  0  0  0
   41.1450   24.2720   33.6410 H   0  0  0  0  0  0  0  0  0  0  0  0
   42.9620   23.6100   35.1430 H   0  0  0  0  0  0  0  0  0  0  0  0
   42.4310   22.7040   37.3400 H   0  0  0  0  0  0  0  0  0  0  0  0
   39.9620   22.3340   38.3390 O   0  0  0  0  0  0  0  0  0  0  0  0
   39.9530   22.7880   39.2270 H   0  0  0  0  0  0  0  0  0  0  0  0
   36.3270   27.6760   34.3380 C   0  0  0  0  0  0  0  0  0  0  0  0
   36.7550   27.1940   33.1160 C   0  0  0  0  0  0  0  0  0  0  0  0
   36.7710   28.0740   32.0520 C   0  0  0  0  0  0  0  0  0  0  0  0
   36.3770   29.3610   32.2290 N   0  0  0  0  0  0  0  0  0  0  0  0
   35.9710   29.7920   33.4170 C   0  0  0  0  0  0  0  0  0  0  0  0
   35.9440   28.9690   34.4650 N   0  0  0  0  0  0  0  0  0  0  0  0
   36.2670   27.0830   35.2550 H   0  0  0  0  0  0  0  0  0  0  0  0
   37.1090   27.6600   31.1190 H   0  0  0  0  0  0  0  0  0  0  0  0
   35.5490   31.1910   33.5840 C   0  0  0  0  0  3  0  0  0  0  0  0
   34.2910   31.5620   33.3980 C   0  0  0  0  0  3  0  0  0  0  0  0
   33.2480   30.5990   33.0160 C   0  0  0  0  0  2  0  0  0  0  0  0
   33.0240   29.8250   33.7710 H   0  0  0  0  0  0  0  0  0  0  0  0
  2  7  1  0  0  0  0
  2  1  1  0  0  0  0
  3 24  1  0  0  0  0
  3  2  2  0  0  0  0
  4  5  2  0  0  0  0
  4  3  1  0  0  0  0
  5  6  1  0  0  0  0
  6  7  2  0  0  0  0
  7 13  1  0  0  0  0
  8  4  1  0  0  0  0
  9  5  1  0  0  0  0
 10  6  1  0  0  0  0
 12 11  1  0  0  0  0
 12 17  1  0  0  0  0
 13 12  2  0  0  0  0
 14 13  1  0  0  0  0
 14 15  2  0  0  0  0
 15 16  1  0  0  0  0
 16 17  2  0  0  0  0
 16 20  1  0  0  0  0
 17 21  1  0  0  0  0
 18 14  1  0  0  0  0
 19 15  1  0  0  0  0
 21 22  1  0  0  0  0
 23 28  1  0  0  0  0
 23 29  1  0  0  0  0
 24 23  2  0  0  0  0
 25 26  2  0  0  0  0
 25 24  1  0  0  0  0
 26 27  1  0  0  0  0
 27 31  1  0  0  0  0
 27 28  2  0  0  0  0
 30 25  1  0  0  0  0
 32 31  2  0  0  0  0
 33 32  1  0  0  0  0
 33 34  1  0  0  0  0
M  END
>  <minimizedAffinity>
-5.42857838

$$$$
