
 OpenBabel03272509523D

 38 40  0  0  0  0  0  0  0  0999 V2000
   37.2630   30.1230   51.4730 C   0  0  0  0  0  0  0  0  0  0  0  0
   38.0260   30.8290   50.5110 C   0  0  0  0  0  0  0  0  0  0  0  0
   37.6800   30.6560   49.1800 C   0  0  0  0  0  0  0  0  0  0  0  0
   36.6280   29.8170   48.9110 N   0  0  0  0  0  0  0  0  0  0  0  0
   35.9300   29.1690   49.8420 C   0  0  0  0  0  0  0  0  0  0  0  0
   36.2620   29.3320   51.1410 N   0  0  0  0  0  0  0  0  0  0  0  0
   37.5960   30.3110   52.4930 H   0  0  0  0  0  0  0  0  0  0  0  0
   38.8540   31.4880   50.7280 H   0  0  0  0  0  0  0  0  0  0  0  0
   38.8850   33.2850   49.0630 F   0  0  0  0  0  0  0  0  0  0  0  0
   38.9010   32.5080   47.9830 C   0  0  0  0  0  0  0  0  0  0  0  0
   38.3340   31.2850   48.0570 C   0  0  0  0  0  0  0  0  0  0  0  0
   38.4080   30.5650   46.8730 C   0  0  0  0  0  0  0  0  0  0  0  0
   39.0050   31.0550   45.7390 C   0  0  0  0  0  0  0  0  0  0  0  0
   39.5650   32.2980   45.7090 C   0  0  0  0  0  0  0  0  0  0  0  0
   39.5070   33.0350   46.8640 C   0  0  0  0  0  0  0  0  0  0  0  0
   38.0000   29.5540   46.7540 H   0  0  0  0  0  0  0  0  0  0  0  0
   39.0610   30.4810   44.8060 H   0  0  0  0  0  0  0  0  0  0  0  0
   40.0390   32.7060   44.8270 H   0  0  0  0  0  0  0  0  0  0  0  0
   39.9450   34.0240   46.8660 H   0  0  0  0  0  0  0  0  0  0  0  0
   34.9400   28.4000   49.3300 O   0  0  0  0  0  0  0  0  0  0  0  0
   34.3320   28.7920   48.0980 C   0  0  0  0  0  0  0  0  0  0  0  0
   35.0910   29.1520   47.3770 H   0  0  0  0  0  0  0  0  0  0  0  0
   33.6840   29.6590   48.3480 H   0  0  0  0  0  0  0  0  0  0  0  0
   33.4640   27.6980   47.5670 C   0  0  0  0  0  0  0  0  0  0  0  0
   33.7620   26.6900   47.8740 H   0  0  0  0  0  0  0  0  0  0  0  0
   33.5950   27.7080   46.4450 H   0  0  0  0  0  0  0  0  0  0  0  0
   32.0140   27.9500   47.7760 C   0  0  0  0  0  0  0  0  0  0  0  0
   31.4350   27.4830   48.9600 C   0  0  0  0  0  0  0  0  0  0  0  0
   30.1080   27.6750   49.2260 C   0  0  0  0  0  0  0  0  0  0  0  0
   29.3510   28.3100   48.3560 N   0  0  0  0  0  0  0  0  0  0  0  0
   29.9190   28.7660   47.1980 C   0  0  0  0  0  0  0  0  0  0  0  0
   31.2180   28.6010   46.8920 N   0  0  0  0  0  0  0  0  0  0  0  0
   32.0720   26.9610   49.6700 H   0  0  0  0  0  0  0  0  0  0  0  0
   29.6340   27.3210   50.1430 H   0  0  0  0  0  0  0  0  0  0  0  0
   29.0370   29.4630   46.2660 C   0  0  0  0  0  3  0  0  0  0  0  0
   27.8630   29.9050   46.6100 C   0  0  0  0  0  3  0  0  0  0  0  0
   26.9480   30.6210   45.6660 C   0  0  0  0  0  2  0  0  0  0  0  0
   27.4000   30.5190   44.6570 H   0  0  0  0  0  0  0  0  0  0  0  0
  1  7  1  0  0  0  0
  2  8  1  0  0  0  0
  2  1  2  0  0  0  0
  3  2  1  0  0  0  0
  4  3  2  0  0  0  0
  4  5  1  0  0  0  0
  5  6  2  0  0  0  0
  6  1  1  0  0  0  0
 10 11  1  0  0  0  0
 10  9  1  0  0  0  0
 11  3  1  0  0  0  0
 12 11  2  0  0  0  0
 13 12  1  0  0  0  0
 14 13  2  0  0  0  0
 14 15  1  0  0  0  0
 15 19  1  0  0  0  0
 15 10  2  0  0  0  0
 16 12  1  0  0  0  0
 17 13  1  0  0  0  0
 18 14  1  0  0  0  0
 20  5  1  0  0  0  0
 21 23  1  0  0  0  0
 21 20  1  0  0  0  0
 22 21  1  0  0  0  0
 24 27  1  0  0  0  0
 24 25  1  0  0  0  0
 24 21  1  0  0  0  0
 26 24  1  0  0  0  0
 27 28  1  0  0  0  0
 28 29  2  0  0  0  0
 28 33  1  0  0  0  0
 29 34  1  0  0  0  0
 30 29  1  0  0  0  0
 31 30  2  0  0  0  0
 32 31  1  0  0  0  0
 32 27  2  0  0  0  0
 35 36  2  0  0  0  0
 35 31  1  0  0  0  0
 37 36  1  0  0  0  0
 38 37  1  0  0  0  0
M  END
>  <minimizedAffinity>
-6.4171834

>  <minimizedRMSD>
0.40133512

$$$$
