
 OpenBabel03272509503D

 28 29  0  0  0  0  0  0  0  0999 V2000
   33.8780   28.6380   48.7120 C   0  0  0  0  0  0  0  0  0  0  0  0
   34.3920   29.1300   47.8780 H   0  0  0  0  0  0  0  0  0  0  0  0
   33.2150   29.4090   49.1880 H   0  0  0  0  0  0  0  0  0  0  0  0
   33.0070   27.5000   48.2820 C   0  0  0  0  0  0  0  0  0  0  0  0
   33.3400   27.1100   47.2810 H   0  0  0  0  0  0  0  0  0  0  0  0
   33.0820   26.6340   48.9830 H   0  0  0  0  0  0  0  0  0  0  0  0
   31.5800   27.8860   48.1400 C   0  0  0  0  0  0  0  0  0  0  0  0
   30.7560   27.6390   49.2100 C   0  0  0  0  0  0  0  0  0  0  0  0
   29.4130   27.9510   49.2030 C   0  0  0  0  0  0  0  0  0  0  0  0
   28.8920   28.5150   48.1190 N   0  0  0  0  0  0  0  0  0  0  0  0
   29.7060   28.7620   47.0540 C   0  0  0  0  0  0  0  0  0  0  0  0
   31.0190   28.4600   47.0540 N   0  0  0  0  0  0  0  0  0  0  0  0
   31.1350   27.1810   50.1190 H   0  0  0  0  0  0  0  0  0  0  0  0
   28.7860   27.7480   50.0540 H   0  0  0  0  0  0  0  0  0  0  0  0
   29.3530   29.2190   46.1330 H   0  0  0  0  0  0  0  0  0  0  0  0
   34.7760   28.2270   49.7360 O   0  0  0  0  0  0  0  0  0  0  0  0
   37.2860   30.2020   51.4330 C   0  0  0  0  0  0  0  0  0  0  0  0
   37.9580   30.7420   50.3300 C   0  0  0  0  0  0  0  0  0  0  0  0
   37.5170   30.4040   49.0480 C   0  0  0  0  0  0  0  0  0  0  0  0
   36.4400   29.5520   48.9580 N   0  0  0  0  0  0  0  0  0  0  0  0
   35.8220   29.0520   50.0430 C   0  0  0  0  0  0  0  0  0  0  0  0
   36.2560   29.3860   51.2770 N   0  0  0  0  0  0  0  0  0  0  0  0
   37.6720   30.4990   52.3990 H   0  0  0  0  0  0  0  0  0  0  0  0
   38.8060   31.4130   50.3960 H   0  0  0  0  0  0  0  0  0  0  0  0
   38.1410   30.9090   47.8140 C   0  0  0  0  0  3  0  0  0  0  0  0
   38.8120   32.0500   47.7830 C   0  0  0  0  0  3  0  0  0  0  0  0
   39.3990   32.4570   46.4730 C   0  0  0  0  0  2  0  0  0  0  0  0
   38.6790   32.2060   45.6740 H   0  0  0  0  0  0  0  0  0  0  0  0
  1  3  1  0  0  0  0
  1 16  1  0  0  0  0
  2  1  1  0  0  0  0
  4  1  1  0  0  0  0
  4  6  1  0  0  0  0
  5  4  1  0  0  0  0
  7  4  1  0  0  0  0
  7  8  1  0  0  0  0
  8 13  1  0  0  0  0
  9  8  2  0  0  0  0
  9 14  1  0  0  0  0
 10  9  1  0  0  0  0
 11 12  1  0  0  0  0
 11 10  2  0  0  0  0
 12  7  2  0  0  0  0
 15 11  1  0  0  0  0
 16 21  1  0  0  0  0
 17 23  1  0  0  0  0
 18 24  1  0  0  0  0
 18 17  2  0  0  0  0
 19 18  1  0  0  0  0
 20 19  2  0  0  0  0
 20 21  1  0  0  0  0
 21 22  2  0  0  0  0
 22 17  1  0  0  0  0
 25 19  1  0  0  0  0
 26 25  2  0  0  0  0
 27 26  1  0  0  0  0
 28 27  1  0  0  0  0
M  END
>  <minimizedAffinity>
-5.28966856

>  <minimizedRMSD>
0.664384902

$$$$
