
     RDKit          3D

 43 45  0  0  0  0  0  0  0  0999 V2000
   34.6397   30.3507   48.2561 C   0  0  1  0  0  0  0  0  0  0  0  0
   33.6583   30.2323   47.2061 C   0  0  0  0  0  0  0  0  0  0  0  0
   33.4505   28.8464   46.6352 C   0  0  0  0  0  0  0  0  0  0  0  0
   33.4394   27.7392   47.5821 C   0  0  2  0  0  0  0  0  0  0  0  0
   34.4095   27.8394   48.7502 C   0  0  0  0  0  0  0  0  0  0  0  0
   34.4833   29.2523   49.2741 C   0  0  0  0  0  0  0  0  0  0  0  0
   36.4792   30.5547   46.5796 C   0  0  0  0  0  0  0  0  0  0  0  0
   36.0432   30.5890   47.8934 C   0  0  0  0  0  0  0  0  0  0  0  0
   36.9978   30.8682   48.8793 C   0  0  0  0  0  0  0  0  0  0  0  0
   38.2888   31.0885   48.5045 N   0  0  0  0  0  0  0  0  0  0  0  0
   38.6677   31.0434   47.2035 C   0  0  0  0  0  0  0  0  0  0  0  0
   37.7494   30.7733   46.2339 N   0  0  0  0  0  0  0  0  0  0  0  0
   33.8059   26.5074   46.8366 C   0  0  0  0  0  0  0  0  0  0  0  0
   34.0547   26.6104   45.4746 C   0  0  0  0  0  0  0  0  0  0  0  0
   34.3802   25.5055   44.7116 C   0  0  0  0  0  0  0  0  0  0  0  0
   34.4558   24.2917   45.3213 C   0  0  0  0  0  0  0  0  0  0  0  0
   34.2077   24.1717   46.6739 C   0  0  0  0  0  0  0  0  0  0  0  0
   33.8781   25.2940   47.4262 C   0  0  0  0  0  0  0  0  0  0  0  0
   34.3981   31.2873   48.8588 H   0  0  0  0  0  0  0  0  0  0  0  0
   32.6436   30.4852   47.6371 H   0  0  0  0  0  0  0  0  0  0  0  0
   33.7428   30.9029   46.3478 H   0  0  0  0  0  0  0  0  0  0  0  0
   34.4174   28.7236   46.0363 H   0  0  0  0  0  0  0  0  0  0  0  0
   32.5768   28.8377   45.9799 H   0  0  0  0  0  0  0  0  0  0  0  0
   32.4652   27.5437   48.0694 H   0  0  0  0  0  0  0  0  0  0  0  0
   33.9883   27.3494   49.6257 H   0  0  0  0  0  0  0  0  0  0  0  0
   35.4192   27.5359   48.4611 H   0  0  0  0  0  0  0  0  0  0  0  0
   35.3713   29.2981   49.9390 H   0  0  0  0  0  0  0  0  0  0  0  0
   33.6124   29.5216   49.9430 H   0  0  0  0  0  0  0  0  0  0  0  0
   35.8992   30.3783   45.6938 H   0  0  0  0  0  0  0  0  0  0  0  0
   36.7090   30.9066   49.9165 H   0  0  0  0  0  0  0  0  0  0  0  0
   39.7121   31.2321   47.0171 H   0  0  0  0  0  0  0  0  0  0  0  0
   34.0206   27.4704   44.8242 H   0  0  0  0  0  0  0  0  0  0  0  0
   34.5852   25.5257   43.6426 H   0  0  0  0  0  0  0  0  0  0  0  0
   34.7185   23.4029   44.7203 H   0  0  0  0  0  0  0  0  0  0  0  0
   34.2943   23.1537   47.0243 H   0  0  0  0  0  0  0  0  0  0  0  0
   33.4758   24.9874   48.7505 C   0  0  0  0  0  0  0  0  0  0  0  0
   32.6177   24.2026   49.3621 C   0  0  0  0  0  0  0  0  0  0  0  0
   31.6321   23.2251   48.8346 C   0  0  0  0  0  0  0  0  0  0  0  0
   30.7106   23.6785   48.4486 H   0  0  0  0  0  0  0  0  0  0  0  0
   33.9742   25.6416   49.4862 H   0  0  0  0  0  0  0  0  0  0  0  0
   32.5512   24.2126   50.4650 H   0  0  0  0  0  0  0  0  0  0  0  0
   31.3811   22.4389   49.6086 H   0  0  0  0  0  0  0  0  0  0  0  0
   32.1294   22.6203   48.0152 H   0  0  0  0  0  0  0  0  0  0  0  0
  1  6  1  0
  2  1  1  0
  3  2  1  0
  3  4  1  0
  4  5  1  0
  5  6  1  0
  7  8  2  0
  8  1  1  0
  8  9  1  0
 10  9  2  0
 11 10  1  0
 12  7  1  0
 12 11  2  0
 13 18  1  0
 13  4  1  0
 14 13  2  0
 15 16  2  0
 15 14  1  0
 16 17  1  0
 17 18  2  0
  1 19  1  1
  2 20  1  0
  2 21  1  0
  3 22  1  0
  3 23  1  0
  4 24  1  1
  5 25  1  0
  5 26  1  0
  6 27  1  0
  6 28  1  0
  7 29  1  0
  9 30  1  0
 11 31  1  0
 14 32  1  0
 15 33  1  0
 16 34  1  0
 17 35  1  0
 36 37  2  3
 37 38  1  0
 38 39  1  0
 36 40  1  0
 37 41  1  0
 38 42  1  0
 38 43  1  0
 18 36  1  0
M  ISO  8  19  13  20  13  21  13  22  13  23  13  24  13  25  13  26  13
M  ISO  8  27  13  28  13  29  14  30  14  31  14  32  14  33  14  34  14
M  ISO  2  35  14  39   8
M  END
>  <DihAtoms>  (1) 
12,17,35,36

>  <DihDeg>  (1) 
-165.38194893736326

$$$$
