
 OpenBabel03272509113D

 23 24  0  0  0  0  0  0  0  0999 V2000
   35.8170   29.3440   49.3910 C   0  0  0  0  0  3  0  0  0  0  0  0
   35.6610   29.8490   48.0760 C   0  0  0  0  0  0  0  0  0  0  0  0
   34.5980   29.4300   47.3220 C   0  0  0  0  0  0  0  0  0  0  0  0
   33.7670   28.5440   47.9040 N   0  0  0  0  0  0  0  0  0  0  0  0
   33.9260   28.0670   49.1540 C   0  0  0  0  0  0  0  0  0  0  0  0
   34.9380   28.4640   49.8870 N   0  0  0  0  0  0  0  0  0  0  0  0
   36.6100   29.6040   50.0750 H   0  0  0  0  0  0  0  0  0  0  0  0
   33.1960   27.3750   49.4740 H   0  0  0  0  0  0  0  0  0  0  0  0
   34.3160   29.8740   45.9700 C   0  0  0  0  0  0  0  0  0  0  0  0
   33.1070   30.5410   45.7880 C   0  0  0  0  0  0  0  0  0  0  0  0
   32.7430   31.0510   44.5550 C   0  0  0  0  0  0  0  0  0  0  0  0
   33.6490   30.8540   43.5190 C   0  0  0  0  0  0  0  0  0  0  0  0
   34.8770   30.1870   43.6460 C   0  0  0  0  0  0  0  0  0  0  0  0
   35.1950   29.6930   44.9200 C   0  0  0  0  0  0  0  0  0  0  0  0
   32.2990   30.7370   46.4720 H   0  0  0  0  0  0  0  0  0  0  0  0
   31.8560   31.5780   44.2890 H   0  0  0  0  0  0  0  0  0  0  0  0
   33.4680   31.2160   42.4910 H   0  0  0  0  0  0  0  0  0  0  0  0
   35.5430   30.0580   42.8140 H   0  0  0  0  0  0  0  0  0  0  0  0
   36.1140   29.1700   45.1070 H   0  0  0  0  0  0  0  0  0  0  0  0
   36.6550   30.6930   47.5400 C   0  0  0  0  0  0  0  0  0  0  0  0
   37.6220   31.4260   47.1340 C   0  0  0  0  0  3  0  0  0  0  0  0
   38.9860   31.9660   47.2240 C   0  0  0  0  0  2  0  0  0  0  0  0
   38.9550   33.0600   47.3910 H   0  0  0  0  0  0  0  0  0  0  0  0
  1  6  1  0  0  0  0
  1  7  1  0  0  0  0
  2  1  1  0  0  0  0
  3  4  2  0  0  0  0
  3  2  1  0  0  0  0
  4  5  1  0  0  0  0
  5  8  1  0  0  0  0
  5  6  2  0  0  0  0
  9  3  1  0  0  0  0
 10  9  1  0  0  0  0
 10 15  1  0  0  0  0
 11 10  2  0  0  0  0
 12 13  2  0  0  0  0
 12 11  1  0  0  0  0
 13 14  1  0  0  0  0
 14 19  1  0  0  0  0
 14  9  2  0  0  0  0
 16 11  1  0  0  0  0
 17 12  1  0  0  0  0
 18 13  1  0  0  0  0
 20  2  2  0  0  0  0
 21 22  1  0  0  0  0
 21 20  2  0  0  0  0
 22 23  1  0  0  0  0
M  END
>  <minimizedAffinity>
-3.90330195

>  <minimizedRMSD>
4.76283789

$$$$
