
 OpenBabel03272509373D

 25 26  0  0  0  0  0  0  0  0999 V2000
   37.1300   30.9570   49.0220 C   0  0  0  0  0  0  0  0  0  0  0  0
   36.9170   31.9310   50.0050 C   0  0  0  0  0  0  0  0  0  0  0  0
   37.5600   33.1620   49.9790 C   0  0  0  0  0  0  0  0  0  0  0  0
   38.4510   33.4620   48.9520 C   0  0  0  0  0  0  0  0  0  0  0  0
   38.6490   32.4960   47.9960 C   0  0  0  0  0  0  0  0  0  0  0  0
   38.0040   31.2840   48.0360 C   0  0  0  0  0  0  0  0  0  0  0  0
   36.2240   31.6950   50.8020 H   0  0  0  0  0  0  0  0  0  0  0  0
   37.3140   33.8260   50.7890 H   0  0  0  0  0  0  0  0  0  0  0  0
   38.8990   34.4430   49.0250 H   0  0  0  0  0  0  0  0  0  0  0  0
   39.3600   32.8740   47.2750 H   0  0  0  0  0  0  0  0  0  0  0  0
   36.4120   29.7030   49.1250 C   0  0  0  0  0  0  0  0  0  0  0  0
   36.9310   28.8710   49.9550 O   0  0  0  0  0  0  0  0  0  0  0  0
   33.6260   30.1730   46.8480 C   0  0  0  0  0  0  0  0  0  0  0  0
   32.9630   28.9520   46.8670 C   0  0  0  0  0  0  0  0  0  0  0  0
   33.4720   27.9530   47.6750 C   0  0  0  0  0  0  0  0  0  0  0  0
   34.5900   28.1950   48.4150 N   0  0  0  0  0  0  0  0  0  0  0  0
   35.2050   29.3690   48.3780 C   0  0  0  0  0  0  0  0  0  0  0  0
   34.7150   30.3500   47.5930 N   0  0  0  0  0  0  0  0  0  0  0  0
   33.2770   30.9950   46.2350 H   0  0  0  0  0  0  0  0  0  0  0  0
   32.0910   28.9090   46.2290 H   0  0  0  0  0  0  0  0  0  0  0  0
   32.9410   27.0190   47.6740 H   0  0  0  0  0  0  0  0  0  0  0  0
   38.3300   30.3820   46.9560 C   0  0  0  0  0  0  0  0  0  0  0  0
   38.8110   30.6910   45.7680 C   0  0  0  0  0  0  0  0  0  0  0  0
   39.1930   29.9260   44.5760 C   0  0  0  0  0  0  0  0  0  0  0  0
   38.3990   29.9920   43.7800 H   0  0  0  0  0  0  0  0  0  0  0  0
  1 11  1  0  0  0  0
  1  2  1  0  0  0  0
  2  7  1  0  0  0  0
  3  2  2  0  0  0  0
  3  8  1  0  0  0  0
  4  9  1  0  0  0  0
  4  3  1  0  0  0  0
  5  6  1  0  0  0  0
  5  4  2  0  0  0  0
  6  1  2  0  0  0  0
 10  5  1  0  0  0  0
 11 12  2  0  0  0  0
 13 14  2  0  0  0  0
 13 18  1  0  0  0  0
 14 15  1  0  0  0  0
 15 16  2  0  0  0  0
 17 16  1  0  0  0  0
 17 11  1  0  0  0  0
 18 17  2  0  0  0  0
 19 13  1  0  0  0  0
 20 14  1  0  0  0  0
 21 15  1  0  0  0  0
 22  6  1  0  0  0  0
 23 22  2  0  0  0  0
 24 23  1  0  0  0  0
 25 24  1  0  0  0  0
M  END
>  <minimizedAffinity>
-5.4358058

>  <minimizedRMSD>
2.20586586

$$$$
