REMARK  Name = 
REMARK  4 active torsions:
REMARK  status: ('A' for Active; 'I' for Inactive)
REMARK    1  A    between atoms: N_1  and  C_7
REMARK    2  A    between atoms: C_3  and  C_15
REMARK    3  A    between atoms: C_19  and  C_34
REMARK    4  A    between atoms: C_35  and  C_36
REMARK                            x       y       z     vdW  Elec       q    Type
REMARK                         _______ _______ _______ _____ _____    ______ ____
ROOT
ATOM      1  N   UNL     1      34.631  30.043  45.656  0.00  0.00    +0.000 N 
ATOM      2  C   UNL     1      35.036  30.053  47.058  0.00  0.00    +0.000 C 
ATOM      3  C   UNL     1      36.264  30.799  47.329  0.00  0.00    +0.000 C 
ATOM      4  N   UNL     1      37.327  30.505  46.330  0.00  0.00    +0.000 NA
ATOM      5  C   UNL     1      36.756  30.775  44.997  0.00  0.00    +0.000 C 
ATOM      6  C   UNL     1      35.729  29.679  44.833  0.00  0.00    +0.000 C 
ATOM      7  H   UNL     1      34.179  30.358  47.647  0.00  0.00    +0.000 HD
ATOM      8  H   UNL     1      35.293  28.946  47.185  0.00  0.00    +0.000 HD
ATOM      9  H   UNL     1      36.203  31.895  47.202  0.00  0.00    +0.000 HD
ATOM     10  H   UNL     1      37.564  29.504  46.394  0.00  0.00    +0.000 HD
ATOM     11  H   UNL     1      36.325  31.776  44.952  0.00  0.00    +0.000 HD
ATOM     12  H   UNL     1      37.566  30.578  44.278  0.00  0.00    +0.000 HD
ATOM     13  H   UNL     1      36.205  28.727  45.145  0.00  0.00    +0.000 HD
ATOM     14  H   UNL     1      35.458  29.567  43.768  0.00  0.00    +0.000 HD
ENDROOT
BRANCH   3  17
ATOM     15 CL   UNL     1      38.250  32.715  48.438  0.00  0.00    +0.000 Cl
ATOM     16  C   UNL     1      37.660  31.294  49.301  0.00  0.00    +0.000 A 
ATOM     17  C   UNL     1      36.768  30.484  48.653  0.00  0.00    +0.000 A 
ATOM     18  C   UNL     1      36.215  29.324  49.214  0.00  0.00    +0.000 A 
ATOM     19  C   UNL     1      36.634  29.017  50.515  0.00  0.00    +0.000 A 
ATOM     20  C   UNL     1      37.550  29.841  51.182  0.00  0.00    +0.000 A 
ATOM     21  C   UNL     1      38.049  30.969  50.565  0.00  0.00    +0.000 A 
ATOM     22  H   UNL     1      35.529  28.555  48.952  0.00  0.00    +0.000 HD
ATOM     23  H   UNL     1      36.350  28.186  51.143  0.00  0.00    +0.000 HD
ATOM     24  H   UNL     1      37.919  29.669  52.181  0.00  0.00    +0.000 HD
BRANCH  21  25
ATOM     25  C   UNL     1      39.000  31.844  51.232  0.00  0.00    +0.000 C 
ATOM     26  C   UNL     1      39.273  33.056  50.802  0.00  0.00    +0.000 C 
BRANCH  26  27
ATOM     27  C   UNL     1      40.230  33.989  51.441  0.00  0.00    +0.000 C 
ATOM     28  H   UNL     1      41.150  34.161  50.851  0.00  0.00    +0.000 HD
ENDBRANCH  26  27
ENDBRANCH  21  25
ENDBRANCH   3  17
BRANCH   1  29
ATOM     29  C   UNL     1      33.310  30.349  45.239  0.00  0.00    +0.000 A 
ATOM     30  C   UNL     1      33.050  31.070  44.070  0.00  0.00    +0.000 A 
ATOM     31  C   UNL     1      31.725  31.328  43.729  0.00  0.00    +0.000 A 
ATOM     32  N   UNL     1      30.732  30.853  44.575  0.00  0.00    +0.000 NA
ATOM     33  C   UNL     1      31.039  30.163  45.690  0.00  0.00    +0.000 A 
ATOM     34  N   UNL     1      32.293  29.909  46.029  0.00  0.00    +0.000 NA
ATOM     35  H   UNL     1      33.864  31.412  43.456  0.00  0.00    +0.000 HD
ATOM     36  H   UNL     1      31.465  31.878  42.840  0.00  0.00    +0.000 HD
ATOM     37  H   UNL     1      30.262  29.796  46.343  0.00  0.00    +0.000 HD
ENDBRANCH   1  29
TORSDOF 4
