
 OpenBabel03272500583D

 30 31  0  0  0  0  0  0  0  0999 V2000
   38.1650   31.8850   47.4110 C   0  0  0  0  0  0  0  0  0  0  0  0
   38.6840   32.7640   48.3210 C   0  0  0  0  0  0  0  0  0  0  0  0
   38.2160   32.8390   49.6380 C   0  0  0  0  0  0  0  0  0  0  0  0
   37.1450   31.9350   50.0110 C   0  0  0  0  0  0  0  0  0  0  0  0
   36.6770   31.0890   49.0620 C   0  0  0  0  0  0  0  0  0  0  0  0
   37.1320   31.0270   47.7990 C   0  0  0  0  0  0  0  0  0  0  0  0
   39.4990   33.4580   48.0580 H   0  0  0  0  0  0  0  0  0  0  0  0
   38.6760   33.5640   50.3090 H   0  0  0  0  0  0  0  0  0  0  0  0
   36.9000   32.1080   51.0290 H   0  0  0  0  0  0  0  0  0  0  0  0
   35.9220   30.5090   49.5670 H   0  0  0  0  0  0  0  0  0  0  0  0
   40.0110   31.2570   45.9440 C   0  0  0  0  0  0  0  0  0  0  0  0
   38.7700   31.9130   46.0960 C   0  0  0  0  0  0  0  0  0  0  0  0
   38.2850   32.4990   44.9540 C   0  0  0  0  0  0  0  0  0  0  0  0
   38.9760   32.4270   43.8010 N   0  0  0  0  0  0  0  0  0  0  0  0
   40.1290   31.8130   43.6780 C   0  0  0  0  0  0  0  0  0  0  0  0
   40.6450   31.2290   44.7480 N   0  0  0  0  0  0  0  0  0  0  0  0
   40.4710   30.7660   46.7920 H   0  0  0  0  0  0  0  0  0  0  0  0
   37.3220   33.0080   45.0730 H   0  0  0  0  0  0  0  0  0  0  0  0
   40.6660   31.7690   42.7400 H   0  0  0  0  0  0  0  0  0  0  0  0
   35.1560   30.0270   47.0090 C   0  0  0  0  0  0  0  0  0  0  0  0
   34.5620   30.6690   47.9640 O   0  0  0  0  0  0  0  0  0  0  0  0
   36.5950   30.1620   46.8800 N   0  0  0  0  0  0  0  0  0  0  0  0
   37.1380   29.6590   46.1770 H   0  0  0  0  0  0  0  0  0  0  0  0
   34.4100   29.2510   46.1660 O   0  0  0  0  0  0  0  0  0  0  0  0
   33.1770   29.6100   45.6340 C   0  0  0  0  0  0  0  0  0  0  0  0
   33.0780   30.3890   44.5760 O   0  0  0  0  0  0  0  0  0  0  0  0
   31.9060   29.1160   46.2160 C   0  0  0  0  0  3  0  0  0  0  0  0
   30.7520   29.7030   46.0220 C   0  0  0  0  0  3  0  0  0  0  0  0
   29.4510   29.2490   46.5820 C   0  0  0  0  0  2  0  0  0  0  0  0
   29.5330   28.3740   47.2410 H   0  0  0  0  0  0  0  0  0  0  0  0
  1  6  2  0  0  0  0
  1  2  1  0  0  0  0
  2  3  2  0  0  0  0
  3  4  1  0  0  0  0
  3  8  1  0  0  0  0
  4  9  1  0  0  0  0
  5 10  1  0  0  0  0
  5  4  2  0  0  0  0
  6  5  1  0  0  0  0
  7  2  1  0  0  0  0
 11 12  1  0  0  0  0
 11 17  1  0  0  0  0
 12  1  1  0  0  0  0
 13 18  1  0  0  0  0
 13 12  2  0  0  0  0
 14 13  1  0  0  0  0
 15 14  2  0  0  0  0
 15 16  1  0  0  0  0
 16 11  2  0  0  0  0
 19 15  1  0  0  0  0
 20 21  2  0  0  0  0
 22 20  1  0  0  0  0
 22  6  1  0  0  0  0
 23 22  1  0  0  0  0
 24 20  1  0  0  0  0
 25 24  1  0  0  0  0
 25 27  1  0  0  0  0
 26 25  2  0  0  0  0
 28 27  2  0  0  0  0
 28 29  1  0  0  0  0
 29 30  1  0  0  0  0
M  END
>  <minimizedAffinity>
-5.292696

>  <minimizedRMSD>
0.649078012

$$$$
