
 OpenBabel03272504503D

 37 39  0  0  1  0  0  0  0  0999 V2000
   36.9590   30.8440   48.3080 N   0  0  0  0  0  0  0  0  0  0  0  0
   37.0700   31.7120   49.4500 C   0  0  0  0  0  0  0  0  0  0  0  0
   38.3110   32.5330   49.4730 C   0  0  0  0  0  0  0  0  0  0  0  0
   38.8470   32.8070   48.0880 C   0  0  0  0  0  0  0  0  0  0  0  0
   39.2150   31.4270   47.5490 C   0  0  0  0  0  0  0  0  0  0  0  0
   37.9500   30.6780   47.2720 C   0  0  2  0  0  0  0  0  0  0  0  0
   36.1470   32.3430   49.4570 H   0  0  0  0  0  0  0  0  0  0  0  0
   37.0710   31.0930   50.3700 H   0  0  0  0  0  0  0  0  0  0  0  0
   38.0590   33.5460   49.8990 H   0  0  0  0  0  0  0  0  0  0  0  0
   39.1140   32.1250   50.0940 H   0  0  0  0  0  0  0  0  0  0  0  0
   39.7080   33.4850   48.1450 H   0  0  0  0  0  0  0  0  0  0  0  0
   38.0410   33.2600   47.4710 H   0  0  0  0  0  0  0  0  0  0  0  0
   39.7970   30.9450   48.3870 H   0  0  0  0  0  0  0  0  0  0  0  0
   39.8090   31.5190   46.6220 H   0  0  0  0  0  0  0  0  0  0  0  0
   38.1650   29.5870   47.1400 H   0  0  0  0  0  0  0  0  0  0  0  0
   35.5470   28.9820   49.0330 C   0  0  0  0  0  0  0  0  0  0  0  0
   35.7610   30.0890   48.2000 C   0  0  0  0  0  0  0  0  0  0  0  0
   34.7570   30.4150   47.2800 C   0  0  0  0  0  0  0  0  0  0  0  0
   33.6320   29.6390   47.2460 N   0  0  0  0  0  0  0  0  0  0  0  0
   33.4680   28.5920   48.0570 C   0  0  0  0  0  0  0  0  0  0  0  0
   34.4220   28.2520   48.9580 N   0  0  0  0  0  0  0  0  0  0  0  0
   36.2670   28.6670   49.7630 H   0  0  0  0  0  0  0  0  0  0  0  0
   34.8720   31.2430   46.6290 H   0  0  0  0  0  0  0  0  0  0  0  0
   32.2490   27.7930   47.9940 C   0  0  0  0  0  0  0  0  0  0  0  0
   31.3900   27.7370   49.0480 C   0  0  0  0  0  0  0  0  0  0  0  0
   30.2280   26.9990   49.0320 C   0  0  0  0  0  0  0  0  0  0  0  0
   29.9900   26.3100   47.8640 C   0  0  0  0  0  0  0  0  0  0  0  0
   30.8380   26.3320   46.7530 C   0  0  0  0  0  0  0  0  0  0  0  0
   31.9720   27.0960   46.8620 N   0  0  0  0  0  0  0  0  0  0  0  0
   31.6630   28.3130   49.9210 H   0  0  0  0  0  0  0  0  0  0  0  0
   29.5570   26.9620   49.8700 H   0  0  0  0  0  0  0  0  0  0  0  0
   29.1000   25.7020   47.7620 H   0  0  0  0  0  0  0  0  0  0  0  0
   30.6220   25.7800   45.8520 H   0  0  0  0  0  0  0  0  0  0  0  0
   37.3950   31.3020   46.0370 C   0  0  0  0  0  0  0  0  0  0  0  0
   37.7800   30.8840   44.8370 C   0  0  0  0  0  0  0  0  0  0  0  0
   38.7500   29.8140   44.5200 C   0  0  0  0  0  0  0  0  0  0  0  0
   39.1370   29.3490   45.4380 H   0  0  0  0  0  0  0  0  0  0  0  0
  1  2  1  0  0  0  0
  2  7  1  0  0  0  0
  2  3  1  0  0  0  0
  2  8  1  0  0  0  0
  3  9  1  0  0  0  0
  3 10  1  0  0  0  0
  4 11  1  0  0  0  0
  4  3  1  0  0  0  0
  5  4  1  0  0  0  0
  5 13  1  0  0  0  0
  6 15  1  6  0  0  0
  6  5  1  0  0  0  0
  6  1  1  0  0  0  0
 12  4  1  0  0  0  0
 14  5  1  0  0  0  0
 16 22  1  0  0  0  0
 17  1  1  0  0  0  0
 17 16  2  0  0  0  0
 18 17  1  0  0  0  0
 19 18  2  0  0  0  0
 19 20  1  0  0  0  0
 20 21  2  0  0  0  0
 21 16  1  0  0  0  0
 23 18  1  0  0  0  0
 24 20  1  0  0  0  0
 24 25  1  0  0  0  0
 25 30  1  0  0  0  0
 26 25  2  0  0  0  0
 26 31  1  0  0  0  0
 27 26  1  0  0  0  0
 28 29  1  0  0  0  0
 28 27  2  0  0  0  0
 29 24  2  0  0  0  0
 32 27  1  0  0  0  0
 33 28  1  0  0  0  0
 34  6  1  0  0  0  0
 35 34  2  0  0  0  0
 36 35  1  0  0  0  0
 36 37  1  0  0  0  0
M  END
>  <minimizedAffinity>
-5.24983788

>  <minimizedRMSD>
1.25969255

$$$$
