
     RDKit          3D

 41 43  0  0  0  0  0  0  0  0999 V2000
   34.6308   30.0432   45.6559 N   0  0  0  0  0  0  0  0  0  0  0  0
   35.0365   30.0530   47.0580 C   0  0  0  0  0  0  0  0  0  0  0  0
   36.2637   30.7993   47.3294 C   0  0  2  0  0  0  0  0  0  0  0  0
   37.3269   30.5050   46.3296 N   0  0  0  0  0  0  0  0  0  0  0  0
   36.7560   30.7748   44.9966 C   0  0  0  0  0  0  0  0  0  0  0  0
   35.7289   29.6792   44.8333 C   0  0  0  0  0  0  0  0  0  0  0  0
   33.3101   30.3491   45.2393 C   0  0  0  0  0  0  0  0  0  0  0  0
   33.0505   31.0700   44.0696 C   0  0  0  0  0  0  0  0  0  0  0  0
   31.7248   31.3280   43.7294 C   0  0  0  0  0  0  0  0  0  0  0  0
   30.7319   30.8526   44.5751 N   0  0  0  0  0  0  0  0  0  0  0  0
   31.0387   30.1628   45.6902 C   0  0  0  0  0  0  0  0  0  0  0  0
   32.2930   29.9086   46.0285 N   0  0  0  0  0  0  0  0  0  0  0  0
   38.2500   32.7151   48.4380 Cl  0  0  0  0  0  0  0  0  0  0  0  0
   37.6597   31.2936   49.3010 C   0  0  0  0  0  0  0  0  0  0  0  0
   36.7684   30.4844   48.6532 C   0  0  0  0  0  0  0  0  0  0  0  0
   36.2147   29.3243   49.2141 C   0  0  0  0  0  0  0  0  0  0  0  0
   36.6339   29.0165   50.5152 C   0  0  0  0  0  0  0  0  0  0  0  0
   37.5501   29.8415   51.1819 C   0  0  0  0  0  0  0  0  0  0  0  0
   38.0494   30.9689   50.5647 C   0  0  0  0  0  0  0  0  0  0  0  0
   34.1789   30.3585   47.6467 H   0  0  0  0  0  0  0  0  0  0  0  0
   35.2928   28.9459   47.1851 H   0  0  0  0  0  0  0  0  0  0  0  0
   36.2030   31.8947   47.2020 H   0  0  0  0  0  0  0  0  0  0  0  0
   37.5644   29.5041   46.3935 H   0  0  0  0  0  0  0  0  0  0  0  0
   36.3247   31.7760   44.9520 H   0  0  0  0  0  0  0  0  0  0  0  0
   37.5655   30.5784   44.2776 H   0  0  0  0  0  0  0  0  0  0  0  0
   36.2049   28.7273   45.1450 H   0  0  0  0  0  0  0  0  0  0  0  0
   35.4578   29.5667   43.7676 H   0  0  0  0  0  0  0  0  0  0  0  0
   33.8636   31.4117   43.4557 H   0  0  0  0  0  0  0  0  0  0  0  0
   31.4647   31.8783   42.8404 H   0  0  0  0  0  0  0  0  0  0  0  0
   30.2619   29.7963   46.3427 H   0  0  0  0  0  0  0  0  0  0  0  0
   35.5291   28.5549   48.9521 H   0  0  0  0  0  0  0  0  0  0  0  0
   36.3498   28.1860   51.1432 H   0  0  0  0  0  0  0  0  0  0  0  0
   37.9192   29.6686   52.1813 H   0  0  0  0  0  0  0  0  0  0  0  0
   38.9997   31.8439   51.2316 C   0  0  0  0  0  0  0  0  0  0  0  0
   39.2726   33.0559   50.8017 C   0  0  0  0  0  0  0  0  0  0  0  0
   40.2305   33.9887   51.4411 C   0  0  0  0  0  0  0  0  0  0  0  0
   41.1496   34.1608   50.8511 H   0  0  0  0  0  0  0  0  0  0  0  0
   39.5379   31.5511   52.1192 H   0  0  0  0  0  0  0  0  0  0  0  0
   38.9210   33.6416   49.9667 H   0  0  0  0  0  0  0  0  0  0  0  0
   39.7531   34.9221   51.8176 H   0  0  0  0  0  0  0  0  0  0  0  0
   40.5730   33.4664   52.3815 H   0  0  0  0  0  0  0  0  0  0  0  0
  1  2  1  0
  2  3  1  0
  3 15  1  0
  4  3  1  0
  5  4  1  0
  6  5  1  0
  6  1  1  0
  7  1  1  0
  7 12  1  0
  8  7  2  0
  9  8  1  0
  9 10  2  0
 10 11  1  0
 11 12  2  0
 13 14  1  0
 14 19  2  0
 15 16  2  0
 15 14  1  0
 16 17  1  0
 17 18  2  0
 19 18  1  0
  2 20  1  0
  2 21  1  0
  3 22  1  1
  4 23  1  0
  5 24  1  0
  5 25  1  0
  6 26  1  0
  6 27  1  0
  8 28  1  0
  9 29  1  0
 11 30  1  0
 16 31  1  0
 17 32  1  0
 18 33  1  0
 34 35  2  3
 35 36  1  0
 36 37  1  0
 34 38  1  0
 35 39  1  0
 36 40  1  0
 36 41  1  0
 19 34  1  0
M  ISO  8  20  13  21  13  22  13  23   5  24  13  25  13  26  13  27  13
M  ISO  7  28  14  29  14  30  14  31  14  32  14  33  14  37   8
M  END
>  <DihAtoms>  (1) 
13,18,33,34

>  <DihDeg>  (1) 
179.99841829728499

$$$$
