REMARK  Name = 
REMARK  3 active torsions:
REMARK  status: ('A' for Active; 'I' for Inactive)
REMARK    1  A    between atoms: C_1  and  O_7
REMARK    2  A    between atoms: C_5  and  C_11
REMARK    3  A    between atoms: C_12  and  C_13
REMARK                            x       y       z     vdW  Elec       q    Type
REMARK                         _______ _______ _______ _____ _____    ______ ____
ROOT
ATOM      1  C   UNL     1      37.303  29.990  51.186  0.00  0.00    +0.000 A 
ATOM      2  C   UNL     1      37.949  30.918  50.351  0.00  0.00    +0.000 A 
ATOM      3  C   UNL     1      37.273  31.387  49.234  0.00  0.00    +0.000 A 
ATOM      4  N   UNL     1      36.018  30.930  48.996  0.00  0.00    +0.000 NA
ATOM      5  C   UNL     1      35.410  30.032  49.816  0.00  0.00    +0.000 A 
ATOM      6  N   UNL     1      36.054  29.576  50.893  0.00  0.00    +0.000 NA
ATOM      7  H   UNL     1      38.951  31.302  50.513  0.00  0.00    +0.000 HD
ATOM      8  H   UNL     1      37.707  32.094  48.555  0.00  0.00    +0.000 HD
ENDROOT
BRANCH   1   9
ATOM      9  O   UNL     1      38.087  29.611  52.255  0.00  0.00    +0.000 OA
ATOM     10  H   UNL     1      38.349  28.634  52.306  0.00  0.00    +0.000 HD
ENDBRANCH   1   9
BRANCH   5  11
ATOM     11  C   UNL     1      34.060  29.552  49.546  0.00  0.00    +0.000 C 
ATOM     12  C   UNL     1      33.002  29.958  50.231  0.00  0.00    +0.000 C 
BRANCH  12  13
ATOM     13  C   UNL     1      31.630  29.428  49.908  0.00  0.00    +0.000 C 
ATOM     14  H   UNL     1      30.882  30.206  50.093  0.00  0.00    +0.000 HD
ENDBRANCH  12  13
ENDBRANCH   5  11
TORSDOF 3
