
 OpenBabel03272506533D

 39 41  0  0  1  0  0  0  0  0999 V2000
   34.4210   30.1250   48.2770 C   0  0  1  0  0  0  0  0  0  0  0  0
   33.5700   30.2120   47.1150 C   0  0  0  0  0  0  0  0  0  0  0  0
   33.5200   28.9880   46.2270 C   0  0  0  0  0  0  0  0  0  0  0  0
   33.4800   27.6930   46.8920 C   0  0  2  0  0  0  0  0  0  0  0  0
   34.3080   27.5600   48.1620 C   0  0  0  0  0  0  0  0  0  0  0  0
   34.2280   28.8160   48.9950 C   0  0  0  0  0  0  0  0  0  0  0  0
   34.0520   30.8860   49.0400 H   0  0  0  0  0  0  0  0  0  0  0  0
   32.5000   30.3180   47.4650 H   0  0  0  0  0  0  0  0  0  0  0  0
   33.7030   31.0660   46.4460 H   0  0  0  0  0  0  0  0  0  0  0  0
   34.5520   29.0470   45.7380 H   0  0  0  0  0  0  0  0  0  0  0  0
   32.7260   29.0960   45.4850 H   0  0  0  0  0  0  0  0  0  0  0  0
   32.4740   27.3520   47.2010 H   0  0  0  0  0  0  0  0  0  0  0  0
   33.8270   26.8640   48.8480 H   0  0  0  0  0  0  0  0  0  0  0  0
   35.3610   27.3730   47.9380 H   0  0  0  0  0  0  0  0  0  0  0  0
   35.0330   28.7430   49.7560 H   0  0  0  0  0  0  0  0  0  0  0  0
   33.2730   28.8890   49.5960 H   0  0  0  0  0  0  0  0  0  0  0  0
   34.0080   26.6820   45.9400 C   0  0  0  0  0  0  0  0  0  0  0  0
   34.4500   27.1150   44.6970 C   0  0  0  0  0  0  0  0  0  0  0  0
   34.9330   26.2320   43.7520 C   0  0  0  0  0  0  0  0  0  0  0  0
   34.9740   24.9080   44.0580 C   0  0  0  0  0  0  0  0  0  0  0  0
   34.5360   24.4600   45.2880 C   0  0  0  0  0  0  0  0  0  0  0  0
   34.0480   25.3630   46.2260 C   0  0  0  0  0  0  0  0  0  0  0  0
   34.4720   28.1070   44.2730 H   0  0  0  0  0  0  0  0  0  0  0  0
   35.2920   26.5130   42.7630 H   0  0  0  0  0  0  0  0  0  0  0  0
   35.3620   24.1930   43.3090 H   0  0  0  0  0  0  0  0  0  0  0  0
   34.6160   23.3890   45.3940 H   0  0  0  0  0  0  0  0  0  0  0  0
   33.4700   24.7400   47.3620 C   0  0  0  0  0  3  0  0  0  0  0  0
   32.5590   23.8330   47.6290 C   0  0  0  0  0  3  0  0  0  0  0  0
   31.6900   23.0210   46.7400 C   0  0  0  0  0  2  0  0  0  0  0  0
   30.8200   23.5590   46.3460 H   0  0  0  0  0  0  0  0  0  0  0  0
   36.4630   30.6000   46.9200 C   0  0  0  0  0  0  0  0  0  0  0  0
   35.8360   30.4980   48.1500 C   0  0  0  0  0  0  0  0  0  0  0  0
   36.6070   30.7710   49.2870 C   0  0  0  0  0  0  0  0  0  0  0  0
   37.9150   31.1170   49.1310 N   0  0  0  0  0  0  0  0  0  0  0  0
   38.4850   31.2030   47.9030 C   0  0  0  0  0  0  0  0  0  0  0  0
   37.7460   30.9410   46.7880 N   0  0  0  0  0  0  0  0  0  0  0  0
   36.0370   30.4490   45.9460 H   0  0  0  0  0  0  0  0  0  0  0  0
   36.1660   30.7060   50.2680 H   0  0  0  0  0  0  0  0  0  0  0  0
   39.5240   31.4850   47.8920 H   0  0  0  0  0  0  0  0  0  0  0  0
  1  6  1  0  0  0  0
  1  7  1  1  0  0  0
  2  8  1  0  0  0  0
  2  1  1  0  0  0  0
  3  4  1  0  0  0  0
  3  2  1  0  0  0  0
  4 12  1  1  0  0  0
  4  5  1  0  0  0  0
  5 13  1  0  0  0  0
  5  6  1  0  0  0  0
  6 16  1  0  0  0  0
  6 15  1  0  0  0  0
  9  2  1  0  0  0  0
 10  3  1  0  0  0  0
 11  3  1  0  0  0  0
 14  5  1  0  0  0  0
 17 22  1  0  0  0  0
 17  4  1  0  0  0  0
 18 17  2  0  0  0  0
 19 20  2  0  0  0  0
 19 18  1  0  0  0  0
 20 21  1  0  0  0  0
 21 26  1  0  0  0  0
 21 22  2  0  0  0  0
 22 27  1  0  0  0  0
 23 18  1  0  0  0  0
 24 19  1  0  0  0  0
 25 20  1  0  0  0  0
 27 28  2  0  0  0  0
 29 28  1  0  0  0  0
 30 29  1  0  0  0  0
 31 32  1  0  0  0  0
 32  1  1  0  0  0  0
 32 33  2  0  0  0  0
 33 38  1  0  0  0  0
 34 33  1  0  0  0  0
 35 34  2  0  0  0  0
 36 31  2  0  0  0  0
 36 35  1  0  0  0  0
 37 31  1  0  0  0  0
 39 35  1  0  0  0  0
M  END
>  <minimizedAffinity>
-4.50937223

>  <minimizedRMSD>
1.03687704

$$$$
