
 OpenBabel03272507183D

 25 26  0  0  1  0  0  0  0  0999 V2000
   37.7910   30.5150   50.9600 C   0  0  1  0  0  0  0  0  0  0  0  0
   36.5360   29.7950   51.1680 C   0  0  2  0  0  0  0  0  0  0  0  0
   37.7370   28.9780   50.8080 C   0  0  0  0  0  0  0  0  0  0  0  0
   38.4250   30.8560   51.8170 H   0  0  0  0  0  0  0  0  0  0  0  0
   36.1660   29.8850   52.2330 H   0  0  0  0  0  0  0  0  0  0  0  0
   38.2090   28.3800   51.6110 H   0  0  0  0  0  0  0  0  0  0  0  0
   37.7790   28.5390   49.8100 H   0  0  0  0  0  0  0  0  0  0  0  0
   38.1100   31.1930   49.6640 C   0  0  0  0  0  0  0  0  0  0  0  0
   38.4980   32.5280   49.7390 C   0  0  0  0  0  0  0  0  0  0  0  0
   38.7650   33.1280   48.5110 C   0  0  0  0  0  0  0  0  0  0  0  0
   38.6440   32.4250   47.3360 N   0  0  0  0  0  0  0  0  0  0  0  0
   38.2640   31.1310   47.3120 C   0  0  0  0  0  0  0  0  0  0  0  0
   37.9910   30.5040   48.5000 N   0  0  0  0  0  0  0  0  0  0  0  0
   38.5840   33.0520   50.6610 H   0  0  0  0  0  0  0  0  0  0  0  0
   39.0750   34.1630   48.4580 H   0  0  0  0  0  0  0  0  0  0  0  0
   38.1380   30.3950   46.0600 C   0  0  0  0  0  0  0  0  0  0  0  0
   39.1940   30.2880   45.2720 C   0  0  0  0  0  0  0  0  0  0  0  0
   39.1030   29.5410   43.9770 C   0  0  0  0  0  0  0  0  0  0  0  0
   40.1130   29.3200   43.5920 H   0  0  0  0  0  0  0  0  0  0  0  0
   35.5390   29.9700   50.2170 O   0  0  0  0  0  0  0  0  0  0  0  0
   34.4940   29.1680   49.8950 C   0  0  0  0  0  0  0  0  0  0  0  0
   34.6280   28.1460   49.1890 O   0  0  0  0  0  0  0  0  0  0  0  0
   33.3390   29.6950   50.4770 N   0  0  0  0  0  0  0  0  0  0  0  0
   32.8450   29.6790   51.3930 H   0  0  0  0  0  0  0  0  0  0  0  0
   32.7350   30.2960   49.8800 H   0  0  0  0  0  0  0  0  0  0  0  0
  1  2  1  0  0  0  0
  1  4  1  1  0  0  0
  2  5  1  1  0  0  0
  3  1  1  0  0  0  0
  3  2  1  0  0  0  0
  3  6  1  0  0  0  0
  7  3  1  0  0  0  0
  8  9  1  0  0  0  0
  8  1  1  0  0  0  0
  9 14  1  0  0  0  0
 10  9  2  0  0  0  0
 11 10  1  0  0  0  0
 12 11  2  0  0  0  0
 12 13  1  0  0  0  0
 13  8  2  0  0  0  0
 15 10  1  0  0  0  0
 16 12  1  0  0  0  0
 17 16  2  0  0  0  0
 18 17  1  0  0  0  0
 19 18  1  0  0  0  0
 20  2  1  0  0  0  0
 21 20  1  0  0  0  0
 21 23  1  0  0  0  0
 22 21  2  0  0  0  0
 23 24  1  0  0  0  0
 25 23  1  0  0  0  0
M  END
>  <minimizedAffinity>
-5.28094959

>  <minimizedRMSD>
1.17904139

$$$$
