
 OpenBabel03272509373D

 25 26  0  0  0  0  0  0  0  0999 V2000
   35.9610   29.4190   49.2410 C   0  0  0  0  0  0  0  0  0  0  0  0
   35.9860   29.3500   50.6390 C   0  0  0  0  0  0  0  0  0  0  0  0
   36.9560   29.9950   51.3950 C   0  0  0  0  0  0  0  0  0  0  0  0
   37.9490   30.7410   50.7660 C   0  0  0  0  0  0  0  0  0  0  0  0
   37.9110   30.7990   49.3940 C   0  0  0  0  0  0  0  0  0  0  0  0
   36.9440   30.1560   48.6620 C   0  0  0  0  0  0  0  0  0  0  0  0
   35.2130   28.7680   51.1260 H   0  0  0  0  0  0  0  0  0  0  0  0
   36.8690   29.8670   52.4600 H   0  0  0  0  0  0  0  0  0  0  0  0
   38.6560   31.2010   51.4430 H   0  0  0  0  0  0  0  0  0  0  0  0
   38.7370   31.4080   49.0580 H   0  0  0  0  0  0  0  0  0  0  0  0
   34.9080   28.7200   48.5330 C   0  0  0  0  0  0  0  0  0  0  0  0
   34.5460   27.6200   49.0900 O   0  0  0  0  0  0  0  0  0  0  0  0
   33.0030   30.8860   46.3350 C   0  0  0  0  0  0  0  0  0  0  0  0
   33.0520   30.2470   45.1020 C   0  0  0  0  0  0  0  0  0  0  0  0
   33.7440   29.0530   45.0210 C   0  0  0  0  0  0  0  0  0  0  0  0
   34.3440   28.5510   46.1360 N   0  0  0  0  0  0  0  0  0  0  0  0
   34.2820   29.1810   47.3000 C   0  0  0  0  0  0  0  0  0  0  0  0
   33.6090   30.3460   47.3890 N   0  0  0  0  0  0  0  0  0  0  0  0
   32.4760   31.8250   46.4630 H   0  0  0  0  0  0  0  0  0  0  0  0
   32.5290   30.7660   44.3100 H   0  0  0  0  0  0  0  0  0  0  0  0
   33.7680   28.5780   44.0580 H   0  0  0  0  0  0  0  0  0  0  0  0
   37.0530   30.3170   47.2300 C   0  0  0  0  0  3  0  0  0  0  0  0
   38.1170   30.6710   46.5390 C   0  0  0  0  0  3  0  0  0  0  0  0
   38.4050   30.8810   45.1170 C   0  0  0  0  0  2  0  0  0  0  0  0
   38.4220   31.9780   44.8630 H   0  0  0  0  0  0  0  0  0  0  0  0
  1  2  1  0  0  0  0
  2  7  1  0  0  0  0
  2  3  2  0  0  0  0
  3  8  1  0  0  0  0
  4  3  1  0  0  0  0
  4  9  1  0  0  0  0
  5  4  2  0  0  0  0
  6  1  2  0  0  0  0
  6  5  1  0  0  0  0
 10  5  1  0  0  0  0
 11 12  2  0  0  0  0
 11  1  1  0  0  0  0
 13 19  1  0  0  0  0
 13 18  1  0  0  0  0
 14 13  2  0  0  0  0
 15 14  1  0  0  0  0
 15 16  2  0  0  0  0
 16 17  1  0  0  0  0
 17 18  2  0  0  0  0
 17 11  1  0  0  0  0
 20 14  1  0  0  0  0
 21 15  1  0  0  0  0
 22  6  1  0  0  0  0
 23 22  2  0  0  0  0
 24 23  1  0  0  0  0
 25 24  1  0  0  0  0
M  END
>  <minimizedAffinity>
-5.0400939

>  <minimizedRMSD>
0.877934277

$$$$
