
 OpenBabel03272509503D

 28 29  0  0  0  0  0  0  0  0999 V2000
   33.6520   28.5350   49.1840 C   0  0  0  0  0  0  0  0  0  0  0  0
   33.5800   29.5580   48.7960 H   0  0  0  0  0  0  0  0  0  0  0  0
   33.2500   28.5540   50.2320 H   0  0  0  0  0  0  0  0  0  0  0  0
   32.8400   27.5490   48.4070 C   0  0  0  0  0  0  0  0  0  0  0  0
   33.1780   27.5230   47.3340 H   0  0  0  0  0  0  0  0  0  0  0  0
   32.9740   26.5090   48.7910 H   0  0  0  0  0  0  0  0  0  0  0  0
   31.3910   27.8770   48.3920 C   0  0  0  0  0  0  0  0  0  0  0  0
   30.7100   27.7490   49.5760 C   0  0  0  0  0  0  0  0  0  0  0  0
   29.3630   28.0240   49.6940 C   0  0  0  0  0  0  0  0  0  0  0  0
   28.6970   28.4300   48.6200 N   0  0  0  0  0  0  0  0  0  0  0  0
   29.3690   28.5580   47.4410 C   0  0  0  0  0  0  0  0  0  0  0  0
   30.6840   28.2920   47.3190 N   0  0  0  0  0  0  0  0  0  0  0  0
   31.2110   27.4220   50.4830 H   0  0  0  0  0  0  0  0  0  0  0  0
   28.8500   27.9170   50.6330 H   0  0  0  0  0  0  0  0  0  0  0  0
   28.8920   28.8840   46.5210 H   0  0  0  0  0  0  0  0  0  0  0  0
   35.0000   28.0950   49.3050 O   0  0  0  0  0  0  0  0  0  0  0  0
   37.0810   30.0940   51.4850 C   0  0  0  0  0  0  0  0  0  0  0  0
   37.8350   30.7900   50.5330 C   0  0  0  0  0  0  0  0  0  0  0  0
   37.5940   30.5410   49.1790 C   0  0  0  0  0  0  0  0  0  0  0  0
   36.6200   29.6180   48.8730 N   0  0  0  0  0  0  0  0  0  0  0  0
   35.9180   28.9680   49.8180 C   0  0  0  0  0  0  0  0  0  0  0  0
   36.1590   29.2170   51.1240 N   0  0  0  0  0  0  0  0  0  0  0  0
   37.3120   30.3280   52.5170 H   0  0  0  0  0  0  0  0  0  0  0  0
   38.6020   31.5170   50.7690 H   0  0  0  0  0  0  0  0  0  0  0  0
   38.3210   31.2100   48.0880 C   0  0  0  0  0  3  0  0  0  0  0  0
   38.3720   30.7050   46.8650 C   0  0  0  0  0  3  0  0  0  0  0  0
   39.1400   31.4760   45.8450 C   0  0  0  0  0  2  0  0  0  0  0  0
   40.0490   31.8800   46.3210 H   0  0  0  0  0  0  0  0  0  0  0  0
  1 16  1  0  0  0  0
  1  3  1  0  0  0  0
  2  1  1  0  0  0  0
  4  6  1  0  0  0  0
  4  1  1  0  0  0  0
  5  4  1  0  0  0  0
  7  4  1  0  0  0  0
  7  8  1  0  0  0  0
  8  9  2  0  0  0  0
  8 13  1  0  0  0  0
  9 14  1  0  0  0  0
 10  9  1  0  0  0  0
 11 10  2  0  0  0  0
 12 11  1  0  0  0  0
 12  7  2  0  0  0  0
 15 11  1  0  0  0  0
 16 21  1  0  0  0  0
 17 23  1  0  0  0  0
 18 24  1  0  0  0  0
 18 17  2  0  0  0  0
 19 18  1  0  0  0  0
 20 19  2  0  0  0  0
 20 21  1  0  0  0  0
 21 22  2  0  0  0  0
 22 17  1  0  0  0  0
 25 19  1  0  0  0  0
 26 25  2  0  0  0  0
 27 28  1  0  0  0  0
 27 26  1  0  0  0  0
M  END
>  <minimizedAffinity>
-5.09386826

>  <minimizedRMSD>
0.49786678

$$$$
