REMARK  Name = 
REMARK  7 active torsions:
REMARK  status: ('A' for Active; 'I' for Inactive)
REMARK    1  A    between atoms: C_3  and  C_9
REMARK    2  A    between atoms: C_5  and  O_14
REMARK    3  A    between atoms: O_14  and  C_15
REMARK    4  A    between atoms: C_15  and  C_16
REMARK    5  A    between atoms: C_16  and  C_17
REMARK    6  A    between atoms: C_21  and  C_35
REMARK    7  A    between atoms: C_36  and  C_37
REMARK                            x       y       z     vdW  Elec       q    Type
REMARK                         _______ _______ _______ _____ _____    ______ ____
ROOT
ATOM      1  C   UNL     1      37.337  30.169  51.507  0.00  0.00    +0.000 A 
ATOM      2  C   UNL     1      38.077  30.858  50.515  0.00  0.00    +0.000 A 
ATOM      3  C   UNL     1      37.709  30.650  49.195  0.00  0.00    +0.000 A 
ATOM      4  N   UNL     1      36.659  29.796  48.965  0.00  0.00    +0.000 NA
ATOM      5  C   UNL     1      35.984  29.165  49.923  0.00  0.00    +0.000 A 
ATOM      6  N   UNL     1      36.337  29.362  51.212  0.00  0.00    +0.000 NA
ATOM      7  H   UNL     1      37.686  30.384  52.516  0.00  0.00    +0.000 HD
ATOM      8  H   UNL     1      38.903  31.529  50.701  0.00  0.00    +0.000 HD
ENDROOT
BRANCH   3  11
ATOM      9  F   UNL     1      38.943  33.262  49.010  0.00  0.00    +0.000 F 
ATOM     10  C   UNL     1      38.917  32.472  47.940  0.00  0.00    +0.000 A 
ATOM     11  C   UNL     1      38.337  31.257  48.045  0.00  0.00    +0.000 A 
ATOM     12  C   UNL     1      38.368  30.522  46.869  0.00  0.00    +0.000 A 
ATOM     13  C   UNL     1      38.937  30.991  45.712  0.00  0.00    +0.000 A 
ATOM     14  C   UNL     1      39.512  32.226  45.650  0.00  0.00    +0.000 A 
ATOM     15  C   UNL     1      39.497  32.977  46.797  0.00  0.00    +0.000 A 
ATOM     16  H   UNL     1      37.944  29.515  46.774  0.00  0.00    +0.000 HD
ATOM     17  H   UNL     1      38.959  30.405  44.785  0.00  0.00    +0.000 HD
ATOM     18  H   UNL     1      39.965  32.617  44.750  0.00  0.00    +0.000 HD
ATOM     19  H   UNL     1      39.947  33.961  46.774  0.00  0.00    +0.000 HD
ENDBRANCH   3  11
BRANCH   5  20
ATOM     20  O   UNL     1      34.991  28.376  49.448  0.00  0.00    +0.000 OA
BRANCH  20  21
ATOM     21  C   UNL     1      34.454  28.652  48.152  0.00  0.00    +0.000 C 
ATOM     22  H   UNL     1      35.258  28.903  47.434  0.00  0.00    +0.000 HD
ATOM     23  H   UNL     1      33.832  29.563  48.276  0.00  0.00    +0.000 HD
BRANCH  21  24
ATOM     24  C   UNL     1      33.567  27.537  47.702  0.00  0.00    +0.000 C 
ATOM     25  H   UNL     1      33.754  26.578  48.195  0.00  0.00    +0.000 HD
ATOM     26  H   UNL     1      33.816  27.356  46.615  0.00  0.00    +0.000 HD
BRANCH  24  27
ATOM     27  C   UNL     1      32.126  27.903  47.699  0.00  0.00    +0.000 A 
ATOM     28  C   UNL     1      31.355  27.524  48.802  0.00  0.00    +0.000 A 
ATOM     29  C   UNL     1      30.023  27.823  48.875  0.00  0.00    +0.000 A 
ATOM     30  N   UNL     1      29.445  28.480  47.891  0.00  0.00    +0.000 NA
ATOM     31  C   UNL     1      30.201  28.850  46.813  0.00  0.00    +0.000 A 
ATOM     32  N   UNL     1      31.513  28.579  46.696  0.00  0.00    +0.000 NA
ATOM     33  H   UNL     1      31.845  26.982  49.607  0.00  0.00    +0.000 HD
ATOM     34  H   UNL     1      29.401  27.538  49.725  0.00  0.00    +0.000 HD
BRANCH  31  35
ATOM     35  C   UNL     1      29.513  29.576  45.749  0.00  0.00    +0.000 C 
ATOM     36  C   UNL     1      28.252  29.401  45.482  0.00  0.00    +0.000 C 
BRANCH  36  37
ATOM     37  C   UNL     1      27.534  30.138  44.395  0.00  0.00    +0.000 C 
ATOM     38  H   UNL     1      28.315  30.672  43.814  0.00  0.00    +0.000 HD
ENDBRANCH  36  37
ENDBRANCH  31  35
ENDBRANCH  24  27
ENDBRANCH  21  24
ENDBRANCH  20  21
ENDBRANCH   5  20
TORSDOF 7
