
     RDKit          3D

 27 27  0  0  0  0  0  0  0  0999 V2000
   37.2356   31.5541   48.9317 C   0  0  0  0  0  0  0  0  0  0  0  0
   38.2363   32.4943   49.1789 C   0  0  0  0  0  0  0  0  0  0  0  0
   39.0216   32.9280   48.1197 C   0  0  0  0  0  0  0  0  0  0  0  0
   38.7660   32.4000   46.8701 N   0  0  0  0  0  0  0  0  0  0  0  0
   37.7904   31.4927   46.6677 C   0  0  0  0  0  0  0  0  0  0  0  0
   37.0448   31.0857   47.6932 N   0  0  0  0  0  0  0  0  0  0  0  0
   36.5286   31.2100   50.0764 O   0  0  0  0  0  0  0  0  0  0  0  0
   35.7093   30.0978   50.0022 C   0  0  0  0  0  0  0  0  0  0  0  0
   36.2270   29.4204   51.0146 C   0  0  0  0  0  0  0  0  0  0  0  0
   37.3353   29.9620   51.8844 C   0  0  0  0  0  0  0  0  0  0  0  0
   38.4443   32.9168   50.1659 H   0  0  0  0  0  0  0  0  0  0  0  0
   39.8108   33.6553   48.2559 H   0  0  0  0  0  0  0  0  0  0  0  0
   37.6071   31.0904   45.6739 H   0  0  0  0  0  0  0  0  0  0  0  0
   35.6928   29.5980   48.9928 H   0  0  0  0  0  0  0  0  0  0  0  0
   34.6535   30.4802   50.1192 H   0  0  0  0  0  0  0  0  0  0  0  0
   35.4405   29.1414   51.7882 H   0  0  0  0  0  0  0  0  0  0  0  0
   36.6173   28.4114   50.7320 H   0  0  0  0  0  0  0  0  0  0  0  0
   37.1073   30.9548   52.3154 H   0  0  0  0  0  0  0  0  0  0  0  0
   38.2051   30.0938   51.2064 H   0  0  0  0  0  0  0  0  0  0  0  0
   37.6757   28.9569   52.9140 C   0  0  0  0  0  0  0  0  0  0  0  0
   38.1127   27.7244   52.7134 C   0  0  0  0  0  0  0  0  0  0  0  0
   38.3572   27.0798   51.4088 C   0  0  0  0  0  0  0  0  0  0  0  0
   37.4866   26.4077   51.1727 H   0  0  0  0  0  0  0  0  0  0  0  0
   37.5338   29.3236   53.9130 H   0  0  0  0  0  0  0  0  0  0  0  0
   38.3263   27.0869   53.5344 H   0  0  0  0  0  0  0  0  0  0  0  0
   38.5508   27.8279   50.6163 H   0  0  0  0  0  0  0  0  0  0  0  0
   39.2551   26.4206   51.4172 H   0  0  0  0  0  0  0  0  0  0  0  0
  1  2  2  0
  1  7  1  0
  3  2  1  0
  4  3  2  0
  5  4  1  0
  5  6  2  0
  6  1  1  0
  8  7  1  0
  8  9  1  0
  9 10  1  0
  2 11  1  0
  3 12  1  0
  5 13  1  0
  8 14  1  0
  8 15  1  0
  9 16  1  0
  9 17  1  0
 10 18  1  0
 10 19  1  0
 20 21  2  3
 21 22  1  0
 22 23  1  0
 20 24  1  0
 21 25  1  0
 22 26  1  0
 22 27  1  0
 10 20  1  0
M  ISO  8  11  14  12  14  13  14  14   8  15   8  16   8  17   8  18   8
M  ISO  2  19   8  23   8
M  END
>  <DihAtoms>  (1) 
8,9,19,20

>  <DihDeg>  (1) 
120.04949601493675

$$$$
