
 OpenBabel03272502293D

 18 18  0  0  0  0  0  0  0  0999 V2000
   37.5500   30.2600   51.2440 C   0  0  0  0  0  0  0  0  0  0  0  0
   37.7910   30.6170   49.9170 C   0  0  0  0  0  0  0  0  0  0  0  0
   36.8620   30.2770   48.9540 C   0  0  0  0  0  0  0  0  0  0  0  0
   35.7400   29.6000   49.3360 N   0  0  0  0  0  0  0  0  0  0  0  0
   35.5290   29.2650   50.6240 C   0  0  0  0  0  0  0  0  0  0  0  0
   36.4300   29.5950   51.5670 N   0  0  0  0  0  0  0  0  0  0  0  0
   38.2520   30.5070   52.0350 H   0  0  0  0  0  0  0  0  0  0  0  0
   38.7090   31.1580   49.6830 H   0  0  0  0  0  0  0  0  0  0  0  0
   34.6140   28.7250   50.8730 H   0  0  0  0  0  0  0  0  0  0  0  0
   37.0600   30.6190   47.5790 C   0  0  0  0  0  3  0  0  0  0  0  0
   38.2390   30.6140   47.0120 C   0  0  0  0  0  3  0  0  0  0  0  0
   38.4730   30.9680   45.5790 C   0  0  0  0  0  0  0  0  0  0  0  0
   39.3520   30.3890   45.2490 H   0  0  0  0  0  0  0  0  0  0  0  0
   37.5910   30.5600   45.0200 H   0  0  0  0  0  0  0  0  0  0  0  0
   38.5840   32.4190   45.3770 C   0  0  0  0  0  3  0  0  0  0  0  0
   39.6920   33.1280   45.1900 C   0  0  0  0  0  3  0  0  0  0  0  0
   40.9800   32.3940   45.1780 C   0  0  0  0  0  2  0  0  0  0  0  0
   41.1640   31.9630   44.1530 H   0  0  0  0  0  0  0  0  0  0  0  0
  1  6  1  0  0  0  0
  1  7  1  0  0  0  0
  2  1  2  0  0  0  0
  3  4  2  0  0  0  0
  3  2  1  0  0  0  0
  4  5  1  0  0  0  0
  5  9  1  0  0  0  0
  5  6  2  0  0  0  0
  8  2  1  0  0  0  0
 10  3  1  0  0  0  0
 11 10  2  0  0  0  0
 12 11  1  0  0  0  0
 13 12  1  0  0  0  0
 14 12  1  0  0  0  0
 15 12  1  0  0  0  0
 16 15  2  0  0  0  0
 17 16  1  0  0  0  0
 18 17  1  0  0  0  0
M  END
>  <minimizedAffinity>
-4.32927084

>  <minimizedRMSD>
1.43575287

$$$$
