
 OpenBabel03272510043D

 32 33  0  0  0  0  0  0  0  0999 V2000
   34.4310   28.6160   48.1980 C   0  0  0  0  0  0  0  0  0  0  0  0
   35.0540   29.6800   47.6270 C   0  0  0  0  0  0  0  0  0  0  0  0
   35.8520   30.5110   48.4060 C   0  0  0  0  0  0  0  0  0  0  0  0
   36.0420   30.3020   49.7590 C   0  0  0  0  0  0  0  0  0  0  0  0
   35.4260   29.2420   50.3680 C   0  0  0  0  0  0  0  0  0  0  0  0
   34.6470   28.4390   49.5700 C   0  0  0  0  0  0  0  0  0  0  0  0
   36.3460   31.3630   47.9160 H   0  0  0  0  0  0  0  0  0  0  0  0
   36.6730   30.9970   50.2610 H   0  0  0  0  0  0  0  0  0  0  0  0
   35.5970   29.1110   51.4250 H   0  0  0  0  0  0  0  0  0  0  0  0
   34.2070   27.6320   50.1700 H   0  0  0  0  0  0  0  0  0  0  0  0
   33.4300   30.6520   44.4770 C   0  0  0  0  0  0  0  0  0  0  0  0
   33.6430   30.3460   45.8130 C   0  0  0  0  0  0  0  0  0  0  0  0
   34.8830   29.9960   46.2500 C   0  0  0  0  0  0  0  0  0  0  0  0
   35.8820   29.9670   45.3260 N   0  0  0  0  0  0  0  0  0  0  0  0
   35.6840   30.2640   44.0370 C   0  0  0  0  0  0  0  0  0  0  0  0
   34.4600   30.6020   43.6220 N   0  0  0  0  0  0  0  0  0  0  0  0
   32.5320   30.9410   43.9680 H   0  0  0  0  0  0  0  0  0  0  0  0
   32.6920   30.4970   46.2660 H   0  0  0  0  0  0  0  0  0  0  0  0
   36.8800   30.2560   43.1540 C   0  0  0  0  0  0  0  0  0  0  0  0
   36.5510   29.9950   41.8390 F   0  0  0  0  0  0  0  0  0  0  0  0
   37.4050   31.6040   43.0820 F   0  0  0  0  0  0  0  0  0  0  0  0
   37.9150   29.5480   43.5450 F   0  0  0  0  0  0  0  0  0  0  0  0
   33.4550   27.4990   47.3390 S   0  0  0  0  0  0  0  0  0  0  0  0
   32.0260   27.6140   47.7260 O   0  0  0  0  0  0  0  0  0  0  0  0
   33.7530   26.2600   48.1570 O   0  0  0  0  0  0  0  0  0  0  0  0
   33.8500   26.5720   45.9760 C   0  0  0  0  0  0  0  0  0  0  0  0
   34.8010   26.8720   45.5000 H   0  0  0  0  0  0  0  0  0  0  0  0
   33.1180   26.9560   45.1580 H   0  0  0  0  0  0  0  0  0  0  0  0
   33.5330   25.1540   45.9910 C   0  0  0  0  0  3  0  0  0  0  0  0
   32.5680   24.3780   45.5110 C   0  0  0  0  0  3  0  0  0  0  0  0
   31.4940   25.0690   44.7460 C   0  0  0  0  0  2  0  0  0  0  0  0
   30.8150   25.5630   45.4960 H   0  0  0  0  0  0  0  0  0  0  0  0
  1  6  1  0  0  0  0
  2  1  2  0  0  0  0
  2  3  1  0  0  0  0
  3  4  2  0  0  0  0
  4  8  1  0  0  0  0
  4  5  1  0  0  0  0
  5  9  1  0  0  0  0
  6 10  1  0  0  0  0
  6  5  2  0  0  0  0
  7  3  1  0  0  0  0
 11 12  1  0  0  0  0
 12 13  2  0  0  0  0
 12 18  1  0  0  0  0
 13  2  1  0  0  0  0
 14 13  1  0  0  0  0
 15 14  2  0  0  0  0
 16 15  1  0  0  0  0
 16 11  2  0  0  0  0
 17 11  1  0  0  0  0
 19 22  1  0  0  0  0
 19 15  1  0  0  0  0
 20 19  1  0  0  0  0
 21 19  1  0  0  0  0
 23 24  2  0  0  0  0
 23 25  2  0  0  0  0
 23  1  1  0  0  0  0
 26 29  1  0  0  0  0
 26 23  1  0  0  0  0
 27 26  1  0  0  0  0
 28 26  1  0  0  0  0
 30 29  2  0  0  0  0
 31 32  1  0  0  0  0
 31 30  1  0  0  0  0
M  END
>  <minimizedAffinity>
-3.99757624

>  <minimizedRMSD>
7.99298573

$$$$
