
 OpenBabel03272509403D

 30 31  0  0  1  0  0  0  0  0999 V2000
   37.0730   30.9530   49.0530 C   0  0  0  0  0  0  0  0  0  0  0  0
   36.8350   31.9180   50.0410 C   0  0  0  0  0  0  0  0  0  0  0  0
   37.4450   33.1540   50.0560 C   0  0  0  0  0  0  0  0  0  0  0  0
   38.3460   33.4740   49.0450 C   0  0  0  0  0  0  0  0  0  0  0  0
   38.5790   32.5340   48.0810 C   0  0  0  0  0  0  0  0  0  0  0  0
   37.9580   31.3180   48.0930 C   0  0  0  0  0  0  0  0  0  0  0  0
   36.1560   31.7380   50.8470 H   0  0  0  0  0  0  0  0  0  0  0  0
   37.2430   33.8790   50.8310 H   0  0  0  0  0  0  0  0  0  0  0  0
   38.8110   34.4450   49.0760 H   0  0  0  0  0  0  0  0  0  0  0  0
   39.2940   32.8630   47.3300 H   0  0  0  0  0  0  0  0  0  0  0  0
   36.3780   29.6880   49.1330 C   0  0  2  0  0  3  0  0  0  0  0  0
   36.9090   28.8450   49.9560 O   0  0  0  0  0  1  0  0  0  0  0  0
   33.6070   30.1450   46.8440 C   0  0  0  0  0  0  0  0  0  0  0  0
   32.9500   28.9170   46.8650 C   0  0  0  0  0  0  0  0  0  0  0  0
   33.4590   27.9200   47.6720 C   0  0  0  0  0  0  0  0  0  0  0  0
   34.5710   28.1690   48.4070 N   0  0  0  0  0  0  0  0  0  0  0  0
   35.1890   29.3340   48.3830 C   0  0  0  0  0  0  0  0  0  0  0  0
   34.6900   30.3190   47.5910 N   0  0  0  0  0  0  0  0  0  0  0  0
   33.1730   30.8980   46.1980 H   0  0  0  0  0  0  0  0  0  0  0  0
   32.0680   28.7180   46.2820 H   0  0  0  0  0  0  0  0  0  0  0  0
   32.9850   26.9540   47.7200 H   0  0  0  0  0  0  0  0  0  0  0  0
   38.3080   30.4240   46.9990 C   0  0  0  0  0  3  0  0  0  0  0  0
   38.8910   30.7690   45.8670 C   0  0  0  0  0  3  0  0  0  0  0  0
   39.3040   30.0030   44.6890 C   0  0  0  0  0  0  0  0  0  0  0  0
   38.5150   29.2210   44.4840 H   0  0  0  0  0  0  0  0  0  0  0  0
   40.2960   29.5250   44.7600 H   0  0  0  0  0  0  0  0  0  0  0  0
   39.2530   30.8890   43.4780 C   0  0  0  0  0  3  0  0  0  0  0  0
   39.2530   32.2140   43.5740 C   0  0  0  0  0  3  0  0  0  0  0  0
   39.2030   33.1270   42.4070 C   0  0  0  0  0  2  0  0  0  0  0  0
   38.6860   32.6590   41.5320 H   0  0  0  0  0  0  0  0  0  0  0  0
  1 11  1  0  0  0  0
  1  2  1  0  0  0  0
  2  3  2  0  0  0  0
  2  7  1  0  0  0  0
  3  8  1  0  0  0  0
  4  9  1  0  0  0  0
  4  3  1  0  0  0  0
  5  6  1  0  0  0  0
  5  4  2  0  0  0  0
  6  1  2  0  0  0  0
 10  5  1  0  0  0  0
 11 12  1  6  0  0  0
 13 14  2  0  0  0  0
 13 18  1  0  0  0  0
 14 15  1  0  0  0  0
 15 21  1  0  0  0  0
 15 16  2  0  0  0  0
 17 16  1  0  0  0  0
 17 11  1  0  0  0  0
 18 17  2  0  0  0  0
 19 13  1  0  0  0  0
 20 14  1  0  0  0  0
 22  6  1  0  0  0  0
 23 22  2  0  0  0  0
 24 26  1  0  0  0  0
 24 23  1  0  0  0  0
 25 24  1  0  0  0  0
 27 28  2  0  0  0  0
 27 24  1  0  0  0  0
 29 28  1  0  0  0  0
 30 29  1  0  0  0  0
M  END
>  <minimizedAffinity>
-5.53890467

>  <minimizedRMSD>
0.668329418

$$$$
