
 OpenBabel03262521163D

 23 23  0  0  0  0  0  0  0  0999 V2000
   38.6910   27.1710   35.5170 C   0  0  0  0  0  0  0  0  0  0  0  0
   39.5160   27.9190   35.6860 H   0  0  0  0  0  0  0  0  0  0  0  0
   39.0040   26.6500   34.5670 H   0  0  0  0  0  0  0  0  0  0  0  0
   38.3340   26.4090   36.5400 C   0  0  0  0  0  0  0  0  0  0  0  0
   39.0670   26.4870   37.4060 H   0  0  0  0  0  0  0  0  0  0  0  0
   37.3840   26.7300   37.0340 H   0  0  0  0  0  0  0  0  0  0  0  0
   38.1500   24.9160   36.4260 C   0  0  0  0  0  0  0  0  0  0  0  0
   38.9500   24.4190   35.8460 H   0  0  0  0  0  0  0  0  0  0  0  0
   37.2040   24.7770   35.8600 H   0  0  0  0  0  0  0  0  0  0  0  0
   37.9890   24.3450   37.7810 C   0  0  0  0  0  3  0  0  0  0  0  0
   38.7470   23.4270   38.3570 C   0  0  0  0  0  3  0  0  0  0  0  0
   39.9280   22.7660   37.7670 C   0  0  0  0  0  2  0  0  0  0  0  0
   39.6230   21.7470   37.4010 H   0  0  0  0  0  0  0  0  0  0  0  0
   37.4550   27.7340   35.2570 O   0  0  0  0  0  0  0  0  0  0  0  0
   36.9060   27.5060   34.0020 C   0  0  0  0  0  0  0  0  0  0  0  0
   36.1250   28.5710   33.5540 C   0  0  0  0  0  0  0  0  0  0  0  0
   35.5150   28.4760   32.3100 C   0  0  0  0  0  0  0  0  0  0  0  0
   35.7160   27.3210   31.5810 N   0  0  0  0  0  0  0  0  0  0  0  0
   36.4770   26.3100   32.0470 C   0  0  0  0  0  0  0  0  0  0  0  0
   37.0560   26.4160   33.2400 N   0  0  0  0  0  0  0  0  0  0  0  0
   35.9610   29.4890   34.1260 H   0  0  0  0  0  0  0  0  0  0  0  0
   34.8990   29.2730   31.9150 H   0  0  0  0  0  0  0  0  0  0  0  0
   36.6220   25.4100   31.4540 H   0  0  0  0  0  0  0  0  0  0  0  0
  1  2  1  0  0  0  0
  1  4  1  0  0  0  0
  3  1  1  0  0  0  0
  4  6  1  0  0  0  0
  4  5  1  0  0  0  0
  7  4  1  0  0  0  0
  7 10  1  0  0  0  0
  8  7  1  0  0  0  0
  9  7  1  0  0  0  0
 10 11  2  0  0  0  0
 12 11  1  0  0  0  0
 13 12  1  0  0  0  0
 14  1  1  0  0  0  0
 15 14  1  0  0  0  0
 16 15  1  0  0  0  0
 16 21  1  0  0  0  0
 17 16  2  0  0  0  0
 18 19  2  0  0  0  0
 18 17  1  0  0  0  0
 19 20  1  0  0  0  0
 20 15  2  0  0  0  0
 22 17  1  0  0  0  0
 23 19  1  0  0  0  0
M  END
>  <minimizedAffinity>
-3.87892032

$$$$

 OpenBabel03262521163D

 23 23  0  0  0  0  0  0  0  0999 V2000
   37.1010   27.4240   34.2820 C   0  0  0  0  0  0  0  0  0  0  0  0
   36.1980   26.8610   34.6510 H   0  0  0  0  0  0  0  0  0  0  0  0
   36.7020   28.4620   34.0960 H   0  0  0  0  0  0  0  0  0  0  0  0
   38.2200   27.3180   34.9830 C   0  0  0  0  0  0  0  0  0  0  0  0
   39.0360   26.7770   34.4060 H   0  0  0  0  0  0  0  0  0  0  0  0
   38.7170   28.2970   35.1920 H   0  0  0  0  0  0  0  0  0  0  0  0
   38.2850   26.6310   36.3250 C   0  0  0  0  0  0  0  0  0  0  0  0
   37.5940   27.0650   37.0730 H   0  0  0  0  0  0  0  0  0  0  0  0
   39.3170   26.8050   36.6970 H   0  0  0  0  0  0  0  0  0  0  0  0
   38.0800   25.1790   36.1340 C   0  0  0  0  0  3  0  0  0  0  0  0
   37.9410   24.2610   37.0760 C   0  0  0  0  0  3  0  0  0  0  0  0
   37.9630   24.4880   38.5350 C   0  0  0  0  0  2  0  0  0  0  0  0
   38.9770   24.1990   38.9270 H   0  0  0  0  0  0  0  0  0  0  0  0
   37.5940   26.9800   33.0670 O   0  0  0  0  0  0  0  0  0  0  0  0
   36.8040   26.0950   32.3470 C   0  0  0  0  0  0  0  0  0  0  0  0
   37.1950   24.7660   32.5140 C   0  0  0  0  0  0  0  0  0  0  0  0
   36.4890   23.7730   31.8480 C   0  0  0  0  0  0  0  0  0  0  0  0
   35.4300   24.1610   31.0510 N   0  0  0  0  0  0  0  0  0  0  0  0
   35.0810   25.4550   30.9130 C   0  0  0  0  0  0  0  0  0  0  0  0
   35.7670   26.3960   31.5580 N   0  0  0  0  0  0  0  0  0  0  0  0
   38.0330   24.4520   33.1430 H   0  0  0  0  0  0  0  0  0  0  0  0
   36.7490   22.7280   31.9420 H   0  0  0  0  0  0  0  0  0  0  0  0
   34.2420   25.7370   30.2800 H   0  0  0  0  0  0  0  0  0  0  0  0
  1  2  1  0  0  0  0
  1  4  1  0  0  0  0
  3  1  1  0  0  0  0
  4  6  1  0  0  0  0
  4  7  1  0  0  0  0
  5  4  1  0  0  0  0
  7  9  1  0  0  0  0
  7  8  1  0  0  0  0
 10  7  1  0  0  0  0
 10 11  2  0  0  0  0
 11 12  1  0  0  0  0
 12 13  1  0  0  0  0
 14  1  1  0  0  0  0
 15 16  1  0  0  0  0
 15 14  1  0  0  0  0
 16 21  1  0  0  0  0
 17 22  1  0  0  0  0
 17 16  2  0  0  0  0
 18 17  1  0  0  0  0
 19 18  2  0  0  0  0
 19 20  1  0  0  0  0
 20 15  2  0  0  0  0
 23 19  1  0  0  0  0
M  END
>  <minimizedAffinity>
-3.74267364

$$$$

 OpenBabel03262521163D

 23 23  0  0  0  0  0  0  0  0999 V2000
   38.1560   26.9290   36.0310 C   0  0  0  0  0  0  0  0  0  0  0  0
   39.0420   27.0410   36.7170 H   0  0  0  0  0  0  0  0  0  0  0  0
   37.3200   27.4260   36.6020 H   0  0  0  0  0  0  0  0  0  0  0  0
   38.3160   27.2730   34.7620 C   0  0  0  0  0  0  0  0  0  0  0  0
   38.8660   28.2630   34.6540 H   0  0  0  0  0  0  0  0  0  0  0  0
   38.9900   26.5900   34.1890 H   0  0  0  0  0  0  0  0  0  0  0  0
   37.1600   27.4580   33.8100 C   0  0  0  0  0  0  0  0  0  0  0  0
   36.6590   26.5100   33.5410 H   0  0  0  0  0  0  0  0  0  0  0  0
   37.6060   27.8660   32.8780 H   0  0  0  0  0  0  0  0  0  0  0  0
   36.2260   28.4570   34.3740 C   0  0  0  0  0  3  0  0  0  0  0  0
   35.6630   29.4720   33.7380 C   0  0  0  0  0  3  0  0  0  0  0  0
   35.8460   29.8310   32.3190 C   0  0  0  0  0  2  0  0  0  0  0  0
   36.5760   30.6850   32.2570 H   0  0  0  0  0  0  0  0  0  0  0  0
   37.7540   25.6210   35.8250 O   0  0  0  0  0  0  0  0  0  0  0  0
   38.4850   24.6250   36.4590 C   0  0  0  0  0  0  0  0  0  0  0  0
   38.0410   24.3750   37.7570 C   0  0  0  0  0  0  0  0  0  0  0  0
   38.6850   23.4000   38.5070 C   0  0  0  0  0  0  0  0  0  0  0  0
   39.7390   22.7280   37.9210 N   0  0  0  0  0  0  0  0  0  0  0  0
   40.1420   22.9980   36.6630 C   0  0  0  0  0  0  0  0  0  0  0  0
   39.5150   23.9340   35.9560 N   0  0  0  0  0  0  0  0  0  0  0  0
   37.2070   24.9030   38.2280 H   0  0  0  0  0  0  0  0  0  0  0  0
   38.3810   23.1650   39.5180 H   0  0  0  0  0  0  0  0  0  0  0  0
   40.9750   22.4550   36.2210 H   0  0  0  0  0  0  0  0  0  0  0  0
  1  3  1  0  0  0  0
  1  2  1  0  0  0  0
  4  1  1  0  0  0  0
  5  4  1  0  0  0  0
  6  4  1  0  0  0  0
  7 10  1  0  0  0  0
  7  4  1  0  0  0  0
  8  7  1  0  0  0  0
  9  7  1  0  0  0  0
 11 10  2  0  0  0  0
 12 11  1  0  0  0  0
 13 12  1  0  0  0  0
 14  1  1  0  0  0  0
 14 15  1  0  0  0  0
 15 16  1  0  0  0  0
 16 21  1  0  0  0  0
 16 17  2  0  0  0  0
 17 22  1  0  0  0  0
 18 17  1  0  0  0  0
 19 18  2  0  0  0  0
 20 15  2  0  0  0  0
 20 19  1  0  0  0  0
 23 19  1  0  0  0  0
M  END
>  <minimizedAffinity>
-3.73090672

$$$$

 OpenBabel03262521163D

 23 23  0  0  0  0  0  0  0  0999 V2000
   38.5470   27.1410   35.2670 C   0  0  0  0  0  0  0  0  0  0  0  0
   39.2860   27.9870   35.3370 H   0  0  0  0  0  0  0  0  0  0  0  0
   38.8480   26.6110   34.3170 H   0  0  0  0  0  0  0  0  0  0  0  0
   38.3600   26.3970   36.3460 C   0  0  0  0  0  0  0  0  0  0  0  0
   39.2250   26.4840   37.0790 H   0  0  0  0  0  0  0  0  0  0  0  0
   37.5040   26.7310   36.9840 H   0  0  0  0  0  0  0  0  0  0  0  0
   38.1560   24.9030   36.2880 C   0  0  0  0  0  0  0  0  0  0  0  0
   38.9620   24.3720   35.7480 H   0  0  0  0  0  0  0  0  0  0  0  0
   37.2220   24.7550   35.7050 H   0  0  0  0  0  0  0  0  0  0  0  0
   37.9520   24.3900   37.6600 C   0  0  0  0  0  3  0  0  0  0  0  0
   38.6910   23.4950   38.2960 C   0  0  0  0  0  3  0  0  0  0  0  0
   39.8860   22.8080   37.7700 C   0  0  0  0  0  2  0  0  0  0  0  0
   39.5880   21.7750   37.4380 H   0  0  0  0  0  0  0  0  0  0  0  0
   37.2350   27.5420   35.0810 O   0  0  0  0  0  0  0  0  0  0  0  0
   36.7930   27.6790   33.7730 C   0  0  0  0  0  0  0  0  0  0  0  0
   37.0260   26.5390   33.0040 C   0  0  0  0  0  0  0  0  0  0  0  0
   36.6320   26.5390   31.6720 C   0  0  0  0  0  0  0  0  0  0  0  0
   36.0270   27.6780   31.1800 N   0  0  0  0  0  0  0  0  0  0  0  0
   35.8180   28.7620   31.9530 C   0  0  0  0  0  0  0  0  0  0  0  0
   36.2010   28.7480   33.2270 N   0  0  0  0  0  0  0  0  0  0  0  0
   37.5050   25.6330   33.3860 H   0  0  0  0  0  0  0  0  0  0  0  0
   36.7880   25.6820   31.0310 H   0  0  0  0  0  0  0  0  0  0  0  0
   35.3380   29.6490   31.5430 H   0  0  0  0  0  0  0  0  0  0  0  0
  1  2  1  0  0  0  0
  1  4  1  0  0  0  0
  3  1  1  0  0  0  0
  4  6  1  0  0  0  0
  4  5  1  0  0  0  0
  7  4  1  0  0  0  0
  7 10  1  0  0  0  0
  8  7  1  0  0  0  0
  9  7  1  0  0  0  0
 10 11  2  0  0  0  0
 12 11  1  0  0  0  0
 13 12  1  0  0  0  0
 14  1  1  0  0  0  0
 15 14  1  0  0  0  0
 16 21  1  0  0  0  0
 16 15  2  0  0  0  0
 17 16  1  0  0  0  0
 18 17  2  0  0  0  0
 18 19  1  0  0  0  0
 19 20  2  0  0  0  0
 20 15  1  0  0  0  0
 22 17  1  0  0  0  0
 23 19  1  0  0  0  0
M  END
>  <minimizedAffinity>
-3.67136574

$$$$

 OpenBabel03262521163D

 23 23  0  0  0  0  0  0  0  0999 V2000
   38.2360   26.9500   35.9130 C   0  0  0  0  0  0  0  0  0  0  0  0
   39.2760   26.9950   36.3440 H   0  0  0  0  0  0  0  0  0  0  0  0
   37.6220   27.5380   36.6550 H   0  0  0  0  0  0  0  0  0  0  0  0
   38.0890   27.2460   34.6310 C   0  0  0  0  0  0  0  0  0  0  0  0
   37.2110   26.6950   34.1640 H   0  0  0  0  0  0  0  0  0  0  0  0
   37.7990   28.3100   34.4420 H   0  0  0  0  0  0  0  0  0  0  0  0
   39.1740   27.0210   33.6070 C   0  0  0  0  0  0  0  0  0  0  0  0
   39.1560   27.7570   32.7810 H   0  0  0  0  0  0  0  0  0  0  0  0
   38.9590   26.0270   33.1620 H   0  0  0  0  0  0  0  0  0  0  0  0
   40.4830   26.9670   34.2950 C   0  0  0  0  0  3  0  0  0  0  0  0
   41.6700   27.2370   33.7760 C   0  0  0  0  0  3  0  0  0  0  0  0
   41.9480   27.6520   32.3870 C   0  0  0  0  0  2  0  0  0  0  0  0
   42.3170   26.7570   31.8140 H   0  0  0  0  0  0  0  0  0  0  0  0
   37.6850   25.6810   35.8820 O   0  0  0  0  0  0  0  0  0  0  0  0
   38.2810   24.7110   36.6750 C   0  0  0  0  0  0  0  0  0  0  0  0
   39.2620   23.9880   35.9970 C   0  0  0  0  0  0  0  0  0  0  0  0
   39.9410   22.9840   36.6740 C   0  0  0  0  0  0  0  0  0  0  0  0
   39.6020   22.7550   37.9930 N   0  0  0  0  0  0  0  0  0  0  0  0
   38.6480   23.4730   38.6170 C   0  0  0  0  0  0  0  0  0  0  0  0
   38.0060   24.4330   37.9550 N   0  0  0  0  0  0  0  0  0  0  0  0
   39.5350   24.1640   34.9530 H   0  0  0  0  0  0  0  0  0  0  0  0
   40.7110   22.3930   36.1960 H   0  0  0  0  0  0  0  0  0  0  0  0
   38.3980   23.2750   39.6570 H   0  0  0  0  0  0  0  0  0  0  0  0
  1  2  1  0  0  0  0
  1  3  1  0  0  0  0
  4  1  1  0  0  0  0
  5  4  1  0  0  0  0
  6  4  1  0  0  0  0
  7 10  1  0  0  0  0
  7  4  1  0  0  0  0
  8  7  1  0  0  0  0
  9  7  1  0  0  0  0
 11 10  2  0  0  0  0
 12 11  1  0  0  0  0
 13 12  1  0  0  0  0
 14  1  1  0  0  0  0
 14 15  1  0  0  0  0
 15 20  1  0  0  0  0
 16 17  1  0  0  0  0
 16 15  2  0  0  0  0
 17 18  2  0  0  0  0
 18 19  1  0  0  0  0
 19 23  1  0  0  0  0
 20 19  2  0  0  0  0
 21 16  1  0  0  0  0
 22 17  1  0  0  0  0
M  END
>  <minimizedAffinity>
-3.64070868

$$$$

 OpenBabel03262521163D

 23 23  0  0  0  0  0  0  0  0999 V2000
   38.3050   22.3990   34.2690 C   0  0  0  0  0  0  0  0  0  0  0  0
   38.2200   23.4540   33.8850 H   0  0  0  0  0  0  0  0  0  0  0  0
   38.9140   21.8810   33.4730 H   0  0  0  0  0  0  0  0  0  0  0  0
   38.6810   22.2320   35.5280 C   0  0  0  0  0  0  0  0  0  0  0  0
   37.7950   22.2180   36.2400 H   0  0  0  0  0  0  0  0  0  0  0  0
   39.1390   21.2330   35.7350 H   0  0  0  0  0  0  0  0  0  0  0  0
   39.6270   23.1730   36.2330 C   0  0  0  0  0  0  0  0  0  0  0  0
   39.3980   24.2400   36.0530 H   0  0  0  0  0  0  0  0  0  0  0  0
   40.6260   22.9760   35.7890 H   0  0  0  0  0  0  0  0  0  0  0  0
   39.6640   22.8310   37.6710 C   0  0  0  0  0  3  0  0  0  0  0  0
   38.9300   23.3580   38.6370 C   0  0  0  0  0  3  0  0  0  0  0  0
   37.9060   24.4110   38.4880 C   0  0  0  0  0  2  0  0  0  0  0  0
   38.3540   25.3930   38.8050 H   0  0  0  0  0  0  0  0  0  0  0  0
   37.1030   21.7170   34.3360 O   0  0  0  0  0  0  0  0  0  0  0  0
   36.6950   21.0390   33.1950 C   0  0  0  0  0  0  0  0  0  0  0  0
   35.6110   20.1940   33.4310 C   0  0  0  0  0  0  0  0  0  0  0  0
   35.0990   19.4530   32.3740 C   0  0  0  0  0  0  0  0  0  0  0  0
   35.6980   19.5960   31.1380 N   0  0  0  0  0  0  0  0  0  0  0  0
   36.7450   20.4230   30.9470 C   0  0  0  0  0  0  0  0  0  0  0  0
   37.2250   21.1270   31.9700 N   0  0  0  0  0  0  0  0  0  0  0  0
   35.1320   20.0750   34.4070 H   0  0  0  0  0  0  0  0  0  0  0  0
   34.2590   18.7830   32.5010 H   0  0  0  0  0  0  0  0  0  0  0  0
   37.2000   20.5200   29.9640 H   0  0  0  0  0  0  0  0  0  0  0  0
  1 14  1  0  0  0  0
  1  4  1  0  0  0  0
  2  1  1  0  0  0  0
  3  1  1  0  0  0  0
  4  6  1  0  0  0  0
  4  7  1  0  0  0  0
  4  5  1  0  0  0  0
  7 10  1  0  0  0  0
  8  7  1  0  0  0  0
  9  7  1  0  0  0  0
 10 11  2  0  0  0  0
 12 11  1  0  0  0  0
 12 13  1  0  0  0  0
 15 16  1  0  0  0  0
 15 14  1  0  0  0  0
 16 21  1  0  0  0  0
 17 22  1  0  0  0  0
 17 16  2  0  0  0  0
 18 17  1  0  0  0  0
 19 18  2  0  0  0  0
 19 20  1  0  0  0  0
 20 15  2  0  0  0  0
 23 19  1  0  0  0  0
M  END
>  <minimizedAffinity>
-3.59565806

$$$$

 OpenBabel03262521163D

 23 23  0  0  0  0  0  0  0  0999 V2000
   38.1630   24.2200   33.7460 C   0  0  0  0  0  0  0  0  0  0  0  0
   37.4460   24.8640   34.3290 H   0  0  0  0  0  0  0  0  0  0  0  0
   37.5050   23.7400   32.9650 H   0  0  0  0  0  0  0  0  0  0  0  0
   39.2920   24.7770   33.3330 C   0  0  0  0  0  0  0  0  0  0  0  0
   40.1990   24.3460   33.8650 H   0  0  0  0  0  0  0  0  0  0  0  0
   39.5420   24.5540   32.2670 H   0  0  0  0  0  0  0  0  0  0  0  0
   39.5570   26.2590   33.4240 C   0  0  0  0  0  0  0  0  0  0  0  0
   38.7520   26.8760   32.9800 H   0  0  0  0  0  0  0  0  0  0  0  0
   40.4720   26.4340   32.8190 H   0  0  0  0  0  0  0  0  0  0  0  0
   39.8360   26.6140   34.8330 C   0  0  0  0  0  3  0  0  0  0  0  0
   39.0140   27.1990   35.6880 C   0  0  0  0  0  3  0  0  0  0  0  0
   37.6280   27.6290   35.4200 C   0  0  0  0  0  2  0  0  0  0  0  0
   37.6260   28.7390   35.2380 H   0  0  0  0  0  0  0  0  0  0  0  0
   38.7160   23.1800   34.4720 O   0  0  0  0  0  0  0  0  0  0  0  0
   38.6970   23.2920   35.8560 C   0  0  0  0  0  0  0  0  0  0  0  0
   39.8280   22.7400   36.4560 C   0  0  0  0  0  0  0  0  0  0  0  0
   39.9390   22.7840   37.8390 C   0  0  0  0  0  0  0  0  0  0  0  0
   38.9130   23.3760   38.5490 N   0  0  0  0  0  0  0  0  0  0  0  0
   37.8340   23.8990   37.9350 C   0  0  0  0  0  0  0  0  0  0  0  0
   37.7420   23.8500   36.6080 N   0  0  0  0  0  0  0  0  0  0  0  0
   40.6440   22.2690   35.9010 H   0  0  0  0  0  0  0  0  0  0  0  0
   40.7950   22.3710   38.3560 H   0  0  0  0  0  0  0  0  0  0  0  0
   37.0380   24.3610   38.5150 H   0  0  0  0  0  0  0  0  0  0  0  0
  1  2  1  0  0  0  0
  1 14  1  0  0  0  0
  3  1  1  0  0  0  0
  4  7  1  0  0  0  0
  4  1  1  0  0  0  0
  4  5  1  0  0  0  0
  6  4  1  0  0  0  0
  7 10  1  0  0  0  0
  8  7  1  0  0  0  0
  9  7  1  0  0  0  0
 10 11  2  0  0  0  0
 12 11  1  0  0  0  0
 13 12  1  0  0  0  0
 14 15  1  0  0  0  0
 15 16  2  0  0  0  0
 15 20  1  0  0  0  0
 16 17  1  0  0  0  0
 17 22  1  0  0  0  0
 17 18  2  0  0  0  0
 19 23  1  0  0  0  0
 19 18  1  0  0  0  0
 20 19  2  0  0  0  0
 21 16  1  0  0  0  0
M  END
>  <minimizedAffinity>
-3.58149385

$$$$

 OpenBabel03262521163D

 23 23  0  0  0  0  0  0  0  0999 V2000
   38.2480   27.0150   35.9090 C   0  0  0  0  0  0  0  0  0  0  0  0
   39.3520   27.0580   35.6910 H   0  0  0  0  0  0  0  0  0  0  0  0
   38.1830   27.3510   36.9840 H   0  0  0  0  0  0  0  0  0  0  0  0
   37.4280   27.5890   35.0410 C   0  0  0  0  0  0  0  0  0  0  0  0
   36.4060   27.7970   35.4930 H   0  0  0  0  0  0  0  0  0  0  0  0
   37.7410   28.6180   34.7360 H   0  0  0  0  0  0  0  0  0  0  0  0
   37.0590   26.9590   33.7210 C   0  0  0  0  0  0  0  0  0  0  0  0
   35.9810   27.0390   33.4850 H   0  0  0  0  0  0  0  0  0  0  0  0
   37.2870   25.8780   33.8350 H   0  0  0  0  0  0  0  0  0  0  0  0
   37.9200   27.5230   32.6590 C   0  0  0  0  0  3  0  0  0  0  0  0
   39.0650   27.0330   32.2150 C   0  0  0  0  0  3  0  0  0  0  0  0
   39.7400   25.8080   32.6870 C   0  0  0  0  0  2  0  0  0  0  0  0
   40.5690   26.1030   33.3880 H   0  0  0  0  0  0  0  0  0  0  0  0
   37.7060   25.7430   35.8720 O   0  0  0  0  0  0  0  0  0  0  0  0
   38.4450   24.7220   36.4550 C   0  0  0  0  0  0  0  0  0  0  0  0
   38.0100   24.4110   37.7430 C   0  0  0  0  0  0  0  0  0  0  0  0
   38.6620   23.4050   38.4440 C   0  0  0  0  0  0  0  0  0  0  0  0
   39.7150   22.7650   37.8200 N   0  0  0  0  0  0  0  0  0  0  0  0
   40.1080   23.0930   36.5740 C   0  0  0  0  0  0  0  0  0  0  0  0
   39.4730   24.0590   35.9140 N   0  0  0  0  0  0  0  0  0  0  0  0
   37.1780   24.9140   38.2430 H   0  0  0  0  0  0  0  0  0  0  0  0
   38.3660   23.1230   39.4450 H   0  0  0  0  0  0  0  0  0  0  0  0
   40.9400   22.5740   36.1020 H   0  0  0  0  0  0  0  0  0  0  0  0
  1  3  1  0  0  0  0
  2  1  1  0  0  0  0
  4  5  1  0  0  0  0
  4  1  1  0  0  0  0
  6  4  1  0  0  0  0
  7  9  1  0  0  0  0
  7  4  1  0  0  0  0
  8  7  1  0  0  0  0
 10  7  1  0  0  0  0
 11 10  2  0  0  0  0
 11 12  1  0  0  0  0
 12 13  1  0  0  0  0
 14  1  1  0  0  0  0
 14 15  1  0  0  0  0
 15 16  1  0  0  0  0
 16 21  1  0  0  0  0
 16 17  2  0  0  0  0
 17 22  1  0  0  0  0
 18 17  1  0  0  0  0
 19 18  2  0  0  0  0
 20 15  2  0  0  0  0
 20 19  1  0  0  0  0
 23 19  1  0  0  0  0
M  END
>  <minimizedAffinity>
-3.56147432

$$$$

 OpenBabel03262521163D

 23 23  0  0  0  0  0  0  0  0999 V2000
   35.9710   28.7380   32.8990 C   0  0  0  0  0  0  0  0  0  0  0  0
   35.0060   28.4100   32.4210 H   0  0  0  0  0  0  0  0  0  0  0  0
   36.4020   29.4590   32.1460 H   0  0  0  0  0  0  0  0  0  0  0  0
   35.9280   29.1320   34.1630 C   0  0  0  0  0  0  0  0  0  0  0  0
   35.6550   28.2810   34.8660 H   0  0  0  0  0  0  0  0  0  0  0  0
   36.9200   29.4420   34.5750 H   0  0  0  0  0  0  0  0  0  0  0  0
   35.0190   30.2350   34.6480 C   0  0  0  0  0  0  0  0  0  0  0  0
   34.1090   29.8620   35.1530 H   0  0  0  0  0  0  0  0  0  0  0  0
   34.6860   30.7680   33.7320 H   0  0  0  0  0  0  0  0  0  0  0  0
   35.7990   31.1670   35.4910 C   0  0  0  0  0  3  0  0  0  0  0  0
   35.3530   31.8920   36.5040 C   0  0  0  0  0  3  0  0  0  0  0  0
   33.9690   31.9290   37.0150 C   0  0  0  0  0  2  0  0  0  0  0  0
   33.4660   32.8540   36.6200 H   0  0  0  0  0  0  0  0  0  0  0  0
   36.9090   27.7310   33.0450 O   0  0  0  0  0  0  0  0  0  0  0  0
   36.6180   26.5050   32.4620 C   0  0  0  0  0  0  0  0  0  0  0  0
   35.6240   26.5940   31.4870 C   0  0  0  0  0  0  0  0  0  0  0  0
   35.2350   25.4400   30.8220 C   0  0  0  0  0  0  0  0  0  0  0  0
   35.8590   24.2570   31.1670 N   0  0  0  0  0  0  0  0  0  0  0  0
   36.8160   24.2080   32.1140 C   0  0  0  0  0  0  0  0  0  0  0  0
   37.1790   25.3240   32.7430 N   0  0  0  0  0  0  0  0  0  0  0  0
   35.1250   27.5270   31.2100 H   0  0  0  0  0  0  0  0  0  0  0  0
   34.4690   25.4520   30.0580 H   0  0  0  0  0  0  0  0  0  0  0  0
   37.2950   23.2650   32.3680 H   0  0  0  0  0  0  0  0  0  0  0  0
  1 14  1  0  0  0  0
  1  4  1  0  0  0  0
  2  1  1  0  0  0  0
  3  1  1  0  0  0  0
  4  6  1  0  0  0  0
  4  7  1  0  0  0  0
  4  5  1  0  0  0  0
  7  8  1  0  0  0  0
  7 10  1  0  0  0  0
  9  7  1  0  0  0  0
 10 11  2  0  0  0  0
 11 12  1  0  0  0  0
 13 12  1  0  0  0  0
 15 20  1  0  0  0  0
 15 14  1  0  0  0  0
 16 15  2  0  0  0  0
 17 18  2  0  0  0  0
 17 16  1  0  0  0  0
 18 19  1  0  0  0  0
 19 23  1  0  0  0  0
 19 20  2  0  0  0  0
 21 16  1  0  0  0  0
 22 17  1  0  0  0  0
M  END
>  <minimizedAffinity>
-3.55794287

$$$$
