
 OpenBabel03272509473D

 20 20  0  0  0  0  0  0  0  0999 V2000
   35.1010   28.2290   49.5310 O   0  0  0  0  0  0  0  0  0  0  0  0
   37.4370   30.3050   51.3680 C   0  0  0  0  0  0  0  0  0  0  0  0
   38.1430   30.8760   50.3110 C   0  0  0  0  0  0  0  0  0  0  0  0
   37.7910   30.5270   49.0140 C   0  0  0  0  0  0  0  0  0  0  0  0
   36.7640   29.6370   48.8600 N   0  0  0  0  0  0  0  0  0  0  0  0
   36.1070   29.1080   49.9090 C   0  0  0  0  0  0  0  0  0  0  0  0
   36.4570   29.4540   51.1650 N   0  0  0  0  0  0  0  0  0  0  0  0
   37.7290   30.5920   52.3800 H   0  0  0  0  0  0  0  0  0  0  0  0
   38.9640   31.5880   50.4450 H   0  0  0  0  0  0  0  0  0  0  0  0
   38.3010   30.9360   48.1660 H   0  0  0  0  0  0  0  0  0  0  0  0
   33.7920   28.7350   49.4540 C   0  0  0  0  0  0  0  0  0  0  0  0
   33.7830   29.7600   49.0030 H   0  0  0  0  0  0  0  0  0  0  0  0
   33.3580   28.7420   50.4810 H   0  0  0  0  0  0  0  0  0  0  0  0
   32.9190   27.8770   48.5740 C   0  0  0  0  0  0  0  0  0  0  0  0
   32.1860   27.3160   49.1880 H   0  0  0  0  0  0  0  0  0  0  0  0
   32.4080   28.5770   47.8540 H   0  0  0  0  0  0  0  0  0  0  0  0
   33.7820   26.9680   47.7710 C   0  0  0  0  0  3  0  0  0  0  0  0
   33.4440   25.7520   47.3320 C   0  0  0  0  0  3  0  0  0  0  0  0
   34.2850   24.8160   46.5250 C   0  0  0  0  0  2  0  0  0  0  0  0
   34.9290   25.4100   45.8140 H   0  0  0  0  0  0  0  0  0  0  0  0
  1  6  1  0  0  0  0
  2  8  1  0  0  0  0
  3  9  1  0  0  0  0
  3  2  2  0  0  0  0
  4  3  1  0  0  0  0
  5  4  2  0  0  0  0
  5  6  1  0  0  0  0
  6  7  2  0  0  0  0
  7  2  1  0  0  0  0
 10  4  1  0  0  0  0
 11  1  1  0  0  0  0
 11 13  1  0  0  0  0
 12 11  1  0  0  0  0
 14 15  1  0  0  0  0
 14 11  1  0  0  0  0
 16 14  1  0  0  0  0
 17 14  1  0  0  0  0
 18 17  2  0  0  0  0
 19 18  1  0  0  0  0
 20 19  1  0  0  0  0
M  END
>  <minimizedAffinity>
-3.89716029

>  <minimizedRMSD>
1.31116891

$$$$
