
 OpenBabel03272502323D

 22 22  0  0  1  0  0  0  0  0999 V2000
   39.0430   31.0290   46.9370 C   0  0  0  0  0  0  0  0  0  0  0  0
   38.0790   31.7780   47.4560 C   0  0  0  0  0  0  0  0  0  0  0  0
   40.0500   32.0060   43.4910 C   0  0  0  0  0  0  0  0  0  0  0  0
   39.7840   32.0540   44.8670 C   0  0  0  0  0  0  0  0  0  0  0  0
   39.2820   30.9540   45.5240 C   0  0  0  0  0  0  0  0  0  0  0  0
   39.0530   29.8220   44.7960 N   0  0  0  0  0  0  0  0  0  0  0  0
   39.3120   29.7960   43.4930 C   0  0  0  0  0  0  0  0  0  0  0  0
   39.8060   30.8770   42.8350 N   0  0  0  0  0  0  0  0  0  0  0  0
   40.4560   32.8630   42.9320 H   0  0  0  0  0  0  0  0  0  0  0  0
   40.0210   33.0140   45.2830 H   0  0  0  0  0  0  0  0  0  0  0  0
   39.1360   28.8980   42.8990 H   0  0  0  0  0  0  0  0  0  0  0  0
   37.9970   31.8310   48.9340 C   0  0  1  0  0  0  0  0  0  0  0  0
   38.8280   31.0070   49.2710 H   0  0  0  0  0  0  0  0  0  0  0  0
   38.3920   32.9960   49.6340 C   0  0  0  0  0  0  0  0  0  0  0  0
   39.1870   34.0260   49.4330 C   0  0  0  0  0  0  0  0  0  0  0  0
   39.9980   34.2660   48.2220 C   0  0  0  0  0  0  0  0  0  0  0  0
   40.4420   35.2780   48.3030 H   0  0  0  0  0  0  0  0  0  0  0  0
   36.4530   31.0120   49.4330 S   0  0  0  0  0  0  0  0  0  0  0  0
   36.7320   29.9110   50.8220 C   0  0  0  0  0  0  0  0  0  0  0  0
   37.4490   30.5220   51.8460 F   0  0  0  0  0  0  0  0  0  0  0  0
   35.5680   29.3260   51.2660 F   0  0  0  0  0  0  0  0  0  0  0  0
   37.5500   28.8520   50.3400 F   0  0  0  0  0  0  0  0  0  0  0  0
  1  2  2  0  0  0  0
  2 12  1  0  0  0  0
  3  4  1  0  0  0  0
  4 10  1  0  0  0  0
  4  5  2  0  0  0  0
  5  1  1  0  0  0  0
  6  5  1  0  0  0  0
  7  6  2  0  0  0  0
  8  3  2  0  0  0  0
  8  7  1  0  0  0  0
  9  3  1  0  0  0  0
 11  7  1  0  0  0  0
 12 13  1  1  0  0  0
 12 18  1  0  0  0  0
 12 14  1  0  0  0  0
 15 14  2  0  0  0  0
 16 17  1  0  0  0  0
 16 15  1  0  0  0  0
 18 19  1  0  0  0  0
 19 21  1  0  0  0  0
 19 20  1  0  0  0  0
 22 19  1  0  0  0  0
M  END
>  <minimizedAffinity>
-5.38348436

>  <minimizedRMSD>
1.547647

$$$$
