
 OpenBabel03272502293D

 18 18  0  0  0  0  0  0  0  0999 V2000
   37.5460   30.2150   51.3110 C   0  0  0  0  0  0  0  0  0  0  0  0
   37.7880   30.5900   49.9880 C   0  0  0  0  0  0  0  0  0  0  0  0
   36.8480   30.2850   49.0240 C   0  0  0  0  0  0  0  0  0  0  0  0
   35.7140   29.6250   49.4000 N   0  0  0  0  0  0  0  0  0  0  0  0
   35.5020   29.2720   50.6830 C   0  0  0  0  0  0  0  0  0  0  0  0
   36.4140   29.5670   51.6270 N   0  0  0  0  0  0  0  0  0  0  0  0
   38.2560   30.4340   52.1020 H   0  0  0  0  0  0  0  0  0  0  0  0
   38.7150   31.1160   49.7600 H   0  0  0  0  0  0  0  0  0  0  0  0
   34.5780   28.7460   50.9270 H   0  0  0  0  0  0  0  0  0  0  0  0
   37.0470   30.6470   47.6540 C   0  0  0  0  0  3  0  0  0  0  0  0
   38.2240   30.6360   47.0850 C   0  0  0  0  0  3  0  0  0  0  0  0
   38.4590   31.0110   45.6560 C   0  0  0  0  0  0  0  0  0  0  0  0
   39.3040   30.3970   45.3030 H   0  0  0  0  0  0  0  0  0  0  0  0
   37.5510   30.6590   45.1000 H   0  0  0  0  0  0  0  0  0  0  0  0
   38.6380   32.4590   45.4850 C   0  0  0  0  0  3  0  0  0  0  0  0
   39.7770   33.1160   45.2900 C   0  0  0  0  0  3  0  0  0  0  0  0
   41.0260   32.3180   45.2340 C   0  0  0  0  0  2  0  0  0  0  0  0
   41.1670   31.9040   44.1950 H   0  0  0  0  0  0  0  0  0  0  0  0
  1  6  1  0  0  0  0
  1  7  1  0  0  0  0
  2  1  2  0  0  0  0
  3  4  2  0  0  0  0
  3  2  1  0  0  0  0
  4  5  1  0  0  0  0
  5  9  1  0  0  0  0
  5  6  2  0  0  0  0
  8  2  1  0  0  0  0
 10  3  1  0  0  0  0
 11 10  2  0  0  0  0
 12 11  1  0  0  0  0
 13 12  1  0  0  0  0
 14 12  1  0  0  0  0
 15 12  1  0  0  0  0
 16 15  2  0  0  0  0
 17 16  1  0  0  0  0
 18 17  1  0  0  0  0
M  END
>  <minimizedAffinity>
-4.33799076

>  <minimizedRMSD>
1.7332207

$$$$
