
 OpenBabel03262520323D

 18 18  0  0  0  0  0  0  0  0999 V2000
   37.3610   30.2570   51.4570 C   0  0  0  0  0  0  0  0  0  0  0  0
   38.1290   30.7740   50.4010 C   0  0  0  0  0  0  0  0  0  0  0  0
   37.7610   30.4500   49.0690 C   0  0  0  0  0  0  0  0  0  0  0  0
   36.6680   29.6420   48.9090 N   0  0  0  0  0  0  0  0  0  0  0  0
   35.9670   29.1730   49.9660 C   0  0  0  0  0  0  0  0  0  0  0  0
   36.3100   29.4770   51.2120 N   0  0  0  0  0  0  0  0  0  0  0  0
   37.5930   30.4700   52.4930 H   0  0  0  0  0  0  0  0  0  0  0  0
   38.9740   31.4020   50.6010 H   0  0  0  0  0  0  0  0  0  0  0  0
   38.3290   30.8300   48.2320 H   0  0  0  0  0  0  0  0  0  0  0  0
   34.8290   28.3270   49.6590 C   0  0  0  0  0  3  0  0  0  0  0  0
   34.4790   28.1620   48.4220 C   0  0  0  0  0  3  0  0  0  0  0  0
   33.3760   27.3640   47.8600 C   0  0  0  0  0  0  0  0  0  0  0  0
   32.4530   27.9880   47.8830 H   0  0  0  0  0  0  0  0  0  0  0  0
   33.2470   26.4820   48.5480 H   0  0  0  0  0  0  0  0  0  0  0  0
   33.6900   26.8260   46.5160 C   0  0  0  0  0  3  0  0  0  0  0  0
   33.9400   25.5700   46.2420 C   0  0  0  0  0  3  0  0  0  0  0  0
   33.9170   24.5660   47.3320 C   0  0  0  0  0  2  0  0  0  0  0  0
   33.0920   24.6800   48.0480 H   0  0  0  0  0  0  0  0  0  0  0  0
  1  7  1  0  0  0  0
  2  8  1  0  0  0  0
  2  1  2  0  0  0  0
  3  2  1  0  0  0  0
  4  3  2  0  0  0  0
  4  5  1  0  0  0  0
  5  6  2  0  0  0  0
  6  1  1  0  0  0  0
  9  3  1  0  0  0  0
 10  5  1  0  0  0  0
 11 10  2  0  0  0  0
 12 13  1  0  0  0  0
 12 11  1  0  0  0  0
 12 14  1  0  0  0  0
 15 12  1  0  0  0  0
 16 15  2  0  0  0  0
 16 17  1  0  0  0  0
 17 18  1  0  0  0  0
M  END
>  <minimizedAffinity>
-4.18718481

>  <minimizedRMSD>
0.852863669

$$$$
