
 OpenBabel03272502293D

 18 18  0  0  0  0  0  0  0  0999 V2000
   37.4080   30.2340   51.3280 C   0  0  0  0  0  0  0  0  0  0  0  0
   37.9490   30.5340   50.0760 C   0  0  0  0  0  0  0  0  0  0  0  0
   37.2690   30.1350   48.9420 C   0  0  0  0  0  0  0  0  0  0  0  0
   36.0920   29.4610   49.0870 N   0  0  0  0  0  0  0  0  0  0  0  0
   35.5900   29.1820   50.3050 C   0  0  0  0  0  0  0  0  0  0  0  0
   36.2470   29.5680   51.4140 N   0  0  0  0  0  0  0  0  0  0  0  0
   37.9070   30.5280   52.2470 H   0  0  0  0  0  0  0  0  0  0  0  0
   38.8930   31.0770   50.0350 H   0  0  0  0  0  0  0  0  0  0  0  0
   34.6450   28.6400   50.3620 H   0  0  0  0  0  0  0  0  0  0  0  0
   37.7790   30.4170   47.6350 C   0  0  0  0  0  3  0  0  0  0  0  0
   38.8180   31.1860   47.4330 C   0  0  0  0  0  3  0  0  0  0  0  0
   39.3700   31.4970   46.0790 C   0  0  0  0  0  0  0  0  0  0  0  0
   40.0890   30.6970   45.8390 H   0  0  0  0  0  0  0  0  0  0  0  0
   38.5090   31.3790   45.3690 H   0  0  0  0  0  0  0  0  0  0  0  0
   39.9170   32.8590   46.0030 C   0  0  0  0  0  3  0  0  0  0  0  0
   40.0470   33.6190   44.9210 C   0  0  0  0  0  3  0  0  0  0  0  0
   39.5970   33.0510   43.6260 C   0  0  0  0  0  2  0  0  0  0  0  0
   38.4850   33.1980   43.5130 H   0  0  0  0  0  0  0  0  0  0  0  0
  1  6  1  0  0  0  0
  1  7  1  0  0  0  0
  2  1  2  0  0  0  0
  3  4  2  0  0  0  0
  3  2  1  0  0  0  0
  4  5  1  0  0  0  0
  5  9  1  0  0  0  0
  5  6  2  0  0  0  0
  8  2  1  0  0  0  0
 10  3  1  0  0  0  0
 11 10  2  0  0  0  0
 12 11  1  0  0  0  0
 13 12  1  0  0  0  0
 14 12  1  0  0  0  0
 15 12  1  0  0  0  0
 16 15  2  0  0  0  0
 17 16  1  0  0  0  0
 18 17  1  0  0  0  0
M  END
>  <minimizedAffinity>
-4.61216259

>  <minimizedRMSD>
0.986902475

$$$$
