
     RDKit          3D

 24 24  0  0  0  0  0  0  0  0999 V2000
   37.3658   30.2391   51.3697 C   0  0  0  0  0  0  0  0  0  0  0  0
   38.0216   30.7532   50.2496 C   0  0  0  0  0  0  0  0  0  0  0  0
   37.5671   30.4081   48.9935 C   0  0  0  0  0  0  0  0  0  0  0  0
   36.4909   29.5750   48.8907 N   0  0  0  0  0  0  0  0  0  0  0  0
   35.8743   29.0914   49.9861 C   0  0  0  0  0  0  0  0  0  0  0  0
   36.3120   29.4236   51.2142 N   0  0  0  0  0  0  0  0  0  0  0  0
   38.2034   30.9075   47.8117 C   0  0  0  0  0  0  0  0  0  0  0  0
   38.8397   32.0491   47.7825 C   0  0  0  0  0  0  0  0  0  0  0  0
   39.5123   32.5930   46.5620 C   0  0  0  0  0  0  0  0  0  0  0  0
   37.6882   30.4833   52.3780 H   0  0  0  0  0  0  0  0  0  0  0  0
   38.8752   31.4136   50.4061 H   0  0  0  0  0  0  0  0  0  0  0  0
   35.0182   28.4290   49.8465 H   0  0  0  0  0  0  0  0  0  0  0  0
   38.1498   30.2989   46.8949 H   0  0  0  0  0  0  0  0  0  0  0  0
   38.8792   32.6391   48.7119 H   0  0  0  0  0  0  0  0  0  0  0  0
   40.5944   32.5992   46.7733 H   0  0  0  0  0  0  0  0  0  0  0  0
   39.3454   31.8272   45.7601 H   0  0  0  0  0  0  0  0  0  0  0  0
   38.9576   33.8915   46.1567 C   0  0  0  0  0  0  0  0  0  0  0  0
   39.4864   34.7674   45.3079 C   0  0  0  0  0  0  0  0  0  0  0  0
   40.7858   34.4177   44.6842 C   0  0  0  0  0  0  0  0  0  0  0  0
   40.6119   33.7569   43.7875 H   0  0  0  0  0  0  0  0  0  0  0  0
   38.0174   34.0200   46.6808 H   0  0  0  0  0  0  0  0  0  0  0  0
   38.9011   35.6677   45.1548 H   0  0  0  0  0  0  0  0  0  0  0  0
   41.2882   35.3681   44.3708 H   0  0  0  0  0  0  0  0  0  0  0  0
   41.4908   33.9534   45.4037 H   0  0  0  0  0  0  0  0  0  0  0  0
  2  1  2  0
  3  2  1  0
  4  3  2  0
  4  5  1  0
  5  6  2  0
  6  1  1  0
  7  3  1  0
  8  7  2  0
  9  8  1  0
  1 10  1  0
  2 11  1  0
  5 12  1  0
  7 13  1  0
  8 14  1  0
  9 15  1  0
  9 16  1  0
 17 18  2  3
 18 19  1  0
 19 20  1  0
 17 21  1  0
 18 22  1  0
 19 23  1  0
 19 24  1  0
  9 17  1  0
M  ISO  6  10  14  11  14  12  14  15   8  16   8  20   8
M  END
>  <DihAtoms>  (1) 
7,8,16,17

>  <DihDeg>  (1) 
120.00080725708166

$$$$
