
 OpenBabel03262520423D

 16 16  0  0  0  0  0  0  0  0999 V2000
   37.5780   30.1070   50.7090 C   0  0  0  0  0  0  0  0  0  0  0  0
   38.2780   31.2070   50.1600 C   0  0  0  0  0  0  0  0  0  0  0  0
   38.0060   31.5670   48.8460 C   0  0  0  0  0  0  0  0  0  0  0  0
   37.0800   30.8500   48.1380 N   0  0  0  0  0  0  0  0  0  0  0  0
   36.4300   29.7960   48.7080 C   0  0  0  0  0  0  0  0  0  0  0  0
   36.6750   29.4330   49.9710 N   0  0  0  0  0  0  0  0  0  0  0  0
   37.8460   29.8950   51.7300 H   0  0  0  0  0  0  0  0  0  0  0  0
   39.0120   31.7860   50.7030 H   0  0  0  0  0  0  0  0  0  0  0  0
   35.6960   29.2320   48.1390 H   0  0  0  0  0  0  0  0  0  0  0  0
   38.7280   32.7170   48.2510 C   0  0  0  0  0  0  0  0  0  0  0  0
   39.6270   32.9620   48.8580 H   0  0  0  0  0  0  0  0  0  0  0  0
   38.0940   33.6270   48.2180 H   0  0  0  0  0  0  0  0  0  0  0  0
   39.2330   32.4510   46.8740 C   0  0  0  0  0  0  0  0  0  0  0  0
   40.0840   33.2200   46.2010 C   0  0  0  0  0  0  0  0  0  0  0  0
   40.4790   32.7830   44.8160 C   0  0  0  0  0  0  0  0  0  0  0  0
   39.5570   32.3420   44.3720 H   0  0  0  0  0  0  0  0  0  0  0  0
  1  7  1  0  0  0  0
  2  8  1  0  0  0  0
  2  1  1  0  0  0  0
  3  2  2  0  0  0  0
  4  5  2  0  0  0  0
  4  3  1  0  0  0  0
  5  6  1  0  0  0  0
  6  1  2  0  0  0  0
  9  5  1  0  0  0  0
 10  3  1  0  0  0  0
 10 11  1  0  0  0  0
 12 10  1  0  0  0  0
 13 10  1  0  0  0  0
 14 13  2  0  0  0  0
 15 14  1  0  0  0  0
 16 15  1  0  0  0  0
M  END
>  <minimizedAffinity>
-4.09143734

>  <minimizedRMSD>
1.80308974

$$$$
