REMARK  Name = 
REMARK  6 active torsions:
REMARK  status: ('A' for Active; 'I' for Inactive)
REMARK    1  A    between atoms: C_1  and  C_7
REMARK    2  A    between atoms: C_6  and  C_15
REMARK    3  A    between atoms: C_7  and  C_13
REMARK    4  A    between atoms: C_16  and  C_17
REMARK    5  A    between atoms: C_17  and  C_29
REMARK    6  A    between atoms: C_30  and  C_31
REMARK                            x       y       z     vdW  Elec       q    Type
REMARK                         _______ _______ _______ _____ _____    ______ ____
ROOT
ATOM      1  C   UNL     1      37.129  30.956  49.013  0.00  0.00    +0.000 A 
ATOM      2  C   UNL     1      36.921  31.939  49.990  0.00  0.00    +0.000 A 
ATOM      3  C   UNL     1      37.554  33.163  49.981  0.00  0.00    +0.000 A 
ATOM      4  C   UNL     1      38.449  33.452  48.955  0.00  0.00    +0.000 A 
ATOM      5  C   UNL     1      38.652  32.495  48.002  0.00  0.00    +0.000 A 
ATOM      6  C   UNL     1      38.009  31.291  48.038  0.00  0.00    +0.000 A 
ATOM      7  H   UNL     1      36.248  31.783  50.807  0.00  0.00    +0.000 HD
ATOM      8  H   UNL     1      37.375  33.902  50.748  0.00  0.00    +0.000 HD
ATOM      9  H   UNL     1      38.932  34.414  48.967  0.00  0.00    +0.000 HD
ATOM     10  H   UNL     1      39.364  32.800  47.238  0.00  0.00    +0.000 HD
ENDROOT
BRANCH   1  11
ATOM     11  C   UNL     1      36.411  29.705  49.119  0.00  0.00    +0.000 C 
ATOM     12  O   UNL     1      36.928  28.870  49.958  0.00  0.00    +0.000 OA
BRANCH  11  17
ATOM     13  C   UNL     1      33.627  30.178  46.850  0.00  0.00    +0.000 A 
ATOM     14  C   UNL     1      32.963  28.954  46.875  0.00  0.00    +0.000 A 
ATOM     15  C   UNL     1      33.473  27.954  47.678  0.00  0.00    +0.000 A 
ATOM     16  N   UNL     1      34.591  28.196  48.406  0.00  0.00    +0.000 NA
ATOM     17  C   UNL     1      35.215  29.358  48.378  0.00  0.00    +0.000 A 
ATOM     18  N   UNL     1      34.716  30.346  47.589  0.00  0.00    +0.000 NA
ATOM     19  H   UNL     1      33.192  30.933  46.207  0.00  0.00    +0.000 HD
ATOM     20  H   UNL     1      32.076  28.759  46.298  0.00  0.00    +0.000 HD
ATOM     21  H   UNL     1      32.994  26.990  47.730  0.00  0.00    +0.000 HD
ENDBRANCH  11  17
ENDBRANCH   1  11
BRANCH   6  22
ATOM     22  C   UNL     1      38.329  30.375  46.953  0.00  0.00    +0.000 C 
ATOM     23  C   UNL     1      38.810  30.707  45.770  0.00  0.00    +0.000 C 
BRANCH  23  24
ATOM     24  C   UNL     1      39.180  29.919  44.592  0.00  0.00    +0.000 C 
ATOM     25  H   UNL     1      38.855  28.852  44.767  0.00  0.00    +0.000 HD
ATOM     26  H   UNL     1      40.249  29.946  44.322  0.00  0.00    +0.000 HD
BRANCH  24  27
ATOM     27  C   UNL     1      38.349  30.358  43.421  0.00  0.00    +0.000 C 
ATOM     28  C   UNL     1      38.258  29.634  42.310  0.00  0.00    +0.000 C 
BRANCH  28  29
ATOM     29  C   UNL     1      37.450  30.029  41.131  0.00  0.00    +0.000 C 
ATOM     30  H   UNL     1      37.342  31.140  41.051  0.00  0.00    +0.000 HD
ENDBRANCH  28  29
ENDBRANCH  24  27
ENDBRANCH  23  24
ENDBRANCH   6  22
TORSDOF 6
