
 OpenBabel03262520323D

 18 18  0  0  0  0  0  0  0  0999 V2000
   37.3820   30.2810   51.4650 C   0  0  0  0  0  0  0  0  0  0  0  0
   38.1480   30.8090   50.4130 C   0  0  0  0  0  0  0  0  0  0  0  0
   37.7860   30.4890   49.0800 C   0  0  0  0  0  0  0  0  0  0  0  0
   36.6990   29.6740   48.9120 N   0  0  0  0  0  0  0  0  0  0  0  0
   35.9990   29.1940   49.9650 C   0  0  0  0  0  0  0  0  0  0  0  0
   36.3370   29.4930   51.2130 N   0  0  0  0  0  0  0  0  0  0  0  0
   37.6090   30.4890   52.5020 H   0  0  0  0  0  0  0  0  0  0  0  0
   38.9870   31.4420   50.6190 H   0  0  0  0  0  0  0  0  0  0  0  0
   38.3530   30.8780   48.2460 H   0  0  0  0  0  0  0  0  0  0  0  0
   34.8690   28.3410   49.6510 C   0  0  0  0  0  3  0  0  0  0  0  0
   34.4970   28.2130   48.4160 C   0  0  0  0  0  3  0  0  0  0  0  0
   33.3950   27.4170   47.8470 C   0  0  0  0  0  0  0  0  0  0  0  0
   32.7570   28.0980   47.2400 H   0  0  0  0  0  0  0  0  0  0  0  0
   32.8020   27.0340   48.7250 H   0  0  0  0  0  0  0  0  0  0  0  0
   33.8760   26.2330   47.0980 C   0  0  0  0  0  3  0  0  0  0  0  0
   33.2390   25.0940   46.9910 C   0  0  0  0  0  3  0  0  0  0  0  0
   31.9240   24.9260   47.6570 C   0  0  0  0  0  2  0  0  0  0  0  0
   31.2500   25.7880   47.5720 H   0  0  0  0  0  0  0  0  0  0  0  0
  1  7  1  0  0  0  0
  2  8  1  0  0  0  0
  2  1  2  0  0  0  0
  3  2  1  0  0  0  0
  4  3  2  0  0  0  0
  4  5  1  0  0  0  0
  5  6  2  0  0  0  0
  6  1  1  0  0  0  0
  9  3  1  0  0  0  0
 10  5  1  0  0  0  0
 11 10  2  0  0  0  0
 12 11  1  0  0  0  0
 12 14  1  0  0  0  0
 13 12  1  0  0  0  0
 15 12  1  0  0  0  0
 16 15  2  0  0  0  0
 16 17  1  0  0  0  0
 18 17  1  0  0  0  0
M  END
>  <minimizedAffinity>
-4.13487005

>  <minimizedRMSD>
0.515577734

$$$$
