
 OpenBabel03262523503D

 16 16  0  0  0  0  0  0  0  0999 V2000
   39.7450   22.7810   37.2620 C   0  0  0  0  0  0  0  0  0  0  0  0
   39.0700   23.2770   38.3820 C   0  0  0  0  0  0  0  0  0  0  0  0
   37.9440   24.0840   38.1740 C   0  0  0  0  0  0  0  0  0  0  0  0
   37.5640   24.3440   36.8830 N   0  0  0  0  0  0  0  0  0  0  0  0
   38.2410   23.8470   35.8300 C   0  0  0  0  0  0  0  0  0  0  0  0
   39.3310   23.0650   36.0190 N   0  0  0  0  0  0  0  0  0  0  0  0
   39.3930   23.0550   39.3850 H   0  0  0  0  0  0  0  0  0  0  0  0
   37.4530   24.4460   39.0510 H   0  0  0  0  0  0  0  0  0  0  0  0
   37.8310   24.1320   34.8700 H   0  0  0  0  0  0  0  0  0  0  0  0
   40.9340   21.9290   37.4840 C   0  0  0  0  0  0  0  0  0  0  0  0
   40.5980   20.8670   37.3740 H   0  0  0  0  0  0  0  0  0  0  0  0
   41.2380   22.0520   38.5440 H   0  0  0  0  0  0  0  0  0  0  0  0
   42.0610   22.2520   36.5810 C   0  0  0  0  0  3  0  0  0  0  0  0
   42.9050   23.3010   36.6920 C   0  0  0  0  0  3  0  0  0  0  0  0
   44.0810   23.7700   35.8770 C   0  0  0  0  0  2  0  0  0  0  0  0
   44.4480   22.9140   35.2460 H   0  0  0  0  0  0  0  0  0  0  0  0
  1 10  1  0  0  0  0
  1  2  1  0  0  0  0
  2  7  1  0  0  0  0
  3  2  2  0  0  0  0
  3  8  1  0  0  0  0
  4  3  1  0  0  0  0
  5  6  1  0  0  0  0
  5  4  2  0  0  0  0
  6  1  2  0  0  0  0
  9  5  1  0  0  0  0
 10 12  1  0  0  0  0
 11 10  1  0  0  0  0
 13 14  2  0  0  0  0
 13 10  1  0  0  0  0
 15 14  1  0  0  0  0
 16 15  1  0  0  0  0
M  END
>  <minimizedAffinity>
-3.45978284

$$$$

 OpenBabel03262523503D

 16 16  0  0  0  0  0  0  0  0999 V2000
   38.2520   25.1510   36.0510 C   0  0  0  0  0  0  0  0  0  0  0  0
   37.9760   24.5710   37.2930 C   0  0  0  0  0  0  0  0  0  0  0  0
   37.7310   23.1920   37.3410 C   0  0  0  0  0  0  0  0  0  0  0  0
   37.7770   22.4850   36.1680 N   0  0  0  0  0  0  0  0  0  0  0  0
   38.0460   23.0820   34.9900 C   0  0  0  0  0  0  0  0  0  0  0  0
   38.2850   24.4140   34.9310 N   0  0  0  0  0  0  0  0  0  0  0  0
   37.9470   25.1520   38.1990 H   0  0  0  0  0  0  0  0  0  0  0  0
   37.5230   22.7820   38.3060 H   0  0  0  0  0  0  0  0  0  0  0  0
   38.0510   22.4050   34.1450 H   0  0  0  0  0  0  0  0  0  0  0  0
   38.5100   26.6070   36.0020 C   0  0  0  0  0  0  0  0  0  0  0  0
   39.0060   26.8810   36.9670 H   0  0  0  0  0  0  0  0  0  0  0  0
   37.5250   27.1190   36.0010 H   0  0  0  0  0  0  0  0  0  0  0  0
   39.3100   27.0200   34.8280 C   0  0  0  0  0  3  0  0  0  0  0  0
   40.6420   26.8590   34.6660 C   0  0  0  0  0  3  0  0  0  0  0  0
   41.5970   27.2140   33.5580 C   0  0  0  0  0  2  0  0  0  0  0  0
   41.0090   27.3840   32.6150 H   0  0  0  0  0  0  0  0  0  0  0  0
  1  2  1  0  0  0  0
  2  3  2  0  0  0  0
  2  7  1  0  0  0  0
  3  8  1  0  0  0  0
  4  3  1  0  0  0  0
  5  4  2  0  0  0  0
  6  5  1  0  0  0  0
  6  1  2  0  0  0  0
  9  5  1  0  0  0  0
 10  1  1  0  0  0  0
 10 11  1  0  0  0  0
 12 10  1  0  0  0  0
 13 10  1  0  0  0  0
 14 13  2  0  0  0  0
 15 14  1  0  0  0  0
 16 15  1  0  0  0  0
M  END
>  <minimizedAffinity>
-3.4452219

$$$$

 OpenBabel03262523503D

 16 16  0  0  0  0  0  0  0  0999 V2000
   38.5570   25.1360   35.7380 C   0  0  0  0  0  0  0  0  0  0  0  0
   38.0440   24.7880   36.9910 C   0  0  0  0  0  0  0  0  0  0  0  0
   37.5760   23.4800   37.1760 C   0  0  0  0  0  0  0  0  0  0  0  0
   37.6480   22.6110   36.1190 N   0  0  0  0  0  0  0  0  0  0  0  0
   38.1500   22.9860   34.9250 C   0  0  0  0  0  0  0  0  0  0  0  0
   38.6050   24.2470   34.7350 N   0  0  0  0  0  0  0  0  0  0  0  0
   38.0000   25.4930   37.8040 H   0  0  0  0  0  0  0  0  0  0  0  0
   37.1910   23.2480   38.1450 H   0  0  0  0  0  0  0  0  0  0  0  0
   38.1460   22.2000   34.1810 H   0  0  0  0  0  0  0  0  0  0  0  0
   39.0500   26.5180   35.5440 C   0  0  0  0  0  0  0  0  0  0  0  0
   39.6430   26.5210   34.5960 H   0  0  0  0  0  0  0  0  0  0  0  0
   39.7670   26.7320   36.3630 H   0  0  0  0  0  0  0  0  0  0  0  0
   37.9670   27.5260   35.5260 C   0  0  0  0  0  3  0  0  0  0  0  0
   37.0950   27.7510   34.5190 C   0  0  0  0  0  3  0  0  0  0  0  0
   35.9550   28.7180   34.3390 C   0  0  0  0  0  2  0  0  0  0  0  0
   35.6430   29.1020   35.3490 H   0  0  0  0  0  0  0  0  0  0  0  0
  1  2  1  0  0  0  0
  2  3  2  0  0  0  0
  2  7  1  0  0  0  0
  3  8  1  0  0  0  0
  4  3  1  0  0  0  0
  5  4  2  0  0  0  0
  6  5  1  0  0  0  0
  6  1  2  0  0  0  0
  9  5  1  0  0  0  0
 10  1  1  0  0  0  0
 10 12  1  0  0  0  0
 11 10  1  0  0  0  0
 13 10  1  0  0  0  0
 14 13  2  0  0  0  0
 15 14  1  0  0  0  0
 15 16  1  0  0  0  0
M  END
>  <minimizedAffinity>
-3.39343262

$$$$

 OpenBabel03262523503D

 16 16  0  0  0  0  0  0  0  0999 V2000
   38.2170   25.2430   36.1530 C   0  0  0  0  0  0  0  0  0  0  0  0
   38.4490   24.5750   34.9460 C   0  0  0  0  0  0  0  0  0  0  0  0
   38.2870   23.1840   34.9160 C   0  0  0  0  0  0  0  0  0  0  0  0
   37.9080   22.5510   36.0710 N   0  0  0  0  0  0  0  0  0  0  0  0
   37.6940   23.2310   37.2150 C   0  0  0  0  0  0  0  0  0  0  0  0
   37.8480   24.5760   37.2560 N   0  0  0  0  0  0  0  0  0  0  0  0
   38.7460   25.1000   34.0530 H   0  0  0  0  0  0  0  0  0  0  0  0
   38.4720   22.7060   33.9780 H   0  0  0  0  0  0  0  0  0  0  0  0
   37.4000   22.6060   38.0490 H   0  0  0  0  0  0  0  0  0  0  0  0
   38.3900   26.7120   36.1820 C   0  0  0  0  0  0  0  0  0  0  0  0
   39.4630   26.9070   36.4320 H   0  0  0  0  0  0  0  0  0  0  0  0
   37.7950   27.1000   37.0340 H   0  0  0  0  0  0  0  0  0  0  0  0
   37.9840   27.3730   34.9220 C   0  0  0  0  0  3  0  0  0  0  0  0
   36.7560   27.8550   34.6260 C   0  0  0  0  0  3  0  0  0  0  0  0
   36.1820   28.5430   33.4170 C   0  0  0  0  0  2  0  0  0  0  0  0
   37.0270   28.9490   32.7960 H   0  0  0  0  0  0  0  0  0  0  0  0
  1 10  1  0  0  0  0
  1  6  1  0  0  0  0
  2  1  2  0  0  0  0
  3  2  1  0  0  0  0
  3  4  2  0  0  0  0
  4  5  1  0  0  0  0
  5  6  2  0  0  0  0
  5  9  1  0  0  0  0
  7  2  1  0  0  0  0
  8  3  1  0  0  0  0
 10 11  1  0  0  0  0
 10 12  1  0  0  0  0
 13 10  1  0  0  0  0
 14 13  2  0  0  0  0
 15 14  1  0  0  0  0
 16 15  1  0  0  0  0
M  END
>  <minimizedAffinity>
-3.32426929

$$$$

 OpenBabel03262523503D

 16 16  0  0  0  0  0  0  0  0999 V2000
   36.0180   24.5410   31.5940 C   0  0  0  0  0  0  0  0  0  0  0  0
   35.3710   25.6380   31.0160 C   0  0  0  0  0  0  0  0  0  0  0  0
   35.7300   26.9220   31.4470 C   0  0  0  0  0  0  0  0  0  0  0  0
   36.6970   27.0350   32.4110 N   0  0  0  0  0  0  0  0  0  0  0  0
   37.2980   25.9520   32.9440 C   0  0  0  0  0  0  0  0  0  0  0  0
   36.9590   24.7060   32.5350 N   0  0  0  0  0  0  0  0  0  0  0  0
   34.6140   25.5180   30.2600 H   0  0  0  0  0  0  0  0  0  0  0  0
   35.2150   27.7370   30.9850 H   0  0  0  0  0  0  0  0  0  0  0  0
   38.0420   26.1870   33.6940 H   0  0  0  0  0  0  0  0  0  0  0  0
   35.6370   23.1860   31.1380 C   0  0  0  0  0  0  0  0  0  0  0  0
   36.1630   23.0110   30.1660 H   0  0  0  0  0  0  0  0  0  0  0  0
   34.5520   23.2060   30.9080 H   0  0  0  0  0  0  0  0  0  0  0  0
   35.9370   22.1300   32.1310 C   0  0  0  0  0  3  0  0  0  0  0  0
   35.2980   20.9470   32.2640 C   0  0  0  0  0  3  0  0  0  0  0  0
   35.4700   19.7810   33.2010 C   0  0  0  0  0  2  0  0  0  0  0  0
   36.4940   19.8370   33.6630 H   0  0  0  0  0  0  0  0  0  0  0  0
  1  6  1  0  0  0  0
  2  3  1  0  0  0  0
  2  1  2  0  0  0  0
  3  4  2  0  0  0  0
  4  5  1  0  0  0  0
  5  9  1  0  0  0  0
  6  5  2  0  0  0  0
  7  2  1  0  0  0  0
  8  3  1  0  0  0  0
 10  1  1  0  0  0  0
 10 13  1  0  0  0  0
 11 10  1  0  0  0  0
 12 10  1  0  0  0  0
 13 14  2  0  0  0  0
 14 15  1  0  0  0  0
 15 16  1  0  0  0  0
M  END
>  <minimizedAffinity>
-3.25686598

$$$$

 OpenBabel03262523503D

 16 16  0  0  0  0  0  0  0  0999 V2000
   39.3380   22.7600   36.4830 C   0  0  0  0  0  0  0  0  0  0  0  0
   40.1920   22.4510   37.5470 C   0  0  0  0  0  0  0  0  0  0  0  0
   41.4320   21.8670   37.2530 C   0  0  0  0  0  0  0  0  0  0  0  0
   41.7420   21.6320   35.9390 N   0  0  0  0  0  0  0  0  0  0  0  0
   40.8910   21.9440   34.9420 C   0  0  0  0  0  0  0  0  0  0  0  0
   39.6900   22.5090   35.2140 N   0  0  0  0  0  0  0  0  0  0  0  0
   39.9210   22.6480   38.5700 H   0  0  0  0  0  0  0  0  0  0  0  0
   42.0590   21.6430   38.0890 H   0  0  0  0  0  0  0  0  0  0  0  0
   41.2640   21.7040   33.9550 H   0  0  0  0  0  0  0  0  0  0  0  0
   38.0300   23.3760   36.7950 C   0  0  0  0  0  0  0  0  0  0  0  0
   37.6510   22.8790   37.7230 H   0  0  0  0  0  0  0  0  0  0  0  0
   37.3290   23.0960   35.9820 H   0  0  0  0  0  0  0  0  0  0  0  0
   38.0960   24.8470   36.9400 C   0  0  0  0  0  3  0  0  0  0  0  0
   38.3270   25.7420   35.9540 C   0  0  0  0  0  3  0  0  0  0  0  0
   38.4250   27.2440   35.9270 C   0  0  0  0  0  2  0  0  0  0  0  0
   37.9410   27.6550   36.8550 H   0  0  0  0  0  0  0  0  0  0  0  0
  1 10  1  0  0  0  0
  1  2  1  0  0  0  0
  2  7  1  0  0  0  0
  3  2  2  0  0  0  0
  3  8  1  0  0  0  0
  4  3  1  0  0  0  0
  5  6  1  0  0  0  0
  5  4  2  0  0  0  0
  6  1  2  0  0  0  0
  9  5  1  0  0  0  0
 10 13  1  0  0  0  0
 10 11  1  0  0  0  0
 12 10  1  0  0  0  0
 14 13  2  0  0  0  0
 15 14  1  0  0  0  0
 15 16  1  0  0  0  0
M  END
>  <minimizedAffinity>
-3.23732996

$$$$

 OpenBabel03262523503D

 16 16  0  0  0  0  0  0  0  0999 V2000
   32.0890   29.9450   36.7490 C   0  0  0  0  0  0  0  0  0  0  0  0
   31.9250   29.9130   35.3600 C   0  0  0  0  0  0  0  0  0  0  0  0
   31.3380   28.7770   34.7880 C   0  0  0  0  0  0  0  0  0  0  0  0
   30.9540   27.7580   35.6200 N   0  0  0  0  0  0  0  0  0  0  0  0
   31.1290   27.8260   36.9540 C   0  0  0  0  0  0  0  0  0  0  0  0
   31.6960   28.9200   37.5190 N   0  0  0  0  0  0  0  0  0  0  0  0
   32.2370   30.7300   34.7320 H   0  0  0  0  0  0  0  0  0  0  0  0
   31.2280   28.7860   33.7250 H   0  0  0  0  0  0  0  0  0  0  0  0
   30.7810   26.9520   37.4890 H   0  0  0  0  0  0  0  0  0  0  0  0
   32.7110   31.1450   37.3510 C   0  0  0  0  0  0  0  0  0  0  0  0
   33.1800   30.8190   38.3130 H   0  0  0  0  0  0  0  0  0  0  0  0
   31.8920   31.8420   37.6230 H   0  0  0  0  0  0  0  0  0  0  0  0
   33.6830   31.8100   36.4560 C   0  0  0  0  0  3  0  0  0  0  0  0
   35.0290   31.7320   36.5310 C   0  0  0  0  0  3  0  0  0  0  0  0
   36.1450   32.3330   35.7180 C   0  0  0  0  0  2  0  0  0  0  0  0
   35.7310   32.6670   34.7270 H   0  0  0  0  0  0  0  0  0  0  0  0
  1 10  1  0  0  0  0
  1  6  1  0  0  0  0
  2  1  2  0  0  0  0
  3  2  1  0  0  0  0
  3  4  2  0  0  0  0
  4  5  1  0  0  0  0
  5  9  1  0  0  0  0
  5  6  2  0  0  0  0
  7  2  1  0  0  0  0
  8  3  1  0  0  0  0
 10 12  1  0  0  0  0
 10 11  1  0  0  0  0
 13 14  2  0  0  0  0
 13 10  1  0  0  0  0
 15 14  1  0  0  0  0
 16 15  1  0  0  0  0
M  END
>  <minimizedAffinity>
-3.12548494

$$$$

 OpenBabel03262523503D

 16 16  0  0  0  0  0  0  0  0999 V2000
   36.1420   28.7530   32.8720 C   0  0  0  0  0  0  0  0  0  0  0  0
   36.0930   29.8620   32.0210 C   0  0  0  0  0  0  0  0  0  0  0  0
   36.3100   29.6560   30.6520 C   0  0  0  0  0  0  0  0  0  0  0  0
   36.5570   28.3800   30.2200 N   0  0  0  0  0  0  0  0  0  0  0  0
   36.5970   27.3370   31.0730 C   0  0  0  0  0  0  0  0  0  0  0  0
   36.3880   27.5230   32.3990 N   0  0  0  0  0  0  0  0  0  0  0  0
   35.8960   30.8540   32.3900 H   0  0  0  0  0  0  0  0  0  0  0  0
   36.2650   30.5250   30.0310 H   0  0  0  0  0  0  0  0  0  0  0  0
   36.8010   26.3870   30.5960 H   0  0  0  0  0  0  0  0  0  0  0  0
   35.9140   28.9730   34.3180 C   0  0  0  0  0  0  0  0  0  0  0  0
   36.8560   28.6760   34.8430 H   0  0  0  0  0  0  0  0  0  0  0  0
   35.1350   28.2540   34.6440 H   0  0  0  0  0  0  0  0  0  0  0  0
   35.5100   30.3590   34.6410 C   0  0  0  0  0  3  0  0  0  0  0  0
   35.9480   31.1030   35.6800 C   0  0  0  0  0  3  0  0  0  0  0  0
   35.6470   32.5020   36.1470 C   0  0  0  0  0  2  0  0  0  0  0  0
   35.1880   33.0760   35.2960 H   0  0  0  0  0  0  0  0  0  0  0  0
  1 10  1  0  0  0  0
  2  7  1  0  0  0  0
  2  1  2  0  0  0  0
  3  2  1  0  0  0  0
  4  3  2  0  0  0  0
  4  5  1  0  0  0  0
  5  6  2  0  0  0  0
  6  1  1  0  0  0  0
  8  3  1  0  0  0  0
  9  5  1  0  0  0  0
 10 13  1  0  0  0  0
 10 12  1  0  0  0  0
 10 11  1  0  0  0  0
 13 14  2  0  0  0  0
 14 15  1  0  0  0  0
 16 15  1  0  0  0  0
M  END
>  <minimizedAffinity>
-3.12219763

$$$$

 OpenBabel03262523503D

 16 16  0  0  0  0  0  0  0  0999 V2000
   37.2740   27.4870   34.5970 C   0  0  0  0  0  0  0  0  0  0  0  0
   37.3920   26.6480   33.4840 C   0  0  0  0  0  0  0  0  0  0  0  0
   36.6160   26.9340   32.3530 C   0  0  0  0  0  0  0  0  0  0  0  0
   35.7840   28.0220   32.3960 N   0  0  0  0  0  0  0  0  0  0  0  0
   35.6980   28.8070   33.4890 C   0  0  0  0  0  0  0  0  0  0  0  0
   36.4430   28.5400   34.5880 N   0  0  0  0  0  0  0  0  0  0  0  0
   38.0550   25.8000   33.4790 H   0  0  0  0  0  0  0  0  0  0  0  0
   36.7310   26.2730   31.5210 H   0  0  0  0  0  0  0  0  0  0  0  0
   35.0030   29.6290   33.3850 H   0  0  0  0  0  0  0  0  0  0  0  0
   38.0930   27.1830   35.7910 C   0  0  0  0  0  0  0  0  0  0  0  0
   37.5180   27.5450   36.6800 H   0  0  0  0  0  0  0  0  0  0  0  0
   39.0070   27.8080   35.7340 H   0  0  0  0  0  0  0  0  0  0  0  0
   38.4490   25.7510   35.9050 C   0  0  0  0  0  3  0  0  0  0  0  0
   38.0430   24.8960   36.8690 C   0  0  0  0  0  3  0  0  0  0  0  0
   38.3060   23.4370   37.1310 C   0  0  0  0  0  2  0  0  0  0  0  0
   38.6800   22.9610   36.1830 H   0  0  0  0  0  0  0  0  0  0  0  0
  1 10  1  0  0  0  0
  2  1  2  0  0  0  0
  3  4  2  0  0  0  0
  3  2  1  0  0  0  0
  4  5  1  0  0  0  0
  5  6  2  0  0  0  0
  6  1  1  0  0  0  0
  7  2  1  0  0  0  0
  8  3  1  0  0  0  0
  9  5  1  0  0  0  0
 10 13  1  0  0  0  0
 10 11  1  0  0  0  0
 12 10  1  0  0  0  0
 13 14  2  0  0  0  0
 14 15  1  0  0  0  0
 16 15  1  0  0  0  0
M  END
>  <minimizedAffinity>
-3.12135386

$$$$
