
 OpenBabel03272510043D

 32 33  0  0  0  0  0  0  0  0999 V2000
   36.1300   30.3640   45.5030 C   0  0  0  0  0  0  0  0  0  0  0  0
   35.7190   30.1520   46.7810 C   0  0  0  0  0  0  0  0  0  0  0  0
   34.4780   29.5720   47.0180 C   0  0  0  0  0  0  0  0  0  0  0  0
   33.6270   29.1960   45.9960 C   0  0  0  0  0  0  0  0  0  0  0  0
   34.0080   29.3980   44.6960 C   0  0  0  0  0  0  0  0  0  0  0  0
   35.2400   29.9720   44.4970 C   0  0  0  0  0  0  0  0  0  0  0  0
   34.1720   29.4100   48.0630 H   0  0  0  0  0  0  0  0  0  0  0  0
   32.7010   28.7580   46.2870 H   0  0  0  0  0  0  0  0  0  0  0  0
   33.3180   29.0930   43.9260 H   0  0  0  0  0  0  0  0  0  0  0  0
   35.4290   30.0850   43.4210 H   0  0  0  0  0  0  0  0  0  0  0  0
   38.0490   32.0940   48.8570 C   0  0  0  0  0  0  0  0  0  0  0  0
   37.2550   31.6800   47.7970 C   0  0  0  0  0  0  0  0  0  0  0  0
   36.5100   30.5460   47.8960 C   0  0  0  0  0  0  0  0  0  0  0  0
   36.5820   29.8560   49.0680 N   0  0  0  0  0  0  0  0  0  0  0  0
   37.3420   30.2520   50.0950 C   0  0  0  0  0  0  0  0  0  0  0  0
   38.0710   31.3660   49.9810 N   0  0  0  0  0  0  0  0  0  0  0  0
   38.6910   32.9470   48.9490 H   0  0  0  0  0  0  0  0  0  0  0  0
   37.3890   32.4390   47.0630 H   0  0  0  0  0  0  0  0  0  0  0  0
   37.2700   29.4380   51.3370 C   0  0  0  0  0  0  0  0  0  0  0  0
   37.5690   30.1820   52.4610 F   0  0  0  0  0  0  0  0  0  0  0  0
   35.8870   29.0730   51.5650 F   0  0  0  0  0  0  0  0  0  0  0  0
   37.8950   28.2830   51.3400 F   0  0  0  0  0  0  0  0  0  0  0  0
   37.6500   31.0350   45.0820 S   0  0  0  0  0  0  0  0  0  0  0  0
   37.5040   32.3950   44.5020 O   0  0  0  0  0  0  0  0  0  0  0  0
   37.8620   30.3130   43.7680 O   0  0  0  0  0  0  0  0  0  0  0  0
   39.2020   30.5030   45.5100 C   0  0  0  0  0  0  0  0  0  0  0  0
   39.2810   29.4040   45.5990 H   0  0  0  0  0  0  0  0  0  0  0  0
   39.2870   30.7750   46.6370 H   0  0  0  0  0  0  0  0  0  0  0  0
   40.3480   31.2100   44.9640 C   0  0  0  0  0  3  0  0  0  0  0  0
   40.9330   32.3890   45.1520 C   0  0  0  0  0  3  0  0  0  0  0  0
   40.3050   33.2710   46.1730 C   0  0  0  0  0  2  0  0  0  0  0  0
   39.3890   33.7280   45.7030 H   0  0  0  0  0  0  0  0  0  0  0  0
  1  2  1  0  0  0  0
  2  3  2  0  0  0  0
  2 13  1  0  0  0  0
  3  7  1  0  0  0  0
  4  8  1  0  0  0  0
  4  3  1  0  0  0  0
  5  4  2  0  0  0  0
  6  5  1  0  0  0  0
  6  1  2  0  0  0  0
  9  5  1  0  0  0  0
 10  6  1  0  0  0  0
 11 17  1  0  0  0  0
 11 16  1  0  0  0  0
 12 13  1  0  0  0  0
 12 11  2  0  0  0  0
 13 14  2  0  0  0  0
 14 15  1  0  0  0  0
 15 19  1  0  0  0  0
 16 15  2  0  0  0  0
 18 12  1  0  0  0  0
 19 22  1  0  0  0  0
 19 21  1  0  0  0  0
 19 20  1  0  0  0  0
 23  1  1  0  0  0  0
 23 26  1  0  0  0  0
 24 23  2  0  0  0  0
 25 23  2  0  0  0  0
 26 27  1  0  0  0  0
 26 28  1  0  0  0  0
 29 30  2  0  0  0  0
 29 26  1  0  0  0  0
 30 31  1  0  0  0  0
 32 31  1  0  0  0  0
M  END
>  <minimizedAffinity>
-6.08311701

>  <minimizedRMSD>
2.11991096

$$$$
