REMARK  Name = 
REMARK  4 active torsions:
REMARK  status: ('A' for Active; 'I' for Inactive)
REMARK    1  A    between atoms: C_3  and  C_7
REMARK    2  A    between atoms: C_8  and  C_9
REMARK    3  A    between atoms: C_9  and  C_17
REMARK    4  A    between atoms: C_18  and  C_19
REMARK                            x       y       z     vdW  Elec       q    Type
REMARK                         _______ _______ _______ _____ _____    ______ ____
ROOT
ATOM      1  C   UNL     1      37.366  30.239  51.370  0.00  0.00    +0.000 A 
ATOM      2  C   UNL     1      38.022  30.753  50.250  0.00  0.00    +0.000 A 
ATOM      3  C   UNL     1      37.567  30.408  48.993  0.00  0.00    +0.000 A 
ATOM      4  N   UNL     1      36.491  29.575  48.891  0.00  0.00    +0.000 NA
ATOM      5  C   UNL     1      35.874  29.091  49.986  0.00  0.00    +0.000 A 
ATOM      6  N   UNL     1      36.312  29.424  51.214  0.00  0.00    +0.000 NA
ATOM      7  H   UNL     1      37.688  30.483  52.378  0.00  0.00    +0.000 HD
ATOM      8  H   UNL     1      38.875  31.414  50.406  0.00  0.00    +0.000 HD
ATOM      9  H   UNL     1      35.018  28.429  49.846  0.00  0.00    +0.000 HD
ENDROOT
BRANCH   3  10
ATOM     10  C   UNL     1      38.203  30.907  47.812  0.00  0.00    +0.000 C 
ATOM     11  C   UNL     1      38.840  32.049  47.782  0.00  0.00    +0.000 C 
BRANCH  11  12
ATOM     12  C   UNL     1      39.512  32.593  46.562  0.00  0.00    +0.000 C 
ATOM     13  H   UNL     1      40.594  32.599  46.773  0.00  0.00    +0.000 HD
ATOM     14  H   UNL     1      39.345  31.827  45.760  0.00  0.00    +0.000 HD
BRANCH  12  15
ATOM     15  C   UNL     1      38.958  33.892  46.157  0.00  0.00    +0.000 C 
ATOM     16  C   UNL     1      39.629  34.979  45.791  0.00  0.00    +0.000 C 
BRANCH  16  17
ATOM     17  C   UNL     1      41.110  34.899  45.782  0.00  0.00    +0.000 C 
ATOM     18  H   UNL     1      41.461  34.440  44.814  0.00  0.00    +0.000 HD
ENDBRANCH  16  17
ENDBRANCH  12  15
ENDBRANCH  11  12
ENDBRANCH   3  10
TORSDOF 4
