REMARK  Name = 
REMARK  5 active torsions:
REMARK  status: ('A' for Active; 'I' for Inactive)
REMARK    1  A    between atoms: C_5  and  O_7
REMARK    2  A    between atoms: O_7  and  C_8
REMARK    3  A    between atoms: C_8  and  C_9
REMARK    4  A    between atoms: C_9  and  C_17
REMARK    5  A    between atoms: C_18  and  C_19
REMARK                            x       y       z     vdW  Elec       q    Type
REMARK                         _______ _______ _______ _____ _____    ______ ____
ROOT
ATOM      1  O   UNL     1      34.733  28.299  49.756  0.00  0.00    +0.000 OA
ENDROOT
BRANCH   1   6
ATOM      2  C   UNL     1      37.326  30.214  51.415  0.00  0.00    +0.000 A 
ATOM      3  C   UNL     1      38.047  30.660  50.309  0.00  0.00    +0.000 A 
ATOM      4  C   UNL     1      37.617  30.287  49.043  0.00  0.00    +0.000 A 
ATOM      5  N   UNL     1      36.502  29.499  48.965  0.00  0.00    +0.000 NA
ATOM      6  C   UNL     1      35.833  29.089  50.059  0.00  0.00    +0.000 A 
ATOM      7  N   UNL     1      36.260  29.457  51.285  0.00  0.00    +0.000 NA
ATOM      8  H   UNL     1      37.680  30.517  52.402  0.00  0.00    +0.000 HD
ATOM      9  H   UNL     1      38.939  31.291  50.382  0.00  0.00    +0.000 HD
ATOM     10  H   UNL     1      38.135  30.602  48.160  0.00  0.00    +0.000 HD
ENDBRANCH   1   6
BRANCH   1  11
ATOM     11  C   UNL     1      34.205  28.392  48.456  0.00  0.00    +0.000 C 
ATOM     12  H   UNL     1      34.958  28.820  47.747  0.00  0.00    +0.000 HD
ATOM     13  H   UNL     1      33.285  29.020  48.496  0.00  0.00    +0.000 HD
BRANCH  11  14
ATOM     14  C   UNL     1      33.833  27.036  47.913  0.00  0.00    +0.000 C 
ATOM     15  H   UNL     1      34.711  26.360  47.931  0.00  0.00    +0.000 HD
ATOM     16  H   UNL     1      32.999  26.651  48.566  0.00  0.00    +0.000 HD
BRANCH  14  17
ATOM     17  C   UNL     1      33.282  27.196  46.539  0.00  0.00    +0.000 C 
ATOM     18  C   UNL     1      33.782  26.652  45.426  0.00  0.00    +0.000 C 
BRANCH  18  19
ATOM     19  C   UNL     1      33.256  26.792  44.035  0.00  0.00    +0.000 C 
ATOM     20  H   UNL     1      32.129  26.849  44.065  0.00  0.00    +0.000 HD
ENDBRANCH  18  19
ENDBRANCH  14  17
ENDBRANCH  11  14
ENDBRANCH   1  11
TORSDOF 5
