
 OpenBabel03272510053D

 32 33  0  0  0  0  0  0  0  0999 V2000
   36.9240   25.9600   32.5820 C   0  0  0  0  0  0  0  0  0  0  0  0
   37.3750   26.3410   33.8060 C   0  0  0  0  0  0  0  0  0  0  0  0
   37.0180   27.5840   34.3150 C   0  0  0  0  0  0  0  0  0  0  0  0
   36.2130   28.4680   33.6210 C   0  0  0  0  0  0  0  0  0  0  0  0
   35.7440   28.1180   32.3840 C   0  0  0  0  0  0  0  0  0  0  0  0
   36.1140   26.8830   31.9100 C   0  0  0  0  0  0  0  0  0  0  0  0
   37.3950   27.8650   35.3110 H   0  0  0  0  0  0  0  0  0  0  0  0
   35.9990   29.3920   34.1040 H   0  0  0  0  0  0  0  0  0  0  0  0
   35.1200   28.8330   31.8710 H   0  0  0  0  0  0  0  0  0  0  0  0
   35.6820   26.7200   30.9130 H   0  0  0  0  0  0  0  0  0  0  0  0
   40.3750   24.4770   34.8240 C   0  0  0  0  0  0  0  0  0  0  0  0
   39.5010   25.2860   34.1110 C   0  0  0  0  0  0  0  0  0  0  0  0
   38.2420   25.5140   34.5740 C   0  0  0  0  0  0  0  0  0  0  0  0
   37.8960   24.9230   35.7500 N   0  0  0  0  0  0  0  0  0  0  0  0
   38.7360   24.1450   36.4430 C   0  0  0  0  0  0  0  0  0  0  0  0
   39.9670   23.9270   35.9740 N   0  0  0  0  0  0  0  0  0  0  0  0
   41.3860   24.1930   34.6080 H   0  0  0  0  0  0  0  0  0  0  0  0
   40.0760   25.6160   33.2790 H   0  0  0  0  0  0  0  0  0  0  0  0
   38.2450   23.6210   37.7450 C   0  0  0  0  0  0  0  0  0  0  0  0
   39.2670   23.0910   38.5080 F   0  0  0  0  0  0  0  0  0  0  0  0
   37.8020   24.7390   38.5520 F   0  0  0  0  0  0  0  0  0  0  0  0
   37.1970   22.8290   37.7220 F   0  0  0  0  0  0  0  0  0  0  0  0
   37.2630   24.4420   31.8640 S   0  0  0  0  0  0  0  0  0  0  0  0
   38.2050   24.5760   30.7230 O   0  0  0  0  0  0  0  0  0  0  0  0
   36.0070   24.2990   31.0290 O   0  0  0  0  0  0  0  0  0  0  0  0
   36.9270   22.8880   32.4530 C   0  0  0  0  0  0  0  0  0  0  0  0
   37.2030   22.7510   33.5150 H   0  0  0  0  0  0  0  0  0  0  0  0
   37.7530   22.2250   31.9730 H   0  0  0  0  0  0  0  0  0  0  0  0
   35.7240   22.2180   31.9870 C   0  0  0  0  0  3  0  0  0  0  0  0
   35.0130   21.1550   32.3460 C   0  0  0  0  0  3  0  0  0  0  0  0
   35.5170   20.4020   33.5250 C   0  0  0  0  0  2  0  0  0  0  0  0
   36.3890   19.7800   33.1770 H   0  0  0  0  0  0  0  0  0  0  0  0
  1  2  1  0  0  0  0
  2  3  2  0  0  0  0
  2 13  1  0  0  0  0
  3  7  1  0  0  0  0
  4  8  1  0  0  0  0
  4  3  1  0  0  0  0
  5  4  2  0  0  0  0
  6  5  1  0  0  0  0
  6  1  2  0  0  0  0
  9  5  1  0  0  0  0
 10  6  1  0  0  0  0
 11 16  1  0  0  0  0
 12 13  1  0  0  0  0
 12 11  2  0  0  0  0
 13 14  2  0  0  0  0
 14 15  1  0  0  0  0
 15 19  1  0  0  0  0
 16 15  2  0  0  0  0
 17 11  1  0  0  0  0
 18 12  1  0  0  0  0
 19 20  1  0  0  0  0
 19 21  1  0  0  0  0
 22 19  1  0  0  0  0
 23 26  1  0  0  0  0
 23  1  1  0  0  0  0
 24 23  2  0  0  0  0
 25 23  2  0  0  0  0
 26 27  1  0  0  0  0
 28 26  1  0  0  0  0
 29 30  2  0  0  0  0
 29 26  1  0  0  0  0
 30 31  1  0  0  0  0
 32 31  1  0  0  0  0
M  END
>  <minimizedAffinity>
-5.93649769

$$$$

 OpenBabel03272510053D

 32 33  0  0  0  0  0  0  0  0999 V2000
   37.8320   24.7120   33.7350 C   0  0  0  0  0  0  0  0  0  0  0  0
   37.9790   25.2210   34.9870 C   0  0  0  0  0  0  0  0  0  0  0  0
   37.7130   26.5660   35.2180 C   0  0  0  0  0  0  0  0  0  0  0  0
   37.3010   27.4240   34.2160 C   0  0  0  0  0  0  0  0  0  0  0  0
   37.1470   26.9450   32.9430 C   0  0  0  0  0  0  0  0  0  0  0  0
   37.4160   25.6120   32.7480 C   0  0  0  0  0  0  0  0  0  0  0  0
   37.8370   26.9510   36.2420 H   0  0  0  0  0  0  0  0  0  0  0  0
   37.1230   28.4340   34.5010 H   0  0  0  0  0  0  0  0  0  0  0  0
   36.8260   27.6440   32.1870 H   0  0  0  0  0  0  0  0  0  0  0  0
   37.2610   25.3500   31.6930 H   0  0  0  0  0  0  0  0  0  0  0  0
   38.0960   23.5990   38.2820 C   0  0  0  0  0  0  0  0  0  0  0  0
   37.6800   24.3580   37.1980 C   0  0  0  0  0  0  0  0  0  0  0  0
   38.4380   24.4220   36.0710 C   0  0  0  0  0  0  0  0  0  0  0  0
   39.6000   23.7130   36.0630 N   0  0  0  0  0  0  0  0  0  0  0  0
   40.0050   22.9760   37.1030 C   0  0  0  0  0  0  0  0  0  0  0  0
   39.2520   22.9260   38.2050 N   0  0  0  0  0  0  0  0  0  0  0  0
   37.6310   23.4400   39.2350 H   0  0  0  0  0  0  0  0  0  0  0  0
   36.7370   24.7460   37.5030 H   0  0  0  0  0  0  0  0  0  0  0  0
   41.2610   22.2000   36.9290 C   0  0  0  0  0  0  0  0  0  0  0  0
   41.3830   21.6930   35.6500 F   0  0  0  0  0  0  0  0  0  0  0  0
   42.3800   23.1160   37.0070 F   0  0  0  0  0  0  0  0  0  0  0  0
   41.5440   21.2950   37.8380 F   0  0  0  0  0  0  0  0  0  0  0  0
   38.0920   23.0660   33.3330 S   0  0  0  0  0  0  0  0  0  0  0  0
   39.4990   22.8210   32.9240 O   0  0  0  0  0  0  0  0  0  0  0  0
   37.5100   23.0790   31.9340 O   0  0  0  0  0  0  0  0  0  0  0  0
   37.0930   21.7290   33.6270 C   0  0  0  0  0  0  0  0  0  0  0  0
   37.0010   21.4750   34.6990 H   0  0  0  0  0  0  0  0  0  0  0  0
   37.7370   20.8220   33.2890 H   0  0  0  0  0  0  0  0  0  0  0  0
   35.9100   21.5560   32.8000 C   0  0  0  0  0  3  0  0  0  0  0  0
   35.1180   20.5470   32.4510 C   0  0  0  0  0  3  0  0  0  0  0  0
   35.4690   19.2170   33.0160 C   0  0  0  0  0  2  0  0  0  0  0  0
   36.3400   18.8210   32.4230 H   0  0  0  0  0  0  0  0  0  0  0  0
  1  2  1  0  0  0  0
  2  3  2  0  0  0  0
  2 13  1  0  0  0  0
  3  7  1  0  0  0  0
  4  8  1  0  0  0  0
  4  3  1  0  0  0  0
  5  4  2  0  0  0  0
  6  5  1  0  0  0  0
  6  1  2  0  0  0  0
  9  5  1  0  0  0  0
 10  6  1  0  0  0  0
 11 17  1  0  0  0  0
 12 18  1  0  0  0  0
 12 11  2  0  0  0  0
 13 12  1  0  0  0  0
 14 13  2  0  0  0  0
 14 15  1  0  0  0  0
 15 16  2  0  0  0  0
 16 11  1  0  0  0  0
 19 21  1  0  0  0  0
 19 15  1  0  0  0  0
 19 22  1  0  0  0  0
 20 19  1  0  0  0  0
 23 26  1  0  0  0  0
 23  1  1  0  0  0  0
 24 23  2  0  0  0  0
 25 23  2  0  0  0  0
 26 27  1  0  0  0  0
 28 26  1  0  0  0  0
 29 26  1  0  0  0  0
 30 29  2  0  0  0  0
 30 31  1  0  0  0  0
 32 31  1  0  0  0  0
M  END
>  <minimizedAffinity>
-5.65319538

$$$$

 OpenBabel03272510053D

 32 33  0  0  0  0  0  0  0  0999 V2000
   38.3920   24.8790   35.9610 C   0  0  0  0  0  0  0  0  0  0  0  0
   38.4390   24.6990   34.6140 C   0  0  0  0  0  0  0  0  0  0  0  0
   38.4400   25.8060   33.7720 C   0  0  0  0  0  0  0  0  0  0  0  0
   38.3930   27.1020   34.2490 C   0  0  0  0  0  0  0  0  0  0  0  0
   38.3410   27.3190   35.6000 C   0  0  0  0  0  0  0  0  0  0  0  0
   38.3420   26.2060   36.4040 C   0  0  0  0  0  0  0  0  0  0  0  0
   38.4820   25.6300   32.6860 H   0  0  0  0  0  0  0  0  0  0  0  0
   38.4000   27.8760   33.5180 H   0  0  0  0  0  0  0  0  0  0  0  0
   38.3030   28.3430   35.9350 H   0  0  0  0  0  0  0  0  0  0  0  0
   38.2940   26.5070   37.4590 H   0  0  0  0  0  0  0  0  0  0  0  0
   39.6870   21.6210   33.0430 C   0  0  0  0  0  0  0  0  0  0  0  0
   39.6360   22.8790   33.6250 C   0  0  0  0  0  0  0  0  0  0  0  0
   38.4470   23.4010   34.0330 C   0  0  0  0  0  0  0  0  0  0  0  0
   37.3370   22.6350   33.8470 N   0  0  0  0  0  0  0  0  0  0  0  0
   37.3810   21.4200   33.2910 C   0  0  0  0  0  0  0  0  0  0  0  0
   38.5540   20.9230   32.8910 N   0  0  0  0  0  0  0  0  0  0  0  0
   40.5240   21.0650   32.6680 H   0  0  0  0  0  0  0  0  0  0  0  0
   40.6530   23.1890   33.6590 H   0  0  0  0  0  0  0  0  0  0  0  0
   36.0990   20.6700   33.2130 C   0  0  0  0  0  0  0  0  0  0  0  0
   36.2740   19.3970   32.7080 F   0  0  0  0  0  0  0  0  0  0  0  0
   35.6380   20.4100   34.5610 F   0  0  0  0  0  0  0  0  0  0  0  0
   35.0760   21.2770   32.6540 F   0  0  0  0  0  0  0  0  0  0  0  0
   38.4230   23.6000   37.1010 S   0  0  0  0  0  0  0  0  0  0  0  0
   37.1310   22.8670   37.1340 O   0  0  0  0  0  0  0  0  0  0  0  0
   38.1890   24.4110   38.3590 O   0  0  0  0  0  0  0  0  0  0  0  0
   39.7540   22.9250   37.9050 C   0  0  0  0  0  0  0  0  0  0  0  0
   39.5710   22.7370   38.9790 H   0  0  0  0  0  0  0  0  0  0  0  0
   40.4950   23.8150   38.0090 H   0  0  0  0  0  0  0  0  0  0  0  0
   40.5740   21.9590   37.1910 C   0  0  0  0  0  3  0  0  0  0  0  0
   41.7240   21.9780   36.5250 C   0  0  0  0  0  3  0  0  0  0  0  0
   42.4100   23.2950   36.4470 C   0  0  0  0  0  2  0  0  0  0  0  0
   41.8740   23.9050   35.6660 H   0  0  0  0  0  0  0  0  0  0  0  0
  1  6  1  0  0  0  0
  1 23  1  0  0  0  0
  2  1  2  0  0  0  0
  3  4  2  0  0  0  0
  3  2  1  0  0  0  0
  4  5  1  0  0  0  0
  5  9  1  0  0  0  0
  5  6  2  0  0  0  0
  6 10  1  0  0  0  0
  7  3  1  0  0  0  0
  8  4  1  0  0  0  0
 11 12  1  0  0  0  0
 12 18  1  0  0  0  0
 12 13  2  0  0  0  0
 13  2  1  0  0  0  0
 14 13  1  0  0  0  0
 15 14  2  0  0  0  0
 16 11  2  0  0  0  0
 16 15  1  0  0  0  0
 17 11  1  0  0  0  0
 19 15  1  0  0  0  0
 19 21  1  0  0  0  0
 20 19  1  0  0  0  0
 22 19  1  0  0  0  0
 23 24  2  0  0  0  0
 23 26  1  0  0  0  0
 23 25  2  0  0  0  0
 26 28  1  0  0  0  0
 26 27  1  0  0  0  0
 29 26  1  0  0  0  0
 30 29  2  0  0  0  0
 31 30  1  0  0  0  0
 32 31  1  0  0  0  0
M  END
>  <minimizedAffinity>
-5.60805655

$$$$

 OpenBabel03272510053D

 32 33  0  0  0  0  0  0  0  0999 V2000
   37.2960   24.9120   33.0050 C   0  0  0  0  0  0  0  0  0  0  0  0
   37.6250   23.6430   33.3630 C   0  0  0  0  0  0  0  0  0  0  0  0
   37.1390   22.5710   32.6230 C   0  0  0  0  0  0  0  0  0  0  0  0
   36.3210   22.7390   31.5220 C   0  0  0  0  0  0  0  0  0  0  0  0
   35.9670   24.0040   31.1350 C   0  0  0  0  0  0  0  0  0  0  0  0
   36.4650   25.0410   31.8860 C   0  0  0  0  0  0  0  0  0  0  0  0
   37.4240   21.5540   32.9340 H   0  0  0  0  0  0  0  0  0  0  0  0
   36.0070   21.8510   31.0250 H   0  0  0  0  0  0  0  0  0  0  0  0
   35.3270   24.0960   30.2720 H   0  0  0  0  0  0  0  0  0  0  0  0
   36.1100   25.9980   31.4830 H   0  0  0  0  0  0  0  0  0  0  0  0
   40.4590   22.5150   35.4120 C   0  0  0  0  0  0  0  0  0  0  0  0
   39.6500   22.8040   34.3240 C   0  0  0  0  0  0  0  0  0  0  0  0
   38.4270   23.3730   34.5060 C   0  0  0  0  0  0  0  0  0  0  0  0
   38.0520   23.6400   35.7880 N   0  0  0  0  0  0  0  0  0  0  0  0
   38.8300   23.3660   36.8410 C   0  0  0  0  0  0  0  0  0  0  0  0
   40.0260   22.8040   36.6460 N   0  0  0  0  0  0  0  0  0  0  0  0
   41.4350   22.0720   35.4510 H   0  0  0  0  0  0  0  0  0  0  0  0
   40.2360   22.5160   33.4830 H   0  0  0  0  0  0  0  0  0  0  0  0
   38.3200   23.7740   38.1770 C   0  0  0  0  0  0  0  0  0  0  0  0
   37.3250   22.9310   38.6310 F   0  0  0  0  0  0  0  0  0  0  0  0
   39.3710   23.5700   39.1510 F   0  0  0  0  0  0  0  0  0  0  0  0
   37.9950   25.0370   38.3400 F   0  0  0  0  0  0  0  0  0  0  0  0
   37.8610   26.3140   33.8130 S   0  0  0  0  0  0  0  0  0  0  0  0
   36.9120   26.7560   34.8670 O   0  0  0  0  0  0  0  0  0  0  0  0
   37.4600   27.3480   32.7810 O   0  0  0  0  0  0  0  0  0  0  0  0
   39.4040   27.0170   33.7700 C   0  0  0  0  0  0  0  0  0  0  0  0
   39.3940   28.0820   33.4770 H   0  0  0  0  0  0  0  0  0  0  0  0
   39.8820   26.5760   32.8050 H   0  0  0  0  0  0  0  0  0  0  0  0
   40.3740   26.6110   34.7730 C   0  0  0  0  0  3  0  0  0  0  0  0
   41.5480   25.9870   34.7810 C   0  0  0  0  0  3  0  0  0  0  0  0
   42.0690   25.5620   33.4550 C   0  0  0  0  0  2  0  0  0  0  0  0
   41.5060   24.6340   33.1560 H   0  0  0  0  0  0  0  0  0  0  0  0
  1  2  1  0  0  0  0
  1 23  1  0  0  0  0
  2 13  1  0  0  0  0
  3  7  1  0  0  0  0
  3  2  2  0  0  0  0
  4  3  1  0  0  0  0
  5  4  2  0  0  0  0
  5  6  1  0  0  0  0
  6  1  2  0  0  0  0
  8  4  1  0  0  0  0
  9  5  1  0  0  0  0
 10  6  1  0  0  0  0
 11 17  1  0  0  0  0
 11 16  1  0  0  0  0
 12 13  1  0  0  0  0
 12 11  2  0  0  0  0
 13 14  2  0  0  0  0
 14 15  1  0  0  0  0
 15 19  1  0  0  0  0
 16 15  2  0  0  0  0
 18 12  1  0  0  0  0
 19 22  1  0  0  0  0
 19 20  1  0  0  0  0
 19 21  1  0  0  0  0
 23 24  2  0  0  0  0
 25 23  2  0  0  0  0
 26 23  1  0  0  0  0
 26 29  1  0  0  0  0
 27 26  1  0  0  0  0
 28 26  1  0  0  0  0
 29 30  2  0  0  0  0
 31 30  1  0  0  0  0
 32 31  1  0  0  0  0
M  END
>  <minimizedAffinity>
-5.54312468

$$$$

 OpenBabel03272510053D

 32 33  0  0  0  0  0  0  0  0999 V2000
   36.5260   24.0910   32.1100 C   0  0  0  0  0  0  0  0  0  0  0  0
   37.2920   24.9210   32.8660 C   0  0  0  0  0  0  0  0  0  0  0  0
   37.2040   26.2970   32.6830 C   0  0  0  0  0  0  0  0  0  0  0  0
   36.3590   26.8690   31.7520 C   0  0  0  0  0  0  0  0  0  0  0  0
   35.5750   26.0630   30.9710 C   0  0  0  0  0  0  0  0  0  0  0  0
   35.6850   24.7090   31.1770 C   0  0  0  0  0  0  0  0  0  0  0  0
   37.8340   26.9440   33.3120 H   0  0  0  0  0  0  0  0  0  0  0  0
   36.3670   27.9320   31.6960 H   0  0  0  0  0  0  0  0  0  0  0  0
   34.9300   26.5450   30.2540 H   0  0  0  0  0  0  0  0  0  0  0  0
   35.0150   24.1720   30.4930 H   0  0  0  0  0  0  0  0  0  0  0  0
   40.4120   23.6090   34.2990 C   0  0  0  0  0  0  0  0  0  0  0  0
   39.4790   24.1110   33.4040 C   0  0  0  0  0  0  0  0  0  0  0  0
   38.2210   24.4190   33.8200 C   0  0  0  0  0  0  0  0  0  0  0  0
   37.9350   24.2160   35.1360 N   0  0  0  0  0  0  0  0  0  0  0  0
   38.8310   23.7360   36.0050 C   0  0  0  0  0  0  0  0  0  0  0  0
   40.0610   23.4340   35.5800 N   0  0  0  0  0  0  0  0  0  0  0  0
   41.4310   23.3150   34.1450 H   0  0  0  0  0  0  0  0  0  0  0  0
   40.0150   24.1850   32.4880 H   0  0  0  0  0  0  0  0  0  0  0  0
   38.4010   23.6300   37.4240 C   0  0  0  0  0  0  0  0  0  0  0  0
   39.4230   23.1950   38.2440 F   0  0  0  0  0  0  0  0  0  0  0  0
   38.1460   24.9640   37.9260 F   0  0  0  0  0  0  0  0  0  0  0  0
   37.2790   22.9920   37.6690 F   0  0  0  0  0  0  0  0  0  0  0  0
   36.5170   22.3850   32.2660 S   0  0  0  0  0  0  0  0  0  0  0  0
   37.0960   21.9530   33.5640 O   0  0  0  0  0  0  0  0  0  0  0  0
   37.7380   22.0730   31.4250 O   0  0  0  0  0  0  0  0  0  0  0  0
   35.7000   21.2350   31.3250 C   0  0  0  0  0  0  0  0  0  0  0  0
   36.2610   20.9240   30.4250 H   0  0  0  0  0  0  0  0  0  0  0  0
   34.8630   21.8500   30.8020 H   0  0  0  0  0  0  0  0  0  0  0  0
   34.9160   20.2180   32.0050 C   0  0  0  0  0  3  0  0  0  0  0  0
   35.0970   18.9570   32.3860 C   0  0  0  0  0  3  0  0  0  0  0  0
   36.4230   18.3640   32.0670 C   0  0  0  0  0  2  0  0  0  0  0  0
   36.4160   18.1000   30.9730 H   0  0  0  0  0  0  0  0  0  0  0  0
  1 23  1  0  0  0  0
  1  2  1  0  0  0  0
  2 13  1  0  0  0  0
  3  2  2  0  0  0  0
  3  7  1  0  0  0  0
  4  3  1  0  0  0  0
  5  6  1  0  0  0  0
  5  4  2  0  0  0  0
  6  1  2  0  0  0  0
  8  4  1  0  0  0  0
  9  5  1  0  0  0  0
 10  6  1  0  0  0  0
 11 16  1  0  0  0  0
 12 13  1  0  0  0  0
 12 11  2  0  0  0  0
 13 14  2  0  0  0  0
 14 15  1  0  0  0  0
 15 19  1  0  0  0  0
 16 15  2  0  0  0  0
 17 11  1  0  0  0  0
 18 12  1  0  0  0  0
 19 22  1  0  0  0  0
 19 21  1  0  0  0  0
 19 20  1  0  0  0  0
 23 24  2  0  0  0  0
 25 23  2  0  0  0  0
 26 29  1  0  0  0  0
 26 23  1  0  0  0  0
 27 26  1  0  0  0  0
 28 26  1  0  0  0  0
 29 30  2  0  0  0  0
 31 30  1  0  0  0  0
 32 31  1  0  0  0  0
M  END
>  <minimizedAffinity>
-5.48214388

$$$$

 OpenBabel03272510053D

 32 33  0  0  0  0  0  0  0  0999 V2000
   38.2640   24.8420   35.6390 C   0  0  0  0  0  0  0  0  0  0  0  0
   38.4970   24.8410   34.3000 C   0  0  0  0  0  0  0  0  0  0  0  0
   38.8230   26.0290   33.6570 C   0  0  0  0  0  0  0  0  0  0  0  0
   38.9210   27.2340   34.3270 C   0  0  0  0  0  0  0  0  0  0  0  0
   38.6890   27.2720   35.6760 C   0  0  0  0  0  0  0  0  0  0  0  0
   38.3710   26.0810   36.2810 C   0  0  0  0  0  0  0  0  0  0  0  0
   39.0090   25.9970   32.5720 H   0  0  0  0  0  0  0  0  0  0  0  0
   39.1790   28.0830   33.7390 H   0  0  0  0  0  0  0  0  0  0  0  0
   38.7740   28.2300   36.1650 H   0  0  0  0  0  0  0  0  0  0  0  0
   38.2050   26.2410   37.3550 H   0  0  0  0  0  0  0  0  0  0  0  0
   39.3990   21.6960   32.6260 C   0  0  0  0  0  0  0  0  0  0  0  0
   39.4690   22.8550   33.3850 C   0  0  0  0  0  0  0  0  0  0  0  0
   38.3780   23.6560   33.5220 C   0  0  0  0  0  0  0  0  0  0  0  0
   37.2370   23.2630   32.8910 N   0  0  0  0  0  0  0  0  0  0  0  0
   37.1620   22.1450   32.1610 C   0  0  0  0  0  0  0  0  0  0  0  0
   38.2430   21.3710   32.0320 N   0  0  0  0  0  0  0  0  0  0  0  0
   40.1500   20.9610   32.4130 H   0  0  0  0  0  0  0  0  0  0  0  0
   40.4630   22.8540   33.7650 H   0  0  0  0  0  0  0  0  0  0  0  0
   35.8330   21.8060   31.5860 C   0  0  0  0  0  0  0  0  0  0  0  0
   34.8560   21.7150   32.5570 F   0  0  0  0  0  0  0  0  0  0  0  0
   35.3780   22.9280   30.7920 F   0  0  0  0  0  0  0  0  0  0  0  0
   35.7770   20.7970   30.7470 F   0  0  0  0  0  0  0  0  0  0  0  0
   37.8910   23.4390   36.5500 S   0  0  0  0  0  0  0  0  0  0  0  0
   37.4600   23.7830   37.9290 O   0  0  0  0  0  0  0  0  0  0  0  0
   39.3020   23.0230   36.9140 O   0  0  0  0  0  0  0  0  0  0  0  0
   37.6700   21.8480   36.0090 C   0  0  0  0  0  0  0  0  0  0  0  0
   38.3480   21.1210   36.4900 H   0  0  0  0  0  0  0  0  0  0  0  0
   38.1430   21.8490   34.9460 H   0  0  0  0  0  0  0  0  0  0  0  0
   36.3180   21.4020   35.7130 C   0  0  0  0  0  3  0  0  0  0  0  0
   35.2770   20.9570   36.4080 C   0  0  0  0  0  3  0  0  0  0  0  0
   35.4690   20.8620   37.8800 C   0  0  0  0  0  2  0  0  0  0  0  0
   36.0780   19.9370   38.0790 H   0  0  0  0  0  0  0  0  0  0  0  0
  1  6  1  0  0  0  0
  1 23  1  0  0  0  0
  2  1  2  0  0  0  0
  3  2  1  0  0  0  0
  3  4  2  0  0  0  0
  4  5  1  0  0  0  0
  5  9  1  0  0  0  0
  5  6  2  0  0  0  0
  6 10  1  0  0  0  0
  7  3  1  0  0  0  0
  8  4  1  0  0  0  0
 11 12  1  0  0  0  0
 12 13  2  0  0  0  0
 12 18  1  0  0  0  0
 13  2  1  0  0  0  0
 14 13  1  0  0  0  0
 15 14  2  0  0  0  0
 16 15  1  0  0  0  0
 16 11  2  0  0  0  0
 17 11  1  0  0  0  0
 19 15  1  0  0  0  0
 19 20  1  0  0  0  0
 21 19  1  0  0  0  0
 22 19  1  0  0  0  0
 23 25  2  0  0  0  0
 23 24  2  0  0  0  0
 26 27  1  0  0  0  0
 26 23  1  0  0  0  0
 28 26  1  0  0  0  0
 29 26  1  0  0  0  0
 29 30  2  0  0  0  0
 30 31  1  0  0  0  0
 31 32  1  0  0  0  0
M  END
>  <minimizedAffinity>
-5.28997278

$$$$

 OpenBabel03272510053D

 32 33  0  0  0  0  0  0  0  0999 V2000
   37.0390   22.0690   33.3930 C   0  0  0  0  0  0  0  0  0  0  0  0
   36.5430   22.6800   32.2840 C   0  0  0  0  0  0  0  0  0  0  0  0
   35.4990   22.0890   31.5810 C   0  0  0  0  0  0  0  0  0  0  0  0
   34.9330   20.8880   31.9630 C   0  0  0  0  0  0  0  0  0  0  0  0
   35.4100   20.2430   33.0730 C   0  0  0  0  0  0  0  0  0  0  0  0
   36.4410   20.8540   33.7450 C   0  0  0  0  0  0  0  0  0  0  0  0
   35.1160   22.6080   30.6890 H   0  0  0  0  0  0  0  0  0  0  0  0
   34.1380   20.5250   31.3560 H   0  0  0  0  0  0  0  0  0  0  0  0
   34.9450   19.3070   33.3390 H   0  0  0  0  0  0  0  0  0  0  0  0
   36.7370   20.2430   34.6080 H   0  0  0  0  0  0  0  0  0  0  0  0
   38.6920   25.0010   30.4130 C   0  0  0  0  0  0  0  0  0  0  0  0
   38.1220   23.8370   30.9080 C   0  0  0  0  0  0  0  0  0  0  0  0
   37.0910   23.8980   31.7940 C   0  0  0  0  0  0  0  0  0  0  0  0
   36.6560   25.1360   32.1560 N   0  0  0  0  0  0  0  0  0  0  0  0
   37.2000   26.2620   31.6790 C   0  0  0  0  0  0  0  0  0  0  0  0
   38.2140   26.1860   30.8140 N   0  0  0  0  0  0  0  0  0  0  0  0
   39.5000   25.1350   29.7220 H   0  0  0  0  0  0  0  0  0  0  0  0
   38.6520   23.0590   30.4110 H   0  0  0  0  0  0  0  0  0  0  0  0
   36.5780   27.5420   32.1100 C   0  0  0  0  0  0  0  0  0  0  0  0
   36.3680   27.5820   33.4750 F   0  0  0  0  0  0  0  0  0  0  0  0
   37.5390   28.6070   31.9130 F   0  0  0  0  0  0  0  0  0  0  0  0
   35.5240   27.9560   31.4460 F   0  0  0  0  0  0  0  0  0  0  0  0
   38.2950   22.7140   34.3630 S   0  0  0  0  0  0  0  0  0  0  0  0
   39.5540   21.9390   34.2110 O   0  0  0  0  0  0  0  0  0  0  0  0
   37.8870   22.1140   35.6930 O   0  0  0  0  0  0  0  0  0  0  0  0
   38.3580   24.2040   35.1700 C   0  0  0  0  0  0  0  0  0  0  0  0
   38.2890   24.1130   36.2690 H   0  0  0  0  0  0  0  0  0  0  0  0
   37.3110   24.6710   34.9700 H   0  0  0  0  0  0  0  0  0  0  0  0
   39.2310   25.2390   34.6410 C   0  0  0  0  0  3  0  0  0  0  0  0
   39.4310   26.5340   34.8590 C   0  0  0  0  0  3  0  0  0  0  0  0
   38.5750   27.1590   35.9030 C   0  0  0  0  0  2  0  0  0  0  0  0
   37.5600   27.3280   35.4450 H   0  0  0  0  0  0  0  0  0  0  0  0
  1  6  1  0  0  0  0
  1 23  1  0  0  0  0
  2  1  2  0  0  0  0
  3  4  2  0  0  0  0
  3  2  1  0  0  0  0
  4  5  1  0  0  0  0
  5  9  1  0  0  0  0
  5  6  2  0  0  0  0
  6 10  1  0  0  0  0
  7  3  1  0  0  0  0
  8  4  1  0  0  0  0
 11 16  2  0  0  0  0
 11 12  1  0  0  0  0
 12 13  2  0  0  0  0
 13 14  1  0  0  0  0
 13  2  1  0  0  0  0
 15 19  1  0  0  0  0
 15 14  2  0  0  0  0
 16 15  1  0  0  0  0
 17 11  1  0  0  0  0
 18 12  1  0  0  0  0
 19 20  1  0  0  0  0
 21 19  1  0  0  0  0
 22 19  1  0  0  0  0
 23 26  1  0  0  0  0
 23 25  2  0  0  0  0
 24 23  2  0  0  0  0
 26 27  1  0  0  0  0
 28 26  1  0  0  0  0
 29 30  2  0  0  0  0
 29 26  1  0  0  0  0
 30 31  1  0  0  0  0
 32 31  1  0  0  0  0
M  END
>  <minimizedAffinity>
-5.28661966

$$$$

 OpenBabel03272510053D

 32 33  0  0  0  0  0  0  0  0999 V2000
   38.3240   24.6840   35.5390 C   0  0  0  0  0  0  0  0  0  0  0  0
   38.2680   24.8530   34.1910 C   0  0  0  0  0  0  0  0  0  0  0  0
   38.2010   26.1370   33.6610 C   0  0  0  0  0  0  0  0  0  0  0  0
   38.1860   27.2680   34.4540 C   0  0  0  0  0  0  0  0  0  0  0  0
   38.2380   27.1350   35.8150 C   0  0  0  0  0  0  0  0  0  0  0  0
   38.3050   25.8540   36.3070 C   0  0  0  0  0  0  0  0  0  0  0  0
   38.1590   26.2440   32.5660 H   0  0  0  0  0  0  0  0  0  0  0  0
   38.1360   28.2020   33.9450 H   0  0  0  0  0  0  0  0  0  0  0  0
   38.2230   28.0390   36.4020 H   0  0  0  0  0  0  0  0  0  0  0  0
   38.3370   25.8770   37.4050 H   0  0  0  0  0  0  0  0  0  0  0  0
   39.4250   22.1990   31.9290 C   0  0  0  0  0  0  0  0  0  0  0  0
   39.4130   23.2710   32.8090 C   0  0  0  0  0  0  0  0  0  0  0  0
   38.2360   23.7450   33.2990 C   0  0  0  0  0  0  0  0  0  0  0  0
   37.0960   23.1220   32.8900 N   0  0  0  0  0  0  0  0  0  0  0  0
   37.1030   22.0860   32.0450 C   0  0  0  0  0  0  0  0  0  0  0  0
   38.2660   21.6330   31.5690 N   0  0  0  0  0  0  0  0  0  0  0  0
   40.2490   21.7050   31.4510 H   0  0  0  0  0  0  0  0  0  0  0  0
   40.4420   23.4980   32.9530 H   0  0  0  0  0  0  0  0  0  0  0  0
   35.7880   21.4600   31.7390 C   0  0  0  0  0  0  0  0  0  0  0  0
   35.1830   22.0390   30.6410 F   0  0  0  0  0  0  0  0  0  0  0  0
   36.0200   20.1040   31.2890 F   0  0  0  0  0  0  0  0  0  0  0  0
   34.9440   21.3110   32.7340 F   0  0  0  0  0  0  0  0  0  0  0  0
   38.4460   23.1590   36.3100 S   0  0  0  0  0  0  0  0  0  0  0  0
   37.1130   22.6430   36.7140 O   0  0  0  0  0  0  0  0  0  0  0  0
   38.8670   23.6330   37.6860 O   0  0  0  0  0  0  0  0  0  0  0  0
   39.7730   22.1050   36.3780 C   0  0  0  0  0  0  0  0  0  0  0  0
   39.6350   21.1860   35.7800 H   0  0  0  0  0  0  0  0  0  0  0  0
   39.6990   21.6350   37.4390 H   0  0  0  0  0  0  0  0  0  0  0  0
   41.1080   22.6790   36.4180 C   0  0  0  0  0  3  0  0  0  0  0  0
   42.3280   22.2580   36.7340 C   0  0  0  0  0  3  0  0  0  0  0  0
   42.4350   20.8390   37.1700 C   0  0  0  0  0  2  0  0  0  0  0  0
   42.0730   20.7890   38.2350 H   0  0  0  0  0  0  0  0  0  0  0  0
  1  6  1  0  0  0  0
  1 23  1  0  0  0  0
  2  1  2  0  0  0  0
  3  2  1  0  0  0  0
  3  4  2  0  0  0  0
  4  5  1  0  0  0  0
  5  6  2  0  0  0  0
  5  9  1  0  0  0  0
  6 10  1  0  0  0  0
  7  3  1  0  0  0  0
  8  4  1  0  0  0  0
 11 12  1  0  0  0  0
 12 18  1  0  0  0  0
 12 13  2  0  0  0  0
 13  2  1  0  0  0  0
 14 13  1  0  0  0  0
 15 14  2  0  0  0  0
 16 11  2  0  0  0  0
 16 15  1  0  0  0  0
 17 11  1  0  0  0  0
 19 15  1  0  0  0  0
 19 22  1  0  0  0  0
 20 19  1  0  0  0  0
 21 19  1  0  0  0  0
 23 26  1  0  0  0  0
 23 24  2  0  0  0  0
 23 25  2  0  0  0  0
 26 29  1  0  0  0  0
 26 28  1  0  0  0  0
 27 26  1  0  0  0  0
 29 30  2  0  0  0  0
 30 31  1  0  0  0  0
 31 32  1  0  0  0  0
M  END
>  <minimizedAffinity>
-5.26897955

$$$$

 OpenBabel03272510053D

 32 33  0  0  0  0  0  0  0  0999 V2000
   38.1460   24.4830   35.2280 C   0  0  0  0  0  0  0  0  0  0  0  0
   38.0080   23.1460   35.4280 C   0  0  0  0  0  0  0  0  0  0  0  0
   37.9170   22.6490   36.7240 C   0  0  0  0  0  0  0  0  0  0  0  0
   37.9630   23.4670   37.8370 C   0  0  0  0  0  0  0  0  0  0  0  0
   38.1040   24.8190   37.6720 C   0  0  0  0  0  0  0  0  0  0  0  0
   38.1900   25.2770   36.3800 C   0  0  0  0  0  0  0  0  0  0  0  0
   37.8040   21.5630   36.8560 H   0  0  0  0  0  0  0  0  0  0  0  0
   37.8820   22.9840   38.7830 H   0  0  0  0  0  0  0  0  0  0  0  0
   38.1370   25.4250   38.5630 H   0  0  0  0  0  0  0  0  0  0  0  0
   38.3040   26.3690   36.3780 H   0  0  0  0  0  0  0  0  0  0  0  0
   39.2020   21.0250   32.6750 C   0  0  0  0  0  0  0  0  0  0  0  0
   39.1730   21.9100   33.7420 C   0  0  0  0  0  0  0  0  0  0  0  0
   37.9940   22.2250   34.3440 C   0  0  0  0  0  0  0  0  0  0  0  0
   36.8700   21.6330   33.8540 N   0  0  0  0  0  0  0  0  0  0  0  0
   36.8920   20.7750   32.8280 C   0  0  0  0  0  0  0  0  0  0  0  0
   38.0560   20.4800   32.2450 N   0  0  0  0  0  0  0  0  0  0  0  0
   40.0290   20.6720   32.0910 H   0  0  0  0  0  0  0  0  0  0  0  0
   40.1960   22.1580   33.8990 H   0  0  0  0  0  0  0  0  0  0  0  0
   35.5970   20.1540   32.4440 C   0  0  0  0  0  0  0  0  0  0  0  0
   34.5750   21.0810   32.3840 F   0  0  0  0  0  0  0  0  0  0  0  0
   35.6930   19.7060   31.0710 F   0  0  0  0  0  0  0  0  0  0  0  0
   35.2300   19.0710   33.0920 F   0  0  0  0  0  0  0  0  0  0  0  0
   38.2300   25.2180   33.6820 S   0  0  0  0  0  0  0  0  0  0  0  0
   39.6210   25.2360   33.1620 O   0  0  0  0  0  0  0  0  0  0  0  0
   38.1940   26.6680   34.1180 O   0  0  0  0  0  0  0  0  0  0  0  0
   36.9670   25.6100   32.6210 C   0  0  0  0  0  0  0  0  0  0  0  0
   37.1270   26.5600   32.0790 H   0  0  0  0  0  0  0  0  0  0  0  0
   36.1100   25.9560   33.3270 H   0  0  0  0  0  0  0  0  0  0  0  0
   36.3150   24.5320   31.8960 C   0  0  0  0  0  3  0  0  0  0  0  0
   36.6340   23.7080   30.9040 C   0  0  0  0  0  3  0  0  0  0  0  0
   37.9990   23.8710   30.3350 C   0  0  0  0  0  2  0  0  0  0  0  0
   37.9740   24.7740   29.6620 H   0  0  0  0  0  0  0  0  0  0  0  0
  1  2  2  0  0  0  0
  1  6  1  0  0  0  0
  2  3  1  0  0  0  0
  3  7  1  0  0  0  0
  3  4  2  0  0  0  0
  4  8  1  0  0  0  0
  5  4  1  0  0  0  0
  5  9  1  0  0  0  0
  6  5  2  0  0  0  0
 10  6  1  0  0  0  0
 11 12  1  0  0  0  0
 12 18  1  0  0  0  0
 12 13  2  0  0  0  0
 13  2  1  0  0  0  0
 14 13  1  0  0  0  0
 15 14  2  0  0  0  0
 16 11  2  0  0  0  0
 16 15  1  0  0  0  0
 17 11  1  0  0  0  0
 19 15  1  0  0  0  0
 19 22  1  0  0  0  0
 20 19  1  0  0  0  0
 21 19  1  0  0  0  0
 23 25  2  0  0  0  0
 23  1  1  0  0  0  0
 24 23  2  0  0  0  0
 26 28  1  0  0  0  0
 26 23  1  0  0  0  0
 27 26  1  0  0  0  0
 29 26  1  0  0  0  0
 30 29  2  0  0  0  0
 31 30  1  0  0  0  0
 32 31  1  0  0  0  0
M  END
>  <minimizedAffinity>
-5.07802773

$$$$
