
     RDKit          3D

 28 29  0  0  0  0  0  0  0  0999 V2000
   38.4133   30.6079   46.7896 Cl  0  0  0  0  0  0  0  0  0  0  0  0
   38.8372   32.0563   47.6965 C   0  0  0  0  0  0  0  0  0  0  0  0
   38.3411   32.1960   48.9562 C   0  0  0  0  0  0  0  0  0  0  0  0
   38.7186   33.3586   49.6027 C   0  0  0  0  0  0  0  0  0  0  0  0
   39.5425   34.2859   48.9772 C   0  0  0  0  0  0  0  0  0  0  0  0
   40.0062   34.0923   47.7201 C   0  0  0  0  0  0  0  0  0  0  0  0
   39.6426   32.9351   47.0498 C   0  0  0  0  0  0  0  0  0  0  0  0
   37.9427   30.4259   50.6593 C   0  0  0  0  0  0  0  0  0  0  0  0
   37.4695   31.2238   49.6293 C   0  0  0  0  0  0  0  0  0  0  0  0
   36.1330   31.0917   49.2314 C   0  0  0  0  0  0  0  0  0  0  0  0
   35.3790   30.1766   49.8918 N   0  0  0  0  0  0  0  0  0  0  0  0
   35.8451   29.4183   50.8772 C   0  0  0  0  0  0  0  0  0  0  0  0
   37.1252   29.5374   51.2661 N   0  0  0  0  0  0  0  0  0  0  0  0
   40.1251   32.7442   45.7549 O   0  0  0  0  0  0  0  0  0  0  0  0
   38.3615   33.5424   50.6148 H   0  0  0  0  0  0  0  0  0  0  0  0
   39.8089   35.1879   49.5365 H   0  0  0  0  0  0  0  0  0  0  0  0
   40.6430   34.8581   47.2986 H   0  0  0  0  0  0  0  0  0  0  0  0
   38.9822   30.5658   50.9296 H   0  0  0  0  0  0  0  0  0  0  0  0
   35.7721   31.7208   48.4242 H   0  0  0  0  0  0  0  0  0  0  0  0
   35.2354   28.6915   51.3973 H   0  0  0  0  0  0  0  0  0  0  0  0
   40.9368   33.7025   45.1951 C   0  0  0  0  0  0  0  0  0  0  0  0
   40.9243   33.8832   43.8887 C   0  0  0  0  0  0  0  0  0  0  0  0
   40.0662   33.0945   42.9715 C   0  0  0  0  0  0  0  0  0  0  0  0
   40.5612   32.9400   41.9779 H   0  0  0  0  0  0  0  0  0  0  0  0
   41.5912   34.3204   45.7842 H   0  0  0  0  0  0  0  0  0  0  0  0
   41.5381   34.6178   43.3986 H   0  0  0  0  0  0  0  0  0  0  0  0
   39.1215   33.6274   42.7266 H   0  0  0  0  0  0  0  0  0  0  0  0
   39.8709   32.1140   43.4515 H   0  0  0  0  0  0  0  0  0  0  0  0
  1  2  1  0
  2  3  2  0
  3  4  1  0
  3  9  1  0
  5  4  2  0
  6  5  1  0
  7  2  1  0
  7  6  2  0
  8 13  2  0
  9  8  1  0
 10  9  2  0
 10 11  1  0
 11 12  2  0
 12 13  1  0
 14  7  1  0
  4 15  1  0
  5 16  1  0
  6 17  1  0
  8 18  1  0
 10 19  1  0
 12 20  1  0
 21 22  2  3
 22 23  1  0
 23 24  1  0
 21 25  1  0
 22 26  1  0
 23 27  1  0
 23 28  1  0
 14 21  1  0
M  ISO  7  15  14  16  14  17  14  18  14  19  14  20  14  24   8
M  END
>  <DihAtoms>  (1) 
6,13,20,21

>  <DihDeg>  (1) 
135.1132215052566

$$$$
