
 OpenBabel03272502243D

 25 26  0  0  0  0  0  0  0  0999 V2000
   37.5690   30.3450   51.0380 C   0  0  0  0  0  0  0  0  0  0  0  0
   38.0250   30.9150   49.8350 C   0  0  0  0  0  0  0  0  0  0  0  0
   37.3550   30.5850   48.6700 C   0  0  0  0  0  0  0  0  0  0  0  0
   36.3060   29.7410   48.7490 N   0  0  0  0  0  0  0  0  0  0  0  0
   35.8850   29.2050   49.9170 C   0  0  0  0  0  0  0  0  0  0  0  0
   36.5250   29.5140   51.0530 N   0  0  0  0  0  0  0  0  0  0  0  0
   38.1190   30.6280   51.9250 H   0  0  0  0  0  0  0  0  0  0  0  0
   38.8680   31.5970   49.7620 H   0  0  0  0  0  0  0  0  0  0  0  0
   37.7100   31.0910   47.3470 C   0  0  0  0  0  0  0  0  0  0  0  0
   36.9930   30.7550   46.2160 C   0  0  0  0  0  0  0  0  0  0  0  0
   37.3220   31.2230   44.9590 C   0  0  0  0  0  0  0  0  0  0  0  0
   38.3970   32.0470   44.8190 N   0  0  0  0  0  0  0  0  0  0  0  0
   39.0740   32.3570   45.9220 C   0  0  0  0  0  0  0  0  0  0  0  0
   38.7690   31.9130   47.1560 N   0  0  0  0  0  0  0  0  0  0  0  0
   36.1380   30.0970   46.3400 H   0  0  0  0  0  0  0  0  0  0  0  0
   36.7110   30.9160   44.1190 H   0  0  0  0  0  0  0  0  0  0  0  0
   40.2490   33.2530   45.8010 C   0  0  0  0  0  0  0  0  0  0  0  0
   40.3740   33.9680   46.9870 F   0  0  0  0  0  0  0  0  0  0  0  0
   41.4140   32.5400   45.5600 F   0  0  0  0  0  0  0  0  0  0  0  0
   40.0890   34.1830   44.8060 F   0  0  0  0  0  0  0  0  0  0  0  0
   34.7980   28.3530   49.8560 O   0  0  0  0  0  0  0  0  0  0  0  0
   34.3860   27.7030   48.7230 C   0  0  0  0  0  2  0  0  0  0  0  0
   33.2660   27.3700   48.1000 C   0  0  0  0  0  2  0  0  0  0  0  0
   32.0220   27.8060   48.7910 C   0  0  0  0  0  2  0  0  0  0  0  0
   31.1330   27.2480   48.4350 H   0  0  0  0  0  0  0  0  0  0  0  0
  1  6  1  0  0  0  0
  1  7  1  0  0  0  0
  2  1  2  0  0  0  0
  3  4  2  0  0  0  0
  3  2  1  0  0  0  0
  4  5  1  0  0  0  0
  5  6  2  0  0  0  0
  8  2  1  0  0  0  0
  9  3  1  0  0  0  0
 10 15  1  0  0  0  0
 10  9  2  0  0  0  0
 11 10  1  0  0  0  0
 12 11  2  0  0  0  0
 12 13  1  0  0  0  0
 13 14  2  0  0  0  0
 14  9  1  0  0  0  0
 16 11  1  0  0  0  0
 17 13  1  0  0  0  0
 17 18  1  0  0  0  0
 19 17  1  0  0  0  0
 20 17  1  0  0  0  0
 21  5  1  0  0  0  0
 22 21  1  0  0  0  0
 23 22  1  0  0  0  0
 23 24  1  0  0  0  0
 25 24  1  0  0  0  0
M  END
>  <minimizedAffinity>
-6.26086235

>  <minimizedRMSD>
0.235692486

$$$$
