
     RDKit          3D

 29 30  0  0  0  0  0  0  0  0999 V2000
   37.7272   31.0720   47.3800 C   0  0  0  0  0  0  0  0  0  0  0  0
   36.9938   30.7422   46.2579 C   0  0  0  0  0  0  0  0  0  0  0  0
   37.3070   31.2126   44.9975 C   0  0  0  0  0  0  0  0  0  0  0  0
   38.3812   32.0356   44.8461 N   0  0  0  0  0  0  0  0  0  0  0  0
   39.0738   32.3406   45.9409 C   0  0  0  0  0  0  0  0  0  0  0  0
   38.7847   31.8928   47.1768 N   0  0  0  0  0  0  0  0  0  0  0  0
   37.6238   30.3273   51.0718 C   0  0  0  0  0  0  0  0  0  0  0  0
   38.0630   30.9032   49.8653 C   0  0  0  0  0  0  0  0  0  0  0  0
   37.3886   30.5633   48.7059 C   0  0  0  0  0  0  0  0  0  0  0  0
   36.3524   29.7038   48.7930 N   0  0  0  0  0  0  0  0  0  0  0  0
   35.9482   29.1631   49.9645 C   0  0  0  0  0  0  0  0  0  0  0  0
   36.5917   29.4824   51.0960 N   0  0  0  0  0  0  0  0  0  0  0  0
   34.8717   28.2969   49.9127 O   0  0  0  0  0  0  0  0  0  0  0  0
   40.2484   33.2348   45.8075 C   0  0  0  0  0  0  0  0  0  0  0  0
   40.3722   33.9686   46.9806 F   0  0  0  0  0  0  0  0  0  0  0  0
   41.4137   32.5189   45.5794 F   0  0  0  0  0  0  0  0  0  0  0  0
   40.0885   34.1488   44.7970 F   0  0  0  0  0  0  0  0  0  0  0  0
   36.1391   30.0849   46.3913 H   0  0  0  0  0  0  0  0  0  0  0  0
   36.6839   30.9095   44.1649 H   0  0  0  0  0  0  0  0  0  0  0  0
   38.1766   30.6178   51.9551 H   0  0  0  0  0  0  0  0  0  0  0  0
   38.8958   31.5960   49.7857 H   0  0  0  0  0  0  0  0  0  0  0  0
   34.2032   27.9607   48.7658 C   0  0  0  0  0  0  0  0  0  0  0  0
   33.4244   26.9978   48.2949 C   0  0  0  0  0  0  0  0  0  0  0  0
   33.1449   25.9021   49.2620 C   0  0  0  0  0  0  0  0  0  0  0  0
   32.7821   24.9857   48.7557 H   0  0  0  0  0  0  0  0  0  0  0  0
   34.5675   28.8658   48.2976 H   0  0  0  0  0  0  0  0  0  0  0  0
   33.1462   27.2178   47.2727 H   0  0  0  0  0  0  0  0  0  0  0  0
   32.4057   26.3214   49.9946 H   0  0  0  0  0  0  0  0  0  0  0  0
   34.0800   25.6662   49.8011 H   0  0  0  0  0  0  0  0  0  0  0  0
  1  9  1  0
  2  1  2  0
  3  2  1  0
  4  3  2  0
  4  5  1  0
  5  6  2  0
  6  1  1  0
  7 12  2  0
  8  7  1  0
  9 10  1  0
  9  8  2  0
 10 11  2  0
 11 12  1  0
 13 11  1  0
 14  5  1  0
 14 15  1  0
 16 14  1  0
 17 14  1  0
  2 18  1  0
  3 19  1  0
  7 20  1  0
  8 21  1  0
 22 23  2  3
 23 24  1  0
 24 25  1  0
 22 26  1  0
 23 27  1  0
 24 28  1  0
 24 29  1  0
 13 22  1  0
M  ISO  5  18  14  19  14  20  14  21  14  25   8
M  END
>  <DihAtoms>  (1) 
10,12,21,22

>  <DihDeg>  (1) 
-81.83732830824837

$$$$
