
 OpenBabel03272502253D

 25 26  0  0  0  0  0  0  0  0999 V2000
   37.5700   30.3440   51.0380 C   0  0  0  0  0  0  0  0  0  0  0  0
   38.0260   30.9150   49.8340 C   0  0  0  0  0  0  0  0  0  0  0  0
   37.3560   30.5850   48.6700 C   0  0  0  0  0  0  0  0  0  0  0  0
   36.3070   29.7400   48.7490 N   0  0  0  0  0  0  0  0  0  0  0  0
   35.8870   29.2040   49.9170 C   0  0  0  0  0  0  0  0  0  0  0  0
   36.5270   29.5130   51.0530 N   0  0  0  0  0  0  0  0  0  0  0  0
   38.1210   30.6270   51.9250 H   0  0  0  0  0  0  0  0  0  0  0  0
   38.8690   31.5970   49.7620 H   0  0  0  0  0  0  0  0  0  0  0  0
   37.7110   31.0910   47.3470 C   0  0  0  0  0  0  0  0  0  0  0  0
   36.9940   30.7560   46.2170 C   0  0  0  0  0  0  0  0  0  0  0  0
   37.3220   31.2230   44.9590 C   0  0  0  0  0  0  0  0  0  0  0  0
   38.3970   32.0480   44.8190 N   0  0  0  0  0  0  0  0  0  0  0  0
   39.0750   32.3570   45.9220 C   0  0  0  0  0  0  0  0  0  0  0  0
   38.7700   31.9130   47.1560 N   0  0  0  0  0  0  0  0  0  0  0  0
   36.1380   30.0980   46.3400 H   0  0  0  0  0  0  0  0  0  0  0  0
   36.7110   30.9170   44.1190 H   0  0  0  0  0  0  0  0  0  0  0  0
   40.2490   33.2530   45.8010 C   0  0  0  0  0  0  0  0  0  0  0  0
   40.3750   33.9680   46.9860 F   0  0  0  0  0  0  0  0  0  0  0  0
   41.4140   32.5400   45.5600 F   0  0  0  0  0  0  0  0  0  0  0  0
   40.0890   34.1830   44.8060 F   0  0  0  0  0  0  0  0  0  0  0  0
   34.8000   28.3530   49.8560 O   0  0  0  0  0  0  0  0  0  0  0  0
   34.3870   27.7030   48.7230 C   0  0  0  0  0  2  0  0  0  0  0  0
   33.2660   27.3700   48.1000 C   0  0  0  0  0  2  0  0  0  0  0  0
   32.0230   27.8070   48.7910 C   0  0  0  0  0  2  0  0  0  0  0  0
   31.1340   27.2490   48.4350 H   0  0  0  0  0  0  0  0  0  0  0  0
  1  6  1  0  0  0  0
  1  7  1  0  0  0  0
  2  1  2  0  0  0  0
  3  4  2  0  0  0  0
  3  2  1  0  0  0  0
  4  5  1  0  0  0  0
  5  6  2  0  0  0  0
  8  2  1  0  0  0  0
  9  3  1  0  0  0  0
 10 15  1  0  0  0  0
 10  9  2  0  0  0  0
 11 10  1  0  0  0  0
 12 11  2  0  0  0  0
 12 13  1  0  0  0  0
 13 14  2  0  0  0  0
 14  9  1  0  0  0  0
 16 11  1  0  0  0  0
 17 13  1  0  0  0  0
 17 18  1  0  0  0  0
 19 17  1  0  0  0  0
 20 17  1  0  0  0  0
 21  5  1  0  0  0  0
 22 21  1  0  0  0  0
 23 22  1  0  0  0  0
 23 24  1  0  0  0  0
 25 24  1  0  0  0  0
M  END
>  <minimizedAffinity>
-6.26062155

>  <minimizedRMSD>
0.201819316

$$$$
