REMARK  Name = 
REMARK  4 active torsions:
REMARK  status: ('A' for Active; 'I' for Inactive)
REMARK    1  A    between atoms: C_1  and  O_10
REMARK    2  A    between atoms: C_2  and  N_9
REMARK    3  A    between atoms: O_10  and  C_15
REMARK    4  A    between atoms: C_16  and  C_17
REMARK                            x       y       z     vdW  Elec       q    Type
REMARK                         _______ _______ _______ _____ _____    ______ ____
ROOT
ATOM      1  C   UNL     1      36.785  29.684  51.112  0.00  0.00    +0.000 A 
ATOM      2  C   UNL     1      37.299  30.066  49.889  0.00  0.00    +0.000 A 
ATOM      3  C   UNL     1      36.549  29.857  48.748  0.00  0.00    +0.000 A 
ATOM      4  N   UNL     1      35.319  29.274  48.890  0.00  0.00    +0.000 NA
ATOM      5  C   UNL     1      34.833  28.905  50.104  0.00  0.00    +0.000 A 
ATOM      6  N   UNL     1      35.573  29.115  51.202  0.00  0.00    +0.000 NA
ATOM      7  H   UNL     1      36.893  30.134  47.754  0.00  0.00    +0.000 HD
ATOM      8  H   UNL     1      33.860  28.445  50.209  0.00  0.00    +0.000 HD
ENDROOT
BRANCH   2  11
ATOM      9  C   UNL     1      38.633  32.059  49.491  0.00  0.00    +0.000 C 
ATOM     10  O   UNL     1      37.806  33.038  49.465  0.00  0.00    +0.000 OA
ATOM     11  N   UNL     1      38.546  30.666  49.679  0.00  0.00    +0.000 N 
ATOM     12  H   UNL     1      39.566  32.590  49.312  0.00  0.00    +0.000 HD
ATOM     13  H   UNL     1      39.448  30.180  49.644  0.00  0.00    +0.000 HD
ENDBRANCH   2  11
BRANCH   1  14
ATOM     14  O   UNL     1      37.651  29.956  52.165  0.00  0.00    +0.000 OA
BRANCH  14  15
ATOM     15  C   UNL     1      37.193  29.596  53.424  0.00  0.00    +0.000 C 
ATOM     16  C   UNL     1      35.898  29.567  53.650  0.00  0.00    +0.000 C 
BRANCH  16  17
ATOM     17  C   UNL     1      34.842  29.893  52.660  0.00  0.00    +0.000 C 
ATOM     18  H   UNL     1      35.256  30.106  51.643  0.00  0.00    +0.000 HD
ENDBRANCH  16  17
ENDBRANCH  14  15
ENDBRANCH   1  14
TORSDOF 4
