
 OpenBabel03272507373D

 18 18  0  0  0  0  0  0  0  0999 V2000
   36.4860   30.2960   47.7410 C   0  0  0  0  0  0  0  0  0  0  0  0
   37.1030   30.0220   48.9450 C   0  0  0  0  0  0  0  0  0  0  0  0
   38.2510   30.7110   49.2870 C   0  0  0  0  0  0  0  0  0  0  0  0
   38.7240   31.6420   48.4030 N   0  0  0  0  0  0  0  0  0  0  0  0
   38.1010   31.8950   47.2220 C   0  0  0  0  0  0  0  0  0  0  0  0
   36.9880   31.2190   46.9050 N   0  0  0  0  0  0  0  0  0  0  0  0
   38.7860   30.5440   50.2190 H   0  0  0  0  0  0  0  0  0  0  0  0
   38.4800   32.6330   46.5280 H   0  0  0  0  0  0  0  0  0  0  0  0
   36.8450   29.3380   51.2640 C   0  0  0  0  0  0  0  0  0  0  0  0
   37.3340   30.2910   51.9690 O   0  0  0  0  0  0  0  0  0  0  0  0
   36.6690   29.0850   49.8900 N   0  0  0  0  0  0  0  0  0  0  0  0
   36.5420   28.6510   52.0520 H   0  0  0  0  0  0  0  0  0  0  0  0
   36.2150   28.1890   49.6830 H   0  0  0  0  0  0  0  0  0  0  0  0
   35.3470   29.5270   47.5360 O   0  0  0  0  0  0  0  0  0  0  0  0
   34.1460   30.2220   47.5450 C   0  0  0  0  0  3  0  0  0  0  0  0
   33.4190   30.2550   46.4490 C   0  0  0  0  0  3  0  0  0  0  0  0
   33.7660   29.6030   45.1630 C   0  0  0  0  0  2  0  0  0  0  0  0
   34.7030   28.9950   45.2270 H   0  0  0  0  0  0  0  0  0  0  0  0
  1  2  1  0  0  0  0
  2  3  2  0  0  0  0
  2 11  1  0  0  0  0
  3  7  1  0  0  0  0
  4  3  1  0  0  0  0
  5  4  2  0  0  0  0
  6  5  1  0  0  0  0
  6  1  2  0  0  0  0
  8  5  1  0  0  0  0
  9 10  2  0  0  0  0
  9 12  1  0  0  0  0
 11  9  1  0  0  0  0
 13 11  1  0  0  0  0
 14 15  1  0  0  0  0
 14  1  1  0  0  0  0
 16 15  2  0  0  0  0
 17 18  1  0  0  0  0
 17 16  1  0  0  0  0
M  END
>  <minimizedAffinity>
-3.53982639

>  <minimizedRMSD>
5.45346928

$$$$
