
     RDKit          3D

 25 25  0  0  0  0  0  0  0  0999 V2000
   37.3462   30.2310   51.3971 C   0  0  0  0  0  0  0  0  0  0  0  0
   37.9844   30.6896   50.2442 C   0  0  0  0  0  0  0  0  0  0  0  0
   37.5285   30.3363   48.9933 C   0  0  0  0  0  0  0  0  0  0  0  0
   36.4383   29.5277   48.9139 N   0  0  0  0  0  0  0  0  0  0  0  0
   35.8392   29.0976   50.0282 C   0  0  0  0  0  0  0  0  0  0  0  0
   36.2762   29.4366   51.2666 N   0  0  0  0  0  0  0  0  0  0  0  0
   38.2294   30.8369   47.8445 C   0  0  0  0  0  0  0  0  0  0  0  0
   38.7393   32.0448   47.7863 C   0  0  0  0  0  0  0  0  0  0  0  0
   39.4489   32.4689   46.5351 C   0  0  0  0  0  0  0  0  0  0  0  0
   38.2685   32.3406   45.1629 S   0  0  0  0  0  0  0  0  0  0  0  0
   37.6291   30.4528   52.4200 H   0  0  0  0  0  0  0  0  0  0  0  0
   38.8289   31.3170   50.3973 H   0  0  0  0  0  0  0  0  0  0  0  0
   34.9578   28.4437   49.9320 H   0  0  0  0  0  0  0  0  0  0  0  0
   38.2749   30.0883   47.0681 H   0  0  0  0  0  0  0  0  0  0  0  0
   38.5728   32.6267   48.7067 H   0  0  0  0  0  0  0  0  0  0  0  0
   40.2532   31.7037   46.3343 H   0  0  0  0  0  0  0  0  0  0  0  0
   39.8642   33.4658   46.6442 H   0  0  0  0  0  0  0  0  0  0  0  0
   37.7909   30.6902   44.7808 C   0  0  0  0  0  0  0  0  0  0  0  0
   36.6148   30.1355   44.4622 C   0  0  0  0  0  0  0  0  0  0  0  0
   35.8341   28.9037   44.0972 C   0  0  0  0  0  0  0  0  0  0  0  0
   35.0836   28.7550   44.9084 H   0  0  0  0  0  0  0  0  0  0  0  0
   38.2750   29.7052   44.6959 H   0  0  0  0  0  0  0  0  0  0  0  0
   35.8995   30.9684   44.4755 H   0  0  0  0  0  0  0  0  0  0  0  0
   35.4093   29.0618   43.1071 H   0  0  0  0  0  0  0  0  0  0  0  0
   36.5007   27.9936   44.0509 H   0  0  0  0  0  0  0  0  0  0  0  0
  2  1  2  0
  3  2  1  0
  4  3  2  0
  4  5  1  0
  5  6  2  0
  6  1  1  0
  7  3  1  0
  8  7  2  0
  9  8  1  0
 10  9  1  0
  1 11  1  0
  2 12  1  0
  5 13  1  0
  7 14  1  0
  8 15  1  0
  9 16  1  0
  9 17  1  0
 18 19  2  3
 19 20  1  0
 20 21  1  0
 18 22  1  0
 19 23  1  0
 20 24  1  0
 20 25  1  0
 10 18  1  0
M  ISO  6  11  14  12  14  13  14  16   8  17   8  21   8
M  END
>  <DihAtoms>  (1) 
8,9,17,18

>  <DihDeg>  (1) 
-86.24019952032397

$$$$
