
 OpenBabel03272507163D

 21 22  0  0  1  0  0  0  0  0999 V2000
   36.8710   30.8750   50.6220 C   0  0  1  0  0  0  0  0  0  0  0  0
   36.1220   29.6350   50.6310 C   0  0  2  0  0  0  0  0  0  0  0  0
   37.4840   29.6430   51.2970 C   0  0  0  0  0  0  0  0  0  0  0  0
   36.7860   31.6960   51.3660 H   0  0  0  0  0  0  0  0  0  0  0  0
   35.2130   29.5700   51.2740 H   0  0  0  0  0  0  0  0  0  0  0  0
   37.4550   29.5570   52.3950 H   0  0  0  0  0  0  0  0  0  0  0  0
   38.3150   29.1250   50.8010 H   0  0  0  0  0  0  0  0  0  0  0  0
   37.6520   31.3070   49.4020 C   0  0  0  0  0  0  0  0  0  0  0  0
   38.2070   32.5870   49.4440 C   0  0  0  0  0  0  0  0  0  0  0  0
   38.9040   32.9660   48.2970 C   0  0  0  0  0  0  0  0  0  0  0  0
   39.0130   32.1250   47.2350 N   0  0  0  0  0  0  0  0  0  0  0  0
   38.4550   30.8880   47.2390 C   0  0  0  0  0  0  0  0  0  0  0  0
   37.7630   30.4690   48.3370 N   0  0  0  0  0  0  0  0  0  0  0  0
   38.0860   33.2080   50.3190 H   0  0  0  0  0  0  0  0  0  0  0  0
   39.3470   33.9530   48.2990 H   0  0  0  0  0  0  0  0  0  0  0  0
   38.5270   30.2000   46.4070 H   0  0  0  0  0  0  0  0  0  0  0  0
   36.0350   28.8790   49.4590 O   0  0  0  0  0  0  0  0  0  0  0  0
   34.9250   28.3300   48.8920 C   0  0  0  0  0  0  0  0  0  0  0  0
   33.6950   28.4630   49.2940 C   0  0  0  0  0  0  0  0  0  0  0  0
   32.5820   27.8020   48.5720 C   0  0  0  0  0  0  0  0  0  0  0  0
   32.9360   27.5460   47.5540 H   0  0  0  0  0  0  0  0  0  0  0  0
  1  2  1  0  0  0  0
  1  3  1  0  0  0  0
  1  4  1  1  0  0  0
  2  5  1  1  0  0  0
  2  3  1  0  0  0  0
  3  6  1  0  0  0  0
  7  3  1  0  0  0  0
  8  9  1  0  0  0  0
  8  1  1  0  0  0  0
  9 14  1  0  0  0  0
 10 15  1  0  0  0  0
 10  9  2  0  0  0  0
 11 12  2  0  0  0  0
 11 10  1  0  0  0  0
 12 13  1  0  0  0  0
 13  8  2  0  0  0  0
 16 12  1  0  0  0  0
 17  2  1  0  0  0  0
 18 19  2  0  0  0  0
 18 17  1  0  0  0  0
 20 19  1  0  0  0  0
 21 20  1  0  0  0  0
M  END
>  <minimizedAffinity>
-4.81526327

>  <minimizedRMSD>
1.13160443

$$$$
