
     RDKit          3D

 25 26  0  0  0  0  0  0  0  0999 V2000
   37.5225   31.4080   49.3292 C   0  0  0  0  0  0  0  0  0  0  0  0
   38.1506   32.6519   49.3985 C   0  0  0  0  0  0  0  0  0  0  0  0
   38.9395   32.9770   48.2963 C   0  0  0  0  0  0  0  0  0  0  0  0
   39.0646   32.1205   47.2482 N   0  0  0  0  0  0  0  0  0  0  0  0
   38.4340   30.9188   47.2237 C   0  0  0  0  0  0  0  0  0  0  0  0
   37.6504   30.5544   48.2794 N   0  0  0  0  0  0  0  0  0  0  0  0
   36.6409   31.0359   50.5000 C   0  0  1  0  0  0  0  0  0  0  0  0
   36.1392   29.6874   50.6604 C   0  0  2  0  0  0  0  0  0  0  0  0
   37.3469   30.0931   51.4815 C   0  0  0  0  0  0  0  0  0  0  0  0
   36.3873   28.7410   49.6617 O   0  0  0  0  0  0  0  0  0  0  0  0
   38.0119   33.2894   50.2602 H   0  0  0  0  0  0  0  0  0  0  0  0
   39.4414   33.9364   48.3190 H   0  0  0  0  0  0  0  0  0  0  0  0
   38.5162   30.2195   46.4034 H   0  0  0  0  0  0  0  0  0  0  0  0
   36.2861   31.9362   51.0470 H   0  0  0  0  0  0  0  0  0  0  0  0
   35.1631   29.5426   51.1803 H   0  0  0  0  0  0  0  0  0  0  0  0
   37.1519   30.1918   52.5608 H   0  0  0  0  0  0  0  0  0  0  0  0
   38.3288   29.6836   51.2099 H   0  0  0  0  0  0  0  0  0  0  0  0
   36.0041   27.4342   49.6274 C   0  0  0  0  0  0  0  0  0  0  0  0
   36.6687   26.4117   50.0812 C   0  0  0  0  0  0  0  0  0  0  0  0
   36.1231   25.0386   49.9740 C   0  0  0  0  0  0  0  0  0  0  0  0
   35.0292   25.1148   49.8109 H   0  0  0  0  0  0  0  0  0  0  0  0
   35.3404   28.1876   49.2064 H   0  0  0  0  0  0  0  0  0  0  0  0
   37.6227   26.6581   50.5270 H   0  0  0  0  0  0  0  0  0  0  0  0
   36.6163   24.4497   49.1608 H   0  0  0  0  0  0  0  0  0  0  0  0
   36.2539   24.4423   50.9157 H   0  0  0  0  0  0  0  0  0  0  0  0
  1  2  2  0
  1  7  1  0
  3  2  1  0
  4  3  2  0
  5  4  1  0
  5  6  2  0
  6  1  1  0
  7  8  1  0
  7  9  1  0
  8  9  1  0
 10  8  1  0
  2 11  1  0
  3 12  1  0
  5 13  1  0
  7 14  1  1
  8 15  1  1
  9 16  1  0
  9 17  1  0
 18 19  2  3
 19 20  1  0
 20 21  1  0
 18 22  1  0
 19 23  1  0
 20 24  1  0
 20 25  1  0
 10 18  1  0
M  ISO  8  11  14  12  14  13  14  14  13  15  13  16  13  17  13  21   8
M  END
>  <DihAtoms>  (1) 
7,9,17,18

>  <DihDeg>  (1) 
-15.195216935292052

$$$$
