REMARK  Name = 
REMARK  5 active torsions:
REMARK  status: ('A' for Active; 'I' for Inactive)
REMARK    1  A    between atoms: C_3  and  C_7
REMARK    2  A    between atoms: C_8  and  C_9
REMARK    3  A    between atoms: C_9  and  S_10
REMARK    4  A    between atoms: S_10  and  C_18
REMARK    5  A    between atoms: C_19  and  C_20
REMARK                            x       y       z     vdW  Elec       q    Type
REMARK                         _______ _______ _______ _____ _____    ______ ____
ROOT
ATOM      1  C   UNL     1      38.229  30.837  47.844  0.00  0.00    +0.000 C 
ATOM      2  C   UNL     1      38.739  32.045  47.786  0.00  0.00    +0.000 C 
ENDROOT
BRANCH   1   5
ATOM      3  C   UNL     1      37.346  30.231  51.397  0.00  0.00    +0.000 A 
ATOM      4  C   UNL     1      37.984  30.690  50.244  0.00  0.00    +0.000 A 
ATOM      5  C   UNL     1      37.529  30.336  48.993  0.00  0.00    +0.000 A 
ATOM      6  N   UNL     1      36.438  29.528  48.914  0.00  0.00    +0.000 NA
ATOM      7  C   UNL     1      35.839  29.098  50.028  0.00  0.00    +0.000 A 
ATOM      8  N   UNL     1      36.276  29.437  51.267  0.00  0.00    +0.000 NA
ATOM      9  H   UNL     1      37.629  30.453  52.420  0.00  0.00    +0.000 HD
ATOM     10  H   UNL     1      38.829  31.317  50.397  0.00  0.00    +0.000 HD
ATOM     11  H   UNL     1      34.958  28.444  49.932  0.00  0.00    +0.000 HD
ENDBRANCH   1   5
BRANCH   2  12
ATOM     12  C   UNL     1      39.449  32.469  46.535  0.00  0.00    +0.000 C 
ATOM     13  H   UNL     1      40.253  31.704  46.334  0.00  0.00    +0.000 HD
ATOM     14  H   UNL     1      39.864  33.466  46.644  0.00  0.00    +0.000 HD
BRANCH  12  15
ATOM     15  S   UNL     1      38.269  32.341  45.163  0.00  0.00    +0.000 S 
BRANCH  15  16
ATOM     16  C   UNL     1      37.791  30.690  44.781  0.00  0.00    +0.000 C 
ATOM     17  C   UNL     1      36.650  30.011  44.955  0.00  0.00    +0.000 C 
BRANCH  17  18
ATOM     18  C   UNL     1      35.884  28.728  44.795  0.00  0.00    +0.000 C 
ATOM     19  H   UNL     1      35.624  28.386  45.825  0.00  0.00    +0.000 HD
ENDBRANCH  17  18
ENDBRANCH  15  16
ENDBRANCH  12  15
ENDBRANCH   2  12
TORSDOF 5
