
 OpenBabel03272502303D

 19 19  0  0  0  0  0  0  0  0999 V2000
   38.1990   30.8880   47.8160 C   0  0  0  0  0  3  0  0  0  0  0  0
   38.7960   32.0570   47.8070 C   0  0  0  0  0  3  0  0  0  0  0  0
   37.3770   30.2180   51.3720 C   0  0  0  0  0  0  0  0  0  0  0  0
   37.9930   30.7000   50.2170 C   0  0  0  0  0  0  0  0  0  0  0  0
   37.5200   30.3640   48.9680 C   0  0  0  0  0  0  0  0  0  0  0  0
   36.4330   29.5500   48.8930 N   0  0  0  0  0  0  0  0  0  0  0  0
   35.8550   29.0980   50.0090 C   0  0  0  0  0  0  0  0  0  0  0  0
   36.3100   29.4190   51.2460 N   0  0  0  0  0  0  0  0  0  0  0  0
   37.6750   30.4250   52.3940 H   0  0  0  0  0  0  0  0  0  0  0  0
   38.8370   31.3300   50.3670 H   0  0  0  0  0  0  0  0  0  0  0  0
   34.9770   28.4400   49.9160 H   0  0  0  0  0  0  0  0  0  0  0  0
   39.4730   32.5110   46.5480 C   0  0  0  0  0  0  0  0  0  0  0  0
   40.3190   31.7930   46.3480 H   0  0  0  0  0  0  0  0  0  0  0  0
   39.8300   33.5320   46.6470 H   0  0  0  0  0  0  0  0  0  0  0  0
   38.2950   32.3040   45.1840 S   0  0  0  0  0  0  0  0  0  0  0  0
   38.7500   31.0580   44.0270 C   0  0  0  0  0  3  0  0  0  0  0  0
   38.7750   29.7210   44.0950 C   0  0  0  0  0  3  0  0  0  0  0  0
   39.0620   28.4070   43.4220 C   0  0  0  0  0  2  0  0  0  0  0  0
   39.8770   27.9230   44.0090 H   0  0  0  0  0  0  0  0  0  0  0  0
  1  5  1  0  0  0  0
  2  1  2  0  0  0  0
  3  9  1  0  0  0  0
  4 10  1  0  0  0  0
  4  3  2  0  0  0  0
  5  4  1  0  0  0  0
  6  5  2  0  0  0  0
  6  7  1  0  0  0  0
  7  8  2  0  0  0  0
  8  3  1  0  0  0  0
 11  7  1  0  0  0  0
 12 14  1  0  0  0  0
 12  2  1  0  0  0  0
 13 12  1  0  0  0  0
 15 12  1  0  0  0  0
 16 17  2  0  0  0  0
 16 15  1  0  0  0  0
 18 19  1  0  0  0  0
 18 17  1  0  0  0  0
M  END
>  <minimizedAffinity>
-4.36562872

>  <minimizedRMSD>
1.19893157

$$$$
