
 OpenBabel03272507173D

 21 22  0  0  1  0  0  0  0  0999 V2000
   37.7250   24.0560   37.1050 C   0  0  1  0  0  0  0  0  0  0  0  0
   38.4850   23.1550   37.9460 C   0  0  2  0  0  0  0  0  0  0  0  0
   37.8850   24.3880   38.5930 C   0  0  0  0  0  0  0  0  0  0  0  0
   36.6440   23.9710   36.8620 H   0  0  0  0  0  0  0  0  0  0  0  0
   38.0460   22.1580   38.1870 H   0  0  0  0  0  0  0  0  0  0  0  0
   37.0540   24.1810   39.2860 H   0  0  0  0  0  0  0  0  0  0  0  0
   38.5550   25.2070   38.8850 H   0  0  0  0  0  0  0  0  0  0  0  0
   38.4180   25.0660   36.2160 C   0  0  0  0  0  0  0  0  0  0  0  0
   39.2110   24.5470   35.1930 C   0  0  0  0  0  0  0  0  0  0  0  0
   39.8530   25.5000   34.4030 C   0  0  0  0  0  0  0  0  0  0  0  0
   39.6950   26.8290   34.6430 N   0  0  0  0  0  0  0  0  0  0  0  0
   38.9130   27.2870   35.6520 C   0  0  0  0  0  0  0  0  0  0  0  0
   38.2620   26.3950   36.4540 N   0  0  0  0  0  0  0  0  0  0  0  0
   39.2960   23.4790   35.0530 H   0  0  0  0  0  0  0  0  0  0  0  0
   40.4760   25.1300   33.6000 H   0  0  0  0  0  0  0  0  0  0  0  0
   38.7710   28.3380   35.8650 H   0  0  0  0  0  0  0  0  0  0  0  0
   39.8790   23.1460   37.8580 O   0  0  0  0  0  0  0  0  0  0  0  0
   40.6990   22.0940   37.5780 C   0  0  0  0  0  3  0  0  0  0  0  0
   41.7820   22.1170   36.8580 C   0  0  0  0  0  3  0  0  0  0  0  0
   42.5770   20.8860   36.6380 C   0  0  0  0  0  2  0  0  0  0  0  0
   42.3030   20.1550   37.4240 H   0  0  0  0  0  0  0  0  0  0  0  0
  1  4  1  6  0  0  0
  1  2  1  0  0  0  0
  1  3  1  0  0  0  0
  2  5  1  1  0  0  0
  2  3  1  0  0  0  0
  3  7  1  0  0  0  0
  3  6  1  0  0  0  0
  8 13  1  0  0  0  0
  8  1  1  0  0  0  0
  9  8  2  0  0  0  0
 10 11  2  0  0  0  0
 10  9  1  0  0  0  0
 11 12  1  0  0  0  0
 12 16  1  0  0  0  0
 12 13  2  0  0  0  0
 14  9  1  0  0  0  0
 15 10  1  0  0  0  0
 17  2  1  0  0  0  0
 18 17  1  0  0  0  0
 19 18  2  0  0  0  0
 20 19  1  0  0  0  0
 20 21  1  0  0  0  0
M  END
>  <minimizedAffinity>
-4.02265596

$$$$

 OpenBabel03272507173D

 21 22  0  0  1  0  0  0  0  0999 V2000
   37.8250   27.5030   35.3730 C   0  0  1  0  0  0  0  0  0  0  0  0
   38.2300   26.3610   36.1650 C   0  0  2  0  0  0  0  0  0  0  0  0
   39.2880   27.0460   35.3220 C   0  0  0  0  0  0  0  0  0  0  0  0
   37.7820   28.5580   35.7190 H   0  0  0  0  0  0  0  0  0  0  0  0
   38.2740   26.4740   37.2740 H   0  0  0  0  0  0  0  0  0  0  0  0
   40.0460   27.5970   35.9020 H   0  0  0  0  0  0  0  0  0  0  0  0
   39.6540   26.5370   34.4210 H   0  0  0  0  0  0  0  0  0  0  0  0
   37.1240   27.3240   34.0450 C   0  0  0  0  0  0  0  0  0  0  0  0
   36.3260   28.3860   33.6180 C   0  0  0  0  0  0  0  0  0  0  0  0
   35.6760   28.1850   32.4020 C   0  0  0  0  0  0  0  0  0  0  0  0
   35.8300   27.0250   31.7100 N   0  0  0  0  0  0  0  0  0  0  0  0
   36.6170   26.0170   32.1640 C   0  0  0  0  0  0  0  0  0  0  0  0
   37.2760   26.1660   33.3500 N   0  0  0  0  0  0  0  0  0  0  0  0
   36.2440   29.2840   34.2140 H   0  0  0  0  0  0  0  0  0  0  0  0
   35.0490   28.9910   32.0430 H   0  0  0  0  0  0  0  0  0  0  0  0
   36.7560   25.0850   31.6340 H   0  0  0  0  0  0  0  0  0  0  0  0
   37.8750   25.0760   35.7470 O   0  0  0  0  0  0  0  0  0  0  0  0
   38.6290   23.9420   35.7760 C   0  0  0  0  0  3  0  0  0  0  0  0
   39.2700   23.4560   36.7980 C   0  0  0  0  0  3  0  0  0  0  0  0
   40.0560   22.2050   36.6810 C   0  0  0  0  0  2  0  0  0  0  0  0
   39.7020   21.6600   35.7830 H   0  0  0  0  0  0  0  0  0  0  0  0
  1  4  1  1  0  0  0
  1  2  1  0  0  0  0
  2  5  1  1  0  0  0
  3  1  1  0  0  0  0
  3  6  1  0  0  0  0
  3  2  1  0  0  0  0
  7  3  1  0  0  0  0
  8  1  1  0  0  0  0
  9  8  1  0  0  0  0
  9 14  1  0  0  0  0
 10  9  2  0  0  0  0
 11 12  2  0  0  0  0
 11 10  1  0  0  0  0
 12 13  1  0  0  0  0
 13  8  2  0  0  0  0
 15 10  1  0  0  0  0
 16 12  1  0  0  0  0
 17 18  1  0  0  0  0
 17  2  1  0  0  0  0
 18 19  2  0  0  0  0
 20 19  1  0  0  0  0
 21 20  1  0  0  0  0
M  END
>  <minimizedAffinity>
-3.84949994

$$$$

 OpenBabel03272507173D

 21 22  0  0  1  0  0  0  0  0999 V2000
   39.1300   24.1510   34.4920 C   0  0  1  0  0  0  0  0  0  0  0  0
   38.3960   23.3330   33.5480 C   0  0  2  0  0  0  0  0  0  0  0  0
   37.8130   24.6840   33.9150 C   0  0  0  0  0  0  0  0  0  0  0  0
   39.9510   24.8580   34.2450 H   0  0  0  0  0  0  0  0  0  0  0  0
   38.8190   23.1930   32.5260 H   0  0  0  0  0  0  0  0  0  0  0  0
   37.8410   25.4280   33.1030 H   0  0  0  0  0  0  0  0  0  0  0  0
   36.9260   24.7160   34.5610 H   0  0  0  0  0  0  0  0  0  0  0  0
   39.0410   23.8980   35.9800 C   0  0  0  0  0  0  0  0  0  0  0  0
   39.9980   23.0370   36.5190 C   0  0  0  0  0  0  0  0  0  0  0  0
   39.8790   22.8050   37.8880 C   0  0  0  0  0  0  0  0  0  0  0  0
   38.8900   23.3920   38.6140 N   0  0  0  0  0  0  0  0  0  0  0  0
   37.9800   24.2230   38.0460 C   0  0  0  0  0  0  0  0  0  0  0  0
   38.0530   24.4820   36.7090 N   0  0  0  0  0  0  0  0  0  0  0  0
   40.7600   22.6010   35.8890 H   0  0  0  0  0  0  0  0  0  0  0  0
   40.6060   22.1420   38.3370 H   0  0  0  0  0  0  0  0  0  0  0  0
   37.1840   24.7020   38.6000 H   0  0  0  0  0  0  0  0  0  0  0  0
   37.6780   22.2280   34.0130 O   0  0  0  0  0  0  0  0  0  0  0  0
   36.9780   21.3130   33.2870 C   0  0  0  0  0  3  0  0  0  0  0  0
   35.8520   20.7490   33.6160 C   0  0  0  0  0  3  0  0  0  0  0  0
   35.2020   19.7640   32.7190 C   0  0  0  0  0  2  0  0  0  0  0  0
   35.6190   19.8980   31.7010 H   0  0  0  0  0  0  0  0  0  0  0  0
  1  4  1  6  0  0  0
  1  8  1  0  0  0  0
  2  5  1  6  0  0  0
  2  3  1  0  0  0  0
  2 17  1  0  0  0  0
  2  1  1  0  0  0  0
  3  1  1  0  0  0  0
  3  7  1  0  0  0  0
  6  3  1  0  0  0  0
  8  9  2  0  0  0  0
  8 13  1  0  0  0  0
  9 10  1  0  0  0  0
 10 15  1  0  0  0  0
 10 11  2  0  0  0  0
 12 16  1  0  0  0  0
 12 11  1  0  0  0  0
 13 12  2  0  0  0  0
 14  9  1  0  0  0  0
 18 19  2  0  0  0  0
 18 17  1  0  0  0  0
 20 19  1  0  0  0  0
 21 20  1  0  0  0  0
M  END
>  <minimizedAffinity>
-3.62654138

$$$$

 OpenBabel03272507173D

 21 22  0  0  1  0  0  0  0  0999 V2000
   37.4740   26.7450   35.0160 C   0  0  1  0  0  0  0  0  0  0  0  0
   38.0230   25.7930   35.9610 C   0  0  2  0  0  0  0  0  0  0  0  0
   38.8620   27.0070   35.6130 C   0  0  0  0  0  0  0  0  0  0  0  0
   36.8030   27.5970   35.2600 H   0  0  0  0  0  0  0  0  0  0  0  0
   37.5660   25.7320   36.9770 H   0  0  0  0  0  0  0  0  0  0  0  0
   38.9690   27.7370   36.4310 H   0  0  0  0  0  0  0  0  0  0  0  0
   39.7470   26.8700   34.9780 H   0  0  0  0  0  0  0  0  0  0  0  0
   37.5310   26.4890   33.5270 C   0  0  0  0  0  0  0  0  0  0  0  0
   38.1310   27.4810   32.7510 C   0  0  0  0  0  0  0  0  0  0  0  0
   38.1500   27.2280   31.3800 C   0  0  0  0  0  0  0  0  0  0  0  0
   37.6140   26.0870   30.8720 N   0  0  0  0  0  0  0  0  0  0  0  0
   37.0400   25.1480   31.6660 C   0  0  0  0  0  0  0  0  0  0  0  0
   36.9960   25.3490   33.0150 N   0  0  0  0  0  0  0  0  0  0  0  0
   38.5390   28.3680   33.2150 H   0  0  0  0  0  0  0  0  0  0  0  0
   38.6080   27.9800   30.7500 H   0  0  0  0  0  0  0  0  0  0  0  0
   36.6060   24.2330   31.2880 H   0  0  0  0  0  0  0  0  0  0  0  0
   38.5170   24.5730   35.4940 O   0  0  0  0  0  0  0  0  0  0  0  0
   39.5170   23.8130   36.0220 C   0  0  0  0  0  3  0  0  0  0  0  0
   39.4570   23.0760   37.0930 C   0  0  0  0  0  3  0  0  0  0  0  0
   40.6330   22.2990   37.5500 C   0  0  0  0  0  2  0  0  0  0  0  0
   41.3290   22.1920   36.6950 H   0  0  0  0  0  0  0  0  0  0  0  0
  1  4  1  1  0  0  0
  1  3  1  0  0  0  0
  1  2  1  0  0  0  0
  2  5  1  1  0  0  0
  3  2  1  0  0  0  0
  3  6  1  0  0  0  0
  7  3  1  0  0  0  0
  8  1  1  0  0  0  0
  9 14  1  0  0  0  0
  9  8  2  0  0  0  0
 10  9  1  0  0  0  0
 11 10  2  0  0  0  0
 11 12  1  0  0  0  0
 12 13  2  0  0  0  0
 13  8  1  0  0  0  0
 15 10  1  0  0  0  0
 16 12  1  0  0  0  0
 17  2  1  0  0  0  0
 17 18  1  0  0  0  0
 18 19  2  0  0  0  0
 19 20  1  0  0  0  0
 21 20  1  0  0  0  0
M  END
>  <minimizedAffinity>
-3.62369466

$$$$

 OpenBabel03272507173D

 21 22  0  0  1  0  0  0  0  0999 V2000
   39.3190   26.1700   35.2540 C   0  0  1  0  0  0  0  0  0  0  0  0
   38.6500   27.0470   34.3140 C   0  0  2  0  0  0  0  0  0  0  0  0
   38.5060   27.3530   35.7920 C   0  0  0  0  0  0  0  0  0  0  0  0
   40.3710   26.2610   35.5990 H   0  0  0  0  0  0  0  0  0  0  0  0
   39.2740   27.7260   33.6870 H   0  0  0  0  0  0  0  0  0  0  0  0
   39.0310   28.2640   36.1230 H   0  0  0  0  0  0  0  0  0  0  0  0
   37.5410   27.1560   36.2780 H   0  0  0  0  0  0  0  0  0  0  0  0
   38.7180   24.8380   35.6430 C   0  0  0  0  0  0  0  0  0  0  0  0
   38.8940   23.7920   34.7380 C   0  0  0  0  0  0  0  0  0  0  0  0
   38.3110   22.5820   35.1130 C   0  0  0  0  0  0  0  0  0  0  0  0
   37.6280   22.4680   36.2830 N   0  0  0  0  0  0  0  0  0  0  0  0
   37.4820   23.5150   37.1330 C   0  0  0  0  0  0  0  0  0  0  0  0
   38.0330   24.7200   36.8120 N   0  0  0  0  0  0  0  0  0  0  0  0
   39.4480   23.9460   33.8230 H   0  0  0  0  0  0  0  0  0  0  0  0
   38.4300   21.7500   34.4310 H   0  0  0  0  0  0  0  0  0  0  0  0
   36.9430   23.4510   38.0690 H   0  0  0  0  0  0  0  0  0  0  0  0
   37.4850   26.6100   33.6790 O   0  0  0  0  0  0  0  0  0  0  0  0
   36.7340   27.2680   32.7530 C   0  0  0  0  0  3  0  0  0  0  0  0
   37.0920   28.2990   32.0450 C   0  0  0  0  0  3  0  0  0  0  0  0
   36.1620   28.9140   31.0700 C   0  0  0  0  0  2  0  0  0  0  0  0
   35.3720   28.1740   30.8330 H   0  0  0  0  0  0  0  0  0  0  0  0
  1  4  1  1  0  0  0
  1  8  1  0  0  0  0
  1  3  1  0  0  0  0
  2  5  1  6  0  0  0
  2  1  1  0  0  0  0
  2  3  1  0  0  0  0
  3  6  1  0  0  0  0
  3  7  1  0  0  0  0
  8 13  1  0  0  0  0
  9 10  1  0  0  0  0
  9  8  2  0  0  0  0
 10 11  2  0  0  0  0
 11 12  1  0  0  0  0
 12 16  1  0  0  0  0
 13 12  2  0  0  0  0
 14  9  1  0  0  0  0
 15 10  1  0  0  0  0
 17  2  1  0  0  0  0
 18 17  1  0  0  0  0
 19 18  2  0  0  0  0
 20 19  1  0  0  0  0
 21 20  1  0  0  0  0
M  END
>  <minimizedAffinity>
-3.60615849

$$$$

 OpenBabel03272507173D

 21 22  0  0  1  0  0  0  0  0999 V2000
   36.6900   24.7910   31.2360 C   0  0  1  0  0  0  0  0  0  0  0  0
   35.7660   23.7100   30.9620 C   0  0  2  0  0  0  0  0  0  0  0  0
   35.2000   25.1120   31.0750 C   0  0  0  0  0  0  0  0  0  0  0  0
   37.2720   25.3620   30.4810 H   0  0  0  0  0  0  0  0  0  0  0  0
   35.8000   23.2260   29.9580 H   0  0  0  0  0  0  0  0  0  0  0  0
   34.8380   25.5350   30.1240 H   0  0  0  0  0  0  0  0  0  0  0  0
   34.6140   25.3730   31.9650 H   0  0  0  0  0  0  0  0  0  0  0  0
   37.1840   25.0600   32.6400 C   0  0  0  0  0  0  0  0  0  0  0  0
   37.9290   24.0430   33.2390 C   0  0  0  0  0  0  0  0  0  0  0  0
   38.3530   24.3100   34.5390 C   0  0  0  0  0  0  0  0  0  0  0  0
   38.0440   25.4850   35.1490 N   0  0  0  0  0  0  0  0  0  0  0  0
   37.3150   26.4460   34.5270 C   0  0  0  0  0  0  0  0  0  0  0  0
   36.8770   26.2340   33.2530 N   0  0  0  0  0  0  0  0  0  0  0  0
   38.1430   23.1300   32.7010 H   0  0  0  0  0  0  0  0  0  0  0  0
   38.9340   23.5410   35.0320 H   0  0  0  0  0  0  0  0  0  0  0  0
   37.0550   27.3880   34.9890 H   0  0  0  0  0  0  0  0  0  0  0  0
   35.4080   22.8380   31.9930 O   0  0  0  0  0  0  0  0  0  0  0  0
   35.3780   21.4760   31.9710 C   0  0  0  0  0  3  0  0  0  0  0  0
   35.4650   20.6750   32.9930 C   0  0  0  0  0  3  0  0  0  0  0  0
   35.4190   19.2050   32.8160 C   0  0  0  0  0  2  0  0  0  0  0  0
   34.9670   18.9920   31.8270 H   0  0  0  0  0  0  0  0  0  0  0  0
  1  4  1  6  0  0  0
  1  8  1  0  0  0  0
  2  5  1  6  0  0  0
  2  3  1  0  0  0  0
  2  1  1  0  0  0  0
  2 17  1  0  0  0  0
  3  1  1  0  0  0  0
  3  7  1  0  0  0  0
  6  3  1  0  0  0  0
  8  9  2  0  0  0  0
  8 13  1  0  0  0  0
  9 10  1  0  0  0  0
 10 15  1  0  0  0  0
 10 11  2  0  0  0  0
 12 16  1  0  0  0  0
 12 11  1  0  0  0  0
 13 12  2  0  0  0  0
 14  9  1  0  0  0  0
 18 17  1  0  0  0  0
 18 19  2  0  0  0  0
 20 19  1  0  0  0  0
 21 20  1  0  0  0  0
M  END
>  <minimizedAffinity>
-3.60254264

$$$$

 OpenBabel03272507173D

 21 22  0  0  1  0  0  0  0  0999 V2000
   37.6620   22.2200   32.6850 C   0  0  1  0  0  0  0  0  0  0  0  0
   37.9920   21.9380   34.0670 C   0  0  2  0  0  0  0  0  0  0  0  0
   36.7290   21.3180   33.5010 C   0  0  0  0  0  0  0  0  0  0  0  0
   38.0290   21.6600   31.7970 H   0  0  0  0  0  0  0  0  0  0  0  0
   38.8630   21.2760   34.2790 H   0  0  0  0  0  0  0  0  0  0  0  0
   36.7780   20.2260   33.3660 H   0  0  0  0  0  0  0  0  0  0  0  0
   35.7580   21.7150   33.8250 H   0  0  0  0  0  0  0  0  0  0  0  0
   36.9990   23.5200   32.2880 C   0  0  0  0  0  0  0  0  0  0  0  0
   35.8380   23.4140   31.5220 C   0  0  0  0  0  0  0  0  0  0  0  0
   35.2610   24.6280   31.1530 C   0  0  0  0  0  0  0  0  0  0  0  0
   35.8170   25.8100   31.5310 N   0  0  0  0  0  0  0  0  0  0  0  0
   36.9490   25.8650   32.2770 C   0  0  0  0  0  0  0  0  0  0  0  0
   37.5520   24.7040   32.6640 N   0  0  0  0  0  0  0  0  0  0  0  0
   35.4450   22.4440   31.2530 H   0  0  0  0  0  0  0  0  0  0  0  0
   34.3590   24.5800   30.5580 H   0  0  0  0  0  0  0  0  0  0  0  0
   37.4110   26.7910   32.5900 H   0  0  0  0  0  0  0  0  0  0  0  0
   37.7890   22.9260   35.0340 O   0  0  0  0  0  0  0  0  0  0  0  0
   38.3770   23.0390   36.2580 C   0  0  0  0  0  3  0  0  0  0  0  0
   37.8210   23.4580   37.3570 C   0  0  0  0  0  3  0  0  0  0  0  0
   38.5900   23.5280   38.6210 C   0  0  0  0  0  2  0  0  0  0  0  0
   39.4790   22.8740   38.5200 H   0  0  0  0  0  0  0  0  0  0  0  0
  1  4  1  6  0  0  0
  1  3  1  0  0  0  0
  1  2  1  0  0  0  0
  2  5  1  1  0  0  0
  2 17  1  0  0  0  0
  3  7  1  0  0  0  0
  3  2  1  0  0  0  0
  6  3  1  0  0  0  0
  8 13  1  0  0  0  0
  8  1  1  0  0  0  0
  9  8  2  0  0  0  0
 10  9  1  0  0  0  0
 10 11  2  0  0  0  0
 11 12  1  0  0  0  0
 12 16  1  0  0  0  0
 12 13  2  0  0  0  0
 14  9  1  0  0  0  0
 15 10  1  0  0  0  0
 17 18  1  0  0  0  0
 18 19  2  0  0  0  0
 19 20  1  0  0  0  0
 21 20  1  0  0  0  0
M  END
>  <minimizedAffinity>
-3.58858275

$$$$

 OpenBabel03272507173D

 21 22  0  0  1  0  0  0  0  0999 V2000
   39.0750   26.3790   35.1930 C   0  0  1  0  0  0  0  0  0  0  0  0
   38.2950   27.1250   34.2270 C   0  0  2  0  0  0  0  0  0  0  0  0
   38.1670   27.5110   35.6870 C   0  0  0  0  0  0  0  0  0  0  0  0
   40.1230   26.5930   35.4930 H   0  0  0  0  0  0  0  0  0  0  0  0
   38.8300   27.8170   33.5360 H   0  0  0  0  0  0  0  0  0  0  0  0
   38.6100   28.4880   35.9410 H   0  0  0  0  0  0  0  0  0  0  0  0
   37.2420   27.2550   36.2200 H   0  0  0  0  0  0  0  0  0  0  0  0
   38.6190   25.0240   35.6870 C   0  0  0  0  0  0  0  0  0  0  0  0
   38.0550   24.9870   36.9620 C   0  0  0  0  0  0  0  0  0  0  0  0
   37.6640   23.7230   37.3990 C   0  0  0  0  0  0  0  0  0  0  0  0
   37.8360   22.6270   36.6120 N   0  0  0  0  0  0  0  0  0  0  0  0
   38.3900   22.7110   35.3770 C   0  0  0  0  0  0  0  0  0  0  0  0
   38.7890   23.9260   34.9030 N   0  0  0  0  0  0  0  0  0  0  0  0
   37.9460   25.8950   37.5390 H   0  0  0  0  0  0  0  0  0  0  0  0
   37.2230   23.6610   38.3850 H   0  0  0  0  0  0  0  0  0  0  0  0
   38.5380   21.8550   34.7320 H   0  0  0  0  0  0  0  0  0  0  0  0
   37.1590   26.5380   33.6630 O   0  0  0  0  0  0  0  0  0  0  0  0
   37.0380   25.9390   32.4460 C   0  0  0  0  0  3  0  0  0  0  0  0
   36.6190   24.7300   32.2070 C   0  0  0  0  0  3  0  0  0  0  0  0
   36.5400   24.2110   30.8220 C   0  0  0  0  0  2  0  0  0  0  0  0
   36.5360   25.0760   30.1290 H   0  0  0  0  0  0  0  0  0  0  0  0
  1  4  1  1  0  0  0
  1  8  1  0  0  0  0
  1  3  1  0  0  0  0
  2  5  1  6  0  0  0
  2  1  1  0  0  0  0
  2  3  1  0  0  0  0
  3  6  1  0  0  0  0
  3  7  1  0  0  0  0
  8  9  1  0  0  0  0
  9 10  2  0  0  0  0
  9 14  1  0  0  0  0
 10 15  1  0  0  0  0
 11 10  1  0  0  0  0
 12 11  2  0  0  0  0
 13 12  1  0  0  0  0
 13  8  2  0  0  0  0
 16 12  1  0  0  0  0
 17  2  1  0  0  0  0
 18 17  1  0  0  0  0
 19 18  2  0  0  0  0
 20 19  1  0  0  0  0
 21 20  1  0  0  0  0
M  END
>  <minimizedAffinity>
-3.58838773

$$$$

 OpenBabel03272507173D

 21 22  0  0  1  0  0  0  0  0999 V2000
   39.1180   26.4850   35.1610 C   0  0  1  0  0  0  0  0  0  0  0  0
   38.2080   27.1690   34.2670 C   0  0  2  0  0  0  0  0  0  0  0  0
   38.1500   27.5220   35.7400 C   0  0  0  0  0  0  0  0  0  0  0  0
   40.1620   26.7880   35.3910 H   0  0  0  0  0  0  0  0  0  0  0  0
   38.6270   27.9170   33.5540 H   0  0  0  0  0  0  0  0  0  0  0  0
   38.5200   28.5310   35.9820 H   0  0  0  0  0  0  0  0  0  0  0  0
   37.2920   27.1760   36.3310 H   0  0  0  0  0  0  0  0  0  0  0  0
   38.8220   25.0870   35.6570 C   0  0  0  0  0  0  0  0  0  0  0  0
   39.3850   24.0390   34.9270 C   0  0  0  0  0  0  0  0  0  0  0  0
   39.0790   22.7620   35.3950 C   0  0  0  0  0  0  0  0  0  0  0  0
   38.2850   22.5890   36.4850 N   0  0  0  0  0  0  0  0  0  0  0  0
   37.7590   23.6390   37.1640 C   0  0  0  0  0  0  0  0  0  0  0  0
   38.0290   24.9090   36.7460 N   0  0  0  0  0  0  0  0  0  0  0  0
   40.0090   24.2430   34.0680 H   0  0  0  0  0  0  0  0  0  0  0  0
   39.5000   21.9280   34.8500 H   0  0  0  0  0  0  0  0  0  0  0  0
   37.1240   23.5280   38.0330 H   0  0  0  0  0  0  0  0  0  0  0  0
   37.0920   26.4890   33.7720 O   0  0  0  0  0  0  0  0  0  0  0  0
   36.9270   25.9230   32.5440 C   0  0  0  0  0  3  0  0  0  0  0  0
   36.8490   24.6530   32.2730 C   0  0  0  0  0  3  0  0  0  0  0  0
   36.6690   24.1810   30.8800 C   0  0  0  0  0  2  0  0  0  0  0  0
   36.2790   25.0250   30.2780 H   0  0  0  0  0  0  0  0  0  0  0  0
  1  4  1  6  0  0  0
  1  8  1  0  0  0  0
  1  3  1  0  0  0  0
  2  5  1  6  0  0  0
  2  1  1  0  0  0  0
  2  3  1  0  0  0  0
  3  6  1  0  0  0  0
  3  7  1  0  0  0  0
  8 13  1  0  0  0  0
  9 10  1  0  0  0  0
  9  8  2  0  0  0  0
 10 11  2  0  0  0  0
 11 12  1  0  0  0  0
 12 16  1  0  0  0  0
 13 12  2  0  0  0  0
 14  9  1  0  0  0  0
 15 10  1  0  0  0  0
 17  2  1  0  0  0  0
 18 17  1  0  0  0  0
 19 18  2  0  0  0  0
 20 19  1  0  0  0  0
 21 20  1  0  0  0  0
M  END
>  <minimizedAffinity>
-3.56714964

$$$$
