
 OpenBabel03272503123D

 41 44  0  0  0  0  0  0  0  0999 V2000
   39.3020   31.8930   44.9370 C   0  0  0  0  0  0  0  0  0  0  0  0
   38.2140   32.5450   45.0450 O   0  0  0  0  0  0  0  0  0  0  0  0
   39.9820   31.6360   46.1520 N   0  0  0  0  0  0  0  0  0  0  0  0
   40.8730   31.1060   46.0790 H   0  0  0  0  0  0  0  0  0  0  0  0
   39.2190   32.1980   42.5540 C   0  0  0  0  0  0  0  0  0  0  0  0
   39.7450   31.4780   43.6120 C   0  0  0  0  0  0  0  0  0  0  0  0
   40.6190   30.4480   43.4630 C   0  0  0  0  0  0  0  0  0  0  0  0
   41.0220   30.0770   42.1900 C   0  0  0  0  0  0  0  0  0  0  0  0
   41.8470   29.1280   41.7340 N   0  0  0  0  0  0  0  0  0  0  0  0
   41.8660   29.2170   40.4000 C   0  0  0  0  0  0  0  0  0  0  0  0
   41.0550   30.2210   40.0100 N   0  0  0  0  0  0  0  0  0  0  0  0
   40.5100   30.7810   41.1200 C   0  0  0  0  0  0  0  0  0  0  0  0
   39.6250   31.8250   41.2660 C   0  0  0  0  0  0  0  0  0  0  0  0
   38.5180   33.0290   42.6430 H   0  0  0  0  0  0  0  0  0  0  0  0
   41.0160   29.9000   44.3240 H   0  0  0  0  0  0  0  0  0  0  0  0
   42.4010   28.4180   42.2830 H   0  0  0  0  0  0  0  0  0  0  0  0
   42.4230   28.6110   39.6810 H   0  0  0  0  0  0  0  0  0  0  0  0
   39.1100   32.5340   40.1810 O   0  0  0  0  0  0  0  0  0  0  0  0
   38.2440   33.5750   40.2970 C   0  0  0  0  0  2  0  0  0  0  0  0
   37.3370   34.2050   39.5870 C   0  0  0  0  0  2  0  0  0  0  0  0
   36.3860   34.6970   38.5390 C   0  0  0  0  0  2  0  0  0  0  0  0
   36.6280   35.7460   38.2750 H   0  0  0  0  0  0  0  0  0  0  0  0
   38.1400   30.1510   47.4960 F   0  0  0  0  0  0  0  0  0  0  0  0
   38.3810   31.3900   47.9790 C   0  0  0  0  0  0  0  0  0  0  0  0
   37.7200   31.8420   49.0800 C   0  0  0  0  0  0  0  0  0  0  0  0
   38.0170   33.1110   49.5140 C   0  0  0  0  0  0  0  0  0  0  0  0
   38.9320   33.9100   48.8860 C   0  0  0  0  0  0  0  0  0  0  0  0
   39.5980   33.4360   47.7640 C   0  0  0  0  0  0  0  0  0  0  0  0
   39.3130   32.1590   47.3110 C   0  0  0  0  0  0  0  0  0  0  0  0
   37.4990   33.4820   50.3870 H   0  0  0  0  0  0  0  0  0  0  0  0
   39.1720   34.9120   49.2210 H   0  0  0  0  0  0  0  0  0  0  0  0
   40.3330   33.9840   47.2010 H   0  0  0  0  0  0  0  0  0  0  0  0
   36.0780   29.3680   51.4400 C   0  0  0  0  0  0  0  0  0  0  0  0
   37.0330   30.2250   50.8500 C   0  0  0  0  0  0  0  0  0  0  0  0
   36.7510   30.9460   49.7140 C   0  0  0  0  0  0  0  0  0  0  0  0
   35.4870   30.7870   49.1850 N   0  0  0  0  0  0  0  0  0  0  0  0
   34.5760   29.9740   49.7420 C   0  0  0  0  0  0  0  0  0  0  0  0
   34.8670   29.2830   50.8420 N   0  0  0  0  0  0  0  0  0  0  0  0
   36.3520   28.8240   52.3320 H   0  0  0  0  0  0  0  0  0  0  0  0
   38.0300   30.3370   51.2850 H   0  0  0  0  0  0  0  0  0  0  0  0
   33.6050   29.8850   49.2890 H   0  0  0  0  0  0  0  0  0  0  0  0
  1  2  2  0  0  0  0
  1  3  1  0  0  0  0
  3 29  1  0  0  0  0
  4  3  1  0  0  0  0
  5 14  1  0  0  0  0
  5  6  1  0  0  0  0
  6  1  1  0  0  0  0
  7  6  2  0  0  0  0
  7 15  1  0  0  0  0
  8  7  1  0  0  0  0
  9  8  1  0  0  0  0
  9 16  1  0  0  0  0
 10  9  1  0  0  0  0
 11 10  2  0  0  0  0
 11 12  1  0  0  0  0
 12 13  1  0  0  0  0
 12  8  2  0  0  0  0
 13  5  2  0  0  0  0
 17 10  1  0  0  0  0
 18 19  1  0  0  0  0
 18 13  1  0  0  0  0
 20 19  1  0  0  0  0
 21 20  1  0  0  0  0
 22 21  1  0  0  0  0
 23 24  1  0  0  0  0
 24 25  1  0  0  0  0
 25 26  2  0  0  0  0
 25 35  1  0  0  0  0
 26 30  1  0  0  0  0
 27 31  1  0  0  0  0
 27 26  1  0  0  0  0
 28 27  2  0  0  0  0
 29 28  1  0  0  0  0
 29 24  2  0  0  0  0
 32 28  1  0  0  0  0
 33 39  1  0  0  0  0
 34 40  1  0  0  0  0
 34 33  1  0  0  0  0
 35 34  2  0  0  0  0
 36 35  1  0  0  0  0
 36 37  2  0  0  0  0
 37 38  1  0  0  0  0
 38 33  2  0  0  0  0
 41 37  1  0  0  0  0
M  END
>  <minimizedAffinity>
-7.17381382

>  <minimizedRMSD>
0.0380949415

$$$$
