
     RDKit          3D

 45 48  0  0  0  0  0  0  0  0999 V2000
   38.1324   30.1505   47.4948 F   0  0  0  0  0  0  0  0  0  0  0  0
   38.3761   31.3882   47.9812 C   0  0  0  0  0  0  0  0  0  0  0  0
   37.7195   31.8376   49.0857 C   0  0  0  0  0  0  0  0  0  0  0  0
   38.0184   33.1052   49.5227 C   0  0  0  0  0  0  0  0  0  0  0  0
   38.9324   33.9052   48.8953 C   0  0  0  0  0  0  0  0  0  0  0  0
   39.5946   33.4335   47.7696 C   0  0  0  0  0  0  0  0  0  0  0  0
   39.3075   32.1581   47.3128 C   0  0  0  0  0  0  0  0  0  0  0  0
   36.0778   29.3628   51.4464 C   0  0  0  0  0  0  0  0  0  0  0  0
   37.0320   30.2210   50.8558 C   0  0  0  0  0  0  0  0  0  0  0  0
   36.7499   30.9406   49.7199 C   0  0  0  0  0  0  0  0  0  0  0  0
   35.4874   30.7792   49.1898 N   0  0  0  0  0  0  0  0  0  0  0  0
   34.5767   29.9655   49.7462 C   0  0  0  0  0  0  0  0  0  0  0  0
   34.8680   29.2758   50.8472 N   0  0  0  0  0  0  0  0  0  0  0  0
   39.2891   31.9002   44.9387 C   0  0  0  0  0  0  0  0  0  0  0  0
   38.2016   32.5532   45.0516 O   0  0  0  0  0  0  0  0  0  0  0  0
   39.9722   31.6376   46.1511 N   0  0  0  0  0  0  0  0  0  0  0  0
   39.1893   32.2034   42.5557 C   0  0  0  0  0  0  0  0  0  0  0  0
   39.7284   31.4892   43.6114 C   0  0  0  0  0  0  0  0  0  0  0  0
   40.6105   30.4670   43.4567 C   0  0  0  0  0  0  0  0  0  0  0  0
   41.0093   30.0985   42.1824 C   0  0  0  0  0  0  0  0  0  0  0  0
   41.8395   29.1579   41.7212 N   0  0  0  0  0  0  0  0  0  0  0  0
   41.8513   29.2459   40.3872 C   0  0  0  0  0  0  0  0  0  0  0  0
   41.0282   30.2429   40.0025 N   0  0  0  0  0  0  0  0  0  0  0  0
   40.4838   30.7978   41.1153 C   0  0  0  0  0  0  0  0  0  0  0  0
   39.5902   31.8337   41.2664 C   0  0  0  0  0  0  0  0  0  0  0  0
   39.0617   32.5366   40.1837 O   0  0  0  0  0  0  0  0  0  0  0  0
   37.5033   33.4739   50.3994 H   0  0  0  0  0  0  0  0  0  0  0  0
   39.1736   34.9049   49.2331 H   0  0  0  0  0  0  0  0  0  0  0  0
   40.3291   33.9832   47.2060 H   0  0  0  0  0  0  0  0  0  0  0  0
   36.3519   28.8205   52.3389 H   0  0  0  0  0  0  0  0  0  0  0  0
   38.0295   30.3353   51.2925 H   0  0  0  0  0  0  0  0  0  0  0  0
   33.6064   29.8754   49.2931 H   0  0  0  0  0  0  0  0  0  0  0  0
   40.8621   31.1078   46.0737 H   0  0  0  0  0  0  0  0  0  0  0  0
   38.4798   33.0280   42.6487 H   0  0  0  0  0  0  0  0  0  0  0  0
   41.0176   29.9230   44.3164 H   0  0  0  0  0  0  0  0  0  0  0  0
   42.4038   28.4527   42.2673 H   0  0  0  0  0  0  0  0  0  0  0  0
   42.4092   28.6451   39.6650 H   0  0  0  0  0  0  0  0  0  0  0  0
   38.1713   33.5574   40.3045 C   0  0  0  0  0  0  0  0  0  0  0  0
   36.9322   33.7621   40.6880 C   0  0  0  0  0  0  0  0  0  0  0  0
   35.5226   33.6609   41.1835 C   0  0  0  0  0  0  0  0  0  0  0  0
   34.8207   33.9790   40.3871 H   0  0  0  0  0  0  0  0  0  0  0  0
   37.7885   32.5643   40.6089 H   0  0  0  0  0  0  0  0  0  0  0  0
   37.0605   34.8142   40.4576 H   0  0  0  0  0  0  0  0  0  0  0  0
   35.2969   32.5873   41.4481 H   0  0  0  0  0  0  0  0  0  0  0  0
   35.4312   34.2386   42.1051 H   0  0  0  0  0  0  0  0  0  0  0  0
  1  2  1  0
  2  3  2  0
  3  4  1  0
  3 10  1  0
  5  4  2  0
  6  5  1  0
  7  6  2  0
  7  2  1  0
  9  8  2  0
 10  9  1  0
 11 10  2  0
 11 12  1  0
 12 13  2  0
 13  8  1  0
 14 15  2  0
 14 16  1  0
 16  7  1  0
 17 18  2  0
 18 14  1  0
 19 18  1  0
 20 19  2  0
 21 20  1  0
 22 21  1  0
 23 22  2  0
 23 24  1  0
 24 25  2  0
 24 20  1  0
 25 17  1  0
 26 25  1  0
  4 27  1  0
  5 28  1  0
  6 29  1  0
  8 30  1  0
  9 31  1  0
 12 32  1  0
 16 33  1  0
 17 34  1  0
 19 35  1  0
 21 36  1  0
 22 37  1  0
 38 39  2  3
 39 40  1  0
 40 41  1  0
 38 42  1  0
 39 43  1  0
 40 44  1  0
 40 45  1  0
 26 38  1  0
M  ISO  8  27  14  28  14  29  14  30  14  31  14  32  14  34  14  35  14
M  ISO  3  36   9  37  14  41   8
M  END
>  <DihAtoms>  (1) 
24,25,37,38

>  <DihDeg>  (1) 
-126.524288376035

$$$$
