
 OpenBabel03272503143D

 41 44  0  0  0  0  0  0  0  0999 V2000
   37.9600   26.3340   35.0510 C   0  0  0  0  0  0  0  0  0  0  0  0
   38.6850   26.7980   35.9880 O   0  0  0  0  0  0  0  0  0  0  0  0
   37.7560   24.9330   35.0730 N   0  0  0  0  0  0  0  0  0  0  0  0
   37.1680   24.5400   34.3120 H   0  0  0  0  0  0  0  0  0  0  0  0
   36.4930   28.1680   34.5380 C   0  0  0  0  0  0  0  0  0  0  0  0
   37.4160   27.2550   34.0610 C   0  0  0  0  0  0  0  0  0  0  0  0
   37.8120   27.1930   32.7620 C   0  0  0  0  0  0  0  0  0  0  0  0
   37.2770   28.0820   31.8440 C   0  0  0  0  0  0  0  0  0  0  0  0
   37.4620   28.2620   30.5320 N   0  0  0  0  0  0  0  0  0  0  0  0
   36.6780   29.2730   30.1470 C   0  0  0  0  0  0  0  0  0  0  0  0
   35.9950   29.7350   31.2150 N   0  0  0  0  0  0  0  0  0  0  0  0
   36.3550   29.0010   32.2990 C   0  0  0  0  0  0  0  0  0  0  0  0
   35.9500   29.0690   33.6130 C   0  0  0  0  0  0  0  0  0  0  0  0
   36.1560   28.2430   35.5740 H   0  0  0  0  0  0  0  0  0  0  0  0
   38.5460   26.4560   32.4190 H   0  0  0  0  0  0  0  0  0  0  0  0
   38.0970   27.7300   29.8780 H   0  0  0  0  0  0  0  0  0  0  0  0
   36.5580   29.7070   29.1520 H   0  0  0  0  0  0  0  0  0  0  0  0
   35.0170   30.0000   34.0670 O   0  0  0  0  0  0  0  0  0  0  0  0
   35.2260   30.8290   35.1240 C   0  0  0  0  0  2  0  0  0  0  0  0
   35.8780   31.9310   35.4170 C   0  0  0  0  0  2  0  0  0  0  0  0
   36.7200   33.1690   35.4260 C   0  0  0  0  0  2  0  0  0  0  0  0
   37.5440   33.0570   36.1590 H   0  0  0  0  0  0  0  0  0  0  0  0
   40.2150   23.8100   34.7660 F   0  0  0  0  0  0  0  0  0  0  0  0
   39.6570   23.7080   35.9920 C   0  0  0  0  0  0  0  0  0  0  0  0
   40.3140   23.0690   37.0000 C   0  0  0  0  0  0  0  0  0  0  0  0
   39.6860   23.0040   38.2190 C   0  0  0  0  0  0  0  0  0  0  0  0
   38.4510   23.5480   38.4420 C   0  0  0  0  0  0  0  0  0  0  0  0
   37.7920   24.1960   37.4060 C   0  0  0  0  0  0  0  0  0  0  0  0
   38.4090   24.2720   36.1680 C   0  0  0  0  0  0  0  0  0  0  0  0
   40.1970   22.5000   39.0270 H   0  0  0  0  0  0  0  0  0  0  0  0
   37.9480   23.5010   39.4000 H   0  0  0  0  0  0  0  0  0  0  0  0
   36.8210   24.6550   37.4790 H   0  0  0  0  0  0  0  0  0  0  0  0
   43.1600   20.6370   36.3910 C   0  0  0  0  0  0  0  0  0  0  0  0
   41.8770   21.1530   36.6760 C   0  0  0  0  0  0  0  0  0  0  0  0
   41.6340   22.5050   36.7070 C   0  0  0  0  0  0  0  0  0  0  0  0
   42.7110   23.3270   36.4470 N   0  0  0  0  0  0  0  0  0  0  0  0
   43.9320   22.8420   36.1770 C   0  0  0  0  0  0  0  0  0  0  0  0
   44.1480   21.5290   36.1490 N   0  0  0  0  0  0  0  0  0  0  0  0
   43.2960   19.5650   36.3790 H   0  0  0  0  0  0  0  0  0  0  0  0
   41.0360   20.4840   36.8800 H   0  0  0  0  0  0  0  0  0  0  0  0
   44.7380   23.5270   35.9800 H   0  0  0  0  0  0  0  0  0  0  0  0
  1  3  1  0  0  0  0
  1  2  2  0  0  0  0
  3 29  1  0  0  0  0
  4  3  1  0  0  0  0
  5 14  1  0  0  0  0
  6  5  1  0  0  0  0
  6  1  1  0  0  0  0
  7  6  2  0  0  0  0
  8 12  2  0  0  0  0
  8  7  1  0  0  0  0
  9  8  1  0  0  0  0
 10  9  1  0  0  0  0
 10 11  2  0  0  0  0
 11 12  1  0  0  0  0
 12 13  1  0  0  0  0
 13 18  1  0  0  0  0
 13  5  2  0  0  0  0
 15  7  1  0  0  0  0
 16  9  1  0  0  0  0
 17 10  1  0  0  0  0
 18 19  1  0  0  0  0
 19 20  1  0  0  0  0
 20 21  1  0  0  0  0
 21 22  1  0  0  0  0
 23 24  1  0  0  0  0
 24 29  2  0  0  0  0
 24 25  1  0  0  0  0
 25 26  2  0  0  0  0
 26 27  1  0  0  0  0
 26 30  1  0  0  0  0
 27 31  1  0  0  0  0
 28 32  1  0  0  0  0
 28 27  2  0  0  0  0
 29 28  1  0  0  0  0
 33 34  1  0  0  0  0
 34 35  2  0  0  0  0
 34 40  1  0  0  0  0
 35 25  1  0  0  0  0
 36 35  1  0  0  0  0
 37 36  2  0  0  0  0
 38 37  1  0  0  0  0
 38 33  2  0  0  0  0
 39 33  1  0  0  0  0
 41 37  1  0  0  0  0
M  END
>  <minimizedAffinity>
-6.68918085

$$$$

 OpenBabel03272503143D

 41 44  0  0  0  0  0  0  0  0999 V2000
   36.5210   25.5660   32.1410 C   0  0  0  0  0  0  0  0  0  0  0  0
   35.4660   25.9930   31.5700 O   0  0  0  0  0  0  0  0  0  0  0  0
   37.3680   26.5630   32.6810 N   0  0  0  0  0  0  0  0  0  0  0  0
   38.2340   26.2300   33.1480 H   0  0  0  0  0  0  0  0  0  0  0  0
   37.7120   23.7130   33.1040 C   0  0  0  0  0  0  0  0  0  0  0  0
   36.7620   24.1290   32.1890 C   0  0  0  0  0  0  0  0  0  0  0  0
   36.0790   23.2830   31.3730 C   0  0  0  0  0  0  0  0  0  0  0  0
   36.3310   21.9230   31.4410 C   0  0  0  0  0  0  0  0  0  0  0  0
   35.8360   20.8680   30.7840 N   0  0  0  0  0  0  0  0  0  0  0  0
   36.4460   19.7750   31.2540 C   0  0  0  0  0  0  0  0  0  0  0  0
   37.3270   20.1360   32.2090 N   0  0  0  0  0  0  0  0  0  0  0  0
   37.2750   21.4850   32.3470 C   0  0  0  0  0  0  0  0  0  0  0  0
   37.9680   22.3380   33.1760 C   0  0  0  0  0  0  0  0  0  0  0  0
   38.2740   24.3690   33.7720 H   0  0  0  0  0  0  0  0  0  0  0  0
   35.3330   23.6480   30.6590 H   0  0  0  0  0  0  0  0  0  0  0  0
   35.1010   20.8500   30.0270 H   0  0  0  0  0  0  0  0  0  0  0  0
   36.3040   18.7320   30.9610 H   0  0  0  0  0  0  0  0  0  0  0  0
   38.9210   21.8910   34.0900 O   0  0  0  0  0  0  0  0  0  0  0  0
   38.9210   22.2220   35.4090 C   0  0  0  0  0  2  0  0  0  0  0  0
   39.7340   22.2160   36.4410 C   0  0  0  0  0  2  0  0  0  0  0  0
   40.8800   22.0810   37.3930 C   0  0  0  0  0  2  0  0  0  0  0  0
   40.6060   21.3890   38.2150 H   0  0  0  0  0  0  0  0  0  0  0  0
   36.1250   27.8990   34.7000 F   0  0  0  0  0  0  0  0  0  0  0  0
   36.2520   28.5620   33.5300 C   0  0  0  0  0  0  0  0  0  0  0  0
   35.7710   29.8290   33.3980 C   0  0  0  0  0  0  0  0  0  0  0  0
   35.9350   30.4410   32.1800 C   0  0  0  0  0  0  0  0  0  0  0  0
   36.5500   29.8280   31.1240 C   0  0  0  0  0  0  0  0  0  0  0  0
   37.0360   28.5350   31.2710 C   0  0  0  0  0  0  0  0  0  0  0  0
   36.8800   27.9010   32.4930 C   0  0  0  0  0  0  0  0  0  0  0  0
   35.5580   31.4470   32.0630 H   0  0  0  0  0  0  0  0  0  0  0  0
   36.6840   30.3020   30.1600 H   0  0  0  0  0  0  0  0  0  0  0  0
   37.5330   27.9670   30.5040 H   0  0  0  0  0  0  0  0  0  0  0  0
   35.1370   31.8190   36.5650 C   0  0  0  0  0  0  0  0  0  0  0  0
   35.7890   31.2440   35.4520 C   0  0  0  0  0  0  0  0  0  0  0  0
   35.1210   30.4400   34.5600 C   0  0  0  0  0  0  0  0  0  0  0  0
   33.7820   30.2270   34.8110 N   0  0  0  0  0  0  0  0  0  0  0  0
   33.1570   30.7710   35.8670 C   0  0  0  0  0  0  0  0  0  0  0  0
   33.8200   31.5480   36.7200 N   0  0  0  0  0  0  0  0  0  0  0  0
   35.7090   32.4430   37.2350 H   0  0  0  0  0  0  0  0  0  0  0  0
   36.8530   31.4240   35.2710 H   0  0  0  0  0  0  0  0  0  0  0  0
   32.1100   30.5740   36.0170 H   0  0  0  0  0  0  0  0  0  0  0  0
  1  6  1  0  0  0  0
  1  3  1  0  0  0  0
  2  1  2  0  0  0  0
  3  4  1  0  0  0  0
  5 13  1  0  0  0  0
  5 14  1  0  0  0  0
  6  5  2  0  0  0  0
  7  8  2  0  0  0  0
  7  6  1  0  0  0  0
  8 12  1  0  0  0  0
  9 10  1  0  0  0  0
  9  8  1  0  0  0  0
 10 11  2  0  0  0  0
 11 12  1  0  0  0  0
 12 13  2  0  0  0  0
 13 18  1  0  0  0  0
 15  7  1  0  0  0  0
 16  9  1  0  0  0  0
 17 10  1  0  0  0  0
 18 19  1  0  0  0  0
 19 20  1  0  0  0  0
 20 21  1  0  0  0  0
 21 22  1  0  0  0  0
 24 23  1  0  0  0  0
 25 24  1  0  0  0  0
 25 35  1  0  0  0  0
 26 25  2  0  0  0  0
 27 28  2  0  0  0  0
 27 26  1  0  0  0  0
 28 29  1  0  0  0  0
 29  3  1  0  0  0  0
 29 24  2  0  0  0  0
 30 26  1  0  0  0  0
 31 27  1  0  0  0  0
 32 28  1  0  0  0  0
 33 38  1  0  0  0  0
 33 39  1  0  0  0  0
 34 33  2  0  0  0  0
 35 36  2  0  0  0  0
 35 34  1  0  0  0  0
 36 37  1  0  0  0  0
 37 41  1  0  0  0  0
 37 38  2  0  0  0  0
 40 34  1  0  0  0  0
M  END
>  <minimizedAffinity>
-6.46438742

$$$$

 OpenBabel03272503143D

 41 44  0  0  0  0  0  0  0  0999 V2000
   36.5270   25.9440   31.3790 C   0  0  0  0  0  0  0  0  0  0  0  0
   35.4120   26.3910   30.9570 O   0  0  0  0  0  0  0  0  0  0  0  0
   37.4100   26.9130   31.9130 N   0  0  0  0  0  0  0  0  0  0  0  0
   38.3250   26.5640   32.2590 H   0  0  0  0  0  0  0  0  0  0  0  0
   35.9150   23.6940   31.9640 C   0  0  0  0  0  0  0  0  0  0  0  0
   36.7950   24.5150   31.2810 C   0  0  0  0  0  0  0  0  0  0  0  0
   37.8480   24.0540   30.5560 C   0  0  0  0  0  0  0  0  0  0  0  0
   38.0770   22.6890   30.4810 C   0  0  0  0  0  0  0  0  0  0  0  0
   39.0080   21.9520   29.8660 N   0  0  0  0  0  0  0  0  0  0  0  0
   38.7510   20.6680   30.1360 C   0  0  0  0  0  0  0  0  0  0  0  0
   37.6570   20.5910   30.9220 N   0  0  0  0  0  0  0  0  0  0  0  0
   37.2120   21.8520   31.1550 C   0  0  0  0  0  0  0  0  0  0  0  0
   36.1440   22.3140   31.8900 C   0  0  0  0  0  0  0  0  0  0  0  0
   35.0610   24.0350   32.5520 H   0  0  0  0  0  0  0  0  0  0  0  0
   38.5250   24.7330   30.0270 H   0  0  0  0  0  0  0  0  0  0  0  0
   39.8150   22.2750   29.2680 H   0  0  0  0  0  0  0  0  0  0  0  0
   39.2920   19.7770   29.8090 H   0  0  0  0  0  0  0  0  0  0  0  0
   35.2720   21.4630   32.5690 O   0  0  0  0  0  0  0  0  0  0  0  0
   35.6420   20.6750   33.6130 C   0  0  0  0  0  2  0  0  0  0  0  0
   35.6540   20.6960   34.9260 C   0  0  0  0  0  2  0  0  0  0  0  0
   35.5300   21.0280   36.3810 C   0  0  0  0  0  2  0  0  0  0  0  0
   36.5350   21.0370   36.8500 H   0  0  0  0  0  0  0  0  0  0  0  0
   36.1980   27.9820   34.1020 F   0  0  0  0  0  0  0  0  0  0  0  0
   36.2720   28.7740   33.0090 C   0  0  0  0  0  0  0  0  0  0  0  0
   35.7580   30.0350   33.0340 C   0  0  0  0  0  0  0  0  0  0  0  0
   35.8690   30.7820   31.8870 C   0  0  0  0  0  0  0  0  0  0  0  0
   36.4670   30.3070   30.7530 C   0  0  0  0  0  0  0  0  0  0  0  0
   36.9870   29.0200   30.7410 C   0  0  0  0  0  0  0  0  0  0  0  0
   36.8840   28.2500   31.8880 C   0  0  0  0  0  0  0  0  0  0  0  0
   35.4640   31.7840   31.8940 H   0  0  0  0  0  0  0  0  0  0  0  0
   36.5590   30.8890   29.8440 H   0  0  0  0  0  0  0  0  0  0  0  0
   37.4750   28.5540   29.9020 H   0  0  0  0  0  0  0  0  0  0  0  0
   33.2410   30.6730   35.7990 C   0  0  0  0  0  0  0  0  0  0  0  0
   33.8220   30.2160   34.5950 C   0  0  0  0  0  0  0  0  0  0  0  0
   35.1280   30.4940   34.2740 C   0  0  0  0  0  0  0  0  0  0  0  0
   35.8380   31.2420   35.1900 N   0  0  0  0  0  0  0  0  0  0  0  0
   35.2910   31.6790   36.3350 C   0  0  0  0  0  0  0  0  0  0  0  0
   34.0240   31.3990   36.6290 N   0  0  0  0  0  0  0  0  0  0  0  0
   32.2090   30.4250   36.0020 H   0  0  0  0  0  0  0  0  0  0  0  0
   33.2410   29.6250   33.8820 H   0  0  0  0  0  0  0  0  0  0  0  0
   35.8890   32.2580   37.0150 H   0  0  0  0  0  0  0  0  0  0  0  0
  1  3  1  0  0  0  0
  2  1  2  0  0  0  0
  3  4  1  0  0  0  0
  5 14  1  0  0  0  0
  6  1  1  0  0  0  0
  6  5  2  0  0  0  0
  7  6  1  0  0  0  0
  8  7  2  0  0  0  0
  8 12  1  0  0  0  0
  9 10  1  0  0  0  0
  9  8  1  0  0  0  0
 10 11  2  0  0  0  0
 11 12  1  0  0  0  0
 12 13  2  0  0  0  0
 13  5  1  0  0  0  0
 13 18  1  0  0  0  0
 15  7  1  0  0  0  0
 16  9  1  0  0  0  0
 17 10  1  0  0  0  0
 18 19  1  0  0  0  0
 19 20  1  0  0  0  0
 20 21  1  0  0  0  0
 21 22  1  0  0  0  0
 24 25  1  0  0  0  0
 24 23  1  0  0  0  0
 25 35  1  0  0  0  0
 26 30  1  0  0  0  0
 26 25  2  0  0  0  0
 27 26  1  0  0  0  0
 28 27  2  0  0  0  0
 28 29  1  0  0  0  0
 29  3  1  0  0  0  0
 29 24  2  0  0  0  0
 31 27  1  0  0  0  0
 32 28  1  0  0  0  0
 33 39  1  0  0  0  0
 33 38  1  0  0  0  0
 34 33  2  0  0  0  0
 35 34  1  0  0  0  0
 35 36  2  0  0  0  0
 36 37  1  0  0  0  0
 37 38  2  0  0  0  0
 37 41  1  0  0  0  0
 40 34  1  0  0  0  0
M  END
>  <minimizedAffinity>
-6.27945852

$$$$

 OpenBabel03272503143D

 41 44  0  0  0  0  0  0  0  0999 V2000
   38.0240   26.3170   34.9020 C   0  0  0  0  0  0  0  0  0  0  0  0
   38.7620   26.7820   35.8300 O   0  0  0  0  0  0  0  0  0  0  0  0
   37.7890   24.9220   34.9510 N   0  0  0  0  0  0  0  0  0  0  0  0
   37.1900   24.5290   34.1990 H   0  0  0  0  0  0  0  0  0  0  0  0
   36.4980   28.0850   34.3290 C   0  0  0  0  0  0  0  0  0  0  0  0
   37.4980   27.2330   33.8970 C   0  0  0  0  0  0  0  0  0  0  0  0
   37.9840   27.2220   32.6270 C   0  0  0  0  0  0  0  0  0  0  0  0
   37.4640   28.1030   31.6930 C   0  0  0  0  0  0  0  0  0  0  0  0
   37.7260   28.3240   30.4010 N   0  0  0  0  0  0  0  0  0  0  0  0
   36.9160   29.3020   29.9840 C   0  0  0  0  0  0  0  0  0  0  0  0
   36.1400   29.7030   31.0120 N   0  0  0  0  0  0  0  0  0  0  0  0
   36.4650   28.9630   32.1030 C   0  0  0  0  0  0  0  0  0  0  0  0
   35.9710   28.9770   33.3870 C   0  0  0  0  0  0  0  0  0  0  0  0
   36.0900   28.1170   35.3410 H   0  0  0  0  0  0  0  0  0  0  0  0
   38.7770   26.5330   32.3190 H   0  0  0  0  0  0  0  0  0  0  0  0
   38.4310   27.8420   29.7800 H   0  0  0  0  0  0  0  0  0  0  0  0
   36.8390   29.7530   28.9920 H   0  0  0  0  0  0  0  0  0  0  0  0
   34.9610   29.8480   33.7960 O   0  0  0  0  0  0  0  0  0  0  0  0
   33.6680   29.4730   33.9880 C   0  0  0  0  0  2  0  0  0  0  0  0
   32.4950   30.0140   34.2260 C   0  0  0  0  0  2  0  0  0  0  0  0
   31.3340   30.9210   34.4870 C   0  0  0  0  0  2  0  0  0  0  0  0
   30.8880   30.6850   35.4750 H   0  0  0  0  0  0  0  0  0  0  0  0
   40.2380   23.7700   34.6690 F   0  0  0  0  0  0  0  0  0  0  0  0
   39.6720   23.6880   35.8930 C   0  0  0  0  0  0  0  0  0  0  0  0
   40.3180   23.0540   36.9110 C   0  0  0  0  0  0  0  0  0  0  0  0
   39.6820   23.0090   38.1280 C   0  0  0  0  0  0  0  0  0  0  0  0
   38.4520   23.5670   38.3380 C   0  0  0  0  0  0  0  0  0  0  0  0
   37.8050   24.2100   37.2920 C   0  0  0  0  0  0  0  0  0  0  0  0
   38.4290   24.2660   36.0570 C   0  0  0  0  0  0  0  0  0  0  0  0
   40.1850   22.5080   38.9440 H   0  0  0  0  0  0  0  0  0  0  0  0
   37.9440   23.5360   39.2940 H   0  0  0  0  0  0  0  0  0  0  0  0
   36.8380   24.6800   37.3540 H   0  0  0  0  0  0  0  0  0  0  0  0
   43.1790   20.5990   36.4920 C   0  0  0  0  0  0  0  0  0  0  0  0
   41.9000   21.1320   36.7680 C   0  0  0  0  0  0  0  0  0  0  0  0
   41.6330   22.4730   36.6320 C   0  0  0  0  0  0  0  0  0  0  0  0
   42.6800   23.2670   36.2130 N   0  0  0  0  0  0  0  0  0  0  0  0
   43.8970   22.7660   35.9500 C   0  0  0  0  0  0  0  0  0  0  0  0
   44.1370   21.4640   36.0860 N   0  0  0  0  0  0  0  0  0  0  0  0
   43.3350   19.5370   36.6150 H   0  0  0  0  0  0  0  0  0  0  0  0
   41.0830   20.4850   37.1000 H   0  0  0  0  0  0  0  0  0  0  0  0
   44.6790   23.4290   35.6260 H   0  0  0  0  0  0  0  0  0  0  0  0
  1  3  1  0  0  0  0
  1  2  2  0  0  0  0
  3 29  1  0  0  0  0
  4  3  1  0  0  0  0
  5 14  1  0  0  0  0
  6  5  1  0  0  0  0
  6  1  1  0  0  0  0
  7  6  2  0  0  0  0
  8 12  2  0  0  0  0
  8  7  1  0  0  0  0
  9  8  1  0  0  0  0
 10  9  1  0  0  0  0
 10 11  2  0  0  0  0
 11 12  1  0  0  0  0
 12 13  1  0  0  0  0
 13 18  1  0  0  0  0
 13  5  2  0  0  0  0
 15  7  1  0  0  0  0
 16  9  1  0  0  0  0
 17 10  1  0  0  0  0
 18 19  1  0  0  0  0
 19 20  1  0  0  0  0
 20 21  1  0  0  0  0
 21 22  1  0  0  0  0
 23 24  1  0  0  0  0
 24 29  2  0  0  0  0
 24 25  1  0  0  0  0
 25 26  2  0  0  0  0
 26 27  1  0  0  0  0
 26 30  1  0  0  0  0
 27 31  1  0  0  0  0
 28 32  1  0  0  0  0
 28 27  2  0  0  0  0
 29 28  1  0  0  0  0
 33 39  1  0  0  0  0
 33 34  1  0  0  0  0
 34 40  1  0  0  0  0
 35 34  2  0  0  0  0
 35 25  1  0  0  0  0
 36 35  1  0  0  0  0
 37 38  1  0  0  0  0
 37 36  2  0  0  0  0
 38 33  2  0  0  0  0
 41 37  1  0  0  0  0
M  END
>  <minimizedAffinity>
-6.25788641

$$$$

 OpenBabel03272503143D

 41 44  0  0  0  0  0  0  0  0999 V2000
   36.4990   26.1530   32.0710 C   0  0  0  0  0  0  0  0  0  0  0  0
   35.3110   26.4300   31.7070 O   0  0  0  0  0  0  0  0  0  0  0  0
   37.2890   27.2590   32.4660 N   0  0  0  0  0  0  0  0  0  0  0  0
   38.2620   27.0490   32.7620 H   0  0  0  0  0  0  0  0  0  0  0  0
   36.0250   23.8580   31.5330 C   0  0  0  0  0  0  0  0  0  0  0  0
   36.9350   24.7620   32.0500 C   0  0  0  0  0  0  0  0  0  0  0  0
   38.1640   24.4130   32.5160 C   0  0  0  0  0  0  0  0  0  0  0  0
   38.5500   23.0830   32.4840 C   0  0  0  0  0  0  0  0  0  0  0  0
   39.6630   22.4460   32.8620 N   0  0  0  0  0  0  0  0  0  0  0  0
   39.4940   21.1460   32.6020 C   0  0  0  0  0  0  0  0  0  0  0  0
   38.2750   20.9580   32.0570 N   0  0  0  0  0  0  0  0  0  0  0  0
   37.6580   22.1640   31.9720 C   0  0  0  0  0  0  0  0  0  0  0  0
   36.4130   22.5130   31.4980 C   0  0  0  0  0  0  0  0  0  0  0  0
   35.0340   24.1090   31.1500 H   0  0  0  0  0  0  0  0  0  0  0  0
   38.8590   25.1560   32.9200 H   0  0  0  0  0  0  0  0  0  0  0  0
   40.5380   22.8490   33.2920 H   0  0  0  0  0  0  0  0  0  0  0  0
   40.1850   20.3170   32.7740 H   0  0  0  0  0  0  0  0  0  0  0  0
   35.5150   21.5800   30.9810 O   0  0  0  0  0  0  0  0  0  0  0  0
   34.7960   20.7150   31.7460 C   0  0  0  0  0  2  0  0  0  0  0  0
   34.8970   19.5080   32.2530 C   0  0  0  0  0  2  0  0  0  0  0  0
   35.3150   18.1340   32.6770 C   0  0  0  0  0  2  0  0  0  0  0  0
   34.6030   17.3850   32.2770 H   0  0  0  0  0  0  0  0  0  0  0  0
   36.1490   28.3660   34.6740 F   0  0  0  0  0  0  0  0  0  0  0  0
   36.0280   29.0620   33.5230 C   0  0  0  0  0  0  0  0  0  0  0  0
   35.3630   30.2510   33.5010 C   0  0  0  0  0  0  0  0  0  0  0  0
   35.2800   30.9030   32.2960 C   0  0  0  0  0  0  0  0  0  0  0  0
   35.8310   30.4040   31.1480 C   0  0  0  0  0  0  0  0  0  0  0  0
   36.5060   29.1910   31.1840 C   0  0  0  0  0  0  0  0  0  0  0  0
   36.6000   28.5180   32.3910 C   0  0  0  0  0  0  0  0  0  0  0  0
   34.7550   31.8480   32.2650 H   0  0  0  0  0  0  0  0  0  0  0  0
   35.7700   30.9120   30.1930 H   0  0  0  0  0  0  0  0  0  0  0  0
   36.9720   28.7150   30.3390 H   0  0  0  0  0  0  0  0  0  0  0  0
   34.9150   31.9910   36.8420 C   0  0  0  0  0  0  0  0  0  0  0  0
   35.4910   31.5340   35.6360 C   0  0  0  0  0  0  0  0  0  0  0  0
   34.7930   30.7400   34.7580 C   0  0  0  0  0  0  0  0  0  0  0  0
   33.5010   30.4170   35.1200 N   0  0  0  0  0  0  0  0  0  0  0  0
   32.9500   30.8480   36.2640 C   0  0  0  0  0  0  0  0  0  0  0  0
   33.6420   31.6160   37.1020 N   0  0  0  0  0  0  0  0  0  0  0  0
   35.5090   32.6120   37.4960 H   0  0  0  0  0  0  0  0  0  0  0  0
   36.5180   31.8010   35.3680 H   0  0  0  0  0  0  0  0  0  0  0  0
   31.9380   30.5670   36.4980 H   0  0  0  0  0  0  0  0  0  0  0  0
  1  3  1  0  0  0  0
  2  1  2  0  0  0  0
  3  4  1  0  0  0  0
  5  6  1  0  0  0  0
  6  1  1  0  0  0  0
  6  7  2  0  0  0  0
  7 15  1  0  0  0  0
  8  7  1  0  0  0  0
  8  9  1  0  0  0  0
  9 16  1  0  0  0  0
 10 17  1  0  0  0  0
 10  9  1  0  0  0  0
 11 10  2  0  0  0  0
 12 11  1  0  0  0  0
 12  8  2  0  0  0  0
 13  5  2  0  0  0  0
 13 12  1  0  0  0  0
 14  5  1  0  0  0  0
 18 13  1  0  0  0  0
 18 19  1  0  0  0  0
 19 20  1  0  0  0  0
 20 21  1  0  0  0  0
 22 21  1  0  0  0  0
 24 23  1  0  0  0  0
 25 24  1  0  0  0  0
 25 35  1  0  0  0  0
 26 25  2  0  0  0  0
 27 28  2  0  0  0  0
 27 26  1  0  0  0  0
 28 29  1  0  0  0  0
 29  3  1  0  0  0  0
 29 24  2  0  0  0  0
 30 26  1  0  0  0  0
 31 27  1  0  0  0  0
 32 28  1  0  0  0  0
 33 38  1  0  0  0  0
 33 39  1  0  0  0  0
 34 33  2  0  0  0  0
 35 36  2  0  0  0  0
 35 34  1  0  0  0  0
 36 37  1  0  0  0  0
 37 41  1  0  0  0  0
 37 38  2  0  0  0  0
 40 34  1  0  0  0  0
M  END
>  <minimizedAffinity>
-6.17401123

$$$$

 OpenBabel03272503143D

 41 44  0  0  0  0  0  0  0  0999 V2000
   36.7260   27.1800   31.8720 C   0  0  0  0  0  0  0  0  0  0  0  0
   37.5110   26.7250   32.7660 O   0  0  0  0  0  0  0  0  0  0  0  0
   36.5180   26.3350   30.7550 N   0  0  0  0  0  0  0  0  0  0  0  0
   35.8820   26.6940   30.0170 H   0  0  0  0  0  0  0  0  0  0  0  0
   35.8150   28.8220   33.3740 C   0  0  0  0  0  0  0  0  0  0  0  0
   36.1240   28.4940   32.0660 C   0  0  0  0  0  0  0  0  0  0  0  0
   35.8970   29.3160   31.0080 C   0  0  0  0  0  0  0  0  0  0  0  0
   35.3230   30.5590   31.2250 C   0  0  0  0  0  0  0  0  0  0  0  0
   34.9830   31.5620   30.4080 N   0  0  0  0  0  0  0  0  0  0  0  0
   34.4590   32.5360   31.1600 C   0  0  0  0  0  0  0  0  0  0  0  0
   34.4670   32.1500   32.4530 N   0  0  0  0  0  0  0  0  0  0  0  0
   35.0070   30.9070   32.5220 C   0  0  0  0  0  0  0  0  0  0  0  0
   35.2360   30.0770   33.5960 C   0  0  0  0  0  0  0  0  0  0  0  0
   35.9870   28.1830   34.2430 H   0  0  0  0  0  0  0  0  0  0  0  0
   36.1550   29.0240   29.9850 H   0  0  0  0  0  0  0  0  0  0  0  0
   35.0880   31.6220   29.3600 H   0  0  0  0  0  0  0  0  0  0  0  0
   34.0690   33.5070   30.8480 H   0  0  0  0  0  0  0  0  0  0  0  0
   34.9150   30.4340   34.9050 O   0  0  0  0  0  0  0  0  0  0  0  0
   35.6970   31.2210   35.6910 C   0  0  0  0  0  2  0  0  0  0  0  0
   36.3810   32.3390   35.6190 C   0  0  0  0  0  2  0  0  0  0  0  0
   37.0490   33.6170   35.2170 C   0  0  0  0  0  2  0  0  0  0  0  0
   38.1480   33.5130   35.3140 H   0  0  0  0  0  0  0  0  0  0  0  0
   35.3330   24.0880   31.7300 F   0  0  0  0  0  0  0  0  0  0  0  0
   36.6170   23.9640   31.3270 C   0  0  0  0  0  0  0  0  0  0  0  0
   37.2570   22.7650   31.4180 C   0  0  0  0  0  0  0  0  0  0  0  0
   38.5610   22.7140   30.9900 C   0  0  0  0  0  0  0  0  0  0  0  0
   39.2160   23.8050   30.4900 C   0  0  0  0  0  0  0  0  0  0  0  0
   38.5520   25.0210   30.4020 C   0  0  0  0  0  0  0  0  0  0  0  0
   37.2360   25.0930   30.8290 C   0  0  0  0  0  0  0  0  0  0  0  0
   39.0790   21.7680   31.0570 H   0  0  0  0  0  0  0  0  0  0  0  0
   40.2430   23.7730   30.1500 H   0  0  0  0  0  0  0  0  0  0  0  0
   38.9770   25.9350   30.0250 H   0  0  0  0  0  0  0  0  0  0  0  0
   35.1940   19.5960   31.7190 C   0  0  0  0  0  0  0  0  0  0  0  0
   35.9090   20.6820   31.1670 C   0  0  0  0  0  0  0  0  0  0  0  0
   36.5090   21.6290   31.9620 C   0  0  0  0  0  0  0  0  0  0  0  0
   36.3740   21.4600   33.3240 N   0  0  0  0  0  0  0  0  0  0  0  0
   35.6950   20.4310   33.8530 C   0  0  0  0  0  0  0  0  0  0  0  0
   35.1210   19.5230   33.0680 N   0  0  0  0  0  0  0  0  0  0  0  0
   34.7410   18.8800   31.0480 H   0  0  0  0  0  0  0  0  0  0  0  0
   36.0040   20.7980   30.0830 H   0  0  0  0  0  0  0  0  0  0  0  0
   35.6200   20.3450   34.9220 H   0  0  0  0  0  0  0  0  0  0  0  0
  1  6  1  0  0  0  0
  1  2  2  0  0  0  0
  3 29  1  0  0  0  0
  3  1  1  0  0  0  0
  4  3  1  0  0  0  0
  5 13  1  0  0  0  0
  5 14  1  0  0  0  0
  6  5  2  0  0  0  0
  7  8  2  0  0  0  0
  7  6  1  0  0  0  0
  8 12  1  0  0  0  0
  9 10  1  0  0  0  0
  9  8  1  0  0  0  0
 10 11  2  0  0  0  0
 11 12  1  0  0  0  0
 12 13  2  0  0  0  0
 13 18  1  0  0  0  0
 15  7  1  0  0  0  0
 16  9  1  0  0  0  0
 17 10  1  0  0  0  0
 18 19  1  0  0  0  0
 20 19  1  0  0  0  0
 21 22  1  0  0  0  0
 21 20  1  0  0  0  0
 24 25  1  0  0  0  0
 24 23  1  0  0  0  0
 25 35  1  0  0  0  0
 26 30  1  0  0  0  0
 26 25  2  0  0  0  0
 27 26  1  0  0  0  0
 28 27  2  0  0  0  0
 28 29  1  0  0  0  0
 29 24  2  0  0  0  0
 31 27  1  0  0  0  0
 32 28  1  0  0  0  0
 33 38  1  0  0  0  0
 34 33  2  0  0  0  0
 34 35  1  0  0  0  0
 35 36  2  0  0  0  0
 36 37  1  0  0  0  0
 37 41  1  0  0  0  0
 38 37  2  0  0  0  0
 39 33  1  0  0  0  0
 40 34  1  0  0  0  0
M  END
>  <minimizedAffinity>
-6.15949392

$$$$

 OpenBabel03272503143D

 41 44  0  0  0  0  0  0  0  0999 V2000
   37.9100   26.3210   35.0620 C   0  0  0  0  0  0  0  0  0  0  0  0
   38.6520   26.7940   35.9810 O   0  0  0  0  0  0  0  0  0  0  0  0
   37.7050   24.9210   35.1040 N   0  0  0  0  0  0  0  0  0  0  0  0
   37.1040   24.5190   34.3580 H   0  0  0  0  0  0  0  0  0  0  0  0
   37.7560   27.0150   32.7650 C   0  0  0  0  0  0  0  0  0  0  0  0
   37.3510   27.2310   34.0700 C   0  0  0  0  0  0  0  0  0  0  0  0
   36.4900   28.2160   34.4390 C   0  0  0  0  0  0  0  0  0  0  0  0
   35.9750   29.0660   33.4740 C   0  0  0  0  0  0  0  0  0  0  0  0
   35.1320   30.1020   33.5260 N   0  0  0  0  0  0  0  0  0  0  0  0
   34.9810   30.5650   32.2800 C   0  0  0  0  0  0  0  0  0  0  0  0
   35.7290   29.8220   31.4390 N   0  0  0  0  0  0  0  0  0  0  0  0
   36.3660   28.8690   32.1650 C   0  0  0  0  0  0  0  0  0  0  0  0
   37.2370   27.8720   31.7870 C   0  0  0  0  0  0  0  0  0  0  0  0
   38.4440   26.2330   32.4390 H   0  0  0  0  0  0  0  0  0  0  0  0
   36.1900   28.3580   35.4830 H   0  0  0  0  0  0  0  0  0  0  0  0
   34.6490   30.5170   34.3680 H   0  0  0  0  0  0  0  0  0  0  0  0
   34.3720   31.4010   31.9290 H   0  0  0  0  0  0  0  0  0  0  0  0
   37.6290   27.6780   30.4630 O   0  0  0  0  0  0  0  0  0  0  0  0
   38.8240   28.0840   29.9580 C   0  0  0  0  0  2  0  0  0  0  0  0
   40.1050   28.0110   30.2400 C   0  0  0  0  0  2  0  0  0  0  0  0
   41.4560   27.7540   30.8310 C   0  0  0  0  0  2  0  0  0  0  0  0
   41.9480   28.7160   31.0770 H   0  0  0  0  0  0  0  0  0  0  0  0
   40.1750   23.8260   34.7800 F   0  0  0  0  0  0  0  0  0  0  0  0
   39.6280   23.7220   36.0110 C   0  0  0  0  0  0  0  0  0  0  0  0
   40.3020   23.0950   37.0150 C   0  0  0  0  0  0  0  0  0  0  0  0
   39.6850   23.0270   38.2400 C   0  0  0  0  0  0  0  0  0  0  0  0
   38.4450   23.5560   38.4720 C   0  0  0  0  0  0  0  0  0  0  0  0
   37.7690   24.1920   37.4390 C   0  0  0  0  0  0  0  0  0  0  0  0
   38.3750   24.2710   36.1960 C   0  0  0  0  0  0  0  0  0  0  0  0
   40.2090   22.5320   39.0460 H   0  0  0  0  0  0  0  0  0  0  0  0
   37.9510   23.5070   39.4340 H   0  0  0  0  0  0  0  0  0  0  0  0
   36.7940   24.6390   37.5180 H   0  0  0  0  0  0  0  0  0  0  0  0
   43.1660   20.6950   36.3650 C   0  0  0  0  0  0  0  0  0  0  0  0
   41.8790   21.1970   36.6580 C   0  0  0  0  0  0  0  0  0  0  0  0
   41.6260   22.5460   36.7140 C   0  0  0  0  0  0  0  0  0  0  0  0
   42.6970   23.3810   36.4690 N   0  0  0  0  0  0  0  0  0  0  0  0
   43.9220   22.9090   36.1910 C   0  0  0  0  0  0  0  0  0  0  0  0
   44.1480   21.5990   36.1400 N   0  0  0  0  0  0  0  0  0  0  0  0
   43.3100   19.6250   36.3330 H   0  0  0  0  0  0  0  0  0  0  0  0
   41.0430   20.5170   36.8490 H   0  0  0  0  0  0  0  0  0  0  0  0
   44.7220   23.6030   36.0080 H   0  0  0  0  0  0  0  0  0  0  0  0
  1  3  1  0  0  0  0
  1  2  2  0  0  0  0
  3 29  1  0  0  0  0
  4  3  1  0  0  0  0
  5  6  1  0  0  0  0
  6  7  2  0  0  0  0
  6  1  1  0  0  0  0
  7 15  1  0  0  0  0
  8  9  1  0  0  0  0
  8  7  1  0  0  0  0
  9 16  1  0  0  0  0
 10  9  1  0  0  0  0
 11 12  1  0  0  0  0
 11 10  2  0  0  0  0
 12  8  2  0  0  0  0
 13 12  1  0  0  0  0
 13  5  2  0  0  0  0
 14  5  1  0  0  0  0
 17 10  1  0  0  0  0
 18 13  1  0  0  0  0
 19 20  1  0  0  0  0
 19 18  1  0  0  0  0
 20 21  1  0  0  0  0
 21 22  1  0  0  0  0
 23 24  1  0  0  0  0
 24 29  2  0  0  0  0
 24 25  1  0  0  0  0
 25 26  2  0  0  0  0
 26 27  1  0  0  0  0
 26 30  1  0  0  0  0
 27 31  1  0  0  0  0
 28 32  1  0  0  0  0
 28 27  2  0  0  0  0
 29 28  1  0  0  0  0
 33 34  1  0  0  0  0
 34 35  2  0  0  0  0
 34 40  1  0  0  0  0
 35 25  1  0  0  0  0
 36 35  1  0  0  0  0
 37 36  2  0  0  0  0
 38 37  1  0  0  0  0
 38 33  2  0  0  0  0
 39 33  1  0  0  0  0
 41 37  1  0  0  0  0
M  END
>  <minimizedAffinity>
-6.0920639

$$$$

 OpenBabel03272503143D

 41 44  0  0  0  0  0  0  0  0999 V2000
   37.2180   26.6880   31.6070 C   0  0  0  0  0  0  0  0  0  0  0  0
   36.1430   26.1820   32.0660 O   0  0  0  0  0  0  0  0  0  0  0  0
   38.3830   25.9010   31.7750 N   0  0  0  0  0  0  0  0  0  0  0  0
   39.2680   26.3020   31.4070 H   0  0  0  0  0  0  0  0  0  0  0  0
   36.7030   29.0310   31.7620 C   0  0  0  0  0  0  0  0  0  0  0  0
   37.1620   27.9960   30.9670 C   0  0  0  0  0  0  0  0  0  0  0  0
   37.5450   28.1530   29.6720 C   0  0  0  0  0  0  0  0  0  0  0  0
   37.4800   29.4090   29.0920 C   0  0  0  0  0  0  0  0  0  0  0  0
   37.7770   29.8670   27.8710 N   0  0  0  0  0  0  0  0  0  0  0  0
   37.5190   31.1780   27.8560 C   0  0  0  0  0  0  0  0  0  0  0  0
   37.0600   31.5530   29.0680 N   0  0  0  0  0  0  0  0  0  0  0  0
   37.0260   30.4560   29.8670 C   0  0  0  0  0  0  0  0  0  0  0  0
   36.6380   30.3020   31.1780 C   0  0  0  0  0  0  0  0  0  0  0  0
   36.3910   28.9360   32.8040 H   0  0  0  0  0  0  0  0  0  0  0  0
   37.9040   27.3100   29.0720 H   0  0  0  0  0  0  0  0  0  0  0  0
   38.1470   29.3320   27.0390 H   0  0  0  0  0  0  0  0  0  0  0  0
   37.6370   31.8910   27.0370 H   0  0  0  0  0  0  0  0  0  0  0  0
   36.1780   31.3640   31.9570 O   0  0  0  0  0  0  0  0  0  0  0  0
   35.4530   31.2100   33.0970 C   0  0  0  0  0  2  0  0  0  0  0  0
   35.5940   31.3390   34.3960 C   0  0  0  0  0  2  0  0  0  0  0  0
   36.0700   31.5790   35.7950 C   0  0  0  0  0  2  0  0  0  0  0  0
   36.0090   30.6390   36.3790 H   0  0  0  0  0  0  0  0  0  0  0  0
   38.8760   25.6080   34.4350 F   0  0  0  0  0  0  0  0  0  0  0  0
   38.4010   24.5210   33.7880 C   0  0  0  0  0  0  0  0  0  0  0  0
   38.1910   23.3550   34.4610 C   0  0  0  0  0  0  0  0  0  0  0  0
   37.7070   22.2910   33.7390 C   0  0  0  0  0  0  0  0  0  0  0  0
   37.4380   22.3700   32.4010 C   0  0  0  0  0  0  0  0  0  0  0  0
   37.6550   23.5640   31.7280 C   0  0  0  0  0  0  0  0  0  0  0  0
   38.1440   24.6490   32.4380 C   0  0  0  0  0  0  0  0  0  0  0  0
   37.5370   21.3600   34.2610 H   0  0  0  0  0  0  0  0  0  0  0  0
   37.0550   21.5360   31.8250 H   0  0  0  0  0  0  0  0  0  0  0  0
   37.4750   23.7290   30.6800 H   0  0  0  0  0  0  0  0  0  0  0  0
   39.9170   22.7570   37.7850 C   0  0  0  0  0  0  0  0  0  0  0  0
   39.6480   22.7720   36.3990 C   0  0  0  0  0  0  0  0  0  0  0  0
   38.4970   23.3250   35.8930 C   0  0  0  0  0  0  0  0  0  0  0  0
   37.6200   23.8630   36.8120 N   0  0  0  0  0  0  0  0  0  0  0  0
   37.8700   23.8510   38.1300 C   0  0  0  0  0  0  0  0  0  0  0  0
   38.9910   23.3110   38.6020 N   0  0  0  0  0  0  0  0  0  0  0  0
   40.8380   22.3090   38.1300 H   0  0  0  0  0  0  0  0  0  0  0  0
   40.3570   22.3390   35.6860 H   0  0  0  0  0  0  0  0  0  0  0  0
   37.1530   24.2840   38.8050 H   0  0  0  0  0  0  0  0  0  0  0  0
  1  3  1  0  0  0  0
  1  2  2  0  0  0  0
  3 29  1  0  0  0  0
  4  3  1  0  0  0  0
  5 14  1  0  0  0  0
  6  1  1  0  0  0  0
  6  5  2  0  0  0  0
  7  6  1  0  0  0  0
  8  7  2  0  0  0  0
  8 12  1  0  0  0  0
  9  8  1  0  0  0  0
 10  9  1  0  0  0  0
 10 11  2  0  0  0  0
 11 12  1  0  0  0  0
 12 13  2  0  0  0  0
 13  5  1  0  0  0  0
 13 18  1  0  0  0  0
 15  7  1  0  0  0  0
 16  9  1  0  0  0  0
 17 10  1  0  0  0  0
 18 19  1  0  0  0  0
 19 20  1  0  0  0  0
 20 21  1  0  0  0  0
 21 22  1  0  0  0  0
 24 23  1  0  0  0  0
 24 25  1  0  0  0  0
 25 35  1  0  0  0  0
 26 30  1  0  0  0  0
 26 25  2  0  0  0  0
 27 26  1  0  0  0  0
 28 27  2  0  0  0  0
 28 29  1  0  0  0  0
 29 24  2  0  0  0  0
 31 27  1  0  0  0  0
 32 28  1  0  0  0  0
 33 39  1  0  0  0  0
 33 38  1  0  0  0  0
 34 33  2  0  0  0  0
 35 34  1  0  0  0  0
 35 36  2  0  0  0  0
 36 37  1  0  0  0  0
 37 38  2  0  0  0  0
 37 41  1  0  0  0  0
 40 34  1  0  0  0  0
M  END
>  <minimizedAffinity>
-6.06466198

$$$$

 OpenBabel03272503143D

 41 44  0  0  0  0  0  0  0  0999 V2000
   36.2930   25.9400   31.3500 C   0  0  0  0  0  0  0  0  0  0  0  0
   35.2290   26.4410   30.8640 O   0  0  0  0  0  0  0  0  0  0  0  0
   37.1770   26.8620   31.9610 N   0  0  0  0  0  0  0  0  0  0  0  0
   38.0510   26.4680   32.3600 H   0  0  0  0  0  0  0  0  0  0  0  0
   37.6970   24.1210   30.6420 C   0  0  0  0  0  0  0  0  0  0  0  0
   36.5090   24.5030   31.2390 C   0  0  0  0  0  0  0  0  0  0  0  0
   35.5820   23.6240   31.7040 C   0  0  0  0  0  0  0  0  0  0  0  0
   35.8150   22.2630   31.5840 C   0  0  0  0  0  0  0  0  0  0  0  0
   35.1100   21.1820   31.9340 N   0  0  0  0  0  0  0  0  0  0  0  0
   35.8160   20.1050   31.5750 C   0  0  0  0  0  0  0  0  0  0  0  0
   36.9690   20.5030   30.9990 N   0  0  0  0  0  0  0  0  0  0  0  0
   36.9940   21.8600   30.9920 C   0  0  0  0  0  0  0  0  0  0  0  0
   37.9360   22.7460   30.5200 C   0  0  0  0  0  0  0  0  0  0  0  0
   38.4600   24.8030   30.2610 H   0  0  0  0  0  0  0  0  0  0  0  0
   34.6510   23.9620   32.1720 H   0  0  0  0  0  0  0  0  0  0  0  0
   34.1670   21.1350   32.4060 H   0  0  0  0  0  0  0  0  0  0  0  0
   35.5650   19.0490   31.6970 H   0  0  0  0  0  0  0  0  0  0  0  0
   39.1250   22.3330   29.9220 O   0  0  0  0  0  0  0  0  0  0  0  0
   39.8060   23.0670   29.0020 C   0  0  0  0  0  2  0  0  0  0  0  0
   39.7890   23.3180   27.7130 C   0  0  0  0  0  2  0  0  0  0  0  0
   39.5050   23.3920   26.2450 C   0  0  0  0  0  2  0  0  0  0  0  0
   40.3820   23.0260   25.6740 H   0  0  0  0  0  0  0  0  0  0  0  0
   36.0650   28.0110   34.1630 F   0  0  0  0  0  0  0  0  0  0  0  0
   36.1470   28.7840   33.0580 C   0  0  0  0  0  0  0  0  0  0  0  0
   35.6870   30.0660   33.0760 C   0  0  0  0  0  0  0  0  0  0  0  0
   35.8030   30.7930   31.9170 C   0  0  0  0  0  0  0  0  0  0  0  0
   36.3520   30.2770   30.7750 C   0  0  0  0  0  0  0  0  0  0  0  0
   36.8170   28.9690   30.7700 C   0  0  0  0  0  0  0  0  0  0  0  0
   36.7080   28.2190   31.9300 C   0  0  0  0  0  0  0  0  0  0  0  0
   35.4420   31.8110   31.9180 H   0  0  0  0  0  0  0  0  0  0  0  0
   36.4470   30.8430   29.8570 H   0  0  0  0  0  0  0  0  0  0  0  0
   37.2630   28.4710   29.9260 H   0  0  0  0  0  0  0  0  0  0  0  0
   33.2610   30.8730   35.8780 C   0  0  0  0  0  0  0  0  0  0  0  0
   33.7920   30.3770   34.6670 C   0  0  0  0  0  0  0  0  0  0  0  0
   35.1090   30.5690   34.3240 C   0  0  0  0  0  0  0  0  0  0  0  0
   35.8800   31.2710   35.2270 N   0  0  0  0  0  0  0  0  0  0  0  0
   35.3810   31.7460   36.3780 C   0  0  0  0  0  0  0  0  0  0  0  0
   34.1020   31.5490   36.6930 N   0  0  0  0  0  0  0  0  0  0  0  0
   32.2180   30.6940   36.0980 H   0  0  0  0  0  0  0  0  0  0  0  0
   33.1630   29.8230   33.9640 H   0  0  0  0  0  0  0  0  0  0  0  0
   36.0250   32.2870   37.0470 H   0  0  0  0  0  0  0  0  0  0  0  0
  1  3  1  0  0  0  0
  2  1  2  0  0  0  0
  3  4  1  0  0  0  0
  5  6  1  0  0  0  0
  6  1  1  0  0  0  0
  6  7  2  0  0  0  0
  7 15  1  0  0  0  0
  8  7  1  0  0  0  0
  8  9  1  0  0  0  0
  9 16  1  0  0  0  0
 10 17  1  0  0  0  0
 10  9  1  0  0  0  0
 11 10  2  0  0  0  0
 12 11  1  0  0  0  0
 12  8  2  0  0  0  0
 13  5  2  0  0  0  0
 13 12  1  0  0  0  0
 14  5  1  0  0  0  0
 18 13  1  0  0  0  0
 19 18  1  0  0  0  0
 20 19  1  0  0  0  0
 21 20  1  0  0  0  0
 22 21  1  0  0  0  0
 24 25  1  0  0  0  0
 24 23  1  0  0  0  0
 25 35  1  0  0  0  0
 26 30  1  0  0  0  0
 26 25  2  0  0  0  0
 27 26  1  0  0  0  0
 28 27  2  0  0  0  0
 28 29  1  0  0  0  0
 29  3  1  0  0  0  0
 29 24  2  0  0  0  0
 31 27  1  0  0  0  0
 32 28  1  0  0  0  0
 33 39  1  0  0  0  0
 33 38  1  0  0  0  0
 34 33  2  0  0  0  0
 35 34  1  0  0  0  0
 35 36  2  0  0  0  0
 36 37  1  0  0  0  0
 37 38  2  0  0  0  0
 37 41  1  0  0  0  0
 40 34  1  0  0  0  0
M  END
>  <minimizedAffinity>
-5.89580536

$$$$
