REMARK  Name = 
REMARK  4 active torsions:
REMARK  status: ('A' for Active; 'I' for Inactive)
REMARK    1  A    between atoms: C_3  and  C_12
REMARK    2  A    between atoms: C_9  and  O_14
REMARK    3  A    between atoms: O_14  and  C_21
REMARK    4  A    between atoms: C_22  and  C_23
REMARK                            x       y       z     vdW  Elec       q    Type
REMARK                         _______ _______ _______ _____ _____    ______ ____
ROOT
ATOM      1  C   UNL     1      37.858  33.242  49.473  0.00  0.00    +0.000 A 
ATOM      2  C   UNL     1      38.886  33.277  48.505  0.00  0.00    +0.000 A 
ATOM      3  C   UNL     1      38.939  32.236  47.567  0.00  0.00    +0.000 A 
ATOM      4  N   UNL     1      38.001  31.253  47.641  0.00  0.00    +0.000 NA
ATOM      5  C   UNL     1      37.029  31.245  48.578  0.00  0.00    +0.000 A 
ATOM      6  N   UNL     1      36.970  32.245  49.487  0.00  0.00    +0.000 NA
ATOM      7  H   UNL     1      37.836  34.055  50.188  0.00  0.00    +0.000 HD
ATOM      8  H   UNL     1      39.719  32.258  46.828  0.00  0.00    +0.000 HD
ENDROOT
BRANCH   5  11
ATOM      9 BR   UNL     1      37.271  29.447  51.122  0.00  0.00    +0.000 Br
ATOM     10  C   UNL     1      35.995  29.321  49.713  0.00  0.00    +0.000 A 
ATOM     11  C   UNL     1      36.028  30.196  48.658  0.00  0.00    +0.000 A 
ATOM     12  C   UNL     1      35.061  30.043  47.664  0.00  0.00    +0.000 A 
ATOM     13  C   UNL     1      34.092  29.055  47.710  0.00  0.00    +0.000 A 
ATOM     14  C   UNL     1      34.102  28.199  48.791  0.00  0.00    +0.000 A 
ATOM     15  C   UNL     1      35.062  28.344  49.788  0.00  0.00    +0.000 A 
ATOM     16  H   UNL     1      35.040  30.708  46.807  0.00  0.00    +0.000 HD
ATOM     17  H   UNL     1      33.358  28.961  46.925  0.00  0.00    +0.000 HD
ATOM     18  H   UNL     1      33.340  27.429  48.819  0.00  0.00    +0.000 HD
ATOM     19  H   UNL     1      35.029  27.648  50.617  0.00  0.00    +0.000 HD
ENDBRANCH   5  11
BRANCH   2  20
ATOM     20  O   UNL     1      39.791  34.321  48.515  0.00  0.00    +0.000 OA
BRANCH  20  21
ATOM     21  C   UNL     1      40.790  34.299  47.526  0.00  0.00    +0.000 C 
ATOM     22  C   UNL     1      41.459  33.165  47.332  0.00  0.00    +0.000 C 
BRANCH  22  23
ATOM     23  C   UNL     1      42.564  32.750  46.400  0.00  0.00    +0.000 C 
ATOM     24  H   UNL     1      42.848  33.632  45.756  0.00  0.00    +0.000 HD
ENDBRANCH  22  23
ENDBRANCH  20  21
ENDBRANCH   2  20
TORSDOF 4
