
     RDKit          3D

 18 18  0  0  0  0  0  0  0  0999 V2000
   36.8979   29.8950   51.3072 C   0  0  0  0  0  0  0  0  0  0  0  0
   37.5872   30.2231   50.1291 C   0  0  0  0  0  0  0  0  0  0  0  0
   37.0010   29.8746   48.9124 C   0  0  0  0  0  0  0  0  0  0  0  0
   35.8116   29.2451   48.9251 N   0  0  0  0  0  0  0  0  0  0  0  0
   35.1666   28.9396   50.0750 C   0  0  0  0  0  0  0  0  0  0  0  0
   35.6960   29.2580   51.2900 N   0  0  0  0  0  0  0  0  0  0  0  0
   38.7787   30.8616   50.3681 O   0  0  0  0  0  0  0  0  0  0  0  0
   37.2725   30.1248   52.3123 H   0  0  0  0  0  0  0  0  0  0  0  0
   37.5795   30.1547   48.0737 H   0  0  0  0  0  0  0  0  0  0  0  0
   34.2029   28.4289   50.0624 H   0  0  0  0  0  0  0  0  0  0  0  0
   39.6543   31.2944   49.3828 C   0  0  0  0  0  0  0  0  0  0  0  0
   40.3550   30.8822   48.3386 C   0  0  0  0  0  0  0  0  0  0  0  0
   41.2095   31.8349   47.5558 C   0  0  0  0  0  0  0  0  0  0  0  0
   41.1169   32.8645   48.0036 H   0  0  0  0  0  0  0  0  0  0  0  0
   39.6983   32.3333   49.6761 H   0  0  0  0  0  0  0  0  0  0  0  0
   40.3332   29.8541   48.0202 H   0  0  0  0  0  0  0  0  0  0  0  0
   40.9529   31.8185   46.4870 H   0  0  0  0  0  0  0  0  0  0  0  0
   42.2650   31.5401   47.6898 H   0  0  0  0  0  0  0  0  0  0  0  0
  2  7  1  0
  2  1  2  0
  3  4  2  0
  3  2  1  0
  4  5  1  0
  5  6  2  0
  6  1  1  0
  1  8  1  0
  3  9  1  0
  5 10  1  0
 11 12  2  3
 12 13  1  0
 13 14  1  0
 11 15  1  0
 12 16  1  0
 13 17  1  0
 13 18  1  0
  7 11  1  0
M  ISO  4   8  14   9  14  10  14  14   8
M  END
>  <DihAtoms>  (1) 
1,6,10,11

>  <DihDeg>  (1) 
78.88149911951704

$$$$
