
 OpenBabel03272503123D

 41 44  0  0  0  0  0  0  0  0999 V2000
   39.2870   31.9110   44.9610 C   0  0  0  0  0  0  0  0  0  0  0  0
   38.1950   32.5560   45.0780 O   0  0  0  0  0  0  0  0  0  0  0  0
   39.9750   31.6530   46.1710 N   0  0  0  0  0  0  0  0  0  0  0  0
   40.8690   31.1300   46.0910 H   0  0  0  0  0  0  0  0  0  0  0  0
   39.1920   32.2280   42.5800 C   0  0  0  0  0  0  0  0  0  0  0  0
   39.7260   31.5060   43.6320 C   0  0  0  0  0  0  0  0  0  0  0  0
   40.6040   30.4800   43.4730 C   0  0  0  0  0  0  0  0  0  0  0  0
   41.0020   30.1170   42.1970 C   0  0  0  0  0  0  0  0  0  0  0  0
   41.8290   29.1750   41.7320 N   0  0  0  0  0  0  0  0  0  0  0  0
   41.8430   29.2700   40.3980 C   0  0  0  0  0  0  0  0  0  0  0  0
   41.0250   30.2730   40.0180 N   0  0  0  0  0  0  0  0  0  0  0  0
   40.4820   30.8250   41.1330 C   0  0  0  0  0  0  0  0  0  0  0  0
   39.5930   31.8640   41.2880 C   0  0  0  0  0  0  0  0  0  0  0  0
   38.4870   33.0560   42.6770 H   0  0  0  0  0  0  0  0  0  0  0  0
   41.0070   29.9300   44.3300 H   0  0  0  0  0  0  0  0  0  0  0  0
   42.3890   28.4640   42.2740 H   0  0  0  0  0  0  0  0  0  0  0  0
   42.3990   28.6710   39.6740 H   0  0  0  0  0  0  0  0  0  0  0  0
   39.0700   32.5760   40.2100 O   0  0  0  0  0  0  0  0  0  0  0  0
   38.3600   33.7290   40.3340 C   0  0  0  0  0  2  0  0  0  0  0  0
   37.1620   34.1320   40.6910 C   0  0  0  0  0  2  0  0  0  0  0  0
   35.7410   34.2590   41.1450 C   0  0  0  0  0  2  0  0  0  0  0  0
   35.1280   34.7100   40.3400 H   0  0  0  0  0  0  0  0  0  0  0  0
   38.1300   30.1610   47.5010 F   0  0  0  0  0  0  0  0  0  0  0  0
   38.3750   31.3940   47.9970 C   0  0  0  0  0  0  0  0  0  0  0  0
   37.7170   31.8370   49.1030 C   0  0  0  0  0  0  0  0  0  0  0  0
   38.0180   33.1000   49.5500 C   0  0  0  0  0  0  0  0  0  0  0  0
   38.9350   33.9030   48.9290 C   0  0  0  0  0  0  0  0  0  0  0  0
   39.5990   33.4380   47.8020 C   0  0  0  0  0  0  0  0  0  0  0  0
   39.3090   32.1660   47.3360 C   0  0  0  0  0  0  0  0  0  0  0  0
   37.5020   33.4640   50.4280 H   0  0  0  0  0  0  0  0  0  0  0  0
   39.1780   34.9000   49.2750 H   0  0  0  0  0  0  0  0  0  0  0  0
   40.3350   33.9900   47.2430 H   0  0  0  0  0  0  0  0  0  0  0  0
   36.0660   29.3500   51.4440 C   0  0  0  0  0  0  0  0  0  0  0  0
   37.0230   30.2100   50.8610 C   0  0  0  0  0  0  0  0  0  0  0  0
   36.7450   30.9380   49.7290 C   0  0  0  0  0  0  0  0  0  0  0  0
   35.4830   30.7810   49.1950 N   0  0  0  0  0  0  0  0  0  0  0  0
   34.5700   29.9650   49.7440 C   0  0  0  0  0  0  0  0  0  0  0  0
   34.8570   29.2690   50.8410 N   0  0  0  0  0  0  0  0  0  0  0  0
   36.3370   28.8010   52.3340 H   0  0  0  0  0  0  0  0  0  0  0  0
   38.0190   30.3200   51.3010 H   0  0  0  0  0  0  0  0  0  0  0  0
   33.6000   29.8800   49.2880 H   0  0  0  0  0  0  0  0  0  0  0  0
  1  2  2  0  0  0  0
  1  3  1  0  0  0  0
  3 29  1  0  0  0  0
  4  3  1  0  0  0  0
  5 14  1  0  0  0  0
  5  6  1  0  0  0  0
  6  1  1  0  0  0  0
  7  6  2  0  0  0  0
  7 15  1  0  0  0  0
  8  7  1  0  0  0  0
  9  8  1  0  0  0  0
  9 16  1  0  0  0  0
 10  9  1  0  0  0  0
 11 10  2  0  0  0  0
 11 12  1  0  0  0  0
 12 13  1  0  0  0  0
 12  8  2  0  0  0  0
 13  5  2  0  0  0  0
 17 10  1  0  0  0  0
 18 19  1  0  0  0  0
 18 13  1  0  0  0  0
 19 20  1  0  0  0  0
 20 21  1  0  0  0  0
 22 21  1  0  0  0  0
 23 24  1  0  0  0  0
 24 25  1  0  0  0  0
 25 26  2  0  0  0  0
 25 35  1  0  0  0  0
 26 30  1  0  0  0  0
 27 31  1  0  0  0  0
 27 26  1  0  0  0  0
 28 27  2  0  0  0  0
 29 28  1  0  0  0  0
 29 24  2  0  0  0  0
 32 28  1  0  0  0  0
 33 39  1  0  0  0  0
 34 40  1  0  0  0  0
 34 33  1  0  0  0  0
 35 34  2  0  0  0  0
 36 35  1  0  0  0  0
 36 37  2  0  0  0  0
 37 38  1  0  0  0  0
 38 33  2  0  0  0  0
 41 37  1  0  0  0  0
M  END
>  <minimizedAffinity>
-7.29551935

>  <minimizedRMSD>
0.205906153

$$$$
