
 OpenBabel03272509183D

 28 29  0  0  0  0  0  0  0  0999 V2000
   37.4190   31.4260   47.4670 C   0  0  0  0  0  0  0  0  0  0  0  0
   36.7650   31.1500   48.6590 C   0  0  0  0  0  0  0  0  0  0  0  0
   37.1480   31.9680   49.7290 C   0  0  0  0  0  0  0  0  0  0  0  0
   38.1120   32.9700   49.5730 C   0  0  0  0  0  0  0  0  0  0  0  0
   38.7140   33.1680   48.3190 C   0  0  0  0  0  0  0  0  0  0  0  0
   38.3460   32.3740   47.2690 C   0  0  0  0  0  0  0  0  0  0  0  0
   36.6800   31.8010   50.6710 H   0  0  0  0  0  0  0  0  0  0  0  0
   38.4060   33.6010   50.4010 H   0  0  0  0  0  0  0  0  0  0  0  0
   39.4640   33.9360   48.1650 H   0  0  0  0  0  0  0  0  0  0  0  0
   34.5940   30.1710   48.0810 C   0  0  0  0  0  0  0  0  0  0  0  0
   35.7770   30.1210   48.8180 C   0  0  0  0  0  0  0  0  0  0  0  0
   35.9590   29.0500   49.7000 C   0  0  0  0  0  0  0  0  0  0  0  0
   34.9730   28.1170   49.7910 N   0  0  0  0  0  0  0  0  0  0  0  0
   33.8320   28.2090   49.0500 C   0  0  0  0  0  0  0  0  0  0  0  0
   33.6470   29.2240   48.2050 N   0  0  0  0  0  0  0  0  0  0  0  0
   34.4620   31.0010   47.4040 H   0  0  0  0  0  0  0  0  0  0  0  0
   33.1350   27.3850   49.2320 H   0  0  0  0  0  0  0  0  0  0  0  0
   37.1930   28.9440   50.5060 C   0  0  0  0  0  0  0  0  0  0  0  0
   37.4010   29.8530   51.0850 H   0  0  0  0  0  0  0  0  0  0  0  0
   38.0450   28.7590   49.8140 H   0  0  0  0  0  0  0  0  0  0  0  0
   37.1000   28.0570   51.1620 H   0  0  0  0  0  0  0  0  0  0  0  0
   37.0830   30.6380   46.3330 O   0  0  0  0  0  0  0  0  0  0  0  0
   36.1830   30.6740   45.9060 H   0  0  0  0  0  0  0  0  0  0  0  0
   38.9600   32.5910   46.0310 O   0  0  0  0  0  0  0  0  0  0  0  0
   40.2960   32.8230   45.8790 C   0  0  0  0  0  3  0  0  0  0  0  0
   41.1300   32.1900   45.0700 C   0  0  0  0  0  3  0  0  0  0  0  0
   40.6080   31.0980   44.2100 C   0  0  0  0  0  2  0  0  0  0  0  0
   39.5160   31.2410   44.0810 H   0  0  0  0  0  0  0  0  0  0  0  0
  1  2  1  0  0  0  0
  2 11  1  0  0  0  0
  2  3  2  0  0  0  0
  3  7  1  0  0  0  0
  4  3  1  0  0  0  0
  4  8  1  0  0  0  0
  5  4  2  0  0  0  0
  6  1  2  0  0  0  0
  6  5  1  0  0  0  0
  9  5  1  0  0  0  0
 10 15  2  0  0  0  0
 10 11  1  0  0  0  0
 11 12  2  0  0  0  0
 12 13  1  0  0  0  0
 12 18  1  0  0  0  0
 14 17  1  0  0  0  0
 14 13  2  0  0  0  0
 15 14  1  0  0  0  0
 16 10  1  0  0  0  0
 18 19  1  0  0  0  0
 18 21  1  0  0  0  0
 20 18  1  0  0  0  0
 22  1  1  0  0  0  0
 23 22  1  0  0  0  0
 24  6  1  0  0  0  0
 25 24  1  0  0  0  0
 26 25  2  0  0  0  0
 27 26  1  0  0  0  0
 28 27  1  0  0  0  0
M  END
>  <minimizedAffinity>
-5.94966125

>  <minimizedRMSD>
0.912837982

$$$$
