
 OpenBabel03272509183D

 28 29  0  0  0  0  0  0  0  0999 V2000
   38.0310   31.3770   47.7350 C   0  0  0  0  0  0  0  0  0  0  0  0
   37.0620   31.3230   48.7280 C   0  0  0  0  0  0  0  0  0  0  0  0
   37.1310   32.3680   49.6570 C   0  0  0  0  0  0  0  0  0  0  0  0
   38.1070   33.3670   49.5610 C   0  0  0  0  0  0  0  0  0  0  0  0
   39.0430   33.3280   48.5140 C   0  0  0  0  0  0  0  0  0  0  0  0
   38.9830   32.3110   47.6030 C   0  0  0  0  0  0  0  0  0  0  0  0
   36.4130   32.3790   50.4430 H   0  0  0  0  0  0  0  0  0  0  0  0
   38.1580   34.1740   50.2800 H   0  0  0  0  0  0  0  0  0  0  0  0
   39.8110   34.0860   48.4120 H   0  0  0  0  0  0  0  0  0  0  0  0
   34.9330   30.3460   48.0060 C   0  0  0  0  0  0  0  0  0  0  0  0
   36.0620   30.2980   48.8240 C   0  0  0  0  0  0  0  0  0  0  0  0
   36.1790   29.2330   49.7240 C   0  0  0  0  0  0  0  0  0  0  0  0
   35.1860   28.3040   49.7530 N   0  0  0  0  0  0  0  0  0  0  0  0
   34.1000   28.3930   48.9330 C   0  0  0  0  0  0  0  0  0  0  0  0
   33.9780   29.4020   48.0710 N   0  0  0  0  0  0  0  0  0  0  0  0
   34.8520   31.1710   47.3160 H   0  0  0  0  0  0  0  0  0  0  0  0
   33.3890   27.5720   49.0730 H   0  0  0  0  0  0  0  0  0  0  0  0
   37.3530   29.1300   50.6150 C   0  0  0  0  0  0  0  0  0  0  0  0
   37.5230   30.0420   51.2010 H   0  0  0  0  0  0  0  0  0  0  0  0
   38.2520   28.9380   49.9860 H   0  0  0  0  0  0  0  0  0  0  0  0
   37.2120   28.2470   51.2690 H   0  0  0  0  0  0  0  0  0  0  0  0
   38.0270   30.3490   46.7530 O   0  0  0  0  0  0  0  0  0  0  0  0
   37.2860   30.2440   46.0950 H   0  0  0  0  0  0  0  0  0  0  0  0
   39.9260   32.2950   46.5700 O   0  0  0  0  0  0  0  0  0  0  0  0
   39.9570   33.2110   45.5590 C   0  0  0  0  0  0  0  0  0  0  0  0
   40.1060   32.9690   44.2660 C   0  0  0  0  0  0  0  0  0  0  0  0
   40.2630   31.5640   43.8100 C   0  0  0  0  0  0  0  0  0  0  0  0
   39.8300   30.8920   44.5800 H   0  0  0  0  0  0  0  0  0  0  0  0
  1  2  1  0  0  0  0
  2 11  1  0  0  0  0
  2  3  2  0  0  0  0
  3  7  1  0  0  0  0
  4  3  1  0  0  0  0
  4  8  1  0  0  0  0
  5  4  2  0  0  0  0
  6  1  2  0  0  0  0
  6  5  1  0  0  0  0
  9  5  1  0  0  0  0
 10 15  2  0  0  0  0
 10 11  1  0  0  0  0
 11 12  2  0  0  0  0
 12 13  1  0  0  0  0
 12 18  1  0  0  0  0
 14 17  1  0  0  0  0
 14 13  2  0  0  0  0
 15 14  1  0  0  0  0
 16 10  1  0  0  0  0
 18 19  1  0  0  0  0
 18 21  1  0  0  0  0
 20 18  1  0  0  0  0
 22  1  1  0  0  0  0
 23 22  1  0  0  0  0
 24  6  1  0  0  0  0
 25 24  1  0  0  0  0
 26 25  2  0  0  0  0
 27 26  1  0  0  0  0
 27 28  1  0  0  0  0
M  END
>  <minimizedAffinity>
-6.18016529

>  <minimizedRMSD>
0.793585837

$$$$
