
 OpenBabel03272509183D

 28 29  0  0  0  0  0  0  0  0999 V2000
   37.4190   31.4270   47.4660 C   0  0  0  0  0  0  0  0  0  0  0  0
   36.7650   31.1500   48.6590 C   0  0  0  0  0  0  0  0  0  0  0  0
   37.1490   31.9670   49.7290 C   0  0  0  0  0  0  0  0  0  0  0  0
   38.1130   32.9690   49.5720 C   0  0  0  0  0  0  0  0  0  0  0  0
   38.7150   33.1680   48.3190 C   0  0  0  0  0  0  0  0  0  0  0  0
   38.3460   32.3740   47.2680 C   0  0  0  0  0  0  0  0  0  0  0  0
   36.6820   31.8000   50.6710 H   0  0  0  0  0  0  0  0  0  0  0  0
   38.4080   33.6000   50.4010 H   0  0  0  0  0  0  0  0  0  0  0  0
   39.4650   33.9350   48.1650 H   0  0  0  0  0  0  0  0  0  0  0  0
   34.5940   30.1720   48.0800 C   0  0  0  0  0  0  0  0  0  0  0  0
   35.7770   30.1210   48.8170 C   0  0  0  0  0  0  0  0  0  0  0  0
   35.9580   29.0510   49.7000 C   0  0  0  0  0  0  0  0  0  0  0  0
   34.9720   28.1180   49.7910 N   0  0  0  0  0  0  0  0  0  0  0  0
   33.8310   28.2090   49.0490 C   0  0  0  0  0  0  0  0  0  0  0  0
   33.6470   29.2240   48.2050 N   0  0  0  0  0  0  0  0  0  0  0  0
   34.4620   31.0010   47.4030 H   0  0  0  0  0  0  0  0  0  0  0  0
   33.1340   27.3860   49.2320 H   0  0  0  0  0  0  0  0  0  0  0  0
   37.1920   28.9440   50.5050 C   0  0  0  0  0  0  0  0  0  0  0  0
   37.4000   29.8530   51.0840 H   0  0  0  0  0  0  0  0  0  0  0  0
   38.0450   28.7590   49.8140 H   0  0  0  0  0  0  0  0  0  0  0  0
   37.0990   28.0570   51.1610 H   0  0  0  0  0  0  0  0  0  0  0  0
   37.0820   30.6390   46.3320 O   0  0  0  0  0  0  0  0  0  0  0  0
   36.1820   30.6750   45.9050 H   0  0  0  0  0  0  0  0  0  0  0  0
   38.9600   32.5910   46.0300 O   0  0  0  0  0  0  0  0  0  0  0  0
   40.2960   32.8240   45.8780 C   0  0  0  0  0  3  0  0  0  0  0  0
   41.1300   32.1900   45.0690 C   0  0  0  0  0  3  0  0  0  0  0  0
   40.6080   31.0970   44.2100 C   0  0  0  0  0  2  0  0  0  0  0  0
   39.5150   31.2390   44.0810 H   0  0  0  0  0  0  0  0  0  0  0  0
  1  2  1  0  0  0  0
  2 11  1  0  0  0  0
  2  3  2  0  0  0  0
  3  7  1  0  0  0  0
  4  3  1  0  0  0  0
  4  8  1  0  0  0  0
  5  4  2  0  0  0  0
  6  1  2  0  0  0  0
  6  5  1  0  0  0  0
  9  5  1  0  0  0  0
 10 15  2  0  0  0  0
 10 11  1  0  0  0  0
 11 12  2  0  0  0  0
 12 13  1  0  0  0  0
 12 18  1  0  0  0  0
 14 17  1  0  0  0  0
 14 13  2  0  0  0  0
 15 14  1  0  0  0  0
 16 10  1  0  0  0  0
 18 19  1  0  0  0  0
 18 21  1  0  0  0  0
 20 18  1  0  0  0  0
 22  1  1  0  0  0  0
 23 22  1  0  0  0  0
 24  6  1  0  0  0  0
 25 24  1  0  0  0  0
 26 25  2  0  0  0  0
 27 26  1  0  0  0  0
 28 27  1  0  0  0  0
M  END
>  <minimizedAffinity>
-5.94743443

>  <minimizedRMSD>
1.01658583

$$$$
