
 OpenBabel03272509183D

 28 29  0  0  0  0  0  0  0  0999 V2000
   38.0080   31.3630   47.7720 C   0  0  0  0  0  0  0  0  0  0  0  0
   37.0270   31.3030   48.7520 C   0  0  0  0  0  0  0  0  0  0  0  0
   37.0840   32.3420   49.6890 C   0  0  0  0  0  0  0  0  0  0  0  0
   38.0620   33.3410   49.6120 C   0  0  0  0  0  0  0  0  0  0  0  0
   39.0110   33.3090   48.5770 C   0  0  0  0  0  0  0  0  0  0  0  0
   38.9620   32.2980   47.6580 C   0  0  0  0  0  0  0  0  0  0  0  0
   36.3560   32.3470   50.4660 H   0  0  0  0  0  0  0  0  0  0  0  0
   38.1040   34.1430   50.3370 H   0  0  0  0  0  0  0  0  0  0  0  0
   39.7800   34.0670   48.4900 H   0  0  0  0  0  0  0  0  0  0  0  0
   34.9050   30.3340   48.0000 C   0  0  0  0  0  0  0  0  0  0  0  0
   36.0260   30.2780   48.8290 C   0  0  0  0  0  0  0  0  0  0  0  0
   36.1320   29.2050   49.7200 C   0  0  0  0  0  0  0  0  0  0  0  0
   35.1390   28.2750   49.7300 N   0  0  0  0  0  0  0  0  0  0  0  0
   34.0610   28.3720   48.9000 C   0  0  0  0  0  0  0  0  0  0  0  0
   33.9480   29.3900   48.0460 N   0  0  0  0  0  0  0  0  0  0  0  0
   34.8310   31.1650   47.3160 H   0  0  0  0  0  0  0  0  0  0  0  0
   33.3490   27.5510   49.0250 H   0  0  0  0  0  0  0  0  0  0  0  0
   37.2980   29.0920   50.6220 C   0  0  0  0  0  0  0  0  0  0  0  0
   37.4620   29.9980   51.2170 H   0  0  0  0  0  0  0  0  0  0  0  0
   38.2020   28.9050   50.0000 H   0  0  0  0  0  0  0  0  0  0  0  0
   37.1490   28.2040   51.2660 H   0  0  0  0  0  0  0  0  0  0  0  0
   38.0160   30.3420   46.7830 O   0  0  0  0  0  0  0  0  0  0  0  0
   37.2830   30.2420   46.1150 H   0  0  0  0  0  0  0  0  0  0  0  0
   39.9180   32.2880   46.6360 O   0  0  0  0  0  0  0  0  0  0  0  0
   39.9600   33.2090   45.6300 C   0  0  0  0  0  3  0  0  0  0  0  0
   40.1250   32.9730   44.3380 C   0  0  0  0  0  3  0  0  0  0  0  0
   40.2870   31.5700   43.8780 C   0  0  0  0  0  2  0  0  0  0  0  0
   39.8470   30.8940   44.6400 H   0  0  0  0  0  0  0  0  0  0  0  0
  1  2  1  0  0  0  0
  2 11  1  0  0  0  0
  2  3  2  0  0  0  0
  3  7  1  0  0  0  0
  4  3  1  0  0  0  0
  4  8  1  0  0  0  0
  5  4  2  0  0  0  0
  6  1  2  0  0  0  0
  6  5  1  0  0  0  0
  9  5  1  0  0  0  0
 10 15  2  0  0  0  0
 10 11  1  0  0  0  0
 11 12  2  0  0  0  0
 12 13  1  0  0  0  0
 12 18  1  0  0  0  0
 14 17  1  0  0  0  0
 14 13  2  0  0  0  0
 15 14  1  0  0  0  0
 16 10  1  0  0  0  0
 18 19  1  0  0  0  0
 18 21  1  0  0  0  0
 20 18  1  0  0  0  0
 22  1  1  0  0  0  0
 23 22  1  0  0  0  0
 24  6  1  0  0  0  0
 25 24  1  0  0  0  0
 26 25  2  0  0  0  0
 27 26  1  0  0  0  0
 27 28  1  0  0  0  0
M  END
>  <minimizedAffinity>
-6.16855097

>  <minimizedRMSD>
0.680527508

$$$$
