
 OpenBabel03272509183D

 28 29  0  0  0  0  0  0  0  0999 V2000
   37.9960   31.3350   47.7120 C   0  0  0  0  0  0  0  0  0  0  0  0
   37.0340   31.2850   48.7110 C   0  0  0  0  0  0  0  0  0  0  0  0
   37.1170   32.3260   49.6440 C   0  0  0  0  0  0  0  0  0  0  0  0
   38.1000   33.3170   49.5450 C   0  0  0  0  0  0  0  0  0  0  0  0
   39.0290   33.2750   48.4920 C   0  0  0  0  0  0  0  0  0  0  0  0
   38.9550   32.2620   47.5770 C   0  0  0  0  0  0  0  0  0  0  0  0
   36.4040   32.3400   50.4340 H   0  0  0  0  0  0  0  0  0  0  0  0
   38.1620   34.1210   50.2670 H   0  0  0  0  0  0  0  0  0  0  0  0
   39.8030   34.0270   48.3880 H   0  0  0  0  0  0  0  0  0  0  0  0
   34.8980   30.3220   47.9920 C   0  0  0  0  0  0  0  0  0  0  0  0
   36.0260   30.2680   48.8100 C   0  0  0  0  0  0  0  0  0  0  0  0
   36.1340   29.2050   49.7140 C   0  0  0  0  0  0  0  0  0  0  0  0
   35.1350   28.2830   49.7450 N   0  0  0  0  0  0  0  0  0  0  0  0
   34.0500   28.3770   48.9250 C   0  0  0  0  0  0  0  0  0  0  0  0
   33.9350   29.3850   48.0600 N   0  0  0  0  0  0  0  0  0  0  0  0
   34.8230   31.1450   47.2990 H   0  0  0  0  0  0  0  0  0  0  0  0
   33.3330   27.5630   49.0670 H   0  0  0  0  0  0  0  0  0  0  0  0
   37.3080   29.0950   50.6050 C   0  0  0  0  0  0  0  0  0  0  0  0
   37.4850   30.0070   51.1880 H   0  0  0  0  0  0  0  0  0  0  0  0
   38.2050   28.8940   49.9760 H   0  0  0  0  0  0  0  0  0  0  0  0
   37.1600   28.2160   51.2610 H   0  0  0  0  0  0  0  0  0  0  0  0
   37.9770   30.3110   46.7270 O   0  0  0  0  0  0  0  0  0  0  0  0
   37.2310   30.2140   46.0730 H   0  0  0  0  0  0  0  0  0  0  0  0
   39.8910   32.2420   46.5380 O   0  0  0  0  0  0  0  0  0  0  0  0
   40.1840   33.3250   45.7620 C   0  0  0  0  0  3  0  0  0  0  0  0
   39.9680   33.4580   44.4610 C   0  0  0  0  0  3  0  0  0  0  0  0
   39.3430   32.3350   43.7180 C   0  0  0  0  0  2  0  0  0  0  0  0
   38.7810   31.7040   44.4370 H   0  0  0  0  0  0  0  0  0  0  0  0
  1  2  1  0  0  0  0
  2 11  1  0  0  0  0
  2  3  2  0  0  0  0
  3  7  1  0  0  0  0
  4  3  1  0  0  0  0
  4  8  1  0  0  0  0
  5  4  2  0  0  0  0
  6  1  2  0  0  0  0
  6  5  1  0  0  0  0
  9  5  1  0  0  0  0
 10 15  2  0  0  0  0
 10 11  1  0  0  0  0
 11 12  2  0  0  0  0
 12 13  1  0  0  0  0
 12 18  1  0  0  0  0
 14 17  1  0  0  0  0
 14 13  2  0  0  0  0
 15 14  1  0  0  0  0
 16 10  1  0  0  0  0
 18 19  1  0  0  0  0
 18 21  1  0  0  0  0
 20 18  1  0  0  0  0
 22  1  1  0  0  0  0
 23 22  1  0  0  0  0
 24  6  1  0  0  0  0
 25 24  1  0  0  0  0
 26 25  2  0  0  0  0
 27 28  1  0  0  0  0
 27 26  1  0  0  0  0
M  END
>  <minimizedAffinity>
-6.12967253

>  <minimizedRMSD>
0.556629717

$$$$
