
 OpenBabel03272509183D

 28 29  0  0  0  0  0  0  0  0999 V2000
   37.9960   31.3340   47.7130 C   0  0  0  0  0  0  0  0  0  0  0  0
   37.0340   31.2850   48.7120 C   0  0  0  0  0  0  0  0  0  0  0  0
   37.1170   32.3270   49.6440 C   0  0  0  0  0  0  0  0  0  0  0  0
   38.1000   33.3180   49.5450 C   0  0  0  0  0  0  0  0  0  0  0  0
   39.0290   33.2750   48.4920 C   0  0  0  0  0  0  0  0  0  0  0  0
   38.9550   32.2620   47.5770 C   0  0  0  0  0  0  0  0  0  0  0  0
   36.4040   32.3400   50.4340 H   0  0  0  0  0  0  0  0  0  0  0  0
   38.1620   34.1220   50.2660 H   0  0  0  0  0  0  0  0  0  0  0  0
   39.8020   34.0270   48.3870 H   0  0  0  0  0  0  0  0  0  0  0  0
   34.8970   30.3220   47.9930 C   0  0  0  0  0  0  0  0  0  0  0  0
   36.0260   30.2680   48.8110 C   0  0  0  0  0  0  0  0  0  0  0  0
   36.1350   29.2050   49.7140 C   0  0  0  0  0  0  0  0  0  0  0  0
   35.1350   28.2830   49.7460 N   0  0  0  0  0  0  0  0  0  0  0  0
   34.0500   28.3770   48.9260 C   0  0  0  0  0  0  0  0  0  0  0  0
   33.9350   29.3850   48.0610 N   0  0  0  0  0  0  0  0  0  0  0  0
   34.8220   31.1450   47.3000 H   0  0  0  0  0  0  0  0  0  0  0  0
   33.3330   27.5630   49.0680 H   0  0  0  0  0  0  0  0  0  0  0  0
   37.3080   29.0950   50.6050 C   0  0  0  0  0  0  0  0  0  0  0  0
   37.4850   30.0080   51.1880 H   0  0  0  0  0  0  0  0  0  0  0  0
   38.2050   28.8950   49.9760 H   0  0  0  0  0  0  0  0  0  0  0  0
   37.1610   28.2160   51.2620 H   0  0  0  0  0  0  0  0  0  0  0  0
   37.9770   30.3100   46.7280 O   0  0  0  0  0  0  0  0  0  0  0  0
   37.2310   30.2140   46.0740 H   0  0  0  0  0  0  0  0  0  0  0  0
   39.8910   32.2410   46.5380 O   0  0  0  0  0  0  0  0  0  0  0  0
   40.1850   33.3250   45.7630 C   0  0  0  0  0  3  0  0  0  0  0  0
   39.9690   33.4600   44.4630 C   0  0  0  0  0  3  0  0  0  0  0  0
   39.3420   32.3380   43.7180 C   0  0  0  0  0  2  0  0  0  0  0  0
   38.7800   31.7070   44.4370 H   0  0  0  0  0  0  0  0  0  0  0  0
  1  2  1  0  0  0  0
  2 11  1  0  0  0  0
  2  3  2  0  0  0  0
  3  7  1  0  0  0  0
  4  3  1  0  0  0  0
  4  8  1  0  0  0  0
  5  4  2  0  0  0  0
  6  1  2  0  0  0  0
  6  5  1  0  0  0  0
  9  5  1  0  0  0  0
 10 15  2  0  0  0  0
 10 11  1  0  0  0  0
 11 12  2  0  0  0  0
 12 13  1  0  0  0  0
 12 18  1  0  0  0  0
 14 17  1  0  0  0  0
 14 13  2  0  0  0  0
 15 14  1  0  0  0  0
 16 10  1  0  0  0  0
 18 19  1  0  0  0  0
 18 21  1  0  0  0  0
 20 18  1  0  0  0  0
 22  1  1  0  0  0  0
 23 22  1  0  0  0  0
 24  6  1  0  0  0  0
 25 24  1  0  0  0  0
 26 25  2  0  0  0  0
 27 28  1  0  0  0  0
 27 26  1  0  0  0  0
M  END
>  <minimizedAffinity>
-6.12934828

>  <minimizedRMSD>
0.603504658

$$$$
