
 OpenBabel03272507563D

 22 23  0  0  0  0  0  0  0  0999 V2000
   40.1620   22.5540   37.4260 C   0  0  0  0  0  0  0  0  0  0  0  0
   39.2490   23.5900   37.0870 C   0  0  0  0  0  0  0  0  0  0  0  0
   39.5310   24.3660   35.9730 C   0  0  0  0  0  0  0  0  0  0  0  0
   40.6660   24.0960   35.2650 N   0  0  0  0  0  0  0  0  0  0  0  0
   41.5130   23.1080   35.6110 C   0  0  0  0  0  0  0  0  0  0  0  0
   41.2620   22.3320   36.6950 N   0  0  0  0  0  0  0  0  0  0  0  0
   42.6220   23.0220   34.7220 N   0  0  0  0  0  0  0  0  0  0  0  0
   39.9470   21.9590   38.2770 H   0  0  0  0  0  0  0  0  0  0  0  0
   42.4710   22.9760   33.7000 H   0  0  0  0  0  0  0  0  0  0  0  0
   43.5280   23.0120   35.2450 H   0  0  0  0  0  0  0  0  0  0  0  0
   38.6600   25.4570   35.5750 C   0  0  0  0  0  0  0  0  0  0  0  0
   38.8800   26.7730   35.9250 C   0  0  0  0  0  0  0  0  0  0  0  0
   39.7180   27.1410   36.5280 H   0  0  0  0  0  0  0  0  0  0  0  0
   37.9070   27.6090   35.4220 C   0  0  0  0  0  0  0  0  0  0  0  0
   37.7700   28.6770   35.4980 H   0  0  0  0  0  0  0  0  0  0  0  0
   37.0900   26.7240   34.7500 C   0  0  0  0  0  0  0  0  0  0  0  0
   36.1820   26.9140   34.1880 H   0  0  0  0  0  0  0  0  0  0  0  0
   37.5680   25.5370   34.8760 O   0  0  0  0  0  0  0  0  0  0  0  0
   38.0390   23.7970   37.9350 C   0  0  0  0  0  0  0  0  0  0  0  0
   36.8880   23.6760   37.1850 F   0  0  0  0  0  0  0  0  0  0  0  0
   38.0440   22.8630   38.9300 F   0  0  0  0  0  0  0  0  0  0  0  0
   38.0220   25.0510   38.5220 F   0  0  0  0  0  0  0  0  0  0  0  0
  1  8  1  0  0  0  0
  2  1  1  0  0  0  0
  2 19  1  0  0  0  0
  3  2  2  0  0  0  0
  4  5  2  0  0  0  0
  4  3  1  0  0  0  0
  5  6  1  0  0  0  0
  6  1  2  0  0  0  0
  7 10  1  0  0  0  0
  7  5  1  0  0  0  0
  9  7  1  0  0  0  0
 11 12  2  0  0  0  0
 11  3  1  0  0  0  0
 12 13  1  0  0  0  0
 14 15  1  0  0  0  0
 14 12  1  0  0  0  0
 16 18  1  0  0  0  0
 16 14  2  0  0  0  0
 17 16  1  0  0  0  0
 18 11  1  0  0  0  0
 19 22  1  0  0  0  0
 19 21  1  0  0  0  0
 20 19  1  0  0  0  0
M  END
>  <minimizedAffinity>
-4.78794098

$$$$

 OpenBabel03272507563D

 22 23  0  0  0  0  0  0  0  0999 V2000
   40.7310   22.9950   36.3770 C   0  0  0  0  0  0  0  0  0  0  0  0
   40.1250   24.0930   35.7060 C   0  0  0  0  0  0  0  0  0  0  0  0
   38.9530   24.6110   36.2360 C   0  0  0  0  0  0  0  0  0  0  0  0
   38.4460   24.0420   37.3670 N   0  0  0  0  0  0  0  0  0  0  0  0
   39.0420   23.0010   37.9810 C   0  0  0  0  0  0  0  0  0  0  0  0
   40.1890   22.4750   37.4860 N   0  0  0  0  0  0  0  0  0  0  0  0
   38.3260   22.5840   39.1380 N   0  0  0  0  0  0  0  0  0  0  0  0
   41.6280   22.5980   35.9730 H   0  0  0  0  0  0  0  0  0  0  0  0
   38.0510   23.2710   39.8600 H   0  0  0  0  0  0  0  0  0  0  0  0
   38.1480   21.5530   39.1230 H   0  0  0  0  0  0  0  0  0  0  0  0
   38.2630   25.7170   35.5970 C   0  0  0  0  0  0  0  0  0  0  0  0
   38.3710   27.0260   36.0180 C   0  0  0  0  0  0  0  0  0  0  0  0
   38.9760   27.3770   36.8620 H   0  0  0  0  0  0  0  0  0  0  0  0
   37.6160   27.8790   35.2430 C   0  0  0  0  0  0  0  0  0  0  0  0
   37.4700   28.9480   35.2880 H   0  0  0  0  0  0  0  0  0  0  0  0
   37.0480   27.0130   34.3340 C   0  0  0  0  0  0  0  0  0  0  0  0
   36.3680   27.2200   33.5140 H   0  0  0  0  0  0  0  0  0  0  0  0
   37.4510   25.8180   34.5880 O   0  0  0  0  0  0  0  0  0  0  0  0
   40.7680   24.6340   34.4730 C   0  0  0  0  0  0  0  0  0  0  0  0
   39.9150   24.5390   33.3940 F   0  0  0  0  0  0  0  0  0  0  0  0
   41.0920   25.9410   34.6930 F   0  0  0  0  0  0  0  0  0  0  0  0
   41.9280   23.9520   34.1480 F   0  0  0  0  0  0  0  0  0  0  0  0
  1  6  1  0  0  0  0
  2  3  1  0  0  0  0
  2  1  2  0  0  0  0
  3  4  2  0  0  0  0
  4  5  1  0  0  0  0
  5  7  1  0  0  0  0
  6  5  2  0  0  0  0
  7  9  1  0  0  0  0
  8  1  1  0  0  0  0
 10  7  1  0  0  0  0
 11 12  2  0  0  0  0
 11  3  1  0  0  0  0
 12 13  1  0  0  0  0
 14 15  1  0  0  0  0
 14 12  1  0  0  0  0
 16 18  1  0  0  0  0
 16 14  2  0  0  0  0
 17 16  1  0  0  0  0
 18 11  1  0  0  0  0
 19 21  1  0  0  0  0
 19  2  1  0  0  0  0
 20 19  1  0  0  0  0
 22 19  1  0  0  0  0
M  END
>  <minimizedAffinity>
-4.60596275

$$$$

 OpenBabel03272507563D

 22 23  0  0  0  0  0  0  0  0999 V2000
   37.1900   26.8370   33.5500 C   0  0  0  0  0  0  0  0  0  0  0  0
   37.9840   26.1850   34.5330 C   0  0  0  0  0  0  0  0  0  0  0  0
   38.2340   24.8310   34.3730 C   0  0  0  0  0  0  0  0  0  0  0  0
   37.7060   24.1980   33.2860 N   0  0  0  0  0  0  0  0  0  0  0  0
   36.9550   24.8410   32.3710 C   0  0  0  0  0  0  0  0  0  0  0  0
   36.6960   26.1650   32.5010 N   0  0  0  0  0  0  0  0  0  0  0  0
   36.5190   23.9700   31.3330 N   0  0  0  0  0  0  0  0  0  0  0  0
   36.9980   27.8730   33.6700 H   0  0  0  0  0  0  0  0  0  0  0  0
   37.1970   23.3710   30.8330 H   0  0  0  0  0  0  0  0  0  0  0  0
   35.4860   24.0440   31.1850 H   0  0  0  0  0  0  0  0  0  0  0  0
   39.0180   24.0900   35.3450 C   0  0  0  0  0  0  0  0  0  0  0  0
   40.3730   23.8690   35.2200 C   0  0  0  0  0  0  0  0  0  0  0  0
   41.0030   24.2190   34.3930 H   0  0  0  0  0  0  0  0  0  0  0  0
   40.8760   23.1400   36.2750 C   0  0  0  0  0  0  0  0  0  0  0  0
   41.8740   22.7940   36.4970 H   0  0  0  0  0  0  0  0  0  0  0  0
   39.7490   22.9350   37.0430 C   0  0  0  0  0  0  0  0  0  0  0  0
   39.6420   22.4050   37.9840 H   0  0  0  0  0  0  0  0  0  0  0  0
   38.7430   23.4920   36.4650 O   0  0  0  0  0  0  0  0  0  0  0  0
   38.5100   26.9780   35.6830 C   0  0  0  0  0  0  0  0  0  0  0  0
   39.8770   27.1330   35.5870 F   0  0  0  0  0  0  0  0  0  0  0  0
   37.9040   28.2000   35.6780 F   0  0  0  0  0  0  0  0  0  0  0  0
   38.2450   26.3710   36.8980 F   0  0  0  0  0  0  0  0  0  0  0  0
  1  8  1  0  0  0  0
  1  2  1  0  0  0  0
  2 19  1  0  0  0  0
  3  2  2  0  0  0  0
  3 11  1  0  0  0  0
  4  3  1  0  0  0  0
  5  6  1  0  0  0  0
  5  4  2  0  0  0  0
  6  1  2  0  0  0  0
  7  5  1  0  0  0  0
  9  7  1  0  0  0  0
 10  7  1  0  0  0  0
 11 18  1  0  0  0  0
 12 11  2  0  0  0  0
 12 14  1  0  0  0  0
 13 12  1  0  0  0  0
 14 15  1  0  0  0  0
 14 16  2  0  0  0  0
 16 17  1  0  0  0  0
 18 16  1  0  0  0  0
 19 22  1  0  0  0  0
 20 19  1  0  0  0  0
 21 19  1  0  0  0  0
M  END
>  <minimizedAffinity>
-4.59153557

$$$$

 OpenBabel03272507563D

 22 23  0  0  0  0  0  0  0  0999 V2000
   38.2910   24.4600   36.1810 C   0  0  0  0  0  0  0  0  0  0  0  0
   38.1470   25.5410   35.2680 C   0  0  0  0  0  0  0  0  0  0  0  0
   37.9250   25.2400   33.9330 C   0  0  0  0  0  0  0  0  0  0  0  0
   37.8560   23.9270   33.5680 N   0  0  0  0  0  0  0  0  0  0  0  0
   37.9970   22.9230   34.4550 C   0  0  0  0  0  0  0  0  0  0  0  0
   38.2140   23.1880   35.7660 N   0  0  0  0  0  0  0  0  0  0  0  0
   37.8860   21.6460   33.8350 N   0  0  0  0  0  0  0  0  0  0  0  0
   38.4600   24.6880   37.2020 H   0  0  0  0  0  0  0  0  0  0  0  0
   37.0820   21.4280   33.2240 H   0  0  0  0  0  0  0  0  0  0  0  0
   38.6930   21.0300   34.0900 H   0  0  0  0  0  0  0  0  0  0  0  0
   37.7900   26.2880   32.9380 C   0  0  0  0  0  0  0  0  0  0  0  0
   38.8430   26.7590   32.1830 C   0  0  0  0  0  0  0  0  0  0  0  0
   39.8800   26.4080   32.2430 H   0  0  0  0  0  0  0  0  0  0  0  0
   38.4500   27.7530   31.3130 C   0  0  0  0  0  0  0  0  0  0  0  0
   39.0020   28.3320   30.5890 H   0  0  0  0  0  0  0  0  0  0  0  0
   37.1020   27.8520   31.5850 C   0  0  0  0  0  0  0  0  0  0  0  0
   36.3550   28.5060   31.1460 H   0  0  0  0  0  0  0  0  0  0  0  0
   36.7980   27.0050   32.5040 O   0  0  0  0  0  0  0  0  0  0  0  0
   38.2430   26.9400   35.7800 C   0  0  0  0  0  0  0  0  0  0  0  0
   37.1650   27.6900   35.3580 F   0  0  0  0  0  0  0  0  0  0  0  0
   38.2740   26.9000   37.1430 F   0  0  0  0  0  0  0  0  0  0  0  0
   39.3900   27.5780   35.3420 F   0  0  0  0  0  0  0  0  0  0  0  0
  1  8  1  0  0  0  0
  2 19  1  0  0  0  0
  2  1  2  0  0  0  0
  3  2  1  0  0  0  0
  4  3  2  0  0  0  0
  4  5  1  0  0  0  0
  5  6  2  0  0  0  0
  6  1  1  0  0  0  0
  7 10  1  0  0  0  0
  7  5  1  0  0  0  0
  9  7  1  0  0  0  0
 11  3  1  0  0  0  0
 12 13  1  0  0  0  0
 12 11  2  0  0  0  0
 14 16  2  0  0  0  0
 14 12  1  0  0  0  0
 15 14  1  0  0  0  0
 16 18  1  0  0  0  0
 17 16  1  0  0  0  0
 18 11  1  0  0  0  0
 19 21  1  0  0  0  0
 20 19  1  0  0  0  0
 22 19  1  0  0  0  0
M  END
>  <minimizedAffinity>
-4.31907511

$$$$

 OpenBabel03272507563D

 22 23  0  0  0  0  0  0  0  0999 V2000
   39.2800   26.8330   32.2580 C   0  0  0  0  0  0  0  0  0  0  0  0
   39.2300   26.2520   33.5550 C   0  0  0  0  0  0  0  0  0  0  0  0
   38.2760   25.2740   33.7920 C   0  0  0  0  0  0  0  0  0  0  0  0
   37.4410   24.9220   32.7720 N   0  0  0  0  0  0  0  0  0  0  0  0
   37.5110   25.4910   31.5530 C   0  0  0  0  0  0  0  0  0  0  0  0
   38.4340   26.4500   31.2930 N   0  0  0  0  0  0  0  0  0  0  0  0
   36.5370   24.9600   30.6610 N   0  0  0  0  0  0  0  0  0  0  0  0
   40.0090   27.5810   32.0740 H   0  0  0  0  0  0  0  0  0  0  0  0
   36.4430   23.9380   30.5360 H   0  0  0  0  0  0  0  0  0  0  0  0
   35.9900   25.7230   30.1990 H   0  0  0  0  0  0  0  0  0  0  0  0
   38.1470   24.6490   35.0960 C   0  0  0  0  0  0  0  0  0  0  0  0
   38.6110   23.3820   35.3810 C   0  0  0  0  0  0  0  0  0  0  0  0
   39.1200   22.7140   34.6750 H   0  0  0  0  0  0  0  0  0  0  0  0
   38.3640   23.0250   36.6890 C   0  0  0  0  0  0  0  0  0  0  0  0
   38.5870   22.1250   37.2410 H   0  0  0  0  0  0  0  0  0  0  0  0
   37.7260   24.1470   37.1740 C   0  0  0  0  0  0  0  0  0  0  0  0
   37.3340   24.3430   38.1680 H   0  0  0  0  0  0  0  0  0  0  0  0
   37.6360   25.0170   36.2320 O   0  0  0  0  0  0  0  0  0  0  0  0
   40.1940   26.7160   34.5950 C   0  0  0  0  0  0  0  0  0  0  0  0
   40.9170   25.6560   35.1000 F   0  0  0  0  0  0  0  0  0  0  0  0
   41.0390   27.6240   34.0270 F   0  0  0  0  0  0  0  0  0  0  0  0
   39.5560   27.3280   35.6600 F   0  0  0  0  0  0  0  0  0  0  0  0
  1  2  1  0  0  0  0
  2  3  2  0  0  0  0
  2 19  1  0  0  0  0
  3 11  1  0  0  0  0
  4  3  1  0  0  0  0
  5  4  2  0  0  0  0
  6  5  1  0  0  0  0
  6  1  2  0  0  0  0
  7  5  1  0  0  0  0
  8  1  1  0  0  0  0
  9  7  1  0  0  0  0
 10  7  1  0  0  0  0
 11 12  2  0  0  0  0
 11 18  1  0  0  0  0
 12 14  1  0  0  0  0
 13 12  1  0  0  0  0
 14 16  2  0  0  0  0
 14 15  1  0  0  0  0
 16 17  1  0  0  0  0
 18 16  1  0  0  0  0
 19 20  1  0  0  0  0
 19 22  1  0  0  0  0
 21 19  1  0  0  0  0
M  END
>  <minimizedAffinity>
-4.29373646

$$$$

 OpenBabel03272507563D

 22 23  0  0  0  0  0  0  0  0999 V2000
   37.8410   24.4520   36.7440 C   0  0  0  0  0  0  0  0  0  0  0  0
   38.5900   25.0800   35.7110 C   0  0  0  0  0  0  0  0  0  0  0  0
   39.8570   24.5890   35.4360 C   0  0  0  0  0  0  0  0  0  0  0  0
   40.3170   23.5340   36.1690 N   0  0  0  0  0  0  0  0  0  0  0  0
   39.5850   22.9590   37.1430 C   0  0  0  0  0  0  0  0  0  0  0  0
   38.3430   23.4180   37.4320 N   0  0  0  0  0  0  0  0  0  0  0  0
   40.2770   21.8810   37.7620 N   0  0  0  0  0  0  0  0  0  0  0  0
   36.8720   24.8250   36.9550 H   0  0  0  0  0  0  0  0  0  0  0  0
   40.7000   21.1310   37.1890 H   0  0  0  0  0  0  0  0  0  0  0  0
   40.2770   21.9790   38.8040 H   0  0  0  0  0  0  0  0  0  0  0  0
   40.6920   25.1910   34.4120 C   0  0  0  0  0  0  0  0  0  0  0  0
   41.6080   26.1900   34.6660 C   0  0  0  0  0  0  0  0  0  0  0  0
   41.8100   26.6360   35.6480 H   0  0  0  0  0  0  0  0  0  0  0  0
   42.2690   26.5860   33.5250 C   0  0  0  0  0  0  0  0  0  0  0  0
   43.0350   27.3280   33.3610 H   0  0  0  0  0  0  0  0  0  0  0  0
   41.7010   25.7710   32.5690 C   0  0  0  0  0  0  0  0  0  0  0  0
   41.8990   25.7140   31.5030 H   0  0  0  0  0  0  0  0  0  0  0  0
   40.8250   25.0150   33.1310 O   0  0  0  0  0  0  0  0  0  0  0  0
   37.9870   26.2290   34.9750 C   0  0  0  0  0  0  0  0  0  0  0  0
   38.0220   26.0120   33.6130 F   0  0  0  0  0  0  0  0  0  0  0  0
   36.6950   26.3760   35.3870 F   0  0  0  0  0  0  0  0  0  0  0  0
   38.6560   27.4160   35.2230 F   0  0  0  0  0  0  0  0  0  0  0  0
  1  8  1  0  0  0  0
  1  6  1  0  0  0  0
  2  1  2  0  0  0  0
  3  2  1  0  0  0  0
  3  4  2  0  0  0  0
  4  5  1  0  0  0  0
  5  6  2  0  0  0  0
  5  7  1  0  0  0  0
  7 10  1  0  0  0  0
  9  7  1  0  0  0  0
 11 12  2  0  0  0  0
 11  3  1  0  0  0  0
 12 13  1  0  0  0  0
 14 12  1  0  0  0  0
 15 14  1  0  0  0  0
 16 18  1  0  0  0  0
 16 14  2  0  0  0  0
 17 16  1  0  0  0  0
 18 11  1  0  0  0  0
 19 22  1  0  0  0  0
 19 21  1  0  0  0  0
 19  2  1  0  0  0  0
 20 19  1  0  0  0  0
M  END
>  <minimizedAffinity>
-4.27425909

$$$$

 OpenBabel03272507563D

 22 23  0  0  0  0  0  0  0  0999 V2000
   36.7560   22.9710   32.0230 C   0  0  0  0  0  0  0  0  0  0  0  0
   37.4790   23.6860   33.0180 C   0  0  0  0  0  0  0  0  0  0  0  0
   37.3680   25.0680   33.0340 C   0  0  0  0  0  0  0  0  0  0  0  0
   36.5740   25.6660   32.1000 N   0  0  0  0  0  0  0  0  0  0  0  0
   35.9010   24.9620   31.1680 C   0  0  0  0  0  0  0  0  0  0  0  0
   35.9910   23.6100   31.1280 N   0  0  0  0  0  0  0  0  0  0  0  0
   35.1450   25.8070   30.3070 N   0  0  0  0  0  0  0  0  0  0  0  0
   36.8400   21.9140   32.0090 H   0  0  0  0  0  0  0  0  0  0  0  0
   34.5060   26.5180   30.7000 H   0  0  0  0  0  0  0  0  0  0  0  0
   35.3370   25.5920   29.3010 H   0  0  0  0  0  0  0  0  0  0  0  0
   38.0910   25.8700   34.0040 C   0  0  0  0  0  0  0  0  0  0  0  0
   37.5020   26.4350   35.1150 C   0  0  0  0  0  0  0  0  0  0  0  0
   36.4440   26.3480   35.3900 H   0  0  0  0  0  0  0  0  0  0  0  0
   38.4060   27.1470   35.8730 C   0  0  0  0  0  0  0  0  0  0  0  0
   38.2920   27.7050   36.7890 H   0  0  0  0  0  0  0  0  0  0  0  0
   39.5730   26.9780   35.1570 C   0  0  0  0  0  0  0  0  0  0  0  0
   40.5690   27.3570   35.3610 H   0  0  0  0  0  0  0  0  0  0  0  0
   39.3270   26.2540   34.1230 O   0  0  0  0  0  0  0  0  0  0  0  0
   38.3180   22.9270   33.9900 C   0  0  0  0  0  0  0  0  0  0  0  0
   37.9260   23.1910   35.2860 F   0  0  0  0  0  0  0  0  0  0  0  0
   38.1850   21.5950   33.7290 F   0  0  0  0  0  0  0  0  0  0  0  0
   39.6590   23.2550   33.8870 F   0  0  0  0  0  0  0  0  0  0  0  0
  1  2  1  0  0  0  0
  2  3  2  0  0  0  0
  2 19  1  0  0  0  0
  3 11  1  0  0  0  0
  4  3  1  0  0  0  0
  5  4  2  0  0  0  0
  6  5  1  0  0  0  0
  6  1  2  0  0  0  0
  7  9  1  0  0  0  0
  7  5  1  0  0  0  0
  8  1  1  0  0  0  0
 10  7  1  0  0  0  0
 11 18  1  0  0  0  0
 11 12  2  0  0  0  0
 12 13  1  0  0  0  0
 12 14  1  0  0  0  0
 14 15  1  0  0  0  0
 16 17  1  0  0  0  0
 16 14  2  0  0  0  0
 18 16  1  0  0  0  0
 19 20  1  0  0  0  0
 21 19  1  0  0  0  0
 22 19  1  0  0  0  0
M  END
>  <minimizedAffinity>
-4.242805

$$$$

 OpenBabel03272507563D

 22 23  0  0  0  0  0  0  0  0999 V2000
   36.6060   27.9120   33.4780 C   0  0  0  0  0  0  0  0  0  0  0  0
   37.4990   26.9370   34.0030 C   0  0  0  0  0  0  0  0  0  0  0  0
   37.6960   25.7760   33.2720 C   0  0  0  0  0  0  0  0  0  0  0  0
   37.0250   25.6300   32.0940 N   0  0  0  0  0  0  0  0  0  0  0  0
   36.1840   26.5700   31.6210 C   0  0  0  0  0  0  0  0  0  0  0  0
   35.9730   27.7160   32.3140 N   0  0  0  0  0  0  0  0  0  0  0  0
   35.6050   26.1900   30.3780 N   0  0  0  0  0  0  0  0  0  0  0  0
   36.4550   28.8010   34.0360 H   0  0  0  0  0  0  0  0  0  0  0  0
   36.2030   25.8690   29.5980 H   0  0  0  0  0  0  0  0  0  0  0  0
   34.5640   26.2880   30.3990 H   0  0  0  0  0  0  0  0  0  0  0  0
   38.5750   24.7240   33.7520 C   0  0  0  0  0  0  0  0  0  0  0  0
   38.1200   23.5430   34.2990 C   0  0  0  0  0  0  0  0  0  0  0  0
   37.0670   23.2650   34.4320 H   0  0  0  0  0  0  0  0  0  0  0  0
   39.1560   22.7160   34.6750 C   0  0  0  0  0  0  0  0  0  0  0  0
   39.1630   21.7360   35.1260 H   0  0  0  0  0  0  0  0  0  0  0  0
   40.2590   23.4650   34.3240 C   0  0  0  0  0  0  0  0  0  0  0  0
   41.3140   23.2300   34.4270 H   0  0  0  0  0  0  0  0  0  0  0  0
   39.8650   24.5780   33.8140 O   0  0  0  0  0  0  0  0  0  0  0  0
   38.1790   27.2030   35.3050 C   0  0  0  0  0  0  0  0  0  0  0  0
   37.7540   28.3990   35.8450 F   0  0  0  0  0  0  0  0  0  0  0  0
   37.8890   26.1800   36.1600 F   0  0  0  0  0  0  0  0  0  0  0  0
   39.5550   27.2740   35.1690 F   0  0  0  0  0  0  0  0  0  0  0  0
  1  2  1  0  0  0  0
  1  8  1  0  0  0  0
  2 19  1  0  0  0  0
  3 11  1  0  0  0  0
  3  2  2  0  0  0  0
  4  3  1  0  0  0  0
  5  4  2  0  0  0  0
  5  6  1  0  0  0  0
  6  1  2  0  0  0  0
  7 10  1  0  0  0  0
  7  5  1  0  0  0  0
  9  7  1  0  0  0  0
 11 18  1  0  0  0  0
 11 12  2  0  0  0  0
 12 13  1  0  0  0  0
 12 14  1  0  0  0  0
 14 15  1  0  0  0  0
 16 17  1  0  0  0  0
 16 14  2  0  0  0  0
 18 16  1  0  0  0  0
 19 20  1  0  0  0  0
 19 21  1  0  0  0  0
 22 19  1  0  0  0  0
M  END
>  <minimizedAffinity>
-4.23848629

$$$$

 OpenBabel03272507563D

 22 23  0  0  0  0  0  0  0  0999 V2000
   37.5810   24.6300   32.9420 C   0  0  0  0  0  0  0  0  0  0  0  0
   37.3000   23.2410   32.8270 C   0  0  0  0  0  0  0  0  0  0  0  0
   36.3710   22.8430   31.8780 C   0  0  0  0  0  0  0  0  0  0  0  0
   35.7780   23.8010   31.1090 N   0  0  0  0  0  0  0  0  0  0  0  0
   36.0640   25.1110   31.2410 C   0  0  0  0  0  0  0  0  0  0  0  0
   36.9690   25.5290   32.1600 N   0  0  0  0  0  0  0  0  0  0  0  0
   35.3200   25.9120   30.3300 N   0  0  0  0  0  0  0  0  0  0  0  0
   38.2920   24.9370   33.6670 H   0  0  0  0  0  0  0  0  0  0  0  0
   35.3060   25.6840   29.3220 H   0  0  0  0  0  0  0  0  0  0  0  0
   34.8380   26.6990   30.8240 H   0  0  0  0  0  0  0  0  0  0  0  0
   36.0140   21.4450   31.7150 C   0  0  0  0  0  0  0  0  0  0  0  0
   34.9130   20.8670   32.3110 C   0  0  0  0  0  0  0  0  0  0  0  0
   34.1960   21.3810   32.9620 H   0  0  0  0  0  0  0  0  0  0  0  0
   34.8000   19.5300   31.9970 C   0  0  0  0  0  0  0  0  0  0  0  0
   34.0730   18.7860   32.2840 H   0  0  0  0  0  0  0  0  0  0  0  0
   35.8920   19.3360   31.1790 C   0  0  0  0  0  0  0  0  0  0  0  0
   36.2290   18.4330   30.6790 H   0  0  0  0  0  0  0  0  0  0  0  0
   36.5300   20.4470   31.0630 O   0  0  0  0  0  0  0  0  0  0  0  0
   38.0090   22.2810   33.7240 C   0  0  0  0  0  0  0  0  0  0  0  0
   38.7240   21.3600   32.9870 F   0  0  0  0  0  0  0  0  0  0  0  0
   38.8540   22.9860   34.5300 F   0  0  0  0  0  0  0  0  0  0  0  0
   37.1310   21.5770   34.5300 F   0  0  0  0  0  0  0  0  0  0  0  0
  1  8  1  0  0  0  0
  2  1  1  0  0  0  0
  2 19  1  0  0  0  0
  3  2  2  0  0  0  0
  4  5  2  0  0  0  0
  4  3  1  0  0  0  0
  5  6  1  0  0  0  0
  6  1  2  0  0  0  0
  7 10  1  0  0  0  0
  7  5  1  0  0  0  0
  9  7  1  0  0  0  0
 11  3  1  0  0  0  0
 11 12  2  0  0  0  0
 12 13  1  0  0  0  0
 14 15  1  0  0  0  0
 14 12  1  0  0  0  0
 16 14  2  0  0  0  0
 17 16  1  0  0  0  0
 18 16  1  0  0  0  0
 18 11  1  0  0  0  0
 19 21  1  0  0  0  0
 19 22  1  0  0  0  0
 20 19  1  0  0  0  0
M  END
>  <minimizedAffinity>
-4.22853374

$$$$
