
 OpenBabel03272508433D

 19 20  0  0  0  0  0  0  0  0999 V2000
   37.4300   27.3170   32.4710 C   0  0  0  0  0  0  0  0  0  0  0  0
   37.4800   28.4000   31.8440 O   0  0  0  0  0  0  0  0  0  0  0  0
   36.4900   23.8530   31.8800 C   0  0  0  0  0  0  0  0  0  0  0  0
   35.3230   23.9610   31.1180 C   0  0  0  0  0  0  0  0  0  0  0  0
   34.8440   25.2270   30.7950 C   0  0  0  0  0  0  0  0  0  0  0  0
   35.5500   26.2900   31.2500 N   0  0  0  0  0  0  0  0  0  0  0  0
   36.6760   26.1650   31.9860 C   0  0  0  0  0  0  0  0  0  0  0  0
   37.1450   24.9430   32.3010 N   0  0  0  0  0  0  0  0  0  0  0  0
   36.8800   22.8620   32.1430 H   0  0  0  0  0  0  0  0  0  0  0  0
   34.7860   23.0800   30.7720 H   0  0  0  0  0  0  0  0  0  0  0  0
   33.9510   25.3900   30.2100 H   0  0  0  0  0  0  0  0  0  0  0  0
   38.1680   27.2260   33.7390 C   0  0  0  0  0  0  0  0  0  0  0  0
   37.6000   27.4320   34.9820 C   0  0  0  0  0  0  0  0  0  0  0  0
   36.5730   27.6790   35.1920 H   0  0  0  0  0  0  0  0  0  0  0  0
   38.6810   27.2390   35.8500 C   0  0  0  0  0  0  0  0  0  0  0  0
   38.6040   27.3230   36.9250 H   0  0  0  0  0  0  0  0  0  0  0  0
   39.8100   26.9370   35.1150 C   0  0  0  0  0  0  0  0  0  0  0  0
   40.8150   26.7310   35.4830 H   0  0  0  0  0  0  0  0  0  0  0  0
   39.4630   26.9380   33.8520 O   0  0  0  0  0  0  0  0  0  0  0  0
  1 12  1  0  0  0  0
  2  1  2  0  0  0  0
  3  9  1  0  0  0  0
  3  8  1  0  0  0  0
  4  3  2  0  0  0  0
  5  4  1  0  0  0  0
  5  6  2  0  0  0  0
  6  7  1  0  0  0  0
  7  8  2  0  0  0  0
  7  1  1  0  0  0  0
 10  4  1  0  0  0  0
 11  5  1  0  0  0  0
 12 19  1  0  0  0  0
 12 13  2  0  0  0  0
 13 14  1  0  0  0  0
 13 15  1  0  0  0  0
 15 16  1  0  0  0  0
 17 18  1  0  0  0  0
 17 15  2  0  0  0  0
 19 17  1  0  0  0  0
M  END
>  <minimizedAffinity>
-3.9374578

$$$$

 OpenBabel03272508433D

 19 20  0  0  0  0  0  0  0  0999 V2000
   38.2320   24.2310   36.5270 C   0  0  0  0  0  0  0  0  0  0  0  0
   37.2540   23.7320   37.1290 O   0  0  0  0  0  0  0  0  0  0  0  0
   40.9740   22.0180   37.4320 C   0  0  0  0  0  0  0  0  0  0  0  0
   41.9680   22.3390   36.5030 C   0  0  0  0  0  0  0  0  0  0  0  0
   41.7090   23.3230   35.5530 C   0  0  0  0  0  0  0  0  0  0  0  0
   40.4910   23.9140   35.5890 N   0  0  0  0  0  0  0  0  0  0  0  0
   39.5430   23.5890   36.4950 C   0  0  0  0  0  0  0  0  0  0  0  0
   39.7870   22.6380   37.4170 N   0  0  0  0  0  0  0  0  0  0  0  0
   41.1620   21.2450   38.1870 H   0  0  0  0  0  0  0  0  0  0  0  0
   42.9340   21.8400   36.5090 H   0  0  0  0  0  0  0  0  0  0  0  0
   42.4270   23.6260   34.8050 H   0  0  0  0  0  0  0  0  0  0  0  0
   38.0290   25.5120   35.8350 C   0  0  0  0  0  0  0  0  0  0  0  0
   38.3480   26.7440   36.3740 C   0  0  0  0  0  0  0  0  0  0  0  0
   38.7770   26.9340   37.3430 H   0  0  0  0  0  0  0  0  0  0  0  0
   37.9780   27.6300   35.3570 C   0  0  0  0  0  0  0  0  0  0  0  0
   38.0870   28.7030   35.4330 H   0  0  0  0  0  0  0  0  0  0  0  0
   37.4690   26.9160   34.2900 C   0  0  0  0  0  0  0  0  0  0  0  0
   37.0920   27.3020   33.3420 H   0  0  0  0  0  0  0  0  0  0  0  0
   37.5160   25.6480   34.6140 O   0  0  0  0  0  0  0  0  0  0  0  0
  1  2  2  0  0  0  0
  3  9  1  0  0  0  0
  4 10  1  0  0  0  0
  4  3  2  0  0  0  0
  5  6  2  0  0  0  0
  5  4  1  0  0  0  0
  6  7  1  0  0  0  0
  7  1  1  0  0  0  0
  7  8  2  0  0  0  0
  8  3  1  0  0  0  0
 11  5  1  0  0  0  0
 12 13  2  0  0  0  0
 12  1  1  0  0  0  0
 13 14  1  0  0  0  0
 15 16  1  0  0  0  0
 15 13  1  0  0  0  0
 17 19  1  0  0  0  0
 17 15  2  0  0  0  0
 18 17  1  0  0  0  0
 19 12  1  0  0  0  0
M  END
>  <minimizedAffinity>
-3.9186492

$$$$

 OpenBabel03272508433D

 19 20  0  0  0  0  0  0  0  0999 V2000
   38.2120   23.5980   36.4950 C   0  0  0  0  0  0  0  0  0  0  0  0
   37.2060   23.0790   37.0290 O   0  0  0  0  0  0  0  0  0  0  0  0
   37.8770   25.9940   33.7790 C   0  0  0  0  0  0  0  0  0  0  0  0
   38.0320   27.2290   34.4160 C   0  0  0  0  0  0  0  0  0  0  0  0
   38.2550   27.2540   35.7900 C   0  0  0  0  0  0  0  0  0  0  0  0
   38.3070   26.0610   36.4300 N   0  0  0  0  0  0  0  0  0  0  0  0
   38.1540   24.8790   35.7960 C   0  0  0  0  0  0  0  0  0  0  0  0
   37.9390   24.8470   34.4680 N   0  0  0  0  0  0  0  0  0  0  0  0
   37.7010   25.9580   32.6970 H   0  0  0  0  0  0  0  0  0  0  0  0
   37.9840   28.1640   33.8630 H   0  0  0  0  0  0  0  0  0  0  0  0
   38.3860   28.1680   36.3510 H   0  0  0  0  0  0  0  0  0  0  0  0
   39.4870   22.8730   36.5880 C   0  0  0  0  0  0  0  0  0  0  0  0
   40.1680   22.6490   37.7690 C   0  0  0  0  0  0  0  0  0  0  0  0
   39.8720   22.9620   38.7560 H   0  0  0  0  0  0  0  0  0  0  0  0
   41.2940   21.9360   37.3450 C   0  0  0  0  0  0  0  0  0  0  0  0
   42.0660   21.5860   38.0180 H   0  0  0  0  0  0  0  0  0  0  0  0
   41.2430   21.7700   35.9750 C   0  0  0  0  0  0  0  0  0  0  0  0
   41.9620   21.2610   35.3330 H   0  0  0  0  0  0  0  0  0  0  0  0
   40.1440   22.3450   35.5560 O   0  0  0  0  0  0  0  0  0  0  0  0
  1 12  1  0  0  0  0
  1  2  2  0  0  0  0
  3  4  2  0  0  0  0
  3  8  1  0  0  0  0
  4  5  1  0  0  0  0
  5 11  1  0  0  0  0
  5  6  2  0  0  0  0
  7  6  1  0  0  0  0
  7  1  1  0  0  0  0
  8  7  2  0  0  0  0
  9  3  1  0  0  0  0
 10  4  1  0  0  0  0
 12 13  2  0  0  0  0
 13 14  1  0  0  0  0
 15 13  1  0  0  0  0
 15 16  1  0  0  0  0
 17 15  2  0  0  0  0
 18 17  1  0  0  0  0
 19 17  1  0  0  0  0
 19 12  1  0  0  0  0
M  END
>  <minimizedAffinity>
-3.79536152

$$$$

 OpenBabel03272508433D

 19 20  0  0  0  0  0  0  0  0999 V2000
   38.1720   23.9570   34.8370 C   0  0  0  0  0  0  0  0  0  0  0  0
   38.3900   23.0420   34.0100 O   0  0  0  0  0  0  0  0  0  0  0  0
   36.9650   26.6620   32.7260 C   0  0  0  0  0  0  0  0  0  0  0  0
   36.9140   27.7540   33.5980 C   0  0  0  0  0  0  0  0  0  0  0  0
   37.2950   27.5740   34.9240 C   0  0  0  0  0  0  0  0  0  0  0  0
   37.6960   26.3330   35.2910 N   0  0  0  0  0  0  0  0  0  0  0  0
   37.7380   25.2910   34.4330 C   0  0  0  0  0  0  0  0  0  0  0  0
   37.3710   25.4580   33.1480 N   0  0  0  0  0  0  0  0  0  0  0  0
   36.6670   26.7880   31.6780 H   0  0  0  0  0  0  0  0  0  0  0  0
   36.5860   28.7350   33.2620 H   0  0  0  0  0  0  0  0  0  0  0  0
   37.2830   28.3690   35.6560 H   0  0  0  0  0  0  0  0  0  0  0  0
   38.3680   23.6520   36.2610 C   0  0  0  0  0  0  0  0  0  0  0  0
   39.5850   23.3130   36.8210 C   0  0  0  0  0  0  0  0  0  0  0  0
   40.5300   23.2290   36.3120 H   0  0  0  0  0  0  0  0  0  0  0  0
   39.2610   23.1230   38.1690 C   0  0  0  0  0  0  0  0  0  0  0  0
   39.9860   22.8420   38.9220 H   0  0  0  0  0  0  0  0  0  0  0  0
   37.9110   23.3460   38.3520 C   0  0  0  0  0  0  0  0  0  0  0  0
   37.3390   23.2820   39.2780 H   0  0  0  0  0  0  0  0  0  0  0  0
   37.4090   23.6620   37.1850 O   0  0  0  0  0  0  0  0  0  0  0  0
  1 12  1  0  0  0  0
  2  1  2  0  0  0  0
  3  8  2  0  0  0  0
  3  4  1  0  0  0  0
  4  5  2  0  0  0  0
  5  6  1  0  0  0  0
  5 11  1  0  0  0  0
  7  1  1  0  0  0  0
  7  6  2  0  0  0  0
  8  7  1  0  0  0  0
  9  3  1  0  0  0  0
 10  4  1  0  0  0  0
 12 13  2  0  0  0  0
 12 19  1  0  0  0  0
 13 15  1  0  0  0  0
 14 13  1  0  0  0  0
 15 17  2  0  0  0  0
 15 16  1  0  0  0  0
 17 18  1  0  0  0  0
 19 17  1  0  0  0  0
M  END
>  <minimizedAffinity>
-3.73554564

$$$$

 OpenBabel03272508433D

 19 20  0  0  0  0  0  0  0  0999 V2000
   38.7220   22.3070   34.5420 C   0  0  0  0  0  0  0  0  0  0  0  0
   39.8630   22.1820   34.0410 O   0  0  0  0  0  0  0  0  0  0  0  0
   36.1650   22.5770   31.9690 C   0  0  0  0  0  0  0  0  0  0  0  0
   35.2420   21.5890   32.3250 C   0  0  0  0  0  0  0  0  0  0  0  0
   35.4870   20.8160   33.4570 C   0  0  0  0  0  0  0  0  0  0  0  0
   36.6220   21.0750   34.1500 N   0  0  0  0  0  0  0  0  0  0  0  0
   37.5020   22.0350   33.7890 C   0  0  0  0  0  0  0  0  0  0  0  0
   37.2710   22.7860   32.6960 N   0  0  0  0  0  0  0  0  0  0  0  0
   35.9860   23.1950   31.0800 H   0  0  0  0  0  0  0  0  0  0  0  0
   34.3420   21.4140   31.7410 H   0  0  0  0  0  0  0  0  0  0  0  0
   34.8210   20.0360   33.7950 H   0  0  0  0  0  0  0  0  0  0  0  0
   38.6340   22.7460   35.9420 C   0  0  0  0  0  0  0  0  0  0  0  0
   39.6600   22.6210   36.8600 C   0  0  0  0  0  0  0  0  0  0  0  0
   40.6350   22.2000   36.6860 H   0  0  0  0  0  0  0  0  0  0  0  0
   39.1030   23.1700   38.0200 C   0  0  0  0  0  0  0  0  0  0  0  0
   39.6340   23.2400   38.9600 H   0  0  0  0  0  0  0  0  0  0  0  0
   37.8120   23.5840   37.7570 C   0  0  0  0  0  0  0  0  0  0  0  0
   37.1040   24.0520   38.4420 H   0  0  0  0  0  0  0  0  0  0  0  0
   37.5660   23.3140   36.5000 O   0  0  0  0  0  0  0  0  0  0  0  0
  1 12  1  0  0  0  0
  2  1  2  0  0  0  0
  3  4  2  0  0  0  0
  3  8  1  0  0  0  0
  4  5  1  0  0  0  0
  5 11  1  0  0  0  0
  5  6  2  0  0  0  0
  7  6  1  0  0  0  0
  7  1  1  0  0  0  0
  8  7  2  0  0  0  0
  9  3  1  0  0  0  0
 10  4  1  0  0  0  0
 12 19  1  0  0  0  0
 12 13  2  0  0  0  0
 13 15  1  0  0  0  0
 14 13  1  0  0  0  0
 15 16  1  0  0  0  0
 17 15  2  0  0  0  0
 17 18  1  0  0  0  0
 19 17  1  0  0  0  0
M  END
>  <minimizedAffinity>
-3.70324826

$$$$

 OpenBabel03272508433D

 19 20  0  0  0  0  0  0  0  0999 V2000
   38.4260   24.6120   33.5470 C   0  0  0  0  0  0  0  0  0  0  0  0
   39.6110   24.7120   33.1570 O   0  0  0  0  0  0  0  0  0  0  0  0
   35.8670   26.2170   31.5200 C   0  0  0  0  0  0  0  0  0  0  0  0
   35.1720   25.1380   30.9630 C   0  0  0  0  0  0  0  0  0  0  0  0
   35.5740   23.8440   31.2790 C   0  0  0  0  0  0  0  0  0  0  0  0
   36.6300   23.7100   32.1170 N   0  0  0  0  0  0  0  0  0  0  0  0
   37.2890   24.7650   32.6440 C   0  0  0  0  0  0  0  0  0  0  0  0
   36.9050   26.0200   32.3430 N   0  0  0  0  0  0  0  0  0  0  0  0
   35.5620   27.2430   31.2810 H   0  0  0  0  0  0  0  0  0  0  0  0
   34.3280   25.2900   30.2950 H   0  0  0  0  0  0  0  0  0  0  0  0
   35.0870   22.9620   30.8900 H   0  0  0  0  0  0  0  0  0  0  0  0
   38.1960   24.3300   34.9700 C   0  0  0  0  0  0  0  0  0  0  0  0
   38.2340   25.2870   35.9670 C   0  0  0  0  0  0  0  0  0  0  0  0
   38.4290   26.3390   35.8460 H   0  0  0  0  0  0  0  0  0  0  0  0
   37.9580   24.5430   37.1190 C   0  0  0  0  0  0  0  0  0  0  0  0
   37.9070   24.9750   38.1090 H   0  0  0  0  0  0  0  0  0  0  0  0
   37.7750   23.2180   36.7760 C   0  0  0  0  0  0  0  0  0  0  0  0
   37.5470   22.3790   37.4340 H   0  0  0  0  0  0  0  0  0  0  0  0
   37.9250   23.1290   35.4790 O   0  0  0  0  0  0  0  0  0  0  0  0
  1 12  1  0  0  0  0
  2  1  2  0  0  0  0
  3  8  1  0  0  0  0
  4  5  1  0  0  0  0
  4  3  2  0  0  0  0
  5  6  2  0  0  0  0
  6  7  1  0  0  0  0
  7  1  1  0  0  0  0
  8  7  2  0  0  0  0
  9  3  1  0  0  0  0
 10  4  1  0  0  0  0
 11  5  1  0  0  0  0
 12 19  1  0  0  0  0
 12 13  2  0  0  0  0
 13 15  1  0  0  0  0
 14 13  1  0  0  0  0
 15 16  1  0  0  0  0
 17 15  2  0  0  0  0
 17 18  1  0  0  0  0
 19 17  1  0  0  0  0
M  END
>  <minimizedAffinity>
-3.67926836

$$$$

 OpenBabel03272508433D

 19 20  0  0  0  0  0  0  0  0999 V2000
   38.1580   23.7790   34.5410 C   0  0  0  0  0  0  0  0  0  0  0  0
   37.8770   22.8050   33.8050 O   0  0  0  0  0  0  0  0  0  0  0  0
   37.8590   24.0900   38.1530 C   0  0  0  0  0  0  0  0  0  0  0  0
   38.9660   23.3840   38.6310 C   0  0  0  0  0  0  0  0  0  0  0  0
   39.8320   22.7910   37.7170 C   0  0  0  0  0  0  0  0  0  0  0  0
   39.5400   22.9380   36.4020 N   0  0  0  0  0  0  0  0  0  0  0  0
   38.4640   23.6250   35.9600 C   0  0  0  0  0  0  0  0  0  0  0  0
   37.6230   24.2010   36.8390 N   0  0  0  0  0  0  0  0  0  0  0  0
   37.1670   24.5630   38.8610 H   0  0  0  0  0  0  0  0  0  0  0  0
   39.1650   23.2900   39.6960 H   0  0  0  0  0  0  0  0  0  0  0  0
   40.7080   22.2310   38.0100 H   0  0  0  0  0  0  0  0  0  0  0  0
   38.1720   25.1150   33.9310 C   0  0  0  0  0  0  0  0  0  0  0  0
   39.2770   25.9460   33.9080 C   0  0  0  0  0  0  0  0  0  0  0  0
   40.2510   25.7380   34.3180 H   0  0  0  0  0  0  0  0  0  0  0  0
   38.8000   27.0750   33.2340 C   0  0  0  0  0  0  0  0  0  0  0  0
   39.4060   27.9470   33.0300 H   0  0  0  0  0  0  0  0  0  0  0  0
   37.4750   26.8800   32.8950 C   0  0  0  0  0  0  0  0  0  0  0  0
   36.8100   27.5630   32.3660 H   0  0  0  0  0  0  0  0  0  0  0  0
   37.1340   25.6930   33.3300 O   0  0  0  0  0  0  0  0  0  0  0  0
  1  7  1  0  0  0  0
  2  1  2  0  0  0  0
  3  4  1  0  0  0  0
  3  9  1  0  0  0  0
  4 10  1  0  0  0  0
  5 11  1  0  0  0  0
  5  4  2  0  0  0  0
  6  5  1  0  0  0  0
  7  6  2  0  0  0  0
  7  8  1  0  0  0  0
  8  3  2  0  0  0  0
 12  1  1  0  0  0  0
 13 12  2  0  0  0  0
 13 14  1  0  0  0  0
 15 13  1  0  0  0  0
 16 15  1  0  0  0  0
 17 15  2  0  0  0  0
 17 19  1  0  0  0  0
 18 17  1  0  0  0  0
 19 12  1  0  0  0  0
M  END
>  <minimizedAffinity>
-3.65303659

$$$$

 OpenBabel03272508433D

 19 20  0  0  0  0  0  0  0  0999 V2000
   38.9250   22.8650   35.5800 C   0  0  0  0  0  0  0  0  0  0  0  0
   39.9780   22.3240   35.9890 O   0  0  0  0  0  0  0  0  0  0  0  0
   36.6270   21.1660   33.3300 C   0  0  0  0  0  0  0  0  0  0  0  0
   35.6490   20.6580   34.1910 C   0  0  0  0  0  0  0  0  0  0  0  0
   35.7670   20.8940   35.5580 C   0  0  0  0  0  0  0  0  0  0  0  0
   36.8390   21.6110   35.9720 N   0  0  0  0  0  0  0  0  0  0  0  0
   37.7730   22.0930   35.1240 C   0  0  0  0  0  0  0  0  0  0  0  0
   37.6650   21.8690   33.8010 N   0  0  0  0  0  0  0  0  0  0  0  0
   36.5480   20.9880   32.2510 H   0  0  0  0  0  0  0  0  0  0  0  0
   34.8030   20.0870   33.8160 H   0  0  0  0  0  0  0  0  0  0  0  0
   35.0520   20.5350   36.2830 H   0  0  0  0  0  0  0  0  0  0  0  0
   38.8710   24.3340   35.5680 C   0  0  0  0  0  0  0  0  0  0  0  0
   39.8330   25.1400   34.9890 C   0  0  0  0  0  0  0  0  0  0  0  0
   40.7260   24.8190   34.4810 H   0  0  0  0  0  0  0  0  0  0  0  0
   39.3430   26.4280   35.2340 C   0  0  0  0  0  0  0  0  0  0  0  0
   39.8500   27.3290   34.9150 H   0  0  0  0  0  0  0  0  0  0  0  0
   38.1520   26.3410   35.9270 C   0  0  0  0  0  0  0  0  0  0  0  0
   37.5140   27.1550   36.2710 H   0  0  0  0  0  0  0  0  0  0  0  0
   37.9010   25.0690   36.1080 O   0  0  0  0  0  0  0  0  0  0  0  0
  1  2  2  0  0  0  0
  3  8  2  0  0  0  0
  3  4  1  0  0  0  0
  4  5  2  0  0  0  0
  5  6  1  0  0  0  0
  5 11  1  0  0  0  0
  7  1  1  0  0  0  0
  7  6  2  0  0  0  0
  8  7  1  0  0  0  0
  9  3  1  0  0  0  0
 10  4  1  0  0  0  0
 12  1  1  0  0  0  0
 12 19  1  0  0  0  0
 13 15  1  0  0  0  0
 13 12  2  0  0  0  0
 14 13  1  0  0  0  0
 15 17  2  0  0  0  0
 16 15  1  0  0  0  0
 17 19  1  0  0  0  0
 17 18  1  0  0  0  0
M  END
>  <minimizedAffinity>
-3.61913729

$$$$

 OpenBabel03272508433D

 19 20  0  0  0  0  0  0  0  0999 V2000
   38.8910   22.2840   34.6520 C   0  0  0  0  0  0  0  0  0  0  0  0
   40.0250   21.8480   34.3470 O   0  0  0  0  0  0  0  0  0  0  0  0
   35.9470   21.3580   32.7270 C   0  0  0  0  0  0  0  0  0  0  0  0
   35.7370   22.4690   31.9030 C   0  0  0  0  0  0  0  0  0  0  0  0
   36.6070   23.5510   31.9990 C   0  0  0  0  0  0  0  0  0  0  0  0
   37.6160   23.4580   32.8980 N   0  0  0  0  0  0  0  0  0  0  0  0
   37.8010   22.3760   33.6860 C   0  0  0  0  0  0  0  0  0  0  0  0
   36.9630   21.3250   33.5980 N   0  0  0  0  0  0  0  0  0  0  0  0
   35.2700   20.4980   32.6630 H   0  0  0  0  0  0  0  0  0  0  0  0
   34.9150   22.5030   31.1930 H   0  0  0  0  0  0  0  0  0  0  0  0
   36.5110   24.4420   31.3960 H   0  0  0  0  0  0  0  0  0  0  0  0
   38.6740   22.7120   36.0410 C   0  0  0  0  0  0  0  0  0  0  0  0
   39.6850   22.8710   36.9710 C   0  0  0  0  0  0  0  0  0  0  0  0
   40.7380   22.7100   36.8140 H   0  0  0  0  0  0  0  0  0  0  0  0
   38.9900   23.2800   38.1140 C   0  0  0  0  0  0  0  0  0  0  0  0
   39.4720   23.5010   39.0570 H   0  0  0  0  0  0  0  0  0  0  0  0
   37.6400   23.3460   37.8310 C   0  0  0  0  0  0  0  0  0  0  0  0
   36.8270   23.6300   38.4990 H   0  0  0  0  0  0  0  0  0  0  0  0
   37.4890   22.9980   36.5780 O   0  0  0  0  0  0  0  0  0  0  0  0
  1 12  1  0  0  0  0
  2  1  2  0  0  0  0
  3  8  1  0  0  0  0
  4  5  1  0  0  0  0
  4  3  2  0  0  0  0
  5  6  2  0  0  0  0
  6  7  1  0  0  0  0
  7  1  1  0  0  0  0
  8  7  2  0  0  0  0
  9  3  1  0  0  0  0
 10  4  1  0  0  0  0
 11  5  1  0  0  0  0
 12 19  1  0  0  0  0
 12 13  2  0  0  0  0
 13 15  1  0  0  0  0
 14 13  1  0  0  0  0
 15 16  1  0  0  0  0
 17 15  2  0  0  0  0
 17 18  1  0  0  0  0
 19 17  1  0  0  0  0
M  END
>  <minimizedAffinity>
-3.60780001

$$$$
