REMARK  Name = 
REMARK  2 active torsions:
REMARK  status: ('A' for Active; 'I' for Inactive)
REMARK    1  A    between atoms: C_2  and  C_8
REMARK    2  A    between atoms: C_3  and  C_15
REMARK                            x       y       z     vdW  Elec       q    Type
REMARK                         _______ _______ _______ _____ _____    ______ ____
ROOT
ATOM      1  C   UNL     1      35.617  29.015  50.181  0.00  0.00    +0.000 A 
ATOM      2  C   UNL     1      36.289  30.152  49.654  0.00  0.00    +0.000 A 
ATOM      3  C   UNL     1      36.041  30.500  48.335  0.00  0.00    +0.000 A 
ATOM      4  N   UNL     1      35.169  29.736  47.616  0.00  0.00    +0.000 NA
ATOM      5  C   UNL     1      34.547  28.663  48.142  0.00  0.00    +0.000 A 
ATOM      6  N   UNL     1      34.770  28.300  49.429  0.00  0.00    +0.000 NA
ATOM      7  N   UNL     1      33.689  28.030  47.199  0.00  0.00    +0.000 N 
ATOM      8  H   UNL     1      35.805  28.748  51.190  0.00  0.00    +0.000 HD
ATOM      9  H   UNL     1      32.992  28.582  46.672  0.00  0.00    +0.000 HD
ATOM     10  H   UNL     1      33.877  27.002  47.146  0.00  0.00    +0.000 HD
ENDROOT
BRANCH   3  11
ATOM     11  C   UNL     1      36.705  31.634  47.718  0.00  0.00    +0.000 A 
ATOM     12  C   UNL     1      37.243  31.604  46.449  0.00  0.00    +0.000 A 
ATOM     13  H   UNL     1      37.232  30.740  45.773  0.00  0.00    +0.000 HD
ATOM     14  C   UNL     1      37.815  32.808  46.102  0.00  0.00    +0.000 A 
ATOM     15  H   UNL     1      38.316  33.130  45.202  0.00  0.00    +0.000 HD
ATOM     16  C   UNL     1      37.592  33.565  47.232  0.00  0.00    +0.000 A 
ATOM     17  H   UNL     1      37.864  34.596  47.438  0.00  0.00    +0.000 HD
ATOM     18  O   UNL     1      36.967  32.849  48.099  0.00  0.00    +0.000 OA
ENDBRANCH   3  11
BRANCH   2  19
ATOM     19  C   UNL     1      37.224  30.914  50.533  0.00  0.00    +0.000 C 
ATOM     20  F   UNL     1      38.524  30.789  50.090  0.00  0.00    +0.000 F 
ATOM     21  F   UNL     1      36.855  32.227  50.521  0.00  0.00    +0.000 F 
ATOM     22  F   UNL     1      37.187  30.468  51.843  0.00  0.00    +0.000 F 
ENDBRANCH   2  19
TORSDOF 2
