
 OpenBabel03262520213D

 22 23  0  0  0  0  0  0  0  0999 V2000
   33.8780   26.8900   48.4340 C   0  0  0  0  0  0  0  0  0  0  0  0
   34.2310   28.2510   48.2150 C   0  0  0  0  0  0  0  0  0  0  0  0
   33.5420   28.9240   47.2300 C   0  0  0  0  0  0  0  0  0  0  0  0
   32.5720   28.2190   46.5510 N   0  0  0  0  0  0  0  0  0  0  0  0
   32.2570   26.9500   46.7760 C   0  0  0  0  0  0  0  0  0  0  0  0
   32.9260   26.2950   47.7280 N   0  0  0  0  0  0  0  0  0  0  0  0
   31.2130   26.3970   46.0050 N   0  0  0  0  0  0  0  0  0  0  0  0
   34.3010   26.2090   49.1510 H   0  0  0  0  0  0  0  0  0  0  0  0
   30.3670   26.0600   46.5390 H   0  0  0  0  0  0  0  0  0  0  0  0
   31.3700   26.3710   44.9760 H   0  0  0  0  0  0  0  0  0  0  0  0
   35.2800   28.7470   49.1040 C   0  0  0  0  0  0  0  0  0  0  0  0
   35.0750   28.9840   50.4460 C   0  0  0  0  0  0  0  0  0  0  0  0
   34.1790   28.8690   51.0900 H   0  0  0  0  0  0  0  0  0  0  0  0
   36.1750   29.4460   51.1110 C   0  0  0  0  0  0  0  0  0  0  0  0
   36.3690   29.7240   52.1290 H   0  0  0  0  0  0  0  0  0  0  0  0
   37.0950   29.4870   50.1030 C   0  0  0  0  0  0  0  0  0  0  0  0
   38.1520   29.7830   50.0800 H   0  0  0  0  0  0  0  0  0  0  0  0
   36.5110   29.0870   49.0460 O   0  0  0  0  0  0  0  0  0  0  0  0
   33.8540   30.3360   46.9330 C   0  0  0  0  0  0  0  0  0  0  0  0
   34.9560   30.3420   46.1870 F   0  0  0  0  0  0  0  0  0  0  0  0
   32.8450   30.9950   46.2460 F   0  0  0  0  0  0  0  0  0  0  0  0
   34.0650   31.0740   48.1190 F   0  0  0  0  0  0  0  0  0  0  0  0
  1  8  1  0  0  0  0
  2  1  1  0  0  0  0
  2 11  1  0  0  0  0
  3  2  2  0  0  0  0
  4  5  2  0  0  0  0
  4  3  1  0  0  0  0
  5  6  1  0  0  0  0
  6  1  2  0  0  0  0
  7  9  1  0  0  0  0
  7  5  1  0  0  0  0
 10  7  1  0  0  0  0
 11 12  2  0  0  0  0
 12 13  1  0  0  0  0
 12 14  1  0  0  0  0
 14 15  1  0  0  0  0
 16 14  2  0  0  0  0
 17 16  1  0  0  0  0
 18 11  1  0  0  0  0
 18 16  1  0  0  0  0
 19  3  1  0  0  0  0
 19 22  1  0  0  0  0
 20 19  1  0  0  0  0
 21 19  1  0  0  0  0
M  END
>  <minimizedAffinity>
-3.87598705

>  <minimizedRMSD>
5.09305143

$$$$
