
     RDKit          3D

 27 29  0  0  0  0  0  0  0  0999 V2000
   37.4885   30.2623   51.3295 C   0  0  0  0  0  0  0  0  0  0  0  0
   38.1369   30.9761   50.2983 C   0  0  0  0  0  0  0  0  0  0  0  0
   37.8202   30.7304   48.9765 C   0  0  0  0  0  0  0  0  0  0  0  0
   36.8790   29.7904   48.7401 N   0  0  0  0  0  0  0  0  0  0  0  0
   36.2481   29.0969   49.7049 C   0  0  0  0  0  0  0  0  0  0  0  0
   36.5543   29.3345   51.0022 N   0  0  0  0  0  0  0  0  0  0  0  0
   38.4414   31.4186   47.9142 N   0  0  0  0  0  0  0  0  0  0  0  0
   38.6583   30.8263   46.7220 C   0  0  0  0  0  0  0  0  0  0  0  0
   39.2841   31.5125   45.6812 C   0  0  0  0  0  0  0  0  0  0  0  0
   39.6822   32.8402   45.9124 C   0  0  0  0  0  0  0  0  0  0  0  0
   40.2434   33.4989   45.0283 O   0  0  0  0  0  0  0  0  0  0  0  0
   39.4531   33.4200   47.1227 N   0  0  0  0  0  0  0  0  0  0  0  0
   38.8430   32.6773   48.0625 C   0  0  0  0  0  0  0  0  0  0  0  0
   38.6456   33.2506   49.1721 O   0  0  0  0  0  0  0  0  0  0  0  0
   37.6797   30.3983   52.3675 H   0  0  0  0  0  0  0  0  0  0  0  0
   38.8502   31.6564   50.6880 H   0  0  0  0  0  0  0  0  0  0  0  0
   35.5252   28.3845   49.3406 H   0  0  0  0  0  0  0  0  0  0  0  0
   38.3222   29.8030   46.6251 H   0  0  0  0  0  0  0  0  0  0  0  0
   39.4512   31.0257   44.7316 H   0  0  0  0  0  0  0  0  0  0  0  0
   39.8670   34.7662   47.3268 C   0  0  0  0  0  0  0  0  0  0  0  0
   41.0755   35.3280   47.6854 C   0  0  0  0  0  0  0  0  0  0  0  0
   41.9516   34.7340   47.8748 H   0  0  0  0  0  0  0  0  0  0  0  0
   40.9489   36.7072   47.7491 C   0  0  0  0  0  0  0  0  0  0  0  0
   41.7084   37.4277   48.0003 H   0  0  0  0  0  0  0  0  0  0  0  0
   39.6114   36.9137   47.4105 C   0  0  0  0  0  0  0  0  0  0  0  0
   39.2001   37.9252   47.3730 H   0  0  0  0  0  0  0  0  0  0  0  0
   39.0309   35.7759   47.1771 O   0  0  0  0  0  0  0  0  0  0  0  0
  2  1  2  0
  3  2  1  0
  4  3  2  0
  4  5  1  0
  5  6  2  0
  6  1  1  0
  7 13  1  0
  7  3  1  0
  8  7  1  0
  9 10  1  0
  9  8  2  0
 10 12  1  0
 11 10  2  0
 12 13  1  0
 13 14  2  0
  1 15  1  0
  2 16  1  0
  5 17  1  0
  8 18  1  0
  9 19  1  0
 20 21  2  0
 21 22  1  0
 21 23  1  0
 23 24  1  0
 23 25  2  0
 25 26  1  0
 25 27  1  0
 27 20  1  0
 12 20  1  0
M  ISO  8  15  14  16  14  17  14  18  14  19  14  22  16  24  16  26  14
M  END
>  <DihAtoms>  (1) 
9,11,19,20

>  <DihDeg>  (1) 
66.13470129747164

$$$$
