
 OpenBabel03272501313D

 19 20  0  0  0  0  0  0  0  0999 V2000
   37.3250   27.3510   32.5330 C   0  0  0  0  0  0  0  0  0  0  0  0
   37.2840   28.4560   31.9560 O   0  0  0  0  0  0  0  0  0  0  0  0
   36.3850   23.8150   31.7980 C   0  0  0  0  0  0  0  0  0  0  0  0
   37.1110   24.8870   32.3200 C   0  0  0  0  0  0  0  0  0  0  0  0
   36.6340   26.1630   32.0320 C   0  0  0  0  0  0  0  0  0  0  0  0
   35.5100   26.3000   31.2720 N   0  0  0  0  0  0  0  0  0  0  0  0
   34.8490   25.2280   30.7940 C   0  0  0  0  0  0  0  0  0  0  0  0
   35.2810   23.9930   31.0540 N   0  0  0  0  0  0  0  0  0  0  0  0
   36.7720   22.8120   32.0330 H   0  0  0  0  0  0  0  0  0  0  0  0
   38.0020   24.7510   32.9210 H   0  0  0  0  0  0  0  0  0  0  0  0
   33.9630   25.4010   30.1980 H   0  0  0  0  0  0  0  0  0  0  0  0
   38.1020   27.2390   33.7740 C   0  0  0  0  0  0  0  0  0  0  0  0
   37.5490   27.4120   35.0180 C   0  0  0  0  0  0  0  0  0  0  0  0
   36.5480   27.6400   35.3020 H   0  0  0  0  0  0  0  0  0  0  0  0
   38.6180   27.2210   35.8990 C   0  0  0  0  0  0  0  0  0  0  0  0
   38.4950   27.2950   36.9870 H   0  0  0  0  0  0  0  0  0  0  0  0
   39.7240   26.9500   35.1520 C   0  0  0  0  0  0  0  0  0  0  0  0
   40.6670   26.7690   35.6430 H   0  0  0  0  0  0  0  0  0  0  0  0
   39.3890   26.9670   33.8850 O   0  0  0  0  0  0  0  0  0  0  0  0
  1 12  1  0  0  0  0
  2  1  2  0  0  0  0
  3  9  1  0  0  0  0
  3  4  1  0  0  0  0
  4 10  1  0  0  0  0
  5  4  2  0  0  0  0
  5  1  1  0  0  0  0
  6  5  1  0  0  0  0
  7  8  1  0  0  0  0
  7  6  2  0  0  0  0
  8  3  2  0  0  0  0
 11  7  1  0  0  0  0
 12 19  1  0  0  0  0
 12 13  2  0  0  0  0
 13 14  1  0  0  0  0
 13 15  1  0  0  0  0
 15 16  1  0  0  0  0
 17 18  1  0  0  0  0
 17 15  2  0  0  0  0
 19 17  1  0  0  0  0
M  END
>  <minimizedAffinity>
-3.91075253

$$$$

 OpenBabel03272501313D

 19 20  0  0  0  0  0  0  0  0999 V2000
   38.2040   24.2520   36.7690 C   0  0  0  0  0  0  0  0  0  0  0  0
   37.3220   23.9690   37.6050 O   0  0  0  0  0  0  0  0  0  0  0  0
   41.0980   21.9610   37.3140 C   0  0  0  0  0  0  0  0  0  0  0  0
   39.9580   22.7100   37.6090 C   0  0  0  0  0  0  0  0  0  0  0  0
   39.3990   23.4360   36.5610 C   0  0  0  0  0  0  0  0  0  0  0  0
   39.9800   23.3820   35.3280 N   0  0  0  0  0  0  0  0  0  0  0  0
   41.0810   22.6410   35.1000 C   0  0  0  0  0  0  0  0  0  0  0  0
   41.6390   21.9340   36.0840 N   0  0  0  0  0  0  0  0  0  0  0  0
   41.5290   21.3910   38.1510 H   0  0  0  0  0  0  0  0  0  0  0  0
   39.5160   22.7360   38.5970 H   0  0  0  0  0  0  0  0  0  0  0  0
   41.4960   22.6390   34.1000 H   0  0  0  0  0  0  0  0  0  0  0  0
   38.0320   25.4630   35.9560 C   0  0  0  0  0  0  0  0  0  0  0  0
   38.4350   26.7060   36.3740 C   0  0  0  0  0  0  0  0  0  0  0  0
   38.9050   27.0090   37.2820 H   0  0  0  0  0  0  0  0  0  0  0  0
   38.0900   27.5540   35.3180 C   0  0  0  0  0  0  0  0  0  0  0  0
   38.2860   28.6330   35.3500 H   0  0  0  0  0  0  0  0  0  0  0  0
   37.5130   26.7900   34.3480 C   0  0  0  0  0  0  0  0  0  0  0  0
   37.1700   27.2550   33.4380 H   0  0  0  0  0  0  0  0  0  0  0  0
   37.4900   25.5450   34.7540 O   0  0  0  0  0  0  0  0  0  0  0  0
  1  2  2  0  0  0  0
  3  4  1  0  0  0  0
  3  9  1  0  0  0  0
  4 10  1  0  0  0  0
  5  1  1  0  0  0  0
  5  4  2  0  0  0  0
  6  5  1  0  0  0  0
  7  6  2  0  0  0  0
  7  8  1  0  0  0  0
  8  3  2  0  0  0  0
 11  7  1  0  0  0  0
 12 13  2  0  0  0  0
 12  1  1  0  0  0  0
 13 14  1  0  0  0  0
 15 16  1  0  0  0  0
 15 13  1  0  0  0  0
 17 19  1  0  0  0  0
 17 15  2  0  0  0  0
 18 17  1  0  0  0  0
 19 12  1  0  0  0  0
M  END
>  <minimizedAffinity>
-3.84868503

$$$$

 OpenBabel03272501313D

 19 20  0  0  0  0  0  0  0  0999 V2000
   38.2070   24.2780   36.7120 C   0  0  0  0  0  0  0  0  0  0  0  0
   37.3100   23.9340   37.5080 O   0  0  0  0  0  0  0  0  0  0  0  0
   41.3320   22.8570   35.2490 C   0  0  0  0  0  0  0  0  0  0  0  0
   40.1710   23.6260   35.3410 C   0  0  0  0  0  0  0  0  0  0  0  0
   39.4390   23.5140   36.5200 C   0  0  0  0  0  0  0  0  0  0  0  0
   39.8820   22.6780   37.5020 N   0  0  0  0  0  0  0  0  0  0  0  0
   41.0120   21.9590   37.3590 C   0  0  0  0  0  0  0  0  0  0  0  0
   41.7340   22.0460   36.2410 N   0  0  0  0  0  0  0  0  0  0  0  0
   41.9020   22.9560   34.3120 H   0  0  0  0  0  0  0  0  0  0  0  0
   39.8410   24.2820   34.5450 H   0  0  0  0  0  0  0  0  0  0  0  0
   41.3120   21.3140   38.1750 H   0  0  0  0  0  0  0  0  0  0  0  0
   38.0170   25.5090   35.9340 C   0  0  0  0  0  0  0  0  0  0  0  0
   38.4090   26.7440   36.3840 C   0  0  0  0  0  0  0  0  0  0  0  0
   38.8810   27.0270   37.2970 H   0  0  0  0  0  0  0  0  0  0  0  0
   38.0490   27.6160   35.3540 C   0  0  0  0  0  0  0  0  0  0  0  0
   38.2330   28.6960   35.4140 H   0  0  0  0  0  0  0  0  0  0  0  0
   37.4740   26.8730   34.3660 C   0  0  0  0  0  0  0  0  0  0  0  0
   37.1220   27.3590   33.4710 H   0  0  0  0  0  0  0  0  0  0  0  0
   37.4680   25.6170   34.7380 O   0  0  0  0  0  0  0  0  0  0  0  0
  1  2  2  0  0  0  0
  3  4  2  0  0  0  0
  3  8  1  0  0  0  0
  4  5  1  0  0  0  0
  5  1  1  0  0  0  0
  5  6  2  0  0  0  0
  7  6  1  0  0  0  0
  7 11  1  0  0  0  0
  8  7  2  0  0  0  0
  9  3  1  0  0  0  0
 10  4  1  0  0  0  0
 12 13  2  0  0  0  0
 12  1  1  0  0  0  0
 13 14  1  0  0  0  0
 15 16  1  0  0  0  0
 15 13  1  0  0  0  0
 17 19  1  0  0  0  0
 17 15  2  0  0  0  0
 18 17  1  0  0  0  0
 19 12  1  0  0  0  0
M  END
>  <minimizedAffinity>
-3.81487703

$$$$

 OpenBabel03272501313D

 19 20  0  0  0  0  0  0  0  0999 V2000
   38.3010   24.0630   36.6970 C   0  0  0  0  0  0  0  0  0  0  0  0
   37.4210   23.6690   37.4900 O   0  0  0  0  0  0  0  0  0  0  0  0
   38.1400   27.5540   35.3880 C   0  0  0  0  0  0  0  0  0  0  0  0
   38.3320   26.5130   36.2980 C   0  0  0  0  0  0  0  0  0  0  0  0
   38.1260   25.2210   35.8210 C   0  0  0  0  0  0  0  0  0  0  0  0
   37.7560   25.0410   34.5210 N   0  0  0  0  0  0  0  0  0  0  0  0
   37.5850   26.0840   33.6860 C   0  0  0  0  0  0  0  0  0  0  0  0
   37.7750   27.3330   34.1140 N   0  0  0  0  0  0  0  0  0  0  0  0
   38.3060   28.5700   35.7770 H   0  0  0  0  0  0  0  0  0  0  0  0
   38.6260   26.6830   37.3260 H   0  0  0  0  0  0  0  0  0  0  0  0
   37.2910   25.8770   32.6660 H   0  0  0  0  0  0  0  0  0  0  0  0
   39.5710   23.3280   36.6410 C   0  0  0  0  0  0  0  0  0  0  0  0
   40.0670   22.6140   37.7030 C   0  0  0  0  0  0  0  0  0  0  0  0
   39.6690   22.4670   38.6800 H   0  0  0  0  0  0  0  0  0  0  0  0
   41.2700   22.0830   37.2280 C   0  0  0  0  0  0  0  0  0  0  0  0
   41.9140   21.4520   37.8540 H   0  0  0  0  0  0  0  0  0  0  0  0
   41.4240   22.4980   35.9400 C   0  0  0  0  0  0  0  0  0  0  0  0
   42.2970   22.1960   35.3840 H   0  0  0  0  0  0  0  0  0  0  0  0
   40.3950   23.2410   35.6140 O   0  0  0  0  0  0  0  0  0  0  0  0
  1  2  2  0  0  0  0
  3  9  1  0  0  0  0
  3  4  1  0  0  0  0
  4 10  1  0  0  0  0
  5  4  2  0  0  0  0
  5  1  1  0  0  0  0
  6  5  1  0  0  0  0
  7  8  1  0  0  0  0
  7  6  2  0  0  0  0
  8  3  2  0  0  0  0
 11  7  1  0  0  0  0
 12  1  1  0  0  0  0
 12 13  2  0  0  0  0
 13 14  1  0  0  0  0
 15 13  1  0  0  0  0
 15 16  1  0  0  0  0
 17 15  2  0  0  0  0
 18 17  1  0  0  0  0
 19 17  1  0  0  0  0
 19 12  1  0  0  0  0
M  END
>  <minimizedAffinity>
-3.74623752

$$$$

 OpenBabel03272501313D

 19 20  0  0  0  0  0  0  0  0999 V2000
   38.2340   26.4410   35.3830 C   0  0  0  0  0  0  0  0  0  0  0  0
   38.8610   27.3630   35.9430 O   0  0  0  0  0  0  0  0  0  0  0  0
   36.1340   27.9530   32.6930 C   0  0  0  0  0  0  0  0  0  0  0  0
   36.8620   27.8650   33.8810 C   0  0  0  0  0  0  0  0  0  0  0  0
   37.4510   26.6350   34.1630 C   0  0  0  0  0  0  0  0  0  0  0  0
   37.2920   25.6030   33.2860 N   0  0  0  0  0  0  0  0  0  0  0  0
   36.5780   25.7450   32.1530 C   0  0  0  0  0  0  0  0  0  0  0  0
   36.0020   26.9110   31.8560 N   0  0  0  0  0  0  0  0  0  0  0  0
   35.6740   28.9300   32.4830 H   0  0  0  0  0  0  0  0  0  0  0  0
   36.9730   28.7000   34.5610 H   0  0  0  0  0  0  0  0  0  0  0  0
   36.4870   24.8890   31.4970 H   0  0  0  0  0  0  0  0  0  0  0  0
   38.2840   25.1000   35.9780 C   0  0  0  0  0  0  0  0  0  0  0  0
   39.3570   24.2580   35.8300 C   0  0  0  0  0  0  0  0  0  0  0  0
   40.2750   24.3970   35.3060 H   0  0  0  0  0  0  0  0  0  0  0  0
   38.9960   23.1110   36.5420 C   0  0  0  0  0  0  0  0  0  0  0  0
   39.6580   22.2380   36.6140 H   0  0  0  0  0  0  0  0  0  0  0  0
   37.7550   23.3230   37.0640 C   0  0  0  0  0  0  0  0  0  0  0  0
   37.2870   22.5520   37.6550 H   0  0  0  0  0  0  0  0  0  0  0  0
   37.3530   24.5190   36.7120 O   0  0  0  0  0  0  0  0  0  0  0  0
  1  2  2  0  0  0  0
  1 12  1  0  0  0  0
  3  4  1  0  0  0  0
  4  5  2  0  0  0  0
  4 10  1  0  0  0  0
  5  1  1  0  0  0  0
  6  5  1  0  0  0  0
  7  6  2  0  0  0  0
  8  7  1  0  0  0  0
  8  3  2  0  0  0  0
  9  3  1  0  0  0  0
 11  7  1  0  0  0  0
 12 19  1  0  0  0  0
 13 12  2  0  0  0  0
 13 15  1  0  0  0  0
 14 13  1  0  0  0  0
 15 16  1  0  0  0  0
 15 17  2  0  0  0  0
 17 18  1  0  0  0  0
 19 17  1  0  0  0  0
M  END
>  <minimizedAffinity>
-3.70123982

$$$$

 OpenBabel03272501313D

 19 20  0  0  0  0  0  0  0  0999 V2000
   38.7720   22.7900   35.9400 C   0  0  0  0  0  0  0  0  0  0  0  0
   39.6680   22.2350   36.6090 O   0  0  0  0  0  0  0  0  0  0  0  0
   36.5830   21.1720   33.3880 C   0  0  0  0  0  0  0  0  0  0  0  0
   37.6590   21.8900   33.9120 C   0  0  0  0  0  0  0  0  0  0  0  0
   37.6860   22.0540   35.2940 C   0  0  0  0  0  0  0  0  0  0  0  0
   36.6840   21.5190   36.0490 N   0  0  0  0  0  0  0  0  0  0  0  0
   35.6680   20.8350   35.4890 C   0  0  0  0  0  0  0  0  0  0  0  0
   35.6150   20.6610   34.1670 N   0  0  0  0  0  0  0  0  0  0  0  0
   36.5730   21.0500   32.2940 H   0  0  0  0  0  0  0  0  0  0  0  0
   38.4420   22.3040   33.2900 H   0  0  0  0  0  0  0  0  0  0  0  0
   34.9030   20.4350   36.1410 H   0  0  0  0  0  0  0  0  0  0  0  0
   38.8120   24.2510   35.7940 C   0  0  0  0  0  0  0  0  0  0  0  0
   38.0350   25.0970   36.5440 C   0  0  0  0  0  0  0  0  0  0  0  0
   37.3200   24.8830   37.3050 H   0  0  0  0  0  0  0  0  0  0  0  0
   38.3820   26.3730   36.0930 C   0  0  0  0  0  0  0  0  0  0  0  0
   37.9230   27.2810   36.5060 H   0  0  0  0  0  0  0  0  0  0  0  0
   39.3240   26.2250   35.1200 C   0  0  0  0  0  0  0  0  0  0  0  0
   39.7300   27.0980   34.6340 H   0  0  0  0  0  0  0  0  0  0  0  0
   39.5630   24.9470   34.9610 O   0  0  0  0  0  0  0  0  0  0  0  0
  1  2  2  0  0  0  0
  3  4  2  0  0  0  0
  3  8  1  0  0  0  0
  4  5  1  0  0  0  0
  5  1  1  0  0  0  0
  5  6  2  0  0  0  0
  7  6  1  0  0  0  0
  7 11  1  0  0  0  0
  8  7  2  0  0  0  0
  9  3  1  0  0  0  0
 10  4  1  0  0  0  0
 12  1  1  0  0  0  0
 12 13  2  0  0  0  0
 13 14  1  0  0  0  0
 15 16  1  0  0  0  0
 15 13  1  0  0  0  0
 17 15  2  0  0  0  0
 18 17  1  0  0  0  0
 19 17  1  0  0  0  0
 19 12  1  0  0  0  0
M  END
>  <minimizedAffinity>
-3.69804049

$$$$

 OpenBabel03272501313D

 19 20  0  0  0  0  0  0  0  0999 V2000
   37.8050   26.9350   31.7910 C   0  0  0  0  0  0  0  0  0  0  0  0
   38.3320   27.5770   30.8600 O   0  0  0  0  0  0  0  0  0  0  0  0
   39.8810   26.8700   34.8920 C   0  0  0  0  0  0  0  0  0  0  0  0
   39.5560   26.7400   33.5400 C   0  0  0  0  0  0  0  0  0  0  0  0
   38.2450   27.0400   33.1820 C   0  0  0  0  0  0  0  0  0  0  0  0
   37.3640   27.4360   34.1450 N   0  0  0  0  0  0  0  0  0  0  0  0
   37.7330   27.5440   35.4360 C   0  0  0  0  0  0  0  0  0  0  0  0
   38.9830   27.2630   35.8100 N   0  0  0  0  0  0  0  0  0  0  0  0
   40.9210   26.6290   35.1610 H   0  0  0  0  0  0  0  0  0  0  0  0
   40.2750   26.4230   32.7950 H   0  0  0  0  0  0  0  0  0  0  0  0
   36.9900   27.8640   36.1540 H   0  0  0  0  0  0  0  0  0  0  0  0
   36.6930   26.0300   31.4740 C   0  0  0  0  0  0  0  0  0  0  0  0
   36.7420   24.6780   31.7050 C   0  0  0  0  0  0  0  0  0  0  0  0
   37.5190   24.0770   32.1170 H   0  0  0  0  0  0  0  0  0  0  0  0
   35.5000   24.2100   31.2670 C   0  0  0  0  0  0  0  0  0  0  0  0
   35.2280   23.1480   31.3200 H   0  0  0  0  0  0  0  0  0  0  0  0
   34.7930   25.2810   30.8100 C   0  0  0  0  0  0  0  0  0  0  0  0
   33.7970   25.1350   30.4230 H   0  0  0  0  0  0  0  0  0  0  0  0
   35.5280   26.3560   30.9450 O   0  0  0  0  0  0  0  0  0  0  0  0
  1  5  1  0  0  0  0
  2  1  2  0  0  0  0
  3  9  1  0  0  0  0
  3  8  1  0  0  0  0
  4  3  2  0  0  0  0
  5  4  1  0  0  0  0
  5  6  2  0  0  0  0
  6  7  1  0  0  0  0
  7  8  2  0  0  0  0
  7 11  1  0  0  0  0
 10  4  1  0  0  0  0
 12 13  2  0  0  0  0
 12  1  1  0  0  0  0
 13 14  1  0  0  0  0
 15 16  1  0  0  0  0
 15 13  1  0  0  0  0
 17 19  1  0  0  0  0
 17 15  2  0  0  0  0
 18 17  1  0  0  0  0
 19 12  1  0  0  0  0
M  END
>  <minimizedAffinity>
-3.68292975

$$$$

 OpenBabel03272501313D

 19 20  0  0  0  0  0  0  0  0999 V2000
   38.8570   26.3680   34.9620 C   0  0  0  0  0  0  0  0  0  0  0  0
   39.9610   26.8770   35.2440 O   0  0  0  0  0  0  0  0  0  0  0  0
   37.6770   23.5440   37.0970 C   0  0  0  0  0  0  0  0  0  0  0  0
   38.0520   24.8430   36.7460 C   0  0  0  0  0  0  0  0  0  0  0  0
   38.4460   25.0440   35.4260 C   0  0  0  0  0  0  0  0  0  0  0  0
   38.4480   23.9890   34.5620 N   0  0  0  0  0  0  0  0  0  0  0  0
   38.0760   22.7560   34.9560 C   0  0  0  0  0  0  0  0  0  0  0  0
   37.6930   22.5320   36.2140 N   0  0  0  0  0  0  0  0  0  0  0  0
   37.3670   23.3980   38.1420 H   0  0  0  0  0  0  0  0  0  0  0  0
   38.0420   25.6630   37.4530 H   0  0  0  0  0  0  0  0  0  0  0  0
   38.0990   21.9590   34.2230 H   0  0  0  0  0  0  0  0  0  0  0  0
   37.9280   27.1360   34.1220 C   0  0  0  0  0  0  0  0  0  0  0  0
   36.8400   27.8010   34.6300 C   0  0  0  0  0  0  0  0  0  0  0  0
   36.4890   27.8840   35.6320 H   0  0  0  0  0  0  0  0  0  0  0  0
   36.2420   28.3870   33.5110 C   0  0  0  0  0  0  0  0  0  0  0  0
   35.3330   28.9970   33.5890 H   0  0  0  0  0  0  0  0  0  0  0  0
   36.9860   28.0480   32.4210 C   0  0  0  0  0  0  0  0  0  0  0  0
   36.6940   28.4010   31.4450 H   0  0  0  0  0  0  0  0  0  0  0  0
   37.9880   27.3000   32.8140 O   0  0  0  0  0  0  0  0  0  0  0  0
  1  2  2  0  0  0  0
  1  5  1  0  0  0  0
  3  9  1  0  0  0  0
  4  3  1  0  0  0  0
  4 10  1  0  0  0  0
  5  4  2  0  0  0  0
  6  7  2  0  0  0  0
  6  5  1  0  0  0  0
  7  8  1  0  0  0  0
  8  3  2  0  0  0  0
 11  7  1  0  0  0  0
 12 13  2  0  0  0  0
 12  1  1  0  0  0  0
 13 14  1  0  0  0  0
 15 16  1  0  0  0  0
 15 13  1  0  0  0  0
 17 19  1  0  0  0  0
 17 15  2  0  0  0  0
 18 17  1  0  0  0  0
 19 12  1  0  0  0  0
M  END
>  <minimizedAffinity>
-3.6691637

$$$$

 OpenBabel03272501313D

 19 20  0  0  0  0  0  0  0  0999 V2000
   38.8680   26.3700   35.5980 C   0  0  0  0  0  0  0  0  0  0  0  0
   38.3170   27.3380   36.1610 O   0  0  0  0  0  0  0  0  0  0  0  0
   37.5840   23.2080   37.1060 C   0  0  0  0  0  0  0  0  0  0  0  0
   37.9720   24.5460   37.0230 C   0  0  0  0  0  0  0  0  0  0  0  0
   38.4380   24.9860   35.7870 C   0  0  0  0  0  0  0  0  0  0  0  0
   38.4900   24.1090   34.7440 N   0  0  0  0  0  0  0  0  0  0  0  0
   38.1010   22.8270   34.8810 C   0  0  0  0  0  0  0  0  0  0  0  0
   37.6510   22.3760   36.0530 N   0  0  0  0  0  0  0  0  0  0  0  0
   37.2180   22.8730   38.0880 H   0  0  0  0  0  0  0  0  0  0  0  0
   37.9210   25.2220   37.8680 H   0  0  0  0  0  0  0  0  0  0  0  0
   38.1660   22.1800   34.0160 H   0  0  0  0  0  0  0  0  0  0  0  0
   40.0040   26.6360   34.7060 C   0  0  0  0  0  0  0  0  0  0  0  0
   39.8590   27.1870   33.4570 C   0  0  0  0  0  0  0  0  0  0  0  0
   38.9820   27.5000   32.9400 H   0  0  0  0  0  0  0  0  0  0  0  0
   41.1630   27.2650   32.9620 C   0  0  0  0  0  0  0  0  0  0  0  0
   41.3840   27.6690   31.9660 H   0  0  0  0  0  0  0  0  0  0  0  0
   41.9980   26.7680   33.9180 C   0  0  0  0  0  0  0  0  0  0  0  0
   43.0600   26.7370   33.7330 H   0  0  0  0  0  0  0  0  0  0  0  0
   41.2800   26.3990   34.9490 O   0  0  0  0  0  0  0  0  0  0  0  0
  1  5  1  0  0  0  0
  1  2  2  0  0  0  0
  3  9  1  0  0  0  0
  4  3  1  0  0  0  0
  4 10  1  0  0  0  0
  5  4  2  0  0  0  0
  6  7  2  0  0  0  0
  6  5  1  0  0  0  0
  7  8  1  0  0  0  0
  8  3  2  0  0  0  0
 11  7  1  0  0  0  0
 12 19  1  0  0  0  0
 12  1  1  0  0  0  0
 13 12  2  0  0  0  0
 14 13  1  0  0  0  0
 15 13  1  0  0  0  0
 15 17  2  0  0  0  0
 16 15  1  0  0  0  0
 17 19  1  0  0  0  0
 18 17  1  0  0  0  0
M  END
>  <minimizedAffinity>
-3.66656017

$$$$
