
 OpenBabel03262520213D

 22 23  0  0  0  0  0  0  0  0999 V2000
   34.4680   28.9650   48.6220 C   0  0  0  0  0  0  0  0  0  0  0  0
   35.7210   29.6360   48.5690 C   0  0  0  0  0  0  0  0  0  0  0  0
   36.0020   30.3420   47.4190 C   0  0  0  0  0  0  0  0  0  0  0  0
   35.0430   30.3370   46.4300 N   0  0  0  0  0  0  0  0  0  0  0  0
   33.8790   29.7050   46.5050 C   0  0  0  0  0  0  0  0  0  0  0  0
   33.6060   29.0180   47.6160 N   0  0  0  0  0  0  0  0  0  0  0  0
   33.0030   29.8360   45.4070 N   0  0  0  0  0  0  0  0  0  0  0  0
   34.0760   28.3680   49.4270 H   0  0  0  0  0  0  0  0  0  0  0  0
   32.0700   30.2900   45.6060 H   0  0  0  0  0  0  0  0  0  0  0  0
   33.3540   29.4720   44.4970 H   0  0  0  0  0  0  0  0  0  0  0  0
   36.5300   29.4910   49.7780 C   0  0  0  0  0  0  0  0  0  0  0  0
   36.4870   30.3910   50.8200 C   0  0  0  0  0  0  0  0  0  0  0  0
   35.9030   31.3220   50.9730 H   0  0  0  0  0  0  0  0  0  0  0  0
   37.3140   30.0840   51.8640 C   0  0  0  0  0  0  0  0  0  0  0  0
   37.5280   30.5470   52.8060 H   0  0  0  0  0  0  0  0  0  0  0  0
   37.8870   28.9270   51.4150 C   0  0  0  0  0  0  0  0  0  0  0  0
   38.6300   28.2530   51.8580 H   0  0  0  0  0  0  0  0  0  0  0  0
   37.3940   28.6860   50.2680 O   0  0  0  0  0  0  0  0  0  0  0  0
   37.2850   31.0590   47.2790 C   0  0  0  0  0  0  0  0  0  0  0  0
   38.2530   30.1610   47.4500 F   0  0  0  0  0  0  0  0  0  0  0  0
   37.4510   31.6650   46.0430 F   0  0  0  0  0  0  0  0  0  0  0  0
   37.4020   32.0900   48.2390 F   0  0  0  0  0  0  0  0  0  0  0  0
  1  8  1  0  0  0  0
  2  1  1  0  0  0  0
  2 11  1  0  0  0  0
  3  2  2  0  0  0  0
  4  5  2  0  0  0  0
  4  3  1  0  0  0  0
  5  6  1  0  0  0  0
  6  1  2  0  0  0  0
  7  9  1  0  0  0  0
  7  5  1  0  0  0  0
 10  7  1  0  0  0  0
 11 18  1  0  0  0  0
 11 12  2  0  0  0  0
 12 13  1  0  0  0  0
 12 14  1  0  0  0  0
 14 15  1  0  0  0  0
 16 17  1  0  0  0  0
 16 14  2  0  0  0  0
 18 16  1  0  0  0  0
 19  3  1  0  0  0  0
 19 20  1  0  0  0  0
 19 22  1  0  0  0  0
 21 19  1  0  0  0  0
M  END
>  <minimizedAffinity>
-4.41806412

>  <minimizedRMSD>
3.32782269

$$$$
