
 OpenBabel03272507523D

 31 33  0  0  0  0  0  0  0  0999 V2000
   36.5350   31.2870   48.7200 N   0  0  0  0  0  0  0  0  0  0  0  0
   36.7070   32.1230   49.7390 C   0  0  0  0  0  0  0  0  0  0  0  0
   37.7550   33.0450   49.7150 C   0  0  0  0  0  0  0  0  0  0  0  0
   38.5330   32.9880   48.5920 C   0  0  0  0  0  0  0  0  0  0  0  0
   39.4820   33.8300   48.5830 O   0  0  0  0  0  0  0  0  0  0  0  0
   38.4000   32.1670   47.5450 N   0  0  0  0  0  0  0  0  0  0  0  0
   37.3630   31.2970   47.6310 C   0  0  0  0  0  0  0  0  0  0  0  0
   37.2110   30.5110   46.6590 O   0  0  0  0  0  0  0  0  0  0  0  0
   36.0140   32.0650   50.5770 H   0  0  0  0  0  0  0  0  0  0  0  0
   37.9100   33.7250   50.5250 H   0  0  0  0  0  0  0  0  0  0  0  0
   35.2770   29.5480   49.8350 C   0  0  0  0  0  0  0  0  0  0  0  0
   35.4780   30.3180   48.6840 C   0  0  0  0  0  0  0  0  0  0  0  0
   34.6510   30.1050   47.5780 C   0  0  0  0  0  0  0  0  0  0  0  0
   33.6840   29.1490   47.6790 N   0  0  0  0  0  0  0  0  0  0  0  0
   33.5000   28.4230   48.7710 C   0  0  0  0  0  0  0  0  0  0  0  0
   34.2870   28.6110   49.8520 N   0  0  0  0  0  0  0  0  0  0  0  0
   34.8880   30.7430   46.7600 H   0  0  0  0  0  0  0  0  0  0  0  0
   32.7120   27.6790   48.7850 H   0  0  0  0  0  0  0  0  0  0  0  0
   37.3270   29.1770   51.4010 C   0  0  0  0  0  0  0  0  0  0  0  0
   38.0750   28.5870   50.5950 O   0  0  0  0  0  0  0  0  0  0  0  0
   36.0410   29.6880   51.0220 N   0  0  0  0  0  0  0  0  0  0  0  0
   37.7480   29.2470   52.3650 H   0  0  0  0  0  0  0  0  0  0  0  0
   35.6510   30.2690   51.8150 H   0  0  0  0  0  0  0  0  0  0  0  0
   39.2730   32.1950   46.4220 C   0  0  0  0  0  0  0  0  0  0  0  0
   39.4410   32.9680   45.2880 C   0  0  0  0  0  0  0  0  0  0  0  0
   38.7440   33.7890   45.1780 H   0  0  0  0  0  0  0  0  0  0  0  0
   40.5080   32.4120   44.6210 C   0  0  0  0  0  0  0  0  0  0  0  0
   40.8060   32.8890   43.6780 H   0  0  0  0  0  0  0  0  0  0  0  0
   40.9460   31.3390   45.3550 C   0  0  0  0  0  0  0  0  0  0  0  0
   41.7800   30.7600   45.0060 H   0  0  0  0  0  0  0  0  0  0  0  0
   40.1890   31.2350   46.4250 O   0  0  0  0  0  0  0  0  0  0  0  0
  1  2  1  0  0  0  0
  2  9  1  0  0  0  0
  3  2  2  0  0  0  0
  3 10  1  0  0  0  0
  4  3  1  0  0  0  0
  5  4  2  0  0  0  0
  6  7  1  0  0  0  0
  6  4  1  0  0  0  0
  7  1  1  0  0  0  0
  8  7  2  0  0  0  0
 11 16  1  0  0  0  0
 11 21  1  0  0  0  0
 12  1  1  0  0  0  0
 12 11  2  0  0  0  0
 13 14  2  0  0  0  0
 13 12  1  0  0  0  0
 14 15  1  0  0  0  0
 15 18  1  0  0  0  0
 15 16  2  0  0  0  0
 17 13  1  0  0  0  0
 19 22  1  0  0  0  0
 20 19  2  0  0  0  0
 21 19  1  0  0  0  0
 21 23  1  0  0  0  0
 24 31  1  0  0  0  0
 24  6  1  0  0  0  0
 25 24  2  0  0  0  0
 26 25  1  0  0  0  0
 27 25  1  0  0  0  0
 27 29  2  0  0  0  0
 28 27  1  0  0  0  0
 29 31  1  0  0  0  0
 30 29  1  0  0  0  0
M  END
>  <minimizedAffinity>
-6.2454586

>  <minimizedRMSD>
1.07553935

$$$$
