
 OpenBabel03272506433D

 31 33  0  0  1  0  0  0  0  0999 V2000
   32.2420   28.1580   47.6100 C   0  0  2  0  0  0  0  0  0  0  0  0
   33.5270   28.1490   48.3990 C   0  0  1  0  0  0  0  0  0  0  0  0
   34.0890   26.8990   48.2560 O   0  0  0  0  0  0  0  0  0  0  0  0
   33.4000   26.2030   47.2760 C   0  0  0  0  0  0  0  0  0  0  0  0
   32.6350   27.2460   46.4620 C   0  0  1  0  0  0  0  0  0  0  0  0
   31.3720   27.7970   48.1810 H   0  0  0  0  0  0  0  0  0  0  0  0
   33.3580   28.4290   49.4600 H   0  0  0  0  0  0  0  0  0  0  0  0
   34.0880   25.6720   46.6000 H   0  0  0  0  0  0  0  0  0  0  0  0
   32.6550   25.5640   47.7730 H   0  0  0  0  0  0  0  0  0  0  0  0
   33.2820   27.8180   45.7960 H   0  0  0  0  0  0  0  0  0  0  0  0
   31.9540   29.4550   47.1580 O   0  0  0  0  0  0  0  0  0  0  0  0
   31.1840   29.4580   46.5690 H   0  0  0  0  0  0  0  0  0  0  0  0
   34.6530   29.3520   47.6110 S   0  0  0  0  0  0  0  0  0  0  0  0
   37.2790   29.3050   50.5840 C   0  0  0  0  0  0  0  0  0  0  0  0
   37.7360   30.6130   50.6750 C   0  0  0  0  0  0  0  0  0  0  0  0
   37.2230   31.5590   49.7890 C   0  0  0  0  0  0  0  0  0  0  0  0
   36.2910   31.1620   48.8680 N   0  0  0  0  0  0  0  0  0  0  0  0
   35.8740   29.8720   48.8180 C   0  0  0  0  0  0  0  0  0  0  0  0
   36.3560   28.9390   49.6650 N   0  0  0  0  0  0  0  0  0  0  0  0
   37.7120   28.6250   51.2930 H   0  0  0  0  0  0  0  0  0  0  0  0
   38.4730   30.9420   51.3980 H   0  0  0  0  0  0  0  0  0  0  0  0
   37.5110   32.5940   49.7780 H   0  0  0  0  0  0  0  0  0  0  0  0
   31.5510   26.6560   45.8410 O   0  0  0  0  0  0  0  0  0  0  0  0
   30.6510   27.2780   45.0030 C   0  0  0  0  0  0  0  0  0  0  0  0
   30.1520   26.4770   43.9740 C   0  0  0  0  0  0  0  0  0  0  0  0
   30.3100   25.4400   43.6660 H   0  0  0  0  0  0  0  0  0  0  0  0
   29.2650   27.2650   43.2350 C   0  0  0  0  0  0  0  0  0  0  0  0
   28.6510   27.0760   42.3610 H   0  0  0  0  0  0  0  0  0  0  0  0
   29.3090   28.4930   43.8930 C   0  0  0  0  0  0  0  0  0  0  0  0
   28.7280   29.3710   43.5870 H   0  0  0  0  0  0  0  0  0  0  0  0
   30.1270   28.4570   44.9180 O   0  0  0  0  0  0  0  0  0  0  0  0
  1  6  1  1  0  0  0
  1  2  1  0  0  0  0
  2  7  1  1  0  0  0
  3  2  1  0  0  0  0
  4  9  1  0  0  0  0
  4  3  1  0  0  0  0
  5 10  1  6  0  0  0
  5  4  1  0  0  0  0
  5  1  1  0  0  0  0
  8  4  1  0  0  0  0
 11  1  1  0  0  0  0
 12 11  1  0  0  0  0
 13  2  1  0  0  0  0
 13 18  1  0  0  0  0
 14 15  1  0  0  0  0
 14 20  1  0  0  0  0
 15 21  1  0  0  0  0
 16 15  2  0  0  0  0
 17 16  1  0  0  0  0
 18 17  2  0  0  0  0
 18 19  1  0  0  0  0
 19 14  2  0  0  0  0
 22 16  1  0  0  0  0
 23  5  1  0  0  0  0
 24 23  1  0  0  0  0
 25 24  2  0  0  0  0
 26 25  1  0  0  0  0
 27 29  2  0  0  0  0
 27 25  1  0  0  0  0
 28 27  1  0  0  0  0
 29 31  1  0  0  0  0
 30 29  1  0  0  0  0
 31 24  1  0  0  0  0
M  END
>  <minimizedAffinity>
-3.79348302

>  <minimizedRMSD>
1.15956855

$$$$
