
 OpenBabel03272509323D

 37 39  0  0  1  0  0  0  0  0999 V2000
   38.4910   25.8920   34.2610 C   0  0  2  0  0  0  0  0  0  0  0  0
   38.3680   27.2320   34.9200 C   0  0  0  0  0  0  0  0  0  0  0  0
   37.0060   27.8600   34.7280 C   0  0  0  0  0  0  0  0  0  0  0  0
   36.6810   27.9840   33.2390 C   0  0  0  0  0  0  0  0  0  0  0  0
   37.1600   26.8230   32.4100 C   0  0  0  0  0  0  0  0  0  0  0  0
   37.3510   25.6100   33.3390 C   0  0  1  0  0  0  0  0  0  0  0  0
   39.4280   25.7860   33.6330 H   0  0  0  0  0  0  0  0  0  0  0  0
   39.0590   27.9100   34.3120 H   0  0  0  0  0  0  0  0  0  0  0  0
   38.7190   27.3240   35.9300 H   0  0  0  0  0  0  0  0  0  0  0  0
   37.0630   28.8730   35.1450 H   0  0  0  0  0  0  0  0  0  0  0  0
   36.1810   27.3070   35.1870 H   0  0  0  0  0  0  0  0  0  0  0  0
   37.1530   28.9080   32.8600 H   0  0  0  0  0  0  0  0  0  0  0  0
   35.5680   28.0570   33.1080 H   0  0  0  0  0  0  0  0  0  0  0  0
   38.1510   27.0090   31.9850 H   0  0  0  0  0  0  0  0  0  0  0  0
   36.4190   26.5520   31.6260 H   0  0  0  0  0  0  0  0  0  0  0  0
   36.4240   25.6240   33.8610 H   0  0  0  0  0  0  0  0  0  0  0  0
   38.5700   24.8030   35.2700 C   0  0  0  0  0  0  0  0  0  0  0  0
   38.0740   25.1230   36.5460 C   0  0  0  0  0  0  0  0  0  0  0  0
   38.1340   24.1150   37.5140 C   0  0  0  0  0  0  0  0  0  0  0  0
   38.6670   22.8920   37.1650 N   0  0  0  0  0  0  0  0  0  0  0  0
   39.1350   22.6340   35.9080 C   0  0  0  0  0  0  0  0  0  0  0  0
   39.0780   23.6030   34.9720 N   0  0  0  0  0  0  0  0  0  0  0  0
   37.6330   26.0190   36.9390 H   0  0  0  0  0  0  0  0  0  0  0  0
   37.7930   24.2150   38.5330 H   0  0  0  0  0  0  0  0  0  0  0  0
   39.5280   21.6420   35.7520 H   0  0  0  0  0  0  0  0  0  0  0  0
   36.3850   23.7550   31.8950 C   0  0  0  0  0  0  0  0  0  0  0  0
   35.2440   24.1740   31.5390 O   0  0  0  0  0  0  0  0  0  0  0  0
   37.4060   24.3550   32.6790 N   0  0  0  0  0  0  0  0  0  0  0  0
   38.2910   23.7540   32.7400 H   0  0  0  0  0  0  0  0  0  0  0  0
   36.5860   22.3890   31.3460 C   0  0  0  0  0  0  0  0  0  0  0  0
   35.6620   21.3780   31.2110 C   0  0  0  0  0  0  0  0  0  0  0  0
   34.6300   21.3870   31.4750 H   0  0  0  0  0  0  0  0  0  0  0  0
   36.2800   20.2520   30.6440 C   0  0  0  0  0  0  0  0  0  0  0  0
   35.7950   19.3030   30.4200 H   0  0  0  0  0  0  0  0  0  0  0  0
   37.5840   20.6660   30.4640 C   0  0  0  0  0  0  0  0  0  0  0  0
   38.3390   20.0150   30.0350 H   0  0  0  0  0  0  0  0  0  0  0  0
   37.7030   21.8840   30.8790 O   0  0  0  0  0  0  0  0  0  0  0  0
  1  7  1  6  0  0  0
  1  2  1  0  0  0  0
  1 17  1  0  0  0  0
  2  9  1  0  0  0  0
  3  2  1  0  0  0  0
  3 10  1  0  0  0  0
  3 11  1  0  0  0  0
  4  3  1  0  0  0  0
  5  4  1  0  0  0  0
  5  6  1  0  0  0  0
  6 16  1  1  0  0  0
  6  1  1  0  0  0  0
  8  2  1  0  0  0  0
 12  4  1  0  0  0  0
 13  4  1  0  0  0  0
 14  5  1  0  0  0  0
 15  5  1  0  0  0  0
 17 18  1  0  0  0  0
 18 23  1  0  0  0  0
 18 19  2  0  0  0  0
 19 24  1  0  0  0  0
 20 19  1  0  0  0  0
 21 20  2  0  0  0  0
 22 17  2  0  0  0  0
 22 21  1  0  0  0  0
 25 21  1  0  0  0  0
 26 28  1  0  0  0  0
 27 26  2  0  0  0  0
 28 29  1  0  0  0  0
 28  6  1  0  0  0  0
 30 26  1  0  0  0  0
 31 30  2  0  0  0  0
 31 32  1  0  0  0  0
 33 31  1  0  0  0  0
 34 33  1  0  0  0  0
 35 33  2  0  0  0  0
 35 37  1  0  0  0  0
 36 35  1  0  0  0  0
 37 30  1  0  0  0  0
M  END
>  <minimizedAffinity>
-5.27606153

$$$$

 OpenBabel03272509323D

 37 39  0  0  1  0  0  0  0  0999 V2000
   40.0630   24.6140   34.4460 C   0  0  2  0  0  0  0  0  0  0  0  0
   40.8120   25.9020   34.6010 C   0  0  0  0  0  0  0  0  0  0  0  0
   40.1080   27.0740   33.9540 C   0  0  0  0  0  0  0  0  0  0  0  0
   39.8600   26.7950   32.4720 C   0  0  0  0  0  0  0  0  0  0  0  0
   39.4940   25.3660   32.1720 C   0  0  0  0  0  0  0  0  0  0  0  0
   38.9470   24.7240   33.4610 C   0  0  1  0  0  0  0  0  0  0  0  0
   40.7120   23.7600   34.0820 H   0  0  0  0  0  0  0  0  0  0  0  0
   41.7450   25.7660   33.9540 H   0  0  0  0  0  0  0  0  0  0  0  0
   41.1920   26.1440   35.5750 H   0  0  0  0  0  0  0  0  0  0  0  0
   40.7890   27.9310   34.0250 H   0  0  0  0  0  0  0  0  0  0  0  0
   39.1390   27.3230   34.3970 H   0  0  0  0  0  0  0  0  0  0  0  0
   40.7790   27.0490   31.9150 H   0  0  0  0  0  0  0  0  0  0  0  0
   39.0170   27.4430   32.1100 H   0  0  0  0  0  0  0  0  0  0  0  0
   40.3720   24.7680   31.9120 H   0  0  0  0  0  0  0  0  0  0  0  0
   38.7070   25.3050   31.3880 H   0  0  0  0  0  0  0  0  0  0  0  0
   38.2460   25.4670   33.7580 H   0  0  0  0  0  0  0  0  0  0  0  0
   39.5070   24.1570   35.7480 C   0  0  0  0  0  0  0  0  0  0  0  0
   40.2980   23.2330   36.4520 C   0  0  0  0  0  0  0  0  0  0  0  0
   39.7990   22.7890   37.6820 C   0  0  0  0  0  0  0  0  0  0  0  0
   38.5850   23.2740   38.1190 N   0  0  0  0  0  0  0  0  0  0  0  0
   37.8560   24.1740   37.3920 C   0  0  0  0  0  0  0  0  0  0  0  0
   38.3350   24.6040   36.2070 N   0  0  0  0  0  0  0  0  0  0  0  0
   41.2500   22.7890   36.2320 H   0  0  0  0  0  0  0  0  0  0  0  0
   40.2930   22.0820   38.3310 H   0  0  0  0  0  0  0  0  0  0  0  0
   36.9230   24.4820   37.8350 H   0  0  0  0  0  0  0  0  0  0  0  0
   36.9720   23.4050   32.5580 C   0  0  0  0  0  0  0  0  0  0  0  0
   36.2900   24.2430   31.8970 O   0  0  0  0  0  0  0  0  0  0  0  0
   38.1980   23.5360   33.2650 N   0  0  0  0  0  0  0  0  0  0  0  0
   38.5470   22.6070   33.6670 H   0  0  0  0  0  0  0  0  0  0  0  0
   36.2780   22.0910   32.5260 C   0  0  0  0  0  0  0  0  0  0  0  0
   35.5070   21.5570   31.5190 C   0  0  0  0  0  0  0  0  0  0  0  0
   35.2640   21.9870   30.5740 H   0  0  0  0  0  0  0  0  0  0  0  0
   35.0450   20.2900   31.9060 C   0  0  0  0  0  0  0  0  0  0  0  0
   34.4130   19.6320   31.3100 H   0  0  0  0  0  0  0  0  0  0  0  0
   35.5830   20.1300   33.1660 C   0  0  0  0  0  0  0  0  0  0  0  0
   35.4110   19.2340   33.7540 H   0  0  0  0  0  0  0  0  0  0  0  0
   36.2730   21.1800   33.4690 O   0  0  0  0  0  0  0  0  0  0  0  0
  1  7  1  6  0  0  0
  1  2  1  0  0  0  0
  1 17  1  0  0  0  0
  2  9  1  0  0  0  0
  3 10  1  0  0  0  0
  3 11  1  0  0  0  0
  3  2  1  0  0  0  0
  4  3  1  0  0  0  0
  5  4  1  0  0  0  0
  5  6  1  0  0  0  0
  6 16  1  1  0  0  0
  6  1  1  0  0  0  0
  8  2  1  0  0  0  0
 12  4  1  0  0  0  0
 13  4  1  0  0  0  0
 14  5  1  0  0  0  0
 15  5  1  0  0  0  0
 17 22  2  0  0  0  0
 17 18  1  0  0  0  0
 18 19  2  0  0  0  0
 19 20  1  0  0  0  0
 19 24  1  0  0  0  0
 21 25  1  0  0  0  0
 21 20  2  0  0  0  0
 22 21  1  0  0  0  0
 23 18  1  0  0  0  0
 26 28  1  0  0  0  0
 27 26  2  0  0  0  0
 28  6  1  0  0  0  0
 28 29  1  0  0  0  0
 30 26  1  0  0  0  0
 30 37  1  0  0  0  0
 31 33  1  0  0  0  0
 31 30  2  0  0  0  0
 32 31  1  0  0  0  0
 33 35  2  0  0  0  0
 34 33  1  0  0  0  0
 35 37  1  0  0  0  0
 35 36  1  0  0  0  0
M  END
>  <minimizedAffinity>
-5.08444929

$$$$

 OpenBabel03272509323D

 37 39  0  0  1  0  0  0  0  0999 V2000
   36.2040   25.7620   32.0530 C   0  0  2  0  0  0  0  0  0  0  0  0
   35.9820   26.6170   30.8430 C   0  0  0  0  0  0  0  0  0  0  0  0
   37.0170   27.7100   30.6960 C   0  0  0  0  0  0  0  0  0  0  0  0
   37.0500   28.5850   31.9480 C   0  0  0  0  0  0  0  0  0  0  0  0
   36.8560   27.8230   33.2310 C   0  0  0  0  0  0  0  0  0  0  0  0
   37.2180   26.3470   32.9800 C   0  0  1  0  0  0  0  0  0  0  0  0
   35.2690   25.6130   32.6740 H   0  0  0  0  0  0  0  0  0  0  0  0
   35.0220   27.1920   31.0760 H   0  0  0  0  0  0  0  0  0  0  0  0
   35.7800   26.1210   29.9130 H   0  0  0  0  0  0  0  0  0  0  0  0
   36.6970   28.3380   29.8550 H   0  0  0  0  0  0  0  0  0  0  0  0
   38.0370   27.3510   30.5320 H   0  0  0  0  0  0  0  0  0  0  0  0
   36.2490   29.3410   31.8610 H   0  0  0  0  0  0  0  0  0  0  0  0
   38.0440   29.1040   32.0100 H   0  0  0  0  0  0  0  0  0  0  0  0
   35.8060   27.8050   33.5390 H   0  0  0  0  0  0  0  0  0  0  0  0
   37.5150   28.2130   34.0380 H   0  0  0  0  0  0  0  0  0  0  0  0
   38.1570   26.4640   32.4940 H   0  0  0  0  0  0  0  0  0  0  0  0
   36.6430   24.3930   31.6690 C   0  0  0  0  0  0  0  0  0  0  0  0
   35.6180   23.4360   31.5700 C   0  0  0  0  0  0  0  0  0  0  0  0
   36.0040   22.1400   31.2080 C   0  0  0  0  0  0  0  0  0  0  0  0
   37.3380   21.8860   30.9760 N   0  0  0  0  0  0  0  0  0  0  0  0
   38.2950   22.8560   31.0870 C   0  0  0  0  0  0  0  0  0  0  0  0
   37.9270   24.1060   31.4350 N   0  0  0  0  0  0  0  0  0  0  0  0
   34.5570   23.5040   31.7140 H   0  0  0  0  0  0  0  0  0  0  0  0
   35.3310   21.3040   31.0940 H   0  0  0  0  0  0  0  0  0  0  0  0
   39.3050   22.5400   30.8800 H   0  0  0  0  0  0  0  0  0  0  0  0
   38.7210   25.4380   34.8160 C   0  0  0  0  0  0  0  0  0  0  0  0
   39.8550   25.9610   34.6030 O   0  0  0  0  0  0  0  0  0  0  0  0
   37.4750   25.5870   34.1490 N   0  0  0  0  0  0  0  0  0  0  0  0
   36.6810   25.0490   34.6270 H   0  0  0  0  0  0  0  0  0  0  0  0
   38.8240   24.5290   35.9870 C   0  0  0  0  0  0  0  0  0  0  0  0
   38.0250   24.4840   37.1070 C   0  0  0  0  0  0  0  0  0  0  0  0
   37.1830   25.0930   37.3410 H   0  0  0  0  0  0  0  0  0  0  0  0
   38.4790   23.4710   37.9650 C   0  0  0  0  0  0  0  0  0  0  0  0
   38.0400   23.2040   38.9250 H   0  0  0  0  0  0  0  0  0  0  0  0
   39.5620   22.9470   37.2880 C   0  0  0  0  0  0  0  0  0  0  0  0
   40.1480   22.1280   37.6920 H   0  0  0  0  0  0  0  0  0  0  0  0
   39.7130   23.5830   36.1740 O   0  0  0  0  0  0  0  0  0  0  0  0
  1  7  1  1  0  0  0
  1  6  1  0  0  0  0
  2  8  1  0  0  0  0
  2  1  1  0  0  0  0
  3  2  1  0  0  0  0
  3  4  1  0  0  0  0
  4 13  1  0  0  0  0
  4  5  1  0  0  0  0
  5 14  1  0  0  0  0
  5 15  1  0  0  0  0
  6 16  1  6  0  0  0
  6  5  1  0  0  0  0
  6 28  1  0  0  0  0
  9  2  1  0  0  0  0
 10  3  1  0  0  0  0
 11  3  1  0  0  0  0
 12  4  1  0  0  0  0
 17  1  1  0  0  0  0
 18 17  1  0  0  0  0
 18 23  1  0  0  0  0
 19 18  2  0  0  0  0
 20 21  2  0  0  0  0
 20 19  1  0  0  0  0
 21 22  1  0  0  0  0
 22 17  2  0  0  0  0
 24 19  1  0  0  0  0
 25 21  1  0  0  0  0
 26 30  1  0  0  0  0
 27 26  2  0  0  0  0
 28 29  1  0  0  0  0
 28 26  1  0  0  0  0
 30 37  1  0  0  0  0
 30 31  2  0  0  0  0
 31 32  1  0  0  0  0
 31 33  1  0  0  0  0
 33 34  1  0  0  0  0
 35 36  1  0  0  0  0
 35 33  2  0  0  0  0
 37 35  1  0  0  0  0
M  END
>  <minimizedAffinity>
-4.94818211

$$$$

 OpenBabel03272509323D

 37 39  0  0  1  0  0  0  0  0999 V2000
   39.2920   25.4970   34.5760 C   0  0  2  0  0  0  0  0  0  0  0  0
   39.6600   26.7590   35.2950 C   0  0  0  0  0  0  0  0  0  0  0  0
   38.4690   27.4480   35.9230 C   0  0  0  0  0  0  0  0  0  0  0  0
   37.4070   27.7460   34.8650 C   0  0  0  0  0  0  0  0  0  0  0  0
   37.2620   26.6700   33.8240 C   0  0  0  0  0  0  0  0  0  0  0  0
   37.8160   25.3550   34.4050 C   0  0  1  0  0  0  0  0  0  0  0  0
   39.7310   25.4310   33.5340 H   0  0  0  0  0  0  0  0  0  0  0  0
   39.9710   27.4780   34.4630 H   0  0  0  0  0  0  0  0  0  0  0  0
   40.5060   26.7280   35.9550 H   0  0  0  0  0  0  0  0  0  0  0  0
   38.8290   28.4060   36.3170 H   0  0  0  0  0  0  0  0  0  0  0  0
   37.9760   26.8750   36.7140 H   0  0  0  0  0  0  0  0  0  0  0  0
   37.6790   28.6910   34.3610 H   0  0  0  0  0  0  0  0  0  0  0  0
   36.4090   27.8690   35.3660 H   0  0  0  0  0  0  0  0  0  0  0  0
   37.8800   26.8690   32.9430 H   0  0  0  0  0  0  0  0  0  0  0  0
   36.1950   26.5110   33.5510 H   0  0  0  0  0  0  0  0  0  0  0  0
   37.3210   25.3420   35.3460 H   0  0  0  0  0  0  0  0  0  0  0  0
   39.8070   24.3010   35.2950 C   0  0  0  0  0  0  0  0  0  0  0  0
   41.0550   23.8250   34.8600 C   0  0  0  0  0  0  0  0  0  0  0  0
   41.5630   22.7010   35.5220 C   0  0  0  0  0  0  0  0  0  0  0  0
   40.8220   22.1400   36.5400 N   0  0  0  0  0  0  0  0  0  0  0  0
   39.6120   22.6450   36.9230 C   0  0  0  0  0  0  0  0  0  0  0  0
   39.1190   23.7280   36.2880 N   0  0  0  0  0  0  0  0  0  0  0  0
   41.7270   24.1690   34.0980 H   0  0  0  0  0  0  0  0  0  0  0  0
   42.5060   22.2250   35.2980 H   0  0  0  0  0  0  0  0  0  0  0  0
   39.1240   22.1230   37.7310 H   0  0  0  0  0  0  0  0  0  0  0  0
   37.4960   23.9150   32.3360 C   0  0  0  0  0  0  0  0  0  0  0  0
   38.0080   24.5810   31.3880 O   0  0  0  0  0  0  0  0  0  0  0  0
   37.3990   24.1810   33.7280 N   0  0  0  0  0  0  0  0  0  0  0  0
   36.9590   23.3710   34.2760 H   0  0  0  0  0  0  0  0  0  0  0  0
   36.9270   22.6570   31.7850 C   0  0  0  0  0  0  0  0  0  0  0  0
   35.6190   22.2310   31.8050 C   0  0  0  0  0  0  0  0  0  0  0  0
   34.7700   22.7250   32.2190 H   0  0  0  0  0  0  0  0  0  0  0  0
   35.5240   20.9820   31.1720 C   0  0  0  0  0  0  0  0  0  0  0  0
   34.6110   20.4030   31.0380 H   0  0  0  0  0  0  0  0  0  0  0  0
   36.8250   20.7210   30.7950 C   0  0  0  0  0  0  0  0  0  0  0  0
   37.0980   19.8110   30.2700 H   0  0  0  0  0  0  0  0  0  0  0  0
   37.5790   21.7010   31.1670 O   0  0  0  0  0  0  0  0  0  0  0  0
  1  7  1  6  0  0  0
  1  2  1  0  0  0  0
  1 17  1  0  0  0  0
  2  3  1  0  0  0  0
  2  9  1  0  0  0  0
  3 10  1  0  0  0  0
  3 11  1  0  0  0  0
  4 13  1  0  0  0  0
  4  3  1  0  0  0  0
  5  6  1  0  0  0  0
  5  4  1  0  0  0  0
  6  1  1  0  0  0  0
  6 16  1  1  0  0  0
  8  2  1  0  0  0  0
 12  4  1  0  0  0  0
 14  5  1  0  0  0  0
 15  5  1  0  0  0  0
 17 22  1  0  0  0  0
 18 17  2  0  0  0  0
 18 19  1  0  0  0  0
 19 20  2  0  0  0  0
 20 21  1  0  0  0  0
 21 25  1  0  0  0  0
 22 21  2  0  0  0  0
 23 18  1  0  0  0  0
 24 19  1  0  0  0  0
 26 28  1  0  0  0  0
 27 26  2  0  0  0  0
 28 29  1  0  0  0  0
 28  6  1  0  0  0  0
 30 31  2  0  0  0  0
 30 26  1  0  0  0  0
 31 32  1  0  0  0  0
 33 31  1  0  0  0  0
 34 33  1  0  0  0  0
 35 37  1  0  0  0  0
 35 33  2  0  0  0  0
 36 35  1  0  0  0  0
 37 30  1  0  0  0  0
M  END
>  <minimizedAffinity>
-4.82438993

$$$$

 OpenBabel03272509323D

 37 39  0  0  1  0  0  0  0  0999 V2000
   38.4220   26.8400   32.2430 C   0  0  2  0  0  0  0  0  0  0  0  0
   38.9670   27.6070   31.0780 C   0  0  0  0  0  0  0  0  0  0  0  0
   40.4160   27.2850   30.7870 C   0  0  0  0  0  0  0  0  0  0  0  0
   41.2780   27.5410   32.0230 C   0  0  0  0  0  0  0  0  0  0  0  0
   40.6120   27.1680   33.3200 C   0  0  0  0  0  0  0  0  0  0  0  0
   39.4960   26.1500   33.0180 C   0  0  1  0  0  0  0  0  0  0  0  0
   37.8730   27.4910   32.9900 H   0  0  0  0  0  0  0  0  0  0  0  0
   39.0060   28.6890   31.4450 H   0  0  0  0  0  0  0  0  0  0  0  0
   38.3730   27.6470   30.1850 H   0  0  0  0  0  0  0  0  0  0  0  0
   40.7420   27.9780   30.0000 H   0  0  0  0  0  0  0  0  0  0  0  0
   40.6000   26.2510   30.4800 H   0  0  0  0  0  0  0  0  0  0  0  0
   41.5290   28.6160   32.0500 H   0  0  0  0  0  0  0  0  0  0  0  0
   42.2240   26.9410   31.9440 H   0  0  0  0  0  0  0  0  0  0  0  0
   40.0970   28.0210   33.7730 H   0  0  0  0  0  0  0  0  0  0  0  0
   41.3330   26.7000   34.0260 H   0  0  0  0  0  0  0  0  0  0  0  0
   40.0290   25.4630   32.4050 H   0  0  0  0  0  0  0  0  0  0  0  0
   37.4270   25.8260   31.8000 C   0  0  0  0  0  0  0  0  0  0  0  0
   36.1480   26.3250   31.5000 C   0  0  0  0  0  0  0  0  0  0  0  0
   35.1940   25.3930   31.0790 C   0  0  0  0  0  0  0  0  0  0  0  0
   35.5590   24.0670   30.9850 N   0  0  0  0  0  0  0  0  0  0  0  0
   36.8200   23.6360   31.2890 C   0  0  0  0  0  0  0  0  0  0  0  0
   37.7420   24.5320   31.6950 N   0  0  0  0  0  0  0  0  0  0  0  0
   35.7430   27.3190   31.5230 H   0  0  0  0  0  0  0  0  0  0  0  0
   34.1740   25.6270   30.8160 H   0  0  0  0  0  0  0  0  0  0  0  0
   36.9890   22.5760   31.1780 H   0  0  0  0  0  0  0  0  0  0  0  0
   38.6130   25.9210   35.3900 C   0  0  0  0  0  0  0  0  0  0  0  0
   38.4550   27.1090   35.7990 O   0  0  0  0  0  0  0  0  0  0  0  0
   39.0470   25.4060   34.1380 N   0  0  0  0  0  0  0  0  0  0  0  0
   39.0060   24.3370   34.0930 H   0  0  0  0  0  0  0  0  0  0  0  0
   38.2550   24.9850   36.4870 C   0  0  0  0  0  0  0  0  0  0  0  0
   37.8800   23.6640   36.3930 C   0  0  0  0  0  0  0  0  0  0  0  0
   37.7780   23.0670   35.5170 H   0  0  0  0  0  0  0  0  0  0  0  0
   37.6320   23.1570   37.6780 C   0  0  0  0  0  0  0  0  0  0  0  0
   37.3200   22.1400   37.9130 H   0  0  0  0  0  0  0  0  0  0  0  0
   37.8800   24.2390   38.4970 C   0  0  0  0  0  0  0  0  0  0  0  0
   37.7770   24.1770   39.5760 H   0  0  0  0  0  0  0  0  0  0  0  0
   38.2290   25.2490   37.7710 O   0  0  0  0  0  0  0  0  0  0  0  0
  1  7  1  1  0  0  0
  1  6  1  0  0  0  0
  2  8  1  0  0  0  0
  2  1  1  0  0  0  0
  3  2  1  0  0  0  0
  3  4  1  0  0  0  0
  4 12  1  0  0  0  0
  4  5  1  0  0  0  0
  5 14  1  0  0  0  0
  5 15  1  0  0  0  0
  6 16  1  6  0  0  0
  6  5  1  0  0  0  0
  6 28  1  0  0  0  0
  9  2  1  0  0  0  0
 10  3  1  0  0  0  0
 11  3  1  0  0  0  0
 13  4  1  0  0  0  0
 17  1  1  0  0  0  0
 18 23  1  0  0  0  0
 18 17  2  0  0  0  0
 19 18  1  0  0  0  0
 20 19  2  0  0  0  0
 20 21  1  0  0  0  0
 21 22  2  0  0  0  0
 22 17  1  0  0  0  0
 24 19  1  0  0  0  0
 25 21  1  0  0  0  0
 26 27  2  0  0  0  0
 26 30  1  0  0  0  0
 28 26  1  0  0  0  0
 29 28  1  0  0  0  0
 30 37  1  0  0  0  0
 31 30  2  0  0  0  0
 31 33  1  0  0  0  0
 32 31  1  0  0  0  0
 33 34  1  0  0  0  0
 33 35  2  0  0  0  0
 35 36  1  0  0  0  0
 37 35  1  0  0  0  0
M  END
>  <minimizedAffinity>
-4.80507517

$$$$

 OpenBabel03272509323D

 37 39  0  0  1  0  0  0  0  0999 V2000
   38.8170   26.1280   34.8010 C   0  0  2  0  0  0  0  0  0  0  0  0
   39.9790   27.0520   35.0060 C   0  0  0  0  0  0  0  0  0  0  0  0
   41.2510   26.5510   34.3580 C   0  0  0  0  0  0  0  0  0  0  0  0
   41.6000   25.1570   34.8780 C   0  0  0  0  0  0  0  0  0  0  0  0
   40.4050   24.2710   35.1040 C   0  0  0  0  0  0  0  0  0  0  0  0
   39.2380   24.8050   34.2530 C   0  0  1  0  0  0  0  0  0  0  0  0
   38.2530   25.9000   35.7570 H   0  0  0  0  0  0  0  0  0  0  0  0
   40.2060   26.9780   36.1230 H   0  0  0  0  0  0  0  0  0  0  0  0
   39.8200   28.0990   34.8310 H   0  0  0  0  0  0  0  0  0  0  0  0
   42.0520   27.2350   34.6630 H   0  0  0  0  0  0  0  0  0  0  0  0
   41.2080   26.4810   33.2660 H   0  0  0  0  0  0  0  0  0  0  0  0
   42.1420   25.2720   35.8340 H   0  0  0  0  0  0  0  0  0  0  0  0
   42.2680   24.6420   34.1350 H   0  0  0  0  0  0  0  0  0  0  0  0
   40.0470   24.3270   36.1360 H   0  0  0  0  0  0  0  0  0  0  0  0
   40.6140   23.2230   34.7950 H   0  0  0  0  0  0  0  0  0  0  0  0
   39.7250   24.9170   33.3140 H   0  0  0  0  0  0  0  0  0  0  0  0
   37.8110   26.7270   33.8850 C   0  0  0  0  0  0  0  0  0  0  0  0
   36.9670   27.6920   34.4600 C   0  0  0  0  0  0  0  0  0  0  0  0
   36.0120   28.2730   33.6180 C   0  0  0  0  0  0  0  0  0  0  0  0
   35.9580   27.8710   32.3010 N   0  0  0  0  0  0  0  0  0  0  0  0
   36.8040   26.9260   31.7920 C   0  0  0  0  0  0  0  0  0  0  0  0
   37.7260   26.3650   32.6010 N   0  0  0  0  0  0  0  0  0  0  0  0
   36.9110   28.0950   35.4530 H   0  0  0  0  0  0  0  0  0  0  0  0
   35.2980   29.0250   33.9180 H   0  0  0  0  0  0  0  0  0  0  0  0
   36.6680   26.6930   30.7480 H   0  0  0  0  0  0  0  0  0  0  0  0
   38.1620   22.8100   33.1030 C   0  0  0  0  0  0  0  0  0  0  0  0
   39.0430   22.3760   32.3040 O   0  0  0  0  0  0  0  0  0  0  0  0
   38.1840   23.8800   34.0380 N   0  0  0  0  0  0  0  0  0  0  0  0
   37.2850   23.9450   34.6160 H   0  0  0  0  0  0  0  0  0  0  0  0
   36.9330   21.9890   32.9540 C   0  0  0  0  0  0  0  0  0  0  0  0
   35.9890   22.0380   31.9530 C   0  0  0  0  0  0  0  0  0  0  0  0
   35.9660   22.6740   31.0980 H   0  0  0  0  0  0  0  0  0  0  0  0
   34.9910   21.0850   32.2050 C   0  0  0  0  0  0  0  0  0  0  0  0
   34.1170   20.8960   31.5820 H   0  0  0  0  0  0  0  0  0  0  0  0
   35.4050   20.4980   33.3830 C   0  0  0  0  0  0  0  0  0  0  0  0
   34.8390   19.7030   33.8580 H   0  0  0  0  0  0  0  0  0  0  0  0
   36.5110   21.0480   33.7640 O   0  0  0  0  0  0  0  0  0  0  0  0
  1  2  1  0  0  0  0
  1  7  1  1  0  0  0
  2  8  1  0  0  0  0
  3 10  1  0  0  0  0
  3  4  1  0  0  0  0
  3  2  1  0  0  0  0
  4  5  1  0  0  0  0
  4 12  1  0  0  0  0
  5 14  1  0  0  0  0
  6 16  1  6  0  0  0
  6  1  1  0  0  0  0
  6  5  1  0  0  0  0
  9  2  1  0  0  0  0
 11  3  1  0  0  0  0
 13  4  1  0  0  0  0
 15  5  1  0  0  0  0
 17 18  1  0  0  0  0
 17  1  1  0  0  0  0
 18 23  1  0  0  0  0
 19 24  1  0  0  0  0
 19 18  2  0  0  0  0
 20 19  1  0  0  0  0
 21 20  2  0  0  0  0
 21 22  1  0  0  0  0
 22 17  2  0  0  0  0
 25 21  1  0  0  0  0
 26 28  1  0  0  0  0
 27 26  2  0  0  0  0
 28  6  1  0  0  0  0
 28 29  1  0  0  0  0
 30 26  1  0  0  0  0
 30 37  1  0  0  0  0
 31 33  1  0  0  0  0
 31 30  2  0  0  0  0
 32 31  1  0  0  0  0
 33 35  2  0  0  0  0
 34 33  1  0  0  0  0
 35 37  1  0  0  0  0
 35 36  1  0  0  0  0
M  END
>  <minimizedAffinity>
-4.71321297

$$$$

 OpenBabel03272509323D

 37 39  0  0  1  0  0  0  0  0999 V2000
   37.9910   24.8450   32.2940 C   0  0  2  0  0  0  0  0  0  0  0  0
   36.8560   25.3090   31.4330 C   0  0  0  0  0  0  0  0  0  0  0  0
   35.6240   24.4420   31.5660 C   0  0  0  0  0  0  0  0  0  0  0  0
   35.9580   22.9870   31.2400 C   0  0  0  0  0  0  0  0  0  0  0  0
   37.3120   22.5470   31.7280 C   0  0  0  0  0  0  0  0  0  0  0  0
   37.7470   23.4880   32.8670 C   0  0  1  0  0  0  0  0  0  0  0  0
   38.9750   24.7710   31.7370 H   0  0  0  0  0  0  0  0  0  0  0  0
   37.2090   25.1040   30.3660 H   0  0  0  0  0  0  0  0  0  0  0  0
   36.6190   26.3560   31.4430 H   0  0  0  0  0  0  0  0  0  0  0  0
   34.9050   24.7980   30.8180 H   0  0  0  0  0  0  0  0  0  0  0  0
   35.1680   24.4480   32.5610 H   0  0  0  0  0  0  0  0  0  0  0  0
   35.9190   22.8620   30.1430 H   0  0  0  0  0  0  0  0  0  0  0  0
   35.1930   22.3160   31.7160 H   0  0  0  0  0  0  0  0  0  0  0  0
   38.0800   22.6660   30.9570 H   0  0  0  0  0  0  0  0  0  0  0  0
   37.2820   21.5080   32.1230 H   0  0  0  0  0  0  0  0  0  0  0  0
   36.8680   23.4780   33.4660 H   0  0  0  0  0  0  0  0  0  0  0  0
   38.2430   25.7960   33.4100 C   0  0  0  0  0  0  0  0  0  0  0  0
   37.1060   26.4510   33.9130 C   0  0  0  0  0  0  0  0  0  0  0  0
   37.3140   27.3500   34.9650 C   0  0  0  0  0  0  0  0  0  0  0  0
   38.5970   27.5350   35.4340 N   0  0  0  0  0  0  0  0  0  0  0  0
   39.6690   26.8700   34.9070 C   0  0  0  0  0  0  0  0  0  0  0  0
   39.4710   26.0030   33.8940 N   0  0  0  0  0  0  0  0  0  0  0  0
   36.0680   26.3920   33.6480 H   0  0  0  0  0  0  0  0  0  0  0  0
   36.5400   27.9250   35.4510 H   0  0  0  0  0  0  0  0  0  0  0  0
   40.6230   27.0950   35.3560 H   0  0  0  0  0  0  0  0  0  0  0  0
   38.7170   22.7100   35.0840 C   0  0  0  0  0  0  0  0  0  0  0  0
   37.7530   22.7690   35.9040 O   0  0  0  0  0  0  0  0  0  0  0  0
   38.7870   22.9870   33.6910 N   0  0  0  0  0  0  0  0  0  0  0  0
   39.7490   22.7710   33.2730 H   0  0  0  0  0  0  0  0  0  0  0  0
   39.9360   22.2670   35.8080 C   0  0  0  0  0  0  0  0  0  0  0  0
   41.1780   21.9740   35.2910 C   0  0  0  0  0  0  0  0  0  0  0  0
   41.4950   22.0120   34.2740 H   0  0  0  0  0  0  0  0  0  0  0  0
   42.0390   21.5940   36.3310 C   0  0  0  0  0  0  0  0  0  0  0  0
   43.0850   21.3070   36.2200 H   0  0  0  0  0  0  0  0  0  0  0  0
   41.2390   21.6830   37.4510 C   0  0  0  0  0  0  0  0  0  0  0  0
   41.6130   21.4490   38.4430 H   0  0  0  0  0  0  0  0  0  0  0  0
   40.0580   22.0680   37.0980 O   0  0  0  0  0  0  0  0  0  0  0  0
  1  7  1  6  0  0  0
  1  6  1  0  0  0  0
  1 17  1  0  0  0  0
  2  9  1  0  0  0  0
  2  3  1  0  0  0  0
  2  1  1  0  0  0  0
  3 11  1  0  0  0  0
  4  3  1  0  0  0  0
  4 13  1  0  0  0  0
  4  5  1  0  0  0  0
  5 15  1  0  0  0  0
  5  6  1  0  0  0  0
  6 16  1  1  0  0  0
  6 28  1  0  0  0  0
  8  2  1  0  0  0  0
 10  3  1  0  0  0  0
 12  4  1  0  0  0  0
 14  5  1  0  0  0  0
 17 22  2  0  0  0  0
 17 18  1  0  0  0  0
 18 19  2  0  0  0  0
 19 20  1  0  0  0  0
 19 24  1  0  0  0  0
 21 25  1  0  0  0  0
 21 20  2  0  0  0  0
 22 21  1  0  0  0  0
 23 18  1  0  0  0  0
 26 30  1  0  0  0  0
 26 27  2  0  0  0  0
 28 26  1  0  0  0  0
 29 28  1  0  0  0  0
 30 37  1  0  0  0  0
 31 30  2  0  0  0  0
 31 33  1  0  0  0  0
 32 31  1  0  0  0  0
 33 35  2  0  0  0  0
 34 33  1  0  0  0  0
 35 36  1  0  0  0  0
 37 35  1  0  0  0  0
M  END
>  <minimizedAffinity>
-4.69494724

$$$$

 OpenBabel03272509323D

 37 39  0  0  1  0  0  0  0  0999 V2000
   40.8000   23.4680   34.9990 C   0  0  2  0  0  0  0  0  0  0  0  0
   41.9180   22.7670   35.7080 C   0  0  0  0  0  0  0  0  0  0  0  0
   42.7980   23.7100   36.4990 C   0  0  0  0  0  0  0  0  0  0  0  0
   43.3650   24.7990   35.5880 C   0  0  0  0  0  0  0  0  0  0  0  0
   42.4010   25.2810   34.5380 C   0  0  0  0  0  0  0  0  0  0  0  0
   40.9700   24.9510   35.0040 C   0  0  1  0  0  0  0  0  0  0  0  0
   40.7060   23.1720   33.9100 H   0  0  0  0  0  0  0  0  0  0  0  0
   42.6050   22.4080   34.8680 H   0  0  0  0  0  0  0  0  0  0  0  0
   41.6790   21.8770   36.2600 H   0  0  0  0  0  0  0  0  0  0  0  0
   43.6390   23.1160   36.8770 H   0  0  0  0  0  0  0  0  0  0  0  0
   42.2920   24.2190   37.3250 H   0  0  0  0  0  0  0  0  0  0  0  0
   44.2620   24.3950   35.0860 H   0  0  0  0  0  0  0  0  0  0  0  0
   43.6580   25.6870   36.2110 H   0  0  0  0  0  0  0  0  0  0  0  0
   42.5200   24.7380   33.5960 H   0  0  0  0  0  0  0  0  0  0  0  0
   42.4770   26.3810   34.3930 H   0  0  0  0  0  0  0  0  0  0  0  0
   41.0040   25.3290   35.9980 H   0  0  0  0  0  0  0  0  0  0  0  0
   39.4850   23.1360   35.6110 C   0  0  0  0  0  0  0  0  0  0  0  0
   38.7120   22.1950   34.9090 C   0  0  0  0  0  0  0  0  0  0  0  0
   37.4710   21.8630   35.4650 C   0  0  0  0  0  0  0  0  0  0  0  0
   37.0900   22.4680   36.6440 N   0  0  0  0  0  0  0  0  0  0  0  0
   37.8830   23.3770   37.2860 C   0  0  0  0  0  0  0  0  0  0  0  0
   39.0790   23.6990   36.7530 N   0  0  0  0  0  0  0  0  0  0  0  0
   38.8930   21.6530   34.0010 H   0  0  0  0  0  0  0  0  0  0  0  0
   36.7710   21.1600   35.0400 H   0  0  0  0  0  0  0  0  0  0  0  0
   37.4800   23.7830   38.2000 H   0  0  0  0  0  0  0  0  0  0  0  0
   39.1200   26.6900   34.9050 C   0  0  0  0  0  0  0  0  0  0  0  0
   39.1170   27.2350   36.0480 O   0  0  0  0  0  0  0  0  0  0  0  0
   39.9450   25.6770   34.3460 N   0  0  0  0  0  0  0  0  0  0  0  0
   39.7270   25.4850   33.3150 H   0  0  0  0  0  0  0  0  0  0  0  0
   38.0320   27.2880   34.0870 C   0  0  0  0  0  0  0  0  0  0  0  0
   36.8920   27.9270   34.5180 C   0  0  0  0  0  0  0  0  0  0  0  0
   36.5780   28.1130   35.5190 H   0  0  0  0  0  0  0  0  0  0  0  0
   36.1380   28.3350   33.4070 C   0  0  0  0  0  0  0  0  0  0  0  0
   35.1870   28.8660   33.4430 H   0  0  0  0  0  0  0  0  0  0  0  0
   36.8930   27.9030   32.3370 C   0  0  0  0  0  0  0  0  0  0  0  0
   36.5800   28.0670   31.3100 H   0  0  0  0  0  0  0  0  0  0  0  0
   37.9560   27.3160   32.7780 O   0  0  0  0  0  0  0  0  0  0  0  0
  1  7  1  6  0  0  0
  1  6  1  0  0  0  0
  1 17  1  0  0  0  0
  1  2  1  0  0  0  0
  2  9  1  0  0  0  0
  2  3  1  0  0  0  0
  3 10  1  0  0  0  0
  3 11  1  0  0  0  0
  4 13  1  0  0  0  0
  4  3  1  0  0  0  0
  5  6  1  0  0  0  0
  5  4  1  0  0  0  0
  6 16  1  1  0  0  0
  8  2  1  0  0  0  0
 12  4  1  0  0  0  0
 14  5  1  0  0  0  0
 15  5  1  0  0  0  0
 17 22  1  0  0  0  0
 18 19  1  0  0  0  0
 18 17  2  0  0  0  0
 19 20  2  0  0  0  0
 20 21  1  0  0  0  0
 21 25  1  0  0  0  0
 22 21  2  0  0  0  0
 23 18  1  0  0  0  0
 24 19  1  0  0  0  0
 26 27  2  0  0  0  0
 28 26  1  0  0  0  0
 28  6  1  0  0  0  0
 29 28  1  0  0  0  0
 30 31  2  0  0  0  0
 30 26  1  0  0  0  0
 31 32  1  0  0  0  0
 33 34  1  0  0  0  0
 33 31  1  0  0  0  0
 35 37  1  0  0  0  0
 35 33  2  0  0  0  0
 36 35  1  0  0  0  0
 37 30  1  0  0  0  0
M  END
>  <minimizedAffinity>
-4.69378853

$$$$

 OpenBabel03272509323D

 37 39  0  0  1  0  0  0  0  0999 V2000
   37.1760   25.8120   32.8020 C   0  0  2  0  0  0  0  0  0  0  0  0
   36.2810   26.8680   32.2280 C   0  0  0  0  0  0  0  0  0  0  0  0
   36.5880   28.2510   32.7560 C   0  0  0  0  0  0  0  0  0  0  0  0
   36.5000   28.2710   34.2820 C   0  0  0  0  0  0  0  0  0  0  0  0
   37.0170   27.0220   34.9410 C   0  0  0  0  0  0  0  0  0  0  0  0
   37.9720   26.3160   33.9600 C   0  0  1  0  0  0  0  0  0  0  0  0
   36.6130   24.9070   33.1860 H   0  0  0  0  0  0  0  0  0  0  0  0
   35.2530   26.6390   32.6730 H   0  0  0  0  0  0  0  0  0  0  0  0
   36.1230   26.8640   31.1660 H   0  0  0  0  0  0  0  0  0  0  0  0
   35.8100   28.9190   32.3650 H   0  0  0  0  0  0  0  0  0  0  0  0
   37.5800   28.6290   32.4910 H   0  0  0  0  0  0  0  0  0  0  0  0
   35.4400   28.4070   34.5630 H   0  0  0  0  0  0  0  0  0  0  0  0
   37.1010   29.1350   34.6760 H   0  0  0  0  0  0  0  0  0  0  0  0
   36.2180   26.2970   35.1230 H   0  0  0  0  0  0  0  0  0  0  0  0
   37.5810   27.2570   35.8710 H   0  0  0  0  0  0  0  0  0  0  0  0
   38.5880   27.1350   33.6740 H   0  0  0  0  0  0  0  0  0  0  0  0
   38.1110   25.2850   31.7730 C   0  0  0  0  0  0  0  0  0  0  0  0
   37.6180   24.2220   30.9950 C   0  0  0  0  0  0  0  0  0  0  0  0
   38.4780   23.7090   30.0170 C   0  0  0  0  0  0  0  0  0  0  0  0
   39.7310   24.2650   29.8790 N   0  0  0  0  0  0  0  0  0  0  0  0
   40.1600   25.2990   30.6630 C   0  0  0  0  0  0  0  0  0  0  0  0
   39.3350   25.7960   31.6060 N   0  0  0  0  0  0  0  0  0  0  0  0
   36.6740   23.7120   30.9960 H   0  0  0  0  0  0  0  0  0  0  0  0
   38.2390   22.8970   29.3480 H   0  0  0  0  0  0  0  0  0  0  0  0
   41.1600   25.6520   30.4630 H   0  0  0  0  0  0  0  0  0  0  0  0
   38.5650   24.5340   35.6730 C   0  0  0  0  0  0  0  0  0  0  0  0
   37.5150   24.3800   36.3650 O   0  0  0  0  0  0  0  0  0  0  0  0
   38.8410   25.3640   34.5530 N   0  0  0  0  0  0  0  0  0  0  0  0
   39.8220   25.2070   34.1520 H   0  0  0  0  0  0  0  0  0  0  0  0
   39.6300   23.6500   36.2140 C   0  0  0  0  0  0  0  0  0  0  0  0
   39.6100   22.8960   37.3650 C   0  0  0  0  0  0  0  0  0  0  0  0
   38.8270   22.8050   38.0820 H   0  0  0  0  0  0  0  0  0  0  0  0
   40.8280   22.2100   37.4950 C   0  0  0  0  0  0  0  0  0  0  0  0
   41.0970   21.5370   38.3080 H   0  0  0  0  0  0  0  0  0  0  0  0
   41.5330   22.6050   36.3770 C   0  0  0  0  0  0  0  0  0  0  0  0
   42.5360   22.2450   36.1740 H   0  0  0  0  0  0  0  0  0  0  0  0
   40.8080   23.4220   35.6850 O   0  0  0  0  0  0  0  0  0  0  0  0
  1  7  1  1  0  0  0
  1  6  1  0  0  0  0
  2  8  1  0  0  0  0
  2  3  1  0  0  0  0
  2  1  1  0  0  0  0
  3  4  1  0  0  0  0
  4 12  1  0  0  0  0
  4 13  1  0  0  0  0
  4  5  1  0  0  0  0
  5 14  1  0  0  0  0
  5 15  1  0  0  0  0
  6 16  1  6  0  0  0
  6 28  1  0  0  0  0
  6  5  1  0  0  0  0
  9  2  1  0  0  0  0
 10  3  1  0  0  0  0
 11  3  1  0  0  0  0
 17  1  1  0  0  0  0
 18 23  1  0  0  0  0
 18 17  2  0  0  0  0
 19 18  1  0  0  0  0
 20 19  2  0  0  0  0
 20 21  1  0  0  0  0
 21 22  2  0  0  0  0
 22 17  1  0  0  0  0
 24 19  1  0  0  0  0
 25 21  1  0  0  0  0
 26 30  1  0  0  0  0
 26 27  2  0  0  0  0
 28 26  1  0  0  0  0
 29 28  1  0  0  0  0
 30 31  2  0  0  0  0
 31 33  1  0  0  0  0
 31 32  1  0  0  0  0
 33 34  1  0  0  0  0
 35 33  2  0  0  0  0
 36 35  1  0  0  0  0
 37 30  1  0  0  0  0
 37 35  1  0  0  0  0
M  END
>  <minimizedAffinity>
-4.68211842

$$$$
