
 OpenBabel03272505243D

 27 29  0  0  0  0  0  0  0  0999 V2000
   34.6410   28.3350   49.6370 C   0  0  0  0  0  0  0  0  0  0  0  0
   35.5680   29.1320   48.9280 C   0  0  0  0  0  0  0  0  0  0  0  0
   35.2700   29.5790   47.6560 C   0  0  0  0  0  0  0  0  0  0  0  0
   34.0730   29.2170   47.1460 N   0  0  0  0  0  0  0  0  0  0  0  0
   33.1740   28.4600   47.8010 C   0  0  0  0  0  0  0  0  0  0  0  0
   33.4590   28.0190   49.0480 N   0  0  0  0  0  0  0  0  0  0  0  0
   36.1650   30.3760   46.9120 N   0  0  0  0  0  0  0  0  0  0  0  0
   36.2320   30.2910   45.5670 C   0  0  0  0  0  0  0  0  0  0  0  0
   37.1290   31.0750   44.8410 C   0  0  0  0  0  0  0  0  0  0  0  0
   37.9600   31.9570   45.5530 C   0  0  0  0  0  0  0  0  0  0  0  0
   38.7760   32.6760   44.9640 O   0  0  0  0  0  0  0  0  0  0  0  0
   37.8760   32.0280   46.9100 N   0  0  0  0  0  0  0  0  0  0  0  0
   36.9800   31.2320   47.5190 C   0  0  0  0  0  0  0  0  0  0  0  0
   36.9300   31.3280   48.7800 O   0  0  0  0  0  0  0  0  0  0  0  0
   34.8000   27.9560   50.6170 H   0  0  0  0  0  0  0  0  0  0  0  0
   36.4500   29.2920   49.4930 H   0  0  0  0  0  0  0  0  0  0  0  0
   32.2690   28.2650   47.2480 H   0  0  0  0  0  0  0  0  0  0  0  0
   35.5590   29.5890   45.0950 H   0  0  0  0  0  0  0  0  0  0  0  0
   37.1720   30.9970   43.7650 H   0  0  0  0  0  0  0  0  0  0  0  0
   38.7300   32.9300   47.6030 C   0  0  0  0  0  0  0  0  0  0  0  0
   39.9040   33.5640   47.2500 C   0  0  0  0  0  0  0  0  0  0  0  0
   40.3630   33.4280   46.2860 H   0  0  0  0  0  0  0  0  0  0  0  0
   40.3450   34.3510   48.3020 C   0  0  0  0  0  0  0  0  0  0  0  0
   41.2270   34.9680   48.3400 H   0  0  0  0  0  0  0  0  0  0  0  0
   39.3700   34.1420   49.2790 C   0  0  0  0  0  0  0  0  0  0  0  0
   39.4430   34.6410   50.2480 H   0  0  0  0  0  0  0  0  0  0  0  0
   38.4670   33.3220   48.8350 O   0  0  0  0  0  0  0  0  0  0  0  0
  1 15  1  0  0  0  0
  2 16  1  0  0  0  0
  2  1  2  0  0  0  0
  3  2  1  0  0  0  0
  4  3  2  0  0  0  0
  4  5  1  0  0  0  0
  5  6  2  0  0  0  0
  6  1  1  0  0  0  0
  7 13  1  0  0  0  0
  7  3  1  0  0  0  0
  8  7  1  0  0  0  0
  9 10  1  0  0  0  0
  9  8  2  0  0  0  0
 10 12  1  0  0  0  0
 11 10  2  0  0  0  0
 12 13  1  0  0  0  0
 12 20  1  0  0  0  0
 13 14  2  0  0  0  0
 17  5  1  0  0  0  0
 18  8  1  0  0  0  0
 19  9  1  0  0  0  0
 20 27  1  0  0  0  0
 21 20  2  0  0  0  0
 21 23  1  0  0  0  0
 22 21  1  0  0  0  0
 23 24  1  0  0  0  0
 23 25  2  0  0  0  0
 25 26  1  0  0  0  0
 27 25  1  0  0  0  0
M  END
>  <minimizedAffinity>
-5.16366959

>  <minimizedRMSD>
2.86162853

$$$$
