
 OpenBabel03272500123D

 20 21  0  0  0  0  0  0  0  0999 V2000
   35.6160   29.3730   50.5420 C   0  0  0  0  0  0  0  0  0  0  0  0
   36.1890   30.3020   49.6560 C   0  0  0  0  0  0  0  0  0  0  0  0
   35.6990   30.3730   48.3480 C   0  0  0  0  0  0  0  0  0  0  0  0
   34.6850   29.5360   47.9890 N   0  0  0  0  0  0  0  0  0  0  0  0
   34.1540   28.6530   48.8680 C   0  0  0  0  0  0  0  0  0  0  0  0
   34.6090   28.5710   50.1210 N   0  0  0  0  0  0  0  0  0  0  0  0
   35.9990   29.3270   51.5450 H   0  0  0  0  0  0  0  0  0  0  0  0
   36.1320   31.0740   47.6790 H   0  0  0  0  0  0  0  0  0  0  0  0
   33.0680   27.7410   48.5230 C   0  0  0  0  0  0  0  0  0  0  0  0
   33.1770   26.6390   47.6990 C   0  0  0  0  0  0  0  0  0  0  0  0
   34.0340   26.2570   47.1780 H   0  0  0  0  0  0  0  0  0  0  0  0
   31.9160   26.0760   47.6550 C   0  0  0  0  0  0  0  0  0  0  0  0
   31.5430   25.2040   47.1340 H   0  0  0  0  0  0  0  0  0  0  0  0
   31.0960   26.8540   48.4490 C   0  0  0  0  0  0  0  0  0  0  0  0
   30.0460   26.8060   48.7160 H   0  0  0  0  0  0  0  0  0  0  0  0
   31.8320   27.8190   48.9330 O   0  0  0  0  0  0  0  0  0  0  0  0
   37.3000   31.1710   50.1600 C   0  0  0  0  0  0  0  0  0  0  0  0
   38.3620   31.1930   49.2340 F   0  0  0  0  0  0  0  0  0  0  0  0
   36.8310   32.4540   50.2640 F   0  0  0  0  0  0  0  0  0  0  0  0
   37.8060   30.7480   51.3610 F   0  0  0  0  0  0  0  0  0  0  0  0
  1  7  1  0  0  0  0
  2 17  1  0  0  0  0
  2  1  2  0  0  0  0
  3  2  1  0  0  0  0
  4  3  2  0  0  0  0
  4  5  1  0  0  0  0
  5  6  2  0  0  0  0
  6  1  1  0  0  0  0
  8  3  1  0  0  0  0
  9  5  1  0  0  0  0
  9 16  1  0  0  0  0
 10  9  2  0  0  0  0
 11 10  1  0  0  0  0
 12 10  1  0  0  0  0
 12 14  2  0  0  0  0
 13 12  1  0  0  0  0
 14 15  1  0  0  0  0
 14 16  1  0  0  0  0
 17 19  1  0  0  0  0
 17 20  1  0  0  0  0
 18 17  1  0  0  0  0
M  END
>  <minimizedAffinity>
-4.95939875

>  <minimizedRMSD>
1.08850431

$$$$
