
 OpenBabel03272508423D

 19 20  0  0  0  0  0  0  0  0999 V2000
   34.4310   29.2890   48.6170 C   0  0  0  0  0  0  0  0  0  0  0  0
   33.5490   28.6290   49.2120 O   0  0  0  0  0  0  0  0  0  0  0  0
   32.9160   30.2070   45.4410 C   0  0  0  0  0  0  0  0  0  0  0  0
   34.0150   30.3600   44.5910 C   0  0  0  0  0  0  0  0  0  0  0  0
   35.2930   30.1480   45.0990 C   0  0  0  0  0  0  0  0  0  0  0  0
   35.3910   29.8040   46.4050 N   0  0  0  0  0  0  0  0  0  0  0  0
   34.3160   29.6610   47.2110 C   0  0  0  0  0  0  0  0  0  0  0  0
   33.0770   29.8640   46.7260 N   0  0  0  0  0  0  0  0  0  0  0  0
   31.9020   30.3700   45.0550 H   0  0  0  0  0  0  0  0  0  0  0  0
   33.8920   30.6370   43.5470 H   0  0  0  0  0  0  0  0  0  0  0  0
   36.1900   30.2460   44.5040 H   0  0  0  0  0  0  0  0  0  0  0  0
   35.6180   29.6920   49.3850 C   0  0  0  0  0  0  0  0  0  0  0  0
   35.8900   30.9930   49.7650 C   0  0  0  0  0  0  0  0  0  0  0  0
   35.2930   31.8650   49.5610 H   0  0  0  0  0  0  0  0  0  0  0  0
   37.0990   30.8650   50.4580 C   0  0  0  0  0  0  0  0  0  0  0  0
   37.6210   31.6990   50.9060 H   0  0  0  0  0  0  0  0  0  0  0  0
   37.4860   29.5400   50.4620 C   0  0  0  0  0  0  0  0  0  0  0  0
   38.3770   29.1010   50.9140 H   0  0  0  0  0  0  0  0  0  0  0  0
   36.5730   28.8670   49.8090 O   0  0  0  0  0  0  0  0  0  0  0  0
  1  2  2  0  0  0  0
  1 12  1  0  0  0  0
  3  8  1  0  0  0  0
  4  5  1  0  0  0  0
  4  3  2  0  0  0  0
  5  6  2  0  0  0  0
  6  7  1  0  0  0  0
  7  1  1  0  0  0  0
  8  7  2  0  0  0  0
  9  3  1  0  0  0  0
 10  4  1  0  0  0  0
 11  5  1  0  0  0  0
 12 13  2  0  0  0  0
 12 19  1  0  0  0  0
 13 15  1  0  0  0  0
 14 13  1  0  0  0  0
 15 17  2  0  0  0  0
 15 16  1  0  0  0  0
 17 18  1  0  0  0  0
 19 17  1  0  0  0  0
M  END
>  <minimizedAffinity>
-3.58166552

>  <minimizedRMSD>
4.76814079

$$$$
