
 OpenBabel03272509353D

 46 50  0  0  1  0  0  0  0  0999 V2000
   36.2920   30.6200   44.7790 C   0  0  1  0  0  0  0  0  0  0  0  0
   37.2890   31.6370   45.1940 C   0  0  0  0  0  0  0  0  0  0  0  0
   37.8380   30.3120   44.9980 C   0  0  2  0  0  0  0  0  0  0  0  0
   36.0170   30.3730   43.7600 H   0  0  0  0  0  0  0  0  0  0  0  0
   37.1430   32.0240   46.2580 H   0  0  0  0  0  0  0  0  0  0  0  0
   37.2220   32.4920   44.5050 H   0  0  0  0  0  0  0  0  0  0  0  0
   37.9090   29.4880   45.6960 H   0  0  0  0  0  0  0  0  0  0  0  0
   38.6870   30.2470   43.7640 C   0  0  0  0  0  0  0  0  0  0  0  0
   39.1480   31.5300   43.4350 C   0  0  0  0  0  0  0  0  0  0  0  0
   40.0400   31.7010   42.4050 C   0  0  0  0  0  0  0  0  0  0  0  0
   40.5080   30.6110   41.6630 C   0  0  0  0  0  0  0  0  0  0  0  0
   40.0310   29.3570   42.0150 C   0  0  0  0  0  0  0  0  0  0  0  0
   40.3970   28.2180   41.3580 C   0  0  0  0  0  0  0  0  0  0  0  0
   39.9200   26.9650   41.6810 C   0  0  0  0  0  0  0  0  0  0  0  0
   39.0210   26.8550   42.7290 C   0  0  0  0  0  0  0  0  0  0  0  0
   38.6510   28.0000   43.3920 C   0  0  0  0  0  0  0  0  0  0  0  0
   39.1550   29.2340   43.0340 C   0  0  0  0  0  0  0  0  0  0  0  0
   39.0060   32.5270   43.8000 H   0  0  0  0  0  0  0  0  0  0  0  0
   40.4960   32.6020   42.0180 H   0  0  0  0  0  0  0  0  0  0  0  0
   41.2080   30.6000   40.8310 H   0  0  0  0  0  0  0  0  0  0  0  0
   41.0990   28.2610   40.5340 H   0  0  0  0  0  0  0  0  0  0  0  0
   40.1930   26.0460   41.1770 H   0  0  0  0  0  0  0  0  0  0  0  0
   38.6050   25.9040   43.0360 H   0  0  0  0  0  0  0  0  0  0  0  0
   37.9340   27.8900   44.2260 H   0  0  0  0  0  0  0  0  0  0  0  0
   33.7740   28.4660   46.5680 C   0  0  0  0  0  0  0  0  0  0  0  0
   34.5830   29.0170   45.5350 C   0  0  0  0  0  0  0  0  0  0  0  0
   35.4530   30.0230   45.8490 C   0  0  0  0  0  0  0  0  0  0  0  0
   35.4740   30.4220   47.1550 N   0  0  0  0  0  0  0  0  0  0  0  0
   34.7240   29.9130   48.1290 C   0  0  0  0  0  0  0  0  0  0  0  0
   33.8490   28.9140   47.8450 N   0  0  0  0  0  0  0  0  0  0  0  0
   33.1120   27.6860   46.2710 H   0  0  0  0  0  0  0  0  0  0  0  0
   34.5220   28.6660   44.5340 H   0  0  0  0  0  0  0  0  0  0  0  0
   34.8990   30.4380   49.5360 C   0  0  0  0  0  0  0  0  0  0  0  0
   34.6810   31.5230   49.4760 H   0  0  0  0  0  0  0  0  0  0  0  0
   34.2310   29.9040   50.2090 H   0  0  0  0  0  0  0  0  0  0  0  0
   36.3670   30.2290   49.8940 C   0  0  0  0  0  0  0  0  0  0  0  0
   36.3910   30.0790   51.0030 H   0  0  0  0  0  0  0  0  0  0  0  0
   36.7560   29.3060   49.3960 H   0  0  0  0  0  0  0  0  0  0  0  0
   37.1720   31.4260   49.5800 C   0  0  0  0  0  0  0  0  0  0  0  0
   37.2500   32.7690   49.8790 C   0  0  0  0  0  0  0  0  0  0  0  0
   36.5330   33.1670   50.5600 H   0  0  0  0  0  0  0  0  0  0  0  0
   38.3110   33.3260   49.1960 C   0  0  0  0  0  0  0  0  0  0  0  0
   38.5840   34.3690   49.2600 H   0  0  0  0  0  0  0  0  0  0  0  0
   38.8320   32.2670   48.5020 C   0  0  0  0  0  0  0  0  0  0  0  0
   39.7070   32.4000   47.8510 H   0  0  0  0  0  0  0  0  0  0  0  0
   38.1500   31.1610   48.7420 O   0  0  0  0  0  0  0  0  0  0  0  0
  1  4  1  6  0  0  0
  1  3  1  0  0  0  0
  1  2  1  0  0  0  0
  1 27  1  0  0  0  0
  2  5  1  0  0  0  0
  3  2  1  0  0  0  0
  3  7  1  1  0  0  0
  6  2  1  0  0  0  0
  8  3  1  0  0  0  0
  9  8  1  0  0  0  0
  9 18  1  0  0  0  0
 10  9  2  0  0  0  0
 11 12  2  0  0  0  0
 11 10  1  0  0  0  0
 12 17  1  0  0  0  0
 13 14  2  0  0  0  0
 13 12  1  0  0  0  0
 14 15  1  0  0  0  0
 15 23  1  0  0  0  0
 15 16  2  0  0  0  0
 16 24  1  0  0  0  0
 17 16  1  0  0  0  0
 17  8  2  0  0  0  0
 19 10  1  0  0  0  0
 20 11  1  0  0  0  0
 21 13  1  0  0  0  0
 22 14  1  0  0  0  0
 25 30  1  0  0  0  0
 26 27  1  0  0  0  0
 26 25  2  0  0  0  0
 27 28  2  0  0  0  0
 28 29  1  0  0  0  0
 29 33  1  0  0  0  0
 30 29  2  0  0  0  0
 31 25  1  0  0  0  0
 32 26  1  0  0  0  0
 33 36  1  0  0  0  0
 33 35  1  0  0  0  0
 34 33  1  0  0  0  0
 36 37  1  0  0  0  0
 38 36  1  0  0  0  0
 39 40  2  0  0  0  0
 39 36  1  0  0  0  0
 40 41  1  0  0  0  0
 42 43  1  0  0  0  0
 42 40  1  0  0  0  0
 44 46  1  0  0  0  0
 44 42  2  0  0  0  0
 45 44  1  0  0  0  0
 46 39  1  0  0  0  0
M  END
>  <minimizedAffinity>
-5.8365221

>  <minimizedRMSD>
2.55070639

$$$$
