REMARK  Name = 
REMARK  2 active torsions:
REMARK  status: ('A' for Active; 'I' for Inactive)
REMARK    1  A    between atoms: C_2  and  C_15
REMARK    2  A    between atoms: C_3  and  C_8
REMARK                            x       y       z     vdW  Elec       q    Type
REMARK                         _______ _______ _______ _____ _____    ______ ____
ROOT
ATOM      1  C   UNL     1      36.688  29.505  51.443  0.00  0.00    +0.000 A 
ATOM      2  C   UNL     1      37.497  30.581  50.983  0.00  0.00    +0.000 A 
ATOM      3  C   UNL     1      37.002  31.331  49.938  0.00  0.00    +0.000 A 
ATOM      4  N   UNL     1      35.769  30.973  49.438  0.00  0.00    +0.000 NA
ATOM      5  C   UNL     1      35.031  29.966  49.887  0.00  0.00    +0.000 A 
ATOM      6  N   UNL     1      35.510  29.236  50.897  0.00  0.00    +0.000 NA
ATOM      7  N   UNL     1      33.776  29.763  49.275  0.00  0.00    +0.000 N 
ATOM      8  H   UNL     1      36.904  28.814  52.239  0.00  0.00    +0.000 HD
ATOM      9  H   UNL     1      32.931  29.853  49.903  0.00  0.00    +0.000 HD
ATOM     10  H   UNL     1      33.794  29.542  48.258  0.00  0.00    +0.000 HD
ENDROOT
BRANCH   2  11
ATOM     11  C   UNL     1      38.748  30.747  51.720  0.00  0.00    +0.000 A 
ATOM     12  C   UNL     1      39.326  31.977  51.949  0.00  0.00    +0.000 A 
ATOM     13  H   UNL     1      39.018  33.005  51.666  0.00  0.00    +0.000 HD
ATOM     14  C   UNL     1      40.493  31.928  52.657  0.00  0.00    +0.000 A 
ATOM     15  H   UNL     1      41.186  32.669  53.004  0.00  0.00    +0.000 HD
ATOM     16  C   UNL     1      40.620  30.584  52.864  0.00  0.00    +0.000 A 
ATOM     17  H   UNL     1      41.382  29.986  53.380  0.00  0.00    +0.000 HD
ATOM     18  O   UNL     1      39.619  30.023  52.314  0.00  0.00    +0.000 OA
ENDBRANCH   2  11
BRANCH   3  19
ATOM     19  C   UNL     1      37.783  32.460  49.395  0.00  0.00    +0.000 C 
ATOM     20  F   UNL     1      39.001  32.381  49.925  0.00  0.00    +0.000 F 
ATOM     21  F   UNL     1      37.895  32.444  48.013  0.00  0.00    +0.000 F 
ATOM     22  F   UNL     1      37.188  33.699  49.724  0.00  0.00    +0.000 F 
ENDBRANCH   3  19
TORSDOF 2
