
 OpenBabel03262520213D

 22 23  0  0  0  0  0  0  0  0999 V2000
   33.5280   27.7880   48.5150 C   0  0  0  0  0  0  0  0  0  0  0  0
   33.6980   28.9710   47.7430 C   0  0  0  0  0  0  0  0  0  0  0  0
   32.7940   29.1860   46.7250 C   0  0  0  0  0  0  0  0  0  0  0  0
   31.8080   28.2390   46.5510 N   0  0  0  0  0  0  0  0  0  0  0  0
   31.6680   27.1450   47.2880 C   0  0  0  0  0  0  0  0  0  0  0  0
   32.5450   26.9320   48.2720 N   0  0  0  0  0  0  0  0  0  0  0  0
   30.5790   26.3000   46.9870 N   0  0  0  0  0  0  0  0  0  0  0  0
   34.1290   27.4510   49.3420 H   0  0  0  0  0  0  0  0  0  0  0  0
   29.8680   26.1640   47.7570 H   0  0  0  0  0  0  0  0  0  0  0  0
   30.5730   25.8840   46.0330 H   0  0  0  0  0  0  0  0  0  0  0  0
   34.8160   29.8090   48.1700 C   0  0  0  0  0  0  0  0  0  0  0  0
   34.8710   30.4110   49.4090 C   0  0  0  0  0  0  0  0  0  0  0  0
   34.1690   30.4040   50.2690 H   0  0  0  0  0  0  0  0  0  0  0  0
   35.9970   31.1550   49.6240 C   0  0  0  0  0  0  0  0  0  0  0  0
   36.3570   31.7410   50.4460 H   0  0  0  0  0  0  0  0  0  0  0  0
   36.6550   30.9860   48.4390 C   0  0  0  0  0  0  0  0  0  0  0  0
   37.6160   31.3670   48.0680 H   0  0  0  0  0  0  0  0  0  0  0  0
   35.9310   30.2360   47.7110 O   0  0  0  0  0  0  0  0  0  0  0  0
   32.9050   30.3840   45.8700 C   0  0  0  0  0  0  0  0  0  0  0  0
   34.1210   30.3650   45.3280 F   0  0  0  0  0  0  0  0  0  0  0  0
   31.9630   30.4310   44.8540 F   0  0  0  0  0  0  0  0  0  0  0  0
   32.7270   31.5670   46.6220 F   0  0  0  0  0  0  0  0  0  0  0  0
  1  8  1  0  0  0  0
  2 11  1  0  0  0  0
  2  1  2  0  0  0  0
  3  2  1  0  0  0  0
  4  3  2  0  0  0  0
  4  5  1  0  0  0  0
  5  6  2  0  0  0  0
  6  1  1  0  0  0  0
  7  5  1  0  0  0  0
  7  9  1  0  0  0  0
 10  7  1  0  0  0  0
 11 12  2  0  0  0  0
 12 14  1  0  0  0  0
 12 13  1  0  0  0  0
 14 15  1  0  0  0  0
 16 14  2  0  0  0  0
 17 16  1  0  0  0  0
 18 11  1  0  0  0  0
 18 16  1  0  0  0  0
 19 22  1  0  0  0  0
 19  3  1  0  0  0  0
 20 19  1  0  0  0  0
 21 19  1  0  0  0  0
M  END
>  <minimizedAffinity>
-3.75764894

>  <minimizedRMSD>
5.72090769

$$$$
