
 OpenBabel03272508423D

 19 20  0  0  0  0  0  0  0  0999 V2000
   34.0300   28.0110   48.0660 C   0  0  0  0  0  0  0  0  0  0  0  0
   34.0550   26.7590   48.0290 O   0  0  0  0  0  0  0  0  0  0  0  0
   30.9590   28.9910   46.3830 C   0  0  0  0  0  0  0  0  0  0  0  0
   31.2910   30.2140   45.7910 C   0  0  0  0  0  0  0  0  0  0  0  0
   32.5770   30.7170   45.9630 C   0  0  0  0  0  0  0  0  0  0  0  0
   33.4370   29.9790   46.7050 N   0  0  0  0  0  0  0  0  0  0  0  0
   33.0960   28.8000   47.2690 C   0  0  0  0  0  0  0  0  0  0  0  0
   31.8540   28.3070   47.1060 N   0  0  0  0  0  0  0  0  0  0  0  0
   29.9490   28.5810   46.2570 H   0  0  0  0  0  0  0  0  0  0  0  0
   30.5690   30.7750   45.2020 H   0  0  0  0  0  0  0  0  0  0  0  0
   32.9070   31.6530   45.5370 H   0  0  0  0  0  0  0  0  0  0  0  0
   34.9870   28.6880   48.9530 C   0  0  0  0  0  0  0  0  0  0  0  0
   34.7590   28.9370   50.2940 C   0  0  0  0  0  0  0  0  0  0  0  0
   33.8780   28.6810   50.8580 H   0  0  0  0  0  0  0  0  0  0  0  0
   35.9330   29.5840   50.6920 C   0  0  0  0  0  0  0  0  0  0  0  0
   36.1100   29.9330   51.7000 H   0  0  0  0  0  0  0  0  0  0  0  0
   36.7860   29.6900   49.6110 C   0  0  0  0  0  0  0  0  0  0  0  0
   37.7790   30.1400   49.5790 H   0  0  0  0  0  0  0  0  0  0  0  0
   36.1830   29.1410   48.5860 O   0  0  0  0  0  0  0  0  0  0  0  0
  1 12  1  0  0  0  0
  2  1  2  0  0  0  0
  3  8  1  0  0  0  0
  4  5  1  0  0  0  0
  4  3  2  0  0  0  0
  5  6  2  0  0  0  0
  6  7  1  0  0  0  0
  7  1  1  0  0  0  0
  8  7  2  0  0  0  0
  9  3  1  0  0  0  0
 10  4  1  0  0  0  0
 11  5  1  0  0  0  0
 12 13  2  0  0  0  0
 13 15  1  0  0  0  0
 13 14  1  0  0  0  0
 15 16  1  0  0  0  0
 17 15  2  0  0  0  0
 18 17  1  0  0  0  0
 19 12  1  0  0  0  0
 19 17  1  0  0  0  0
M  END
>  <minimizedAffinity>
-3.42896533

>  <minimizedRMSD>
4.96506023

$$$$
