
     RDKit          3D

 22 23  0  0  0  0  0  0  0  0999 V2000
   36.6879   29.5053   51.4433 C   0  0  0  0  0  0  0  0  0  0  0  0
   37.4966   30.5805   50.9828 C   0  0  0  0  0  0  0  0  0  0  0  0
   37.0018   31.3307   49.9385 C   0  0  0  0  0  0  0  0  0  0  0  0
   35.7687   30.9733   49.4377 N   0  0  0  0  0  0  0  0  0  0  0  0
   35.0312   29.9660   49.8866 C   0  0  0  0  0  0  0  0  0  0  0  0
   35.5103   29.2357   50.8973 N   0  0  0  0  0  0  0  0  0  0  0  0
   33.7761   29.7627   49.2745 N   0  0  0  0  0  0  0  0  0  0  0  0
   37.7827   32.4596   49.3952 C   0  0  0  0  0  0  0  0  0  0  0  0
   39.0012   32.3809   49.9254 F   0  0  0  0  0  0  0  0  0  0  0  0
   37.8948   32.4435   48.0132 F   0  0  0  0  0  0  0  0  0  0  0  0
   37.1878   33.6989   49.7244 F   0  0  0  0  0  0  0  0  0  0  0  0
   36.9035   28.8137   52.2391 H   0  0  0  0  0  0  0  0  0  0  0  0
   32.9314   29.8527   49.9029 H   0  0  0  0  0  0  0  0  0  0  0  0
   33.7936   29.5419   48.2578 H   0  0  0  0  0  0  0  0  0  0  0  0
   38.7477   30.7470   51.7196 C   0  0  0  0  0  0  0  0  0  0  0  0
   39.9470   31.0371   51.1065 C   0  0  0  0  0  0  0  0  0  0  0  0
   40.2159   31.1944   50.0406 H   0  0  0  0  0  0  0  0  0  0  0  0
   41.0045   31.1557   51.9630 C   0  0  0  0  0  0  0  0  0  0  0  0
   42.0475   31.3682   51.8351 H   0  0  0  0  0  0  0  0  0  0  0  0
   40.3981   30.9213   53.1646 C   0  0  0  0  0  0  0  0  0  0  0  0
   40.7831   30.8941   54.1918 H   0  0  0  0  0  0  0  0  0  0  0  0
   39.1667   30.7085   52.9279 O   0  0  0  0  0  0  0  0  0  0  0  0
  2  1  2  0
  3  2  1  0
  4  5  1  0
  4  3  2  0
  5  6  2  0
  6  1  1  0
  7  5  1  0
  8 11  1  0
  8  3  1  0
  8  9  1  0
 10  8  1  0
  1 12  1  0
  7 13  1  0
  7 14  1  0
 15 16  2  0
 16 17  1  0
 16 18  1  0
 18 19  1  0
 18 20  2  0
 20 21  1  0
 20 22  1  0
 22 15  1  0
  2 15  1  0
M  ISO  4  12  14  17  16  19  16  21  14
M  END
>  <DihAtoms>  (1) 
0,1,14,15

>  <DihDeg>  (1) 
3.750009851686809

$$$$
