
 OpenBabel03262520213D

 22 23  0  0  0  0  0  0  0  0999 V2000
   32.2410   27.7300   48.8590 C   0  0  0  0  0  0  0  0  0  0  0  0
   33.0360   28.4870   47.9530 C   0  0  0  0  0  0  0  0  0  0  0  0
   32.6460   28.4880   46.6320 C   0  0  0  0  0  0  0  0  0  0  0  0
   31.5210   27.7610   46.3090 N   0  0  0  0  0  0  0  0  0  0  0  0
   30.7930   27.0650   47.1740 C   0  0  0  0  0  0  0  0  0  0  0  0
   31.1710   27.0600   48.4540 N   0  0  0  0  0  0  0  0  0  0  0  0
   29.6520   26.4040   46.6720 N   0  0  0  0  0  0  0  0  0  0  0  0
   32.3870   27.6080   49.9180 H   0  0  0  0  0  0  0  0  0  0  0  0
   28.7230   26.7060   47.0750 H   0  0  0  0  0  0  0  0  0  0  0  0
   29.8270   25.6770   45.9470 H   0  0  0  0  0  0  0  0  0  0  0  0
   34.1580   29.1830   48.5790 C   0  0  0  0  0  0  0  0  0  0  0  0
   35.1750   28.5280   49.2400 C   0  0  0  0  0  0  0  0  0  0  0  0
   35.3610   27.4490   49.4290 H   0  0  0  0  0  0  0  0  0  0  0  0
   36.1340   29.3510   49.7580 C   0  0  0  0  0  0  0  0  0  0  0  0
   37.0360   29.1860   50.3130 H   0  0  0  0  0  0  0  0  0  0  0  0
   35.6600   30.5760   49.3830 C   0  0  0  0  0  0  0  0  0  0  0  0
   36.0410   31.5930   49.5400 H   0  0  0  0  0  0  0  0  0  0  0  0
   34.5770   30.3800   48.7450 O   0  0  0  0  0  0  0  0  0  0  0  0
   33.4210   29.2400   45.6260 C   0  0  0  0  0  0  0  0  0  0  0  0
   34.6730   28.7920   45.6850 F   0  0  0  0  0  0  0  0  0  0  0  0
   32.9510   29.0840   44.3310 F   0  0  0  0  0  0  0  0  0  0  0  0
   33.3880   30.6290   45.8880 F   0  0  0  0  0  0  0  0  0  0  0  0
  1  8  1  0  0  0  0
  2 11  1  0  0  0  0
  2  1  2  0  0  0  0
  3  2  1  0  0  0  0
  4  3  2  0  0  0  0
  4  5  1  0  0  0  0
  5  6  2  0  0  0  0
  6  1  1  0  0  0  0
  7  9  1  0  0  0  0
  7  5  1  0  0  0  0
 10  7  1  0  0  0  0
 11 18  1  0  0  0  0
 11 12  2  0  0  0  0
 12 13  1  0  0  0  0
 12 14  1  0  0  0  0
 14 15  1  0  0  0  0
 16 17  1  0  0  0  0
 16 14  2  0  0  0  0
 18 16  1  0  0  0  0
 19 20  1  0  0  0  0
 19 22  1  0  0  0  0
 19  3  1  0  0  0  0
 21 19  1  0  0  0  0
M  END
>  <minimizedAffinity>
-3.58178473

>  <minimizedRMSD>
6.07380676

$$$$
