
 OpenBabel03272507533D

 31 33  0  0  0  0  0  0  0  0999 V2000
   36.5420   31.2930   48.7180 N   0  0  0  0  0  0  0  0  0  0  0  0
   36.7070   32.1300   49.7360 C   0  0  0  0  0  0  0  0  0  0  0  0
   37.7550   33.0540   49.7180 C   0  0  0  0  0  0  0  0  0  0  0  0
   38.5400   32.9950   48.5990 C   0  0  0  0  0  0  0  0  0  0  0  0
   39.4880   33.8380   48.5940 O   0  0  0  0  0  0  0  0  0  0  0  0
   38.4130   32.1720   47.5530 N   0  0  0  0  0  0  0  0  0  0  0  0
   37.3770   31.3020   47.6340 C   0  0  0  0  0  0  0  0  0  0  0  0
   37.2310   30.5130   46.6630 O   0  0  0  0  0  0  0  0  0  0  0  0
   36.0090   32.0740   50.5700 H   0  0  0  0  0  0  0  0  0  0  0  0
   37.9050   33.7350   50.5270 H   0  0  0  0  0  0  0  0  0  0  0  0
   35.2810   29.5510   49.8260 C   0  0  0  0  0  0  0  0  0  0  0  0
   35.4860   30.3230   48.6770 C   0  0  0  0  0  0  0  0  0  0  0  0
   34.6630   30.1110   47.5680 C   0  0  0  0  0  0  0  0  0  0  0  0
   33.6970   29.1540   47.6650 N   0  0  0  0  0  0  0  0  0  0  0  0
   33.5090   28.4270   48.7550 C   0  0  0  0  0  0  0  0  0  0  0  0
   34.2920   28.6150   49.8390 N   0  0  0  0  0  0  0  0  0  0  0  0
   34.9030   30.7500   46.7510 H   0  0  0  0  0  0  0  0  0  0  0  0
   32.7220   27.6820   48.7660 H   0  0  0  0  0  0  0  0  0  0  0  0
   37.3250   29.1790   51.4010 C   0  0  0  0  0  0  0  0  0  0  0  0
   38.0750   28.5890   50.5970 O   0  0  0  0  0  0  0  0  0  0  0  0
   36.0410   29.6920   51.0160 N   0  0  0  0  0  0  0  0  0  0  0  0
   37.7420   29.2490   52.3660 H   0  0  0  0  0  0  0  0  0  0  0  0
   35.6480   30.2730   51.8080 H   0  0  0  0  0  0  0  0  0  0  0  0
   39.2930   32.1990   46.4350 C   0  0  0  0  0  0  0  0  0  0  0  0
   39.4830   32.9830   45.3130 C   0  0  0  0  0  0  0  0  0  0  0  0
   38.8010   33.8180   45.2100 H   0  0  0  0  0  0  0  0  0  0  0  0
   40.5430   32.4160   44.6450 C   0  0  0  0  0  0  0  0  0  0  0  0
   40.8560   32.9000   43.7090 H   0  0  0  0  0  0  0  0  0  0  0  0
   40.9570   31.3250   45.3670 C   0  0  0  0  0  0  0  0  0  0  0  0
   41.7820   30.7360   45.0150 H   0  0  0  0  0  0  0  0  0  0  0  0
   40.1910   31.2220   46.4310 O   0  0  0  0  0  0  0  0  0  0  0  0
  1  2  1  0  0  0  0
  2  9  1  0  0  0  0
  3  2  2  0  0  0  0
  3 10  1  0  0  0  0
  4  3  1  0  0  0  0
  5  4  2  0  0  0  0
  6  7  1  0  0  0  0
  6  4  1  0  0  0  0
  7  1  1  0  0  0  0
  8  7  2  0  0  0  0
 11 16  1  0  0  0  0
 11 21  1  0  0  0  0
 12  1  1  0  0  0  0
 12 11  2  0  0  0  0
 13 14  2  0  0  0  0
 13 12  1  0  0  0  0
 14 15  1  0  0  0  0
 15 18  1  0  0  0  0
 15 16  2  0  0  0  0
 17 13  1  0  0  0  0
 19 22  1  0  0  0  0
 20 19  2  0  0  0  0
 21 19  1  0  0  0  0
 21 23  1  0  0  0  0
 24  6  1  0  0  0  0
 25 24  2  0  0  0  0
 26 25  1  0  0  0  0
 27 25  1  0  0  0  0
 27 29  2  0  0  0  0
 28 27  1  0  0  0  0
 29 31  1  0  0  0  0
 30 29  1  0  0  0  0
 31 24  1  0  0  0  0
M  END
>  <minimizedAffinity>
-6.2581234

>  <minimizedRMSD>
1.03213358

$$$$
