
 OpenBabel03272509363D

 46 50  0  0  1  0  0  0  0  0999 V2000
   38.4010   27.1430   33.7140 C   0  0  1  0  0  0  0  0  0  0  0  0
   38.1060   27.2550   35.1640 C   0  0  0  0  0  0  0  0  0  0  0  0
   37.6680   26.0130   34.5630 C   0  0  2  0  0  0  0  0  0  0  0  0
   39.3030   26.7340   33.2750 H   0  0  0  0  0  0  0  0  0  0  0  0
   37.3290   28.0490   35.4200 H   0  0  0  0  0  0  0  0  0  0  0  0
   39.0390   27.5030   35.6910 H   0  0  0  0  0  0  0  0  0  0  0  0
   36.7370   25.7830   34.0610 H   0  0  0  0  0  0  0  0  0  0  0  0
   38.5150   24.8590   35.0080 C   0  0  0  0  0  0  0  0  0  0  0  0
   39.3090   24.4120   33.9410 C   0  0  0  0  0  0  0  0  0  0  0  0
   40.2530   23.4360   34.1430 C   0  0  0  0  0  0  0  0  0  0  0  0
   40.4470   22.8650   35.4060 C   0  0  0  0  0  0  0  0  0  0  0  0
   39.6450   23.3300   36.4370 C   0  0  0  0  0  0  0  0  0  0  0  0
   39.7250   22.8430   37.7100 C   0  0  0  0  0  0  0  0  0  0  0  0
   38.9250   23.2790   38.7450 C   0  0  0  0  0  0  0  0  0  0  0  0
   37.9890   24.2660   38.4800 C   0  0  0  0  0  0  0  0  0  0  0  0
   37.9070   24.7580   37.2000 C   0  0  0  0  0  0  0  0  0  0  0  0
   38.7300   24.2910   36.1950 C   0  0  0  0  0  0  0  0  0  0  0  0
   39.4190   24.6430   32.9010 H   0  0  0  0  0  0  0  0  0  0  0  0
   40.9430   22.9760   33.4480 H   0  0  0  0  0  0  0  0  0  0  0  0
   41.1500   22.0930   35.7070 H   0  0  0  0  0  0  0  0  0  0  0  0
   40.4440   22.0720   37.9590 H   0  0  0  0  0  0  0  0  0  0  0  0
   38.9660   22.9110   39.7620 H   0  0  0  0  0  0  0  0  0  0  0  0
   37.3280   24.6540   39.2430 H   0  0  0  0  0  0  0  0  0  0  0  0
   37.1550   25.5460   37.0110 H   0  0  0  0  0  0  0  0  0  0  0  0
   36.7490   28.3530   30.5540 C   0  0  0  0  0  0  0  0  0  0  0  0
   37.6410   27.6790   31.4350 C   0  0  0  0  0  0  0  0  0  0  0  0
   37.4680   27.8260   32.7820 C   0  0  0  0  0  0  0  0  0  0  0  0
   36.4320   28.6230   33.1790 N   0  0  0  0  0  0  0  0  0  0  0  0
   35.5910   29.2560   32.3650 C   0  0  0  0  0  0  0  0  0  0  0  0
   35.7400   29.1290   31.0210 N   0  0  0  0  0  0  0  0  0  0  0  0
   36.9260   28.2070   29.5150 H   0  0  0  0  0  0  0  0  0  0  0  0
   38.4310   27.0720   31.0680 H   0  0  0  0  0  0  0  0  0  0  0  0
   34.4660   30.0680   32.9650 C   0  0  0  0  0  0  0  0  0  0  0  0
   34.8290   31.1150   32.9740 H   0  0  0  0  0  0  0  0  0  0  0  0
   33.5630   29.9320   32.3720 H   0  0  0  0  0  0  0  0  0  0  0  0
   34.2950   29.5720   34.3980 C   0  0  0  0  0  0  0  0  0  0  0  0
   33.2200   29.2680   34.4880 H   0  0  0  0  0  0  0  0  0  0  0  0
   34.9400   28.6770   34.5750 H   0  0  0  0  0  0  0  0  0  0  0  0
   34.5420   30.6530   35.3720 C   0  0  0  0  0  0  0  0  0  0  0  0
   35.5480   31.4890   35.8070 C   0  0  0  0  0  0  0  0  0  0  0  0
   36.5010   31.4040   35.3380 H   0  0  0  0  0  0  0  0  0  0  0  0
   35.0590   32.3060   36.8060 C   0  0  0  0  0  0  0  0  0  0  0  0
   35.6520   33.0530   37.3140 H   0  0  0  0  0  0  0  0  0  0  0  0
   33.7530   31.9130   36.9270 C   0  0  0  0  0  0  0  0  0  0  0  0
   33.0880   32.3910   37.6600 H   0  0  0  0  0  0  0  0  0  0  0  0
   33.4700   30.9410   36.0760 O   0  0  0  0  0  0  0  0  0  0  0  0
  1  4  1  6  0  0  0
  1  3  1  0  0  0  0
  1  2  1  0  0  0  0
  2  5  1  0  0  0  0
  2  6  1  0  0  0  0
  3  7  1  6  0  0  0
  3  8  1  0  0  0  0
  3  2  1  0  0  0  0
  8 17  1  0  0  0  0
  9 10  1  0  0  0  0
  9  8  2  0  0  0  0
 10 11  2  0  0  0  0
 11 20  1  0  0  0  0
 11 12  1  0  0  0  0
 12 13  1  0  0  0  0
 13 21  1  0  0  0  0
 13 14  2  0  0  0  0
 14 22  1  0  0  0  0
 15 14  1  0  0  0  0
 15 23  1  0  0  0  0
 16 15  2  0  0  0  0
 17 12  2  0  0  0  0
 17 16  1  0  0  0  0
 18  9  1  0  0  0  0
 19 10  1  0  0  0  0
 24 16  1  0  0  0  0
 25 30  2  0  0  0  0
 25 26  1  0  0  0  0
 26 27  2  0  0  0  0
 27 28  1  0  0  0  0
 27  1  1  0  0  0  0
 29 33  1  0  0  0  0
 29 28  2  0  0  0  0
 30 29  1  0  0  0  0
 31 25  1  0  0  0  0
 32 26  1  0  0  0  0
 33 34  1  0  0  0  0
 33 36  1  0  0  0  0
 35 33  1  0  0  0  0
 36 37  1  0  0  0  0
 36 38  1  0  0  0  0
 36 39  1  0  0  0  0
 39 40  2  0  0  0  0
 39 46  1  0  0  0  0
 40 42  1  0  0  0  0
 41 40  1  0  0  0  0
 42 44  2  0  0  0  0
 42 43  1  0  0  0  0
 44 45  1  0  0  0  0
 46 44  1  0  0  0  0
M  END
>  <minimizedAffinity>
-6.54075146

$$$$

 OpenBabel03272509363D

 46 50  0  0  1  0  0  0  0  0999 V2000
   40.3050   26.7810   34.7360 C   0  0  1  0  0  0  0  0  0  0  0  0
   38.9290   27.0190   35.2380 C   0  0  0  0  0  0  0  0  0  0  0  0
   39.1870   25.6520   34.8380 C   0  0  2  0  0  0  0  0  0  0  0  0
   41.1620   26.4940   35.3320 H   0  0  0  0  0  0  0  0  0  0  0  0
   38.2950   27.6820   34.5610 H   0  0  0  0  0  0  0  0  0  0  0  0
   38.9970   27.4990   36.2260 H   0  0  0  0  0  0  0  0  0  0  0  0
   39.0990   25.1930   33.8610 H   0  0  0  0  0  0  0  0  0  0  0  0
   39.2700   24.7390   36.0240 C   0  0  0  0  0  0  0  0  0  0  0  0
   38.1990   24.9900   36.8940 C   0  0  0  0  0  0  0  0  0  0  0  0
   38.0000   24.1950   37.9950 C   0  0  0  0  0  0  0  0  0  0  0  0
   38.8530   23.1220   38.2770 C   0  0  0  0  0  0  0  0  0  0  0  0
   39.9010   22.9020   37.3970 C   0  0  0  0  0  0  0  0  0  0  0  0
   40.8110   21.8990   37.5700 C   0  0  0  0  0  0  0  0  0  0  0  0
   41.8710   21.6750   36.7160 C   0  0  0  0  0  0  0  0  0  0  0  0
   42.0200   22.5120   35.6220 C   0  0  0  0  0  0  0  0  0  0  0  0
   41.1060   23.5210   35.4450 C   0  0  0  0  0  0  0  0  0  0  0  0
   40.0600   23.7080   36.3270 C   0  0  0  0  0  0  0  0  0  0  0  0
   37.3900   25.6900   36.9530 H   0  0  0  0  0  0  0  0  0  0  0  0
   37.2400   24.2410   38.7630 H   0  0  0  0  0  0  0  0  0  0  0  0
   38.8150   22.4170   39.1040 H   0  0  0  0  0  0  0  0  0  0  0  0
   40.7290   21.2220   38.4120 H   0  0  0  0  0  0  0  0  0  0  0  0
   42.6060   20.8890   36.8290 H   0  0  0  0  0  0  0  0  0  0  0  0
   42.8280   22.3950   34.9120 H   0  0  0  0  0  0  0  0  0  0  0  0
   41.2430   24.1760   34.5650 H   0  0  0  0  0  0  0  0  0  0  0  0
   42.0950   27.8920   31.6140 C   0  0  0  0  0  0  0  0  0  0  0  0
   41.8490   27.5170   32.9650 C   0  0  0  0  0  0  0  0  0  0  0  0
   40.5810   27.1580   33.3260 C   0  0  0  0  0  0  0  0  0  0  0  0
   39.6370   27.1880   32.3390 N   0  0  0  0  0  0  0  0  0  0  0  0
   39.8560   27.5350   31.0730 C   0  0  0  0  0  0  0  0  0  0  0  0
   41.1070   27.8980   30.6870 N   0  0  0  0  0  0  0  0  0  0  0  0
   43.0990   28.1630   31.3850 H   0  0  0  0  0  0  0  0  0  0  0  0
   42.6240   27.5130   33.6910 H   0  0  0  0  0  0  0  0  0  0  0  0
   38.7090   27.4740   30.0910 C   0  0  0  0  0  0  0  0  0  0  0  0
   38.8180   28.3730   29.4520 H   0  0  0  0  0  0  0  0  0  0  0  0
   38.7590   26.5410   29.5310 H   0  0  0  0  0  0  0  0  0  0  0  0
   37.4300   27.5830   30.9150 C   0  0  0  0  0  0  0  0  0  0  0  0
   37.7570   27.8620   31.9490 H   0  0  0  0  0  0  0  0  0  0  0  0
   36.7790   28.3960   30.5100 H   0  0  0  0  0  0  0  0  0  0  0  0
   36.7320   26.2840   30.9970 C   0  0  0  0  0  0  0  0  0  0  0  0
   36.9860   24.9480   31.2260 C   0  0  0  0  0  0  0  0  0  0  0  0
   37.9920   24.6620   31.4260 H   0  0  0  0  0  0  0  0  0  0  0  0
   35.8020   24.2430   31.1510 C   0  0  0  0  0  0  0  0  0  0  0  0
   35.7310   23.1740   31.2940 H   0  0  0  0  0  0  0  0  0  0  0  0
   34.8730   25.2100   30.8730 C   0  0  0  0  0  0  0  0  0  0  0  0
   33.8120   24.9500   30.7520 H   0  0  0  0  0  0  0  0  0  0  0  0
   35.4410   26.4010   30.7870 O   0  0  0  0  0  0  0  0  0  0  0  0
  1  3  1  0  0  0  0
  1  2  1  0  0  0  0
  1  4  1  1  0  0  0
  2  6  1  0  0  0  0
  3  7  1  6  0  0  0
  3  2  1  0  0  0  0
  3  8  1  0  0  0  0
  5  2  1  0  0  0  0
  8 17  2  0  0  0  0
  8  9  1  0  0  0  0
  9 18  1  0  0  0  0
  9 10  2  0  0  0  0
 10 11  1  0  0  0  0
 10 19  1  0  0  0  0
 11 20  1  0  0  0  0
 12 13  1  0  0  0  0
 12 11  2  0  0  0  0
 13 21  1  0  0  0  0
 14 22  1  0  0  0  0
 14 13  2  0  0  0  0
 15 14  1  0  0  0  0
 16 15  2  0  0  0  0
 16 17  1  0  0  0  0
 17 12  1  0  0  0  0
 23 15  1  0  0  0  0
 24 16  1  0  0  0  0
 25 26  1  0  0  0  0
 26 27  2  0  0  0  0
 26 32  1  0  0  0  0
 27  1  1  0  0  0  0
 28 27  1  0  0  0  0
 29 28  2  0  0  0  0
 30 29  1  0  0  0  0
 30 25  2  0  0  0  0
 31 25  1  0  0  0  0
 33 36  1  0  0  0  0
 33 29  1  0  0  0  0
 34 33  1  0  0  0  0
 35 33  1  0  0  0  0
 36 39  1  0  0  0  0
 36 37  1  0  0  0  0
 38 36  1  0  0  0  0
 39 40  2  0  0  0  0
 40 41  1  0  0  0  0
 42 40  1  0  0  0  0
 42 43  1  0  0  0  0
 44 42  2  0  0  0  0
 45 44  1  0  0  0  0
 46 44  1  0  0  0  0
 46 39  1  0  0  0  0
M  END
>  <minimizedAffinity>
-6.49179697

$$$$

 OpenBabel03272509363D

 46 50  0  0  1  0  0  0  0  0999 V2000
   36.4740   28.6740   33.4620 C   0  0  1  0  0  0  0  0  0  0  0  0
   35.8700   29.7810   32.6810 C   0  0  0  0  0  0  0  0  0  0  0  0
   34.9800   29.1870   33.6550 C   0  0  2  0  0  0  0  0  0  0  0  0
   37.0110   28.7710   34.3980 H   0  0  0  0  0  0  0  0  0  0  0  0
   35.7200   29.5420   31.5750 H   0  0  0  0  0  0  0  0  0  0  0  0
   36.5280   30.6600   32.7560 H   0  0  0  0  0  0  0  0  0  0  0  0
   34.3270   28.3290   33.5560 H   0  0  0  0  0  0  0  0  0  0  0  0
   34.7360   30.1100   34.8110 C   0  0  0  0  0  0  0  0  0  0  0  0
   35.9010   30.8400   35.0910 C   0  0  0  0  0  0  0  0  0  0  0  0
   35.8840   31.8340   36.0370 C   0  0  0  0  0  0  0  0  0  0  0  0
   34.7150   32.1440   36.7420 C   0  0  0  0  0  0  0  0  0  0  0  0
   33.5820   31.4030   36.4400 C   0  0  0  0  0  0  0  0  0  0  0  0
   32.3860   31.5970   37.0680 C   0  0  0  0  0  0  0  0  0  0  0  0
   31.2530   30.8590   36.7950 C   0  0  0  0  0  0  0  0  0  0  0  0
   31.3320   29.8680   35.8310 C   0  0  0  0  0  0  0  0  0  0  0  0
   32.5350   29.6710   35.1970 C   0  0  0  0  0  0  0  0  0  0  0  0
   33.6440   30.4350   35.5030 C   0  0  0  0  0  0  0  0  0  0  0  0
   36.9110   30.8630   34.7340 H   0  0  0  0  0  0  0  0  0  0  0  0
   36.6750   32.4880   36.3790 H   0  0  0  0  0  0  0  0  0  0  0  0
   34.5590   32.8980   37.5090 H   0  0  0  0  0  0  0  0  0  0  0  0
   32.2820   32.3620   37.8270 H   0  0  0  0  0  0  0  0  0  0  0  0
   30.2930   30.9910   37.2780 H   0  0  0  0  0  0  0  0  0  0  0  0
   30.4840   29.2500   35.5670 H   0  0  0  0  0  0  0  0  0  0  0  0
   32.5760   28.8760   34.4290 H   0  0  0  0  0  0  0  0  0  0  0  0
   35.9600   25.8750   30.9960 C   0  0  0  0  0  0  0  0  0  0  0  0
   35.9220   27.1640   31.5980 C   0  0  0  0  0  0  0  0  0  0  0  0
   36.5200   27.3390   32.8140 C   0  0  0  0  0  0  0  0  0  0  0  0
   37.1190   26.2390   33.3600 N   0  0  0  0  0  0  0  0  0  0  0  0
   37.1630   25.0300   32.8060 C   0  0  0  0  0  0  0  0  0  0  0  0
   36.5750   24.8270   31.5990 N   0  0  0  0  0  0  0  0  0  0  0  0
   35.4790   25.7910   30.0510 H   0  0  0  0  0  0  0  0  0  0  0  0
   35.4400   27.9840   31.1250 H   0  0  0  0  0  0  0  0  0  0  0  0
   37.9050   23.9250   33.5230 C   0  0  0  0  0  0  0  0  0  0  0  0
   37.1450   23.4160   34.1480 H   0  0  0  0  0  0  0  0  0  0  0  0
   38.3700   23.2660   32.7920 H   0  0  0  0  0  0  0  0  0  0  0  0
   38.9330   24.6080   34.4190 C   0  0  0  0  0  0  0  0  0  0  0  0
   39.9340   24.3110   34.0140 H   0  0  0  0  0  0  0  0  0  0  0  0
   38.8290   25.7190   34.3470 H   0  0  0  0  0  0  0  0  0  0  0  0
   38.8440   24.1170   35.8080 C   0  0  0  0  0  0  0  0  0  0  0  0
   39.5050   23.2930   36.6950 C   0  0  0  0  0  0  0  0  0  0  0  0
   40.3910   22.8090   36.3540 H   0  0  0  0  0  0  0  0  0  0  0  0
   38.8330   23.2920   37.9000 C   0  0  0  0  0  0  0  0  0  0  0  0
   39.1500   22.7230   38.7620 H   0  0  0  0  0  0  0  0  0  0  0  0
   37.7770   24.1340   37.6760 C   0  0  0  0  0  0  0  0  0  0  0  0
   37.0450   24.3400   38.4690 H   0  0  0  0  0  0  0  0  0  0  0  0
   37.8020   24.6070   36.4410 O   0  0  0  0  0  0  0  0  0  0  0  0
  1  3  1  0  0  0  0
  1  4  1  1  0  0  0
  2  6  1  0  0  0  0
  2  1  1  0  0  0  0
  2  3  1  0  0  0  0
  3  7  1  6  0  0  0
  3  8  1  0  0  0  0
  5  2  1  0  0  0  0
  8  9  2  0  0  0  0
  8 17  1  0  0  0  0
  9 10  1  0  0  0  0
 10 19  1  0  0  0  0
 10 11  2  0  0  0  0
 11 20  1  0  0  0  0
 12 11  1  0  0  0  0
 12 13  1  0  0  0  0
 13 21  1  0  0  0  0
 14 13  2  0  0  0  0
 14 22  1  0  0  0  0
 15 14  1  0  0  0  0
 16 17  1  0  0  0  0
 16 15  2  0  0  0  0
 17 12  2  0  0  0  0
 18  9  1  0  0  0  0
 23 15  1  0  0  0  0
 24 16  1  0  0  0  0
 25 26  2  0  0  0  0
 25 30  1  0  0  0  0
 26 27  1  0  0  0  0
 27 28  2  0  0  0  0
 27  1  1  0  0  0  0
 29 28  1  0  0  0  0
 29 33  1  0  0  0  0
 30 29  2  0  0  0  0
 31 25  1  0  0  0  0
 32 26  1  0  0  0  0
 33 34  1  0  0  0  0
 33 36  1  0  0  0  0
 35 33  1  0  0  0  0
 36 39  1  0  0  0  0
 37 36  1  0  0  0  0
 38 36  1  0  0  0  0
 39 46  1  0  0  0  0
 39 40  2  0  0  0  0
 40 42  1  0  0  0  0
 41 40  1  0  0  0  0
 42 43  1  0  0  0  0
 44 42  2  0  0  0  0
 44 45  1  0  0  0  0
 46 44  1  0  0  0  0
M  END
>  <minimizedAffinity>
-6.45070887

$$$$

 OpenBabel03272509363D

 46 50  0  0  1  0  0  0  0  0999 V2000
   39.1420   26.7590   34.7260 C   0  0  1  0  0  0  0  0  0  0  0  0
   37.8710   26.8280   35.4890 C   0  0  0  0  0  0  0  0  0  0  0  0
   38.2440   25.4910   35.0750 C   0  0  2  0  0  0  0  0  0  0  0  0
   40.1320   26.6240   35.1440 H   0  0  0  0  0  0  0  0  0  0  0  0
   37.0270   27.3620   34.9390 H   0  0  0  0  0  0  0  0  0  0  0  0
   38.0610   27.3620   36.4320 H   0  0  0  0  0  0  0  0  0  0  0  0
   38.0340   24.9770   34.1460 H   0  0  0  0  0  0  0  0  0  0  0  0
   38.6900   24.6600   36.2400 C   0  0  0  0  0  0  0  0  0  0  0  0
   37.8740   24.9210   37.3510 C   0  0  0  0  0  0  0  0  0  0  0  0
   38.0200   24.1890   38.5030 C   0  0  0  0  0  0  0  0  0  0  0  0
   38.9770   23.1730   38.6000 C   0  0  0  0  0  0  0  0  0  0  0  0
   39.7660   22.9410   37.4840 C   0  0  0  0  0  0  0  0  0  0  0  0
   40.7450   21.9910   37.4560 C   0  0  0  0  0  0  0  0  0  0  0  0
   41.5520   21.7580   36.3630 C   0  0  0  0  0  0  0  0  0  0  0  0
   41.3590   22.5290   35.2280 C   0  0  0  0  0  0  0  0  0  0  0  0
   40.3730   23.4860   35.2520 C   0  0  0  0  0  0  0  0  0  0  0  0
   39.5890   23.6840   36.3710 C   0  0  0  0  0  0  0  0  0  0  0  0
   37.0700   25.5890   37.5890 H   0  0  0  0  0  0  0  0  0  0  0  0
   37.4880   24.2510   39.4430 H   0  0  0  0  0  0  0  0  0  0  0  0
   39.1990   22.5210   39.4410 H   0  0  0  0  0  0  0  0  0  0  0  0
   40.9280   21.3660   38.3220 H   0  0  0  0  0  0  0  0  0  0  0  0
   42.3350   21.0120   36.3140 H   0  0  0  0  0  0  0  0  0  0  0  0
   41.9550   22.4020   34.3350 H   0  0  0  0  0  0  0  0  0  0  0  0
   40.2350   24.0890   34.3360 H   0  0  0  0  0  0  0  0  0  0  0  0
   40.1110   27.2480   31.1200 C   0  0  0  0  0  0  0  0  0  0  0  0
   40.1810   26.9020   32.4990 C   0  0  0  0  0  0  0  0  0  0  0  0
   39.0790   27.0990   33.2820 C   0  0  0  0  0  0  0  0  0  0  0  0
   37.9790   27.6220   32.6620 N   0  0  0  0  0  0  0  0  0  0  0  0
   37.9020   27.9480   31.3740 C   0  0  0  0  0  0  0  0  0  0  0  0
   38.9830   27.7630   30.5730 N   0  0  0  0  0  0  0  0  0  0  0  0
   40.9960   27.0760   30.5540 H   0  0  0  0  0  0  0  0  0  0  0  0
   41.0660   26.4990   32.9260 H   0  0  0  0  0  0  0  0  0  0  0  0
   36.5930   28.4760   30.8320 C   0  0  0  0  0  0  0  0  0  0  0  0
   36.7500   28.5900   29.7410 H   0  0  0  0  0  0  0  0  0  0  0  0
   35.7910   27.7830   31.0810 H   0  0  0  0  0  0  0  0  0  0  0  0
   36.3870   29.8480   31.4670 C   0  0  0  0  0  0  0  0  0  0  0  0
   37.3890   30.1510   31.8660 H   0  0  0  0  0  0  0  0  0  0  0  0
   36.0680   30.5860   30.6920 H   0  0  0  0  0  0  0  0  0  0  0  0
   35.4490   29.7760   32.6050 C   0  0  0  0  0  0  0  0  0  0  0  0
   35.4410   29.7660   33.9840 C   0  0  0  0  0  0  0  0  0  0  0  0
   36.3790   29.8340   34.4850 H   0  0  0  0  0  0  0  0  0  0  0  0
   34.1380   29.6760   34.4290 C   0  0  0  0  0  0  0  0  0  0  0  0
   33.8630   29.6510   35.4740 H   0  0  0  0  0  0  0  0  0  0  0  0
   33.4090   29.6350   33.2710 C   0  0  0  0  0  0  0  0  0  0  0  0
   32.3130   29.5620   33.3010 H   0  0  0  0  0  0  0  0  0  0  0  0
   34.1980   29.6950   32.2120 O   0  0  0  0  0  0  0  0  0  0  0  0
  1  3  1  0  0  0  0
  1  4  1  1  0  0  0
  1  2  1  0  0  0  0
  2  6  1  0  0  0  0
  3  7  1  6  0  0  0
  3  2  1  0  0  0  0
  3  8  1  0  0  0  0
  5  2  1  0  0  0  0
  8 17  2  0  0  0  0
  8  9  1  0  0  0  0
  9 18  1  0  0  0  0
  9 10  2  0  0  0  0
 10 11  1  0  0  0  0
 10 19  1  0  0  0  0
 11 20  1  0  0  0  0
 12 11  2  0  0  0  0
 13 12  1  0  0  0  0
 13 21  1  0  0  0  0
 14 13  2  0  0  0  0
 15 16  2  0  0  0  0
 15 14  1  0  0  0  0
 16 17  1  0  0  0  0
 17 12  1  0  0  0  0
 22 14  1  0  0  0  0
 23 15  1  0  0  0  0
 24 16  1  0  0  0  0
 25 26  1  0  0  0  0
 26 32  1  0  0  0  0
 26 27  2  0  0  0  0
 27  1  1  0  0  0  0
 28 27  1  0  0  0  0
 29 28  2  0  0  0  0
 30 25  2  0  0  0  0
 30 29  1  0  0  0  0
 31 25  1  0  0  0  0
 33 35  1  0  0  0  0
 33 29  1  0  0  0  0
 33 36  1  0  0  0  0
 34 33  1  0  0  0  0
 36 37  1  0  0  0  0
 36 39  1  0  0  0  0
 38 36  1  0  0  0  0
 39 40  2  0  0  0  0
 40 42  1  0  0  0  0
 40 41  1  0  0  0  0
 42 43  1  0  0  0  0
 44 45  1  0  0  0  0
 44 42  2  0  0  0  0
 46 39  1  0  0  0  0
 46 44  1  0  0  0  0
M  END
>  <minimizedAffinity>
-6.33349657

$$$$

 OpenBabel03272509363D

 46 50  0  0  1  0  0  0  0  0999 V2000
   38.6720   26.7530   34.6550 C   0  0  1  0  0  0  0  0  0  0  0  0
   38.1340   27.1080   35.9920 C   0  0  0  0  0  0  0  0  0  0  0  0
   37.8030   25.7690   35.5550 C   0  0  2  0  0  0  0  0  0  0  0  0
   39.6350   26.3000   34.4530 H   0  0  0  0  0  0  0  0  0  0  0  0
   37.3260   27.9130   35.9680 H   0  0  0  0  0  0  0  0  0  0  0  0
   38.9640   27.4710   36.6150 H   0  0  0  0  0  0  0  0  0  0  0  0
   36.9700   25.4280   34.9520 H   0  0  0  0  0  0  0  0  0  0  0  0
   38.5600   24.7340   36.3330 C   0  0  0  0  0  0  0  0  0  0  0  0
   38.0810   24.6850   37.6500 C   0  0  0  0  0  0  0  0  0  0  0  0
   38.5450   23.7300   38.5200 C   0  0  0  0  0  0  0  0  0  0  0  0
   39.5000   22.7890   38.1190 C   0  0  0  0  0  0  0  0  0  0  0  0
   39.9510   22.8660   36.8110 C   0  0  0  0  0  0  0  0  0  0  0  0
   40.8920   22.0170   36.3040 C   0  0  0  0  0  0  0  0  0  0  0  0
   41.3680   22.0890   35.0120 C   0  0  0  0  0  0  0  0  0  0  0  0
   40.8620   23.0760   34.1810 C   0  0  0  0  0  0  0  0  0  0  0  0
   39.9150   23.9310   34.6880 C   0  0  0  0  0  0  0  0  0  0  0  0
   39.4680   23.8210   35.9900 C   0  0  0  0  0  0  0  0  0  0  0  0
   37.3680   25.2250   38.2420 H   0  0  0  0  0  0  0  0  0  0  0  0
   38.2930   23.5450   39.5550 H   0  0  0  0  0  0  0  0  0  0  0  0
   39.9510   21.9850   38.6960 H   0  0  0  0  0  0  0  0  0  0  0  0
   41.3120   21.2320   36.9210 H   0  0  0  0  0  0  0  0  0  0  0  0
   42.1130   21.4300   34.5850 H   0  0  0  0  0  0  0  0  0  0  0  0
   41.1900   23.1910   33.1560 H   0  0  0  0  0  0  0  0  0  0  0  0
   39.5230   24.7100   34.0080 H   0  0  0  0  0  0  0  0  0  0  0  0
   37.5140   27.2540   31.1070 C   0  0  0  0  0  0  0  0  0  0  0  0
   38.2390   26.7700   32.2320 C   0  0  0  0  0  0  0  0  0  0  0  0
   37.9130   27.2360   33.4730 C   0  0  0  0  0  0  0  0  0  0  0  0
   36.8960   28.1460   33.5330 N   0  0  0  0  0  0  0  0  0  0  0  0
   36.2100   28.6050   32.4890 C   0  0  0  0  0  0  0  0  0  0  0  0
   36.5140   28.1600   31.2420 N   0  0  0  0  0  0  0  0  0  0  0  0
   37.8070   26.8600   30.1620 H   0  0  0  0  0  0  0  0  0  0  0  0
   39.0230   26.0610   32.1240 H   0  0  0  0  0  0  0  0  0  0  0  0
   35.0810   29.5810   32.7290 C   0  0  0  0  0  0  0  0  0  0  0  0
   35.5190   30.5860   32.5670 H   0  0  0  0  0  0  0  0  0  0  0  0
   34.2580   29.3590   32.0520 H   0  0  0  0  0  0  0  0  0  0  0  0
   34.6810   29.4250   34.1930 C   0  0  0  0  0  0  0  0  0  0  0  0
   33.5710   29.2770   34.1910 H   0  0  0  0  0  0  0  0  0  0  0  0
   35.1670   28.5180   34.6300 H   0  0  0  0  0  0  0  0  0  0  0  0
   34.9720   30.6520   34.9620 C   0  0  0  0  0  0  0  0  0  0  0  0
   35.9700   31.2250   35.7200 C   0  0  0  0  0  0  0  0  0  0  0  0
   36.8750   30.6760   35.8450 H   0  0  0  0  0  0  0  0  0  0  0  0
   35.5490   32.4620   36.1630 C   0  0  0  0  0  0  0  0  0  0  0  0
   36.1510   33.1150   36.7790 H   0  0  0  0  0  0  0  0  0  0  0  0
   34.2890   32.5750   35.6390 C   0  0  0  0  0  0  0  0  0  0  0  0
   33.6840   33.4740   35.8230 H   0  0  0  0  0  0  0  0  0  0  0  0
   33.9700   31.5010   34.9370 O   0  0  0  0  0  0  0  0  0  0  0  0
  1  4  1  6  0  0  0
  1  3  1  0  0  0  0
  1  2  1  0  0  0  0
  2  6  1  0  0  0  0
  3  7  1  6  0  0  0
  3  2  1  0  0  0  0
  3  8  1  0  0  0  0
  5  2  1  0  0  0  0
  8  9  1  0  0  0  0
  9 18  1  0  0  0  0
  9 10  2  0  0  0  0
 10 19  1  0  0  0  0
 11 10  1  0  0  0  0
 11 20  1  0  0  0  0
 12 11  2  0  0  0  0
 13 12  1  0  0  0  0
 13 21  1  0  0  0  0
 14 13  2  0  0  0  0
 15 16  2  0  0  0  0
 15 14  1  0  0  0  0
 16 17  1  0  0  0  0
 17  8  2  0  0  0  0
 17 12  1  0  0  0  0
 22 14  1  0  0  0  0
 23 15  1  0  0  0  0
 24 16  1  0  0  0  0
 25 30  2  0  0  0  0
 25 26  1  0  0  0  0
 26 27  2  0  0  0  0
 27 28  1  0  0  0  0
 27  1  1  0  0  0  0
 29 33  1  0  0  0  0
 29 28  2  0  0  0  0
 30 29  1  0  0  0  0
 31 25  1  0  0  0  0
 32 26  1  0  0  0  0
 33 36  1  0  0  0  0
 34 33  1  0  0  0  0
 35 33  1  0  0  0  0
 36 38  1  0  0  0  0
 36 39  1  0  0  0  0
 37 36  1  0  0  0  0
 39 40  2  0  0  0  0
 40 41  1  0  0  0  0
 40 42  1  0  0  0  0
 42 43  1  0  0  0  0
 44 45  1  0  0  0  0
 44 42  2  0  0  0  0
 46 39  1  0  0  0  0
 46 44  1  0  0  0  0
M  END
>  <minimizedAffinity>
-6.31258631

$$$$

 OpenBabel03272509363D

 46 50  0  0  1  0  0  0  0  0999 V2000
   35.1020   30.3690   34.1640 C   0  0  1  0  0  0  0  0  0  0  0  0
   34.0170   30.1400   35.1500 C   0  0  0  0  0  0  0  0  0  0  0  0
   35.1840   30.8020   35.6940 C   0  0  2  0  0  0  0  0  0  0  0  0
   35.2210   31.2440   33.5360 H   0  0  0  0  0  0  0  0  0  0  0  0
   33.8400   29.0410   35.3980 H   0  0  0  0  0  0  0  0  0  0  0  0
   33.0840   30.5570   34.7430 H   0  0  0  0  0  0  0  0  0  0  0  0
   36.0890   30.3730   36.1040 H   0  0  0  0  0  0  0  0  0  0  0  0
   34.9070   32.2450   35.9940 C   0  0  0  0  0  0  0  0  0  0  0  0
   33.6560   32.3700   36.6160 C   0  0  0  0  0  0  0  0  0  0  0  0
   33.2380   33.5880   37.0900 C   0  0  0  0  0  0  0  0  0  0  0  0
   34.0400   34.7280   36.9640 C   0  0  0  0  0  0  0  0  0  0  0  0
   35.2690   34.5690   36.3440 C   0  0  0  0  0  0  0  0  0  0  0  0
   36.1350   35.6060   36.1460 C   0  0  0  0  0  0  0  0  0  0  0  0
   37.3540   35.4720   35.5150 C   0  0  0  0  0  0  0  0  0  0  0  0
   37.7210   34.2170   35.0570 C   0  0  0  0  0  0  0  0  0  0  0  0
   36.8520   33.1720   35.2560 C   0  0  0  0  0  0  0  0  0  0  0  0
   35.6410   33.3530   35.8940 C   0  0  0  0  0  0  0  0  0  0  0  0
   32.8450   31.7190   36.8740 H   0  0  0  0  0  0  0  0  0  0  0  0
   32.3190   33.8670   37.5880 H   0  0  0  0  0  0  0  0  0  0  0  0
   33.8370   35.7460   37.2900 H   0  0  0  0  0  0  0  0  0  0  0  0
   35.8860   36.6020   36.4900 H   0  0  0  0  0  0  0  0  0  0  0  0
   38.0590   36.2760   35.3450 H   0  0  0  0  0  0  0  0  0  0  0  0
   38.6620   34.0390   34.5530 H   0  0  0  0  0  0  0  0  0  0  0  0
   37.1660   32.1790   34.8840 H   0  0  0  0  0  0  0  0  0  0  0  0
   37.0560   27.7460   32.2980 C   0  0  0  0  0  0  0  0  0  0  0  0
   36.2100   28.8580   32.5670 C   0  0  0  0  0  0  0  0  0  0  0  0
   35.9960   29.2210   33.8660 C   0  0  0  0  0  0  0  0  0  0  0  0
   36.6260   28.4710   34.8180 N   0  0  0  0  0  0  0  0  0  0  0  0
   37.4190   27.4300   34.5790 C   0  0  0  0  0  0  0  0  0  0  0  0
   37.6490   27.0460   33.2960 N   0  0  0  0  0  0  0  0  0  0  0  0
   37.1900   27.5040   31.2700 H   0  0  0  0  0  0  0  0  0  0  0  0
   35.7460   29.4050   31.7840 H   0  0  0  0  0  0  0  0  0  0  0  0
   38.0770   26.7290   35.7460 C   0  0  0  0  0  0  0  0  0  0  0  0
   39.1590   26.9540   35.6540 H   0  0  0  0  0  0  0  0  0  0  0  0
   37.6420   27.0890   36.6770 H   0  0  0  0  0  0  0  0  0  0  0  0
   37.8440   25.2360   35.5390 C   0  0  0  0  0  0  0  0  0  0  0  0
   36.7380   25.1170   35.4040 H   0  0  0  0  0  0  0  0  0  0  0  0
   38.3610   24.8910   34.6110 H   0  0  0  0  0  0  0  0  0  0  0  0
   38.2390   24.4610   36.7320 C   0  0  0  0  0  0  0  0  0  0  0  0
   37.8770   24.2680   38.0480 C   0  0  0  0  0  0  0  0  0  0  0  0
   37.0390   24.8130   38.4170 H   0  0  0  0  0  0  0  0  0  0  0  0
   38.7290   23.3460   38.6220 C   0  0  0  0  0  0  0  0  0  0  0  0
   38.6550   23.0210   39.6500 H   0  0  0  0  0  0  0  0  0  0  0  0
   39.5810   23.0220   37.6000 C   0  0  0  0  0  0  0  0  0  0  0  0
   40.3900   22.2940   37.7540 H   0  0  0  0  0  0  0  0  0  0  0  0
   39.2760   23.6890   36.5000 O   0  0  0  0  0  0  0  0  0  0  0  0
  1  4  1  6  0  0  0
  1  2  1  0  0  0  0
  1  3  1  0  0  0  0
  2  5  1  0  0  0  0
  2  3  1  0  0  0  0
  3  8  1  0  0  0  0
  3  7  1  1  0  0  0
  6  2  1  0  0  0  0
  8  9  1  0  0  0  0
  9 18  1  0  0  0  0
  9 10  2  0  0  0  0
 10 19  1  0  0  0  0
 11 10  1  0  0  0  0
 11 20  1  0  0  0  0
 12 11  2  0  0  0  0
 13 12  1  0  0  0  0
 13 21  1  0  0  0  0
 14 13  2  0  0  0  0
 15 16  2  0  0  0  0
 15 14  1  0  0  0  0
 16 17  1  0  0  0  0
 17  8  2  0  0  0  0
 17 12  1  0  0  0  0
 22 14  1  0  0  0  0
 23 15  1  0  0  0  0
 24 16  1  0  0  0  0
 25 26  2  0  0  0  0
 25 30  1  0  0  0  0
 26 27  1  0  0  0  0
 27  1  1  0  0  0  0
 27 28  2  0  0  0  0
 29 28  1  0  0  0  0
 29 33  1  0  0  0  0
 30 29  2  0  0  0  0
 31 25  1  0  0  0  0
 32 26  1  0  0  0  0
 33 35  1  0  0  0  0
 34 33  1  0  0  0  0
 36 33  1  0  0  0  0
 36 39  1  0  0  0  0
 37 36  1  0  0  0  0
 38 36  1  0  0  0  0
 39 40  2  0  0  0  0
 40 41  1  0  0  0  0
 40 42  1  0  0  0  0
 42 43  1  0  0  0  0
 44 45  1  0  0  0  0
 44 42  2  0  0  0  0
 46 39  1  0  0  0  0
 46 44  1  0  0  0  0
M  END
>  <minimizedAffinity>
-6.2947917

$$$$

 OpenBabel03272509363D

 46 50  0  0  1  0  0  0  0  0999 V2000
   38.1570   26.8470   34.5940 C   0  0  1  0  0  0  0  0  0  0  0  0
   38.4590   26.7710   33.1430 C   0  0  0  0  0  0  0  0  0  0  0  0
   37.0500   26.8970   33.4510 C   0  0  2  0  0  0  0  0  0  0  0  0
   38.1020   27.7510   35.1880 H   0  0  0  0  0  0  0  0  0  0  0  0
   38.8620   25.7580   32.8050 H   0  0  0  0  0  0  0  0  0  0  0  0
   39.2100   27.5380   32.9030 H   0  0  0  0  0  0  0  0  0  0  0  0
   36.3230   26.1260   33.6700 H   0  0  0  0  0  0  0  0  0  0  0  0
   36.5290   28.2550   33.0880 C   0  0  0  0  0  0  0  0  0  0  0  0
   35.9330   28.8520   34.2090 C   0  0  0  0  0  0  0  0  0  0  0  0
   35.4860   30.1480   34.1470 C   0  0  0  0  0  0  0  0  0  0  0  0
   35.6120   30.9030   32.9750 C   0  0  0  0  0  0  0  0  0  0  0  0
   36.2060   30.2830   31.8870 C   0  0  0  0  0  0  0  0  0  0  0  0
   36.3720   30.9050   30.6840 C   0  0  0  0  0  0  0  0  0  0  0  0
   36.9430   30.3000   29.5840 C   0  0  0  0  0  0  0  0  0  0  0  0
   37.3740   28.9890   29.7070 C   0  0  0  0  0  0  0  0  0  0  0  0
   37.2090   28.3600   30.9170 C   0  0  0  0  0  0  0  0  0  0  0  0
   36.6310   29.0070   31.9910 C   0  0  0  0  0  0  0  0  0  0  0  0
   35.7100   28.5670   35.2180 H   0  0  0  0  0  0  0  0  0  0  0  0
   35.0080   30.7600   34.9000 H   0  0  0  0  0  0  0  0  0  0  0  0
   35.3070   31.9290   32.7870 H   0  0  0  0  0  0  0  0  0  0  0  0
   36.0500   31.9300   30.5460 H   0  0  0  0  0  0  0  0  0  0  0  0
   37.0870   30.7690   28.6190 H   0  0  0  0  0  0  0  0  0  0  0  0
   37.8300   28.4520   28.8860 H   0  0  0  0  0  0  0  0  0  0  0  0
   37.5610   27.3150   30.9930 H   0  0  0  0  0  0  0  0  0  0  0  0
   38.0840   24.3500   37.4120 C   0  0  0  0  0  0  0  0  0  0  0  0
   38.1040   25.5870   36.7080 C   0  0  0  0  0  0  0  0  0  0  0  0
   38.1200   25.5650   35.3430 C   0  0  0  0  0  0  0  0  0  0  0  0
   38.1160   24.3320   34.7550 N   0  0  0  0  0  0  0  0  0  0  0  0
   38.0970   23.1690   35.4030 C   0  0  0  0  0  0  0  0  0  0  0  0
   38.0810   23.1620   36.7610 N   0  0  0  0  0  0  0  0  0  0  0  0
   38.0720   24.4220   38.4740 H   0  0  0  0  0  0  0  0  0  0  0  0
   38.1060   26.5180   37.2200 H   0  0  0  0  0  0  0  0  0  0  0  0
   38.0510   21.8880   34.6020 C   0  0  0  0  0  0  0  0  0  0  0  0
   39.1070   21.5720   34.4890 H   0  0  0  0  0  0  0  0  0  0  0  0
   37.4370   21.1550   35.1230 H   0  0  0  0  0  0  0  0  0  0  0  0
   37.4760   22.2540   33.2360 C   0  0  0  0  0  0  0  0  0  0  0  0
   36.9100   23.2080   33.3910 H   0  0  0  0  0  0  0  0  0  0  0  0
   38.3040   22.4390   32.5080 H   0  0  0  0  0  0  0  0  0  0  0  0
   36.5220   21.2320   32.7650 C   0  0  0  0  0  0  0  0  0  0  0  0
   35.4840   20.4470   33.2220 C   0  0  0  0  0  0  0  0  0  0  0  0
   35.2020   20.5470   34.2450 H   0  0  0  0  0  0  0  0  0  0  0  0
   35.0110   19.6710   32.1840 C   0  0  0  0  0  0  0  0  0  0  0  0
   34.1960   18.9680   32.2840 H   0  0  0  0  0  0  0  0  0  0  0  0
   35.8050   20.0340   31.1280 C   0  0  0  0  0  0  0  0  0  0  0  0
   35.6660   19.5770   30.1390 H   0  0  0  0  0  0  0  0  0  0  0  0
   36.6850   20.9520   31.4910 O   0  0  0  0  0  0  0  0  0  0  0  0
  1  4  1  1  0  0  0
  1 27  1  0  0  0  0
  2  3  1  0  0  0  0
  2  1  1  0  0  0  0
  3  7  1  6  0  0  0
  3  1  1  0  0  0  0
  5  2  1  0  0  0  0
  6  2  1  0  0  0  0
  8  3  1  0  0  0  0
  8  9  1  0  0  0  0
  9 18  1  0  0  0  0
 10  9  2  0  0  0  0
 10 19  1  0  0  0  0
 11 10  1  0  0  0  0
 12 17  1  0  0  0  0
 12 11  2  0  0  0  0
 13 12  1  0  0  0  0
 14 15  1  0  0  0  0
 14 13  2  0  0  0  0
 15 16  2  0  0  0  0
 16 24  1  0  0  0  0
 16 17  1  0  0  0  0
 17  8  2  0  0  0  0
 20 11  1  0  0  0  0
 21 13  1  0  0  0  0
 22 14  1  0  0  0  0
 23 15  1  0  0  0  0
 25 31  1  0  0  0  0
 26 32  1  0  0  0  0
 26 25  2  0  0  0  0
 27 26  1  0  0  0  0
 28 27  2  0  0  0  0
 28 29  1  0  0  0  0
 29 30  2  0  0  0  0
 30 25  1  0  0  0  0
 33 35  1  0  0  0  0
 33 29  1  0  0  0  0
 34 33  1  0  0  0  0
 36 37  1  0  0  0  0
 36 33  1  0  0  0  0
 38 36  1  0  0  0  0
 39 40  2  0  0  0  0
 39 36  1  0  0  0  0
 40 41  1  0  0  0  0
 42 43  1  0  0  0  0
 42 40  1  0  0  0  0
 44 46  1  0  0  0  0
 44 42  2  0  0  0  0
 45 44  1  0  0  0  0
 46 39  1  0  0  0  0
M  END
>  <minimizedAffinity>
-6.22768068

$$$$

 OpenBabel03272509363D

 46 50  0  0  1  0  0  0  0  0999 V2000
   38.3260   25.5700   35.7260 C   0  0  1  0  0  0  0  0  0  0  0  0
   37.7720   24.2520   36.1250 C   0  0  0  0  0  0  0  0  0  0  0  0
   38.8830   24.1750   35.2010 C   0  0  2  0  0  0  0  0  0  0  0  0
   39.1200   26.1080   36.2290 H   0  0  0  0  0  0  0  0  0  0  0  0
   36.7170   24.0550   35.7390 H   0  0  0  0  0  0  0  0  0  0  0  0
   37.7520   24.2020   37.2240 H   0  0  0  0  0  0  0  0  0  0  0  0
   38.8810   24.2110   34.1190 H   0  0  0  0  0  0  0  0  0  0  0  0
   40.1200   23.6570   35.8720 C   0  0  0  0  0  0  0  0  0  0  0  0
   39.7890   22.5940   36.7250 C   0  0  0  0  0  0  0  0  0  0  0  0
   40.7770   21.8840   37.3610 C   0  0  0  0  0  0  0  0  0  0  0  0
   42.1290   22.1980   37.1760 C   0  0  0  0  0  0  0  0  0  0  0  0
   42.4200   23.2540   36.3260 C   0  0  0  0  0  0  0  0  0  0  0  0
   43.6960   23.6690   36.0770 C   0  0  0  0  0  0  0  0  0  0  0  0
   44.0050   24.7280   35.2500 C   0  0  0  0  0  0  0  0  0  0  0  0
   42.9650   25.4080   34.6370 C   0  0  0  0  0  0  0  0  0  0  0  0
   41.6800   24.9920   34.8850 C   0  0  0  0  0  0  0  0  0  0  0  0
   41.4180   23.9250   35.7220 C   0  0  0  0  0  0  0  0  0  0  0  0
   38.8930   22.1080   37.0540 H   0  0  0  0  0  0  0  0  0  0  0  0
   40.7080   21.0480   38.0430 H   0  0  0  0  0  0  0  0  0  0  0  0
   43.0060   21.7250   37.6110 H   0  0  0  0  0  0  0  0  0  0  0  0
   44.5370   23.1640   36.5350 H   0  0  0  0  0  0  0  0  0  0  0  0
   45.0070   25.0780   35.0350 H   0  0  0  0  0  0  0  0  0  0  0  0
   43.1350   26.2480   33.9760 H   0  0  0  0  0  0  0  0  0  0  0  0
   40.8650   25.5470   34.3850 H   0  0  0  0  0  0  0  0  0  0  0  0
   36.4290   28.2600   33.8960 C   0  0  0  0  0  0  0  0  0  0  0  0
   37.1360   27.5690   34.9200 C   0  0  0  0  0  0  0  0  0  0  0  0
   37.6010   26.3100   34.6620 C   0  0  0  0  0  0  0  0  0  0  0  0
   37.3430   25.8110   33.4170 N   0  0  0  0  0  0  0  0  0  0  0  0
   36.6850   26.4480   32.4520 C   0  0  0  0  0  0  0  0  0  0  0  0
   36.2110   27.7000   32.6810 N   0  0  0  0  0  0  0  0  0  0  0  0
   36.0880   29.2370   34.1470 H   0  0  0  0  0  0  0  0  0  0  0  0
   37.3060   28.0090   35.8720 H   0  0  0  0  0  0  0  0  0  0  0  0
   36.5210   25.7710   31.1100 C   0  0  0  0  0  0  0  0  0  0  0  0
   36.1960   26.5700   30.4140 H   0  0  0  0  0  0  0  0  0  0  0  0
   37.4630   25.3070   30.8200 H   0  0  0  0  0  0  0  0  0  0  0  0
   35.4020   24.7480   31.2780 C   0  0  0  0  0  0  0  0  0  0  0  0
   34.9900   24.9150   32.3060 H   0  0  0  0  0  0  0  0  0  0  0  0
   34.5940   24.9360   30.5290 H   0  0  0  0  0  0  0  0  0  0  0  0
   35.9240   23.3680   31.2170 C   0  0  0  0  0  0  0  0  0  0  0  0
   35.5240   22.0660   31.4260 C   0  0  0  0  0  0  0  0  0  0  0  0
   34.5160   21.8990   31.7290 H   0  0  0  0  0  0  0  0  0  0  0  0
   36.5830   21.2200   31.1670 C   0  0  0  0  0  0  0  0  0  0  0  0
   36.5270   20.1440   31.2580 H   0  0  0  0  0  0  0  0  0  0  0  0
   37.5920   22.0740   30.8080 C   0  0  0  0  0  0  0  0  0  0  0  0
   38.5840   21.6870   30.5380 H   0  0  0  0  0  0  0  0  0  0  0  0
   37.1830   23.3310   30.8440 O   0  0  0  0  0  0  0  0  0  0  0  0
  1  2  1  0  0  0  0
  1  4  1  1  0  0  0
  2  6  1  0  0  0  0
  3  7  1  6  0  0  0
  3  1  1  0  0  0  0
  3  8  1  0  0  0  0
  3  2  1  0  0  0  0
  5  2  1  0  0  0  0
  8  9  1  0  0  0  0
  9 18  1  0  0  0  0
  9 10  2  0  0  0  0
 10 19  1  0  0  0  0
 11 10  1  0  0  0  0
 11 20  1  0  0  0  0
 12 11  2  0  0  0  0
 13 12  1  0  0  0  0
 13 21  1  0  0  0  0
 14 13  2  0  0  0  0
 15 16  2  0  0  0  0
 15 14  1  0  0  0  0
 16 17  1  0  0  0  0
 17  8  2  0  0  0  0
 17 12  1  0  0  0  0
 22 14  1  0  0  0  0
 23 15  1  0  0  0  0
 24 16  1  0  0  0  0
 25 31  1  0  0  0  0
 25 26  1  0  0  0  0
 26 32  1  0  0  0  0
 27 26  2  0  0  0  0
 27  1  1  0  0  0  0
 28 27  1  0  0  0  0
 29 30  1  0  0  0  0
 29 28  2  0  0  0  0
 30 25  2  0  0  0  0
 33 36  1  0  0  0  0
 33 29  1  0  0  0  0
 34 33  1  0  0  0  0
 35 33  1  0  0  0  0
 36 37  1  0  0  0  0
 38 36  1  0  0  0  0
 39 36  1  0  0  0  0
 39 40  2  0  0  0  0
 40 41  1  0  0  0  0
 42 43  1  0  0  0  0
 42 40  1  0  0  0  0
 44 46  1  0  0  0  0
 44 42  2  0  0  0  0
 45 44  1  0  0  0  0
 46 39  1  0  0  0  0
M  END
>  <minimizedAffinity>
-6.1871748

$$$$

 OpenBabel03272509363D

 46 50  0  0  1  0  0  0  0  0999 V2000
   40.9830   26.9640   34.0250 C   0  0  1  0  0  0  0  0  0  0  0  0
   40.9130   27.2420   32.5690 C   0  0  0  0  0  0  0  0  0  0  0  0
   39.8630   26.3750   33.0590 C   0  0  2  0  0  0  0  0  0  0  0  0
   40.5120   27.5450   34.8090 H   0  0  0  0  0  0  0  0  0  0  0  0
   41.7700   26.7870   31.9680 H   0  0  0  0  0  0  0  0  0  0  0  0
   40.9290   28.3320   32.4220 H   0  0  0  0  0  0  0  0  0  0  0  0
   39.8610   25.2990   33.1820 H   0  0  0  0  0  0  0  0  0  0  0  0
   38.5360   27.0740   33.0730 C   0  0  0  0  0  0  0  0  0  0  0  0
   37.9900   27.0340   34.3640 C   0  0  0  0  0  0  0  0  0  0  0  0
   36.8300   27.7110   34.6460 C   0  0  0  0  0  0  0  0  0  0  0  0
   36.1670   28.4530   33.6620 C   0  0  0  0  0  0  0  0  0  0  0  0
   36.7340   28.4720   32.3970 C   0  0  0  0  0  0  0  0  0  0  0  0
   36.1760   29.1440   31.3490 C   0  0  0  0  0  0  0  0  0  0  0  0
   36.7140   29.1590   30.0790 C   0  0  0  0  0  0  0  0  0  0  0  0
   37.8860   28.4550   29.8540 C   0  0  0  0  0  0  0  0  0  0  0  0
   38.4510   27.7780   30.9080 C   0  0  0  0  0  0  0  0  0  0  0  0
   37.8760   27.7910   32.1640 C   0  0  0  0  0  0  0  0  0  0  0  0
   38.2480   26.5920   35.3060 H   0  0  0  0  0  0  0  0  0  0  0  0
   36.2740   27.7910   35.5700 H   0  0  0  0  0  0  0  0  0  0  0  0
   35.2510   29.0330   33.7440 H   0  0  0  0  0  0  0  0  0  0  0  0
   35.2610   29.7070   31.4820 H   0  0  0  0  0  0  0  0  0  0  0  0
   36.2930   29.6830   29.2300 H   0  0  0  0  0  0  0  0  0  0  0  0
   38.3630   28.4230   28.8840 H   0  0  0  0  0  0  0  0  0  0  0  0
   39.3860   27.2240   30.7080 H   0  0  0  0  0  0  0  0  0  0  0  0
   44.1470   24.9780   34.4980 C   0  0  0  0  0  0  0  0  0  0  0  0
   43.2460   25.9980   34.0800 C   0  0  0  0  0  0  0  0  0  0  0  0
   41.9380   25.9170   34.4660 C   0  0  0  0  0  0  0  0  0  0  0  0
   41.5980   24.8410   35.2360 N   0  0  0  0  0  0  0  0  0  0  0  0
   42.4310   23.8820   35.6330 C   0  0  0  0  0  0  0  0  0  0  0  0
   43.7370   23.9380   35.2640 N   0  0  0  0  0  0  0  0  0  0  0  0
   45.1540   25.0880   34.1700 H   0  0  0  0  0  0  0  0  0  0  0  0
   43.5690   26.8130   33.4800 H   0  0  0  0  0  0  0  0  0  0  0  0
   41.9040   22.7790   36.5220 C   0  0  0  0  0  0  0  0  0  0  0  0
   42.6030   21.9300   36.3850 H   0  0  0  0  0  0  0  0  0  0  0  0
   41.8570   23.1330   37.5510 H   0  0  0  0  0  0  0  0  0  0  0  0
   40.5290   22.4070   35.9770 C   0  0  0  0  0  0  0  0  0  0  0  0
   40.4970   22.8100   34.9330 H   0  0  0  0  0  0  0  0  0  0  0  0
   40.4180   21.2950   35.9400 H   0  0  0  0  0  0  0  0  0  0  0  0
   39.4520   23.0600   36.7470 C   0  0  0  0  0  0  0  0  0  0  0  0
   38.3090   23.8090   36.5620 C   0  0  0  0  0  0  0  0  0  0  0  0
   38.0240   24.0380   35.5610 H   0  0  0  0  0  0  0  0  0  0  0  0
   37.7530   24.0990   37.7910 C   0  0  0  0  0  0  0  0  0  0  0  0
   36.8480   24.6760   37.9180 H   0  0  0  0  0  0  0  0  0  0  0  0
   38.6080   23.4990   38.6760 C   0  0  0  0  0  0  0  0  0  0  0  0
   38.4260   23.5560   39.7590 H   0  0  0  0  0  0  0  0  0  0  0  0
   39.5990   22.8940   38.0430 O   0  0  0  0  0  0  0  0  0  0  0  0
  1 27  1  0  0  0  0
  1  4  1  1  0  0  0
  2  3  1  0  0  0  0
  2  1  1  0  0  0  0
  3  8  1  0  0  0  0
  3  7  1  6  0  0  0
  3  1  1  0  0  0  0
  5  2  1  0  0  0  0
  6  2  1  0  0  0  0
  8  9  1  0  0  0  0
  9 10  2  0  0  0  0
  9 18  1  0  0  0  0
 10 19  1  0  0  0  0
 11 20  1  0  0  0  0
 11 10  1  0  0  0  0
 12 11  2  0  0  0  0
 13 21  1  0  0  0  0
 13 12  1  0  0  0  0
 14 13  2  0  0  0  0
 15 14  1  0  0  0  0
 15 16  2  0  0  0  0
 16 17  1  0  0  0  0
 17 12  1  0  0  0  0
 17  8  2  0  0  0  0
 22 14  1  0  0  0  0
 23 15  1  0  0  0  0
 24 16  1  0  0  0  0
 25 30  1  0  0  0  0
 26 27  1  0  0  0  0
 26 25  2  0  0  0  0
 27 28  2  0  0  0  0
 28 29  1  0  0  0  0
 29 33  1  0  0  0  0
 30 29  2  0  0  0  0
 31 25  1  0  0  0  0
 32 26  1  0  0  0  0
 33 35  1  0  0  0  0
 34 33  1  0  0  0  0
 36 33  1  0  0  0  0
 36 39  1  0  0  0  0
 37 36  1  0  0  0  0
 38 36  1  0  0  0  0
 39 46  1  0  0  0  0
 40 39  2  0  0  0  0
 40 42  1  0  0  0  0
 41 40  1  0  0  0  0
 42 43  1  0  0  0  0
 42 44  2  0  0  0  0
 44 45  1  0  0  0  0
 46 44  1  0  0  0  0
M  END
>  <minimizedAffinity>
-6.16441965

$$$$
