
 OpenBabel03272507553D

 22 23  0  0  0  0  0  0  0  0999 V2000
   34.9070   29.4630   50.0660 C   0  0  0  0  0  0  0  0  0  0  0  0
   36.0680   30.1730   49.6560 C   0  0  0  0  0  0  0  0  0  0  0  0
   36.2100   30.4630   48.3080 C   0  0  0  0  0  0  0  0  0  0  0  0
   35.2310   30.0540   47.4500 N   0  0  0  0  0  0  0  0  0  0  0  0
   34.1410   29.3810   47.8680 C   0  0  0  0  0  0  0  0  0  0  0  0
   33.9760   29.0840   49.1800 N   0  0  0  0  0  0  0  0  0  0  0  0
   33.2670   29.0630   46.7910 N   0  0  0  0  0  0  0  0  0  0  0  0
   34.7970   29.2410   51.0980 H   0  0  0  0  0  0  0  0  0  0  0  0
   32.9610   29.7970   46.1300 H   0  0  0  0  0  0  0  0  0  0  0  0
   33.0150   28.0480   46.7940 H   0  0  0  0  0  0  0  0  0  0  0  0
   37.3780   31.1650   47.8070 C   0  0  0  0  0  0  0  0  0  0  0  0
   38.3030   30.5960   46.9580 C   0  0  0  0  0  0  0  0  0  0  0  0
   38.2660   29.5720   46.5690 H   0  0  0  0  0  0  0  0  0  0  0  0
   39.3140   31.4730   46.6330 C   0  0  0  0  0  0  0  0  0  0  0  0
   40.1850   31.3630   46.0050 H   0  0  0  0  0  0  0  0  0  0  0  0
   38.9470   32.6020   47.3350 C   0  0  0  0  0  0  0  0  0  0  0  0
   39.4390   33.5690   47.3950 H   0  0  0  0  0  0  0  0  0  0  0  0
   37.8560   32.3630   47.9710 O   0  0  0  0  0  0  0  0  0  0  0  0
   37.0760   30.5710   50.6830 C   0  0  0  0  0  0  0  0  0  0  0  0
   38.3440   30.1870   50.2990 F   0  0  0  0  0  0  0  0  0  0  0  0
   37.0280   31.9250   50.8330 F   0  0  0  0  0  0  0  0  0  0  0  0
   36.8220   29.9910   51.9140 F   0  0  0  0  0  0  0  0  0  0  0  0
  1  8  1  0  0  0  0
  2  1  1  0  0  0  0
  2 19  1  0  0  0  0
  3  2  2  0  0  0  0
  4  5  2  0  0  0  0
  4  3  1  0  0  0  0
  5  6  1  0  0  0  0
  6  1  2  0  0  0  0
  7 10  1  0  0  0  0
  7  5  1  0  0  0  0
  9  7  1  0  0  0  0
 11 18  1  0  0  0  0
 11  3  1  0  0  0  0
 12 11  2  0  0  0  0
 13 12  1  0  0  0  0
 14 12  1  0  0  0  0
 14 16  2  0  0  0  0
 15 14  1  0  0  0  0
 16 17  1  0  0  0  0
 16 18  1  0  0  0  0
 19 21  1  0  0  0  0
 19 22  1  0  0  0  0
 20 19  1  0  0  0  0
M  END
>  <minimizedAffinity>
-5.49553728

>  <minimizedRMSD>
0.997379839

$$$$
