
     RDKit          3D

 37 39  0  0  0  0  0  0  0  0999 V2000
   36.0765   30.6882   49.0657 C   0  0  2  0  0  0  0  0  0  0  0  0
   37.0141   31.6432   49.7411 C   0  0  0  0  0  0  0  0  0  0  0  0
   38.0445   30.9471   50.6035 C   0  0  0  0  0  0  0  0  0  0  0  0
   37.3581   30.0692   51.6489 C   0  0  0  0  0  0  0  0  0  0  0  0
   36.1215   29.3744   51.1475 C   0  0  0  0  0  0  0  0  0  0  0  0
   36.1933   29.3026   49.6111 C   0  0  1  0  0  0  0  0  0  0  0  0
   36.3190   30.6461   47.5993 C   0  0  0  0  0  0  0  0  0  0  0  0
   37.5770   31.1117   47.1801 C   0  0  0  0  0  0  0  0  0  0  0  0
   37.8306   31.0813   45.8039 C   0  0  0  0  0  0  0  0  0  0  0  0
   36.8507   30.6050   44.9601 N   0  0  0  0  0  0  0  0  0  0  0  0
   35.6426   30.1627   45.4219 C   0  0  0  0  0  0  0  0  0  0  0  0
   35.3949   30.1912   46.7473 N   0  0  0  0  0  0  0  0  0  0  0  0
   33.9353   28.1967   49.2423 C   0  0  0  0  0  0  0  0  0  0  0  0
   33.1200   28.8696   49.9397 O   0  0  0  0  0  0  0  0  0  0  0  0
   35.3299   28.3480   49.0157 N   0  0  0  0  0  0  0  0  0  0  0  0
   34.9866   30.9735   49.1805 H   0  0  0  0  0  0  0  0  0  0  0  0
   36.3601   32.1898   50.5017 H   0  0  0  0  0  0  0  0  0  0  0  0
   37.4447   32.4237   49.1439 H   0  0  0  0  0  0  0  0  0  0  0  0
   38.5959   31.7331   51.1334 H   0  0  0  0  0  0  0  0  0  0  0  0
   38.7373   30.3026   50.0526 H   0  0  0  0  0  0  0  0  0  0  0  0
   37.0822   30.7079   52.5074 H   0  0  0  0  0  0  0  0  0  0  0  0
   38.0753   29.2759   51.9941 H   0  0  0  0  0  0  0  0  0  0  0  0
   35.2156   29.9524   51.3589 H   0  0  0  0  0  0  0  0  0  0  0  0
   36.0497   28.3365   51.5436 H   0  0  0  0  0  0  0  0  0  0  0  0
   37.1792   28.9239   49.4861 H   0  0  0  0  0  0  0  0  0  0  0  0
   38.4183   31.4937   47.7262 H   0  0  0  0  0  0  0  0  0  0  0  0
   38.7480   31.4062   45.3367 H   0  0  0  0  0  0  0  0  0  0  0  0
   34.9557   29.8126   44.6684 H   0  0  0  0  0  0  0  0  0  0  0  0
   35.7148   27.6409   48.3094 H   0  0  0  0  0  0  0  0  0  0  0  0
   33.2011   27.0797   48.5918 C   0  0  0  0  0  0  0  0  0  0  0  0
   32.8169   26.9632   47.2760 C   0  0  0  0  0  0  0  0  0  0  0  0
   32.9740   27.6521   46.4781 H   0  0  0  0  0  0  0  0  0  0  0  0
   32.1454   25.7450   47.0913 C   0  0  0  0  0  0  0  0  0  0  0  0
   31.7278   25.3825   46.1529 H   0  0  0  0  0  0  0  0  0  0  0  0
   32.1655   25.1798   48.3504 C   0  0  0  0  0  0  0  0  0  0  0  0
   31.7179   24.2120   48.5520 H   0  0  0  0  0  0  0  0  0  0  0  0
   32.7760   25.9784   49.1622 O   0  0  0  0  0  0  0  0  0  0  0  0
  1  6  1  0
  1  2  1  0
  2  3  1  0
  3  4  1  0
  5  4  1  0
  6  5  1  0
  7  1  1  0
  8  7  2  0
  9  8  1  0
 10 11  1  0
 10  9  2  0
 11 12  2  0
 12  7  1  0
 13 14  2  0
 15 13  1  0
 15  6  1  0
  1 16  1  6
  2 17  1  0
  2 18  1  0
  3 19  1  0
  3 20  1  0
  4 21  1  0
  4 22  1  0
  5 23  1  0
  5 24  1  0
  6 25  1  1
  8 26  1  0
  9 27  1  0
 11 28  1  0
 15 29  1  0
 30 31  2  0
 31 32  1  0
 31 33  1  0
 33 34  1  0
 33 35  2  0
 35 36  1  0
 35 37  1  0
 37 30  1  0
 13 30  1  0
M  ISO  8  16  13  17  13  18  13  19  13  20  13  21  13  22  13  23  13
M  ISO  8  24  13  25  13  26  14  27  14  28  14  32  16  34  16  36  14
M  END
>  <DihAtoms>  (1) 
13,12,29,30

>  <DihDeg>  (1) 
-0.012789677096070944

$$$$
