
 OpenBabel03272506433D

 31 33  0  0  1  0  0  0  0  0999 V2000
   32.3930   28.3500   47.5020 C   0  0  2  0  0  0  0  0  0  0  0  0
   33.6270   28.4240   48.3650 C   0  0  1  0  0  0  0  0  0  0  0  0
   34.1900   27.1670   48.3880 O   0  0  0  0  0  0  0  0  0  0  0  0
   33.5570   26.3710   47.4460 C   0  0  0  0  0  0  0  0  0  0  0  0
   32.8490   27.3220   46.4820 C   0  0  1  0  0  0  0  0  0  0  0  0
   31.4870   28.0500   48.0540 H   0  0  0  0  0  0  0  0  0  0  0  0
   33.3970   28.8140   49.3770 H   0  0  0  0  0  0  0  0  0  0  0  0
   34.2810   25.7720   46.8720 H   0  0  0  0  0  0  0  0  0  0  0  0
   32.7800   25.7870   47.9620 H   0  0  0  0  0  0  0  0  0  0  0  0
   33.5380   27.8220   45.8000 H   0  0  0  0  0  0  0  0  0  0  0  0
   32.1400   29.5920   46.9000 O   0  0  0  0  0  0  0  0  0  0  0  0
   31.4060   29.5320   46.2680 H   0  0  0  0  0  0  0  0  0  0  0  0
   34.8060   29.5390   47.5240 S   0  0  0  0  0  0  0  0  0  0  0  0
   37.3820   29.4830   50.5400 C   0  0  0  0  0  0  0  0  0  0  0  0
   37.9900   30.7310   50.5120 C   0  0  0  0  0  0  0  0  0  0  0  0
   37.5990   31.6380   49.5270 C   0  0  0  0  0  0  0  0  0  0  0  0
   36.6350   31.2620   48.6310 N   0  0  0  0  0  0  0  0  0  0  0  0
   36.0690   30.0300   48.6980 C   0  0  0  0  0  0  0  0  0  0  0  0
   36.4310   29.1360   49.6420 N   0  0  0  0  0  0  0  0  0  0  0  0
   37.7260   28.8300   51.3200 H   0  0  0  0  0  0  0  0  0  0  0  0
   38.7530   31.0420   51.2130 H   0  0  0  0  0  0  0  0  0  0  0  0
   38.0070   32.6250   49.4210 H   0  0  0  0  0  0  0  0  0  0  0  0
   31.8010   26.6700   45.8630 O   0  0  0  0  0  0  0  0  0  0  0  0
   31.1630   27.0620   44.7050 C   0  0  0  0  0  0  0  0  0  0  0  0
   29.7800   26.8740   44.7000 C   0  0  0  0  0  0  0  0  0  0  0  0
   29.0590   26.4790   45.4190 H   0  0  0  0  0  0  0  0  0  0  0  0
   29.3120   27.3220   43.4610 C   0  0  0  0  0  0  0  0  0  0  0  0
   28.3270   27.3730   43.0110 H   0  0  0  0  0  0  0  0  0  0  0  0
   30.4730   27.7460   42.8170 C   0  0  0  0  0  0  0  0  0  0  0  0
   30.4910   28.1660   41.8040 H   0  0  0  0  0  0  0  0  0  0  0  0
   31.5290   27.5760   43.5770 O   0  0  0  0  0  0  0  0  0  0  0  0
  1  6  1  1  0  0  0
  1  2  1  0  0  0  0
  2  3  1  0  0  0  0
  2  7  1  1  0  0  0
  4  9  1  0  0  0  0
  4  3  1  0  0  0  0
  5 10  1  6  0  0  0
  5  4  1  0  0  0  0
  5  1  1  0  0  0  0
  8  4  1  0  0  0  0
 11  1  1  0  0  0  0
 12 11  1  0  0  0  0
 13  2  1  0  0  0  0
 13 18  1  0  0  0  0
 14 20  1  0  0  0  0
 15 14  1  0  0  0  0
 15 21  1  0  0  0  0
 16 15  2  0  0  0  0
 17 18  2  0  0  0  0
 17 16  1  0  0  0  0
 18 19  1  0  0  0  0
 19 14  2  0  0  0  0
 22 16  1  0  0  0  0
 23  5  1  0  0  0  0
 24 23  1  0  0  0  0
 25 24  2  0  0  0  0
 25 26  1  0  0  0  0
 27 25  1  0  0  0  0
 28 27  1  0  0  0  0
 29 27  2  0  0  0  0
 29 31  1  0  0  0  0
 30 29  1  0  0  0  0
 31 24  1  0  0  0  0
M  END
>  <minimizedAffinity>
-3.757406

>  <minimizedRMSD>
0.616664827

$$$$
