
 OpenBabel03272507553D

 22 23  0  0  0  0  0  0  0  0999 V2000
   34.9380   29.4170   50.3230 C   0  0  0  0  0  0  0  0  0  0  0  0
   36.0950   30.1150   49.8800 C   0  0  0  0  0  0  0  0  0  0  0  0
   36.1490   30.5060   48.5510 C   0  0  0  0  0  0  0  0  0  0  0  0
   35.0940   30.2000   47.7420 N   0  0  0  0  0  0  0  0  0  0  0  0
   34.0100   29.5370   48.1890 C   0  0  0  0  0  0  0  0  0  0  0  0
   33.9300   29.1430   49.4840 N   0  0  0  0  0  0  0  0  0  0  0  0
   33.0470   29.3370   47.1610 N   0  0  0  0  0  0  0  0  0  0  0  0
   34.8940   29.1180   51.3390 H   0  0  0  0  0  0  0  0  0  0  0  0
   32.7240   30.1310   46.5840 H   0  0  0  0  0  0  0  0  0  0  0  0
   32.7540   28.3340   47.1060 H   0  0  0  0  0  0  0  0  0  0  0  0
   37.3060   31.2030   48.0180 C   0  0  0  0  0  0  0  0  0  0  0  0
   38.1860   30.6380   47.1180 C   0  0  0  0  0  0  0  0  0  0  0  0
   38.1170   29.6230   46.7100 H   0  0  0  0  0  0  0  0  0  0  0  0
   39.1960   31.5090   46.7710 C   0  0  0  0  0  0  0  0  0  0  0  0
   40.0390   31.4000   46.1040 H   0  0  0  0  0  0  0  0  0  0  0  0
   38.8760   32.6260   47.5110 C   0  0  0  0  0  0  0  0  0  0  0  0
   39.3840   33.5840   47.5710 H   0  0  0  0  0  0  0  0  0  0  0  0
   37.8080   32.3890   48.1870 O   0  0  0  0  0  0  0  0  0  0  0  0
   37.1910   30.3940   50.8540 C   0  0  0  0  0  0  0  0  0  0  0  0
   38.3940   29.9040   50.3910 F   0  0  0  0  0  0  0  0  0  0  0  0
   37.2780   31.7430   51.0320 F   0  0  0  0  0  0  0  0  0  0  0  0
   36.9520   29.8110   52.0870 F   0  0  0  0  0  0  0  0  0  0  0  0
  1  8  1  0  0  0  0
  2  1  1  0  0  0  0
  2 19  1  0  0  0  0
  3  2  2  0  0  0  0
  4  5  2  0  0  0  0
  4  3  1  0  0  0  0
  5  6  1  0  0  0  0
  6  1  2  0  0  0  0
  7  5  1  0  0  0  0
  9  7  1  0  0  0  0
 10  7  1  0  0  0  0
 11 18  1  0  0  0  0
 11  3  1  0  0  0  0
 12 11  2  0  0  0  0
 13 12  1  0  0  0  0
 14 12  1  0  0  0  0
 14 16  2  0  0  0  0
 15 14  1  0  0  0  0
 16 17  1  0  0  0  0
 16 18  1  0  0  0  0
 19 21  1  0  0  0  0
 19 22  1  0  0  0  0
 20 19  1  0  0  0  0
M  END
>  <minimizedAffinity>
-5.5355649

>  <minimizedRMSD>
1.25692832

$$$$
