
 OpenBabel03272508423D

 19 20  0  0  0  0  0  0  0  0999 V2000
   35.1920   30.4350   48.9830 C   0  0  0  0  0  0  0  0  0  0  0  0
   34.3350   30.1870   49.8620 O   0  0  0  0  0  0  0  0  0  0  0  0
   33.3170   30.0890   45.8850 C   0  0  0  0  0  0  0  0  0  0  0  0
   34.3170   30.0070   44.9110 C   0  0  0  0  0  0  0  0  0  0  0  0
   35.6490   30.0690   45.3070 C   0  0  0  0  0  0  0  0  0  0  0  0
   35.8960   30.2080   46.6310 N   0  0  0  0  0  0  0  0  0  0  0  0
   34.9160   30.2860   47.5580 C   0  0  0  0  0  0  0  0  0  0  0  0
   33.6250   30.2260   47.1820 N   0  0  0  0  0  0  0  0  0  0  0  0
   32.2620   30.0420   45.5890 H   0  0  0  0  0  0  0  0  0  0  0  0
   34.0750   29.8950   43.8570 H   0  0  0  0  0  0  0  0  0  0  0  0
   36.4750   30.0110   44.6130 H   0  0  0  0  0  0  0  0  0  0  0  0
   36.5160   30.8910   49.4280 C   0  0  0  0  0  0  0  0  0  0  0  0
   37.3080   30.2100   50.3330 C   0  0  0  0  0  0  0  0  0  0  0  0
   37.0750   29.2800   50.8240 H   0  0  0  0  0  0  0  0  0  0  0  0
   38.4400   31.0260   50.4280 C   0  0  0  0  0  0  0  0  0  0  0  0
   39.2870   30.7990   51.0610 H   0  0  0  0  0  0  0  0  0  0  0  0
   38.2830   32.1240   49.6050 C   0  0  0  0  0  0  0  0  0  0  0  0
   38.9780   32.9490   49.4460 H   0  0  0  0  0  0  0  0  0  0  0  0
   37.1170   32.0080   49.0210 O   0  0  0  0  0  0  0  0  0  0  0  0
  1 12  1  0  0  0  0
  1  2  2  0  0  0  0
  3  8  1  0  0  0  0
  4  5  1  0  0  0  0
  4  3  2  0  0  0  0
  5  6  2  0  0  0  0
  6  7  1  0  0  0  0
  7  1  1  0  0  0  0
  8  7  2  0  0  0  0
  9  3  1  0  0  0  0
 10  4  1  0  0  0  0
 11  5  1  0  0  0  0
 12 13  2  0  0  0  0
 13 15  1  0  0  0  0
 13 14  1  0  0  0  0
 15 16  1  0  0  0  0
 17 15  2  0  0  0  0
 18 17  1  0  0  0  0
 19 12  1  0  0  0  0
 19 17  1  0  0  0  0
M  END
>  <minimizedAffinity>
-3.90658879

>  <minimizedRMSD>
5.21082449

$$$$
