
 OpenBabel03272505243D

 27 29  0  0  0  0  0  0  0  0999 V2000
   36.4610   29.2230   50.8900 C   0  0  0  0  0  0  0  0  0  0  0  0
   36.7710   29.5160   49.5430 C   0  0  0  0  0  0  0  0  0  0  0  0
   35.7700   29.8710   48.6610 C   0  0  0  0  0  0  0  0  0  0  0  0
   34.5120   29.9180   49.1510 N   0  0  0  0  0  0  0  0  0  0  0  0
   34.1920   29.6430   50.4290 C   0  0  0  0  0  0  0  0  0  0  0  0
   35.1690   29.2950   51.2990 N   0  0  0  0  0  0  0  0  0  0  0  0
   36.0330   30.1720   47.3080 N   0  0  0  0  0  0  0  0  0  0  0  0
   35.1390   29.8920   46.3380 C   0  0  0  0  0  0  0  0  0  0  0  0
   35.4140   30.1830   45.0010 C   0  0  0  0  0  0  0  0  0  0  0  0
   36.6510   30.7770   44.6960 C   0  0  0  0  0  0  0  0  0  0  0  0
   36.9520   31.0570   43.5300 O   0  0  0  0  0  0  0  0  0  0  0  0
   37.5390   31.0520   45.6920 N   0  0  0  0  0  0  0  0  0  0  0  0
   37.1820   30.7340   46.9480 C   0  0  0  0  0  0  0  0  0  0  0  0
   38.0330   31.0070   47.8440 O   0  0  0  0  0  0  0  0  0  0  0  0
   37.1770   28.9440   51.6250 H   0  0  0  0  0  0  0  0  0  0  0  0
   37.8080   29.4090   49.3540 H   0  0  0  0  0  0  0  0  0  0  0  0
   33.1400   29.7280   50.6520 H   0  0  0  0  0  0  0  0  0  0  0  0
   34.2120   29.4360   46.6550 H   0  0  0  0  0  0  0  0  0  0  0  0
   34.6890   29.9550   44.2350 H   0  0  0  0  0  0  0  0  0  0  0  0
   38.7830   31.6530   45.3520 C   0  0  0  0  0  0  0  0  0  0  0  0
   39.1710   32.9680   45.1840 C   0  0  0  0  0  0  0  0  0  0  0  0
   38.4870   33.7880   45.3060 H   0  0  0  0  0  0  0  0  0  0  0  0
   40.5150   33.0190   44.8500 C   0  0  0  0  0  0  0  0  0  0  0  0
   41.1130   33.8930   44.6550 H   0  0  0  0  0  0  0  0  0  0  0  0
   40.8850   31.6740   44.8350 C   0  0  0  0  0  0  0  0  0  0  0  0
   41.9120   31.3850   44.5990 H   0  0  0  0  0  0  0  0  0  0  0  0
   39.8620   30.9290   45.1280 O   0  0  0  0  0  0  0  0  0  0  0  0
  1  6  1  0  0  0  0
  1 15  1  0  0  0  0
  2  1  2  0  0  0  0
  3  4  2  0  0  0  0
  3  2  1  0  0  0  0
  4  5  1  0  0  0  0
  5 17  1  0  0  0  0
  5  6  2  0  0  0  0
  7  3  1  0  0  0  0
  8 18  1  0  0  0  0
  8  7  1  0  0  0  0
  9  8  2  0  0  0  0
 10  9  1  0  0  0  0
 10 12  1  0  0  0  0
 11 10  2  0  0  0  0
 12 13  1  0  0  0  0
 13  7  1  0  0  0  0
 13 14  2  0  0  0  0
 16  2  1  0  0  0  0
 19  9  1  0  0  0  0
 20 12  1  0  0  0  0
 21 22  1  0  0  0  0
 21 20  2  0  0  0  0
 23 21  1  0  0  0  0
 24 23  1  0  0  0  0
 25 23  2  0  0  0  0
 25 27  1  0  0  0  0
 26 25  1  0  0  0  0
 27 20  1  0  0  0  0
M  END
>  <minimizedAffinity>
-5.42848587

>  <minimizedRMSD>
3.51863408

$$$$
