
 OpenBabel03272504413D

 44 46  0  0  0  0  0  0  0  0999 V2000
   34.7800   29.4010   48.8230 C   0  0  0  0  0  0  0  0  0  0  0  0
   34.1140   30.2190   49.2310 H   0  0  0  0  0  0  0  0  0  0  0  0
   35.6750   29.4470   49.4760 H   0  0  0  0  0  0  0  0  0  0  0  0
   37.5530   30.4390   48.5150 Cl  0  0  0  0  0  0  0  0  0  0  0  0
   36.3980   30.2910   47.1790 C   0  0  0  0  0  0  0  0  0  0  0  0
   36.7790   30.6650   45.9410 C   0  0  0  0  0  0  0  0  0  0  0  0
   35.8940   30.5550   44.8940 C   0  0  0  0  0  0  0  0  0  0  0  0
   34.6250   30.0590   45.1510 C   0  0  0  0  0  0  0  0  0  0  0  0
   34.2970   29.6900   46.4600 C   0  0  0  0  0  0  0  0  0  0  0  0
   35.1570   29.7930   47.4940 C   0  0  0  0  0  0  0  0  0  0  0  0
   36.2280   30.8650   43.8970 H   0  0  0  0  0  0  0  0  0  0  0  0
   34.0080   30.0110   44.2630 H   0  0  0  0  0  0  0  0  0  0  0  0
   33.2930   29.3500   46.4210 H   0  0  0  0  0  0  0  0  0  0  0  0
   39.7620   32.8350   45.9970 C   0  0  0  0  0  0  0  0  0  0  0  0
   40.6340   32.1050   45.1170 C   0  0  0  0  0  0  0  0  0  0  0  0
   40.1580   30.9160   44.5570 C   0  0  0  0  0  0  0  0  0  0  0  0
   38.9030   30.4910   44.8540 N   0  0  0  0  0  0  0  0  0  0  0  0
   38.1060   31.2010   45.6860 C   0  0  0  0  0  0  0  0  0  0  0  0
   38.5410   32.3470   46.2370 N   0  0  0  0  0  0  0  0  0  0  0  0
   40.1380   33.7400   46.4170 H   0  0  0  0  0  0  0  0  0  0  0  0
   41.6060   32.4820   44.9190 H   0  0  0  0  0  0  0  0  0  0  0  0
   41.0340   30.2260   43.6960 N   0  0  0  0  0  0  0  0  0  0  0  0
   41.6780   30.7520   43.0590 H   0  0  0  0  0  0  0  0  0  0  0  0
   41.1140   29.2000   43.6220 H   0  0  0  0  0  0  0  0  0  0  0  0
   34.1190   28.1080   49.0430 C   0  0  0  0  0  0  0  0  0  0  0  0
   34.5750   27.5090   49.8550 H   0  0  0  0  0  0  0  0  0  0  0  0
   34.2200   27.4860   48.1140 H   0  0  0  0  0  0  0  0  0  0  0  0
   32.7920   28.2590   49.3440 O   0  0  0  0  0  0  0  0  0  0  0  0
   32.6380   26.5600   47.3490 O   0  0  0  0  0  0  0  0  0  0  0  0
   31.8310   27.4390   48.2550 P   0  0  2  0  0  0  0  0  0  0  0  0
   31.0040   28.6350   47.3260 O   0  0  0  0  0  0  0  0  0  0  0  0
   30.4910   28.3440   46.0830 C   0  0  0  0  0  0  0  0  0  0  0  0
   29.3290   27.6760   45.7480 C   0  0  0  0  0  0  0  0  0  0  0  0
   28.6140   27.2610   46.4200 H   0  0  0  0  0  0  0  0  0  0  0  0
   29.2810   27.6540   44.3670 C   0  0  0  0  0  0  0  0  0  0  0  0
   28.5000   27.2050   43.7630 H   0  0  0  0  0  0  0  0  0  0  0  0
   30.4060   28.3040   43.9330 C   0  0  0  0  0  0  0  0  0  0  0  0
   30.7110   28.4850   42.9000 H   0  0  0  0  0  0  0  0  0  0  0  0
   31.0950   28.6970   44.9780 O   0  0  0  0  0  0  0  0  0  0  0  0
   30.6450   26.5320   48.9850 O   0  0  0  0  0  0  0  0  0  0  0  0
   29.8280   27.3310   49.7660 C   0  0  0  0  0  0  0  0  0  0  0  0
   29.3120   26.6540   50.8720 F   0  0  0  0  0  0  0  0  0  0  0  0
   30.5180   28.4070   50.2800 F   0  0  0  0  0  0  0  0  0  0  0  0
   28.7550   27.7860   49.0060 F   0  0  0  0  0  0  0  0  0  0  0  0
  1 25  1  0  0  0  0
  1  2  1  0  0  0  0
  1  3  1  0  0  0  0
  5 10  1  0  0  0  0
  5  4  1  0  0  0  0
  6  5  2  0  0  0  0
  7  8  2  0  0  0  0
  7  6  1  0  0  0  0
  8  9  1  0  0  0  0
  9 10  2  0  0  0  0
 10  1  1  0  0  0  0
 11  7  1  0  0  0  0
 12  8  1  0  0  0  0
 13  9  1  0  0  0  0
 14 19  1  0  0  0  0
 14 20  1  0  0  0  0
 15 14  2  0  0  0  0
 16 17  2  0  0  0  0
 16 15  1  0  0  0  0
 17 18  1  0  0  0  0
 18  6  1  0  0  0  0
 18 19  2  0  0  0  0
 21 15  1  0  0  0  0
 22 16  1  0  0  0  0
 23 22  1  0  0  0  0
 24 22  1  0  0  0  0
 25 28  1  0  0  0  0
 25 26  1  0  0  0  0
 27 25  1  0  0  0  0
 30 29  2  6  0  0  0
 30 40  1  0  0  0  0
 30 28  1  0  0  0  0
 31 30  1  0  0  0  0
 32 31  1  0  0  0  0
 33 32  2  0  0  0  0
 33 34  1  0  0  0  0
 35 33  1  0  0  0  0
 36 35  1  0  0  0  0
 37 35  2  0  0  0  0
 37 39  1  0  0  0  0
 38 37  1  0  0  0  0
 39 32  1  0  0  0  0
 40 41  1  0  0  0  0
 41 43  1  0  0  0  0
 41 42  1  0  0  0  0
 44 41  1  0  0  0  0
M  END
>  <minimizedAffinity>
-5.62648773

>  <minimizedRMSD>
0.401581913

$$$$
