
     RDKit          3D

 37 39  0  0  0  0  0  0  0  0999 V2000
   38.1356   30.5653   47.3254 C   0  0  1  0  0  0  0  0  0  0  0  0
   37.5061   30.7420   46.0247 C   0  0  0  0  0  0  0  0  0  0  0  0
   38.5429   30.5781   44.9580 C   0  0  0  0  0  0  0  0  0  0  0  0
   39.8157   31.2448   45.3369 C   0  0  0  0  0  0  0  0  0  0  0  0
   39.7037   32.2794   46.3854 C   0  0  0  0  0  0  0  0  0  0  0  0
   38.9413   31.8211   47.6303 C   0  0  1  0  0  0  0  0  0  0  0  0
   36.9357   29.6304   50.7140 C   0  0  0  0  0  0  0  0  0  0  0  0
   37.8262   29.8375   49.6195 C   0  0  0  0  0  0  0  0  0  0  0  0
   37.2376   30.3651   48.4771 C   0  0  0  0  0  0  0  0  0  0  0  0
   35.8814   30.6572   48.4384 N   0  0  0  0  0  0  0  0  0  0  0  0
   35.0886   30.4433   49.4953 C   0  0  0  0  0  0  0  0  0  0  0  0
   35.6052   29.9274   50.6462 N   0  0  0  0  0  0  0  0  0  0  0  0
   38.2578   33.8114   49.2490 C   0  0  0  0  0  0  0  0  0  0  0  0
   39.3496   33.6260   49.8574 O   0  0  0  0  0  0  0  0  0  0  0  0
   38.1555   32.9090   48.1465 N   0  0  0  0  0  0  0  0  0  0  0  0
   38.8800   29.7284   47.3031 H   0  0  0  0  0  0  0  0  0  0  0  0
   36.7037   29.9804   45.8369 H   0  0  0  0  0  0  0  0  0  0  0  0
   36.9829   31.7173   45.9196 H   0  0  0  0  0  0  0  0  0  0  0  0
   38.1306   31.0987   44.0473 H   0  0  0  0  0  0  0  0  0  0  0  0
   38.6364   29.5056   44.6765 H   0  0  0  0  0  0  0  0  0  0  0  0
   40.5250   30.4617   45.6937 H   0  0  0  0  0  0  0  0  0  0  0  0
   40.2594   31.7242   44.4443 H   0  0  0  0  0  0  0  0  0  0  0  0
   39.2388   33.2345   46.0133 H   0  0  0  0  0  0  0  0  0  0  0  0
   40.7161   32.5812   46.7212 H   0  0  0  0  0  0  0  0  0  0  0  0
   39.6828   31.5405   48.4213 H   0  0  0  0  0  0  0  0  0  0  0  0
   37.3027   29.2276   51.6340 H   0  0  0  0  0  0  0  0  0  0  0  0
   38.8578   29.5960   49.7034 H   0  0  0  0  0  0  0  0  0  0  0  0
   34.0677   30.7085   49.3385 H   0  0  0  0  0  0  0  0  0  0  0  0
   37.3212   32.9816   47.4818 H   0  0  0  0  0  0  0  0  0  0  0  0
   37.1726   34.7366   49.4864 C   0  0  0  0  0  0  0  0  0  0  0  0
   36.2484   35.3658   48.6546 C   0  0  0  0  0  0  0  0  0  0  0  0
   36.2619   35.1907   47.5866 H   0  0  0  0  0  0  0  0  0  0  0  0
   35.4779   36.1304   49.5245 C   0  0  0  0  0  0  0  0  0  0  0  0
   34.6699   36.7329   49.1393 H   0  0  0  0  0  0  0  0  0  0  0  0
   35.9613   35.9335   50.8206 C   0  0  0  0  0  0  0  0  0  0  0  0
   35.5009   36.4394   51.6597 H   0  0  0  0  0  0  0  0  0  0  0  0
   36.9710   35.0930   50.7316 O   0  0  0  0  0  0  0  0  0  0  0  0
  1  6  1  0
  1  9  1  0
  2  1  1  0
  3  4  1  0
  3  2  1  0
  4  5  1  0
  5  6  1  0
  6 15  1  0
  8  7  2  0
  9  8  1  0
 10  9  2  0
 10 11  1  0
 11 12  2  0
 12  7  1  0
 13 14  2  0
 15 13  1  0
  1 16  1  6
  2 17  1  0
  2 18  1  0
  3 19  1  0
  3 20  1  0
  4 21  1  0
  4 22  1  0
  5 23  1  0
  5 24  1  0
  6 25  1  1
  7 26  1  0
  8 27  1  0
 11 28  1  0
 15 29  1  0
 30 31  2  0
 31 32  1  0
 31 33  1  0
 33 34  1  0
 33 35  2  0
 35 36  1  0
 35 37  1  0
 37 30  1  0
 13 30  1  0
M  ISO  8  16  13  17  13  18  13  19  13  20  13  21  13  22  13  23  13
M  ISO  8  24  13  25  13  26  14  27  14  28  14  32  16  34  16  36  14
M  END
>  <DihAtoms>  (1) 
13,12,29,30

>  <DihDeg>  (1) 
179.99838232415254

$$$$
