
 OpenBabel03272506433D

 31 33  0  0  1  0  0  0  0  0999 V2000
   32.2390   28.1670   47.5330 C   0  0  2  0  0  0  0  0  0  0  0  0
   33.5030   28.1460   48.3560 C   0  0  1  0  0  0  0  0  0  0  0  0
   34.0840   26.9090   48.1880 O   0  0  0  0  0  0  0  0  0  0  0  0
   33.4290   26.2370   47.1670 C   0  0  0  0  0  0  0  0  0  0  0  0
   32.6740   27.2970   46.3670 C   0  0  1  0  0  0  0  0  0  0  0  0
   31.3580   27.7780   48.0690 H   0  0  0  0  0  0  0  0  0  0  0  0
   33.3020   28.3900   49.4200 H   0  0  0  0  0  0  0  0  0  0  0  0
   34.1410   25.7360   46.4930 H   0  0  0  0  0  0  0  0  0  0  0  0
   32.6800   25.5740   47.6240 H   0  0  0  0  0  0  0  0  0  0  0  0
   33.3300   27.8980   45.7380 H   0  0  0  0  0  0  0  0  0  0  0  0
   31.9470   29.4740   47.1160 O   0  0  0  0  0  0  0  0  0  0  0  0
   31.1920   29.4870   46.5070 H   0  0  0  0  0  0  0  0  0  0  0  0
   34.6340   29.3880   47.6380 S   0  0  0  0  0  0  0  0  0  0  0  0
   37.2090   29.2540   50.6520 C   0  0  0  0  0  0  0  0  0  0  0  0
   37.6360   30.5660   50.8140 C   0  0  0  0  0  0  0  0  0  0  0  0
   37.1160   31.5420   49.9660 C   0  0  0  0  0  0  0  0  0  0  0  0
   36.2090   31.1700   49.0100 N   0  0  0  0  0  0  0  0  0  0  0  0
   35.8220   29.8750   48.8900 C   0  0  0  0  0  0  0  0  0  0  0  0
   36.3110   28.9120   49.6990 N   0  0  0  0  0  0  0  0  0  0  0  0
   37.6460   28.5500   51.3350 H   0  0  0  0  0  0  0  0  0  0  0  0
   38.3520   30.8750   51.5650 H   0  0  0  0  0  0  0  0  0  0  0  0
   37.3810   32.5820   50.0090 H   0  0  0  0  0  0  0  0  0  0  0  0
   31.6130   26.7160   45.6990 O   0  0  0  0  0  0  0  0  0  0  0  0
   30.8720   27.2870   44.6870 C   0  0  0  0  0  0  0  0  0  0  0  0
   31.5990   28.0740   43.7940 C   0  0  0  0  0  0  0  0  0  0  0  0
   32.6500   28.3570   43.7030 H   0  0  0  0  0  0  0  0  0  0  0  0
   30.6920   28.5640   42.8490 C   0  0  0  0  0  0  0  0  0  0  0  0
   30.7940   29.2050   41.9810 H   0  0  0  0  0  0  0  0  0  0  0  0
   29.4790   28.0180   43.2620 C   0  0  0  0  0  0  0  0  0  0  0  0
   28.5250   28.1890   42.7470 H   0  0  0  0  0  0  0  0  0  0  0  0
   29.6270   27.2800   44.3360 O   0  0  0  0  0  0  0  0  0  0  0  0
  1  6  1  1  0  0  0
  1  2  1  0  0  0  0
  2  7  1  1  0  0  0
  3  2  1  0  0  0  0
  4  9  1  0  0  0  0
  4  3  1  0  0  0  0
  5 10  1  6  0  0  0
  5  4  1  0  0  0  0
  5  1  1  0  0  0  0
  8  4  1  0  0  0  0
 11  1  1  0  0  0  0
 12 11  1  0  0  0  0
 13  2  1  0  0  0  0
 13 18  1  0  0  0  0
 14 15  1  0  0  0  0
 14 20  1  0  0  0  0
 15 21  1  0  0  0  0
 16 22  1  0  0  0  0
 16 15  2  0  0  0  0
 17 16  1  0  0  0  0
 18 17  2  0  0  0  0
 18 19  1  0  0  0  0
 19 14  2  0  0  0  0
 23  5  1  0  0  0  0
 24 23  1  0  0  0  0
 25 24  2  0  0  0  0
 26 25  1  0  0  0  0
 27 29  2  0  0  0  0
 27 25  1  0  0  0  0
 28 27  1  0  0  0  0
 29 31  1  0  0  0  0
 30 29  1  0  0  0  0
 31 24  1  0  0  0  0
M  END
>  <minimizedAffinity>
-3.73418903

>  <minimizedRMSD>
0.92405957

$$$$
