
 OpenBabel03272506433D

 31 33  0  0  1  0  0  0  0  0999 V2000
   32.3830   28.2490   47.6390 C   0  0  2  0  0  0  0  0  0  0  0  0
   33.6680   28.3050   48.4260 C   0  0  1  0  0  0  0  0  0  0  0  0
   34.2570   27.0630   48.3440 O   0  0  0  0  0  0  0  0  0  0  0  0
   33.5830   26.3050   47.3990 C   0  0  0  0  0  0  0  0  0  0  0  0
   32.7960   27.2900   46.5360 C   0  0  1  0  0  0  0  0  0  0  0  0
   31.5210   27.8970   48.2280 H   0  0  0  0  0  0  0  0  0  0  0  0
   33.4930   28.6340   49.4720 H   0  0  0  0  0  0  0  0  0  0  0  0
   34.2820   25.7560   46.7490 H   0  0  0  0  0  0  0  0  0  0  0  0
   32.8520   25.6750   47.9280 H   0  0  0  0  0  0  0  0  0  0  0  0
   33.4300   27.8430   45.8420 H   0  0  0  0  0  0  0  0  0  0  0  0
   32.0670   29.5150   47.1240 O   0  0  0  0  0  0  0  0  0  0  0  0
   31.2970   29.4720   46.5370 H   0  0  0  0  0  0  0  0  0  0  0  0
   34.7680   29.4930   47.5790 S   0  0  0  0  0  0  0  0  0  0  0  0
   37.4000   29.4890   50.5470 C   0  0  0  0  0  0  0  0  0  0  0  0
   38.0000   30.7400   50.4920 C   0  0  0  0  0  0  0  0  0  0  0  0
   37.5850   31.6330   49.5040 C   0  0  0  0  0  0  0  0  0  0  0  0
   36.6060   31.2400   48.6300 N   0  0  0  0  0  0  0  0  0  0  0  0
   36.0490   30.0060   48.7230 C   0  0  0  0  0  0  0  0  0  0  0  0
   36.4350   29.1260   49.6710 N   0  0  0  0  0  0  0  0  0  0  0  0
   37.7620   28.8490   51.3290 H   0  0  0  0  0  0  0  0  0  0  0  0
   38.7740   31.0640   51.1750 H   0  0  0  0  0  0  0  0  0  0  0  0
   37.9850   32.6210   49.3770 H   0  0  0  0  0  0  0  0  0  0  0  0
   31.7250   26.6470   45.9470 O   0  0  0  0  0  0  0  0  0  0  0  0
   31.0340   27.0650   44.8290 C   0  0  0  0  0  0  0  0  0  0  0  0
   31.7700   27.8490   43.9390 C   0  0  0  0  0  0  0  0  0  0  0  0
   32.7960   28.2230   43.9160 H   0  0  0  0  0  0  0  0  0  0  0  0
   30.9160   28.1740   42.8800 C   0  0  0  0  0  0  0  0  0  0  0  0
   31.0440   28.7540   41.9720 H   0  0  0  0  0  0  0  0  0  0  0  0
   29.7230   27.5470   43.2310 C   0  0  0  0  0  0  0  0  0  0  0  0
   28.8110   27.5860   42.6230 H   0  0  0  0  0  0  0  0  0  0  0  0
   29.8340   26.9120   44.3730 O   0  0  0  0  0  0  0  0  0  0  0  0
  1  6  1  1  0  0  0
  1  2  1  0  0  0  0
  2  7  1  1  0  0  0
  3  2  1  0  0  0  0
  4  9  1  0  0  0  0
  4  3  1  0  0  0  0
  5 10  1  6  0  0  0
  5  4  1  0  0  0  0
  5  1  1  0  0  0  0
  8  4  1  0  0  0  0
 11  1  1  0  0  0  0
 12 11  1  0  0  0  0
 13  2  1  0  0  0  0
 13 18  1  0  0  0  0
 14 20  1  0  0  0  0
 15 14  1  0  0  0  0
 15 21  1  0  0  0  0
 16 15  2  0  0  0  0
 17 18  2  0  0  0  0
 17 16  1  0  0  0  0
 18 19  1  0  0  0  0
 19 14  2  0  0  0  0
 22 16  1  0  0  0  0
 23  5  1  0  0  0  0
 24 23  1  0  0  0  0
 25 24  2  0  0  0  0
 26 25  1  0  0  0  0
 27 29  2  0  0  0  0
 27 25  1  0  0  0  0
 28 27  1  0  0  0  0
 29 31  1  0  0  0  0
 30 29  1  0  0  0  0
 31 24  1  0  0  0  0
M  END
>  <minimizedAffinity>
-3.72703028

>  <minimizedRMSD>
0.699234009

$$$$
