
 OpenBabel03262520213D

 22 23  0  0  0  0  0  0  0  0999 V2000
   36.4370   31.4320   49.6510 C   0  0  0  0  0  0  0  0  0  0  0  0
   37.1170   31.5370   48.4060 C   0  0  0  0  0  0  0  0  0  0  0  0
   36.6580   30.7440   47.3770 C   0  0  0  0  0  0  0  0  0  0  0  0
   35.5820   29.9260   47.6460 N   0  0  0  0  0  0  0  0  0  0  0  0
   34.9620   29.8490   48.8170 C   0  0  0  0  0  0  0  0  0  0  0  0
   35.4070   30.6140   49.8160 N   0  0  0  0  0  0  0  0  0  0  0  0
   33.8550   28.9780   48.9040 N   0  0  0  0  0  0  0  0  0  0  0  0
   36.6490   31.9640   50.5620 H   0  0  0  0  0  0  0  0  0  0  0  0
   32.9270   29.4260   49.1380 H   0  0  0  0  0  0  0  0  0  0  0  0
   34.0520   27.9710   48.7300 H   0  0  0  0  0  0  0  0  0  0  0  0
   38.2080   32.5090   48.4000 C   0  0  0  0  0  0  0  0  0  0  0  0
   38.4300   33.3960   49.4300 C   0  0  0  0  0  0  0  0  0  0  0  0
   37.8990   33.5630   50.3910 H   0  0  0  0  0  0  0  0  0  0  0  0
   39.4990   34.2240   49.2410 C   0  0  0  0  0  0  0  0  0  0  0  0
   39.9460   35.0090   49.8200 H   0  0  0  0  0  0  0  0  0  0  0  0
   39.9440   33.8050   48.0190 C   0  0  0  0  0  0  0  0  0  0  0  0
   40.7810   34.1310   47.3880 H   0  0  0  0  0  0  0  0  0  0  0  0
   39.1750   32.8650   47.6420 O   0  0  0  0  0  0  0  0  0  0  0  0
   37.3130   30.7860   46.0540 C   0  0  0  0  0  0  0  0  0  0  0  0
   38.5330   30.2760   46.2080 F   0  0  0  0  0  0  0  0  0  0  0  0
   36.6450   30.0590   45.0800 F   0  0  0  0  0  0  0  0  0  0  0  0
   37.3970   32.1090   45.5660 F   0  0  0  0  0  0  0  0  0  0  0  0
  1  6  1  0  0  0  0
  1  8  1  0  0  0  0
  2  1  2  0  0  0  0
  3  4  2  0  0  0  0
  3  2  1  0  0  0  0
  4  5  1  0  0  0  0
  5  7  1  0  0  0  0
  5  6  2  0  0  0  0
  7  9  1  0  0  0  0
 10  7  1  0  0  0  0
 11  2  1  0  0  0  0
 11 12  2  0  0  0  0
 12 13  1  0  0  0  0
 14 12  1  0  0  0  0
 14 15  1  0  0  0  0
 16 14  2  0  0  0  0
 17 16  1  0  0  0  0
 18 16  1  0  0  0  0
 18 11  1  0  0  0  0
 19 20  1  0  0  0  0
 19  3  1  0  0  0  0
 21 19  1  0  0  0  0
 22 19  1  0  0  0  0
M  END
>  <minimizedAffinity>
-4.93950272

>  <minimizedRMSD>
3.69604945

$$$$
