REMARK  Name = 
REMARK  4 active torsions:
REMARK  status: ('A' for Active; 'I' for Inactive)
REMARK    1  A    between atoms: C_1  and  C_8
REMARK    2  A    between atoms: C_1  and  C_10
REMARK    3  A    between atoms: C_14  and  C_16
REMARK    4  A    between atoms: N_19  and  C_32
REMARK                            x       y       z     vdW  Elec       q    Type
REMARK                         _______ _______ _______ _____ _____    ______ ____
ROOT
ATOM      1  C   UNL     1      36.508  30.539  46.277  0.00  0.00    +0.000 A 
ATOM      2  C   UNL     1      37.131  30.947  47.400  0.00  0.00    +0.000 A 
ATOM      3  C   UNL     1      36.539  30.758  48.639  0.00  0.00    +0.000 A 
ATOM      4  C   UNL     1      35.292  30.139  48.686  0.00  0.00    +0.000 A 
ATOM      5  C   UNL     1      34.651  29.717  47.510  0.00  0.00    +0.000 A 
ATOM      6  N   UNL     1      35.292  29.937  46.343  0.00  0.00    +0.000 NA
ATOM      7  H   UNL     1      38.103  31.431  47.386  0.00  0.00    +0.000 HD
ATOM      8  H   UNL     1      36.966  31.052  49.577  0.00  0.00    +0.000 HD
ATOM      9  H   UNL     1      34.756  29.951  49.610  0.00  0.00    +0.000 HD
ENDROOT
BRANCH   1  10
ATOM     10  C   UNL     1      37.145  30.741  44.923  0.00  0.00    +0.000 C 
ATOM     11  C   UNL     1      36.828  29.764  43.843  0.00  0.00    +0.000 C 
ATOM     12  C   UNL     1      36.253  31.146  43.789  0.00  0.00    +0.000 C 
ATOM     13  H   UNL     1      36.136  28.942  44.145  0.00  0.00    +0.000 HD
ATOM     14  H   UNL     1      37.626  29.443  43.175  0.00  0.00    +0.000 HD
ATOM     15  H   UNL     1      36.716  31.798  43.021  0.00  0.00    +0.000 HD
ATOM     16  H   UNL     1      35.155  31.219  43.931  0.00  0.00    +0.000 HD
BRANCH  10  21
ATOM     17  C   UNL     1      39.763  33.342  44.955  0.00  0.00    +0.000 A 
ATOM     18  C   UNL     1      40.930  32.587  45.209  0.00  0.00    +0.000 A 
ATOM     19  C   UNL     1      40.809  31.178  45.368  0.00  0.00    +0.000 A 
ATOM     20  N   UNL     1      39.572  30.655  45.265  0.00  0.00    +0.000 NA
ATOM     21  C   UNL     1      38.462  31.392  45.021  0.00  0.00    +0.000 A 
ATOM     22  N   UNL     1      38.556  32.723  44.867  0.00  0.00    +0.000 NA
ATOM     23  H   UNL     1      39.859  34.414  44.833  0.00  0.00    +0.000 HD
ATOM     24  H   UNL     1      41.878  33.108  45.273  0.00  0.00    +0.000 HD
ATOM     25  H   UNL     1      41.698  30.622  45.560  0.00  0.00    +0.000 HD
ENDBRANCH  10  21
ENDBRANCH   1  10
BRANCH   5  26
ATOM     26  C   UNL     1      33.349  29.067  47.513  0.00  0.00    +0.000 A 
ATOM     27  N   UNL     1      32.372  29.053  46.569  0.00  0.00    +0.000 NA
ATOM     28  C   UNL     1      31.324  28.311  47.009  0.00  0.00    +0.000 A 
ATOM     29  N   UNL     1      31.672  27.862  48.255  0.00  0.00    +0.000 N 
ATOM     30  N   UNL     1      32.886  28.316  48.555  0.00  0.00    +0.000 NA
ATOM     31  H   UNL     1      30.384  28.074  46.546  0.00  0.00    +0.000 HD
BRANCH  29  32
ATOM     32  C   UNL     1      30.942  27.035  49.182  0.00  0.00    +0.000 A 
ATOM     33  C   UNL     1      31.169  25.839  49.837  0.00  0.00    +0.000 A 
ATOM     34  H   UNL     1      32.114  25.338  49.656  0.00  0.00    +0.000 HD
ATOM     35  C   UNL     1      30.023  25.633  50.584  0.00  0.00    +0.000 A 
ATOM     36  H   UNL     1      29.974  24.724  51.200  0.00  0.00    +0.000 HD
ATOM     37  C   UNL     1      29.162  26.705  50.349  0.00  0.00    +0.000 A 
ATOM     38  H   UNL     1      28.235  26.629  50.894  0.00  0.00    +0.000 HD
ATOM     39  O   UNL     1      29.758  27.499  49.514  0.00  0.00    +0.000 OA
ENDBRANCH  29  32
ENDBRANCH   5  26
TORSDOF 4
