
 OpenBabel03272500123D

 20 21  0  0  0  0  0  0  0  0999 V2000
   35.6780   29.0500   50.2620 C   0  0  0  0  0  0  0  0  0  0  0  0
   36.2850   30.1790   49.6850 C   0  0  0  0  0  0  0  0  0  0  0  0
   35.9900   30.4930   48.3540 C   0  0  0  0  0  0  0  0  0  0  0  0
   35.1260   29.6870   47.6730 N   0  0  0  0  0  0  0  0  0  0  0  0
   34.5580   28.6060   48.2600 C   0  0  0  0  0  0  0  0  0  0  0  0
   34.8280   28.2910   49.5290 N   0  0  0  0  0  0  0  0  0  0  0  0
   35.9110   28.8170   51.2850 H   0  0  0  0  0  0  0  0  0  0  0  0
   36.4470   31.3450   47.9180 H   0  0  0  0  0  0  0  0  0  0  0  0
   33.6290   27.7200   47.5670 C   0  0  0  0  0  0  0  0  0  0  0  0
   33.7090   26.3430   47.5320 C   0  0  0  0  0  0  0  0  0  0  0  0
   34.4300   25.6890   47.9820 H   0  0  0  0  0  0  0  0  0  0  0  0
   32.6350   25.9230   46.7710 C   0  0  0  0  0  0  0  0  0  0  0  0
   32.3090   24.9310   46.4830 H   0  0  0  0  0  0  0  0  0  0  0  0
   31.9500   27.0540   46.3760 C   0  0  0  0  0  0  0  0  0  0  0  0
   31.0600   27.2220   45.7800 H   0  0  0  0  0  0  0  0  0  0  0  0
   32.5830   28.0820   46.8760 O   0  0  0  0  0  0  0  0  0  0  0  0
   37.2190   30.9910   50.5270 C   0  0  0  0  0  0  0  0  0  0  0  0
   38.5280   30.9240   50.0100 F   0  0  0  0  0  0  0  0  0  0  0  0
   36.8290   32.3030   50.4620 F   0  0  0  0  0  0  0  0  0  0  0  0
   37.2670   30.5700   51.8300 F   0  0  0  0  0  0  0  0  0  0  0  0
  1  7  1  0  0  0  0
  2  1  1  0  0  0  0
  2 17  1  0  0  0  0
  3  2  2  0  0  0  0
  4  5  2  0  0  0  0
  4  3  1  0  0  0  0
  5  6  1  0  0  0  0
  6  1  2  0  0  0  0
  8  3  1  0  0  0  0
  9  5  1  0  0  0  0
 10  9  2  0  0  0  0
 10 11  1  0  0  0  0
 12 10  1  0  0  0  0
 13 12  1  0  0  0  0
 14 12  2  0  0  0  0
 14 16  1  0  0  0  0
 15 14  1  0  0  0  0
 16  9  1  0  0  0  0
 17 20  1  0  0  0  0
 18 17  1  0  0  0  0
 19 17  1  0  0  0  0
M  END
>  <minimizedAffinity>
-4.82476711

>  <minimizedRMSD>
0.199807435

$$$$
