
 OpenBabel03262521083D

 44 46  0  0  1  0  0  0  0  0999 V2000
   38.8430   26.3250   34.8390 C   0  0  2  0  0  0  0  0  0  0  0  0
   38.1580   27.4360   35.4860 C   0  0  0  0  0  0  0  0  0  0  0  0
   36.8700   27.8400   34.7750 C   0  0  0  0  0  0  0  0  0  0  0  0
   37.1060   28.1960   33.3330 C   0  0  0  0  0  0  0  0  0  0  0  0
   38.1340   27.3340   32.6570 C   0  0  0  0  0  0  0  0  0  0  0  0
   38.3790   26.0450   33.4330 C   0  0  2  0  0  0  0  0  0  0  0  0
   39.9390   26.5910   34.7560 H   0  0  0  0  0  0  0  0  0  0  0  0
   38.7860   28.3760   35.5760 H   0  0  0  0  0  0  0  0  0  0  0  0
   37.8320   27.2330   36.5150 H   0  0  0  0  0  0  0  0  0  0  0  0
   36.5530   28.7850   35.2900 H   0  0  0  0  0  0  0  0  0  0  0  0
   36.0510   27.1190   34.9420 H   0  0  0  0  0  0  0  0  0  0  0  0
   36.1410   28.0390   32.8000 H   0  0  0  0  0  0  0  0  0  0  0  0
   37.3720   29.2620   33.1900 H   0  0  0  0  0  0  0  0  0  0  0  0
   37.9560   27.1200   31.6050 H   0  0  0  0  0  0  0  0  0  0  0  0
   39.1130   27.8920   32.7120 H   0  0  0  0  0  0  0  0  0  0  0  0
   39.2300   25.5490   32.9050 H   0  0  0  0  0  0  0  0  0  0  0  0
   38.8120   25.0510   35.5600 C   0  0  0  0  0  0  0  0  0  0  0  0
   38.1120   25.0960   36.7720 C   0  0  0  0  0  0  0  0  0  0  0  0
   38.0360   23.9120   37.4920 C   0  0  0  0  0  0  0  0  0  0  0  0
   38.6330   22.7850   37.0040 N   0  0  0  0  0  0  0  0  0  0  0  0
   39.2970   22.7870   35.8360 C   0  0  0  0  0  0  0  0  0  0  0  0
   39.3580   23.9040   35.1730 N   0  0  0  0  0  0  0  0  0  0  0  0
   37.5910   25.8290   37.3500 H   0  0  0  0  0  0  0  0  0  0  0  0
   37.5560   23.7040   38.4350 H   0  0  0  0  0  0  0  0  0  0  0  0
   39.7720   21.8980   35.4460 H   0  0  0  0  0  0  0  0  0  0  0  0
   37.2570   25.2410   33.2390 N   0  0  0  0  0  0  0  0  0  0  0  0
   36.9950   24.7640   34.1330 H   0  0  0  0  0  0  0  0  0  0  0  0
   37.3240   24.0740   32.0220 S   0  0  1  0  0  0  0  0  0  0  0  0
   38.7640   24.0360   31.5430 O   0  0  0  0  0  0  0  0  0  0  0  0
   39.1960   24.6380   30.9020 H   0  0  0  0  0  0  0  0  0  0  0  0
   36.9620   22.7020   32.4940 O   0  0  0  0  0  0  0  0  0  0  0  0
   36.4650   21.5250   31.9620 C   0  0  0  0  0  0  0  0  0  0  0  0
   35.3090   21.0270   32.5700 C   0  0  0  0  0  0  0  0  0  0  0  0
   34.6760   21.3570   33.4000 H   0  0  0  0  0  0  0  0  0  0  0  0
   34.9790   19.8500   31.8900 C   0  0  0  0  0  0  0  0  0  0  0  0
   34.1720   19.1500   32.0230 H   0  0  0  0  0  0  0  0  0  0  0  0
   35.9460   19.7240   30.9320 C   0  0  0  0  0  0  0  0  0  0  0  0
   36.0910   18.9540   30.1690 H   0  0  0  0  0  0  0  0  0  0  0  0
   36.7920   20.7120   31.0010 O   0  0  0  0  0  0  0  0  0  0  0  0
   36.3980   24.4660   30.6770 O   0  0  0  0  0  0  0  0  0  0  0  0
   35.1510   24.9650   31.0120 C   0  0  0  0  0  0  0  0  0  0  0  0
   35.2740   26.2590   31.4500 F   0  0  0  0  0  0  0  0  0  0  0  0
   34.3910   24.9940   29.8570 F   0  0  0  0  0  0  0  0  0  0  0  0
   34.4590   24.1650   31.9080 F   0  0  0  0  0  0  0  0  0  0  0  0
  1  7  1  6  0  0  0
  1  2  1  0  0  0  0
  1 17  1  0  0  0  0
  2  8  1  0  0  0  0
  2  9  1  0  0  0  0
  3 11  1  0  0  0  0
  3 10  1  0  0  0  0
  3  2  1  0  0  0  0
  4  3  1  0  0  0  0
  5 15  1  0  0  0  0
  5  4  1  0  0  0  0
  5  6  1  0  0  0  0
  6 16  1  6  0  0  0
  6  1  1  0  0  0  0
 12  4  1  0  0  0  0
 13  4  1  0  0  0  0
 14  5  1  0  0  0  0
 17 18  1  0  0  0  0
 18 23  1  0  0  0  0
 18 19  2  0  0  0  0
 19 24  1  0  0  0  0
 20 19  1  0  0  0  0
 21 20  2  0  0  0  0
 22 17  2  0  0  0  0
 22 21  1  0  0  0  0
 25 21  1  0  0  0  0
 26  6  1  0  0  0  0
 26 27  1  0  0  0  0
 28 40  1  6  0  0  0
 28 31  1  0  0  0  0
 28 26  1  0  0  0  0
 29 28  1  0  0  0  0
 30 29  1  0  0  0  0
 32 31  1  0  0  0  0
 32 33  2  0  0  0  0
 33 34  1  0  0  0  0
 35 36  1  0  0  0  0
 35 33  1  0  0  0  0
 37 39  1  0  0  0  0
 37 35  2  0  0  0  0
 38 37  1  0  0  0  0
 39 32  1  0  0  0  0
 40 41  1  0  0  0  0
 41 42  1  0  0  0  0
 41 44  1  0  0  0  0
 43 41  1  0  0  0  0
M  END
>  <minimizedAffinity>
-5.59893513

$$$$

 OpenBabel03262521083D

 44 46  0  0  1  0  0  0  0  0999 V2000
   36.8150   22.3450   31.2080 C   0  0  2  0  0  0  0  0  0  0  0  0
   35.5030   21.7290   31.0630 C   0  0  0  0  0  0  0  0  0  0  0  0
   34.9900   21.1020   32.3560 C   0  0  0  0  0  0  0  0  0  0  0  0
   35.9440   20.0780   32.9070 C   0  0  0  0  0  0  0  0  0  0  0  0
   37.3910   20.4450   32.7370 C   0  0  0  0  0  0  0  0  0  0  0  0
   37.5600   21.9320   32.4510 C   0  0  2  0  0  0  0  0  0  0  0  0
   37.4570   22.0120   30.3380 H   0  0  0  0  0  0  0  0  0  0  0  0
   35.4590   20.9170   30.2720 H   0  0  0  0  0  0  0  0  0  0  0  0
   34.7030   22.4240   30.7780 H   0  0  0  0  0  0  0  0  0  0  0  0
   34.0660   20.5460   32.0480 H   0  0  0  0  0  0  0  0  0  0  0  0
   34.6550   21.8580   33.0880 H   0  0  0  0  0  0  0  0  0  0  0  0
   35.7470   20.0100   34.0010 H   0  0  0  0  0  0  0  0  0  0  0  0
   35.7730   19.0650   32.4960 H   0  0  0  0  0  0  0  0  0  0  0  0
   38.0570   20.1300   33.5380 H   0  0  0  0  0  0  0  0  0  0  0  0
   37.7480   19.9300   31.7990 H   0  0  0  0  0  0  0  0  0  0  0  0
   38.6490   22.0610   32.2330 H   0  0  0  0  0  0  0  0  0  0  0  0
   36.8400   23.8080   31.1620 C   0  0  0  0  0  0  0  0  0  0  0  0
   35.5730   24.4000   31.0860 C   0  0  0  0  0  0  0  0  0  0  0  0
   35.5340   25.7870   31.0560 C   0  0  0  0  0  0  0  0  0  0  0  0
   36.7000   26.4970   31.0980 N   0  0  0  0  0  0  0  0  0  0  0  0
   37.8950   25.8870   31.1690 C   0  0  0  0  0  0  0  0  0  0  0  0
   37.9140   24.5880   31.1970 N   0  0  0  0  0  0  0  0  0  0  0  0
   34.5570   24.0730   31.0310 H   0  0  0  0  0  0  0  0  0  0  0  0
   34.6890   26.4550   31.0020 H   0  0  0  0  0  0  0  0  0  0  0  0
   38.8210   26.4450   31.2000 H   0  0  0  0  0  0  0  0  0  0  0  0
   37.3040   22.6020   33.6460 N   0  0  0  0  0  0  0  0  0  0  0  0
   36.6670   23.4140   33.4760 H   0  0  0  0  0  0  0  0  0  0  0  0
   38.6250   23.1500   34.5420 S   0  0  1  0  0  0  0  0  0  0  0  0
   39.6960   23.5310   33.5360 O   0  0  0  0  0  0  0  0  0  0  0  0
   40.3300   22.9360   33.0840 H   0  0  0  0  0  0  0  0  0  0  0  0
   38.3220   24.3590   35.3690 O   0  0  0  0  0  0  0  0  0  0  0  0
   37.8810   25.6570   35.1770 C   0  0  0  0  0  0  0  0  0  0  0  0
   38.5440   26.6370   35.9210 C   0  0  0  0  0  0  0  0  0  0  0  0
   39.3620   26.6250   36.6490 H   0  0  0  0  0  0  0  0  0  0  0  0
   37.9520   27.8580   35.5840 C   0  0  0  0  0  0  0  0  0  0  0  0
   38.1480   28.8640   35.9150 H   0  0  0  0  0  0  0  0  0  0  0  0
   36.9880   27.5330   34.6710 C   0  0  0  0  0  0  0  0  0  0  0  0
   36.2770   28.1670   34.1360 H   0  0  0  0  0  0  0  0  0  0  0  0
   36.9730   26.2480   34.4580 O   0  0  0  0  0  0  0  0  0  0  0  0
   39.3040   21.9620   35.5150 O   0  0  0  0  0  0  0  0  0  0  0  0
   39.9180   22.4780   36.6430 C   0  0  0  0  0  0  0  0  0  0  0  0
   38.9660   22.8540   37.5560 F   0  0  0  0  0  0  0  0  0  0  0  0
   40.6570   21.4590   37.2170 F   0  0  0  0  0  0  0  0  0  0  0  0
   40.8170   23.4960   36.3640 F   0  0  0  0  0  0  0  0  0  0  0  0
  1  7  1  6  0  0  0
  1  6  1  0  0  0  0
  2  1  1  0  0  0  0
  2  3  1  0  0  0  0
  3  4  1  0  0  0  0
  3 11  1  0  0  0  0
  4 12  1  0  0  0  0
  5  4  1  0  0  0  0
  5 14  1  0  0  0  0
  6 16  1  6  0  0  0
  6  5  1  0  0  0  0
  6 26  1  0  0  0  0
  8  2  1  0  0  0  0
  9  2  1  0  0  0  0
 10  3  1  0  0  0  0
 13  4  1  0  0  0  0
 15  5  1  0  0  0  0
 17 22  1  0  0  0  0
 17  1  1  0  0  0  0
 18 17  2  0  0  0  0
 19 18  1  0  0  0  0
 19 20  2  0  0  0  0
 20 21  1  0  0  0  0
 21 22  2  0  0  0  0
 21 25  1  0  0  0  0
 23 18  1  0  0  0  0
 24 19  1  0  0  0  0
 26 28  1  0  0  0  0
 27 26  1  0  0  0  0
 28 29  1  6  0  0  0
 28 31  1  0  0  0  0
 28 40  1  0  0  0  0
 30 29  1  0  0  0  0
 32 31  1  0  0  0  0
 32 33  2  0  0  0  0
 33 34  1  0  0  0  0
 35 36  1  0  0  0  0
 35 33  1  0  0  0  0
 37 35  2  0  0  0  0
 38 37  1  0  0  0  0
 39 37  1  0  0  0  0
 39 32  1  0  0  0  0
 40 41  1  0  0  0  0
 41 43  1  0  0  0  0
 41 42  1  0  0  0  0
 44 41  1  0  0  0  0
M  END
>  <minimizedAffinity>
-5.55712461

$$$$

 OpenBabel03262521083D

 44 46  0  0  1  0  0  0  0  0999 V2000
   39.9830   25.7200   33.8860 C   0  0  2  0  0  0  0  0  0  0  0  0
   39.9310   27.0830   34.3960 C   0  0  0  0  0  0  0  0  0  0  0  0
   39.0310   27.2300   35.6200 C   0  0  0  0  0  0  0  0  0  0  0  0
   37.6270   26.7640   35.3510 C   0  0  0  0  0  0  0  0  0  0  0  0
   37.5500   25.5520   34.4660 C   0  0  0  0  0  0  0  0  0  0  0  0
   38.8870   24.8230   34.4000 C   0  0  2  0  0  0  0  0  0  0  0  0
   39.8470   25.7610   32.7630 H   0  0  0  0  0  0  0  0  0  0  0  0
   39.5710   27.8460   33.6390 H   0  0  0  0  0  0  0  0  0  0  0  0
   40.8960   27.4790   34.7370 H   0  0  0  0  0  0  0  0  0  0  0  0
   38.9740   28.3370   35.7920 H   0  0  0  0  0  0  0  0  0  0  0  0
   39.4880   26.8080   36.5320 H   0  0  0  0  0  0  0  0  0  0  0  0
   37.1870   26.4820   36.3340 H   0  0  0  0  0  0  0  0  0  0  0  0
   36.9810   27.5610   34.9360 H   0  0  0  0  0  0  0  0  0  0  0  0
   36.7440   24.8550   34.6840 H   0  0  0  0  0  0  0  0  0  0  0  0
   37.3770   25.9280   33.4160 H   0  0  0  0  0  0  0  0  0  0  0  0
   38.7400   24.0210   33.6360 H   0  0  0  0  0  0  0  0  0  0  0  0
   41.2470   25.0110   34.0920 C   0  0  0  0  0  0  0  0  0  0  0  0
   42.2230   25.7620   34.7590 C   0  0  0  0  0  0  0  0  0  0  0  0
   43.4370   25.1350   34.9960 C   0  0  0  0  0  0  0  0  0  0  0  0
   43.6260   23.8480   34.5790 N   0  0  0  0  0  0  0  0  0  0  0  0
   42.6630   23.1640   33.9410 C   0  0  0  0  0  0  0  0  0  0  0  0
   41.5300   23.7660   33.7270 N   0  0  0  0  0  0  0  0  0  0  0  0
   42.3150   26.7500   35.1570 H   0  0  0  0  0  0  0  0  0  0  0  0
   44.3240   25.5040   35.4870 H   0  0  0  0  0  0  0  0  0  0  0  0
   42.8080   22.1460   33.6070 H   0  0  0  0  0  0  0  0  0  0  0  0
   39.0560   24.1860   35.6290 N   0  0  0  0  0  0  0  0  0  0  0  0
   40.0290   24.3380   35.9840 H   0  0  0  0  0  0  0  0  0  0  0  0
   38.7200   22.5340   35.7140 S   0  0  1  0  0  0  0  0  0  0  0  0
   37.5650   22.3820   36.6880 O   0  0  0  0  0  0  0  0  0  0  0  0
   37.6070   22.3600   37.6660 H   0  0  0  0  0  0  0  0  0  0  0  0
   38.2970   21.9450   34.4060 O   0  0  0  0  0  0  0  0  0  0  0  0
   37.1220   21.6160   33.7530 C   0  0  0  0  0  0  0  0  0  0  0  0
   36.8810   22.3020   32.5590 C   0  0  0  0  0  0  0  0  0  0  0  0
   37.4200   23.0680   31.9930 H   0  0  0  0  0  0  0  0  0  0  0  0
   35.6610   21.8260   32.0690 C   0  0  0  0  0  0  0  0  0  0  0  0
   35.0990   22.0760   31.1850 H   0  0  0  0  0  0  0  0  0  0  0  0
   35.2580   20.8990   32.9890 C   0  0  0  0  0  0  0  0  0  0  0  0
   34.3620   20.2740   33.0190 H   0  0  0  0  0  0  0  0  0  0  0  0
   36.1280   20.8020   33.9530 O   0  0  0  0  0  0  0  0  0  0  0  0
   39.9850   21.6340   36.3510 O   0  0  0  0  0  0  0  0  0  0  0  0
   40.6290   22.2770   37.3950 C   0  0  0  0  0  0  0  0  0  0  0  0
   39.7010   22.7470   38.2890 F   0  0  0  0  0  0  0  0  0  0  0  0
   41.3930   21.3330   38.0570 F   0  0  0  0  0  0  0  0  0  0  0  0
   41.5100   23.2610   36.9770 F   0  0  0  0  0  0  0  0  0  0  0  0
  1  7  1  6  0  0  0
  1 17  1  0  0  0  0
  1  2  1  0  0  0  0
  1  6  1  0  0  0  0
  2  9  1  0  0  0  0
  2  3  1  0  0  0  0
  3 10  1  0  0  0  0
  3 11  1  0  0  0  0
  4  3  1  0  0  0  0
  4 12  1  0  0  0  0
  5 14  1  0  0  0  0
  5  4  1  0  0  0  0
  6 16  1  6  0  0  0
  6  5  1  0  0  0  0
  6 26  1  0  0  0  0
  8  2  1  0  0  0  0
 13  4  1  0  0  0  0
 15  5  1  0  0  0  0
 17 18  1  0  0  0  0
 18 19  2  0  0  0  0
 18 23  1  0  0  0  0
 19 24  1  0  0  0  0
 20 19  1  0  0  0  0
 21 20  2  0  0  0  0
 22 21  1  0  0  0  0
 22 17  2  0  0  0  0
 25 21  1  0  0  0  0
 26 28  1  0  0  0  0
 26 27  1  0  0  0  0
 28 31  1  6  0  0  0
 28 40  1  0  0  0  0
 28 29  1  0  0  0  0
 29 30  1  0  0  0  0
 32 39  1  0  0  0  0
 32 31  1  0  0  0  0
 33 32  2  0  0  0  0
 34 33  1  0  0  0  0
 35 33  1  0  0  0  0
 35 37  2  0  0  0  0
 36 35  1  0  0  0  0
 37 38  1  0  0  0  0
 37 39  1  0  0  0  0
 40 41  1  0  0  0  0
 41 43  1  0  0  0  0
 41 42  1  0  0  0  0
 44 41  1  0  0  0  0
M  END
>  <minimizedAffinity>
-5.55214882

$$$$

 OpenBabel03262521083D

 44 46  0  0  1  0  0  0  0  0999 V2000
   37.6990   23.5020   31.9710 C   0  0  2  0  0  0  0  0  0  0  0  0
   36.5600   22.8100   31.3830 C   0  0  0  0  0  0  0  0  0  0  0  0
   35.9110   21.8100   32.3360 C   0  0  0  0  0  0  0  0  0  0  0  0
   36.8900   20.7850   32.8360 C   0  0  0  0  0  0  0  0  0  0  0  0
   38.2630   21.3360   33.0990 C   0  0  0  0  0  0  0  0  0  0  0  0
   38.2410   22.8550   33.2190 C   0  0  2  0  0  0  0  0  0  0  0  0
   38.5450   23.4830   31.2210 H   0  0  0  0  0  0  0  0  0  0  0  0
   36.8060   22.2390   30.4350 H   0  0  0  0  0  0  0  0  0  0  0  0
   35.7290   23.4660   31.0920 H   0  0  0  0  0  0  0  0  0  0  0  0
   35.1690   21.2610   31.6980 H   0  0  0  0  0  0  0  0  0  0  0  0
   35.3190   22.3040   33.1260 H   0  0  0  0  0  0  0  0  0  0  0  0
   36.4950   20.4080   33.8060 H   0  0  0  0  0  0  0  0  0  0  0  0
   36.9710   19.9050   32.1690 H   0  0  0  0  0  0  0  0  0  0  0  0
   38.8000   20.8940   33.9350 H   0  0  0  0  0  0  0  0  0  0  0  0
   38.8780   21.1310   32.1750 H   0  0  0  0  0  0  0  0  0  0  0  0
   39.3150   23.1540   33.2970 H   0  0  0  0  0  0  0  0  0  0  0  0
   37.4930   24.9190   32.2790 C   0  0  0  0  0  0  0  0  0  0  0  0
   36.3770   25.4850   31.6500 C   0  0  0  0  0  0  0  0  0  0  0  0
   36.1240   26.8230   31.9190 C   0  0  0  0  0  0  0  0  0  0  0  0
   36.9500   27.5120   32.7590 N   0  0  0  0  0  0  0  0  0  0  0  0
   38.0120   26.9290   33.3400 C   0  0  0  0  0  0  0  0  0  0  0  0
   38.2360   25.6750   33.0790 N   0  0  0  0  0  0  0  0  0  0  0  0
   35.6170   25.1690   30.9690 H   0  0  0  0  0  0  0  0  0  0  0  0
   35.3340   27.4640   31.5590 H   0  0  0  0  0  0  0  0  0  0  0  0
   38.6700   27.4720   34.0040 H   0  0  0  0  0  0  0  0  0  0  0  0
   37.6480   23.1510   34.4460 N   0  0  0  0  0  0  0  0  0  0  0  0
   37.1640   24.0780   34.3990 H   0  0  0  0  0  0  0  0  0  0  0  0
   38.6280   23.1390   35.8190 S   0  0  1  0  0  0  0  0  0  0  0  0
   38.4390   21.7810   36.4690 O   0  0  0  0  0  0  0  0  0  0  0  0
   37.7120   21.4980   37.0630 H   0  0  0  0  0  0  0  0  0  0  0  0
   40.0820   23.3030   35.5140 O   0  0  0  0  0  0  0  0  0  0  0  0
   41.2390   22.5440   35.5600 C   0  0  0  0  0  0  0  0  0  0  0  0
   42.2090   22.9730   36.4700 C   0  0  0  0  0  0  0  0  0  0  0  0
   42.2770   23.7990   37.1850 H   0  0  0  0  0  0  0  0  0  0  0  0
   43.2790   22.0810   36.3590 C   0  0  0  0  0  0  0  0  0  0  0  0
   44.2280   22.0340   36.8670 H   0  0  0  0  0  0  0  0  0  0  0  0
   42.8850   21.1880   35.4020 C   0  0  0  0  0  0  0  0  0  0  0  0
   43.4020   20.3180   34.9890 H   0  0  0  0  0  0  0  0  0  0  0  0
   41.6970   21.4850   34.9600 O   0  0  0  0  0  0  0  0  0  0  0  0
   38.1670   24.2720   36.9700 O   0  0  0  0  0  0  0  0  0  0  0  0
   38.2740   23.7950   38.2650 C   0  0  0  0  0  0  0  0  0  0  0  0
   39.5340   23.2930   38.4690 F   0  0  0  0  0  0  0  0  0  0  0  0
   38.1200   24.8730   39.1190 F   0  0  0  0  0  0  0  0  0  0  0  0
   37.2800   22.8900   38.6040 F   0  0  0  0  0  0  0  0  0  0  0  0
  1  7  1  6  0  0  0
  1 17  1  0  0  0  0
  1  6  1  0  0  0  0
  2  1  1  0  0  0  0
  2  3  1  0  0  0  0
  3  4  1  0  0  0  0
  3 11  1  0  0  0  0
  4  5  1  0  0  0  0
  4 12  1  0  0  0  0
  5  6  1  0  0  0  0
  5 14  1  0  0  0  0
  6 16  1  1  0  0  0
  6 26  1  0  0  0  0
  8  2  1  0  0  0  0
  9  2  1  0  0  0  0
 10  3  1  0  0  0  0
 13  4  1  0  0  0  0
 15  5  1  0  0  0  0
 17 22  1  0  0  0  0
 18 19  1  0  0  0  0
 18 17  2  0  0  0  0
 19 20  2  0  0  0  0
 20 21  1  0  0  0  0
 21 25  1  0  0  0  0
 22 21  2  0  0  0  0
 23 18  1  0  0  0  0
 24 19  1  0  0  0  0
 26 28  1  0  0  0  0
 27 26  1  0  0  0  0
 28 31  1  6  0  0  0
 28 29  1  0  0  0  0
 28 40  1  0  0  0  0
 29 30  1  0  0  0  0
 31 32  1  0  0  0  0
 32 33  2  0  0  0  0
 33 34  1  0  0  0  0
 35 33  1  0  0  0  0
 35 36  1  0  0  0  0
 37 35  2  0  0  0  0
 38 37  1  0  0  0  0
 39 37  1  0  0  0  0
 39 32  1  0  0  0  0
 40 41  1  0  0  0  0
 41 42  1  0  0  0  0
 41 44  1  0  0  0  0
 41 43  1  0  0  0  0
M  END
>  <minimizedAffinity>
-5.43290329

$$$$

 OpenBabel03262521083D

 44 46  0  0  1  0  0  0  0  0999 V2000
   40.8940   22.3050   35.9160 C   0  0  2  0  0  0  0  0  0  0  0  0
   42.1000   22.3390   36.7340 C   0  0  0  0  0  0  0  0  0  0  0  0
   43.0090   23.5220   36.4100 C   0  0  0  0  0  0  0  0  0  0  0  0
   43.4100   23.5480   34.9610 C   0  0  0  0  0  0  0  0  0  0  0  0
   42.3160   23.1230   34.0220 C   0  0  0  0  0  0  0  0  0  0  0  0
   40.9490   23.1830   34.6930 C   0  0  2  0  0  0  0  0  0  0  0  0
   40.7610   21.2490   35.5330 H   0  0  0  0  0  0  0  0  0  0  0  0
   42.7410   21.4080   36.6500 H   0  0  0  0  0  0  0  0  0  0  0  0
   41.9170   22.4420   37.8110 H   0  0  0  0  0  0  0  0  0  0  0  0
   43.9440   23.3230   36.9970 H   0  0  0  0  0  0  0  0  0  0  0  0
   42.6110   24.4770   36.7940 H   0  0  0  0  0  0  0  0  0  0  0  0
   43.6630   24.6050   34.7160 H   0  0  0  0  0  0  0  0  0  0  0  0
   44.3200   22.9530   34.7550 H   0  0  0  0  0  0  0  0  0  0  0  0
   42.2930   23.6310   33.0600 H   0  0  0  0  0  0  0  0  0  0  0  0
   42.4820   22.0290   33.8050 H   0  0  0  0  0  0  0  0  0  0  0  0
   40.2430   22.7420   33.9480 H   0  0  0  0  0  0  0  0  0  0  0  0
   39.6450   22.6200   36.6120 C   0  0  0  0  0  0  0  0  0  0  0  0
   39.8130   22.9840   37.9540 C   0  0  0  0  0  0  0  0  0  0  0  0
   38.6630   23.3090   38.6590 C   0  0  0  0  0  0  0  0  0  0  0  0
   37.4490   23.2590   38.0340 N   0  0  0  0  0  0  0  0  0  0  0  0
   37.3340   22.9020   36.7440 C   0  0  0  0  0  0  0  0  0  0  0  0
   38.4210   22.6010   36.0970 N   0  0  0  0  0  0  0  0  0  0  0  0
   40.6230   23.0820   38.6440 H   0  0  0  0  0  0  0  0  0  0  0  0
   38.5430   23.6170   39.6860 H   0  0  0  0  0  0  0  0  0  0  0  0
   36.3760   22.8590   36.2460 H   0  0  0  0  0  0  0  0  0  0  0  0
   40.6210   24.5320   34.8140 N   0  0  0  0  0  0  0  0  0  0  0  0
   40.2110   24.7210   35.7590 H   0  0  0  0  0  0  0  0  0  0  0  0
   39.5950   25.2020   33.6540 S   0  0  1  0  0  0  0  0  0  0  0  0
   40.4480   26.1380   32.8170 O   0  0  0  0  0  0  0  0  0  0  0  0
   40.7070   27.0590   33.0280 H   0  0  0  0  0  0  0  0  0  0  0  0
   38.9930   24.1870   32.7360 O   0  0  0  0  0  0  0  0  0  0  0  0
   37.7360   23.8070   32.3000 C   0  0  0  0  0  0  0  0  0  0  0  0
   37.1270   24.6660   31.3810 C   0  0  0  0  0  0  0  0  0  0  0  0
   37.4180   25.6070   30.9030 H   0  0  0  0  0  0  0  0  0  0  0  0
   35.8840   24.1050   31.0750 C   0  0  0  0  0  0  0  0  0  0  0  0
   35.0950   24.4290   30.4190 H   0  0  0  0  0  0  0  0  0  0  0  0
   35.8310   22.9600   31.8210 C   0  0  0  0  0  0  0  0  0  0  0  0
   35.0460   22.2040   31.9020 H   0  0  0  0  0  0  0  0  0  0  0  0
   36.9210   22.8180   32.5200 O   0  0  0  0  0  0  0  0  0  0  0  0
   38.3780   26.1510   34.3160 O   0  0  0  0  0  0  0  0  0  0  0  0
   38.7590   26.7640   35.4980 C   0  0  0  0  0  0  0  0  0  0  0  0
   40.0600   27.1850   35.4010 F   0  0  0  0  0  0  0  0  0  0  0  0
   37.9730   27.8910   35.6530 F   0  0  0  0  0  0  0  0  0  0  0  0
   38.5360   25.9820   36.6210 F   0  0  0  0  0  0  0  0  0  0  0  0
  1  7  1  6  0  0  0
  1 17  1  0  0  0  0
  1  2  1  0  0  0  0
  2  9  1  0  0  0  0
  3  2  1  0  0  0  0
  3 11  1  0  0  0  0
  3 10  1  0  0  0  0
  4  3  1  0  0  0  0
  5  6  1  0  0  0  0
  5  4  1  0  0  0  0
  6 16  1  6  0  0  0
  6 26  1  0  0  0  0
  6  1  1  0  0  0  0
  8  2  1  0  0  0  0
 12  4  1  0  0  0  0
 13  4  1  0  0  0  0
 14  5  1  0  0  0  0
 15  5  1  0  0  0  0
 17 18  1  0  0  0  0
 18 23  1  0  0  0  0
 18 19  2  0  0  0  0
 19 24  1  0  0  0  0
 20 19  1  0  0  0  0
 21 20  2  0  0  0  0
 22 17  2  0  0  0  0
 22 21  1  0  0  0  0
 25 21  1  0  0  0  0
 26 27  1  0  0  0  0
 28 31  1  6  0  0  0
 28 40  1  0  0  0  0
 28 26  1  0  0  0  0
 29 30  1  0  0  0  0
 29 28  1  0  0  0  0
 32 39  1  0  0  0  0
 32 31  1  0  0  0  0
 33 32  2  0  0  0  0
 34 33  1  0  0  0  0
 35 33  1  0  0  0  0
 35 37  2  0  0  0  0
 36 35  1  0  0  0  0
 37 38  1  0  0  0  0
 37 39  1  0  0  0  0
 40 41  1  0  0  0  0
 41 43  1  0  0  0  0
 41 44  1  0  0  0  0
 42 41  1  0  0  0  0
M  END
>  <minimizedAffinity>
-5.33362055

$$$$

 OpenBabel03262521083D

 44 46  0  0  1  0  0  0  0  0999 V2000
   38.3320   25.3400   31.7770 C   0  0  2  0  0  0  0  0  0  0  0  0
   37.3060   26.3490   31.5440 C   0  0  0  0  0  0  0  0  0  0  0  0
   35.8930   25.8350   31.7990 C   0  0  0  0  0  0  0  0  0  0  0  0
   35.5720   24.6230   30.9690 C   0  0  0  0  0  0  0  0  0  0  0  0
   36.7290   23.6780   30.8040 C   0  0  0  0  0  0  0  0  0  0  0  0
   37.8090   23.9300   31.8490 C   0  0  2  0  0  0  0  0  0  0  0  0
   39.0470   25.3600   30.9010 H   0  0  0  0  0  0  0  0  0  0  0  0
   37.3090   26.7760   30.4930 H   0  0  0  0  0  0  0  0  0  0  0  0
   37.3810   27.2320   32.1920 H   0  0  0  0  0  0  0  0  0  0  0  0
   35.2260   26.6600   31.4330 H   0  0  0  0  0  0  0  0  0  0  0  0
   35.6710   25.7270   32.8750 H   0  0  0  0  0  0  0  0  0  0  0  0
   34.7680   24.0690   31.5050 H   0  0  0  0  0  0  0  0  0  0  0  0
   35.1640   24.8780   29.9730 H   0  0  0  0  0  0  0  0  0  0  0  0
   36.4760   22.6210   30.7610 H   0  0  0  0  0  0  0  0  0  0  0  0
   37.2180   23.9330   29.8200 H   0  0  0  0  0  0  0  0  0  0  0  0
   38.6520   23.2570   31.5590 H   0  0  0  0  0  0  0  0  0  0  0  0
   39.1700   25.5460   32.9590 C   0  0  0  0  0  0  0  0  0  0  0  0
   38.9400   26.7600   33.6200 C   0  0  0  0  0  0  0  0  0  0  0  0
   39.6960   27.0020   34.7580 C   0  0  0  0  0  0  0  0  0  0  0  0
   40.6080   26.0750   35.1740 N   0  0  0  0  0  0  0  0  0  0  0  0
   40.7970   24.9230   34.5090 C   0  0  0  0  0  0  0  0  0  0  0  0
   40.0810   24.7110   33.4450 N   0  0  0  0  0  0  0  0  0  0  0  0
   38.3170   27.6190   33.4880 H   0  0  0  0  0  0  0  0  0  0  0  0
   39.6940   27.8520   35.4230 H   0  0  0  0  0  0  0  0  0  0  0  0
   41.5190   24.1870   34.8340 H   0  0  0  0  0  0  0  0  0  0  0  0
   37.3100   23.4550   33.0620 N   0  0  0  0  0  0  0  0  0  0  0  0
   37.4980   24.1460   33.8250 H   0  0  0  0  0  0  0  0  0  0  0  0
   37.8300   21.9380   33.5890 S   0  0  1  0  0  0  0  0  0  0  0  0
   39.2350   21.7540   33.0460 O   0  0  0  0  0  0  0  0  0  0  0  0
   39.4950   21.4610   32.1480 H   0  0  0  0  0  0  0  0  0  0  0  0
   37.8940   21.8150   35.0780 O   0  0  0  0  0  0  0  0  0  0  0  0
   38.7190   22.2190   36.1120 C   0  0  0  0  0  0  0  0  0  0  0  0
   38.1600   23.1280   37.0140 C   0  0  0  0  0  0  0  0  0  0  0  0
   37.1850   23.6190   37.1030 H   0  0  0  0  0  0  0  0  0  0  0  0
   39.1460   23.4000   37.9670 C   0  0  0  0  0  0  0  0  0  0  0  0
   39.1470   24.0390   38.8330 H   0  0  0  0  0  0  0  0  0  0  0  0
   40.2180   22.6450   37.5780 C   0  0  0  0  0  0  0  0  0  0  0  0
   41.2100   22.5410   38.0240 H   0  0  0  0  0  0  0  0  0  0  0  0
   39.9360   21.9720   36.4990 O   0  0  0  0  0  0  0  0  0  0  0  0
   36.9210   20.6730   32.9610 O   0  0  0  0  0  0  0  0  0  0  0  0
   35.6000   20.7040   33.3750 C   0  0  0  0  0  0  0  0  0  0  0  0
   34.9210   21.6710   32.6790 F   0  0  0  0  0  0  0  0  0  0  0  0
   35.0330   19.4870   33.0460 F   0  0  0  0  0  0  0  0  0  0  0  0
   35.4560   20.8380   34.7470 F   0  0  0  0  0  0  0  0  0  0  0  0
  1  7  1  6  0  0  0
  1  6  1  0  0  0  0
  1 17  1  0  0  0  0
  2  1  1  0  0  0  0
  2  3  1  0  0  0  0
  2  9  1  0  0  0  0
  3 11  1  0  0  0  0
  4 12  1  0  0  0  0
  4  3  1  0  0  0  0
  5  4  1  0  0  0  0
  5  6  1  0  0  0  0
  6 16  1  6  0  0  0
  6 26  1  0  0  0  0
  8  2  1  0  0  0  0
 10  3  1  0  0  0  0
 13  4  1  0  0  0  0
 14  5  1  0  0  0  0
 15  5  1  0  0  0  0
 17 22  2  0  0  0  0
 17 18  1  0  0  0  0
 18 19  2  0  0  0  0
 19 20  1  0  0  0  0
 19 24  1  0  0  0  0
 21 25  1  0  0  0  0
 21 20  2  0  0  0  0
 22 21  1  0  0  0  0
 23 18  1  0  0  0  0
 26 28  1  0  0  0  0
 26 27  1  0  0  0  0
 28 40  1  6  0  0  0
 28 31  1  0  0  0  0
 29 28  1  0  0  0  0
 30 29  1  0  0  0  0
 31 32  1  0  0  0  0
 32 39  1  0  0  0  0
 32 33  2  0  0  0  0
 33 34  1  0  0  0  0
 33 35  1  0  0  0  0
 35 36  1  0  0  0  0
 37 35  2  0  0  0  0
 37 38  1  0  0  0  0
 39 37  1  0  0  0  0
 40 41  1  0  0  0  0
 41 44  1  0  0  0  0
 42 41  1  0  0  0  0
 43 41  1  0  0  0  0
M  END
>  <minimizedAffinity>
-5.32043028

$$$$

 OpenBabel03262521083D

 44 46  0  0  1  0  0  0  0  0999 V2000
   37.1560   22.9850   31.4760 C   0  0  2  0  0  0  0  0  0  0  0  0
   35.9090   22.2920   31.1780 C   0  0  0  0  0  0  0  0  0  0  0  0
   35.3280   21.5630   32.3860 C   0  0  0  0  0  0  0  0  0  0  0  0
   36.2980   20.5760   32.9730 C   0  0  0  0  0  0  0  0  0  0  0  0
   37.7250   21.0460   32.9570 C   0  0  0  0  0  0  0  0  0  0  0  0
   37.8140   22.5550   32.7610 C   0  0  2  0  0  0  0  0  0  0  0  0
   37.8950   22.7440   30.6540 H   0  0  0  0  0  0  0  0  0  0  0  0
   35.9950   21.5250   30.3480 H   0  0  0  0  0  0  0  0  0  0  0  0
   35.0910   22.9480   30.8540 H   0  0  0  0  0  0  0  0  0  0  0  0
   34.4770   20.9650   31.9660 H   0  0  0  0  0  0  0  0  0  0  0  0
   34.8760   22.2540   33.1190 H   0  0  0  0  0  0  0  0  0  0  0  0
   36.0090   20.4350   34.0390 H   0  0  0  0  0  0  0  0  0  0  0  0
   36.2370   19.5770   32.4990 H   0  0  0  0  0  0  0  0  0  0  0  0
   38.3370   20.7330   33.8010 H   0  0  0  0  0  0  0  0  0  0  0  0
   38.2010   20.6080   32.0330 H   0  0  0  0  0  0  0  0  0  0  0  0
   38.9050   22.7670   32.6520 H   0  0  0  0  0  0  0  0  0  0  0  0
   37.0810   24.4470   31.5040 C   0  0  0  0  0  0  0  0  0  0  0  0
   35.8170   24.9620   31.1870 C   0  0  0  0  0  0  0  0  0  0  0  0
   35.6830   26.3420   31.2140 C   0  0  0  0  0  0  0  0  0  0  0  0
   36.7580   27.1200   31.5350 N   0  0  0  0  0  0  0  0  0  0  0  0
   37.9530   26.5840   31.8300 C   0  0  0  0  0  0  0  0  0  0  0  0
   38.0630   25.2890   31.8020 N   0  0  0  0  0  0  0  0  0  0  0  0
   34.8630   24.5750   30.9020 H   0  0  0  0  0  0  0  0  0  0  0  0
   34.8200   26.9590   31.0120 H   0  0  0  0  0  0  0  0  0  0  0  0
   38.8080   27.1960   32.0840 H   0  0  0  0  0  0  0  0  0  0  0  0
   37.4040   23.1390   33.9580 N   0  0  0  0  0  0  0  0  0  0  0  0
   37.0490   24.1080   33.7850 H   0  0  0  0  0  0  0  0  0  0  0  0
   38.5180   23.2090   35.2240 S   0  0  1  0  0  0  0  0  0  0  0  0
   39.5430   22.1220   34.9540 O   0  0  0  0  0  0  0  0  0  0  0  0
   39.4670   21.1660   35.1570 H   0  0  0  0  0  0  0  0  0  0  0  0
   39.2450   24.5130   35.3060 O   0  0  0  0  0  0  0  0  0  0  0  0
   40.1450   25.2430   34.5490 C   0  0  0  0  0  0  0  0  0  0  0  0
   40.1910   26.6140   34.8180 C   0  0  0  0  0  0  0  0  0  0  0  0
   39.6650   27.2760   35.5120 H   0  0  0  0  0  0  0  0  0  0  0  0
   41.1510   27.1550   33.9570 C   0  0  0  0  0  0  0  0  0  0  0  0
   41.5060   28.1630   33.8250 H   0  0  0  0  0  0  0  0  0  0  0  0
   41.6100   26.0860   33.2390 C   0  0  0  0  0  0  0  0  0  0  0  0
   42.3660   26.0350   32.4500 H   0  0  0  0  0  0  0  0  0  0  0  0
   41.0060   24.9930   33.6070 O   0  0  0  0  0  0  0  0  0  0  0  0
   37.8440   22.8490   36.7190 O   0  0  0  0  0  0  0  0  0  0  0  0
   38.5320   23.4280   37.7710 C   0  0  0  0  0  0  0  0  0  0  0  0
   38.2240   24.7630   37.8450 F   0  0  0  0  0  0  0  0  0  0  0  0
   38.0800   22.8390   38.9380 F   0  0  0  0  0  0  0  0  0  0  0  0
   39.8990   23.2000   37.7290 F   0  0  0  0  0  0  0  0  0  0  0  0
  1  7  1  6  0  0  0
  1 17  1  0  0  0  0
  1  6  1  0  0  0  0
  2  1  1  0  0  0  0
  2  3  1  0  0  0  0
  3  4  1  0  0  0  0
  3 11  1  0  0  0  0
  4 12  1  0  0  0  0
  5  4  1  0  0  0  0
  5 14  1  0  0  0  0
  6 16  1  6  0  0  0
  6  5  1  0  0  0  0
  6 26  1  0  0  0  0
  8  2  1  0  0  0  0
  9  2  1  0  0  0  0
 10  3  1  0  0  0  0
 13  4  1  0  0  0  0
 15  5  1  0  0  0  0
 17 22  1  0  0  0  0
 18 19  1  0  0  0  0
 18 17  2  0  0  0  0
 19 20  2  0  0  0  0
 20 21  1  0  0  0  0
 21 25  1  0  0  0  0
 22 21  2  0  0  0  0
 23 18  1  0  0  0  0
 24 19  1  0  0  0  0
 26 28  1  0  0  0  0
 27 26  1  0  0  0  0
 28 29  1  6  0  0  0
 28 31  1  0  0  0  0
 28 40  1  0  0  0  0
 29 30  1  0  0  0  0
 32 33  2  0  0  0  0
 32 31  1  0  0  0  0
 33 34  1  0  0  0  0
 35 33  1  0  0  0  0
 36 35  1  0  0  0  0
 37 39  1  0  0  0  0
 37 35  2  0  0  0  0
 38 37  1  0  0  0  0
 39 32  1  0  0  0  0
 40 41  1  0  0  0  0
 41 42  1  0  0  0  0
 41 43  1  0  0  0  0
 44 41  1  0  0  0  0
M  END
>  <minimizedAffinity>
-5.28278971

$$$$

 OpenBabel03262521083D

 44 46  0  0  1  0  0  0  0  0999 V2000
   38.6090   26.3310   34.4700 C   0  0  2  0  0  0  0  0  0  0  0  0
   37.9770   27.4210   35.2010 C   0  0  0  0  0  0  0  0  0  0  0  0
   36.6640   27.8800   34.5720 C   0  0  0  0  0  0  0  0  0  0  0  0
   36.8380   28.3000   33.1390 C   0  0  0  0  0  0  0  0  0  0  0  0
   37.8150   27.4520   32.3740 C   0  0  0  0  0  0  0  0  0  0  0  0
   38.0730   26.1250   33.0770 C   0  0  2  0  0  0  0  0  0  0  0  0
   39.7050   26.5810   34.3460 H   0  0  0  0  0  0  0  0  0  0  0  0
   38.6260   28.3450   35.3030 H   0  0  0  0  0  0  0  0  0  0  0  0
   37.6960   27.1750   36.2330 H   0  0  0  0  0  0  0  0  0  0  0  0
   36.3900   28.8050   35.1460 H   0  0  0  0  0  0  0  0  0  0  0  0
   35.8400   27.1660   34.7460 H   0  0  0  0  0  0  0  0  0  0  0  0
   35.8450   28.1840   32.6470 H   0  0  0  0  0  0  0  0  0  0  0  0
   37.1160   29.3660   33.0320 H   0  0  0  0  0  0  0  0  0  0  0  0
   37.5830   27.2910   31.3230 H   0  0  0  0  0  0  0  0  0  0  0  0
   38.8060   27.9910   32.4070 H   0  0  0  0  0  0  0  0  0  0  0  0
   38.8880   25.6400   32.4860 H   0  0  0  0  0  0  0  0  0  0  0  0
   38.5880   25.0250   35.1320 C   0  0  0  0  0  0  0  0  0  0  0  0
   38.0000   25.0370   36.4030 C   0  0  0  0  0  0  0  0  0  0  0  0
   37.9380   23.8220   37.0720 C   0  0  0  0  0  0  0  0  0  0  0  0
   38.4420   22.6990   36.4810 N   0  0  0  0  0  0  0  0  0  0  0  0
   39.0000   22.7340   35.2600 C   0  0  0  0  0  0  0  0  0  0  0  0
   39.0490   23.8790   34.6460 N   0  0  0  0  0  0  0  0  0  0  0  0
   37.5630   25.7600   37.0580 H   0  0  0  0  0  0  0  0  0  0  0  0
   37.5350   23.5870   38.0440 H   0  0  0  0  0  0  0  0  0  0  0  0
   39.4020   21.8470   34.7890 H   0  0  0  0  0  0  0  0  0  0  0  0
   36.9280   25.3500   32.9010 N   0  0  0  0  0  0  0  0  0  0  0  0
   36.8290   24.6670   33.6870 H   0  0  0  0  0  0  0  0  0  0  0  0
   36.7620   24.5050   31.4490 S   0  0  1  0  0  0  0  0  0  0  0  0
   36.4660   25.5410   30.3810 O   0  0  0  0  0  0  0  0  0  0  0  0
   35.6010   25.9500   30.1680 H   0  0  0  0  0  0  0  0  0  0  0  0
   38.0000   23.7700   31.0450 O   0  0  0  0  0  0  0  0  0  0  0  0
   38.7130   23.5070   29.8880 C   0  0  0  0  0  0  0  0  0  0  0  0
   39.2060   22.2050   29.7630 C   0  0  0  0  0  0  0  0  0  0  0  0
   39.1620   21.3060   30.3870 H   0  0  0  0  0  0  0  0  0  0  0  0
   39.8850   22.1530   28.5420 C   0  0  0  0  0  0  0  0  0  0  0  0
   40.4120   21.3540   28.0500 H   0  0  0  0  0  0  0  0  0  0  0  0
   39.7540   23.4110   28.0220 C   0  0  0  0  0  0  0  0  0  0  0  0
   40.1250   23.8310   27.0840 H   0  0  0  0  0  0  0  0  0  0  0  0
   39.0690   24.1710   28.8280 O   0  0  0  0  0  0  0  0  0  0  0  0
   35.4570   23.4480   31.4450 O   0  0  0  0  0  0  0  0  0  0  0  0
   35.7710   22.2060   31.9690 C   0  0  0  0  0  0  0  0  0  0  0  0
   34.6420   21.6250   32.4870 F   0  0  0  0  0  0  0  0  0  0  0  0
   36.1970   21.4090   30.9220 F   0  0  0  0  0  0  0  0  0  0  0  0
   36.8160   22.2390   32.8780 F   0  0  0  0  0  0  0  0  0  0  0  0
  1  7  1  6  0  0  0
  1 17  1  0  0  0  0
  1  2  1  0  0  0  0
  2  8  1  0  0  0  0
  2  9  1  0  0  0  0
  3 11  1  0  0  0  0
  3 10  1  0  0  0  0
  3  2  1  0  0  0  0
  4  3  1  0  0  0  0
  5 15  1  0  0  0  0
  5  6  1  0  0  0  0
  5  4  1  0  0  0  0
  6 16  1  6  0  0  0
  6  1  1  0  0  0  0
 12  4  1  0  0  0  0
 13  4  1  0  0  0  0
 14  5  1  0  0  0  0
 17 18  1  0  0  0  0
 18 23  1  0  0  0  0
 18 19  2  0  0  0  0
 19 24  1  0  0  0  0
 20 19  1  0  0  0  0
 21 20  2  0  0  0  0
 22 17  2  0  0  0  0
 22 21  1  0  0  0  0
 25 21  1  0  0  0  0
 26  6  1  0  0  0  0
 26 27  1  0  0  0  0
 28 29  1  6  0  0  0
 28 26  1  0  0  0  0
 30 29  1  0  0  0  0
 31 28  1  0  0  0  0
 32 31  1  0  0  0  0
 33 32  2  0  0  0  0
 33 34  1  0  0  0  0
 35 33  1  0  0  0  0
 36 35  1  0  0  0  0
 37 35  2  0  0  0  0
 37 39  1  0  0  0  0
 38 37  1  0  0  0  0
 39 32  1  0  0  0  0
 40 28  1  0  0  0  0
 40 41  1  0  0  0  0
 41 42  1  0  0  0  0
 41 44  1  0  0  0  0
 43 41  1  0  0  0  0
M  END
>  <minimizedAffinity>
-5.27929354

$$$$

 OpenBabel03262521083D

 44 46  0  0  1  0  0  0  0  0999 V2000
   38.9710   26.2490   35.1750 C   0  0  2  0  0  0  0  0  0  0  0  0
   38.1160   27.3640   35.5590 C   0  0  0  0  0  0  0  0  0  0  0  0
   36.8940   27.5180   34.6570 C   0  0  0  0  0  0  0  0  0  0  0  0
   37.2730   27.6780   33.2110 C   0  0  0  0  0  0  0  0  0  0  0  0
   38.4490   26.8390   32.7960 C   0  0  0  0  0  0  0  0  0  0  0  0
   38.7100   25.7150   33.7910 C   0  0  2  0  0  0  0  0  0  0  0  0
   40.0410   26.6150   35.1690 H   0  0  0  0  0  0  0  0  0  0  0  0
   38.6420   28.3690   35.5630 H   0  0  0  0  0  0  0  0  0  0  0  0
   37.6850   27.2830   36.5650 H   0  0  0  0  0  0  0  0  0  0  0  0
   36.4330   28.4900   34.9770 H   0  0  0  0  0  0  0  0  0  0  0  0
   36.1280   26.7470   34.8490 H   0  0  0  0  0  0  0  0  0  0  0  0
   36.3990   27.3410   32.6090 H   0  0  0  0  0  0  0  0  0  0  0  0
   37.4590   28.7320   32.9280 H   0  0  0  0  0  0  0  0  0  0  0  0
   38.4210   26.4530   31.7800 H   0  0  0  0  0  0  0  0  0  0  0  0
   39.3600   27.5010   32.8660 H   0  0  0  0  0  0  0  0  0  0  0  0
   39.6600   25.2390   33.4440 H   0  0  0  0  0  0  0  0  0  0  0  0
   38.9650   25.1010   36.0840 C   0  0  0  0  0  0  0  0  0  0  0  0
   38.0410   25.2040   37.1310 C   0  0  0  0  0  0  0  0  0  0  0  0
   37.9800   24.1370   38.0150 C   0  0  0  0  0  0  0  0  0  0  0  0
   38.8020   23.0610   37.8350 N   0  0  0  0  0  0  0  0  0  0  0  0
   39.6760   23.0050   36.8160 C   0  0  0  0  0  0  0  0  0  0  0  0
   39.7200   24.0120   35.9960 N   0  0  0  0  0  0  0  0  0  0  0  0
   37.3260   25.9190   37.4780 H   0  0  0  0  0  0  0  0  0  0  0  0
   37.3550   23.9900   38.8830 H   0  0  0  0  0  0  0  0  0  0  0  0
   40.3300   22.1560   36.6700 H   0  0  0  0  0  0  0  0  0  0  0  0
   37.6960   24.7760   33.6090 N   0  0  0  0  0  0  0  0  0  0  0  0
   37.3130   24.4740   34.5340 H   0  0  0  0  0  0  0  0  0  0  0  0
   38.0550   23.3900   32.7140 S   0  0  1  0  0  0  0  0  0  0  0  0
   38.8410   22.4760   33.6370 O   0  0  0  0  0  0  0  0  0  0  0  0
   39.7980   22.5140   33.8430 H   0  0  0  0  0  0  0  0  0  0  0  0
   36.8420   22.6460   32.2560 O   0  0  0  0  0  0  0  0  0  0  0  0
   36.2270   21.4290   32.4920 C   0  0  0  0  0  0  0  0  0  0  0  0
   35.2330   21.0660   31.5790 C   0  0  0  0  0  0  0  0  0  0  0  0
   34.8050   21.5330   30.6860 H   0  0  0  0  0  0  0  0  0  0  0  0
   34.7490   19.8220   31.9940 C   0  0  0  0  0  0  0  0  0  0  0  0
   33.9860   19.1790   31.5870 H   0  0  0  0  0  0  0  0  0  0  0  0
   35.4760   19.5250   33.1130 C   0  0  0  0  0  0  0  0  0  0  0  0
   35.4390   18.6530   33.7700 H   0  0  0  0  0  0  0  0  0  0  0  0
   36.3240   20.4780   33.3730 O   0  0  0  0  0  0  0  0  0  0  0  0
   39.0560   23.6930   31.3990 O   0  0  0  0  0  0  0  0  0  0  0  0
   38.3510   24.0050   30.2500 C   0  0  0  0  0  0  0  0  0  0  0  0
   39.1490   24.7270   29.4000 F   0  0  0  0  0  0  0  0  0  0  0  0
   38.0460   22.8160   29.6130 F   0  0  0  0  0  0  0  0  0  0  0  0
   37.1390   24.6300   30.4990 F   0  0  0  0  0  0  0  0  0  0  0  0
  1  7  1  6  0  0  0
  1  2  1  0  0  0  0
  1 17  1  0  0  0  0
  2  8  1  0  0  0  0
  2  9  1  0  0  0  0
  3 11  1  0  0  0  0
  3 10  1  0  0  0  0
  3  2  1  0  0  0  0
  4  3  1  0  0  0  0
  5 15  1  0  0  0  0
  5  4  1  0  0  0  0
  5  6  1  0  0  0  0
  6 16  1  6  0  0  0
  6  1  1  0  0  0  0
 12  4  1  0  0  0  0
 13  4  1  0  0  0  0
 14  5  1  0  0  0  0
 17 18  1  0  0  0  0
 18 23  1  0  0  0  0
 18 19  2  0  0  0  0
 19 24  1  0  0  0  0
 20 19  1  0  0  0  0
 21 20  2  0  0  0  0
 22 17  2  0  0  0  0
 22 21  1  0  0  0  0
 25 21  1  0  0  0  0
 26  6  1  0  0  0  0
 26 27  1  0  0  0  0
 28 40  1  6  0  0  0
 28 26  1  0  0  0  0
 28 29  1  0  0  0  0
 29 30  1  0  0  0  0
 31 32  1  0  0  0  0
 31 28  1  0  0  0  0
 32 39  1  0  0  0  0
 33 35  1  0  0  0  0
 33 32  2  0  0  0  0
 34 33  1  0  0  0  0
 35 37  2  0  0  0  0
 36 35  1  0  0  0  0
 37 39  1  0  0  0  0
 37 38  1  0  0  0  0
 41 44  1  0  0  0  0
 41 40  1  0  0  0  0
 42 41  1  0  0  0  0
 43 41  1  0  0  0  0
M  END
>  <minimizedAffinity>
-5.2526083

$$$$
