
     RDKit          3D

 22 23  0  0  0  0  0  0  0  0999 V2000
   35.6174   29.0152   50.1814 C   0  0  0  0  0  0  0  0  0  0  0  0
   36.2887   30.1516   49.6536 C   0  0  0  0  0  0  0  0  0  0  0  0
   36.0415   30.4996   48.3349 C   0  0  0  0  0  0  0  0  0  0  0  0
   35.1691   29.7356   47.6162 N   0  0  0  0  0  0  0  0  0  0  0  0
   34.5467   28.6628   48.1423 C   0  0  0  0  0  0  0  0  0  0  0  0
   34.7704   28.2997   49.4286 N   0  0  0  0  0  0  0  0  0  0  0  0
   33.6886   28.0301   47.1993 N   0  0  0  0  0  0  0  0  0  0  0  0
   37.2243   30.9141   50.5327 C   0  0  0  0  0  0  0  0  0  0  0  0
   38.5242   30.7893   50.0905 F   0  0  0  0  0  0  0  0  0  0  0  0
   36.8552   32.2275   50.5214 F   0  0  0  0  0  0  0  0  0  0  0  0
   37.1868   30.4676   51.8431 F   0  0  0  0  0  0  0  0  0  0  0  0
   35.8050   28.7476   51.1895 H   0  0  0  0  0  0  0  0  0  0  0  0
   32.9917   28.5825   46.6716 H   0  0  0  0  0  0  0  0  0  0  0  0
   33.8771   27.0017   47.1460 H   0  0  0  0  0  0  0  0  0  0  0  0
   36.7054   31.6340   47.7183 C   0  0  0  0  0  0  0  0  0  0  0  0
   36.8641   32.8537   48.3412 C   0  0  0  0  0  0  0  0  0  0  0  0
   36.5161   33.1042   49.3508 H   0  0  0  0  0  0  0  0  0  0  0  0
   37.5268   33.7589   47.5417 C   0  0  0  0  0  0  0  0  0  0  0  0
   37.8148   34.7858   47.7084 H   0  0  0  0  0  0  0  0  0  0  0  0
   37.7582   33.0169   46.4032 C   0  0  0  0  0  0  0  0  0  0  0  0
   38.2563   33.3027   45.4817 H   0  0  0  0  0  0  0  0  0  0  0  0
   37.2736   31.8366   46.5670 O   0  0  0  0  0  0  0  0  0  0  0  0
  2  1  2  0
  2  8  1  0
  3  2  1  0
  4  5  1  0
  4  3  2  0
  5  6  2  0
  6  1  1  0
  7  5  1  0
  8 11  1  0
  9  8  1  0
 10  8  1  0
  1 12  1  0
  7 13  1  0
  7 14  1  0
 15 16  2  0
 16 17  1  0
 16 18  1  0
 18 19  1  0
 18 20  2  0
 20 21  1  0
 20 22  1  0
 22 15  1  0
  3 15  1  0
M  ISO  4  12  14  17  16  19  16  21  14
M  END
>  <DihAtoms>  (1) 
1,2,14,15

>  <DihDeg>  (1) 
-178.7982727980345

$$$$
