
     RDKit          3D

 29 31  0  0  0  0  0  0  0  0999 V2000
   38.8763   31.8800   47.7652 C   0  0  0  0  0  0  0  0  0  0  0  0
   38.3550   32.1260   49.0196 C   0  0  0  0  0  0  0  0  0  0  0  0
   38.6820   33.3749   49.5627 C   0  0  0  0  0  0  0  0  0  0  0  0
   39.4746   34.2810   48.8688 C   0  0  0  0  0  0  0  0  0  0  0  0
   39.9585   33.9458   47.6031 C   0  0  0  0  0  0  0  0  0  0  0  0
   39.6496   32.7131   47.0398 C   0  0  0  0  0  0  0  0  0  0  0  0
   36.2052   30.9894   49.3719 C   0  0  0  0  0  0  0  0  0  0  0  0
   37.5366   31.1893   49.7351 C   0  0  0  0  0  0  0  0  0  0  0  0
   38.0233   30.4407   50.8157 C   0  0  0  0  0  0  0  0  0  0  0  0
   37.1739   29.5736   51.4371 N   0  0  0  0  0  0  0  0  0  0  0  0
   35.8953   29.4168   51.0477 C   0  0  0  0  0  0  0  0  0  0  0  0
   35.4084   30.1293   50.0087 N   0  0  0  0  0  0  0  0  0  0  0  0
   38.6064   30.6602   47.1380 O   0  0  0  0  0  0  0  0  0  0  0  0
   40.1537   32.4349   45.7886 O   0  0  0  0  0  0  0  0  0  0  0  0
   38.3204   33.6602   50.5414 H   0  0  0  0  0  0  0  0  0  0  0  0
   39.7380   35.2512   49.2723 H   0  0  0  0  0  0  0  0  0  0  0  0
   40.5821   34.6591   47.0575 H   0  0  0  0  0  0  0  0  0  0  0  0
   35.7920   31.5486   48.5427 H   0  0  0  0  0  0  0  0  0  0  0  0
   39.0512   30.5983   51.0923 H   0  0  0  0  0  0  0  0  0  0  0  0
   35.4390   28.6770   51.6975 H   0  0  0  0  0  0  0  0  0  0  0  0
   37.7235   30.4995   46.6319 H   0  0  0  0  0  0  0  0  0  0  0  0
   39.3781   32.1557   44.6724 C   0  0  0  0  0  0  0  0  0  0  0  0
   40.0654   32.2290   43.4602 C   0  0  0  0  0  0  0  0  0  0  0  0
   41.0749   32.4519   43.1357 H   0  0  0  0  0  0  0  0  0  0  0  0
   39.1361   31.9213   42.4608 C   0  0  0  0  0  0  0  0  0  0  0  0
   39.1030   31.8280   41.3837 H   0  0  0  0  0  0  0  0  0  0  0  0
   37.9509   31.6829   43.1353 C   0  0  0  0  0  0  0  0  0  0  0  0
   36.9123   31.4107   42.9245 H   0  0  0  0  0  0  0  0  0  0  0  0
   38.1270   31.8285   44.4292 O   0  0  0  0  0  0  0  0  0  0  0  0
  1  2  2  0
  2  3  1  0
  2  8  1  0
  4  3  2  0
  5  4  1  0
  6  5  2  0
  6  1  1  0
  7  8  2  0
  7 12  1  0
  8  9  1  0
  9 10  2  0
 11 10  1  0
 12 11  2  0
 13  1  1  0
 14  6  1  0
  3 15  1  0
  4 16  1  0
  5 17  1  0
  7 18  1  0
  9 19  1  0
 11 20  1  0
 13 21  1  0
 22 23  2  0
 23 24  1  0
 23 25  1  0
 25 26  1  0
 25 27  2  0
 27 28  1  0
 27 29  1  0
 29 22  1  0
 14 22  1  0
M  ISO  8  15  14  16  14  17  14  18  14  19  14  20  14  21   3  24  16
M  ISO  2  26  16  28  14
M  END
>  <DihAtoms>  (1) 
5,13,21,22

>  <DihDeg>  (1) 
179.99966560533207

$$$$
