REMARK  Name = 
REMARK  7 active torsions:
REMARK  status: ('A' for Active; 'I' for Inactive)
REMARK    1  A    between atoms: C_3  and  C_9
REMARK    2  A    between atoms: C_5  and  O_14
REMARK    3  A    between atoms: O_14  and  C_15
REMARK    4  A    between atoms: C_15  and  C_16
REMARK    5  A    between atoms: C_16  and  C_17
REMARK    6  A    between atoms: C_21  and  C_23
REMARK    7  A    between atoms: C_23  and  C_38
REMARK                            x       y       z     vdW  Elec       q    Type
REMARK                         _______ _______ _______ _____ _____    ______ ____
ROOT
ATOM      1  C   UNL     1      34.455  28.631  48.178  0.00  0.00    +0.000 C 
ATOM      2  H   UNL     1      35.329  28.646  47.480  0.00  0.00    +0.000 HD
ATOM      3  H   UNL     1      33.992  29.626  48.108  0.00  0.00    +0.000 HD
ENDROOT
BRANCH   1   4
ATOM      4  C   UNL     1      33.562  27.521  47.698  0.00  0.00    +0.000 C 
ATOM      5  H   UNL     1      33.726  26.623  48.296  0.00  0.00    +0.000 HD
ATOM      6  H   UNL     1      33.776  27.245  46.637  0.00  0.00    +0.000 HD
BRANCH   4   7
ATOM      7  C   UNL     1      32.116  27.889  47.739  0.00  0.00    +0.000 A 
ATOM      8  C   UNL     1      31.373  27.478  48.849  0.00  0.00    +0.000 A 
ATOM      9  C   UNL     1      30.038  27.773  48.968  0.00  0.00    +0.000 A 
ATOM     10  N   UNL     1      29.431  28.469  48.001  0.00  0.00    +0.000 NA
ATOM     11  C   UNL     1      30.176  28.858  46.929  0.00  0.00    +0.000 A 
ATOM     12  N   UNL     1      31.483  28.587  46.780  0.00  0.00    +0.000 NA
ATOM     13  H   UNL     1      31.801  26.913  49.667  0.00  0.00    +0.000 HD
ATOM     14  H   UNL     1      29.441  27.465  49.819  0.00  0.00    +0.000 HD
BRANCH  11  15
ATOM     15  C   UNL     1      29.447  29.636  45.871  0.00  0.00    +0.000 C 
ATOM     16  H   UNL     1      29.920  29.345  44.910  0.00  0.00    +0.000 HD
ATOM     17  H   UNL     1      28.398  29.267  45.825  0.00  0.00    +0.000 HD
BRANCH  15  18
ATOM     18  C   UNL     1      29.507  31.094  46.146  0.00  0.00    +0.000 A 
ATOM     19  C   UNL     1      28.390  31.883  46.344  0.00  0.00    +0.000 A 
ATOM     20  H   UNL     1      27.356  31.516  46.318  0.00  0.00    +0.000 HD
ATOM     21  C   UNL     1      28.880  33.157  46.565  0.00  0.00    +0.000 A 
ATOM     22  H   UNL     1      28.172  33.963  46.748  0.00  0.00    +0.000 HD
ATOM     23  C   UNL     1      30.275  33.079  46.490  0.00  0.00    +0.000 A 
ATOM     24  H   UNL     1      30.812  34.005  46.643  0.00  0.00    +0.000 HD
ATOM     25  O   UNL     1      30.567  31.838  46.242  0.00  0.00    +0.000 OA
ENDBRANCH  15  18
ENDBRANCH  11  15
ENDBRANCH   4   7
ENDBRANCH   1   4
BRANCH   1  26
ATOM     26  O   UNL     1      34.991  28.357  49.455  0.00  0.00    +0.000 OA
BRANCH  26  31
ATOM     27  C   UNL     1      37.340  30.176  51.515  0.00  0.00    +0.000 A 
ATOM     28  C   UNL     1      38.071  30.864  50.523  0.00  0.00    +0.000 A 
ATOM     29  C   UNL     1      37.701  30.652  49.201  0.00  0.00    +0.000 A 
ATOM     30  N   UNL     1      36.657  29.791  48.990  0.00  0.00    +0.000 NA
ATOM     31  C   UNL     1      35.982  29.153  49.935  0.00  0.00    +0.000 A 
ATOM     32  N   UNL     1      36.338  29.356  51.222  0.00  0.00    +0.000 NA
ATOM     33  H   UNL     1      37.657  30.366  52.538  0.00  0.00    +0.000 HD
ATOM     34  H   UNL     1      38.885  31.535  50.700  0.00  0.00    +0.000 HD
BRANCH  29  37
ATOM     35  F   UNL     1      38.936  33.268  49.015  0.00  0.00    +0.000 F 
ATOM     36  C   UNL     1      38.905  32.475  47.949  0.00  0.00    +0.000 A 
ATOM     37  C   UNL     1      38.332  31.268  48.046  0.00  0.00    +0.000 A 
ATOM     38  C   UNL     1      38.355  30.524  46.878  0.00  0.00    +0.000 A 
ATOM     39  C   UNL     1      38.916  30.980  45.716  0.00  0.00    +0.000 A 
ATOM     40  C   UNL     1      39.498  32.233  45.657  0.00  0.00    +0.000 A 
ATOM     41  C   UNL     1      39.484  32.974  46.794  0.00  0.00    +0.000 A 
ATOM     42  H   UNL     1      37.916  29.520  46.834  0.00  0.00    +0.000 HD
ATOM     43  H   UNL     1      38.919  30.375  44.816  0.00  0.00    +0.000 HD
ATOM     44  H   UNL     1      39.955  32.635  44.756  0.00  0.00    +0.000 HD
ATOM     45  H   UNL     1      39.933  33.958  46.774  0.00  0.00    +0.000 HD
ENDBRANCH  29  37
ENDBRANCH  26  31
ENDBRANCH   1  26
TORSDOF 7
