
     RDKit          3D

 20 21  0  0  0  0  0  0  0  0999 V2000
   35.5302   29.0341   50.2090 C   0  0  0  0  0  0  0  0  0  0  0  0
   36.2255   30.1270   49.6634 C   0  0  0  0  0  0  0  0  0  0  0  0
   36.0091   30.4569   48.3208 C   0  0  0  0  0  0  0  0  0  0  0  0
   35.1319   29.7021   47.6005 N   0  0  0  0  0  0  0  0  0  0  0  0
   34.4783   28.6552   48.1577 C   0  0  0  0  0  0  0  0  0  0  0  0
   34.6716   28.3252   49.4368 N   0  0  0  0  0  0  0  0  0  0  0  0
   37.1653   30.8854   50.5484 C   0  0  0  0  0  0  0  0  0  0  0  0
   38.4883   30.7578   50.0809 F   0  0  0  0  0  0  0  0  0  0  0  0
   36.8419   32.2148   50.4818 F   0  0  0  0  0  0  0  0  0  0  0  0
   37.1410   30.4505   51.8476 F   0  0  0  0  0  0  0  0  0  0  0  0
   35.7031   28.7887   51.2408 H   0  0  0  0  0  0  0  0  0  0  0  0
   36.5333   31.2816   47.9077 H   0  0  0  0  0  0  0  0  0  0  0  0
   33.5322   27.8233   47.4212 C   0  0  0  0  0  0  0  0  0  0  0  0
   33.7365   27.3004   46.1595 C   0  0  0  0  0  0  0  0  0  0  0  0
   34.5838   27.3975   45.5087 H   0  0  0  0  0  0  0  0  0  0  0  0
   32.5930   26.5864   45.8587 C   0  0  0  0  0  0  0  0  0  0  0  0
   32.3190   26.0165   44.9801 H   0  0  0  0  0  0  0  0  0  0  0  0
   31.7448   26.7025   46.9418 C   0  0  0  0  0  0  0  0  0  0  0  0
   30.7535   26.3218   47.1630 H   0  0  0  0  0  0  0  0  0  0  0  0
   32.3535   27.4431   47.8306 O   0  0  0  0  0  0  0  0  0  0  0  0
  2  1  2  0
  2  7  1  0
  3  2  1  0
  4  5  1  0
  4  3  2  0
  5  6  2  0
  6  1  1  0
  7 10  1  0
  8  7  1  0
  9  7  1  0
  1 11  1  0
  3 12  1  0
 13 14  2  0
 14 15  1  0
 14 16  1  0
 16 17  1  0
 16 18  2  0
 18 19  1  0
 18 20  1  0
 20 13  1  0
  5 13  1  0
M  ISO  5  11  14  12  14  15  16  17  16  19  14
M  END
>  <DihAtoms>  (1) 
3,4,12,13

>  <DihDeg>  (1) 
-133.79102491284462

$$$$
