
 OpenBabel03272506433D

 31 33  0  0  1  0  0  0  0  0999 V2000
   32.3920   28.3020   47.6040 C   0  0  2  0  0  0  0  0  0  0  0  0
   33.6780   28.3240   48.3900 C   0  0  1  0  0  0  0  0  0  0  0  0
   34.2390   27.0690   48.2990 O   0  0  0  0  0  0  0  0  0  0  0  0
   33.5460   26.3330   47.3510 C   0  0  0  0  0  0  0  0  0  0  0  0
   32.7810   27.3410   46.4950 C   0  0  1  0  0  0  0  0  0  0  0  0
   31.5220   27.9670   48.1920 H   0  0  0  0  0  0  0  0  0  0  0  0
   33.5120   28.6500   49.4380 H   0  0  0  0  0  0  0  0  0  0  0  0
   34.2320   25.7730   46.6960 H   0  0  0  0  0  0  0  0  0  0  0  0
   32.8020   25.7170   47.8770 H   0  0  0  0  0  0  0  0  0  0  0  0
   33.4270   27.8840   45.8040 H   0  0  0  0  0  0  0  0  0  0  0  0
   32.1040   29.5790   47.0980 O   0  0  0  0  0  0  0  0  0  0  0  0
   31.3320   29.5570   46.5110 H   0  0  0  0  0  0  0  0  0  0  0  0
   34.8040   29.4920   47.5490 S   0  0  0  0  0  0  0  0  0  0  0  0
   37.3980   29.4890   50.5500 C   0  0  0  0  0  0  0  0  0  0  0  0
   37.9980   30.7400   50.5030 C   0  0  0  0  0  0  0  0  0  0  0  0
   37.5950   31.6330   49.5100 C   0  0  0  0  0  0  0  0  0  0  0  0
   36.6280   31.2400   48.6240 N   0  0  0  0  0  0  0  0  0  0  0  0
   36.0710   30.0050   48.7100 C   0  0  0  0  0  0  0  0  0  0  0  0
   36.4440   29.1250   49.6620 N   0  0  0  0  0  0  0  0  0  0  0  0
   37.7510   28.8480   51.3360 H   0  0  0  0  0  0  0  0  0  0  0  0
   38.7640   31.0640   51.1960 H   0  0  0  0  0  0  0  0  0  0  0  0
   37.9960   32.6210   49.3890 H   0  0  0  0  0  0  0  0  0  0  0  0
   31.6940   26.7270   45.9030 O   0  0  0  0  0  0  0  0  0  0  0  0
   30.7880   27.3160   45.0470 C   0  0  0  0  0  0  0  0  0  0  0  0
   30.2950   26.4790   44.0440 C   0  0  0  0  0  0  0  0  0  0  0  0
   30.4610   25.4360   43.7660 H   0  0  0  0  0  0  0  0  0  0  0  0
   29.4010   27.2390   43.2820 C   0  0  0  0  0  0  0  0  0  0  0  0
   28.7870   27.0180   42.4160 H   0  0  0  0  0  0  0  0  0  0  0  0
   29.4350   28.4850   43.9040 C   0  0  0  0  0  0  0  0  0  0  0  0
   28.8460   29.3490   43.5720 H   0  0  0  0  0  0  0  0  0  0  0  0
   30.2550   28.4870   44.9270 O   0  0  0  0  0  0  0  0  0  0  0  0
  1  6  1  1  0  0  0
  1  2  1  0  0  0  0
  2  7  1  1  0  0  0
  3  2  1  0  0  0  0
  4  9  1  0  0  0  0
  4  3  1  0  0  0  0
  5 10  1  6  0  0  0
  5  4  1  0  0  0  0
  5  1  1  0  0  0  0
  8  4  1  0  0  0  0
 11  1  1  0  0  0  0
 12 11  1  0  0  0  0
 13  2  1  0  0  0  0
 13 18  1  0  0  0  0
 14 20  1  0  0  0  0
 15 14  1  0  0  0  0
 15 21  1  0  0  0  0
 16 15  2  0  0  0  0
 17 18  2  0  0  0  0
 17 16  1  0  0  0  0
 18 19  1  0  0  0  0
 19 14  2  0  0  0  0
 22 16  1  0  0  0  0
 23  5  1  0  0  0  0
 24 23  1  0  0  0  0
 25 24  2  0  0  0  0
 26 25  1  0  0  0  0
 27 29  2  0  0  0  0
 27 25  1  0  0  0  0
 28 27  1  0  0  0  0
 29 31  1  0  0  0  0
 30 29  1  0  0  0  0
 31 24  1  0  0  0  0
M  END
>  <minimizedAffinity>
-3.79833746

>  <minimizedRMSD>
1.19359088

$$$$
