
     RDKit          3D

 46 50  0  0  0  0  0  0  0  0999 V2000
   36.9429   31.3786   47.3867 C   0  0  1  0  0  0  0  0  0  0  0  0
   38.1197   32.0038   48.0404 C   0  0  0  0  0  0  0  0  0  0  0  0
   38.4442   30.8969   47.1649 C   0  0  2  0  0  0  0  0  0  0  0  0
   39.1159   31.3684   45.9100 C   0  0  0  0  0  0  0  0  0  0  0  0
   39.6141   32.6657   46.0950 C   0  0  0  0  0  0  0  0  0  0  0  0
   40.3719   33.2618   45.1178 C   0  0  0  0  0  0  0  0  0  0  0  0
   40.6653   32.5967   43.9220 C   0  0  0  0  0  0  0  0  0  0  0  0
   40.1574   31.3164   43.7722 C   0  0  0  0  0  0  0  0  0  0  0  0
   40.3577   30.5696   42.6467 C   0  0  0  0  0  0  0  0  0  0  0  0
   39.8464   29.3023   42.4710 C   0  0  0  0  0  0  0  0  0  0  0  0
   39.0868   28.7530   43.4917 C   0  0  0  0  0  0  0  0  0  0  0  0
   38.8841   29.5011   44.6264 C   0  0  0  0  0  0  0  0  0  0  0  0
   39.4172   30.7685   44.7576 C   0  0  0  0  0  0  0  0  0  0  0  0
   34.4309   28.7551   48.3802 C   0  0  0  0  0  0  0  0  0  0  0  0
   35.1796   29.6733   47.5914 C   0  0  0  0  0  0  0  0  0  0  0  0
   36.1641   30.4054   48.1930 C   0  0  0  0  0  0  0  0  0  0  0  0
   36.3514   30.1886   49.5291 N   0  0  0  0  0  0  0  0  0  0  0  0
   35.6585   29.3329   50.2762 C   0  0  0  0  0  0  0  0  0  0  0  0
   34.6731   28.5932   49.7042 N   0  0  0  0  0  0  0  0  0  0  0  0
   36.0189   29.1801   51.7365 C   0  0  0  0  0  0  0  0  0  0  0  0
   37.3218   29.9468   51.9400 C   0  0  0  0  0  0  0  0  0  0  0  0
   36.5129   31.6659   46.4351 H   0  0  0  0  0  0  0  0  0  0  0  0
   38.1626   31.8468   49.1685 H   0  0  0  0  0  0  0  0  0  0  0  0
   38.0935   33.0859   47.8426 H   0  0  0  0  0  0  0  0  0  0  0  0
   38.4800   29.8375   47.3817 H   0  0  0  0  0  0  0  0  0  0  0  0
   39.5871   33.4091   46.8667 H   0  0  0  0  0  0  0  0  0  0  0  0
   40.8310   34.2406   45.0888 H   0  0  0  0  0  0  0  0  0  0  0  0
   41.2468   32.9438   43.0722 H   0  0  0  0  0  0  0  0  0  0  0  0
   40.9458   30.9623   41.8260 H   0  0  0  0  0  0  0  0  0  0  0  0
   39.9893   28.6890   41.5900 H   0  0  0  0  0  0  0  0  0  0  0  0
   38.6539   27.7643   43.4219 H   0  0  0  0  0  0  0  0  0  0  0  0
   38.2769   29.0444   45.4286 H   0  0  0  0  0  0  0  0  0  0  0  0
   33.6762   28.2105   47.8635 H   0  0  0  0  0  0  0  0  0  0  0  0
   34.9888   29.7986   46.5545 H   0  0  0  0  0  0  0  0  0  0  0  0
   35.2020   29.6767   52.2960 H   0  0  0  0  0  0  0  0  0  0  0  0
   36.1222   28.1233   51.9757 H   0  0  0  0  0  0  0  0  0  0  0  0
   37.6005   29.7926   53.0136 H   0  0  0  0  0  0  0  0  0  0  0  0
   38.1258   29.5185   51.2933 H   0  0  0  0  0  0  0  0  0  0  0  0
   37.1312   31.3949   51.7253 C   0  0  0  0  0  0  0  0  0  0  0  0
   37.3830   32.3791   50.7936 C   0  0  0  0  0  0  0  0  0  0  0  0
   37.8717   32.0927   49.8908 H   0  0  0  0  0  0  0  0  0  0  0  0
   36.9064   33.5841   51.2661 C   0  0  0  0  0  0  0  0  0  0  0  0
   36.9816   34.5144   50.7208 H   0  0  0  0  0  0  0  0  0  0  0  0
   36.3781   33.2601   52.4872 C   0  0  0  0  0  0  0  0  0  0  0  0
   35.9129   34.0298   53.1190 H   0  0  0  0  0  0  0  0  0  0  0  0
   36.5205   31.9697   52.7372 O   0  0  0  0  0  0  0  0  0  0  0  0
  1  2  1  0
  1 16  1  0
  3  1  1  0
  3  2  1  0
  4  5  2  0
  4  3  1  0
  6  5  1  0
  7  6  2  0
  8  7  1  0
  8 13  2  0
  9  8  1  0
 10  9  2  0
 10 11  1  0
 11 12  2  0
 12 13  1  0
 13  4  1  0
 14 19  2  0
 15 16  2  0
 15 14  1  0
 16 17  1  0
 17 18  2  0
 18 20  1  0
 19 18  1  0
 20 21  1  0
  1 22  1  6
  2 23  1  0
  2 24  1  0
  3 25  1  1
  5 26  1  0
  6 27  1  0
  7 28  1  0
  9 29  1  0
 10 30  1  0
 11 31  1  0
 12 32  1  0
 14 33  1  0
 15 34  1  0
 20 35  1  0
 20 36  1  0
 21 37  1  0
 21 38  1  0
 39 40  2  0
 40 41  1  0
 40 42  1  0
 42 43  1  0
 42 44  2  0
 44 45  1  0
 44 46  1  0
 46 39  1  0
 21 39  1  0
M  ISO  8  22  13  23  13  24  13  25  13  26  14  27  14  28  14  29  14
M  ISO  8  30  14  31  14  32  14  33  14  34  14  35   8  36   8  37   8
M  ISO  4  38   8  41  16  43  16  45  14
M  END
>  <DihAtoms>  (1) 
19,20,38,39

>  <DihDeg>  (1) 
0.9325619671697155

$$$$
