REMARK  Name = 
REMARK  2 active torsions:
REMARK  status: ('A' for Active; 'I' for Inactive)
REMARK    1  A    between atoms: C_2  and  C_7
REMARK    2  A    between atoms: C_5  and  C_13
REMARK                            x       y       z     vdW  Elec       q    Type
REMARK                         _______ _______ _______ _____ _____    ______ ____
ROOT
ATOM      1  C   UNL     1      35.530  29.034  50.209  0.00  0.00    +0.000 A 
ATOM      2  C   UNL     1      36.225  30.127  49.663  0.00  0.00    +0.000 A 
ATOM      3  C   UNL     1      36.009  30.457  48.321  0.00  0.00    +0.000 A 
ATOM      4  N   UNL     1      35.132  29.702  47.600  0.00  0.00    +0.000 NA
ATOM      5  C   UNL     1      34.478  28.655  48.158  0.00  0.00    +0.000 A 
ATOM      6  N   UNL     1      34.672  28.325  49.437  0.00  0.00    +0.000 NA
ATOM      7  H   UNL     1      35.703  28.789  51.241  0.00  0.00    +0.000 HD
ATOM      8  H   UNL     1      36.533  31.282  47.908  0.00  0.00    +0.000 HD
ENDROOT
BRANCH   5   9
ATOM      9  C   UNL     1      33.532  27.823  47.421  0.00  0.00    +0.000 A 
ATOM     10  C   UNL     1      33.467  26.445  47.472  0.00  0.00    +0.000 A 
ATOM     11  H   UNL     1      34.066  25.753  48.031  0.00  0.00    +0.000 HD
ATOM     12  C   UNL     1      32.435  26.086  46.627  0.00  0.00    +0.000 A 
ATOM     13  H   UNL     1      32.035  25.115  46.362  0.00  0.00    +0.000 HD
ATOM     14  C   UNL     1      31.918  27.252  46.099  0.00  0.00    +0.000 A 
ATOM     15  H   UNL     1      31.114  27.469  45.404  0.00  0.00    +0.000 HD
ATOM     16  O   UNL     1      32.605  28.242  46.605  0.00  0.00    +0.000 OA
ENDBRANCH   5   9
BRANCH   2  17
ATOM     17  C   UNL     1      37.165  30.885  50.548  0.00  0.00    +0.000 C 
ATOM     18  F   UNL     1      38.488  30.758  50.081  0.00  0.00    +0.000 F 
ATOM     19  F   UNL     1      36.842  32.215  50.482  0.00  0.00    +0.000 F 
ATOM     20  F   UNL     1      37.141  30.451  51.848  0.00  0.00    +0.000 F 
ENDBRANCH   2  17
TORSDOF 2
