
 OpenBabel03262522003D

 19 20  0  0  0  0  0  0  0  0999 V2000
   37.2150   30.4300   50.3040 C   0  0  0  0  0  0  0  0  0  0  0  0
   37.6010   30.3840   51.4930 O   0  0  0  0  0  0  0  0  0  0  0  0
   37.8910   31.1900   49.2730 C   0  0  0  0  0  0  0  0  0  0  0  0
   38.2870   32.4850   49.6020 C   0  0  0  0  0  0  0  0  0  0  0  0
   38.9420   33.2460   48.6320 C   0  0  0  0  0  0  0  0  0  0  0  0
   39.1540   32.6650   47.4070 N   0  0  0  0  0  0  0  0  0  0  0  0
   38.7620   31.4160   47.1170 C   0  0  0  0  0  0  0  0  0  0  0  0
   38.1330   30.6840   48.0500 N   0  0  0  0  0  0  0  0  0  0  0  0
   38.1480   32.9830   50.5350 H   0  0  0  0  0  0  0  0  0  0  0  0
   39.2780   34.2470   48.8020 H   0  0  0  0  0  0  0  0  0  0  0  0
   38.9410   30.9760   46.1410 H   0  0  0  0  0  0  0  0  0  0  0  0
   36.0330   29.6900   49.9220 C   0  0  0  0  0  0  0  0  0  0  0  0
   34.7870   30.2550   49.8990 C   0  0  0  0  0  0  0  0  0  0  0  0
   34.3840   31.2280   50.1150 H   0  0  0  0  0  0  0  0  0  0  0  0
   33.8850   29.2700   49.4890 C   0  0  0  0  0  0  0  0  0  0  0  0
   32.8270   29.1620   49.3030 H   0  0  0  0  0  0  0  0  0  0  0  0
   34.6600   28.1330   49.2800 C   0  0  0  0  0  0  0  0  0  0  0  0
   34.5530   27.0990   48.9730 H   0  0  0  0  0  0  0  0  0  0  0  0
   35.9070   28.4380   49.5490 O   0  0  0  0  0  0  0  0  0  0  0  0
  1  2  2  0  0  0  0
  3  4  1  0  0  0  0
  3  1  1  0  0  0  0
  4  9  1  0  0  0  0
  5 10  1  0  0  0  0
  5  4  2  0  0  0  0
  6  5  1  0  0  0  0
  7  6  2  0  0  0  0
  7  8  1  0  0  0  0
  8  3  2  0  0  0  0
 11  7  1  0  0  0  0
 12  1  1  0  0  0  0
 13 12  2  0  0  0  0
 13 14  1  0  0  0  0
 15 13  1  0  0  0  0
 16 15  1  0  0  0  0
 17 15  2  0  0  0  0
 17 19  1  0  0  0  0
 18 17  1  0  0  0  0
 19 12  1  0  0  0  0
M  END
>  <minimizedAffinity>
-4.62269402

>  <minimizedRMSD>
2.03829193

$$$$
