
 OpenBabel03262520213D

 22 23  0  0  0  0  0  0  0  0999 V2000
   33.6470   28.4300   49.3210 C   0  0  0  0  0  0  0  0  0  0  0  0
   34.5160   29.1640   48.4660 C   0  0  0  0  0  0  0  0  0  0  0  0
   34.2670   29.0910   47.1120 C   0  0  0  0  0  0  0  0  0  0  0  0
   33.1980   28.3190   46.7120 N   0  0  0  0  0  0  0  0  0  0  0  0
   32.3990   27.6460   47.5300 C   0  0  0  0  0  0  0  0  0  0  0  0
   32.6410   27.7130   48.8420 N   0  0  0  0  0  0  0  0  0  0  0  0
   31.3310   26.9320   46.9470 N   0  0  0  0  0  0  0  0  0  0  0  0
   33.6840   28.3640   50.3940 H   0  0  0  0  0  0  0  0  0  0  0  0
   30.3590   27.2270   47.2360 H   0  0  0  0  0  0  0  0  0  0  0  0
   31.5970   26.1760   46.2820 H   0  0  0  0  0  0  0  0  0  0  0  0
   35.5510   29.9190   49.1690 C   0  0  0  0  0  0  0  0  0  0  0  0
   36.6160   29.3210   49.8040 C   0  0  0  0  0  0  0  0  0  0  0  0
   36.9080   28.2550   49.9200 H   0  0  0  0  0  0  0  0  0  0  0  0
   37.4780   30.1930   50.4040 C   0  0  0  0  0  0  0  0  0  0  0  0
   38.3830   30.0790   50.9680 H   0  0  0  0  0  0  0  0  0  0  0  0
   36.8900   31.3900   50.1080 C   0  0  0  0  0  0  0  0  0  0  0  0
   37.1640   32.4260   50.3470 H   0  0  0  0  0  0  0  0  0  0  0  0
   35.8450   31.1360   49.4310 O   0  0  0  0  0  0  0  0  0  0  0  0
   35.1270   29.8150   46.1550 C   0  0  0  0  0  0  0  0  0  0  0  0
   34.5270   30.9730   45.8920 F   0  0  0  0  0  0  0  0  0  0  0  0
   36.4010   30.0710   46.6380 F   0  0  0  0  0  0  0  0  0  0  0  0
   35.3020   29.0750   44.9640 F   0  0  0  0  0  0  0  0  0  0  0  0
  1  8  1  0  0  0  0
  2 11  1  0  0  0  0
  2  1  2  0  0  0  0
  3  2  1  0  0  0  0
  4  3  2  0  0  0  0
  4  5  1  0  0  0  0
  5  6  2  0  0  0  0
  6  1  1  0  0  0  0
  7  9  1  0  0  0  0
  7  5  1  0  0  0  0
 10  7  1  0  0  0  0
 11 18  1  0  0  0  0
 11 12  2  0  0  0  0
 12 13  1  0  0  0  0
 12 14  1  0  0  0  0
 14 15  1  0  0  0  0
 16 17  1  0  0  0  0
 16 14  2  0  0  0  0
 18 16  1  0  0  0  0
 19 21  1  0  0  0  0
 19  3  1  0  0  0  0
 20 19  1  0  0  0  0
 22 19  1  0  0  0  0
M  END
>  <minimizedAffinity>
-3.90502024

>  <minimizedRMSD>
4.59260559

$$$$
