
     RDKit          3D

 40 42  0  0  0  0  0  0  0  0999 V2000
   36.6903   29.9534   49.0104 C   0  0  0  0  0  0  0  0  0  0  0  0
   37.7212   30.6216   48.3221 C   0  0  0  0  0  0  0  0  0  0  0  0
   37.4914   30.9108   46.9754 C   0  0  0  0  0  0  0  0  0  0  0  0
   36.3279   30.5486   46.4137 N   0  0  0  0  0  0  0  0  0  0  0  0
   35.3646   29.9090   47.1094 C   0  0  0  0  0  0  0  0  0  0  0  0
   35.5466   29.6157   48.3938 N   0  0  0  0  0  0  0  0  0  0  0  0
   38.4620   31.5605   46.2182 N   0  0  0  0  0  0  0  0  0  0  0  0
   39.4384   32.5620   46.7266 C   0  0  0  0  0  0  0  0  0  0  0  0
   40.0952   33.1961   45.5640 C   0  0  0  0  0  0  0  0  0  0  0  0
   39.2145   32.8588   44.4483 C   0  0  0  0  0  0  0  0  0  0  0  0
   38.7890   31.4939   44.8291 C   0  0  2  0  0  0  0  0  0  0  0  0
   37.6374   31.0330   43.9329 C   0  0  0  0  0  0  0  0  0  0  0  0
   36.5095   31.7466   44.2851 F   0  0  0  0  0  0  0  0  0  0  0  0
   37.3101   29.7148   44.0236 F   0  0  0  0  0  0  0  0  0  0  0  0
   37.9600   31.4254   42.6489 F   0  0  0  0  0  0  0  0  0  0  0  0
   39.8261   30.5107   44.6707 C   0  0  1  0  0  0  0  0  0  0  0  0
   40.3519   30.6804   43.5418 O   0  0  0  0  0  0  0  0  0  0  0  0
   40.9911   29.9818   42.5875 C   0  0  0  0  0  0  0  0  0  0  0  0
   40.7614   30.4176   41.4571 O   0  0  0  0  0  0  0  0  0  0  0  0
   41.8663   28.9134   42.2515 N   0  0  0  0  0  0  0  0  0  0  0  0
   36.8976   29.7433   50.0502 H   0  0  0  0  0  0  0  0  0  0  0  0
   38.6632   30.9235   48.7501 H   0  0  0  0  0  0  0  0  0  0  0  0
   34.4065   29.5871   46.7273 H   0  0  0  0  0  0  0  0  0  0  0  0
   40.0156   32.2584   47.5717 H   0  0  0  0  0  0  0  0  0  0  0  0
   38.6952   33.3102   47.1983 H   0  0  0  0  0  0  0  0  0  0  0  0
   41.1416   33.2974   45.4663 H   0  0  0  0  0  0  0  0  0  0  0  0
   39.8311   34.3488   45.7154 H   0  0  0  0  0  0  0  0  0  0  0  0
   38.3502   33.5103   44.2694 H   0  0  0  0  0  0  0  0  0  0  0  0
   39.7966   32.8341   43.4817 H   0  0  0  0  0  0  0  0  0  0  0  0
   39.5130   29.5344   44.9884 H   0  0  0  0  0  0  0  0  0  0  0  0
   42.8733   29.1786   42.3629 H   0  0  0  0  0  0  0  0  0  0  0  0
   41.5545   27.9707   41.9304 H   0  0  0  0  0  0  0  0  0  0  0  0
   41.1023   30.6157   45.6042 C   0  0  0  0  0  0  0  0  0  0  0  0
   41.1811   29.9065   46.8379 C   0  0  0  0  0  0  0  0  0  0  0  0
   40.4200   29.2414   47.2875 H   0  0  0  0  0  0  0  0  0  0  0  0
   42.3795   30.1394   47.4707 C   0  0  0  0  0  0  0  0  0  0  0  0
   42.7274   29.7485   48.4090 H   0  0  0  0  0  0  0  0  0  0  0  0
   42.9803   30.9914   46.5781 C   0  0  0  0  0  0  0  0  0  0  0  0
   43.9541   31.4468   46.6543 H   0  0  0  0  0  0  0  0  0  0  0  0
   42.2476   31.2439   45.5415 O   0  0  0  0  0  0  0  0  0  0  0  0
  2  1  2  0
  3  2  1  0
  4  3  2  0
  4  5  1  0
  5  6  2  0
  6  1  1  0
  7  8  1  0
  7  3  1  0
  9  8  1  0
 10 11  1  0
 10  9  1  0
 11 12  1  6
 11  7  1  0
 12 14  1  0
 12 13  1  0
 15 12  1  0
 16 11  1  0
 17 16  1  0
 18 17  1  0
 19 18  2  0
 20 18  1  0
  1 21  1  0
  2 22  1  0
  5 23  1  0
  8 24  1  0
  8 25  1  0
  9 26  1  0
  9 27  1  0
 10 28  1  0
 10 29  1  0
 16 30  1  6
 20 31  1  0
 20 32  1  0
 33 34  2  0
 34 35  1  0
 34 36  1  0
 36 37  1  0
 36 38  2  0
 38 39  1  0
 38 40  1  0
 40 33  1  0
 16 33  1  0
M  ISO  8  21  14  22  14  23  14  24  13  25  13  26  13  27  13  28  13
M  ISO  5  29  13  30   8  35  16  37  16  39  14
M  END
>  <DihAtoms>  (1) 
10,15,32,33

>  <DihDeg>  (1) 
92.99424765968679

$$$$
