
 OpenBabel03272506433D

 31 33  0  0  1  0  0  0  0  0999 V2000
   32.3980   28.3370   47.6070 C   0  0  2  0  0  0  0  0  0  0  0  0
   33.6740   28.3740   48.4110 C   0  0  1  0  0  0  0  0  0  0  0  0
   34.2330   27.1150   48.3560 O   0  0  0  0  0  0  0  0  0  0  0  0
   33.5520   26.3600   47.4130 C   0  0  0  0  0  0  0  0  0  0  0  0
   32.8010   27.3510   46.5250 C   0  0  1  0  0  0  0  0  0  0  0  0
   31.5200   28.0160   48.1900 H   0  0  0  0  0  0  0  0  0  0  0  0
   33.4930   28.7220   49.4490 H   0  0  0  0  0  0  0  0  0  0  0  0
   34.2460   25.7840   46.7810 H   0  0  0  0  0  0  0  0  0  0  0  0
   32.7990   25.7570   47.9420 H   0  0  0  0  0  0  0  0  0  0  0  0
   33.4580   27.8770   45.8310 H   0  0  0  0  0  0  0  0  0  0  0  0
   32.1210   29.6030   47.0690 O   0  0  0  0  0  0  0  0  0  0  0  0
   31.3580   29.5700   46.4720 H   0  0  0  0  0  0  0  0  0  0  0  0
   34.8140   29.5200   47.5610 S   0  0  0  0  0  0  0  0  0  0  0  0
   37.4180   29.5020   50.5530 C   0  0  0  0  0  0  0  0  0  0  0  0
   38.0240   30.7500   50.5050 C   0  0  0  0  0  0  0  0  0  0  0  0
   37.6220   31.6460   49.5140 C   0  0  0  0  0  0  0  0  0  0  0  0
   36.6500   31.2580   48.6310 N   0  0  0  0  0  0  0  0  0  0  0  0
   36.0870   30.0270   48.7180 C   0  0  0  0  0  0  0  0  0  0  0  0
   36.4600   29.1440   49.6680 N   0  0  0  0  0  0  0  0  0  0  0  0
   37.7710   28.8590   51.3380 H   0  0  0  0  0  0  0  0  0  0  0  0
   38.7930   31.0700   51.1960 H   0  0  0  0  0  0  0  0  0  0  0  0
   38.0280   32.6320   49.3930 H   0  0  0  0  0  0  0  0  0  0  0  0
   31.7220   26.7260   45.9310 O   0  0  0  0  0  0  0  0  0  0  0  0
   30.9650   27.2170   44.8880 C   0  0  0  0  0  0  0  0  0  0  0  0
   31.3600   26.7880   43.6200 C   0  0  0  0  0  0  0  0  0  0  0  0
   32.1510   26.1350   43.2440 H   0  0  0  0  0  0  0  0  0  0  0  0
   30.4890   27.3790   42.6990 C   0  0  0  0  0  0  0  0  0  0  0  0
   30.4080   27.3390   41.6190 H   0  0  0  0  0  0  0  0  0  0  0  0
   29.6320   28.1250   43.5070 C   0  0  0  0  0  0  0  0  0  0  0  0
   28.8050   28.7330   43.1220 H   0  0  0  0  0  0  0  0  0  0  0  0
   29.9450   28.0020   44.7750 O   0  0  0  0  0  0  0  0  0  0  0  0
  1  6  1  1  0  0  0
  1  2  1  0  0  0  0
  2  7  1  1  0  0  0
  3  2  1  0  0  0  0
  4  9  1  0  0  0  0
  4  3  1  0  0  0  0
  5 10  1  6  0  0  0
  5  4  1  0  0  0  0
  5  1  1  0  0  0  0
  8  4  1  0  0  0  0
 11  1  1  0  0  0  0
 12 11  1  0  0  0  0
 13  2  1  0  0  0  0
 13 18  1  0  0  0  0
 14 20  1  0  0  0  0
 15 14  1  0  0  0  0
 15 21  1  0  0  0  0
 16 15  2  0  0  0  0
 17 18  2  0  0  0  0
 17 16  1  0  0  0  0
 18 19  1  0  0  0  0
 19 14  2  0  0  0  0
 22 16  1  0  0  0  0
 23  5  1  0  0  0  0
 24 23  1  0  0  0  0
 25 24  2  0  0  0  0
 26 25  1  0  0  0  0
 27 29  2  0  0  0  0
 27 25  1  0  0  0  0
 28 27  1  0  0  0  0
 29 31  1  0  0  0  0
 30 29  1  0  0  0  0
 31 24  1  0  0  0  0
M  END
>  <minimizedAffinity>
-3.75530529

>  <minimizedRMSD>
0.913362861

$$$$
