REMARK  Name = 
REMARK  3 active torsions:
REMARK  status: ('A' for Active; 'I' for Inactive)
REMARK    1  A    between atoms: C_1  and  C_7
REMARK    2  A    between atoms: C_6  and  N_15
REMARK    3  A    between atoms: C_13  and  C_30
REMARK                            x       y       z     vdW  Elec       q    Type
REMARK                         _______ _______ _______ _____ _____    ______ ____
ROOT
ATOM      1  C   UNL     1      36.077  30.688  49.066  0.00  0.00    +0.000 C 
ATOM      2  C   UNL     1      37.014  31.643  49.741  0.00  0.00    +0.000 C 
ATOM      3  C   UNL     1      38.044  30.947  50.603  0.00  0.00    +0.000 C 
ATOM      4  C   UNL     1      37.358  30.069  51.649  0.00  0.00    +0.000 C 
ATOM      5  C   UNL     1      36.121  29.374  51.148  0.00  0.00    +0.000 C 
ATOM      6  C   UNL     1      36.193  29.303  49.611  0.00  0.00    +0.000 C 
ATOM      7  H   UNL     1      34.987  30.974  49.181  0.00  0.00    +0.000 HD
ATOM      8  H   UNL     1      36.360  32.190  50.502  0.00  0.00    +0.000 HD
ATOM      9  H   UNL     1      37.445  32.424  49.144  0.00  0.00    +0.000 HD
ATOM     10  H   UNL     1      38.596  31.733  51.133  0.00  0.00    +0.000 HD
ATOM     11  H   UNL     1      38.737  30.303  50.053  0.00  0.00    +0.000 HD
ATOM     12  H   UNL     1      37.082  30.708  52.507  0.00  0.00    +0.000 HD
ATOM     13  H   UNL     1      38.075  29.276  51.994  0.00  0.00    +0.000 HD
ATOM     14  H   UNL     1      35.216  29.952  51.359  0.00  0.00    +0.000 HD
ATOM     15  H   UNL     1      36.050  28.337  51.544  0.00  0.00    +0.000 HD
ATOM     16  H   UNL     1      37.179  28.924  49.486  0.00  0.00    +0.000 HD
ENDROOT
BRANCH   1  17
ATOM     17  C   UNL     1      36.319  30.646  47.599  0.00  0.00    +0.000 A 
ATOM     18  C   UNL     1      37.577  31.112  47.180  0.00  0.00    +0.000 A 
ATOM     19  C   UNL     1      37.831  31.081  45.804  0.00  0.00    +0.000 A 
ATOM     20  N   UNL     1      36.851  30.605  44.960  0.00  0.00    +0.000 NA
ATOM     21  C   UNL     1      35.643  30.163  45.422  0.00  0.00    +0.000 A 
ATOM     22  N   UNL     1      35.395  30.191  46.747  0.00  0.00    +0.000 NA
ATOM     23  H   UNL     1      38.418  31.494  47.726  0.00  0.00    +0.000 HD
ATOM     24  H   UNL     1      38.748  31.406  45.337  0.00  0.00    +0.000 HD
ATOM     25  H   UNL     1      34.956  29.813  44.668  0.00  0.00    +0.000 HD
ENDBRANCH   1  17
BRANCH   6  28
ATOM     26  C   UNL     1      33.935  28.197  49.242  0.00  0.00    +0.000 C 
ATOM     27  O   UNL     1      33.120  28.870  49.940  0.00  0.00    +0.000 OA
ATOM     28  N   UNL     1      35.330  28.348  49.016  0.00  0.00    +0.000 N 
ATOM     29  H   UNL     1      35.715  27.641  48.309  0.00  0.00    +0.000 HD
BRANCH  26  30
ATOM     30  C   UNL     1      33.201  27.080  48.592  0.00  0.00    +0.000 A 
ATOM     31  C   UNL     1      33.695  26.109  47.751  0.00  0.00    +0.000 A 
ATOM     32  H   UNL     1      34.696  25.977  47.410  0.00  0.00    +0.000 HD
ATOM     33  C   UNL     1      32.654  25.250  47.367  0.00  0.00    +0.000 A 
ATOM     34  H   UNL     1      32.749  24.390  46.705  0.00  0.00    +0.000 HD
ATOM     35  C   UNL     1      31.557  25.772  48.021  0.00  0.00    +0.000 A 
ATOM     36  H   UNL     1      30.571  25.328  47.931  0.00  0.00    +0.000 HD
ATOM     37  O   UNL     1      31.923  26.808  48.701  0.00  0.00    +0.000 OA
ENDBRANCH  26  30
ENDBRANCH   6  28
TORSDOF 3
