
 OpenBabel03272504413D

 44 46  0  0  0  0  0  0  0  0999 V2000
   34.7810   29.4090   48.8310 C   0  0  0  0  0  0  0  0  0  0  0  0
   34.1130   30.2270   49.2360 H   0  0  0  0  0  0  0  0  0  0  0  0
   35.6760   29.4590   49.4850 H   0  0  0  0  0  0  0  0  0  0  0  0
   37.5540   30.4480   48.5210 Cl  0  0  0  0  0  0  0  0  0  0  0  0
   36.3990   30.2940   47.1850 C   0  0  0  0  0  0  0  0  0  0  0  0
   36.7790   30.6640   45.9450 C   0  0  0  0  0  0  0  0  0  0  0  0
   35.8950   30.5490   44.8980 C   0  0  0  0  0  0  0  0  0  0  0  0
   34.6270   30.0530   45.1570 C   0  0  0  0  0  0  0  0  0  0  0  0
   34.2990   29.6880   46.4680 C   0  0  0  0  0  0  0  0  0  0  0  0
   35.1580   29.7960   47.5010 C   0  0  0  0  0  0  0  0  0  0  0  0
   36.2290   30.8560   43.9010 H   0  0  0  0  0  0  0  0  0  0  0  0
   34.0100   30.0020   44.2700 H   0  0  0  0  0  0  0  0  0  0  0  0
   33.2950   29.3480   46.4300 H   0  0  0  0  0  0  0  0  0  0  0  0
   39.7620   32.8350   45.9980 C   0  0  0  0  0  0  0  0  0  0  0  0
   40.6340   32.1050   45.1170 C   0  0  0  0  0  0  0  0  0  0  0  0
   40.1570   30.9160   44.5580 C   0  0  0  0  0  0  0  0  0  0  0  0
   38.9030   30.4900   44.8570 N   0  0  0  0  0  0  0  0  0  0  0  0
   38.1070   31.2000   45.6890 C   0  0  0  0  0  0  0  0  0  0  0  0
   38.5420   32.3470   46.2390 N   0  0  0  0  0  0  0  0  0  0  0  0
   40.1390   33.7400   46.4170 H   0  0  0  0  0  0  0  0  0  0  0  0
   41.6050   32.4820   44.9170 H   0  0  0  0  0  0  0  0  0  0  0  0
   41.0320   30.2250   43.6960 N   0  0  0  0  0  0  0  0  0  0  0  0
   41.6750   30.7510   43.0580 H   0  0  0  0  0  0  0  0  0  0  0  0
   41.1120   29.2000   43.6220 H   0  0  0  0  0  0  0  0  0  0  0  0
   34.1230   28.1160   49.0570 C   0  0  0  0  0  0  0  0  0  0  0  0
   34.5730   27.5250   49.8770 H   0  0  0  0  0  0  0  0  0  0  0  0
   34.2340   27.4870   48.1340 H   0  0  0  0  0  0  0  0  0  0  0  0
   32.7920   28.2650   49.3440 O   0  0  0  0  0  0  0  0  0  0  0  0
   32.6630   26.5350   47.3740 O   0  0  0  0  0  0  0  0  0  0  0  0
   31.8440   27.4250   48.2580 P   0  0  2  0  0  0  0  0  0  0  0  0
   31.0230   28.6040   47.3020 O   0  0  0  0  0  0  0  0  0  0  0  0
   30.5160   28.2900   46.0630 C   0  0  0  0  0  0  0  0  0  0  0  0
   29.2900   27.7460   45.7290 C   0  0  0  0  0  0  0  0  0  0  0  0
   28.5090   27.4710   46.3980 H   0  0  0  0  0  0  0  0  0  0  0  0
   29.2820   27.6310   44.3510 C   0  0  0  0  0  0  0  0  0  0  0  0
   28.4700   27.2400   43.7500 H   0  0  0  0  0  0  0  0  0  0  0  0
   30.4920   28.1060   43.9180 C   0  0  0  0  0  0  0  0  0  0  0  0
   30.8480   28.1730   42.8900 H   0  0  0  0  0  0  0  0  0  0  0  0
   31.1910   28.4860   44.9620 O   0  0  0  0  0  0  0  0  0  0  0  0
   30.6540   26.5260   48.9910 O   0  0  0  0  0  0  0  0  0  0  0  0
   29.8360   27.3320   49.7640 C   0  0  0  0  0  0  0  0  0  0  0  0
   29.3100   26.6630   50.8700 F   0  0  0  0  0  0  0  0  0  0  0  0
   30.5280   28.4070   50.2770 F   0  0  0  0  0  0  0  0  0  0  0  0
   28.7690   27.7900   48.9960 F   0  0  0  0  0  0  0  0  0  0  0  0
  1 25  1  0  0  0  0
  1  2  1  0  0  0  0
  1  3  1  0  0  0  0
  5 10  1  0  0  0  0
  5  4  1  0  0  0  0
  6  5  2  0  0  0  0
  7  8  2  0  0  0  0
  7  6  1  0  0  0  0
  8  9  1  0  0  0  0
  9 10  2  0  0  0  0
 10  1  1  0  0  0  0
 11  7  1  0  0  0  0
 12  8  1  0  0  0  0
 13  9  1  0  0  0  0
 14 19  1  0  0  0  0
 14 20  1  0  0  0  0
 15 14  2  0  0  0  0
 16 17  2  0  0  0  0
 16 15  1  0  0  0  0
 17 18  1  0  0  0  0
 18  6  1  0  0  0  0
 18 19  2  0  0  0  0
 21 15  1  0  0  0  0
 22 16  1  0  0  0  0
 23 22  1  0  0  0  0
 24 22  1  0  0  0  0
 25 28  1  0  0  0  0
 25 26  1  0  0  0  0
 27 25  1  0  0  0  0
 30 29  2  6  0  0  0
 30 40  1  0  0  0  0
 30 28  1  0  0  0  0
 31 30  1  0  0  0  0
 32 31  1  0  0  0  0
 33 32  2  0  0  0  0
 33 34  1  0  0  0  0
 35 33  1  0  0  0  0
 36 35  1  0  0  0  0
 37 35  2  0  0  0  0
 37 39  1  0  0  0  0
 38 37  1  0  0  0  0
 39 32  1  0  0  0  0
 40 41  1  0  0  0  0
 41 43  1  0  0  0  0
 41 42  1  0  0  0  0
 44 41  1  0  0  0  0
M  END
>  <minimizedAffinity>
-5.63417625

>  <minimizedRMSD>
0.247974351

$$$$
