
 OpenBabel03272500323D

 43 46  0  0  1  0  0  0  0  0999 V2000
   34.6320   30.2650   48.5240 C   0  0  1  0  0  0  0  0  0  0  0  0
   34.3340   29.9590   47.1340 C   0  0  0  0  0  0  0  0  0  0  0  0
   33.1170   29.0340   47.2330 C   0  0  0  0  0  0  0  0  0  0  0  0
   33.7620   27.6910   47.6270 C   0  0  0  0  0  0  0  0  0  0  0  0
   34.5590   27.7590   48.8560 C   0  0  0  0  0  0  0  0  0  0  0  0
   34.7060   29.0900   49.4730 C   0  0  1  0  0  0  0  0  0  0  0  0
   33.8480   30.9330   48.9850 H   0  0  0  0  0  0  0  0  0  0  0  0
   34.8580   29.1910   46.5690 H   0  0  0  0  0  0  0  0  0  0  0  0
   33.9610   30.8030   46.5250 H   0  0  0  0  0  0  0  0  0  0  0  0
   32.4290   29.3770   48.0300 H   0  0  0  0  0  0  0  0  0  0  0  0
   32.6770   28.8870   46.2490 H   0  0  0  0  0  0  0  0  0  0  0  0
   32.9540   26.9720   47.5810 H   0  0  0  0  0  0  0  0  0  0  0  0
   34.3990   27.4570   46.7220 H   0  0  0  0  0  0  0  0  0  0  0  0
   35.6090   27.4130   48.6180 H   0  0  0  0  0  0  0  0  0  0  0  0
   34.2410   27.0240   49.6450 H   0  0  0  0  0  0  0  0  0  0  0  0
   33.8550   29.1710   50.1760 H   0  0  0  0  0  0  0  0  0  0  0  0
   36.5060   30.3420   46.1360 Cl  0  0  0  0  0  0  0  0  0  0  0  0
   36.7990   31.1660   47.6440 C   0  0  0  0  0  0  0  0  0  0  0  0
   37.9720   31.8730   47.6820 C   0  0  0  0  0  0  0  0  0  0  0  0
   38.2420   32.6120   48.8240 C   0  0  0  0  0  0  0  0  0  0  0  0
   37.3130   32.5960   49.8510 C   0  0  0  0  0  0  0  0  0  0  0  0
   36.1550   31.8590   49.7320 C   0  0  0  0  0  0  0  0  0  0  0  0
   35.8500   31.1110   48.6240 C   0  0  0  0  0  0  0  0  0  0  0  0
   39.1480   33.1920   48.9220 H   0  0  0  0  0  0  0  0  0  0  0  0
   37.5210   33.1730   50.7430 H   0  0  0  0  0  0  0  0  0  0  0  0
   35.4700   31.8910   50.5760 H   0  0  0  0  0  0  0  0  0  0  0  0
   39.4420   32.7870   44.4620 C   0  0  0  0  0  0  0  0  0  0  0  0
   40.5630   31.9560   44.3380 C   0  0  0  0  0  0  0  0  0  0  0  0
   40.8040   31.0800   45.3950 C   0  0  0  0  0  0  0  0  0  0  0  0
   39.9580   31.0760   46.4690 N   0  0  0  0  0  0  0  0  0  0  0  0
   38.8990   31.8930   46.5360 C   0  0  0  0  0  0  0  0  0  0  0  0
   38.6450   32.7490   45.5270 N   0  0  0  0  0  0  0  0  0  0  0  0
   39.1940   33.4930   43.6780 H   0  0  0  0  0  0  0  0  0  0  0  0
   41.1950   32.0020   43.4660 H   0  0  0  0  0  0  0  0  0  0  0  0
   41.6400   30.4190   45.3650 H   0  0  0  0  0  0  0  0  0  0  0  0
   35.9250   29.1560   50.3300 C   0  0  0  0  0  0  0  0  0  0  0  0
   36.1330   29.5550   51.6360 C   0  0  0  0  0  0  0  0  0  0  0  0
   35.2950   29.9120   52.2540 H   0  0  0  0  0  0  0  0  0  0  0  0
   37.4760   29.4060   51.9200 C   0  0  0  0  0  0  0  0  0  0  0  0
   37.9200   29.6430   52.8690 H   0  0  0  0  0  0  0  0  0  0  0  0
   38.0300   28.9160   50.7480 C   0  0  0  0  0  0  0  0  0  0  0  0
   39.0970   28.6820   50.6270 H   0  0  0  0  0  0  0  0  0  0  0  0
   37.0920   28.7750   49.8200 O   0  0  0  0  0  0  0  0  0  0  0  0
  1 23  1  0  0  0  0
  1  7  1  1  0  0  0
  1  6  1  0  0  0  0
  2  3  1  0  0  0  0
  2  1  1  0  0  0  0
  3  4  1  0  0  0  0
  3 10  1  0  0  0  0
  4  5  1  0  0  0  0
  5  6  1  0  0  0  0
  5 15  1  0  0  0  0
  6 16  1  1  0  0  0
  6 36  1  0  0  0  0
  8  2  1  0  0  0  0
  9  2  1  0  0  0  0
 11  3  1  0  0  0  0
 12  4  1  0  0  0  0
 13  4  1  0  0  0  0
 14  5  1  0  0  0  0
 17 18  1  0  0  0  0
 18 19  2  0  0  0  0
 18 23  1  0  0  0  0
 19 20  1  0  0  0  0
 20 24  1  0  0  0  0
 20 21  2  0  0  0  0
 21 25  1  0  0  0  0
 22 21  1  0  0  0  0
 22 26  1  0  0  0  0
 23 22  2  0  0  0  0
 27 32  1  0  0  0  0
 28 27  2  0  0  0  0
 28 29  1  0  0  0  0
 29 30  2  0  0  0  0
 30 31  1  0  0  0  0
 31 19  1  0  0  0  0
 32 31  2  0  0  0  0
 33 27  1  0  0  0  0
 34 28  1  0  0  0  0
 35 29  1  0  0  0  0
 36 37  2  0  0  0  0
 37 39  1  0  0  0  0
 37 38  1  0  0  0  0
 39 40  1  0  0  0  0
 41 39  2  0  0  0  0
 42 41  1  0  0  0  0
 43 36  1  0  0  0  0
 43 41  1  0  0  0  0
M  END
>  <minimizedAffinity>
-6.71041727

>  <minimizedRMSD>
1.45866203

$$$$
