
 OpenBabel03272510213D

 35 38  0  0  0  0  0  0  0  0999 V2000
   37.4130   29.1280   50.7940 Br  0  0  0  0  0  0  0  0  0  0  0  0
   36.0080   29.2950   49.5020 C   0  0  0  0  0  0  0  0  0  0  0  0
   36.0170   30.3330   48.5840 C   0  0  0  0  0  0  0  0  0  0  0  0
   34.9760   30.4010   47.6780 C   0  0  0  0  0  0  0  0  0  0  0  0
   33.9410   29.4700   47.6690 C   0  0  0  0  0  0  0  0  0  0  0  0
   33.9610   28.4650   48.5840 C   0  0  0  0  0  0  0  0  0  0  0  0
   34.9960   28.3870   49.4940 C   0  0  0  0  0  0  0  0  0  0  0  0
   34.9170   31.1800   46.9330 H   0  0  0  0  0  0  0  0  0  0  0  0
   33.1730   27.7470   48.5850 H   0  0  0  0  0  0  0  0  0  0  0  0
   34.9580   27.5660   50.1970 H   0  0  0  0  0  0  0  0  0  0  0  0
   37.9990   33.2330   49.5860 C   0  0  0  0  0  0  0  0  0  0  0  0
   39.0610   33.2410   48.6440 C   0  0  0  0  0  0  0  0  0  0  0  0
   39.0840   32.2460   47.6710 C   0  0  0  0  0  0  0  0  0  0  0  0
   38.0850   31.3020   47.6620 N   0  0  0  0  0  0  0  0  0  0  0  0
   37.0910   31.3220   48.5700 C   0  0  0  0  0  0  0  0  0  0  0  0
   37.0530   32.2910   49.5300 N   0  0  0  0  0  0  0  0  0  0  0  0
   38.0250   34.0220   50.3190 H   0  0  0  0  0  0  0  0  0  0  0  0
   39.8190   34.0000   48.6930 H   0  0  0  0  0  0  0  0  0  0  0  0
   39.8610   32.2060   46.9380 H   0  0  0  0  0  0  0  0  0  0  0  0
   32.8360   29.5400   46.7110 C   0  0  0  0  0  0  0  0  0  0  0  0
   31.8830   28.5530   46.5440 C   0  0  0  0  0  0  0  0  0  0  0  0
   30.8560   28.6710   45.6190 C   0  0  0  0  0  0  0  0  0  0  0  0
   30.7650   29.7560   44.8590 N   0  0  0  0  0  0  0  0  0  0  0  0
   31.6870   30.7250   45.0110 C   0  0  0  0  0  0  0  0  0  0  0  0
   32.6780   30.6110   45.9040 N   0  0  0  0  0  0  0  0  0  0  0  0
   31.9650   27.6710   47.1690 H   0  0  0  0  0  0  0  0  0  0  0  0
   30.1380   27.8650   45.5340 H   0  0  0  0  0  0  0  0  0  0  0  0
   31.7320   31.9790   44.2590 C   0  0  0  0  0  0  0  0  0  0  0  0
   31.0010   33.0820   44.7150 C   0  0  0  0  0  0  0  0  0  0  0  0
   30.3700   33.1610   45.5900 H   0  0  0  0  0  0  0  0  0  0  0  0
   31.2180   34.1330   43.8240 C   0  0  0  0  0  0  0  0  0  0  0  0
   30.7710   35.1140   43.9350 H   0  0  0  0  0  0  0  0  0  0  0  0
   32.0830   33.5860   42.8660 C   0  0  0  0  0  0  0  0  0  0  0  0
   32.4440   34.1630   42.0250 H   0  0  0  0  0  0  0  0  0  0  0  0
   32.3460   32.3530   43.1600 O   0  0  0  0  0  0  0  0  0  0  0  0
  2  1  1  0  0  0  0
  3  2  2  0  0  0  0
  4  3  1  0  0  0  0
  5  4  2  0  0  0  0
  5  6  1  0  0  0  0
  6  9  1  0  0  0  0
  6  7  2  0  0  0  0
  7  2  1  0  0  0  0
  7 10  1  0  0  0  0
  8  4  1  0  0  0  0
 11 17  1  0  0  0  0
 12 18  1  0  0  0  0
 12 11  2  0  0  0  0
 13 12  1  0  0  0  0
 14 13  2  0  0  0  0
 14 15  1  0  0  0  0
 15  3  1  0  0  0  0
 15 16  2  0  0  0  0
 16 11  1  0  0  0  0
 19 13  1  0  0  0  0
 20  5  1  0  0  0  0
 21 20  1  0  0  0  0
 21 26  1  0  0  0  0
 22 21  2  0  0  0  0
 23 24  2  0  0  0  0
 23 22  1  0  0  0  0
 24 25  1  0  0  0  0
 25 20  2  0  0  0  0
 27 22  1  0  0  0  0
 28 29  2  0  0  0  0
 28 24  1  0  0  0  0
 29 30  1  0  0  0  0
 31 32  1  0  0  0  0
 31 29  1  0  0  0  0
 33 35  1  0  0  0  0
 33 31  2  0  0  0  0
 34 33  1  0  0  0  0
 35 28  1  0  0  0  0
M  END
>  <minimizedAffinity>
-6.32898426

>  <minimizedRMSD>
0.611355603

$$$$
