
 OpenBabel03272508123D

 33 35  0  0  0  0  0  0  0  0999 V2000
   36.6820   29.4360   44.0020 Cl  0  0  0  0  0  0  0  0  0  0  0  0
   38.3330   29.8340   43.4920 C   0  0  0  0  0  0  0  0  0  0  0  0
   39.3210   30.3310   44.3420 C   0  0  0  0  0  0  0  0  0  0  0  0
   40.5690   30.6010   43.8030 C   0  0  0  0  0  0  0  0  0  0  0  0
   40.8130   30.3840   42.4720 C   0  0  0  0  0  0  0  0  0  0  0  0
   39.8680   29.9020   41.6290 C   0  0  0  0  0  0  0  0  0  0  0  0
   38.6180   29.6220   42.1290 C   0  0  0  0  0  0  0  0  0  0  0  0
   41.2510   30.9800   44.5530 H   0  0  0  0  0  0  0  0  0  0  0  0
   41.8120   30.6200   42.1340 H   0  0  0  0  0  0  0  0  0  0  0  0
   40.0700   29.7330   40.5780 H   0  0  0  0  0  0  0  0  0  0  0  0
   37.5780   29.1010   41.2430 C   0  0  0  0  0  0  0  0  0  0  0  0
   36.7710   29.8620   40.4250 C   0  0  0  0  0  0  0  0  0  0  0  0
   36.7390   30.9240   40.2780 H   0  0  0  0  0  0  0  0  0  0  0  0
   35.9150   29.0050   39.7430 C   0  0  0  0  0  0  0  0  0  0  0  0
   35.1340   29.1390   39.0190 H   0  0  0  0  0  0  0  0  0  0  0  0
   36.2630   27.7290   40.2000 C   0  0  0  0  0  0  0  0  0  0  0  0
   35.8150   26.7890   39.8980 H   0  0  0  0  0  0  0  0  0  0  0  0
   37.2370   27.8470   41.0720 O   0  0  0  0  0  0  0  0  0  0  0  0
   38.8620   30.4700   45.6220 O   0  0  0  0  0  0  0  0  0  0  0  0
   39.4420   32.5080   47.1020 O   0  0  0  0  0  0  0  0  0  0  0  0
   38.3020   31.8330   46.4070 P   0  0  1  0  0  0  0  0  0  0  0  0
   37.7140   32.8480   45.1600 O   0  0  0  0  0  0  0  0  0  0  0  0
   38.3430   33.6070   45.0370 H   0  0  0  0  0  0  0  0  0  0  0  0
   37.0260   31.4180   47.4410 O   0  0  0  0  0  0  0  0  0  0  0  0
   37.6180   30.5320   50.9740 C   0  0  0  0  0  0  0  0  0  0  0  0
   37.7030   31.3020   49.8110 C   0  0  0  0  0  0  0  0  0  0  0  0
   37.0730   30.8440   48.6580 C   0  0  0  0  0  0  0  0  0  0  0  0
   36.3980   29.6570   48.7280 N   0  0  0  0  0  0  0  0  0  0  0  0
   36.3360   28.9380   49.8690 C   0  0  0  0  0  0  0  0  0  0  0  0
   36.9410   29.3730   50.9850 N   0  0  0  0  0  0  0  0  0  0  0  0
   38.1320   30.9510   51.8290 H   0  0  0  0  0  0  0  0  0  0  0  0
   38.2060   32.2290   49.6800 H   0  0  0  0  0  0  0  0  0  0  0  0
   35.7920   27.9910   49.9100 H   0  0  0  0  0  0  0  0  0  0  0  0
  2  1  1  0  0  0  0
  2  3  1  0  0  0  0
  3 19  1  0  0  0  0
  4  3  2  0  0  0  0
  4  8  1  0  0  0  0
  5  4  1  0  0  0  0
  6  7  1  0  0  0  0
  6  5  2  0  0  0  0
  7  2  2  0  0  0  0
  9  5  1  0  0  0  0
 10  6  1  0  0  0  0
 11  7  1  0  0  0  0
 12 11  2  0  0  0  0
 13 12  1  0  0  0  0
 14 16  2  0  0  0  0
 14 12  1  0  0  0  0
 15 14  1  0  0  0  0
 16 18  1  0  0  0  0
 17 16  1  0  0  0  0
 18 11  1  0  0  0  0
 19 21  1  0  0  0  0
 21 20  2  1  0  0  0
 21 24  1  0  0  0  0
 22 21  1  0  0  0  0
 23 22  1  0  0  0  0
 24 27  1  0  0  0  0
 25 30  1  0  0  0  0
 25 31  1  0  0  0  0
 26 25  2  0  0  0  0
 27 28  2  0  0  0  0
 27 26  1  0  0  0  0
 28 29  1  0  0  0  0
 29 33  1  0  0  0  0
 29 30  2  0  0  0  0
 32 26  1  0  0  0  0
M  END
>  <minimizedAffinity>
-4.79205227

>  <minimizedRMSD>
0.110668257

$$$$
