
     RDKit          3D

 30 32  0  0  0  0  0  0  0  0999 V2000
   37.7639   30.5044   50.7199 C   0  0  0  0  0  0  0  0  0  0  0  0
   37.2297   30.6656   49.4062 C   0  0  0  0  0  0  0  0  0  0  0  0
   35.9772   30.1237   49.1523 C   0  0  0  0  0  0  0  0  0  0  0  0
   35.3183   29.4691   50.1546 N   0  0  0  0  0  0  0  0  0  0  0  0
   35.8635   29.3335   51.4065 C   0  0  0  0  0  0  0  0  0  0  0  0
   37.0850   29.8527   51.6827 N   0  0  0  0  0  0  0  0  0  0  0  0
   38.0456   31.3788   48.4642 C   0  0  0  0  0  0  0  0  0  0  0  0
   38.5353   30.6621   47.3930 C   0  0  0  0  0  0  0  0  0  0  0  0
   39.3365   31.1897   46.3918 C   0  0  0  0  0  0  0  0  0  0  0  0
   39.6799   32.5508   46.4643 C   0  0  0  0  0  0  0  0  0  0  0  0
   39.1861   33.2739   47.5446 C   0  0  0  0  0  0  0  0  0  0  0  0
   38.3935   32.7283   48.5247 C   0  0  0  0  0  0  0  0  0  0  0  0
   35.3015   30.2152   47.8363 C   0  0  0  0  0  0  0  0  0  0  0  0
   34.0136   30.7746   48.0062 F   0  0  0  0  0  0  0  0  0  0  0  0
   35.9474   30.9086   46.8776 F   0  0  0  0  0  0  0  0  0  0  0  0
   35.0221   28.9291   47.3611 F   0  0  0  0  0  0  0  0  0  0  0  0
   38.7355   30.9143   50.9490 H   0  0  0  0  0  0  0  0  0  0  0  0
   35.2310   28.7918   52.1020 H   0  0  0  0  0  0  0  0  0  0  0  0
   38.3147   29.6083   47.2672 H   0  0  0  0  0  0  0  0  0  0  0  0
   39.7023   30.5953   45.5656 H   0  0  0  0  0  0  0  0  0  0  0  0
   40.2989   33.0384   45.7261 H   0  0  0  0  0  0  0  0  0  0  0  0
   39.4520   34.3320   47.6026 H   0  0  0  0  0  0  0  0  0  0  0  0
   37.8787   33.4787   49.6495 C   0  0  0  0  0  0  0  0  0  0  0  0
   36.8431   34.4176   49.5922 C   0  0  0  0  0  0  0  0  0  0  0  0
   36.2756   34.7288   48.7338 H   0  0  0  0  0  0  0  0  0  0  0  0
   36.6415   34.9204   50.8829 C   0  0  0  0  0  0  0  0  0  0  0  0
   35.9021   35.6658   51.1466 H   0  0  0  0  0  0  0  0  0  0  0  0
   37.5782   34.2474   51.6512 C   0  0  0  0  0  0  0  0  0  0  0  0
   37.6346   34.4574   52.7167 H   0  0  0  0  0  0  0  0  0  0  0  0
   38.2649   33.4329   50.9093 O   0  0  0  0  0  0  0  0  0  0  0  0
  1  6  2  0
  2  1  1  0
  3  2  2  0
  3  4  1  0
  4  5  2  0
  5  6  1  0
  7 12  1  0
  7  2  1  0
  8  7  2  0
  9 10  2  0
  9  8  1  0
 10 11  1  0
 11 12  2  0
 13 14  1  0
 13  3  1  0
 15 13  1  0
 16 13  1  0
  1 17  1  0
  5 18  1  0
  8 19  1  0
  9 20  1  0
 10 21  1  0
 11 22  1  0
 23 24  2  0
 24 25  1  0
 24 26  1  0
 26 27  1  0
 26 28  2  0
 28 29  1  0
 28 30  1  0
 30 23  1  0
 12 23  1  0
M  ISO  8  17  14  18  14  19  14  20  14  21  14  22  14  25  16  27  16
M  ISO  1  29  14
M  END
>  <DihAtoms>  (1) 
6,11,22,23

>  <DihDeg>  (1) 
118.75725205673986

$$$$
