
     RDKit          3D

 27 29  0  0  0  0  0  0  0  0999 V2000
   35.7495   30.0454   48.0454 C   0  0  0  0  0  0  0  0  0  0  0  0
   36.2165   29.8042   49.3478 C   0  0  0  0  0  0  0  0  0  0  0  0
   37.5674   30.1697   49.5967 C   0  0  0  0  0  0  0  0  0  0  0  0
   38.2978   30.7092   48.5998 N   0  0  0  0  0  0  0  0  0  0  0  0
   37.7969   30.9132   47.3836 C   0  0  0  0  0  0  0  0  0  0  0  0
   36.5037   30.5906   47.0551 N   0  0  0  0  0  0  0  0  0  0  0  0
   38.5609   31.4916   46.2859 C   0  0  0  0  0  0  0  0  0  0  0  0
   39.8998   31.1808   46.1068 C   0  0  0  0  0  0  0  0  0  0  0  0
   40.7123   31.6621   45.1092 C   0  0  0  0  0  0  0  0  0  0  0  0
   40.1299   32.5216   44.2262 N   0  0  0  0  0  0  0  0  0  0  0  0
   38.8219   32.8442   44.3762 C   0  0  0  0  0  0  0  0  0  0  0  0
   38.0728   32.3434   45.3719 N   0  0  0  0  0  0  0  0  0  0  0  0
   35.3927   29.2340   50.3455 N   0  0  0  0  0  0  0  0  0  0  0  0
   34.7217   29.7877   47.7886 H   0  0  0  0  0  0  0  0  0  0  0  0
   37.9754   30.0050   50.5823 H   0  0  0  0  0  0  0  0  0  0  0  0
   40.3875   30.5010   46.7932 H   0  0  0  0  0  0  0  0  0  0  0  0
   41.7467   31.3842   45.0209 H   0  0  0  0  0  0  0  0  0  0  0  0
   34.3693   29.2965   50.1813 H   0  0  0  0  0  0  0  0  0  0  0  0
   35.8560   28.7957   51.1666 H   0  0  0  0  0  0  0  0  0  0  0  0
   38.0961   33.7533   43.4907 C   0  0  0  0  0  0  0  0  0  0  0  0
   38.1087   33.4874   42.1358 C   0  0  0  0  0  0  0  0  0  0  0  0
   38.5525   32.7195   41.5157 H   0  0  0  0  0  0  0  0  0  0  0  0
   37.3523   34.4941   41.5390 C   0  0  0  0  0  0  0  0  0  0  0  0
   37.0641   34.7351   40.5301 H   0  0  0  0  0  0  0  0  0  0  0  0
   36.9246   35.3139   42.5742 C   0  0  0  0  0  0  0  0  0  0  0  0
   36.3060   36.2195   42.5360 H   0  0  0  0  0  0  0  0  0  0  0  0
   37.3842   34.8456   43.7221 O   0  0  0  0  0  0  0  0  0  0  0  0
  1  2  2  0
  2  3  1  0
  2 13  1  0
  4  3  2  0
  5  4  1  0
  6  5  2  0
  6  1  1  0
  7  5  1  0
  8  7  2  0
  9  8  1  0
 10 11  1  0
 10  9  2  0
 11 12  2  0
 12  7  1  0
  1 14  1  0
  3 15  1  0
  8 16  1  0
  9 17  1  0
 13 18  1  0
 13 19  1  0
 20 21  2  0
 21 22  1  0
 21 23  1  0
 23 24  1  0
 23 25  2  0
 25 26  1  0
 25 27  1  0
 27 20  1  0
 11 20  1  0
M  ISO  7  14  14  15  14  16  14  17  14  22  16  24  16  26  14
M  END
>  <DihAtoms>  (1) 
9,10,19,20

>  <DihDeg>  (1) 
84.32582155013213

$$$$
