
 OpenBabel03272505133D

 38 41  0  0  0  0  0  0  0  0999 V2000
   36.4190   30.8460   45.6190 Cl  0  0  0  0  0  0  0  0  0  0  0  0
   36.6740   30.7090   47.3330 C   0  0  0  0  0  0  0  0  0  0  0  0
   37.9090   31.0480   47.8270 C   0  0  0  0  0  0  0  0  0  0  0  0
   38.1160   30.9400   49.1900 C   0  0  0  0  0  0  0  0  0  0  0  0
   37.1060   30.5080   50.0050 C   0  0  0  0  0  0  0  0  0  0  0  0
   35.8800   30.1810   49.4420 C   0  0  0  0  0  0  0  0  0  0  0  0
   35.5990   30.2610   48.1040 C   0  0  0  0  0  0  0  0  0  0  0  0
   39.0990   31.2130   49.5590 H   0  0  0  0  0  0  0  0  0  0  0  0
   37.2530   30.4190   51.0710 H   0  0  0  0  0  0  0  0  0  0  0  0
   35.0940   29.8390   50.1100 H   0  0  0  0  0  0  0  0  0  0  0  0
   40.1850   33.3110   46.0880 C   0  0  0  0  0  0  0  0  0  0  0  0
   40.9220   32.4670   45.2200 C   0  0  0  0  0  0  0  0  0  0  0  0
   40.6140   31.1030   45.2500 C   0  0  0  0  0  0  0  0  0  0  0  0
   39.6370   30.6680   46.1010 N   0  0  0  0  0  0  0  0  0  0  0  0
   38.9700   31.5110   46.9020 C   0  0  0  0  0  0  0  0  0  0  0  0
   39.2450   32.8190   46.8940 N   0  0  0  0  0  0  0  0  0  0  0  0
   40.4020   34.3520   46.0830 H   0  0  0  0  0  0  0  0  0  0  0  0
   41.6770   32.8380   44.5710 H   0  0  0  0  0  0  0  0  0  0  0  0
   41.1210   30.3810   44.6260 H   0  0  0  0  0  0  0  0  0  0  0  0
   34.0370   29.8460   47.3710 S   0  0  0  0  0  0  0  0  0  0  0  0
   33.9650   28.9550   44.3630 Cl  0  0  0  0  0  0  0  0  0  0  0  0
   33.9000   27.7840   45.6470 C   0  0  0  0  0  0  0  0  0  0  0  0
   33.9240   28.0940   47.0070 C   0  0  0  0  0  0  0  0  0  0  0  0
   33.8630   27.0810   47.9440 C   0  0  0  0  0  0  0  0  0  0  0  0
   33.7790   25.7700   47.5460 C   0  0  0  0  0  0  0  0  0  0  0  0
   33.7510   25.4010   46.2100 C   0  0  0  0  0  0  0  0  0  0  0  0
   33.8140   26.4460   45.3000 C   0  0  0  0  0  0  0  0  0  0  0  0
   33.8870   27.4080   48.9790 H   0  0  0  0  0  0  0  0  0  0  0  0
   33.7340   25.0200   48.3260 H   0  0  0  0  0  0  0  0  0  0  0  0
   33.6860   24.3830   45.9030 H   0  0  0  0  0  0  0  0  0  0  0  0
   33.7860   26.0740   43.8820 C   0  0  0  0  0  0  0  0  0  0  0  0
   34.8010   25.7010   43.0640 C   0  0  0  0  0  0  0  0  0  0  0  0
   35.8410   25.6340   43.4190 H   0  0  0  0  0  0  0  0  0  0  0  0
   34.3740   25.4250   41.7820 C   0  0  0  0  0  0  0  0  0  0  0  0
   34.9390   25.1090   40.9170 H   0  0  0  0  0  0  0  0  0  0  0  0
   33.0100   25.6650   41.8930 C   0  0  0  0  0  0  0  0  0  0  0  0
   32.2720   25.5640   41.0820 H   0  0  0  0  0  0  0  0  0  0  0  0
   32.7220   26.0340   43.1150 O   0  0  0  0  0  0  0  0  0  0  0  0
  1  2  1  0  0  0  0
  2  3  2  0  0  0  0
  2  7  1  0  0  0  0
  3  4  1  0  0  0  0
  4  8  1  0  0  0  0
  4  5  2  0  0  0  0
  5  9  1  0  0  0  0
  6  5  1  0  0  0  0
  6 10  1  0  0  0  0
  7  6  2  0  0  0  0
 11 16  1  0  0  0  0
 12 13  1  0  0  0  0
 12 11  2  0  0  0  0
 13 14  2  0  0  0  0
 14 15  1  0  0  0  0
 15  3  1  0  0  0  0
 16 15  2  0  0  0  0
 17 11  1  0  0  0  0
 18 12  1  0  0  0  0
 19 13  1  0  0  0  0
 20  7  1  0  0  0  0
 21 22  1  0  0  0  0
 22 23  1  0  0  0  0
 23 20  1  0  0  0  0
 23 24  2  0  0  0  0
 24 28  1  0  0  0  0
 25 24  1  0  0  0  0
 25 29  1  0  0  0  0
 26 25  2  0  0  0  0
 27 22  2  0  0  0  0
 27 26  1  0  0  0  0
 30 26  1  0  0  0  0
 31 27  1  0  0  0  0
 32 33  1  0  0  0  0
 32 31  2  0  0  0  0
 34 36  2  0  0  0  0
 34 32  1  0  0  0  0
 35 34  1  0  0  0  0
 36 38  1  0  0  0  0
 37 36  1  0  0  0  0
 38 31  1  0  0  0  0
M  END
>  <minimizedAffinity>
-5.62791967

>  <minimizedRMSD>
0.324335098

$$$$
