
 OpenBabel03272505123D

 38 41  0  0  0  0  0  0  0  0999 V2000
   36.4020   30.9150   45.7030 Cl  0  0  0  0  0  0  0  0  0  0  0  0
   36.6920   30.7660   47.4100 C   0  0  0  0  0  0  0  0  0  0  0  0
   37.9430   31.0820   47.8780 C   0  0  0  0  0  0  0  0  0  0  0  0
   38.1770   30.9640   49.2360 C   0  0  0  0  0  0  0  0  0  0  0  0
   37.1780   30.5450   50.0710 C   0  0  0  0  0  0  0  0  0  0  0  0
   35.9350   30.2410   49.5330 C   0  0  0  0  0  0  0  0  0  0  0  0
   35.6260   30.3320   48.2020 C   0  0  0  0  0  0  0  0  0  0  0  0
   39.1720   31.2190   49.5840 H   0  0  0  0  0  0  0  0  0  0  0  0
   37.3470   30.4480   51.1330 H   0  0  0  0  0  0  0  0  0  0  0  0
   35.1580   29.9090   50.2160 H   0  0  0  0  0  0  0  0  0  0  0  0
   40.2060   33.3180   46.0880 C   0  0  0  0  0  0  0  0  0  0  0  0
   40.9210   32.4640   45.2120 C   0  0  0  0  0  0  0  0  0  0  0  0
   40.6020   31.1020   45.2550 C   0  0  0  0  0  0  0  0  0  0  0  0
   39.6370   30.6790   46.1250 N   0  0  0  0  0  0  0  0  0  0  0  0
   38.9910   31.5310   46.9320 C   0  0  0  0  0  0  0  0  0  0  0  0
   39.2760   32.8380   46.9120 N   0  0  0  0  0  0  0  0  0  0  0  0
   40.4310   34.3570   46.0740 H   0  0  0  0  0  0  0  0  0  0  0  0
   41.6670   32.8250   44.5470 H   0  0  0  0  0  0  0  0  0  0  0  0
   41.0930   30.3720   44.6250 H   0  0  0  0  0  0  0  0  0  0  0  0
   34.0430   29.9470   47.5020 S   0  0  0  0  0  0  0  0  0  0  0  0
   33.7850   29.1600   44.4750 Cl  0  0  0  0  0  0  0  0  0  0  0  0
   33.8030   27.9450   45.7190 C   0  0  0  0  0  0  0  0  0  0  0  0
   33.9110   28.2090   47.0840 C   0  0  0  0  0  0  0  0  0  0  0  0
   33.9110   27.1630   47.9880 C   0  0  0  0  0  0  0  0  0  0  0  0
   33.8050   25.8660   47.5500 C   0  0  0  0  0  0  0  0  0  0  0  0
   33.6950   25.5440   46.2070 C   0  0  0  0  0  0  0  0  0  0  0  0
   33.6990   26.6200   45.3320 C   0  0  0  0  0  0  0  0  0  0  0  0
   33.9990   27.4540   49.0300 H   0  0  0  0  0  0  0  0  0  0  0  0
   33.8100   25.0900   48.3050 H   0  0  0  0  0  0  0  0  0  0  0  0
   33.6130   24.5370   45.8690 H   0  0  0  0  0  0  0  0  0  0  0  0
   33.5830   26.2970   43.9060 C   0  0  0  0  0  0  0  0  0  0  0  0
   34.5450   25.9560   43.0140 C   0  0  0  0  0  0  0  0  0  0  0  0
   35.6060   25.8830   43.3000 H   0  0  0  0  0  0  0  0  0  0  0  0
   34.0380   25.7240   41.7520 C   0  0  0  0  0  0  0  0  0  0  0  0
   34.5500   25.4400   40.8420 H   0  0  0  0  0  0  0  0  0  0  0  0
   32.6840   25.9530   41.9560 C   0  0  0  0  0  0  0  0  0  0  0  0
   31.8980   25.8760   41.1900 H   0  0  0  0  0  0  0  0  0  0  0  0
   32.4720   26.2780   43.2060 O   0  0  0  0  0  0  0  0  0  0  0  0
  1  2  1  0  0  0  0
  2  3  2  0  0  0  0
  2  7  1  0  0  0  0
  3  4  1  0  0  0  0
  4  8  1  0  0  0  0
  4  5  2  0  0  0  0
  5  9  1  0  0  0  0
  6  5  1  0  0  0  0
  6 10  1  0  0  0  0
  7  6  2  0  0  0  0
 11 16  1  0  0  0  0
 12 13  1  0  0  0  0
 12 11  2  0  0  0  0
 13 14  2  0  0  0  0
 14 15  1  0  0  0  0
 15  3  1  0  0  0  0
 16 15  2  0  0  0  0
 17 11  1  0  0  0  0
 18 12  1  0  0  0  0
 19 13  1  0  0  0  0
 20  7  1  0  0  0  0
 21 22  1  0  0  0  0
 22 23  1  0  0  0  0
 23 20  1  0  0  0  0
 23 24  2  0  0  0  0
 24 28  1  0  0  0  0
 25 24  1  0  0  0  0
 25 29  1  0  0  0  0
 26 25  2  0  0  0  0
 27 22  2  0  0  0  0
 27 26  1  0  0  0  0
 30 26  1  0  0  0  0
 31 27  1  0  0  0  0
 32 33  1  0  0  0  0
 32 31  2  0  0  0  0
 34 36  2  0  0  0  0
 34 32  1  0  0  0  0
 35 34  1  0  0  0  0
 36 38  1  0  0  0  0
 37 36  1  0  0  0  0
 38 31  1  0  0  0  0
M  END
>  <minimizedAffinity>
-5.62110281

>  <minimizedRMSD>
0.45145756

$$$$
