
 OpenBabel03272506583D

 27 29  0  0  0  0  0  0  0  0999 V2000
   38.3750   32.0160   47.1900 C   0  0  0  0  0  0  0  0  0  0  0  0
   38.8940   32.9540   48.0690 C   0  0  0  0  0  0  0  0  0  0  0  0
   38.4950   33.1480   49.3680 C   0  0  0  0  0  0  0  0  0  0  0  0
   37.4970   32.3340   49.8160 N   0  0  0  0  0  0  0  0  0  0  0  0
   36.9690   31.4080   48.9780 C   0  0  0  0  0  0  0  0  0  0  0  0
   37.3990   31.2610   47.7140 N   0  0  0  0  0  0  0  0  0  0  0  0
   39.6870   33.6140   47.7410 H   0  0  0  0  0  0  0  0  0  0  0  0
   38.9370   33.8940   50.0040 H   0  0  0  0  0  0  0  0  0  0  0  0
   38.4710   32.3730   43.5900 C   0  0  0  0  0  0  0  0  0  0  0  0
   39.6850   31.7850   43.1960 C   0  0  0  0  0  0  0  0  0  0  0  0
   40.4810   31.2490   44.2450 C   0  0  0  0  0  0  0  0  0  0  0  0
   40.0400   31.3360   45.5160 N   0  0  0  0  0  0  0  0  0  0  0  0
   38.8780   31.9070   45.8260 C   0  0  0  0  0  0  0  0  0  0  0  0
   38.0460   32.4480   44.8790 N   0  0  0  0  0  0  0  0  0  0  0  0
   37.8140   32.8020   42.8350 H   0  0  0  0  0  0  0  0  0  0  0  0
   41.4230   30.7860   43.9950 H   0  0  0  0  0  0  0  0  0  0  0  0
   40.0860   31.7290   41.8410 N   0  0  0  0  0  0  0  0  0  0  0  0
   39.3290   31.8450   41.1380 H   0  0  0  0  0  0  0  0  0  0  0  0
   41.0940   31.5800   41.6380 H   0  0  0  0  0  0  0  0  0  0  0  0
   35.8980   30.4850   49.3490 C   0  0  0  0  0  0  0  0  0  0  0  0
   36.1670   29.1310   49.3090 C   0  0  0  0  0  0  0  0  0  0  0  0
   37.0320   28.5340   49.0530 H   0  0  0  0  0  0  0  0  0  0  0  0
   34.9910   28.4940   49.7040 C   0  0  0  0  0  0  0  0  0  0  0  0
   34.6860   27.4700   49.8350 H   0  0  0  0  0  0  0  0  0  0  0  0
   34.0770   29.5060   49.9620 C   0  0  0  0  0  0  0  0  0  0  0  0
   33.0340   29.4360   50.2960 H   0  0  0  0  0  0  0  0  0  0  0  0
   34.6480   30.6780   49.7410 O   0  0  0  0  0  0  0  0  0  0  0  0
  1  6  2  0  0  0  0
  1  2  1  0  0  0  0
  2  3  2  0  0  0  0
  3  4  1  0  0  0  0
  3  8  1  0  0  0  0
  5 20  1  0  0  0  0
  5  4  2  0  0  0  0
  6  5  1  0  0  0  0
  7  2  1  0  0  0  0
  9 14  1  0  0  0  0
 10  9  2  0  0  0  0
 10 11  1  0  0  0  0
 11 12  2  0  0  0  0
 12 13  1  0  0  0  0
 13  1  1  0  0  0  0
 14 13  2  0  0  0  0
 15  9  1  0  0  0  0
 16 11  1  0  0  0  0
 17 10  1  0  0  0  0
 18 17  1  0  0  0  0
 19 17  1  0  0  0  0
 20 27  1  0  0  0  0
 21 20  2  0  0  0  0
 21 23  1  0  0  0  0
 22 21  1  0  0  0  0
 23 24  1  0  0  0  0
 23 25  2  0  0  0  0
 25 26  1  0  0  0  0
 27 25  1  0  0  0  0
M  END
>  <minimizedAffinity>
-5.95373678

>  <minimizedRMSD>
6.48315811

$$$$
