
     RDKit          3D

 38 41  0  0  0  0  0  0  0  0999 V2000
   36.3922   30.9087   45.7027 Cl  0  0  0  0  0  0  0  0  0  0  0  0
   36.6839   30.7618   47.4102 C   0  0  0  0  0  0  0  0  0  0  0  0
   37.9358   31.0768   47.8758 C   0  0  0  0  0  0  0  0  0  0  0  0
   38.1725   30.9613   49.2342 C   0  0  0  0  0  0  0  0  0  0  0  0
   37.1741   30.5438   50.0708 C   0  0  0  0  0  0  0  0  0  0  0  0
   35.9300   30.2410   49.5345 C   0  0  0  0  0  0  0  0  0  0  0  0
   35.6192   30.3302   48.2037 C   0  0  0  0  0  0  0  0  0  0  0  0
   40.2005   33.3080   46.0813 C   0  0  0  0  0  0  0  0  0  0  0  0
   40.9122   32.4517   45.2030 C   0  0  0  0  0  0  0  0  0  0  0  0
   40.5905   31.0910   45.2473 C   0  0  0  0  0  0  0  0  0  0  0  0
   39.6257   30.6700   46.1187 N   0  0  0  0  0  0  0  0  0  0  0  0
   38.9833   31.5245   46.9279 C   0  0  0  0  0  0  0  0  0  0  0  0
   39.2706   32.8302   46.9066 N   0  0  0  0  0  0  0  0  0  0  0  0
   34.0338   29.9461   47.5068 S   0  0  0  0  0  0  0  0  0  0  0  0
   33.7490   29.1795   44.4768 Cl  0  0  0  0  0  0  0  0  0  0  0  0
   33.7842   27.9555   45.7119 C   0  0  0  0  0  0  0  0  0  0  0  0
   33.9051   28.2100   47.0776 C   0  0  0  0  0  0  0  0  0  0  0  0
   33.9186   27.1582   47.9741 C   0  0  0  0  0  0  0  0  0  0  0  0
   33.8137   25.8640   47.5283 C   0  0  0  0  0  0  0  0  0  0  0  0
   33.6914   25.5509   46.1834 C   0  0  0  0  0  0  0  0  0  0  0  0
   33.6819   26.6328   45.3164 C   0  0  0  0  0  0  0  0  0  0  0  0
   39.1680   31.2152   49.5797 H   0  0  0  0  0  0  0  0  0  0  0  0
   37.3441   30.4490   51.1330 H   0  0  0  0  0  0  0  0  0  0  0  0
   35.1532   29.9114   50.2202 H   0  0  0  0  0  0  0  0  0  0  0  0
   40.4277   34.3456   46.0655 H   0  0  0  0  0  0  0  0  0  0  0  0
   41.6573   32.8113   44.5371 H   0  0  0  0  0  0  0  0  0  0  0  0
   41.0776   30.3597   44.6170 H   0  0  0  0  0  0  0  0  0  0  0  0
   34.0157   27.4416   49.0171 H   0  0  0  0  0  0  0  0  0  0  0  0
   33.8300   25.0818   48.2769 H   0  0  0  0  0  0  0  0  0  0  0  0
   33.6101   24.5460   45.8394 H   0  0  0  0  0  0  0  0  0  0  0  0
   33.5533   26.3196   43.8894 C   0  0  0  0  0  0  0  0  0  0  0  0
   33.9643   25.2255   43.2022 C   0  0  0  0  0  0  0  0  0  0  0  0
   34.4825   24.3887   43.6945 H   0  0  0  0  0  0  0  0  0  0  0  0
   33.6587   25.2990   41.8588 C   0  0  0  0  0  0  0  0  0  0  0  0
   33.8547   24.5913   41.0653 H   0  0  0  0  0  0  0  0  0  0  0  0
   33.0261   26.5337   41.7912 C   0  0  0  0  0  0  0  0  0  0  0  0
   32.6131   26.9938   40.8800 H   0  0  0  0  0  0  0  0  0  0  0  0
   32.9901   27.0798   42.9797 O   0  0  0  0  0  0  0  0  0  0  0  0
  1  2  1  0
  2  3  2  0
  2  7  1  0
  3  4  1  0
  4  5  2  0
  6  5  1  0
  7  6  2  0
  8 13  2  0
  9 10  2  0
  9  8  1  0
 10 11  1  0
 11 12  2  0
 12  3  1  0
 13 12  1  0
 14  7  1  0
 15 16  1  0
 16 17  2  0
 17 14  1  0
 17 18  1  0
 19 18  2  0
 20 19  1  0
 21 16  1  0
 21 20  2  0
  4 22  1  0
  5 23  1  0
  6 24  1  0
  8 25  1  0
  9 26  1  0
 10 27  1  0
 18 28  1  0
 19 29  1  0
 20 30  1  0
 31 32  2  0
 32 33  1  0
 32 34  1  0
 34 35  1  0
 34 36  2  0
 36 37  1  0
 36 38  1  0
 38 31  1  0
 21 31  1  0
M  ISO  8  22  14  23  14  24  14  25  14  26  14  27  14  28  14  29  14
M  ISO  4  30  14  33  16  35  16  37  14
M  END
>  <DihAtoms>  (1) 
15,20,30,31

>  <DihDeg>  (1) 
-179.99947306574077

$$$$
