
 OpenBabel03272508123D

 33 35  0  0  0  0  0  0  0  0999 V2000
   36.6760   29.4380   44.0580 Cl  0  0  0  0  0  0  0  0  0  0  0  0
   38.3190   29.8340   43.5250 C   0  0  0  0  0  0  0  0  0  0  0  0
   39.3190   30.3340   44.3590 C   0  0  0  0  0  0  0  0  0  0  0  0
   40.5590   30.6020   43.8030 C   0  0  0  0  0  0  0  0  0  0  0  0
   40.7860   30.3790   42.4700 C   0  0  0  0  0  0  0  0  0  0  0  0
   39.8300   29.8940   41.6410 C   0  0  0  0  0  0  0  0  0  0  0  0
   38.5870   29.6170   42.1590 C   0  0  0  0  0  0  0  0  0  0  0  0
   41.2520   30.9830   44.5430 H   0  0  0  0  0  0  0  0  0  0  0  0
   41.7800   30.6140   42.1170 H   0  0  0  0  0  0  0  0  0  0  0  0
   40.0180   29.7210   40.5880 H   0  0  0  0  0  0  0  0  0  0  0  0
   37.5350   29.0930   41.2890 C   0  0  0  0  0  0  0  0  0  0  0  0
   37.3800   27.7710   40.9300 C   0  0  0  0  0  0  0  0  0  0  0  0
   37.9580   26.9080   41.1980 H   0  0  0  0  0  0  0  0  0  0  0  0
   36.2710   27.6750   40.0980 C   0  0  0  0  0  0  0  0  0  0  0  0
   35.7790   26.8700   39.5870 H   0  0  0  0  0  0  0  0  0  0  0  0
   35.8010   28.9890   39.9930 C   0  0  0  0  0  0  0  0  0  0  0  0
   34.9410   29.3260   39.4220 H   0  0  0  0  0  0  0  0  0  0  0  0
   36.5760   29.7720   40.7080 O   0  0  0  0  0  0  0  0  0  0  0  0
   38.8770   30.4780   45.6450 O   0  0  0  0  0  0  0  0  0  0  0  0
   39.4380   32.5220   47.1250 O   0  0  0  0  0  0  0  0  0  0  0  0
   38.3060   31.8390   46.4250 P   0  0  1  0  0  0  0  0  0  0  0  0
   37.7180   32.8500   45.1730 O   0  0  0  0  0  0  0  0  0  0  0  0
   38.3440   33.6110   45.0530 H   0  0  0  0  0  0  0  0  0  0  0  0
   37.0270   31.4190   47.4530 O   0  0  0  0  0  0  0  0  0  0  0  0
   37.6100   30.5300   50.9860 C   0  0  0  0  0  0  0  0  0  0  0  0
   37.6990   31.3000   49.8240 C   0  0  0  0  0  0  0  0  0  0  0  0
   37.0700   30.8440   48.6700 C   0  0  0  0  0  0  0  0  0  0  0  0
   36.3930   29.6580   48.7380 N   0  0  0  0  0  0  0  0  0  0  0  0
   36.3270   28.9390   49.8790 C   0  0  0  0  0  0  0  0  0  0  0  0
   36.9320   29.3720   50.9950 N   0  0  0  0  0  0  0  0  0  0  0  0
   38.1240   30.9480   51.8430 H   0  0  0  0  0  0  0  0  0  0  0  0
   38.2040   32.2270   49.6950 H   0  0  0  0  0  0  0  0  0  0  0  0
   35.7820   27.9920   49.9180 H   0  0  0  0  0  0  0  0  0  0  0  0
  2  1  1  0  0  0  0
  2  3  1  0  0  0  0
  3 19  1  0  0  0  0
  4  3  2  0  0  0  0
  4  8  1  0  0  0  0
  5  4  1  0  0  0  0
  6  7  1  0  0  0  0
  6  5  2  0  0  0  0
  7  2  2  0  0  0  0
  9  5  1  0  0  0  0
 10  6  1  0  0  0  0
 11  7  1  0  0  0  0
 12 13  1  0  0  0  0
 12 11  2  0  0  0  0
 14 12  1  0  0  0  0
 15 14  1  0  0  0  0
 16 14  2  0  0  0  0
 16 18  1  0  0  0  0
 17 16  1  0  0  0  0
 18 11  1  0  0  0  0
 19 21  1  0  0  0  0
 21 20  2  1  0  0  0
 21 24  1  0  0  0  0
 22 21  1  0  0  0  0
 23 22  1  0  0  0  0
 24 27  1  0  0  0  0
 25 30  1  0  0  0  0
 25 31  1  0  0  0  0
 26 25  2  0  0  0  0
 27 28  2  0  0  0  0
 27 26  1  0  0  0  0
 28 29  1  0  0  0  0
 29 33  1  0  0  0  0
 29 30  2  0  0  0  0
 32 26  1  0  0  0  0
M  END
>  <minimizedAffinity>
-4.80109072

>  <minimizedRMSD>
0.164839

$$$$
