
 OpenBabel03272508453D

 26 28  0  0  0  0  0  0  0  0999 V2000
   35.8330   30.1860   49.9370 C   0  0  0  0  0  0  0  0  0  0  0  0
   36.7450   29.8450   50.9310 C   0  0  0  0  0  0  0  0  0  0  0  0
   37.8310   30.6710   50.6410 C   0  0  0  0  0  0  0  0  0  0  0  0
   37.5400   31.4360   49.5390 C   0  0  0  0  0  0  0  0  0  0  0  0
   36.3410   31.1310   49.1330 O   0  0  0  0  0  0  0  0  0  0  0  0
   36.6110   29.1220   51.7080 H   0  0  0  0  0  0  0  0  0  0  0  0
   38.7580   30.6970   51.2050 H   0  0  0  0  0  0  0  0  0  0  0  0
   38.4240   32.4230   48.9280 C   0  0  0  0  0  0  0  0  0  0  0  0
   38.8850   33.5920   49.4960 C   0  0  0  0  0  0  0  0  0  0  0  0
   38.6410   33.9400   50.5080 H   0  0  0  0  0  0  0  0  0  0  0  0
   39.7030   34.2510   48.5830 C   0  0  0  0  0  0  0  0  0  0  0  0
   40.1790   35.1900   48.8060 H   0  0  0  0  0  0  0  0  0  0  0  0
   39.6870   33.4190   47.4920 C   0  0  0  0  0  0  0  0  0  0  0  0
   40.2540   33.6740   46.5830 H   0  0  0  0  0  0  0  0  0  0  0  0
   38.9400   32.3610   47.7050 O   0  0  0  0  0  0  0  0  0  0  0  0
   34.4940   29.5820   49.7960 C   0  0  0  0  0  0  0  0  0  0  0  0
   33.7060   29.7050   50.7580 O   0  0  0  0  0  0  0  0  0  0  0  0
   33.8340   26.8320   47.5230 C   0  0  0  0  0  0  0  0  0  0  0  0
   33.5280   27.4780   46.3150 C   0  0  0  0  0  0  0  0  0  0  0  0
   33.5440   28.8620   46.2670 C   0  0  0  0  0  0  0  0  0  0  0  0
   33.8620   29.5200   47.4120 N   0  0  0  0  0  0  0  0  0  0  0  0
   34.1510   28.8790   48.5580 C   0  0  0  0  0  0  0  0  0  0  0  0
   34.1410   27.5390   48.6250 N   0  0  0  0  0  0  0  0  0  0  0  0
   33.7950   25.7500   47.4620 H   0  0  0  0  0  0  0  0  0  0  0  0
   33.2750   26.9950   45.3950 H   0  0  0  0  0  0  0  0  0  0  0  0
   33.3200   29.4380   45.3730 H   0  0  0  0  0  0  0  0  0  0  0  0
  1  2  2  0  0  0  0
  2  6  1  0  0  0  0
  3  2  1  0  0  0  0
  3  7  1  0  0  0  0
  4  3  2  0  0  0  0
  5  4  1  0  0  0  0
  5  1  1  0  0  0  0
  8  9  2  0  0  0  0
  8  4  1  0  0  0  0
  9 10  1  0  0  0  0
 11 12  1  0  0  0  0
 11  9  1  0  0  0  0
 13 15  1  0  0  0  0
 13 11  2  0  0  0  0
 14 13  1  0  0  0  0
 15  8  1  0  0  0  0
 16  1  1  0  0  0  0
 16 17  2  0  0  0  0
 18 23  1  0  0  0  0
 19 18  2  0  0  0  0
 20 19  1  0  0  0  0
 20 21  2  0  0  0  0
 21 22  1  0  0  0  0
 22 23  2  0  0  0  0
 22 16  1  0  0  0  0
 24 18  1  0  0  0  0
 25 19  1  0  0  0  0
 26 20  1  0  0  0  0
M  END
>  <minimizedAffinity>
-5.4056263

>  <minimizedRMSD>
1.98356616

$$$$
