
 OpenBabel03262522103D

 28 30  0  0  0  0  0  0  0  0999 V2000
   35.1260   29.5160   48.1460 C   0  0  0  0  0  0  0  0  0  0  0  0
   35.3470   29.0170   49.4200 C   0  0  0  0  0  0  0  0  0  0  0  0
   36.5640   29.2290   50.0340 C   0  0  0  0  0  0  0  0  0  0  0  0
   37.5080   29.9510   49.3060 C   0  0  0  0  0  0  0  0  0  0  0  0
   37.2670   30.4370   48.0470 C   0  0  0  0  0  0  0  0  0  0  0  0
   36.0650   30.2150   47.4670 N   0  0  0  0  0  0  0  0  0  0  0  0
   34.5910   28.4680   49.9380 H   0  0  0  0  0  0  0  0  0  0  0  0
   36.7130   28.8320   51.0200 H   0  0  0  0  0  0  0  0  0  0  0  0
   38.4560   30.1060   49.8080 H   0  0  0  0  0  0  0  0  0  0  0  0
   38.3170   31.1820   47.3630 C   0  0  0  0  0  0  0  0  0  0  0  0
   38.7260   32.4830   47.5710 C   0  0  0  0  0  0  0  0  0  0  0  0
   38.2410   33.0830   48.3300 H   0  0  0  0  0  0  0  0  0  0  0  0
   39.7630   32.7260   46.6660 C   0  0  0  0  0  0  0  0  0  0  0  0
   40.1960   33.7160   46.7030 H   0  0  0  0  0  0  0  0  0  0  0  0
   39.9120   31.5450   45.9630 C   0  0  0  0  0  0  0  0  0  0  0  0
   40.6840   31.5360   45.1990 H   0  0  0  0  0  0  0  0  0  0  0  0
   39.0460   30.6620   46.4010 O   0  0  0  0  0  0  0  0  0  0  0  0
   33.8130   29.2550   47.5540 C   0  0  0  0  0  0  0  0  0  0  0  0
   33.2130   30.1350   46.9410 O   0  0  0  0  0  0  0  0  0  0  0  0
   33.7370   26.8330   47.0600 C   0  0  0  0  0  0  0  0  0  0  0  0
   33.1620   27.9580   47.6600 C   0  0  0  0  0  0  0  0  0  0  0  0
   31.9780   27.7600   48.3360 C   0  0  0  0  0  0  0  0  0  0  0  0
   31.4210   26.5140   48.3970 N   0  0  0  0  0  0  0  0  0  0  0  0
   32.0120   25.4550   47.8020 C   0  0  0  0  0  0  0  0  0  0  0  0
   33.1590   25.6110   47.1390 N   0  0  0  0  0  0  0  0  0  0  0  0
   34.6750   26.8990   46.5050 H   0  0  0  0  0  0  0  0  0  0  0  0
   31.5130   28.6160   48.8100 H   0  0  0  0  0  0  0  0  0  0  0  0
   31.4440   24.5380   47.9430 H   0  0  0  0  0  0  0  0  0  0  0  0
  1  2  1  0  0  0  0
  2  7  1  0  0  0  0
  2  3  2  0  0  0  0
  3  8  1  0  0  0  0
  4  9  1  0  0  0  0
  4  3  1  0  0  0  0
  5  4  2  0  0  0  0
  6  5  1  0  0  0  0
  6  1  2  0  0  0  0
 10 11  2  0  0  0  0
 10  5  1  0  0  0  0
 11 12  1  0  0  0  0
 13 14  1  0  0  0  0
 13 11  1  0  0  0  0
 15 17  1  0  0  0  0
 15 13  2  0  0  0  0
 16 15  1  0  0  0  0
 17 10  1  0  0  0  0
 18 21  1  0  0  0  0
 18  1  1  0  0  0  0
 19 18  2  0  0  0  0
 20 25  2  0  0  0  0
 20 21  1  0  0  0  0
 21 22  2  0  0  0  0
 22 23  1  0  0  0  0
 22 27  1  0  0  0  0
 24 28  1  0  0  0  0
 24 23  2  0  0  0  0
 25 24  1  0  0  0  0
 26 20  1  0  0  0  0
M  END
>  <minimizedAffinity>
-5.29063988

>  <minimizedRMSD>
4.95286274

$$$$
