
 OpenBabel03272500313D

 27 29  0  0  0  0  0  0  0  0999 V2000
   37.8920   23.2540   33.6550 Cl  0  0  0  0  0  0  0  0  0  0  0  0
   36.9680   24.3600   32.6610 C   0  0  0  0  0  0  0  0  0  0  0  0
   36.1170   23.7650   31.7470 C   0  0  0  0  0  0  0  0  0  0  0  0
   35.3610   24.6300   30.9330 C   0  0  0  0  0  0  0  0  0  0  0  0
   35.5020   25.9900   31.0820 C   0  0  0  0  0  0  0  0  0  0  0  0
   36.3650   26.4910   32.0090 C   0  0  0  0  0  0  0  0  0  0  0  0
   37.1280   25.7180   32.8300 C   0  0  0  0  0  0  0  0  0  0  0  0
   34.6910   24.1830   30.2140 H   0  0  0  0  0  0  0  0  0  0  0  0
   34.9210   26.6330   30.4570 H   0  0  0  0  0  0  0  0  0  0  0  0
   36.4380   27.5800   32.0840 H   0  0  0  0  0  0  0  0  0  0  0  0
   34.8790   20.3770   32.2140 C   0  0  0  0  0  0  0  0  0  0  0  0
   35.7150   19.5830   31.4270 C   0  0  0  0  0  0  0  0  0  0  0  0
   36.7260   20.2500   30.7250 C   0  0  0  0  0  0  0  0  0  0  0  0
   36.8250   21.6020   30.8530 N   0  0  0  0  0  0  0  0  0  0  0  0
   35.9970   22.3200   31.6210 C   0  0  0  0  0  0  0  0  0  0  0  0
   35.0170   21.6970   32.3050 N   0  0  0  0  0  0  0  0  0  0  0  0
   34.0830   19.8610   32.7680 H   0  0  0  0  0  0  0  0  0  0  0  0
   35.6480   18.5230   31.3180 H   0  0  0  0  0  0  0  0  0  0  0  0
   37.4500   19.7720   30.0750 H   0  0  0  0  0  0  0  0  0  0  0  0
   38.0380   26.2730   33.8070 C   0  0  0  0  0  0  0  0  0  0  0  0
   37.6560   26.8040   35.0230 C   0  0  0  0  0  0  0  0  0  0  0  0
   36.6440   26.8680   35.3860 H   0  0  0  0  0  0  0  0  0  0  0  0
   38.8340   27.2090   35.6190 C   0  0  0  0  0  0  0  0  0  0  0  0
   38.8770   27.6780   36.6070 H   0  0  0  0  0  0  0  0  0  0  0  0
   39.8650   26.9100   34.7520 C   0  0  0  0  0  0  0  0  0  0  0  0
   40.9140   27.1190   34.9630 H   0  0  0  0  0  0  0  0  0  0  0  0
   39.3460   26.3440   33.6670 O   0  0  0  0  0  0  0  0  0  0  0  0
  2  7  1  0  0  0  0
  2  1  1  0  0  0  0
  3  2  2  0  0  0  0
  4  5  2  0  0  0  0
  4  3  1  0  0  0  0
  5  6  1  0  0  0  0
  6 10  1  0  0  0  0
  6  7  2  0  0  0  0
  7 20  1  0  0  0  0
  8  4  1  0  0  0  0
  9  5  1  0  0  0  0
 11 16  1  0  0  0  0
 11 17  1  0  0  0  0
 12 11  2  0  0  0  0
 13 14  2  0  0  0  0
 13 12  1  0  0  0  0
 14 15  1  0  0  0  0
 15  3  1  0  0  0  0
 15 16  2  0  0  0  0
 18 12  1  0  0  0  0
 19 13  1  0  0  0  0
 20 21  2  0  0  0  0
 21 22  1  0  0  0  0
 21 23  1  0  0  0  0
 23 24  1  0  0  0  0
 25 26  1  0  0  0  0
 25 23  2  0  0  0  0
 27 20  1  0  0  0  0
 27 25  1  0  0  0  0
M  END
>  <minimizedAffinity>
-5.09750319

$$$$

 OpenBabel03272500313D

 27 29  0  0  0  0  0  0  0  0999 V2000
   40.5810   24.4600   34.3580 Cl  0  0  0  0  0  0  0  0  0  0  0  0
   39.8390   24.0020   35.8760 C   0  0  0  0  0  0  0  0  0  0  0  0
   38.6340   24.6220   36.1570 C   0  0  0  0  0  0  0  0  0  0  0  0
   38.0140   24.2730   37.3710 C   0  0  0  0  0  0  0  0  0  0  0  0
   38.6190   23.3570   38.2000 C   0  0  0  0  0  0  0  0  0  0  0  0
   39.8080   22.7950   37.8440 C   0  0  0  0  0  0  0  0  0  0  0  0
   40.4660   23.0820   36.6870 C   0  0  0  0  0  0  0  0  0  0  0  0
   37.0720   24.7470   37.6080 H   0  0  0  0  0  0  0  0  0  0  0  0
   38.1360   23.1030   39.1180 H   0  0  0  0  0  0  0  0  0  0  0  0
   40.2450   22.0730   38.5400 H   0  0  0  0  0  0  0  0  0  0  0  0
   37.3410   27.7690   34.8710 C   0  0  0  0  0  0  0  0  0  0  0  0
   36.8830   27.4660   33.5890 C   0  0  0  0  0  0  0  0  0  0  0  0
   37.0320   26.1380   33.1730 C   0  0  0  0  0  0  0  0  0  0  0  0
   37.6010   25.2460   34.0300 N   0  0  0  0  0  0  0  0  0  0  0  0
   38.0260   25.5870   35.2530 C   0  0  0  0  0  0  0  0  0  0  0  0
   37.8930   26.8610   35.6720 N   0  0  0  0  0  0  0  0  0  0  0  0
   37.2290   28.8100   35.2050 H   0  0  0  0  0  0  0  0  0  0  0  0
   36.4350   28.1540   32.9070 H   0  0  0  0  0  0  0  0  0  0  0  0
   36.7250   25.7510   32.2080 H   0  0  0  0  0  0  0  0  0  0  0  0
   41.7280   22.4720   36.3310 C   0  0  0  0  0  0  0  0  0  0  0  0
   42.9650   23.0490   36.5380 C   0  0  0  0  0  0  0  0  0  0  0  0
   43.1380   24.0130   36.9860 H   0  0  0  0  0  0  0  0  0  0  0  0
   43.8720   22.1270   36.0530 C   0  0  0  0  0  0  0  0  0  0  0  0
   44.9550   22.2850   36.0700 H   0  0  0  0  0  0  0  0  0  0  0  0
   43.1570   21.0470   35.5790 C   0  0  0  0  0  0  0  0  0  0  0  0
   43.6160   20.1630   35.1370 H   0  0  0  0  0  0  0  0  0  0  0  0
   41.8630   21.2900   35.7650 O   0  0  0  0  0  0  0  0  0  0  0  0
  1  2  1  0  0  0  0
  2  3  2  0  0  0  0
  2  7  1  0  0  0  0
  3  4  1  0  0  0  0
  4  8  1  0  0  0  0
  4  5  2  0  0  0  0
  5  9  1  0  0  0  0
  6  5  1  0  0  0  0
  6 10  1  0  0  0  0
  7  6  2  0  0  0  0
 11 17  1  0  0  0  0
 11 16  1  0  0  0  0
 12 11  2  0  0  0  0
 13 12  1  0  0  0  0
 13 14  2  0  0  0  0
 14 15  1  0  0  0  0
 15 16  2  0  0  0  0
 15  3  1  0  0  0  0
 18 12  1  0  0  0  0
 19 13  1  0  0  0  0
 20 21  2  0  0  0  0
 20  7  1  0  0  0  0
 21 22  1  0  0  0  0
 23 24  1  0  0  0  0
 23 21  1  0  0  0  0
 25 27  1  0  0  0  0
 25 23  2  0  0  0  0
 26 25  1  0  0  0  0
 27 20  1  0  0  0  0
M  END
>  <minimizedAffinity>
-4.93350506

$$$$

 OpenBabel03272500313D

 27 29  0  0  0  0  0  0  0  0999 V2000
   38.1030   22.8850   33.2930 Cl  0  0  0  0  0  0  0  0  0  0  0  0
   36.9950   23.9020   32.3960 C   0  0  0  0  0  0  0  0  0  0  0  0
   37.2260   25.2630   32.5000 C   0  0  0  0  0  0  0  0  0  0  0  0
   36.3510   26.1060   31.7900 C   0  0  0  0  0  0  0  0  0  0  0  0
   35.3350   25.5520   31.0460 C   0  0  0  0  0  0  0  0  0  0  0  0
   35.1810   24.1990   31.0000 C   0  0  0  0  0  0  0  0  0  0  0  0
   35.9870   23.3220   31.6590 C   0  0  0  0  0  0  0  0  0  0  0  0
   36.5140   27.1710   31.8590 H   0  0  0  0  0  0  0  0  0  0  0  0
   34.6790   26.2050   30.5130 H   0  0  0  0  0  0  0  0  0  0  0  0
   34.3570   23.8120   30.3930 H   0  0  0  0  0  0  0  0  0  0  0  0
   39.0360   26.6240   35.3460 C   0  0  0  0  0  0  0  0  0  0  0  0
   40.3280   26.8490   34.8690 C   0  0  0  0  0  0  0  0  0  0  0  0
   40.5630   26.5170   33.5300 C   0  0  0  0  0  0  0  0  0  0  0  0
   39.5360   26.0070   32.7950 N   0  0  0  0  0  0  0  0  0  0  0  0
   38.3130   25.8100   33.2990 C   0  0  0  0  0  0  0  0  0  0  0  0
   38.0660   26.1220   34.5870 N   0  0  0  0  0  0  0  0  0  0  0  0
   38.8440   26.8820   36.3970 H   0  0  0  0  0  0  0  0  0  0  0  0
   41.1410   27.2480   35.4330 H   0  0  0  0  0  0  0  0  0  0  0  0
   41.5120   26.6340   33.0170 H   0  0  0  0  0  0  0  0  0  0  0  0
   35.8040   21.8890   31.5950 C   0  0  0  0  0  0  0  0  0  0  0  0
   34.9350   21.1720   32.3920 C   0  0  0  0  0  0  0  0  0  0  0  0
   34.2930   21.5900   33.1500 H   0  0  0  0  0  0  0  0  0  0  0  0
   35.0870   19.8590   31.9920 C   0  0  0  0  0  0  0  0  0  0  0  0
   34.5300   19.0280   32.4360 H   0  0  0  0  0  0  0  0  0  0  0  0
   36.0290   19.8360   30.9840 C   0  0  0  0  0  0  0  0  0  0  0  0
   36.3500   18.9270   30.4760 H   0  0  0  0  0  0  0  0  0  0  0  0
   36.4400   21.0820   30.7700 O   0  0  0  0  0  0  0  0  0  0  0  0
  2  3  1  0  0  0  0
  2  1  1  0  0  0  0
  3 15  1  0  0  0  0
  4  8  1  0  0  0  0
  4  3  2  0  0  0  0
  5  4  1  0  0  0  0
  6  5  2  0  0  0  0
  6  7  1  0  0  0  0
  7  2  2  0  0  0  0
  9  5  1  0  0  0  0
 10  6  1  0  0  0  0
 11 17  1  0  0  0  0
 12 11  1  0  0  0  0
 12 18  1  0  0  0  0
 13 12  2  0  0  0  0
 14 15  2  0  0  0  0
 14 13  1  0  0  0  0
 15 16  1  0  0  0  0
 16 11  2  0  0  0  0
 19 13  1  0  0  0  0
 20  7  1  0  0  0  0
 20 21  2  0  0  0  0
 21 22  1  0  0  0  0
 23 21  1  0  0  0  0
 23 24  1  0  0  0  0
 25 23  2  0  0  0  0
 26 25  1  0  0  0  0
 27 25  1  0  0  0  0
 27 20  1  0  0  0  0
M  END
>  <minimizedAffinity>
-4.87046909

$$$$

 OpenBabel03272500313D

 27 29  0  0  0  0  0  0  0  0999 V2000
   37.9700   23.2080   34.2040 Cl  0  0  0  0  0  0  0  0  0  0  0  0
   38.9240   24.6760   34.1510 C   0  0  0  0  0  0  0  0  0  0  0  0
   38.4810   25.6370   33.2600 C   0  0  0  0  0  0  0  0  0  0  0  0
   39.2280   26.8280   33.1960 C   0  0  0  0  0  0  0  0  0  0  0  0
   40.3340   26.9750   34.0010 C   0  0  0  0  0  0  0  0  0  0  0  0
   40.6990   25.9750   34.8500 C   0  0  0  0  0  0  0  0  0  0  0  0
   40.0270   24.7970   34.9670 C   0  0  0  0  0  0  0  0  0  0  0  0
   38.8980   27.5910   32.5060 H   0  0  0  0  0  0  0  0  0  0  0  0
   40.8910   27.8850   33.9400 H   0  0  0  0  0  0  0  0  0  0  0  0
   41.5870   26.1440   35.4660 H   0  0  0  0  0  0  0  0  0  0  0  0
   35.4190   26.3590   31.4350 C   0  0  0  0  0  0  0  0  0  0  0  0
   35.0580   25.1420   30.8530 C   0  0  0  0  0  0  0  0  0  0  0  0
   35.9040   24.0570   31.1080 C   0  0  0  0  0  0  0  0  0  0  0  0
   37.0010   24.2540   31.8910 N   0  0  0  0  0  0  0  0  0  0  0  0
   37.3040   25.4430   32.4260 C   0  0  0  0  0  0  0  0  0  0  0  0
   36.5030   26.5010   32.1930 N   0  0  0  0  0  0  0  0  0  0  0  0
   34.7610   27.2170   31.2390 H   0  0  0  0  0  0  0  0  0  0  0  0
   34.2030   24.9740   30.2390 H   0  0  0  0  0  0  0  0  0  0  0  0
   35.7570   23.0520   30.7280 H   0  0  0  0  0  0  0  0  0  0  0  0
   40.4340   23.7490   35.8770 C   0  0  0  0  0  0  0  0  0  0  0  0
   41.5890   23.0040   35.7500 C   0  0  0  0  0  0  0  0  0  0  0  0
   42.3200   23.1130   34.9660 H   0  0  0  0  0  0  0  0  0  0  0  0
   41.5710   22.1340   36.8230 C   0  0  0  0  0  0  0  0  0  0  0  0
   42.3580   21.3990   37.0130 H   0  0  0  0  0  0  0  0  0  0  0  0
   40.4220   22.3850   37.5440 C   0  0  0  0  0  0  0  0  0  0  0  0
   40.1440   21.8450   38.4490 H   0  0  0  0  0  0  0  0  0  0  0  0
   39.7590   23.3690   36.9430 O   0  0  0  0  0  0  0  0  0  0  0  0
  2  1  1  0  0  0  0
  2  7  1  0  0  0  0
  3  2  2  0  0  0  0
  4  3  1  0  0  0  0
  4  5  2  0  0  0  0
  5  6  1  0  0  0  0
  6  7  2  0  0  0  0
  6 10  1  0  0  0  0
  7 20  1  0  0  0  0
  8  4  1  0  0  0  0
  9  5  1  0  0  0  0
 11 16  1  0  0  0  0
 12 13  1  0  0  0  0
 12 11  2  0  0  0  0
 13 14  2  0  0  0  0
 14 15  1  0  0  0  0
 15  3  1  0  0  0  0
 16 15  2  0  0  0  0
 17 11  1  0  0  0  0
 18 12  1  0  0  0  0
 19 13  1  0  0  0  0
 20 27  1  0  0  0  0
 21 20  2  0  0  0  0
 21 23  1  0  0  0  0
 22 21  1  0  0  0  0
 23 24  1  0  0  0  0
 23 25  2  0  0  0  0
 25 26  1  0  0  0  0
 27 25  1  0  0  0  0
M  END
>  <minimizedAffinity>
-4.80326796

$$$$

 OpenBabel03272500313D

 27 29  0  0  0  0  0  0  0  0999 V2000
   40.5910   24.6730   34.3070 Cl  0  0  0  0  0  0  0  0  0  0  0  0
   39.7610   24.2120   35.7790 C   0  0  0  0  0  0  0  0  0  0  0  0
   40.3930   23.2400   36.5350 C   0  0  0  0  0  0  0  0  0  0  0  0
   39.7500   22.8490   37.7240 C   0  0  0  0  0  0  0  0  0  0  0  0
   38.5540   23.4370   38.0680 C   0  0  0  0  0  0  0  0  0  0  0  0
   38.0020   24.3860   37.2630 C   0  0  0  0  0  0  0  0  0  0  0  0
   38.5660   24.8150   36.1000 C   0  0  0  0  0  0  0  0  0  0  0  0
   40.2280   22.0920   38.3270 H   0  0  0  0  0  0  0  0  0  0  0  0
   38.0780   23.1290   38.9740 H   0  0  0  0  0  0  0  0  0  0  0  0
   37.0510   24.8200   37.5850 H   0  0  0  0  0  0  0  0  0  0  0  0
   43.9760   22.7470   36.1420 C   0  0  0  0  0  0  0  0  0  0  0  0
   44.0920   21.5660   35.4080 C   0  0  0  0  0  0  0  0  0  0  0  0
   42.8950   20.9370   35.0490 C   0  0  0  0  0  0  0  0  0  0  0  0
   41.7180   21.5070   35.4300 N   0  0  0  0  0  0  0  0  0  0  0  0
   41.6590   22.6440   36.1340 C   0  0  0  0  0  0  0  0  0  0  0  0
   42.8010   23.2650   36.4910 N   0  0  0  0  0  0  0  0  0  0  0  0
   44.9110   23.2480   36.4290 H   0  0  0  0  0  0  0  0  0  0  0  0
   45.0070   21.1090   35.1030 H   0  0  0  0  0  0  0  0  0  0  0  0
   42.8230   20.0160   34.4810 H   0  0  0  0  0  0  0  0  0  0  0  0
   37.9600   25.8260   35.2620 C   0  0  0  0  0  0  0  0  0  0  0  0
   37.8770   27.1660   35.5840 C   0  0  0  0  0  0  0  0  0  0  0  0
   38.2490   27.6150   36.4890 H   0  0  0  0  0  0  0  0  0  0  0  0
   37.2320   27.7490   34.5110 C   0  0  0  0  0  0  0  0  0  0  0  0
   37.0080   28.8190   34.4540 H   0  0  0  0  0  0  0  0  0  0  0  0
   36.9560   26.7530   33.5970 C   0  0  0  0  0  0  0  0  0  0  0  0
   36.4490   26.9240   32.6480 H   0  0  0  0  0  0  0  0  0  0  0  0
   37.4120   25.6030   34.0850 O   0  0  0  0  0  0  0  0  0  0  0  0
  1  2  1  0  0  0  0
  2  7  2  0  0  0  0
  2  3  1  0  0  0  0
  3  4  2  0  0  0  0
  4  5  1  0  0  0  0
  4  8  1  0  0  0  0
  5  9  1  0  0  0  0
  6 10  1  0  0  0  0
  6  5  2  0  0  0  0
  7  6  1  0  0  0  0
 11 17  1  0  0  0  0
 11 16  1  0  0  0  0
 12 11  2  0  0  0  0
 13 12  1  0  0  0  0
 13 14  2  0  0  0  0
 14 15  1  0  0  0  0
 15 16  2  0  0  0  0
 15  3  1  0  0  0  0
 18 12  1  0  0  0  0
 19 13  1  0  0  0  0
 20 21  2  0  0  0  0
 20  7  1  0  0  0  0
 21 22  1  0  0  0  0
 23 21  1  0  0  0  0
 24 23  1  0  0  0  0
 25 27  1  0  0  0  0
 25 23  2  0  0  0  0
 26 25  1  0  0  0  0
 27 20  1  0  0  0  0
M  END
>  <minimizedAffinity>
-4.79786062

$$$$

 OpenBabel03272500313D

 27 29  0  0  0  0  0  0  0  0999 V2000
   39.7110   25.3760   32.0870 Cl  0  0  0  0  0  0  0  0  0  0  0  0
   39.1040   26.1070   33.5570 C   0  0  0  0  0  0  0  0  0  0  0  0
   37.7260   26.1350   33.6800 C   0  0  0  0  0  0  0  0  0  0  0  0
   37.2090   26.7170   34.8520 C   0  0  0  0  0  0  0  0  0  0  0  0
   38.0760   27.2170   35.7960 C   0  0  0  0  0  0  0  0  0  0  0  0
   39.4210   27.1490   35.5930 C   0  0  0  0  0  0  0  0  0  0  0  0
   39.9930   26.6010   34.4860 C   0  0  0  0  0  0  0  0  0  0  0  0
   36.1360   26.7470   34.9660 H   0  0  0  0  0  0  0  0  0  0  0  0
   37.6670   27.6560   36.6810 H   0  0  0  0  0  0  0  0  0  0  0  0
   40.0640   27.5620   36.3760 H   0  0  0  0  0  0  0  0  0  0  0  0
   35.3350   25.9960   30.9420 C   0  0  0  0  0  0  0  0  0  0  0  0
   35.1520   24.6340   30.7000 C   0  0  0  0  0  0  0  0  0  0  0  0
   35.8810   23.7560   31.5110 C   0  0  0  0  0  0  0  0  0  0  0  0
   36.7020   24.2770   32.4640 N   0  0  0  0  0  0  0  0  0  0  0  0
   36.8430   25.5930   32.6570 C   0  0  0  0  0  0  0  0  0  0  0  0
   36.1510   26.4560   31.8870 N   0  0  0  0  0  0  0  0  0  0  0  0
   34.7670   26.6930   30.3100 H   0  0  0  0  0  0  0  0  0  0  0  0
   34.5130   24.2130   29.9580 H   0  0  0  0  0  0  0  0  0  0  0  0
   35.8460   22.6740   31.4430 H   0  0  0  0  0  0  0  0  0  0  0  0
   41.4260   26.5390   34.2930 C   0  0  0  0  0  0  0  0  0  0  0  0
   42.2280   25.4940   34.7050 C   0  0  0  0  0  0  0  0  0  0  0  0
   41.8890   24.6080   35.2140 H   0  0  0  0  0  0  0  0  0  0  0  0
   43.5050   25.8550   34.3190 C   0  0  0  0  0  0  0  0  0  0  0  0
   44.3860   25.2310   34.5020 H   0  0  0  0  0  0  0  0  0  0  0  0
   43.4230   27.0840   33.7000 C   0  0  0  0  0  0  0  0  0  0  0  0
   44.2820   27.6160   33.2910 H   0  0  0  0  0  0  0  0  0  0  0  0
   42.1490   27.4670   33.7020 O   0  0  0  0  0  0  0  0  0  0  0  0
  1  2  1  0  0  0  0
  2  3  2  0  0  0  0
  2  7  1  0  0  0  0
  3  4  1  0  0  0  0
  4  8  1  0  0  0  0
  4  5  2  0  0  0  0
  5  9  1  0  0  0  0
  6  5  1  0  0  0  0
  6 10  1  0  0  0  0
  7  6  2  0  0  0  0
 11 16  1  0  0  0  0
 12 11  2  0  0  0  0
 12 13  1  0  0  0  0
 13 14  2  0  0  0  0
 14 15  1  0  0  0  0
 15  3  1  0  0  0  0
 16 15  2  0  0  0  0
 17 11  1  0  0  0  0
 18 12  1  0  0  0  0
 19 13  1  0  0  0  0
 20  7  1  0  0  0  0
 20 21  2  0  0  0  0
 21 22  1  0  0  0  0
 23 24  1  0  0  0  0
 23 21  1  0  0  0  0
 25 27  1  0  0  0  0
 25 23  2  0  0  0  0
 26 25  1  0  0  0  0
 27 20  1  0  0  0  0
M  END
>  <minimizedAffinity>
-4.71312952

$$$$

 OpenBabel03272500313D

 27 29  0  0  0  0  0  0  0  0999 V2000
   36.7320   21.4140   35.6300 Cl  0  0  0  0  0  0  0  0  0  0  0  0
   37.7240   22.4570   34.6330 C   0  0  0  0  0  0  0  0  0  0  0  0
   37.6610   22.2110   33.2730 C   0  0  0  0  0  0  0  0  0  0  0  0
   38.4490   23.0340   32.4470 C   0  0  0  0  0  0  0  0  0  0  0  0
   39.2240   24.0180   33.0160 C   0  0  0  0  0  0  0  0  0  0  0  0
   39.2260   24.1900   34.3670 C   0  0  0  0  0  0  0  0  0  0  0  0
   38.4910   23.4340   35.2290 C   0  0  0  0  0  0  0  0  0  0  0  0
   38.4130   22.8570   31.3820 H   0  0  0  0  0  0  0  0  0  0  0  0
   39.8170   24.6340   32.3750 H   0  0  0  0  0  0  0  0  0  0  0  0
   39.8610   24.9870   34.7670 H   0  0  0  0  0  0  0  0  0  0  0  0
   36.6910   19.0360   31.7860 C   0  0  0  0  0  0  0  0  0  0  0  0
   35.3060   19.1250   31.6350 C   0  0  0  0  0  0  0  0  0  0  0  0
   34.7100   20.3160   32.0620 C   0  0  0  0  0  0  0  0  0  0  0  0
   35.5020   21.2920   32.5860 N   0  0  0  0  0  0  0  0  0  0  0  0
   36.8280   21.1590   32.7100 C   0  0  0  0  0  0  0  0  0  0  0  0
   37.4230   20.0190   32.3050 N   0  0  0  0  0  0  0  0  0  0  0  0
   37.1680   18.1040   31.4530 H   0  0  0  0  0  0  0  0  0  0  0  0
   34.6740   18.3690   31.2260 H   0  0  0  0  0  0  0  0  0  0  0  0
   33.6480   20.5330   32.0100 H   0  0  0  0  0  0  0  0  0  0  0  0
   38.5090   23.6360   36.6610 C   0  0  0  0  0  0  0  0  0  0  0  0
   37.7770   24.5980   37.3270 C   0  0  0  0  0  0  0  0  0  0  0  0
   37.1100   25.3070   36.8650 H   0  0  0  0  0  0  0  0  0  0  0  0
   38.0980   24.4300   38.6600 C   0  0  0  0  0  0  0  0  0  0  0  0
   37.6790   25.0460   39.4610 H   0  0  0  0  0  0  0  0  0  0  0  0
   38.9980   23.3880   38.7430 C   0  0  0  0  0  0  0  0  0  0  0  0
   39.4260   23.0310   39.6790 H   0  0  0  0  0  0  0  0  0  0  0  0
   39.2220   22.9310   37.5150 O   0  0  0  0  0  0  0  0  0  0  0  0
  2  7  1  0  0  0  0
  2  1  1  0  0  0  0
  3  2  2  0  0  0  0
  4  5  2  0  0  0  0
  4  3  1  0  0  0  0
  5  6  1  0  0  0  0
  6 10  1  0  0  0  0
  6  7  2  0  0  0  0
  7 20  1  0  0  0  0
  8  4  1  0  0  0  0
  9  5  1  0  0  0  0
 11 16  1  0  0  0  0
 12 11  2  0  0  0  0
 12 13  1  0  0  0  0
 13 14  2  0  0  0  0
 14 15  1  0  0  0  0
 15  3  1  0  0  0  0
 16 15  2  0  0  0  0
 17 11  1  0  0  0  0
 18 12  1  0  0  0  0
 19 13  1  0  0  0  0
 20 21  2  0  0  0  0
 20 27  1  0  0  0  0
 21 23  1  0  0  0  0
 22 21  1  0  0  0  0
 23 25  2  0  0  0  0
 23 24  1  0  0  0  0
 25 26  1  0  0  0  0
 27 25  1  0  0  0  0
M  END
>  <minimizedAffinity>
-4.59234524

$$$$

 OpenBabel03272500313D

 27 29  0  0  0  0  0  0  0  0999 V2000
   35.9870   28.2890   34.3510 Cl  0  0  0  0  0  0  0  0  0  0  0  0
   35.8880   29.4460   33.0410 C   0  0  0  0  0  0  0  0  0  0  0  0
   36.2370   28.9590   31.7940 C   0  0  0  0  0  0  0  0  0  0  0  0
   36.1670   29.8680   30.7210 C   0  0  0  0  0  0  0  0  0  0  0  0
   35.7640   31.1620   30.9580 C   0  0  0  0  0  0  0  0  0  0  0  0
   35.4380   31.5560   32.2200 C   0  0  0  0  0  0  0  0  0  0  0  0
   35.4820   30.7350   33.3050 C   0  0  0  0  0  0  0  0  0  0  0  0
   36.4360   29.5060   29.7400 H   0  0  0  0  0  0  0  0  0  0  0  0
   35.7160   31.8390   30.1330 H   0  0  0  0  0  0  0  0  0  0  0  0
   35.1250   32.5960   32.3510 H   0  0  0  0  0  0  0  0  0  0  0  0
   36.0630   25.3870   31.1300 C   0  0  0  0  0  0  0  0  0  0  0  0
   37.3890   24.9530   31.1810 C   0  0  0  0  0  0  0  0  0  0  0  0
   38.3530   25.9310   31.4510 C   0  0  0  0  0  0  0  0  0  0  0  0
   37.9440   27.2150   31.6450 N   0  0  0  0  0  0  0  0  0  0  0  0
   36.6580   27.5820   31.5860 C   0  0  0  0  0  0  0  0  0  0  0  0
   35.7140   26.6560   31.3260 N   0  0  0  0  0  0  0  0  0  0  0  0
   35.2990   24.6270   30.9180 H   0  0  0  0  0  0  0  0  0  0  0  0
   37.7230   23.9510   31.0320 H   0  0  0  0  0  0  0  0  0  0  0  0
   39.4200   25.7480   31.5220 H   0  0  0  0  0  0  0  0  0  0  0  0
   35.1300   31.1770   34.6370 C   0  0  0  0  0  0  0  0  0  0  0  0
   36.0020   31.7850   35.5170 C   0  0  0  0  0  0  0  0  0  0  0  0
   37.0390   32.0020   35.3210 H   0  0  0  0  0  0  0  0  0  0  0  0
   35.2490   32.0310   36.6500 C   0  0  0  0  0  0  0  0  0  0  0  0
   35.6530   32.5110   37.5460 H   0  0  0  0  0  0  0  0  0  0  0  0
   33.9720   31.5680   36.4100 C   0  0  0  0  0  0  0  0  0  0  0  0
   33.1590   31.6300   37.1330 H   0  0  0  0  0  0  0  0  0  0  0  0
   33.9370   31.0580   35.1820 O   0  0  0  0  0  0  0  0  0  0  0  0
  2  7  1  0  0  0  0
  2  1  1  0  0  0  0
  3  2  2  0  0  0  0
  4  5  2  0  0  0  0
  4  3  1  0  0  0  0
  5  6  1  0  0  0  0
  6 10  1  0  0  0  0
  6  7  2  0  0  0  0
  7 20  1  0  0  0  0
  8  4  1  0  0  0  0
  9  5  1  0  0  0  0
 11 12  2  0  0  0  0
 11 16  1  0  0  0  0
 12 13  1  0  0  0  0
 13 19  1  0  0  0  0
 13 14  2  0  0  0  0
 15 14  1  0  0  0  0
 15  3  1  0  0  0  0
 16 15  2  0  0  0  0
 17 11  1  0  0  0  0
 18 12  1  0  0  0  0
 20 27  1  0  0  0  0
 20 21  2  0  0  0  0
 21 23  1  0  0  0  0
 22 21  1  0  0  0  0
 23 24  1  0  0  0  0
 25 23  2  0  0  0  0
 25 26  1  0  0  0  0
 27 25  1  0  0  0  0
M  END
>  <minimizedAffinity>
-4.53675461

$$$$

 OpenBabel03272500313D

 27 29  0  0  0  0  0  0  0  0999 V2000
   38.0270   27.2430   33.5030 Cl  0  0  0  0  0  0  0  0  0  0  0  0
   37.0680   26.1170   32.5660 C   0  0  0  0  0  0  0  0  0  0  0  0
   37.3600   24.7790   32.7690 C   0  0  0  0  0  0  0  0  0  0  0  0
   36.6050   23.8510   32.0290 C   0  0  0  0  0  0  0  0  0  0  0  0
   35.6380   24.3050   31.1610 C   0  0  0  0  0  0  0  0  0  0  0  0
   35.4180   25.6420   31.0230 C   0  0  0  0  0  0  0  0  0  0  0  0
   36.1080   26.5980   31.7050 C   0  0  0  0  0  0  0  0  0  0  0  0
   36.8180   22.8020   32.1740 H   0  0  0  0  0  0  0  0  0  0  0  0
   35.0740   23.5870   30.6060 H   0  0  0  0  0  0  0  0  0  0  0  0
   34.6380   25.9480   30.3190 H   0  0  0  0  0  0  0  0  0  0  0  0
   40.6050   23.7460   34.0450 C   0  0  0  0  0  0  0  0  0  0  0  0
   40.3920   23.5070   35.4040 C   0  0  0  0  0  0  0  0  0  0  0  0
   39.0900   23.7130   35.8740 C   0  0  0  0  0  0  0  0  0  0  0  0
   38.1360   24.1230   34.9930 N   0  0  0  0  0  0  0  0  0  0  0  0
   38.3910   24.3400   33.6980 C   0  0  0  0  0  0  0  0  0  0  0  0
   39.6380   24.1480   33.2250 N   0  0  0  0  0  0  0  0  0  0  0  0
   41.6250   23.5880   33.6680 H   0  0  0  0  0  0  0  0  0  0  0  0
   41.1300   23.1850   36.1040 H   0  0  0  0  0  0  0  0  0  0  0  0
   38.7700   23.5690   36.9000 H   0  0  0  0  0  0  0  0  0  0  0  0
   35.8550   28.0130   31.5410 C   0  0  0  0  0  0  0  0  0  0  0  0
   36.4730   28.8170   30.6040 C   0  0  0  0  0  0  0  0  0  0  0  0
   37.2100   28.4910   29.8890 H   0  0  0  0  0  0  0  0  0  0  0  0
   35.9360   30.0740   30.8060 C   0  0  0  0  0  0  0  0  0  0  0  0
   36.2210   30.9500   30.2160 H   0  0  0  0  0  0  0  0  0  0  0  0
   35.0300   29.9790   31.8420 C   0  0  0  0  0  0  0  0  0  0  0  0
   34.4510   30.8220   32.2190 H   0  0  0  0  0  0  0  0  0  0  0  0
   35.0060   28.7170   32.2610 O   0  0  0  0  0  0  0  0  0  0  0  0
  2  3  1  0  0  0  0
  2  1  1  0  0  0  0
  3 15  1  0  0  0  0
  4  8  1  0  0  0  0
  4  3  2  0  0  0  0
  5  4  1  0  0  0  0
  6  5  2  0  0  0  0
  6  7  1  0  0  0  0
  7  2  2  0  0  0  0
  9  5  1  0  0  0  0
 10  6  1  0  0  0  0
 11 12  1  0  0  0  0
 12 13  2  0  0  0  0
 12 18  1  0  0  0  0
 13 19  1  0  0  0  0
 14 13  1  0  0  0  0
 15 14  2  0  0  0  0
 16 15  1  0  0  0  0
 16 11  2  0  0  0  0
 17 11  1  0  0  0  0
 20  7  1  0  0  0  0
 20 27  1  0  0  0  0
 21 23  1  0  0  0  0
 21 20  2  0  0  0  0
 22 21  1  0  0  0  0
 23 25  2  0  0  0  0
 24 23  1  0  0  0  0
 25 26  1  0  0  0  0
 25 27  1  0  0  0  0
M  END
>  <minimizedAffinity>
-4.51665974

$$$$
