
 OpenBabel03272510203D

 35 38  0  0  0  0  0  0  0  0999 V2000
   37.4160   29.1610   50.8080 Br  0  0  0  0  0  0  0  0  0  0  0  0
   36.0020   29.2730   49.5190 C   0  0  0  0  0  0  0  0  0  0  0  0
   36.0030   30.2740   48.5610 C   0  0  0  0  0  0  0  0  0  0  0  0
   34.9560   30.3030   47.6590 C   0  0  0  0  0  0  0  0  0  0  0  0
   33.9230   29.3690   47.6940 C   0  0  0  0  0  0  0  0  0  0  0  0
   33.9520   28.4010   48.6470 C   0  0  0  0  0  0  0  0  0  0  0  0
   34.9930   28.3620   49.5530 C   0  0  0  0  0  0  0  0  0  0  0  0
   34.8900   31.0510   46.8850 H   0  0  0  0  0  0  0  0  0  0  0  0
   33.1670   27.6820   48.6830 H   0  0  0  0  0  0  0  0  0  0  0  0
   34.9610   27.5700   50.2890 H   0  0  0  0  0  0  0  0  0  0  0  0
   38.0140   33.1840   49.4690 C   0  0  0  0  0  0  0  0  0  0  0  0
   39.0410   33.1870   48.4900 C   0  0  0  0  0  0  0  0  0  0  0  0
   39.0320   32.1830   47.5250 C   0  0  0  0  0  0  0  0  0  0  0  0
   38.0340   31.2380   47.5590 N   0  0  0  0  0  0  0  0  0  0  0  0
   37.0730   31.2640   48.5010 C   0  0  0  0  0  0  0  0  0  0  0  0
   37.0680   32.2400   49.4540 N   0  0  0  0  0  0  0  0  0  0  0  0
   38.0640   33.9790   50.1950 H   0  0  0  0  0  0  0  0  0  0  0  0
   39.7990   33.9470   48.5050 H   0  0  0  0  0  0  0  0  0  0  0  0
   39.7830   32.1390   46.7650 H   0  0  0  0  0  0  0  0  0  0  0  0
   32.8130   29.3980   46.7410 C   0  0  0  0  0  0  0  0  0  0  0  0
   32.0420   28.3010   46.4060 C   0  0  0  0  0  0  0  0  0  0  0  0
   31.0000   28.3840   45.4940 C   0  0  0  0  0  0  0  0  0  0  0  0
   30.7150   29.5440   44.9120 N   0  0  0  0  0  0  0  0  0  0  0  0
   31.4580   30.6200   45.2290 C   0  0  0  0  0  0  0  0  0  0  0  0
   32.4630   30.5390   46.1090 N   0  0  0  0  0  0  0  0  0  0  0  0
   32.2810   27.3580   46.8860 H   0  0  0  0  0  0  0  0  0  0  0  0
   30.4300   27.4910   45.2710 H   0  0  0  0  0  0  0  0  0  0  0  0
   31.2780   31.9660   44.6830 C   0  0  0  0  0  0  0  0  0  0  0  0
   30.4680   32.1460   43.5550 C   0  0  0  0  0  0  0  0  0  0  0  0
   29.9200   31.4060   42.9890 H   0  0  0  0  0  0  0  0  0  0  0  0
   30.4680   33.5080   43.2470 C   0  0  0  0  0  0  0  0  0  0  0  0
   29.9200   33.9340   42.4150 H   0  0  0  0  0  0  0  0  0  0  0  0
   31.2940   34.0710   44.2270 C   0  0  0  0  0  0  0  0  0  0  0  0
   31.5000   35.1340   44.2620 H   0  0  0  0  0  0  0  0  0  0  0  0
   31.7330   33.1500   45.0230 O   0  0  0  0  0  0  0  0  0  0  0  0
  2  7  1  0  0  0  0
  2  1  1  0  0  0  0
  3  2  2  0  0  0  0
  4  5  2  0  0  0  0
  4  3  1  0  0  0  0
  5  6  1  0  0  0  0
  6  9  1  0  0  0  0
  6  7  2  0  0  0  0
  7 10  1  0  0  0  0
  8  4  1  0  0  0  0
 11 17  1  0  0  0  0
 12 18  1  0  0  0  0
 12 11  2  0  0  0  0
 13 14  2  0  0  0  0
 13 12  1  0  0  0  0
 14 15  1  0  0  0  0
 15  3  1  0  0  0  0
 15 16  2  0  0  0  0
 16 11  1  0  0  0  0
 19 13  1  0  0  0  0
 20  5  1  0  0  0  0
 21 20  1  0  0  0  0
 21 26  1  0  0  0  0
 22 21  2  0  0  0  0
 23 24  2  0  0  0  0
 23 22  1  0  0  0  0
 24 25  1  0  0  0  0
 25 20  2  0  0  0  0
 27 22  1  0  0  0  0
 28 35  1  0  0  0  0
 28 24  1  0  0  0  0
 29 28  2  0  0  0  0
 30 29  1  0  0  0  0
 31 29  1  0  0  0  0
 31 33  2  0  0  0  0
 32 31  1  0  0  0  0
 33 34  1  0  0  0  0
 33 35  1  0  0  0  0
M  END
>  <minimizedAffinity>
-6.48564148

>  <minimizedRMSD>
0.331558108

$$$$
