
 OpenBabel03272500353D

 20 21  0  0  0  0  0  0  0  0999 V2000
   37.3740   30.2660   50.0470 C   0  0  0  0  0  0  0  0  0  0  0  0
   38.2870   31.3250   50.1430 C   0  0  0  0  0  0  0  0  0  0  0  0
   38.5070   32.1130   48.9940 C   0  0  0  0  0  0  0  0  0  0  0  0
   37.8090   31.7840   47.8630 N   0  0  0  0  0  0  0  0  0  0  0  0
   36.9460   30.7600   47.8240 C   0  0  0  0  0  0  0  0  0  0  0  0
   36.7290   30.0080   48.9050 N   0  0  0  0  0  0  0  0  0  0  0  0
   38.8310   31.5690   51.0460 H   0  0  0  0  0  0  0  0  0  0  0  0
   39.1980   32.9410   49.0060 H   0  0  0  0  0  0  0  0  0  0  0  0
   36.2240   30.4490   46.5920 C   0  0  0  0  0  0  0  0  0  0  0  0
   34.9390   29.9060   46.6680 C   0  0  0  0  0  0  0  0  0  0  0  0
   34.3230   29.6480   47.5080 H   0  0  0  0  0  0  0  0  0  0  0  0
   34.5190   29.7220   45.3450 C   0  0  0  0  0  0  0  0  0  0  0  0
   33.5840   29.3240   44.9520 H   0  0  0  0  0  0  0  0  0  0  0  0
   35.5680   30.1630   44.5560 C   0  0  0  0  0  0  0  0  0  0  0  0
   35.5810   30.1640   43.4650 H   0  0  0  0  0  0  0  0  0  0  0  0
   36.5440   30.5790   45.3050 O   0  0  0  0  0  0  0  0  0  0  0  0
   37.1410   29.4290   51.2700 C   0  0  0  0  0  0  0  0  0  0  0  0
   35.7780   29.1920   51.4140 F   0  0  0  0  0  0  0  0  0  0  0  0
   37.9030   28.3090   51.1690 F   0  0  0  0  0  0  0  0  0  0  0  0
   37.5180   30.2050   52.3720 F   0  0  0  0  0  0  0  0  0  0  0  0
  1  2  1  0  0  0  0
  1 17  1  0  0  0  0
  2  7  1  0  0  0  0
  3  8  1  0  0  0  0
  3  2  2  0  0  0  0
  4  3  1  0  0  0  0
  5  4  2  0  0  0  0
  5  6  1  0  0  0  0
  6  1  2  0  0  0  0
  9 10  2  0  0  0  0
  9  5  1  0  0  0  0
 10 11  1  0  0  0  0
 12 10  1  0  0  0  0
 13 12  1  0  0  0  0
 14 16  1  0  0  0  0
 14 12  2  0  0  0  0
 15 14  1  0  0  0  0
 16  9  1  0  0  0  0
 17 18  1  0  0  0  0
 17 20  1  0  0  0  0
 19 17  1  0  0  0  0
M  END
>  <minimizedAffinity>
-5.12986994

>  <minimizedRMSD>
0.124941945

$$$$
