
 OpenBabel03272510203D

 35 38  0  0  0  0  0  0  0  0999 V2000
   37.4180   29.1700   50.8020 Br  0  0  0  0  0  0  0  0  0  0  0  0
   36.0010   29.2890   49.5180 C   0  0  0  0  0  0  0  0  0  0  0  0
   36.0020   30.2930   48.5620 C   0  0  0  0  0  0  0  0  0  0  0  0
   34.9530   30.3270   47.6630 C   0  0  0  0  0  0  0  0  0  0  0  0
   33.9180   29.3960   47.6980 C   0  0  0  0  0  0  0  0  0  0  0  0
   33.9470   28.4260   48.6490 C   0  0  0  0  0  0  0  0  0  0  0  0
   34.9890   28.3810   49.5520 C   0  0  0  0  0  0  0  0  0  0  0  0
   34.8870   31.0780   46.8910 H   0  0  0  0  0  0  0  0  0  0  0  0
   33.1590   27.7080   48.6840 H   0  0  0  0  0  0  0  0  0  0  0  0
   34.9580   27.5860   50.2850 H   0  0  0  0  0  0  0  0  0  0  0  0
   38.0260   33.1920   49.4760 C   0  0  0  0  0  0  0  0  0  0  0  0
   39.0480   33.1970   48.4920 C   0  0  0  0  0  0  0  0  0  0  0  0
   39.0310   32.1990   47.5210 C   0  0  0  0  0  0  0  0  0  0  0  0
   38.0310   31.2570   47.5550 N   0  0  0  0  0  0  0  0  0  0  0  0
   37.0750   31.2800   48.5030 C   0  0  0  0  0  0  0  0  0  0  0  0
   37.0770   32.2510   49.4610 N   0  0  0  0  0  0  0  0  0  0  0  0
   38.0820   33.9830   50.2060 H   0  0  0  0  0  0  0  0  0  0  0  0
   39.8090   33.9550   48.5080 H   0  0  0  0  0  0  0  0  0  0  0  0
   39.7780   32.1570   46.7570 H   0  0  0  0  0  0  0  0  0  0  0  0
   32.8050   29.4310   46.7480 C   0  0  0  0  0  0  0  0  0  0  0  0
   31.8900   28.4090   46.5790 C   0  0  0  0  0  0  0  0  0  0  0  0
   30.8530   28.4940   45.6610 C   0  0  0  0  0  0  0  0  0  0  0  0
   30.7140   29.5810   44.9110 N   0  0  0  0  0  0  0  0  0  0  0  0
   31.5980   30.5840   45.0660 C   0  0  0  0  0  0  0  0  0  0  0  0
   32.5990   30.5010   45.9510 N   0  0  0  0  0  0  0  0  0  0  0  0
   32.0100   27.5250   47.1950 H   0  0  0  0  0  0  0  0  0  0  0  0
   30.1660   27.6610   45.5740 H   0  0  0  0  0  0  0  0  0  0  0  0
   31.5890   31.8450   44.3240 C   0  0  0  0  0  0  0  0  0  0  0  0
   31.5710   33.0560   45.0260 C   0  0  0  0  0  0  0  0  0  0  0  0
   31.5640   33.2180   46.0940 H   0  0  0  0  0  0  0  0  0  0  0  0
   31.5660   34.0890   44.0890 C   0  0  0  0  0  0  0  0  0  0  0  0
   31.5530   35.1400   44.3540 H   0  0  0  0  0  0  0  0  0  0  0  0
   31.5800   33.4230   42.8560 C   0  0  0  0  0  0  0  0  0  0  0  0
   31.5790   33.9580   41.9150 H   0  0  0  0  0  0  0  0  0  0  0  0
   31.5930   32.1420   43.0450 O   0  0  0  0  0  0  0  0  0  0  0  0
  2  7  1  0  0  0  0
  2  1  1  0  0  0  0
  3  2  2  0  0  0  0
  4  5  2  0  0  0  0
  4  3  1  0  0  0  0
  5  6  1  0  0  0  0
  6  9  1  0  0  0  0
  6  7  2  0  0  0  0
  7 10  1  0  0  0  0
  8  4  1  0  0  0  0
 11 17  1  0  0  0  0
 12 18  1  0  0  0  0
 12 11  2  0  0  0  0
 13 14  2  0  0  0  0
 13 12  1  0  0  0  0
 14 15  1  0  0  0  0
 15  3  1  0  0  0  0
 15 16  2  0  0  0  0
 16 11  1  0  0  0  0
 19 13  1  0  0  0  0
 20  5  1  0  0  0  0
 21 20  1  0  0  0  0
 21 26  1  0  0  0  0
 22 21  2  0  0  0  0
 23 24  2  0  0  0  0
 23 22  1  0  0  0  0
 24 25  1  0  0  0  0
 25 20  2  0  0  0  0
 27 22  1  0  0  0  0
 28 29  2  0  0  0  0
 28 24  1  0  0  0  0
 29 30  1  0  0  0  0
 31 32  1  0  0  0  0
 31 29  1  0  0  0  0
 33 35  1  0  0  0  0
 33 31  2  0  0  0  0
 34 33  1  0  0  0  0
 35 28  1  0  0  0  0
M  END
>  <minimizedAffinity>
-6.39076614

>  <minimizedRMSD>
0.559389591

$$$$
