
 OpenBabel03272503333D

 40 43  0  0  1  0  0  0  0  0999 V2000
   34.8480   29.4130   47.9800 C   0  0  0  0  0  0  0  0  0  0  0  0
   34.5850   30.1950   46.8560 C   0  0  0  0  0  0  0  0  0  0  0  0
   33.3960   29.9400   46.1680 C   0  0  0  0  0  0  0  0  0  0  0  0
   32.5780   28.9420   46.6520 N   0  0  0  0  0  0  0  0  0  0  0  0
   32.8710   28.2240   47.7280 C   0  0  0  0  0  0  0  0  0  0  0  0
   34.0150   28.4570   48.4030 N   0  0  0  0  0  0  0  0  0  0  0  0
   35.2400   30.9790   46.4850 H   0  0  0  0  0  0  0  0  0  0  0  0
   33.1110   30.4920   45.2910 H   0  0  0  0  0  0  0  0  0  0  0  0
   36.0720   29.6710   48.6900 N   0  0  0  0  0  0  0  0  0  0  0  0
   37.2120   30.3970   48.2070 C   0  0  0  0  0  0  0  0  0  0  0  0
   37.8190   30.9460   49.4930 C   0  0  2  0  0  0  0  0  0  0  0  0
   36.8500   30.5780   50.6130 C   0  0  0  0  0  0  0  0  0  0  0  0
   36.3920   29.2440   50.0450 C   0  0  0  0  0  0  0  0  0  0  0  0
   36.8510   31.2680   47.6350 H   0  0  0  0  0  0  0  0  0  0  0  0
   37.9530   29.7730   47.6810 H   0  0  0  0  0  0  0  0  0  0  0  0
   38.8210   30.4770   49.6900 H   0  0  0  0  0  0  0  0  0  0  0  0
   37.3760   30.4020   51.5620 H   0  0  0  0  0  0  0  0  0  0  0  0
   36.0300   31.3100   50.6750 H   0  0  0  0  0  0  0  0  0  0  0  0
   37.2650   28.5910   50.0080 H   0  0  0  0  0  0  0  0  0  0  0  0
   35.5270   28.8210   50.5860 H   0  0  0  0  0  0  0  0  0  0  0  0
   38.0480   32.4280   49.4180 C   0  0  0  0  0  0  0  0  0  0  0  0
   36.9350   33.0300   49.9630 F   0  0  0  0  0  0  0  0  0  0  0  0
   38.0650   32.7650   48.0780 F   0  0  0  0  0  0  0  0  0  0  0  0
   39.2030   32.8250   50.0330 F   0  0  0  0  0  0  0  0  0  0  0  0
   31.7730   26.9470   48.3070 S   0  0  0  0  0  0  0  0  0  0  0  0
   30.3210   27.4200   49.0290 C   0  0  0  0  0  0  0  0  0  0  0  0
   29.6240   27.2920   50.1950 C   0  0  0  0  0  0  0  0  0  0  0  0
   28.4130   27.8360   50.4400 C   0  0  0  0  0  0  0  0  0  0  0  0
   27.8700   28.6170   49.2970 C   0  0  0  0  0  0  0  0  0  0  0  0
   29.1580   28.4780   48.0160 S   0  0  0  0  0  0  0  0  0  0  0  0
   30.1650   26.6940   50.9110 H   0  0  0  0  0  0  0  0  0  0  0  0
   27.8590   27.7440   51.3490 H   0  0  0  0  0  0  0  0  0  0  0  0
   26.6650   29.3010   49.2110 C   0  0  0  0  0  0  0  0  0  0  0  0
   25.4230   28.7510   49.4150 C   0  0  0  0  0  0  0  0  0  0  0  0
   25.2030   27.7230   49.6680 H   0  0  0  0  0  0  0  0  0  0  0  0
   24.5000   29.7900   49.2290 C   0  0  0  0  0  0  0  0  0  0  0  0
   23.4180   29.7010   49.3150 H   0  0  0  0  0  0  0  0  0  0  0  0
   25.2750   30.9150   48.9190 C   0  0  0  0  0  0  0  0  0  0  0  0
   24.7620   31.8410   48.7350 H   0  0  0  0  0  0  0  0  0  0  0  0
   26.5540   30.5700   48.9210 O   0  0  0  0  0  0  0  0  0  0  0  0
  1  6  1  0  0  0  0
  1  9  1  0  0  0  0
  2  1  2  0  0  0  0
  3  4  2  0  0  0  0
  3  2  1  0  0  0  0
  4  5  1  0  0  0  0
  5 25  1  0  0  0  0
  5  6  2  0  0  0  0
  7  2  1  0  0  0  0
  8  3  1  0  0  0  0
  9 13  1  0  0  0  0
 10  9  1  0  0  0  0
 10 11  1  0  0  0  0
 11 16  1  1  0  0  0
 11 12  1  0  0  0  0
 12 18  1  0  0  0  0
 12 17  1  0  0  0  0
 13 20  1  0  0  0  0
 13 12  1  0  0  0  0
 14 10  1  0  0  0  0
 15 10  1  0  0  0  0
 19 13  1  0  0  0  0
 21 11  1  0  0  0  0
 21 22  1  0  0  0  0
 21 24  1  0  0  0  0
 23 21  1  0  0  0  0
 25 26  1  0  0  0  0
 26 27  2  0  0  0  0
 27 28  1  0  0  0  0
 27 31  1  0  0  0  0
 28 32  1  0  0  0  0
 29 28  2  0  0  0  0
 30 26  1  0  0  0  0
 30 29  1  0  0  0  0
 33 29  1  0  0  0  0
 33 34  2  0  0  0  0
 34 35  1  0  0  0  0
 36 37  1  0  0  0  0
 36 34  1  0  0  0  0
 38 40  1  0  0  0  0
 38 36  2  0  0  0  0
 39 38  1  0  0  0  0
 40 33  1  0  0  0  0
M  END
>  <minimizedAffinity>
-7.61349726

>  <minimizedRMSD>
0.730847538

$$$$
