
 OpenBabel03272500363D

 20 21  0  0  0  0  0  0  0  0999 V2000
   38.4030   23.8810   37.0170 C   0  0  0  0  0  0  0  0  0  0  0  0
   39.1210   22.8510   36.3940 C   0  0  0  0  0  0  0  0  0  0  0  0
   39.2780   22.9090   34.9930 C   0  0  0  0  0  0  0  0  0  0  0  0
   38.7140   23.9730   34.3410 N   0  0  0  0  0  0  0  0  0  0  0  0
   38.0370   24.9340   34.9850 C   0  0  0  0  0  0  0  0  0  0  0  0
   37.8830   24.8890   36.3100 N   0  0  0  0  0  0  0  0  0  0  0  0
   39.5590   22.0170   36.9260 H   0  0  0  0  0  0  0  0  0  0  0  0
   39.8200   22.1460   34.4570 H   0  0  0  0  0  0  0  0  0  0  0  0
   37.4540   26.0500   34.2440 C   0  0  0  0  0  0  0  0  0  0  0  0
   37.1160   27.2230   34.9230 C   0  0  0  0  0  0  0  0  0  0  0  0
   37.2020   27.4970   35.9580 H   0  0  0  0  0  0  0  0  0  0  0  0
   36.5900   28.0900   33.9580 C   0  0  0  0  0  0  0  0  0  0  0  0
   36.2070   29.1040   34.0580 H   0  0  0  0  0  0  0  0  0  0  0  0
   36.6420   27.3930   32.7630 C   0  0  0  0  0  0  0  0  0  0  0  0
   36.3090   27.7720   31.7950 H   0  0  0  0  0  0  0  0  0  0  0  0
   37.1470   26.2130   32.9580 O   0  0  0  0  0  0  0  0  0  0  0  0
   38.2380   23.8180   38.5070 C   0  0  0  0  0  0  0  0  0  0  0  0
   37.9270   25.0850   38.9910 F   0  0  0  0  0  0  0  0  0  0  0  0
   37.3160   22.8610   38.7900 F   0  0  0  0  0  0  0  0  0  0  0  0
   39.4900   23.4950   39.0410 F   0  0  0  0  0  0  0  0  0  0  0  0
  1 17  1  0  0  0  0
  2  7  1  0  0  0  0
  2  1  1  0  0  0  0
  3  2  2  0  0  0  0
  4  5  2  0  0  0  0
  4  3  1  0  0  0  0
  5  6  1  0  0  0  0
  6  1  2  0  0  0  0
  8  3  1  0  0  0  0
  9 10  2  0  0  0  0
  9  5  1  0  0  0  0
 10 11  1  0  0  0  0
 12 13  1  0  0  0  0
 12 10  1  0  0  0  0
 14 16  1  0  0  0  0
 14 12  2  0  0  0  0
 15 14  1  0  0  0  0
 16  9  1  0  0  0  0
 17 19  1  0  0  0  0
 17 18  1  0  0  0  0
 17 20  1  0  0  0  0
M  END
>  <minimizedAffinity>
-4.9190917

$$$$

 OpenBabel03272500363D

 20 21  0  0  0  0  0  0  0  0999 V2000
   38.3170   23.5130   36.6380 C   0  0  0  0  0  0  0  0  0  0  0  0
   39.0010   24.5560   35.9990 C   0  0  0  0  0  0  0  0  0  0  0  0
   39.0360   24.5570   34.5890 C   0  0  0  0  0  0  0  0  0  0  0  0
   38.3950   23.5330   33.9440 N   0  0  0  0  0  0  0  0  0  0  0  0
   37.7530   22.5590   34.6030 C   0  0  0  0  0  0  0  0  0  0  0  0
   37.7140   22.5480   35.9370 N   0  0  0  0  0  0  0  0  0  0  0  0
   39.5030   25.3570   36.5260 H   0  0  0  0  0  0  0  0  0  0  0  0
   39.5470   25.3320   34.0400 H   0  0  0  0  0  0  0  0  0  0  0  0
   37.0830   21.4870   33.8690 C   0  0  0  0  0  0  0  0  0  0  0  0
   35.9270   20.9100   34.4000 C   0  0  0  0  0  0  0  0  0  0  0  0
   35.3850   21.1050   35.3060 H   0  0  0  0  0  0  0  0  0  0  0  0
   35.5270   19.9320   33.4820 C   0  0  0  0  0  0  0  0  0  0  0  0
   34.6790   19.2500   33.5050 H   0  0  0  0  0  0  0  0  0  0  0  0
   36.4600   19.9770   32.4600 C   0  0  0  0  0  0  0  0  0  0  0  0
   36.4540   19.3440   31.5710 H   0  0  0  0  0  0  0  0  0  0  0  0
   37.3510   20.8870   32.7100 O   0  0  0  0  0  0  0  0  0  0  0  0
   38.2820   23.5140   38.1380 C   0  0  0  0  0  0  0  0  0  0  0  0
   37.1990   22.7570   38.5740 F   0  0  0  0  0  0  0  0  0  0  0  0
   39.4900   23.0900   38.5910 F   0  0  0  0  0  0  0  0  0  0  0  0
   38.0200   24.8300   38.5380 F   0  0  0  0  0  0  0  0  0  0  0  0
  1 17  1  0  0  0  0
  2  7  1  0  0  0  0
  2  1  1  0  0  0  0
  3  2  2  0  0  0  0
  4  3  1  0  0  0  0
  4  5  2  0  0  0  0
  5  6  1  0  0  0  0
  6  1  2  0  0  0  0
  8  3  1  0  0  0  0
  9 10  2  0  0  0  0
  9  5  1  0  0  0  0
 10 11  1  0  0  0  0
 12 13  1  0  0  0  0
 12 10  1  0  0  0  0
 14 16  1  0  0  0  0
 14 12  2  0  0  0  0
 15 14  1  0  0  0  0
 16  9  1  0  0  0  0
 17 20  1  0  0  0  0
 17 18  1  0  0  0  0
 17 19  1  0  0  0  0
M  END
>  <minimizedAffinity>
-4.6151166

$$$$

 OpenBabel03272500363D

 20 21  0  0  0  0  0  0  0  0999 V2000
   39.9180   23.0960   37.0300 C   0  0  0  0  0  0  0  0  0  0  0  0
   39.2620   23.0520   38.2680 C   0  0  0  0  0  0  0  0  0  0  0  0
   38.1060   23.8440   38.4310 C   0  0  0  0  0  0  0  0  0  0  0  0
   37.7080   24.6020   37.3620 N   0  0  0  0  0  0  0  0  0  0  0  0
   38.3710   24.6070   36.1980 C   0  0  0  0  0  0  0  0  0  0  0  0
   39.4660   23.8620   36.0320 N   0  0  0  0  0  0  0  0  0  0  0  0
   39.5930   22.4470   39.1010 H   0  0  0  0  0  0  0  0  0  0  0  0
   37.5590   23.8530   39.3600 H   0  0  0  0  0  0  0  0  0  0  0  0
   37.9060   25.4340   35.0860 C   0  0  0  0  0  0  0  0  0  0  0  0
   37.6530   26.7910   35.2980 C   0  0  0  0  0  0  0  0  0  0  0  0
   37.7340   27.4010   36.1780 H   0  0  0  0  0  0  0  0  0  0  0  0
   37.2290   27.3020   34.0660 C   0  0  0  0  0  0  0  0  0  0  0  0
   36.9310   28.3120   33.7880 H   0  0  0  0  0  0  0  0  0  0  0  0
   37.2520   26.2300   33.1900 C   0  0  0  0  0  0  0  0  0  0  0  0
   36.9790   26.2710   32.1340 H   0  0  0  0  0  0  0  0  0  0  0  0
   37.6490   25.1590   33.8080 O   0  0  0  0  0  0  0  0  0  0  0  0
   41.1470   22.2520   36.8580 C   0  0  0  0  0  0  0  0  0  0  0  0
   41.2730   21.3940   37.9460 F   0  0  0  0  0  0  0  0  0  0  0  0
   41.0710   21.6320   35.6520 F   0  0  0  0  0  0  0  0  0  0  0  0
   42.2450   23.1180   36.9180 F   0  0  0  0  0  0  0  0  0  0  0  0
  1  2  1  0  0  0  0
  2  3  2  0  0  0  0
  2  7  1  0  0  0  0
  3  8  1  0  0  0  0
  4  3  1  0  0  0  0
  5  4  2  0  0  0  0
  6  5  1  0  0  0  0
  6  1  2  0  0  0  0
  9 10  2  0  0  0  0
  9  5  1  0  0  0  0
 10 11  1  0  0  0  0
 12 10  1  0  0  0  0
 13 12  1  0  0  0  0
 14 16  1  0  0  0  0
 14 12  2  0  0  0  0
 15 14  1  0  0  0  0
 16  9  1  0  0  0  0
 17 20  1  0  0  0  0
 17  1  1  0  0  0  0
 17 18  1  0  0  0  0
 19 17  1  0  0  0  0
M  END
>  <minimizedAffinity>
-4.51044464

$$$$

 OpenBabel03272500363D

 20 21  0  0  0  0  0  0  0  0999 V2000
   38.2870   23.6130   36.8700 C   0  0  0  0  0  0  0  0  0  0  0  0
   37.7130   22.4940   36.2510 C   0  0  0  0  0  0  0  0  0  0  0  0
   37.7920   22.4030   34.8460 C   0  0  0  0  0  0  0  0  0  0  0  0
   38.4270   23.4200   34.1850 N   0  0  0  0  0  0  0  0  0  0  0  0
   38.9600   24.4700   34.8250 C   0  0  0  0  0  0  0  0  0  0  0  0
   38.8920   24.5660   36.1540 N   0  0  0  0  0  0  0  0  0  0  0  0
   37.2140   21.7000   36.7910 H   0  0  0  0  0  0  0  0  0  0  0  0
   37.3690   21.5660   34.3140 H   0  0  0  0  0  0  0  0  0  0  0  0
   39.6280   25.5310   34.0740 C   0  0  0  0  0  0  0  0  0  0  0  0
   40.4630   26.4260   34.7460 C   0  0  0  0  0  0  0  0  0  0  0  0
   40.7380   26.5040   35.7810 H   0  0  0  0  0  0  0  0  0  0  0  0
   40.9470   27.3080   33.7730 C   0  0  0  0  0  0  0  0  0  0  0  0
   41.6250   28.1560   33.8660 H   0  0  0  0  0  0  0  0  0  0  0  0
   40.3800   26.8950   32.5800 C   0  0  0  0  0  0  0  0  0  0  0  0
   40.5420   27.3620   31.6070 H   0  0  0  0  0  0  0  0  0  0  0  0
   39.6190   25.8620   32.7840 O   0  0  0  0  0  0  0  0  0  0  0  0
   38.2020   23.7080   38.3650 C   0  0  0  0  0  0  0  0  0  0  0  0
   37.9580   25.0290   38.7300 F   0  0  0  0  0  0  0  0  0  0  0  0
   37.2680   22.8200   38.7940 F   0  0  0  0  0  0  0  0  0  0  0  0
   39.4710   23.3960   38.8650 F   0  0  0  0  0  0  0  0  0  0  0  0
  1 17  1  0  0  0  0
  2  7  1  0  0  0  0
  2  1  1  0  0  0  0
  3  2  2  0  0  0  0
  4  5  2  0  0  0  0
  4  3  1  0  0  0  0
  5  6  1  0  0  0  0
  6  1  2  0  0  0  0
  8  3  1  0  0  0  0
  9 10  2  0  0  0  0
  9  5  1  0  0  0  0
 10 11  1  0  0  0  0
 12 13  1  0  0  0  0
 12 10  1  0  0  0  0
 14 16  1  0  0  0  0
 14 12  2  0  0  0  0
 15 14  1  0  0  0  0
 16  9  1  0  0  0  0
 17 18  1  0  0  0  0
 17 19  1  0  0  0  0
 17 20  1  0  0  0  0
M  END
>  <minimizedAffinity>
-4.48394871

$$$$

 OpenBabel03272500363D

 20 21  0  0  0  0  0  0  0  0999 V2000
   36.2900   23.8390   31.7410 C   0  0  0  0  0  0  0  0  0  0  0  0
   35.4610   24.6360   30.9400 C   0  0  0  0  0  0  0  0  0  0  0  0
   35.4890   26.0310   31.1420 C   0  0  0  0  0  0  0  0  0  0  0  0
   36.3300   26.5090   32.1120 N   0  0  0  0  0  0  0  0  0  0  0  0
   37.1050   25.7030   32.8520 C   0  0  0  0  0  0  0  0  0  0  0  0
   37.0860   24.3820   32.6690 N   0  0  0  0  0  0  0  0  0  0  0  0
   34.8020   24.2390   30.1790 H   0  0  0  0  0  0  0  0  0  0  0  0
   34.8730   26.6960   30.5570 H   0  0  0  0  0  0  0  0  0  0  0  0
   37.9860   26.2610   33.8750 C   0  0  0  0  0  0  0  0  0  0  0  0
   37.4330   26.9580   34.9520 C   0  0  0  0  0  0  0  0  0  0  0  0
   36.4140   27.1880   35.2040 H   0  0  0  0  0  0  0  0  0  0  0  0
   38.5120   27.3620   35.7470 C   0  0  0  0  0  0  0  0  0  0  0  0
   38.5280   27.9270   36.6770 H   0  0  0  0  0  0  0  0  0  0  0  0
   39.6440   26.8870   35.1070 C   0  0  0  0  0  0  0  0  0  0  0  0
   40.6700   27.0220   35.4530 H   0  0  0  0  0  0  0  0  0  0  0  0
   39.3100   26.2530   34.0240 O   0  0  0  0  0  0  0  0  0  0  0  0
   36.2590   22.3550   31.5250 C   0  0  0  0  0  0  0  0  0  0  0  0
   35.2030   22.0350   30.6770 F   0  0  0  0  0  0  0  0  0  0  0  0
   37.4820   21.9650   31.0790 F   0  0  0  0  0  0  0  0  0  0  0  0
   35.9560   21.7710   32.7600 F   0  0  0  0  0  0  0  0  0  0  0  0
  1  6  1  0  0  0  0
  2  3  1  0  0  0  0
  2  1  2  0  0  0  0
  3  4  2  0  0  0  0
  4  5  1  0  0  0  0
  5  9  1  0  0  0  0
  6  5  2  0  0  0  0
  7  2  1  0  0  0  0
  8  3  1  0  0  0  0
  9 16  1  0  0  0  0
  9 10  2  0  0  0  0
 10 11  1  0  0  0  0
 10 12  1  0  0  0  0
 12 13  1  0  0  0  0
 14 15  1  0  0  0  0
 14 12  2  0  0  0  0
 16 14  1  0  0  0  0
 17  1  1  0  0  0  0
 17 20  1  0  0  0  0
 18 17  1  0  0  0  0
 19 17  1  0  0  0  0
M  END
>  <minimizedAffinity>
-4.4228797

$$$$

 OpenBabel03272500363D

 20 21  0  0  0  0  0  0  0  0999 V2000
   36.7210   21.6350   33.3650 C   0  0  0  0  0  0  0  0  0  0  0  0
   36.8260   22.6610   32.4150 C   0  0  0  0  0  0  0  0  0  0  0  0
   37.6670   23.7530   32.7120 C   0  0  0  0  0  0  0  0  0  0  0  0
   38.3240   23.7320   33.9140 N   0  0  0  0  0  0  0  0  0  0  0  0
   38.1890   22.7260   34.7880 C   0  0  0  0  0  0  0  0  0  0  0  0
   37.3960   21.6870   34.5180 N   0  0  0  0  0  0  0  0  0  0  0  0
   36.2980   22.6600   31.4710 H   0  0  0  0  0  0  0  0  0  0  0  0
   37.7880   24.5720   32.0210 H   0  0  0  0  0  0  0  0  0  0  0  0
   38.9120   22.7500   36.0580 C   0  0  0  0  0  0  0  0  0  0  0  0
   38.3130   23.3310   37.1780 C   0  0  0  0  0  0  0  0  0  0  0  0
   37.3570   23.8020   37.3110 H   0  0  0  0  0  0  0  0  0  0  0  0
   39.2360   23.2010   38.2220 C   0  0  0  0  0  0  0  0  0  0  0  0
   39.1720   23.5170   39.2620 H   0  0  0  0  0  0  0  0  0  0  0  0
   40.3290   22.5520   37.6740 C   0  0  0  0  0  0  0  0  0  0  0  0
   41.2410   22.2860   38.2100 H   0  0  0  0  0  0  0  0  0  0  0  0
   40.1140   22.3030   36.4170 O   0  0  0  0  0  0  0  0  0  0  0  0
   35.8260   20.4740   33.0470 C   0  0  0  0  0  0  0  0  0  0  0  0
   36.4710   19.6250   32.1540 F   0  0  0  0  0  0  0  0  0  0  0  0
   35.4560   19.8910   34.2180 F   0  0  0  0  0  0  0  0  0  0  0  0
   34.7190   20.9900   32.3630 F   0  0  0  0  0  0  0  0  0  0  0  0
  1  6  1  0  0  0  0
  2  3  1  0  0  0  0
  2  1  2  0  0  0  0
  3  4  2  0  0  0  0
  4  5  1  0  0  0  0
  5  9  1  0  0  0  0
  6  5  2  0  0  0  0
  7  2  1  0  0  0  0
  8  3  1  0  0  0  0
  9 16  1  0  0  0  0
  9 10  2  0  0  0  0
 10 11  1  0  0  0  0
 10 12  1  0  0  0  0
 12 13  1  0  0  0  0
 14 15  1  0  0  0  0
 14 12  2  0  0  0  0
 16 14  1  0  0  0  0
 17  1  1  0  0  0  0
 17 19  1  0  0  0  0
 18 17  1  0  0  0  0
 20 17  1  0  0  0  0
M  END
>  <minimizedAffinity>
-4.37093782

$$$$

 OpenBabel03272500363D

 20 21  0  0  0  0  0  0  0  0999 V2000
   37.4220   26.9040   33.9720 C   0  0  0  0  0  0  0  0  0  0  0  0
   36.7710   27.9350   33.2810 C   0  0  0  0  0  0  0  0  0  0  0  0
   36.0940   27.6060   32.0880 C   0  0  0  0  0  0  0  0  0  0  0  0
   36.1230   26.2960   31.6890 N   0  0  0  0  0  0  0  0  0  0  0  0
   36.7600   25.3470   32.3880 C   0  0  0  0  0  0  0  0  0  0  0  0
   37.4040   25.6470   33.5180 N   0  0  0  0  0  0  0  0  0  0  0  0
   36.7600   28.9650   33.6110 H   0  0  0  0  0  0  0  0  0  0  0  0
   35.5760   28.3560   31.5120 H   0  0  0  0  0  0  0  0  0  0  0  0
   36.7620   23.9620   31.9220 C   0  0  0  0  0  0  0  0  0  0  0  0
   35.5540   23.3550   31.5700 C   0  0  0  0  0  0  0  0  0  0  0  0
   34.5450   23.7220   31.5720 H   0  0  0  0  0  0  0  0  0  0  0  0
   35.8790   22.0530   31.1700 C   0  0  0  0  0  0  0  0  0  0  0  0
   35.2390   21.2450   30.8190 H   0  0  0  0  0  0  0  0  0  0  0  0
   37.2530   21.9540   31.3030 C   0  0  0  0  0  0  0  0  0  0  0  0
   37.8480   21.0680   31.0760 H   0  0  0  0  0  0  0  0  0  0  0  0
   37.7400   23.0750   31.7410 O   0  0  0  0  0  0  0  0  0  0  0  0
   38.1410   27.2560   35.2410 C   0  0  0  0  0  0  0  0  0  0  0  0
   37.8840   26.2830   36.2020 F   0  0  0  0  0  0  0  0  0  0  0  0
   39.4560   27.4310   34.9480 F   0  0  0  0  0  0  0  0  0  0  0  0
   37.5640   28.4370   35.7210 F   0  0  0  0  0  0  0  0  0  0  0  0
  1 17  1  0  0  0  0
  2  7  1  0  0  0  0
  2  1  2  0  0  0  0
  3  2  1  0  0  0  0
  4  3  2  0  0  0  0
  4  5  1  0  0  0  0
  5  6  2  0  0  0  0
  6  1  1  0  0  0  0
  8  3  1  0  0  0  0
  9  5  1  0  0  0  0
 10 11  1  0  0  0  0
 10  9  2  0  0  0  0
 12 14  2  0  0  0  0
 12 10  1  0  0  0  0
 13 12  1  0  0  0  0
 14 16  1  0  0  0  0
 15 14  1  0  0  0  0
 16  9  1  0  0  0  0
 17 20  1  0  0  0  0
 17 18  1  0  0  0  0
 19 17  1  0  0  0  0
M  END
>  <minimizedAffinity>
-4.29455185

$$$$

 OpenBabel03272500363D

 20 21  0  0  0  0  0  0  0  0999 V2000
   37.3250   26.0790   33.5340 C   0  0  0  0  0  0  0  0  0  0  0  0
   37.2210   27.4280   33.8990 C   0  0  0  0  0  0  0  0  0  0  0  0
   37.6080   27.7910   35.2060 C   0  0  0  0  0  0  0  0  0  0  0  0
   38.0610   26.7920   36.0270 N   0  0  0  0  0  0  0  0  0  0  0  0
   38.1420   25.5150   35.6280 C   0  0  0  0  0  0  0  0  0  0  0  0
   37.7780   25.1610   34.3940 N   0  0  0  0  0  0  0  0  0  0  0  0
   36.8600   28.2030   33.2360 H   0  0  0  0  0  0  0  0  0  0  0  0
   37.5500   28.8130   35.5450 H   0  0  0  0  0  0  0  0  0  0  0  0
   38.6320   24.4860   36.5420 C   0  0  0  0  0  0  0  0  0  0  0  0
   38.0310   24.3380   37.7940 C   0  0  0  0  0  0  0  0  0  0  0  0
   37.2220   24.8650   38.2630 H   0  0  0  0  0  0  0  0  0  0  0  0
   38.7090   23.2880   38.4260 C   0  0  0  0  0  0  0  0  0  0  0  0
   38.5630   22.8480   39.4110 H   0  0  0  0  0  0  0  0  0  0  0  0
   39.6700   22.8680   37.5230 C   0  0  0  0  0  0  0  0  0  0  0  0
   40.3840   22.0590   37.6890 H   0  0  0  0  0  0  0  0  0  0  0  0
   39.6030   23.5800   36.4380 O   0  0  0  0  0  0  0  0  0  0  0  0
   36.9120   25.6960   32.1430 C   0  0  0  0  0  0  0  0  0  0  0  0
   38.0450   25.4010   31.3900 F   0  0  0  0  0  0  0  0  0  0  0  0
   36.0120   24.6820   32.2320 F   0  0  0  0  0  0  0  0  0  0  0  0
   36.3440   26.8330   31.5600 F   0  0  0  0  0  0  0  0  0  0  0  0
  1  2  2  0  0  0  0
  1  6  1  0  0  0  0
  2  3  1  0  0  0  0
  3  8  1  0  0  0  0
  3  4  2  0  0  0  0
  5  4  1  0  0  0  0
  5  9  1  0  0  0  0
  6  5  2  0  0  0  0
  7  2  1  0  0  0  0
  9 10  2  0  0  0  0
 10 11  1  0  0  0  0
 10 12  1  0  0  0  0
 12 13  1  0  0  0  0
 14 15  1  0  0  0  0
 14 12  2  0  0  0  0
 16  9  1  0  0  0  0
 16 14  1  0  0  0  0
 17 19  1  0  0  0  0
 17  1  1  0  0  0  0
 18 17  1  0  0  0  0
 20 17  1  0  0  0  0
M  END
>  <minimizedAffinity>
-4.27403116

$$$$

 OpenBabel03272500363D

 20 21  0  0  0  0  0  0  0  0999 V2000
   38.0570   25.2160   36.3100 C   0  0  0  0  0  0  0  0  0  0  0  0
   38.3600   26.5650   36.5380 C   0  0  0  0  0  0  0  0  0  0  0  0
   38.3100   27.4480   35.4390 C   0  0  0  0  0  0  0  0  0  0  0  0
   37.9670   26.9190   34.2230 N   0  0  0  0  0  0  0  0  0  0  0  0
   37.6850   25.6200   34.0590 C   0  0  0  0  0  0  0  0  0  0  0  0
   37.7290   24.7750   35.0910 N   0  0  0  0  0  0  0  0  0  0  0  0
   38.6300   26.9640   37.5070 H   0  0  0  0  0  0  0  0  0  0  0  0
   38.5330   28.4970   35.5510 H   0  0  0  0  0  0  0  0  0  0  0  0
   37.3240   25.1030   32.7400 C   0  0  0  0  0  0  0  0  0  0  0  0
   38.2930   24.4640   31.9640 C   0  0  0  0  0  0  0  0  0  0  0  0
   39.3310   24.2570   32.1480 H   0  0  0  0  0  0  0  0  0  0  0  0
   37.6530   24.0880   30.7780 C   0  0  0  0  0  0  0  0  0  0  0  0
   38.0400   23.5680   29.9030 H   0  0  0  0  0  0  0  0  0  0  0  0
   36.3440   24.5190   30.9080 C   0  0  0  0  0  0  0  0  0  0  0  0
   35.5580   24.3910   30.1620 H   0  0  0  0  0  0  0  0  0  0  0  0
   36.1810   25.1050   32.0560 O   0  0  0  0  0  0  0  0  0  0  0  0
   38.1100   24.2780   37.4800 C   0  0  0  0  0  0  0  0  0  0  0  0
   38.0710   25.0120   38.6620 F   0  0  0  0  0  0  0  0  0  0  0  0
   37.1080   23.3710   37.3430 F   0  0  0  0  0  0  0  0  0  0  0  0
   39.3660   23.6610   37.4490 F   0  0  0  0  0  0  0  0  0  0  0  0
  1  2  1  0  0  0  0
  1 17  1  0  0  0  0
  2  7  1  0  0  0  0
  3  8  1  0  0  0  0
  3  2  2  0  0  0  0
  4  3  1  0  0  0  0
  5  4  2  0  0  0  0
  5  6  1  0  0  0  0
  6  1  2  0  0  0  0
  9  5  1  0  0  0  0
 10 11  1  0  0  0  0
 10  9  2  0  0  0  0
 12 14  2  0  0  0  0
 12 10  1  0  0  0  0
 13 12  1  0  0  0  0
 14 16  1  0  0  0  0
 15 14  1  0  0  0  0
 16  9  1  0  0  0  0
 17 18  1  0  0  0  0
 19 17  1  0  0  0  0
 20 17  1  0  0  0  0
M  END
>  <minimizedAffinity>
-4.25756264

$$$$
