
 OpenBabel03272509563D

 42 45  0  0  0  0  0  0  0  0999 V2000
   38.5510   26.3350   34.5760 C   0  0  0  0  0  0  0  0  0  0  0  0
   39.5590   26.3310   35.0630 H   0  0  0  0  0  0  0  0  0  0  0  0
   38.2890   27.3900   34.3970 H   0  0  0  0  0  0  0  0  0  0  0  0
   37.6070   25.6250   35.4950 C   0  0  0  0  0  0  0  0  0  0  0  0
   36.7360   25.1690   34.9950 H   0  0  0  0  0  0  0  0  0  0  0  0
   37.1720   26.4020   36.1810 H   0  0  0  0  0  0  0  0  0  0  0  0
   38.2920   24.6580   36.3800 C   0  0  0  0  0  0  0  0  0  0  0  0
   37.8700   24.5470   37.6970 C   0  0  0  0  0  0  0  0  0  0  0  0
   38.4240   23.6930   38.6010 C   0  0  0  0  0  0  0  0  0  0  0  0
   39.4180   22.9290   38.1960 N   0  0  0  0  0  0  0  0  0  0  0  0
   39.8590   23.0130   36.9030 C   0  0  0  0  0  0  0  0  0  0  0  0
   39.3190   23.8570   35.9930 N   0  0  0  0  0  0  0  0  0  0  0  0
   37.0390   25.1900   38.0270 H   0  0  0  0  0  0  0  0  0  0  0  0
   38.1110   23.5910   39.6270 H   0  0  0  0  0  0  0  0  0  0  0  0
   40.9690   22.1390   36.5020 C   0  0  0  0  0  0  0  0  0  0  0  0
   41.7650   21.3810   37.3320 C   0  0  0  0  0  0  0  0  0  0  0  0
   41.7210   21.2910   38.4060 H   0  0  0  0  0  0  0  0  0  0  0  0
   42.6910   20.7060   36.5360 C   0  0  0  0  0  0  0  0  0  0  0  0
   43.4790   20.0230   36.7810 H   0  0  0  0  0  0  0  0  0  0  0  0
   42.4050   21.0960   35.2470 C   0  0  0  0  0  0  0  0  0  0  0  0
   42.9320   20.7620   34.3510 H   0  0  0  0  0  0  0  0  0  0  0  0
   41.3930   21.9300   35.2790 O   0  0  0  0  0  0  0  0  0  0  0  0
   38.6860   25.6150   33.3640 O   0  0  0  0  0  0  0  0  0  0  0  0
   35.6770   25.9090   31.3790 C   0  0  0  0  0  0  0  0  0  0  0  0
   35.3880   24.5250   31.1630 C   0  0  0  0  0  0  0  0  0  0  0  0
   36.2470   23.6060   31.7140 C   0  0  0  0  0  0  0  0  0  0  0  0
   37.3070   24.1000   32.4240 N   0  0  0  0  0  0  0  0  0  0  0  0
   37.5640   25.3830   32.6180 C   0  0  0  0  0  0  0  0  0  0  0  0
   36.7250   26.3020   32.0800 N   0  0  0  0  0  0  0  0  0  0  0  0
   34.9790   26.6110   30.9310 H   0  0  0  0  0  0  0  0  0  0  0  0
   34.5470   24.1560   30.5990 H   0  0  0  0  0  0  0  0  0  0  0  0
   37.9260   21.7810   30.2300 F   0  0  0  0  0  0  0  0  0  0  0  0
   36.9000   21.3010   30.9130 C   0  0  0  0  0  0  0  0  0  0  0  0
   36.1220   22.1730   31.6040 C   0  0  0  0  0  0  0  0  0  0  0  0
   35.0700   21.5590   32.2870 C   0  0  0  0  0  0  0  0  0  0  0  0
   34.8400   20.2050   32.2640 C   0  0  0  0  0  0  0  0  0  0  0  0
   35.6580   19.3610   31.5480 C   0  0  0  0  0  0  0  0  0  0  0  0
   36.7070   19.9400   30.8630 C   0  0  0  0  0  0  0  0  0  0  0  0
   34.3500   22.1120   32.8910 H   0  0  0  0  0  0  0  0  0  0  0  0
   34.0260   19.7350   32.7930 H   0  0  0  0  0  0  0  0  0  0  0  0
   35.5000   18.3040   31.5150 H   0  0  0  0  0  0  0  0  0  0  0  0
   37.3620   19.2970   30.2930 H   0  0  0  0  0  0  0  0  0  0  0  0
  1  2  1  0  0  0  0
  1  4  1  0  0  0  0
  3  1  1  0  0  0  0
  4  6  1  0  0  0  0
  4  7  1  0  0  0  0
  5  4  1  0  0  0  0
  7  8  1  0  0  0  0
  8 13  1  0  0  0  0
  8  9  2  0  0  0  0
  9 14  1  0  0  0  0
 10  9  1  0  0  0  0
 11 10  2  0  0  0  0
 12  7  2  0  0  0  0
 12 11  1  0  0  0  0
 15 11  1  0  0  0  0
 15 16  2  0  0  0  0
 16 17  1  0  0  0  0
 18 19  1  0  0  0  0
 18 16  1  0  0  0  0
 20 22  1  0  0  0  0
 20 18  2  0  0  0  0
 21 20  1  0  0  0  0
 22 15  1  0  0  0  0
 23  1  1  0  0  0  0
 24 29  1  0  0  0  0
 25 24  2  0  0  0  0
 25 26  1  0  0  0  0
 26 27  2  0  0  0  0
 27 28  1  0  0  0  0
 28 23  1  0  0  0  0
 29 28  2  0  0  0  0
 30 24  1  0  0  0  0
 31 25  1  0  0  0  0
 32 33  1  0  0  0  0
 33 34  1  0  0  0  0
 34 26  1  0  0  0  0
 34 35  2  0  0  0  0
 35 39  1  0  0  0  0
 36 35  1  0  0  0  0
 36 40  1  0  0  0  0
 37 36  2  0  0  0  0
 38 33  2  0  0  0  0
 38 37  1  0  0  0  0
 41 37  1  0  0  0  0
 42 38  1  0  0  0  0
M  END
>  <minimizedAffinity>
-6.30080605

$$$$

 OpenBabel03272509563D

 42 45  0  0  0  0  0  0  0  0999 V2000
   37.4490   26.9870   34.8420 C   0  0  0  0  0  0  0  0  0  0  0  0
   37.5220   28.0260   35.2530 H   0  0  0  0  0  0  0  0  0  0  0  0
   36.7230   26.4480   35.4710 H   0  0  0  0  0  0  0  0  0  0  0  0
   38.8240   26.3990   34.8670 C   0  0  0  0  0  0  0  0  0  0  0  0
   39.6270   27.1170   35.1050 H   0  0  0  0  0  0  0  0  0  0  0  0
   39.0510   26.0520   33.8220 H   0  0  0  0  0  0  0  0  0  0  0  0
   38.9110   25.1890   35.7120 C   0  0  0  0  0  0  0  0  0  0  0  0
   37.9030   24.9480   36.6350 C   0  0  0  0  0  0  0  0  0  0  0  0
   37.8770   23.8690   37.4650 C   0  0  0  0  0  0  0  0  0  0  0  0
   38.8690   23.0060   37.3820 N   0  0  0  0  0  0  0  0  0  0  0  0
   39.8800   23.2130   36.4830 C   0  0  0  0  0  0  0  0  0  0  0  0
   39.9190   24.2800   35.6520 N   0  0  0  0  0  0  0  0  0  0  0  0
   37.0780   25.6750   36.6970 H   0  0  0  0  0  0  0  0  0  0  0  0
   37.1040   23.6640   38.1870 H   0  0  0  0  0  0  0  0  0  0  0  0
   40.9610   22.2210   36.4310 C   0  0  0  0  0  0  0  0  0  0  0  0
   41.4810   21.5090   37.4900 C   0  0  0  0  0  0  0  0  0  0  0  0
   41.1960   21.5490   38.5290 H   0  0  0  0  0  0  0  0  0  0  0  0
   42.4880   20.6810   36.9930 C   0  0  0  0  0  0  0  0  0  0  0  0
   43.1360   19.9760   37.4750 H   0  0  0  0  0  0  0  0  0  0  0  0
   42.5270   20.9380   35.6410 C   0  0  0  0  0  0  0  0  0  0  0  0
   43.2020   20.4650   34.9240 H   0  0  0  0  0  0  0  0  0  0  0  0
   41.6180   21.8410   35.3620 O   0  0  0  0  0  0  0  0  0  0  0  0
   36.9950   27.1130   33.5070 O   0  0  0  0  0  0  0  0  0  0  0  0
   36.0120   30.0410   31.6240 C   0  0  0  0  0  0  0  0  0  0  0  0
   35.3850   30.8020   32.6610 C   0  0  0  0  0  0  0  0  0  0  0  0
   35.3500   30.2490   33.9180 C   0  0  0  0  0  0  0  0  0  0  0  0
   35.9220   29.0140   34.0660 N   0  0  0  0  0  0  0  0  0  0  0  0
   36.4990   28.3200   33.1000 C   0  0  0  0  0  0  0  0  0  0  0  0
   36.5420   28.8520   31.8540 N   0  0  0  0  0  0  0  0  0  0  0  0
   36.0250   30.5040   30.6420 H   0  0  0  0  0  0  0  0  0  0  0  0
   34.9400   31.7730   32.5230 H   0  0  0  0  0  0  0  0  0  0  0  0
   36.6490   31.8860   35.9140 F   0  0  0  0  0  0  0  0  0  0  0  0
   35.3570   31.6320   36.0320 C   0  0  0  0  0  0  0  0  0  0  0  0
   34.7630   30.8610   35.0850 C   0  0  0  0  0  0  0  0  0  0  0  0
   33.4000   30.6570   35.3080 C   0  0  0  0  0  0  0  0  0  0  0  0
   32.7210   31.1830   36.3790 C   0  0  0  0  0  0  0  0  0  0  0  0
   33.3660   31.9600   37.3140 C   0  0  0  0  0  0  0  0  0  0  0  0
   34.7160   32.1790   37.1200 C   0  0  0  0  0  0  0  0  0  0  0  0
   32.7710   30.0630   34.6440 H   0  0  0  0  0  0  0  0  0  0  0  0
   31.6670   31.0230   36.5480 H   0  0  0  0  0  0  0  0  0  0  0  0
   32.8610   32.3810   38.1570 H   0  0  0  0  0  0  0  0  0  0  0  0
   35.2440   32.7840   37.8410 H   0  0  0  0  0  0  0  0  0  0  0  0
  1  4  1  0  0  0  0
  1  2  1  0  0  0  0
  1  3  1  0  0  0  0
  4  5  1  0  0  0  0
  4  7  1  0  0  0  0
  6  4  1  0  0  0  0
  7  8  1  0  0  0  0
  8 13  1  0  0  0  0
  8  9  2  0  0  0  0
  9 14  1  0  0  0  0
 10  9  1  0  0  0  0
 11 10  2  0  0  0  0
 12  7  2  0  0  0  0
 12 11  1  0  0  0  0
 15 11  1  0  0  0  0
 15 16  2  0  0  0  0
 16 17  1  0  0  0  0
 18 19  1  0  0  0  0
 18 16  1  0  0  0  0
 20 18  2  0  0  0  0
 21 20  1  0  0  0  0
 22 20  1  0  0  0  0
 22 15  1  0  0  0  0
 23  1  1  0  0  0  0
 24 29  2  0  0  0  0
 24 25  1  0  0  0  0
 25 26  2  0  0  0  0
 26 27  1  0  0  0  0
 26 34  1  0  0  0  0
 28 23  1  0  0  0  0
 28 27  2  0  0  0  0
 29 28  1  0  0  0  0
 30 24  1  0  0  0  0
 31 25  1  0  0  0  0
 32 33  1  0  0  0  0
 33 38  1  0  0  0  0
 34 35  1  0  0  0  0
 34 33  2  0  0  0  0
 35 36  2  0  0  0  0
 36 40  1  0  0  0  0
 36 37  1  0  0  0  0
 37 41  1  0  0  0  0
 38 37  2  0  0  0  0
 38 42  1  0  0  0  0
 39 35  1  0  0  0  0
M  END
>  <minimizedAffinity>
-6.29117775

$$$$

 OpenBabel03272509563D

 42 45  0  0  0  0  0  0  0  0999 V2000
   38.0420   26.8040   32.6450 C   0  0  0  0  0  0  0  0  0  0  0  0
   38.5160   27.5210   31.9290 H   0  0  0  0  0  0  0  0  0  0  0  0
   38.6290   26.8510   33.5760 H   0  0  0  0  0  0  0  0  0  0  0  0
   38.0440   25.4560   31.9970 C   0  0  0  0  0  0  0  0  0  0  0  0
   38.8250   25.3160   31.2300 H   0  0  0  0  0  0  0  0  0  0  0  0
   37.0730   25.3590   31.4390 H   0  0  0  0  0  0  0  0  0  0  0  0
   38.0450   24.3510   32.9800 C   0  0  0  0  0  0  0  0  0  0  0  0
   37.9060   23.0500   32.5180 C   0  0  0  0  0  0  0  0  0  0  0  0
   37.8930   21.9560   33.3270 C   0  0  0  0  0  0  0  0  0  0  0  0
   38.0230   22.1490   34.6240 N   0  0  0  0  0  0  0  0  0  0  0  0
   38.1620   23.4190   35.1140 C   0  0  0  0  0  0  0  0  0  0  0  0
   38.1770   24.5160   34.3210 N   0  0  0  0  0  0  0  0  0  0  0  0
   37.7980   22.8980   31.4320 H   0  0  0  0  0  0  0  0  0  0  0  0
   37.7860   20.9380   32.9890 H   0  0  0  0  0  0  0  0  0  0  0  0
   38.3030   23.5800   36.5660 C   0  0  0  0  0  0  0  0  0  0  0  0
   39.2600   23.0030   37.3720 C   0  0  0  0  0  0  0  0  0  0  0  0
   40.0630   22.3400   37.0910 H   0  0  0  0  0  0  0  0  0  0  0  0
   39.0250   23.4240   38.6820 C   0  0  0  0  0  0  0  0  0  0  0  0
   39.5300   23.2100   39.6020 H   0  0  0  0  0  0  0  0  0  0  0  0
   37.9230   24.2450   38.6000 C   0  0  0  0  0  0  0  0  0  0  0  0
   37.4510   24.7600   39.4400 H   0  0  0  0  0  0  0  0  0  0  0  0
   37.5400   24.3050   37.3470 O   0  0  0  0  0  0  0  0  0  0  0  0
   36.7120   27.2500   32.8410 O   0  0  0  0  0  0  0  0  0  0  0  0
   36.3580   30.5950   31.5100 C   0  0  0  0  0  0  0  0  0  0  0  0
   35.7260   31.2370   32.6210 C   0  0  0  0  0  0  0  0  0  0  0  0
   35.4730   30.4720   33.7330 C   0  0  0  0  0  0  0  0  0  0  0  0
   35.8510   29.1570   33.6780 N   0  0  0  0  0  0  0  0  0  0  0  0
   36.4350   28.5750   32.6440 C   0  0  0  0  0  0  0  0  0  0  0  0
   36.6920   29.3170   31.5390 N   0  0  0  0  0  0  0  0  0  0  0  0
   36.5450   31.2260   30.6460 H   0  0  0  0  0  0  0  0  0  0  0  0
   35.4360   32.2740   32.6440 H   0  0  0  0  0  0  0  0  0  0  0  0
   36.6540   32.0240   35.8660 F   0  0  0  0  0  0  0  0  0  0  0  0
   35.3840   31.6680   35.9570 C   0  0  0  0  0  0  0  0  0  0  0  0
   34.8450   30.9390   34.9450 C   0  0  0  0  0  0  0  0  0  0  0  0
   33.5010   30.6190   35.1440 C   0  0  0  0  0  0  0  0  0  0  0  0
   32.7870   31.0020   36.2530 C   0  0  0  0  0  0  0  0  0  0  0  0
   33.3770   31.7420   37.2530 C   0  0  0  0  0  0  0  0  0  0  0  0
   34.7070   32.0730   37.0840 C   0  0  0  0  0  0  0  0  0  0  0  0
   32.9150   30.0400   34.4300 H   0  0  0  0  0  0  0  0  0  0  0  0
   31.7480   30.7540   36.4030 H   0  0  0  0  0  0  0  0  0  0  0  0
   32.8440   32.0520   38.1260 H   0  0  0  0  0  0  0  0  0  0  0  0
   35.1910   32.6520   37.8560 H   0  0  0  0  0  0  0  0  0  0  0  0
  1 23  1  0  0  0  0
  1  3  1  0  0  0  0
  2  1  1  0  0  0  0
  4  1  1  0  0  0  0
  4  7  1  0  0  0  0
  5  4  1  0  0  0  0
  6  4  1  0  0  0  0
  7 12  1  0  0  0  0
  8  7  2  0  0  0  0
  8  9  1  0  0  0  0
  9 10  2  0  0  0  0
 10 11  1  0  0  0  0
 11 15  1  0  0  0  0
 12 11  2  0  0  0  0
 13  8  1  0  0  0  0
 14  9  1  0  0  0  0
 15 22  1  0  0  0  0
 15 16  2  0  0  0  0
 16 18  1  0  0  0  0
 17 16  1  0  0  0  0
 18 19  1  0  0  0  0
 20 18  2  0  0  0  0
 20 21  1  0  0  0  0
 22 20  1  0  0  0  0
 24 29  2  0  0  0  0
 24 25  1  0  0  0  0
 25 31  1  0  0  0  0
 25 26  2  0  0  0  0
 26 34  1  0  0  0  0
 27 26  1  0  0  0  0
 28 23  1  0  0  0  0
 28 27  2  0  0  0  0
 29 28  1  0  0  0  0
 30 24  1  0  0  0  0
 32 33  1  0  0  0  0
 33 38  1  0  0  0  0
 34 35  1  0  0  0  0
 34 33  2  0  0  0  0
 35 36  2  0  0  0  0
 36 40  1  0  0  0  0
 36 37  1  0  0  0  0
 37 41  1  0  0  0  0
 38 37  2  0  0  0  0
 38 42  1  0  0  0  0
 39 35  1  0  0  0  0
M  END
>  <minimizedAffinity>
-6.20019054

$$$$

 OpenBabel03272509563D

 42 45  0  0  0  0  0  0  0  0999 V2000
   38.3380   26.9060   35.0170 C   0  0  0  0  0  0  0  0  0  0  0  0
   38.8000   27.8910   34.7540 H   0  0  0  0  0  0  0  0  0  0  0  0
   38.1350   26.9300   36.1000 H   0  0  0  0  0  0  0  0  0  0  0  0
   39.2980   25.8360   34.6050 C   0  0  0  0  0  0  0  0  0  0  0  0
   40.3390   26.0030   34.9290 H   0  0  0  0  0  0  0  0  0  0  0  0
   39.3420   25.8500   33.4820 H   0  0  0  0  0  0  0  0  0  0  0  0
   38.8300   24.4800   34.9650 C   0  0  0  0  0  0  0  0  0  0  0  0
   39.0960   24.0010   36.2400 C   0  0  0  0  0  0  0  0  0  0  0  0
   38.7150   22.7720   36.6820 C   0  0  0  0  0  0  0  0  0  0  0  0
   38.0540   21.9960   35.8480 N   0  0  0  0  0  0  0  0  0  0  0  0
   37.7740   22.4370   34.5830 C   0  0  0  0  0  0  0  0  0  0  0  0
   38.1470   23.6560   34.1290 N   0  0  0  0  0  0  0  0  0  0  0  0
   39.6500   24.6570   36.9300 H   0  0  0  0  0  0  0  0  0  0  0  0
   38.9120   22.3810   37.6670 H   0  0  0  0  0  0  0  0  0  0  0  0
   37.0350   21.5330   33.6920 C   0  0  0  0  0  0  0  0  0  0  0  0
   35.9170   20.7930   34.0090 C   0  0  0  0  0  0  0  0  0  0  0  0
   35.3920   20.7400   34.9500 H   0  0  0  0  0  0  0  0  0  0  0  0
   35.5420   20.0780   32.8710 C   0  0  0  0  0  0  0  0  0  0  0  0
   34.7390   19.3930   32.6910 H   0  0  0  0  0  0  0  0  0  0  0  0
   36.4640   20.4280   31.9100 C   0  0  0  0  0  0  0  0  0  0  0  0
   36.4820   20.0580   30.8830 H   0  0  0  0  0  0  0  0  0  0  0  0
   37.3130   21.2780   32.4370 O   0  0  0  0  0  0  0  0  0  0  0  0
   37.1430   26.8070   34.2630 O   0  0  0  0  0  0  0  0  0  0  0  0
   36.1990   29.4160   31.9410 C   0  0  0  0  0  0  0  0  0  0  0  0
   35.5450   30.3190   32.8380 C   0  0  0  0  0  0  0  0  0  0  0  0
   35.4820   29.9600   34.1620 C   0  0  0  0  0  0  0  0  0  0  0  0
   36.0530   28.7650   34.5060 N   0  0  0  0  0  0  0  0  0  0  0  0
   36.6550   27.9380   33.6680 C   0  0  0  0  0  0  0  0  0  0  0  0
   36.7260   28.2780   32.3580 N   0  0  0  0  0  0  0  0  0  0  0  0
   36.2330   29.7270   30.9020 H   0  0  0  0  0  0  0  0  0  0  0  0
   35.1020   31.2560   32.5460 H   0  0  0  0  0  0  0  0  0  0  0  0
   36.7430   31.8270   35.9720 F   0  0  0  0  0  0  0  0  0  0  0  0
   35.4420   31.6170   36.0690 C   0  0  0  0  0  0  0  0  0  0  0  0
   34.8650   30.7360   35.2110 C   0  0  0  0  0  0  0  0  0  0  0  0
   33.4900   30.5910   35.4020 C   0  0  0  0  0  0  0  0  0  0  0  0
   32.7840   31.2710   36.3640 C   0  0  0  0  0  0  0  0  0  0  0  0
   33.4120   32.1540   37.2120 C   0  0  0  0  0  0  0  0  0  0  0  0
   34.7730   32.3180   37.0460 C   0  0  0  0  0  0  0  0  0  0  0  0
   32.8730   29.9250   34.7990 H   0  0  0  0  0  0  0  0  0  0  0  0
   31.7210   31.1560   36.5090 H   0  0  0  0  0  0  0  0  0  0  0  0
   32.8850   32.6950   37.9680 H   0  0  0  0  0  0  0  0  0  0  0  0
   35.2880   33.0060   37.7000 H   0  0  0  0  0  0  0  0  0  0  0  0
  1  3  1  0  0  0  0
  2  1  1  0  0  0  0
  4  5  1  0  0  0  0
  4  7  1  0  0  0  0
  4  1  1  0  0  0  0
  6  4  1  0  0  0  0
  7  8  1  0  0  0  0
  8  9  2  0  0  0  0
  8 13  1  0  0  0  0
  9 14  1  0  0  0  0
 10  9  1  0  0  0  0
 11 10  2  0  0  0  0
 12 11  1  0  0  0  0
 12  7  2  0  0  0  0
 15 16  2  0  0  0  0
 15 11  1  0  0  0  0
 16 17  1  0  0  0  0
 18 16  1  0  0  0  0
 19 18  1  0  0  0  0
 20 22  1  0  0  0  0
 20 18  2  0  0  0  0
 21 20  1  0  0  0  0
 22 15  1  0  0  0  0
 23  1  1  0  0  0  0
 24 29  2  0  0  0  0
 24 25  1  0  0  0  0
 25 26  2  0  0  0  0
 26 27  1  0  0  0  0
 26 34  1  0  0  0  0
 28 23  1  0  0  0  0
 28 27  2  0  0  0  0
 29 28  1  0  0  0  0
 30 24  1  0  0  0  0
 31 25  1  0  0  0  0
 32 33  1  0  0  0  0
 33 38  1  0  0  0  0
 34 35  1  0  0  0  0
 34 33  2  0  0  0  0
 35 36  2  0  0  0  0
 36 40  1  0  0  0  0
 36 37  1  0  0  0  0
 37 41  1  0  0  0  0
 38 37  2  0  0  0  0
 38 42  1  0  0  0  0
 39 35  1  0  0  0  0
M  END
>  <minimizedAffinity>
-6.19692039

$$$$

 OpenBabel03272509563D

 42 45  0  0  0  0  0  0  0  0999 V2000
   37.0250   21.4660   32.5090 C   0  0  0  0  0  0  0  0  0  0  0  0
   36.3740   20.5660   32.6500 H   0  0  0  0  0  0  0  0  0  0  0  0
   37.0420   21.9990   33.4740 H   0  0  0  0  0  0  0  0  0  0  0  0
   36.4460   22.2660   31.3870 C   0  0  0  0  0  0  0  0  0  0  0  0
   35.4700   21.9040   31.0200 H   0  0  0  0  0  0  0  0  0  0  0  0
   37.1410   22.1540   30.5110 H   0  0  0  0  0  0  0  0  0  0  0  0
   36.4110   23.7160   31.6790 C   0  0  0  0  0  0  0  0  0  0  0  0
   35.5990   24.5310   30.9030 C   0  0  0  0  0  0  0  0  0  0  0  0
   35.4870   25.8760   31.0800 C   0  0  0  0  0  0  0  0  0  0  0  0
   36.1910   26.4310   32.0450 N   0  0  0  0  0  0  0  0  0  0  0  0
   37.0020   25.6560   32.8290 C   0  0  0  0  0  0  0  0  0  0  0  0
   37.1250   24.3180   32.6660 N   0  0  0  0  0  0  0  0  0  0  0  0
   35.0140   24.0590   30.0980 H   0  0  0  0  0  0  0  0  0  0  0  0
   34.8620   26.5270   30.4900 H   0  0  0  0  0  0  0  0  0  0  0  0
   37.7660   26.3230   33.8910 C   0  0  0  0  0  0  0  0  0  0  0  0
   39.1370   26.3540   34.0270 C   0  0  0  0  0  0  0  0  0  0  0  0
   39.8840   25.9020   33.3940 H   0  0  0  0  0  0  0  0  0  0  0  0
   39.4350   27.0960   35.1710 C   0  0  0  0  0  0  0  0  0  0  0  0
   40.3670   27.3580   35.6290 H   0  0  0  0  0  0  0  0  0  0  0  0
   38.2130   27.4820   35.6750 C   0  0  0  0  0  0  0  0  0  0  0  0
   38.0580   28.0830   36.5730 H   0  0  0  0  0  0  0  0  0  0  0  0
   37.2720   27.0080   34.8930 O   0  0  0  0  0  0  0  0  0  0  0  0
   38.3080   20.9840   32.1540 O   0  0  0  0  0  0  0  0  0  0  0  0
   41.5810   21.4100   33.6350 C   0  0  0  0  0  0  0  0  0  0  0  0
   41.2120   22.0140   34.8790 C   0  0  0  0  0  0  0  0  0  0  0  0
   39.8750   22.2250   35.1070 C   0  0  0  0  0  0  0  0  0  0  0  0
   39.0110   21.8370   34.1190 N   0  0  0  0  0  0  0  0  0  0  0  0
   39.3630   21.2790   32.9730 C   0  0  0  0  0  0  0  0  0  0  0  0
   40.6800   21.0640   32.7330 N   0  0  0  0  0  0  0  0  0  0  0  0
   42.6460   21.2560   33.4840 H   0  0  0  0  0  0  0  0  0  0  0  0
   41.9090   22.3130   35.6440 H   0  0  0  0  0  0  0  0  0  0  0  0
   40.8380   22.0260   37.8240 F   0  0  0  0  0  0  0  0  0  0  0  0
   39.7510   22.7370   37.5770 C   0  0  0  0  0  0  0  0  0  0  0  0
   39.3120   22.8200   36.2950 C   0  0  0  0  0  0  0  0  0  0  0  0
   38.1600   23.5940   36.1490 C   0  0  0  0  0  0  0  0  0  0  0  0
   37.5260   24.2140   37.1990 C   0  0  0  0  0  0  0  0  0  0  0  0
   38.0090   24.1010   38.4830 C   0  0  0  0  0  0  0  0  0  0  0  0
   39.1480   23.3410   38.6570 C   0  0  0  0  0  0  0  0  0  0  0  0
   37.6750   23.7650   35.1880 H   0  0  0  0  0  0  0  0  0  0  0  0
   36.6360   24.8110   37.0820 H   0  0  0  0  0  0  0  0  0  0  0  0
   37.5350   24.5730   39.3160 H   0  0  0  0  0  0  0  0  0  0  0  0
   39.5450   23.2370   39.6560 H   0  0  0  0  0  0  0  0  0  0  0  0
  1  2  1  0  0  0  0
  1  3  1  0  0  0  0
  4  7  1  0  0  0  0
  4  1  1  0  0  0  0
  5  4  1  0  0  0  0
  6  4  1  0  0  0  0
  7 12  1  0  0  0  0
  8  9  1  0  0  0  0
  8  7  2  0  0  0  0
  9 10  2  0  0  0  0
 10 11  1  0  0  0  0
 11 15  1  0  0  0  0
 12 11  2  0  0  0  0
 13  8  1  0  0  0  0
 14  9  1  0  0  0  0
 15 16  2  0  0  0  0
 15 22  1  0  0  0  0
 16 18  1  0  0  0  0
 17 16  1  0  0  0  0
 18 19  1  0  0  0  0
 18 20  2  0  0  0  0
 20 21  1  0  0  0  0
 22 20  1  0  0  0  0
 23  1  1  0  0  0  0
 23 28  1  0  0  0  0
 24 25  1  0  0  0  0
 25 26  2  0  0  0  0
 25 31  1  0  0  0  0
 26 34  1  0  0  0  0
 27 26  1  0  0  0  0
 28 27  2  0  0  0  0
 29 28  1  0  0  0  0
 29 24  2  0  0  0  0
 30 24  1  0  0  0  0
 33 32  1  0  0  0  0
 33 38  1  0  0  0  0
 34 33  2  0  0  0  0
 35 34  1  0  0  0  0
 35 36  2  0  0  0  0
 36 37  1  0  0  0  0
 37 38  2  0  0  0  0
 37 41  1  0  0  0  0
 38 42  1  0  0  0  0
 39 35  1  0  0  0  0
 40 36  1  0  0  0  0
M  END
>  <minimizedAffinity>
-6.12184477

$$$$

 OpenBabel03272509563D

 42 45  0  0  0  0  0  0  0  0999 V2000
   38.5800   26.6550   34.2410 C   0  0  0  0  0  0  0  0  0  0  0  0
   38.9220   27.0690   33.2590 H   0  0  0  0  0  0  0  0  0  0  0  0
   39.0960   27.2320   35.0250 H   0  0  0  0  0  0  0  0  0  0  0  0
   38.9060   25.1960   34.2500 C   0  0  0  0  0  0  0  0  0  0  0  0
   38.7370   24.6930   35.2180 H   0  0  0  0  0  0  0  0  0  0  0  0
   40.0120   25.1060   34.0700 H   0  0  0  0  0  0  0  0  0  0  0  0
   38.2640   24.4610   33.1390 C   0  0  0  0  0  0  0  0  0  0  0  0
   38.3920   24.9590   31.8500 C   0  0  0  0  0  0  0  0  0  0  0  0
   37.8460   24.3690   30.7520 C   0  0  0  0  0  0  0  0  0  0  0  0
   37.1570   23.2600   30.9280 N   0  0  0  0  0  0  0  0  0  0  0  0
   37.0100   22.7420   32.1860 C   0  0  0  0  0  0  0  0  0  0  0  0
   37.5470   23.3170   33.2880 N   0  0  0  0  0  0  0  0  0  0  0  0
   38.9700   25.8870   31.7120 H   0  0  0  0  0  0  0  0  0  0  0  0
   37.9340   24.7390   29.7440 H   0  0  0  0  0  0  0  0  0  0  0  0
   36.2330   21.5040   32.3290 C   0  0  0  0  0  0  0  0  0  0  0  0
   35.2230   21.0630   31.5010 C   0  0  0  0  0  0  0  0  0  0  0  0
   34.8260   21.5350   30.6170 H   0  0  0  0  0  0  0  0  0  0  0  0
   34.7620   19.8460   32.0030 C   0  0  0  0  0  0  0  0  0  0  0  0
   33.9960   19.1780   31.6640 H   0  0  0  0  0  0  0  0  0  0  0  0
   35.5260   19.6090   33.1240 C   0  0  0  0  0  0  0  0  0  0  0  0
   35.4420   18.7380   33.7770 H   0  0  0  0  0  0  0  0  0  0  0  0
   36.3690   20.6030   33.2710 O   0  0  0  0  0  0  0  0  0  0  0  0
   37.1770   26.8420   34.2910 O   0  0  0  0  0  0  0  0  0  0  0  0
   36.1120   29.3800   31.9430 C   0  0  0  0  0  0  0  0  0  0  0  0
   35.4610   30.2860   32.8380 C   0  0  0  0  0  0  0  0  0  0  0  0
   35.4390   29.9530   34.1700 C   0  0  0  0  0  0  0  0  0  0  0  0
   36.0470   28.7790   34.5230 N   0  0  0  0  0  0  0  0  0  0  0  0
   36.6470   27.9480   33.6860 C   0  0  0  0  0  0  0  0  0  0  0  0
   36.6760   28.2630   32.3680 N   0  0  0  0  0  0  0  0  0  0  0  0
   36.1120   29.6700   30.8960 H   0  0  0  0  0  0  0  0  0  0  0  0
   34.9880   31.2070   32.5390 H   0  0  0  0  0  0  0  0  0  0  0  0
   36.7150   31.8380   35.9510 F   0  0  0  0  0  0  0  0  0  0  0  0
   35.4150   31.6250   36.0630 C   0  0  0  0  0  0  0  0  0  0  0  0
   34.8320   30.7370   35.2180 C   0  0  0  0  0  0  0  0  0  0  0  0
   33.4590   30.5900   35.4250 C   0  0  0  0  0  0  0  0  0  0  0  0
   32.7610   31.2750   36.3890 C   0  0  0  0  0  0  0  0  0  0  0  0
   33.3960   32.1670   37.2220 C   0  0  0  0  0  0  0  0  0  0  0  0
   34.7550   32.3330   37.0410 C   0  0  0  0  0  0  0  0  0  0  0  0
   32.8370   29.9170   34.8340 H   0  0  0  0  0  0  0  0  0  0  0  0
   31.7000   31.1590   36.5450 H   0  0  0  0  0  0  0  0  0  0  0  0
   32.8760   32.7130   37.9800 H   0  0  0  0  0  0  0  0  0  0  0  0
   35.2750   33.0270   37.6840 H   0  0  0  0  0  0  0  0  0  0  0  0
  1  4  1  0  0  0  0
  1 23  1  0  0  0  0
  1  3  1  0  0  0  0
  2  1  1  0  0  0  0
  4  5  1  0  0  0  0
  6  4  1  0  0  0  0
  7 12  1  0  0  0  0
  7  4  1  0  0  0  0
  8  7  2  0  0  0  0
  9 10  2  0  0  0  0
  9  8  1  0  0  0  0
 10 11  1  0  0  0  0
 11 15  1  0  0  0  0
 11 12  2  0  0  0  0
 13  8  1  0  0  0  0
 14  9  1  0  0  0  0
 15 22  1  0  0  0  0
 16 18  1  0  0  0  0
 16 15  2  0  0  0  0
 17 16  1  0  0  0  0
 18 20  2  0  0  0  0
 19 18  1  0  0  0  0
 20 22  1  0  0  0  0
 20 21  1  0  0  0  0
 24 29  2  0  0  0  0
 24 25  1  0  0  0  0
 25 26  2  0  0  0  0
 26 27  1  0  0  0  0
 26 34  1  0  0  0  0
 28 23  1  0  0  0  0
 28 27  2  0  0  0  0
 29 28  1  0  0  0  0
 30 24  1  0  0  0  0
 31 25  1  0  0  0  0
 32 33  1  0  0  0  0
 33 38  1  0  0  0  0
 34 35  1  0  0  0  0
 34 33  2  0  0  0  0
 35 36  2  0  0  0  0
 36 40  1  0  0  0  0
 36 37  1  0  0  0  0
 37 41  1  0  0  0  0
 38 37  2  0  0  0  0
 38 42  1  0  0  0  0
 39 35  1  0  0  0  0
M  END
>  <minimizedAffinity>
-5.97465134

$$$$

 OpenBabel03272509563D

 42 45  0  0  0  0  0  0  0  0999 V2000
   37.7120   25.9780   32.1770 C   0  0  0  0  0  0  0  0  0  0  0  0
   37.1140   25.1740   31.6780 H   0  0  0  0  0  0  0  0  0  0  0  0
   38.1260   26.6090   31.3740 H   0  0  0  0  0  0  0  0  0  0  0  0
   38.7530   25.3070   33.0170 C   0  0  0  0  0  0  0  0  0  0  0  0
   39.2550   25.9700   33.7420 H   0  0  0  0  0  0  0  0  0  0  0  0
   39.5690   24.9720   32.3210 H   0  0  0  0  0  0  0  0  0  0  0  0
   38.2550   24.0740   33.6640 C   0  0  0  0  0  0  0  0  0  0  0  0
   38.4140   23.9330   35.0360 C   0  0  0  0  0  0  0  0  0  0  0  0
   37.9960   22.8440   35.7380 C   0  0  0  0  0  0  0  0  0  0  0  0
   37.4060   21.8720   35.0730 N   0  0  0  0  0  0  0  0  0  0  0  0
   37.2320   21.9800   33.7200 C   0  0  0  0  0  0  0  0  0  0  0  0
   37.6420   23.0550   33.0080 N   0  0  0  0  0  0  0  0  0  0  0  0
   38.9090   24.7500   35.5840 H   0  0  0  0  0  0  0  0  0  0  0  0
   38.1100   22.7150   36.8020 H   0  0  0  0  0  0  0  0  0  0  0  0
   36.5690   20.8690   33.0260 C   0  0  0  0  0  0  0  0  0  0  0  0
   35.5300   20.1000   33.5030 C   0  0  0  0  0  0  0  0  0  0  0  0
   35.0250   20.1690   34.4540 H   0  0  0  0  0  0  0  0  0  0  0  0
   35.2080   19.1620   32.5210 C   0  0  0  0  0  0  0  0  0  0  0  0
   34.4700   18.3860   32.4900 H   0  0  0  0  0  0  0  0  0  0  0  0
   36.0790   19.4160   31.4860 C   0  0  0  0  0  0  0  0  0  0  0  0
   36.1160   18.8720   30.5400 H   0  0  0  0  0  0  0  0  0  0  0  0
   36.8510   20.4200   31.8280 O   0  0  0  0  0  0  0  0  0  0  0  0
   36.8120   26.6990   32.9990 O   0  0  0  0  0  0  0  0  0  0  0  0
   36.5190   29.9250   31.3890 C   0  0  0  0  0  0  0  0  0  0  0  0
   35.8600   30.6590   32.4260 C   0  0  0  0  0  0  0  0  0  0  0  0
   35.5700   29.9890   33.5890 C   0  0  0  0  0  0  0  0  0  0  0  0
   35.9410   28.6720   33.6520 N   0  0  0  0  0  0  0  0  0  0  0  0
   36.5500   28.0040   32.6870 C   0  0  0  0  0  0  0  0  0  0  0  0
   36.8430   28.6520   31.5330 N   0  0  0  0  0  0  0  0  0  0  0  0
   36.7340   30.4820   30.4820 H   0  0  0  0  0  0  0  0  0  0  0  0
   35.5760   31.6960   32.3550 H   0  0  0  0  0  0  0  0  0  0  0  0
   32.8100   29.6840   34.3910 F   0  0  0  0  0  0  0  0  0  0  0  0
   33.6180   30.4250   35.1310 C   0  0  0  0  0  0  0  0  0  0  0  0
   34.9110   30.5570   34.7400 C   0  0  0  0  0  0  0  0  0  0  0  0
   35.6730   31.3580   35.5930 C   0  0  0  0  0  0  0  0  0  0  0  0
   35.1670   31.9570   36.7200 C   0  0  0  0  0  0  0  0  0  0  0  0
   33.8480   31.7940   37.0770 C   0  0  0  0  0  0  0  0  0  0  0  0
   33.0700   31.0060   36.2520 C   0  0  0  0  0  0  0  0  0  0  0  0
   36.7290   31.5680   35.4260 H   0  0  0  0  0  0  0  0  0  0  0  0
   35.7580   32.5750   37.3770 H   0  0  0  0  0  0  0  0  0  0  0  0
   33.4300   32.2490   37.9490 H   0  0  0  0  0  0  0  0  0  0  0  0
   32.0320   30.8640   36.5110 H   0  0  0  0  0  0  0  0  0  0  0  0
  1 23  1  0  0  0  0
  1  4  1  0  0  0  0
  2  1  1  0  0  0  0
  3  1  1  0  0  0  0
  4  7  1  0  0  0  0
  4  5  1  0  0  0  0
  6  4  1  0  0  0  0
  7  8  1  0  0  0  0
  8 13  1  0  0  0  0
  8  9  2  0  0  0  0
  9 14  1  0  0  0  0
 10  9  1  0  0  0  0
 11 10  2  0  0  0  0
 12  7  2  0  0  0  0
 12 11  1  0  0  0  0
 15 16  2  0  0  0  0
 15 11  1  0  0  0  0
 16 17  1  0  0  0  0
 18 16  1  0  0  0  0
 19 18  1  0  0  0  0
 20 22  1  0  0  0  0
 20 18  2  0  0  0  0
 21 20  1  0  0  0  0
 22 15  1  0  0  0  0
 24 29  2  0  0  0  0
 24 25  1  0  0  0  0
 25 26  2  0  0  0  0
 26 27  1  0  0  0  0
 26 34  1  0  0  0  0
 28 23  1  0  0  0  0
 28 27  2  0  0  0  0
 29 28  1  0  0  0  0
 30 24  1  0  0  0  0
 31 25  1  0  0  0  0
 32 33  1  0  0  0  0
 33 38  1  0  0  0  0
 34 33  2  0  0  0  0
 34 35  1  0  0  0  0
 35 36  2  0  0  0  0
 36 37  1  0  0  0  0
 36 40  1  0  0  0  0
 37 41  1  0  0  0  0
 38 42  1  0  0  0  0
 38 37  2  0  0  0  0
 39 35  1  0  0  0  0
M  END
>  <minimizedAffinity>
-5.91587591

$$$$

 OpenBabel03272509563D

 42 45  0  0  0  0  0  0  0  0999 V2000
   36.5470   26.4960   31.3640 C   0  0  0  0  0  0  0  0  0  0  0  0
   35.5830   26.0050   31.0760 H   0  0  0  0  0  0  0  0  0  0  0  0
   36.8240   27.1630   30.5320 H   0  0  0  0  0  0  0  0  0  0  0  0
   37.5420   25.4100   31.6260 C   0  0  0  0  0  0  0  0  0  0  0  0
   38.1870   25.1620   30.7660 H   0  0  0  0  0  0  0  0  0  0  0  0
   36.9570   24.4720   31.8260 H   0  0  0  0  0  0  0  0  0  0  0  0
   38.3370   25.6490   32.8490 C   0  0  0  0  0  0  0  0  0  0  0  0
   39.3460   26.6010   32.8120 C   0  0  0  0  0  0  0  0  0  0  0  0
   40.1410   26.9050   33.8740 C   0  0  0  0  0  0  0  0  0  0  0  0
   39.9360   26.2550   35.0020 N   0  0  0  0  0  0  0  0  0  0  0  0
   38.9490   25.3100   35.0740 C   0  0  0  0  0  0  0  0  0  0  0  0
   38.1510   24.9960   34.0260 N   0  0  0  0  0  0  0  0  0  0  0  0
   39.5110   27.1390   31.8650 H   0  0  0  0  0  0  0  0  0  0  0  0
   40.9290   27.6400   33.8660 H   0  0  0  0  0  0  0  0  0  0  0  0
   38.7610   24.6140   36.3530 C   0  0  0  0  0  0  0  0  0  0  0  0
   39.3940   23.4620   36.7670 C   0  0  0  0  0  0  0  0  0  0  0  0
   40.1260   22.8710   36.2400 H   0  0  0  0  0  0  0  0  0  0  0  0
   38.9210   23.1520   38.0430 C   0  0  0  0  0  0  0  0  0  0  0  0
   39.1510   22.3480   38.7140 H   0  0  0  0  0  0  0  0  0  0  0  0
   38.0150   24.1450   38.3390 C   0  0  0  0  0  0  0  0  0  0  0  0
   37.4430   24.2270   39.2660 H   0  0  0  0  0  0  0  0  0  0  0  0
   37.9580   24.9730   37.3240 O   0  0  0  0  0  0  0  0  0  0  0  0
   36.2910   27.2210   32.5540 O   0  0  0  0  0  0  0  0  0  0  0  0
   36.4250   30.6950   31.5540 C   0  0  0  0  0  0  0  0  0  0  0  0
   35.7660   31.2980   32.6720 C   0  0  0  0  0  0  0  0  0  0  0  0
   35.3300   30.4660   33.6740 C   0  0  0  0  0  0  0  0  0  0  0  0
   35.5670   29.1280   33.5120 N   0  0  0  0  0  0  0  0  0  0  0  0
   36.1780   28.5810   32.4740 C   0  0  0  0  0  0  0  0  0  0  0  0
   36.6140   29.3890   31.4770 N   0  0  0  0  0  0  0  0  0  0  0  0
   36.7580   31.3780   30.7790 H   0  0  0  0  0  0  0  0  0  0  0  0
   35.5880   32.3550   32.7790 H   0  0  0  0  0  0  0  0  0  0  0  0
   32.6050   29.9080   34.4600 F   0  0  0  0  0  0  0  0  0  0  0  0
   33.3690   30.6350   35.2580 C   0  0  0  0  0  0  0  0  0  0  0  0
   34.6470   30.8870   34.8730 C   0  0  0  0  0  0  0  0  0  0  0  0
   35.3620   31.6610   35.7880 C   0  0  0  0  0  0  0  0  0  0  0  0
   34.8290   32.1260   36.9660 C   0  0  0  0  0  0  0  0  0  0  0  0
   33.5280   31.8430   37.3140 C   0  0  0  0  0  0  0  0  0  0  0  0
   32.7960   31.0790   36.4270 C   0  0  0  0  0  0  0  0  0  0  0  0
   36.4000   31.9560   35.6360 H   0  0  0  0  0  0  0  0  0  0  0  0
   35.3850   32.7240   37.6710 H   0  0  0  0  0  0  0  0  0  0  0  0
   33.0900   32.1930   38.2240 H   0  0  0  0  0  0  0  0  0  0  0  0
   31.7720   30.8450   36.6780 H   0  0  0  0  0  0  0  0  0  0  0  0
  1  4  1  0  0  0  0
  1 23  1  0  0  0  0
  2  1  1  0  0  0  0
  3  1  1  0  0  0  0
  4  6  1  0  0  0  0
  4  7  1  0  0  0  0
  5  4  1  0  0  0  0
  7 12  1  0  0  0  0
  8  7  2  0  0  0  0
  8  9  1  0  0  0  0
  9 10  2  0  0  0  0
 10 11  1  0  0  0  0
 11 15  1  0  0  0  0
 12 11  2  0  0  0  0
 13  8  1  0  0  0  0
 14  9  1  0  0  0  0
 15 16  2  0  0  0  0
 15 22  1  0  0  0  0
 16 18  1  0  0  0  0
 17 16  1  0  0  0  0
 18 20  2  0  0  0  0
 18 19  1  0  0  0  0
 20 21  1  0  0  0  0
 22 20  1  0  0  0  0
 24 25  1  0  0  0  0
 25 31  1  0  0  0  0
 25 26  2  0  0  0  0
 26 34  1  0  0  0  0
 27 26  1  0  0  0  0
 28 23  1  0  0  0  0
 28 27  2  0  0  0  0
 29 24  2  0  0  0  0
 29 28  1  0  0  0  0
 30 24  1  0  0  0  0
 32 33  1  0  0  0  0
 33 38  1  0  0  0  0
 34 33  2  0  0  0  0
 34 35  1  0  0  0  0
 35 36  2  0  0  0  0
 36 37  1  0  0  0  0
 36 40  1  0  0  0  0
 37 41  1  0  0  0  0
 38 42  1  0  0  0  0
 38 37  2  0  0  0  0
 39 35  1  0  0  0  0
M  END
>  <minimizedAffinity>
-5.90825653

$$$$

 OpenBabel03272509563D

 42 45  0  0  0  0  0  0  0  0999 V2000
   37.0540   21.7560   31.1820 C   0  0  0  0  0  0  0  0  0  0  0  0
   36.8650   21.1360   30.2690 H   0  0  0  0  0  0  0  0  0  0  0  0
   37.8470   22.4740   30.9170 H   0  0  0  0  0  0  0  0  0  0  0  0
   37.4270   20.8220   32.2890 C   0  0  0  0  0  0  0  0  0  0  0  0
   37.7370   19.8160   31.9560 H   0  0  0  0  0  0  0  0  0  0  0  0
   36.5000   20.6500   32.8990 H   0  0  0  0  0  0  0  0  0  0  0  0
   38.4110   21.4110   33.2230 C   0  0  0  0  0  0  0  0  0  0  0  0
   39.7500   21.4280   32.8550 C   0  0  0  0  0  0  0  0  0  0  0  0
   40.7420   21.9430   33.6320 C   0  0  0  0  0  0  0  0  0  0  0  0
   40.4070   22.4540   34.7990 N   0  0  0  0  0  0  0  0  0  0  0  0
   39.0970   22.4530   35.1930 C   0  0  0  0  0  0  0  0  0  0  0  0
   38.0990   21.9450   34.4320 N   0  0  0  0  0  0  0  0  0  0  0  0
   40.0200   20.9990   31.8770 H   0  0  0  0  0  0  0  0  0  0  0  0
   41.7860   21.9660   33.3650 H   0  0  0  0  0  0  0  0  0  0  0  0
   38.7760   23.0340   36.5030 C   0  0  0  0  0  0  0  0  0  0  0  0
   37.7680   23.9300   36.7840 C   0  0  0  0  0  0  0  0  0  0  0  0
   37.0460   24.3620   36.1090 H   0  0  0  0  0  0  0  0  0  0  0  0
   37.8210   24.2170   38.1490 C   0  0  0  0  0  0  0  0  0  0  0  0
   37.2250   24.8560   38.7670 H   0  0  0  0  0  0  0  0  0  0  0  0
   38.8720   23.4680   38.6300 C   0  0  0  0  0  0  0  0  0  0  0  0
   39.2080   23.4410   39.6680 H   0  0  0  0  0  0  0  0  0  0  0  0
   39.3950   22.7960   37.6330 O   0  0  0  0  0  0  0  0  0  0  0  0
   35.8350   22.4100   31.4840 O   0  0  0  0  0  0  0  0  0  0  0  0
   35.1620   25.8940   30.7820 C   0  0  0  0  0  0  0  0  0  0  0  0
   36.0300   26.5100   31.7390 C   0  0  0  0  0  0  0  0  0  0  0  0
   36.7720   25.6820   32.5450 C   0  0  0  0  0  0  0  0  0  0  0  0
   36.6140   24.3350   32.3590 N   0  0  0  0  0  0  0  0  0  0  0  0
   35.8090   23.7770   31.4710 C   0  0  0  0  0  0  0  0  0  0  0  0
   35.0700   24.5810   30.6670 N   0  0  0  0  0  0  0  0  0  0  0  0
   34.5890   26.5750   30.1600 H   0  0  0  0  0  0  0  0  0  0  0  0
   36.1390   27.5740   31.8690 H   0  0  0  0  0  0  0  0  0  0  0  0
   39.5700   25.0120   32.8120 F   0  0  0  0  0  0  0  0  0  0  0  0
   39.0120   25.8110   33.7050 C   0  0  0  0  0  0  0  0  0  0  0  0
   37.6960   26.1150   33.5640 C   0  0  0  0  0  0  0  0  0  0  0  0
   37.2120   26.9640   34.5610 C   0  0  0  0  0  0  0  0  0  0  0  0
   37.9870   27.4480   35.5870 C   0  0  0  0  0  0  0  0  0  0  0  0
   39.3170   27.1110   35.6870 C   0  0  0  0  0  0  0  0  0  0  0  0
   39.8240   26.2720   34.7150 C   0  0  0  0  0  0  0  0  0  0  0  0
   36.1780   27.3080   34.5980 H   0  0  0  0  0  0  0  0  0  0  0  0
   37.6080   28.1040   36.3540 H   0  0  0  0  0  0  0  0  0  0  0  0
   39.9410   27.4740   36.4760 H   0  0  0  0  0  0  0  0  0  0  0  0
   40.8660   25.9930   34.7740 H   0  0  0  0  0  0  0  0  0  0  0  0
  1 23  1  0  0  0  0
  1  4  1  0  0  0  0
  2  1  1  0  0  0  0
  3  1  1  0  0  0  0
  4  6  1  0  0  0  0
  4  7  1  0  0  0  0
  5  4  1  0  0  0  0
  7 12  1  0  0  0  0
  8  7  2  0  0  0  0
  8  9  1  0  0  0  0
  9 10  2  0  0  0  0
 10 11  1  0  0  0  0
 11 15  1  0  0  0  0
 12 11  2  0  0  0  0
 13  8  1  0  0  0  0
 14  9  1  0  0  0  0
 15 16  2  0  0  0  0
 15 22  1  0  0  0  0
 16 18  1  0  0  0  0
 17 16  1  0  0  0  0
 18 20  2  0  0  0  0
 18 19  1  0  0  0  0
 20 21  1  0  0  0  0
 22 20  1  0  0  0  0
 24 25  1  0  0  0  0
 25 31  1  0  0  0  0
 25 26  2  0  0  0  0
 26 34  1  0  0  0  0
 27 26  1  0  0  0  0
 28 23  1  0  0  0  0
 28 27  2  0  0  0  0
 29 24  2  0  0  0  0
 29 28  1  0  0  0  0
 30 24  1  0  0  0  0
 32 33  1  0  0  0  0
 33 38  1  0  0  0  0
 34 33  2  0  0  0  0
 34 35  1  0  0  0  0
 35 39  1  0  0  0  0
 35 36  2  0  0  0  0
 36 37  1  0  0  0  0
 36 40  1  0  0  0  0
 37 41  1  0  0  0  0
 38 42  1  0  0  0  0
 38 37  2  0  0  0  0
M  END
>  <minimizedAffinity>
-5.88089085

$$$$
