REMARK  Name = 
REMARK  4 active torsions:
REMARK  status: ('A' for Active; 'I' for Inactive)
REMARK    1  A    between atoms: C_2  and  C_12
REMARK    2  A    between atoms: C_6  and  O_16
REMARK    3  A    between atoms: O_16  and  C_18
REMARK    4  A    between atoms: C_22  and  C_37
REMARK                            x       y       z     vdW  Elec       q    Type
REMARK                         _______ _______ _______ _____ _____    ______ ____
ROOT
ATOM      1  C   UNL     1      36.241  30.182  46.856  0.00  0.00    +0.000 A 
ATOM      2  C   UNL     1      37.076  30.730  47.799  0.00  0.00    +0.000 A 
ATOM      3  C   UNL     1      38.075  31.650  47.437  0.00  0.00    +0.000 A 
ATOM      4  C   UNL     1      38.162  31.966  46.080  0.00  0.00    +0.000 A 
ATOM      5  N   UNL     1      39.033  32.825  45.473  0.00  0.00    +0.000 N 
ATOM      6  C   UNL     1      38.738  32.808  44.167  0.00  0.00    +0.000 A 
ATOM      7  N   UNL     1      37.733  31.981  43.954  0.00  0.00    +0.000 NA
ATOM      8  C   UNL     1      37.342  31.434  45.117  0.00  0.00    +0.000 A 
ATOM      9  C   UNL     1      36.361  30.521  45.524  0.00  0.00    +0.000 A 
ATOM     10  H   UNL     1      35.473  29.472  47.145  0.00  0.00    +0.000 HD
ATOM     11  H   UNL     1      38.751  32.102  48.157  0.00  0.00    +0.000 HD
ATOM     12  H   UNL     1      39.770  33.373  45.952  0.00  0.00    +0.000 HD
ATOM     13  H   UNL     1      35.715  30.102  44.765  0.00  0.00    +0.000 HD
ENDROOT
BRANCH   2  16
ATOM     14  C   UNL     1      37.477  30.169  51.501  0.00  0.00    +0.000 A 
ATOM     15  C   UNL     1      37.803  30.602  50.215  0.00  0.00    +0.000 A 
ATOM     16  C   UNL     1      36.924  30.361  49.194  0.00  0.00    +0.000 A 
ATOM     17  N   UNL     1      35.759  29.695  49.516  0.00  0.00    +0.000 NA
ATOM     18  C   UNL     1      35.452  29.281  50.757  0.00  0.00    +0.000 A 
ATOM     19  N   UNL     1      36.307  29.519  51.733  0.00  0.00    +0.000 NA
ATOM     20  H   UNL     1      38.185  30.369  52.293  0.00  0.00    +0.000 HD
ATOM     21  H   UNL     1      38.706  31.121  49.949  0.00  0.00    +0.000 HD
ATOM     22  H   UNL     1      34.517  28.765  50.929  0.00  0.00    +0.000 HD
ENDBRANCH   2  16
BRANCH   6  23
ATOM     23  O   UNL     1      39.434  33.579  43.234  0.00  0.00    +0.000 OA
BRANCH  23  25
ATOM     24  N   UNL     1      39.571  31.849  41.718  0.00  0.00    +0.000 NA
ATOM     25  C   UNL     1      39.201  33.240  41.871  0.00  0.00    +0.000 C 
ATOM     26  C   UNL     1      37.806  33.447  41.518  0.00  0.00    +0.000 C 
ATOM     27  O   UNL     1      37.633  33.134  40.159  0.00  0.00    +0.000 OA
ATOM     28  C   UNL     1      38.056  31.889  39.789  0.00  0.00    +0.000 C 
ATOM     29  C   UNL     1      39.441  31.574  40.298  0.00  0.00    +0.000 C 
ATOM     30  H   UNL     1      39.023  31.146  42.179  0.00  0.00    +0.000 HD
ATOM     31  H   UNL     1      39.867  33.806  41.198  0.00  0.00    +0.000 HD
ATOM     32  H   UNL     1      37.605  34.561  41.555  0.00  0.00    +0.000 HD
ATOM     33  H   UNL     1      36.979  32.979  41.981  0.00  0.00    +0.000 HD
ATOM     34  H   UNL     1      38.069  31.843  38.700  0.00  0.00    +0.000 HD
ATOM     35  H   UNL     1      37.355  31.127  40.225  0.00  0.00    +0.000 HD
ATOM     36  H   UNL     1      39.635  30.499  40.068  0.00  0.00    +0.000 HD
BRANCH  29  37
ATOM     37  C   UNL     1      40.400  32.461  39.589  0.00  0.00    +0.000 A 
ATOM     38  C   UNL     1      40.474  33.806  39.968  0.00  0.00    +0.000 A 
ATOM     39  H   UNL     1      39.926  34.346  40.729  0.00  0.00    +0.000 HD
ATOM     40  C   UNL     1      41.426  34.426  39.174  0.00  0.00    +0.000 A 
ATOM     41  H   UNL     1      41.714  35.467  39.225  0.00  0.00    +0.000 HD
ATOM     42  C   UNL     1      41.882  33.416  38.350  0.00  0.00    +0.000 A 
ATOM     43  H   UNL     1      42.646  33.587  37.603  0.00  0.00    +0.000 HD
ATOM     44  O   UNL     1      41.263  32.277  38.615  0.00  0.00    +0.000 OA
ENDBRANCH  29  37
ENDBRANCH  23  25
ENDBRANCH   6  23
TORSDOF 4
