
 OpenBabel03272507393D

 33 35  0  0  0  0  0  0  0  0999 V2000
   38.2660   32.2890   47.3890 C   0  0  0  0  0  0  0  0  0  0  0  0
   37.9050   32.7340   48.6540 C   0  0  0  0  0  0  0  0  0  0  0  0
   38.6660   33.6900   49.3090 C   0  0  0  0  0  0  0  0  0  0  0  0
   39.8020   34.2030   48.6810 C   0  0  0  0  0  0  0  0  0  0  0  0
   40.1570   33.7550   47.4220 C   0  0  0  0  0  0  0  0  0  0  0  0
   39.3740   32.8060   46.8110 C   0  0  0  0  0  0  0  0  0  0  0  0
   38.4540   34.0810   50.2760 H   0  0  0  0  0  0  0  0  0  0  0  0
   40.4100   34.9540   49.1820 H   0  0  0  0  0  0  0  0  0  0  0  0
   41.0460   34.1700   46.9560 H   0  0  0  0  0  0  0  0  0  0  0  0
   39.7670   32.3350   45.4610 C   0  0  0  0  0  0  0  0  0  0  0  0
   40.6200   31.3280   45.0980 C   0  0  0  0  0  0  0  0  0  0  0  0
   41.1160   30.7490   45.8460 H   0  0  0  0  0  0  0  0  0  0  0  0
   40.6490   31.2870   43.7060 C   0  0  0  0  0  0  0  0  0  0  0  0
   41.2430   30.5840   43.1490 H   0  0  0  0  0  0  0  0  0  0  0  0
   39.7940   32.2910   43.3040 C   0  0  0  0  0  0  0  0  0  0  0  0
   39.5860   32.5290   42.2500 H   0  0  0  0  0  0  0  0  0  0  0  0
   39.2780   32.9040   44.3590 O   0  0  0  0  0  0  0  0  0  0  0  0
   36.7520   30.5250   46.2960 N   0  0  0  0  0  0  0  0  0  0  0  0
   37.4250   31.3050   46.7940 C   0  0  0  0  0  0  0  0  0  0  0  0
   36.8110   32.3170   49.3940 O   0  0  0  0  0  0  0  0  0  0  0  0
   36.7880   31.2020   50.1700 C   0  0  0  0  0  0  0  0  0  0  0  0
   35.6350   30.4390   49.9550 C   0  0  0  0  0  0  0  0  0  0  0  0
   35.4250   29.2650   50.6520 C   0  0  0  0  0  0  0  0  0  0  0  0
   36.3890   28.8880   51.5510 N   0  0  0  0  0  0  0  0  0  0  0  0
   37.5050   29.6430   51.7460 C   0  0  0  0  0  0  0  0  0  0  0  0
   37.6830   30.7630   51.0680 N   0  0  0  0  0  0  0  0  0  0  0  0
   34.5620   28.6220   50.5440 H   0  0  0  0  0  0  0  0  0  0  0  0
   38.1850   29.2410   52.4740 H   0  0  0  0  0  0  0  0  0  0  0  0
   34.1520   29.7100   48.1540 C   0  0  0  0  0  0  0  0  0  0  0  0
   34.5470   28.5090   47.8630 O   0  0  0  0  0  0  0  0  0  0  0  0
   34.6130   30.7260   49.0450 N   0  0  0  0  0  0  0  0  0  0  0  0
   33.5200   29.2490   47.4060 H   0  0  0  0  0  0  0  0  0  0  0  0
   33.9630   31.4190   48.6640 H   0  0  0  0  0  0  0  0  0  0  0  0
  1  2  1  0  0  0  0
  2  3  2  0  0  0  0
  2 20  1  0  0  0  0
  3  7  1  0  0  0  0
  4  8  1  0  0  0  0
  4  3  1  0  0  0  0
  5  4  2  0  0  0  0
  6  1  2  0  0  0  0
  6  5  1  0  0  0  0
  9  5  1  0  0  0  0
 10  6  1  0  0  0  0
 11 10  2  0  0  0  0
 11 12  1  0  0  0  0
 13 11  1  0  0  0  0
 14 13  1  0  0  0  0
 15 13  2  0  0  0  0
 15 17  1  0  0  0  0
 16 15  1  0  0  0  0
 17 10  1  0  0  0  0
 18 19  3  0  0  0  0
 19  1  1  0  0  0  0
 20 21  1  0  0  0  0
 21 26  1  0  0  0  0
 22 21  2  0  0  0  0
 22 23  1  0  0  0  0
 23 24  2  0  0  0  0
 24 25  1  0  0  0  0
 25 28  1  0  0  0  0
 26 25  2  0  0  0  0
 27 23  1  0  0  0  0
 29 31  1  0  0  0  0
 30 29  2  0  0  0  0
 31 22  1  0  0  0  0
 32 29  1  0  0  0  0
 33 31  1  0  0  0  0
M  END
>  <minimizedAffinity>
-5.69011784

>  <minimizedRMSD>
1.23650479

$$$$
