
 OpenBabel03272509023D

 40 43  0  0  0  0  0  0  0  0999 V2000
   34.7450   30.2430   48.7440 C   0  0  0  0  0  0  0  0  0  0  0  0
   34.0320   31.0660   48.8490 H   0  0  0  0  0  0  0  0  0  0  0  0
   34.2010   29.3370   49.1350 H   0  0  0  0  0  0  0  0  0  0  0  0
   37.2190   31.7030   47.8300 Cl  0  0  0  0  0  0  0  0  0  0  0  0
   36.2640   30.6350   46.8740 C   0  0  0  0  0  0  0  0  0  0  0  0
   36.6330   30.3940   45.5550 C   0  0  0  0  0  0  0  0  0  0  0  0
   35.9040   29.5550   44.7480 C   0  0  0  0  0  0  0  0  0  0  0  0
   34.7800   28.9260   45.2300 C   0  0  0  0  0  0  0  0  0  0  0  0
   34.3840   29.1400   46.5370 C   0  0  0  0  0  0  0  0  0  0  0  0
   32.9690   28.4060   47.2750 Cl  0  0  0  0  0  0  0  0  0  0  0  0
   35.1550   30.0010   47.3160 C   0  0  0  0  0  0  0  0  0  0  0  0
   36.2010   29.3830   43.7410 H   0  0  0  0  0  0  0  0  0  0  0  0
   34.1840   28.2680   44.6440 H   0  0  0  0  0  0  0  0  0  0  0  0
   38.8720   32.8410   43.9960 C   0  0  0  0  0  0  0  0  0  0  0  0
   40.1260   32.2230   44.0690 C   0  0  0  0  0  0  0  0  0  0  0  0
   40.1830   30.9350   44.6710 C   0  0  0  0  0  0  0  0  0  0  0  0
   39.0230   30.4040   45.1260 N   0  0  0  0  0  0  0  0  0  0  0  0
   37.8190   31.0480   45.0310 C   0  0  0  0  0  0  0  0  0  0  0  0
   37.7680   32.2520   44.4700 N   0  0  0  0  0  0  0  0  0  0  0  0
   38.7810   33.8210   43.5480 H   0  0  0  0  0  0  0  0  0  0  0  0
   41.0150   32.6950   43.6890 H   0  0  0  0  0  0  0  0  0  0  0  0
   41.1110   30.4150   44.7540 H   0  0  0  0  0  0  0  0  0  0  0  0
   36.0470   27.9570   49.7390 F   0  0  0  0  0  0  0  0  0  0  0  0
   36.5470   29.1980   50.0680 C   0  0  0  0  0  0  0  0  0  0  0  0
   35.9310   30.3740   49.6150 C   0  0  0  0  0  0  0  0  0  0  0  0
   36.4670   31.5800   50.0020 C   0  0  0  0  0  0  0  0  0  0  0  0
   37.5870   31.6380   50.8120 C   0  0  0  0  0  0  0  0  0  0  0  0
   38.1820   30.4590   51.2480 C   0  0  0  0  0  0  0  0  0  0  0  0
   37.6610   29.2100   50.8770 C   0  0  0  0  0  0  0  0  0  0  0  0
   36.0310   32.5410   49.7770 H   0  0  0  0  0  0  0  0  0  0  0  0
   38.0390   32.5530   51.1350 H   0  0  0  0  0  0  0  0  0  0  0  0
   39.0580   30.5110   51.8830 H   0  0  0  0  0  0  0  0  0  0  0  0
   38.3340   28.0210   51.3720 C   0  0  0  0  0  0  0  0  0  0  0  0
   38.8960   26.9600   50.6980 C   0  0  0  0  0  0  0  0  0  0  0  0
   38.9320   26.8240   49.6290 H   0  0  0  0  0  0  0  0  0  0  0  0
   39.4340   26.0410   51.5740 C   0  0  0  0  0  0  0  0  0  0  0  0
   39.9440   25.1040   51.4050 H   0  0  0  0  0  0  0  0  0  0  0  0
   39.1590   26.6190   52.7960 C   0  0  0  0  0  0  0  0  0  0  0  0
   39.4050   26.2390   53.7910 H   0  0  0  0  0  0  0  0  0  0  0  0
   38.5360   27.7400   52.6340 O   0  0  0  0  0  0  0  0  0  0  0  0
  1  2  1  0  0  0  0
  1  3  1  0  0  0  0
  1 25  1  0  0  0  0
  5 11  1  0  0  0  0
  5  4  1  0  0  0  0
  6  5  2  0  0  0  0
  7  8  2  0  0  0  0
  7  6  1  0  0  0  0
  8  9  1  0  0  0  0
  9 10  1  0  0  0  0
  9 11  2  0  0  0  0
 11  1  1  0  0  0  0
 12  7  1  0  0  0  0
 13  8  1  0  0  0  0
 14 15  2  0  0  0  0
 14 19  1  0  0  0  0
 15 16  1  0  0  0  0
 16 22  1  0  0  0  0
 16 17  2  0  0  0  0
 18 17  1  0  0  0  0
 18  6  1  0  0  0  0
 19 18  2  0  0  0  0
 20 14  1  0  0  0  0
 21 15  1  0  0  0  0
 23 24  1  0  0  0  0
 24 29  1  0  0  0  0
 25 26  1  0  0  0  0
 25 24  2  0  0  0  0
 26 27  2  0  0  0  0
 27 31  1  0  0  0  0
 27 28  1  0  0  0  0
 28 32  1  0  0  0  0
 29 28  2  0  0  0  0
 29 33  1  0  0  0  0
 30 26  1  0  0  0  0
 33 40  1  0  0  0  0
 34 33  2  0  0  0  0
 34 36  1  0  0  0  0
 35 34  1  0  0  0  0
 36 38  2  0  0  0  0
 37 36  1  0  0  0  0
 38 39  1  0  0  0  0
 40 38  1  0  0  0  0
M  END
>  <minimizedAffinity>
-2.53941035

>  <minimizedRMSD>
1.26153028

$$$$
