
 OpenBabel03272510013D

 20 21  0  0  0  0  0  0  0  0999 V2000
   38.3130   31.2790   50.1920 C   0  0  0  0  0  0  0  0  0  0  0  0
   38.4060   31.5400   48.8040 C   0  0  0  0  0  0  0  0  0  0  0  0
   37.3970   31.0560   47.9830 C   0  0  0  0  0  0  0  0  0  0  0  0
   36.3720   30.3590   48.5440 N   0  0  0  0  0  0  0  0  0  0  0  0
   36.3210   30.1330   49.8730 C   0  0  0  0  0  0  0  0  0  0  0  0
   37.2800   30.5870   50.6910 N   0  0  0  0  0  0  0  0  0  0  0  0
   39.0820   31.6420   50.8600 H   0  0  0  0  0  0  0  0  0  0  0  0
   39.2410   32.1010   48.4000 H   0  0  0  0  0  0  0  0  0  0  0  0
   37.4400   31.2940   46.5450 C   0  0  0  0  0  0  0  0  0  0  0  0
   38.2320   32.2390   45.9270 C   0  0  0  0  0  0  0  0  0  0  0  0
   38.9250   32.9310   46.4050 H   0  0  0  0  0  0  0  0  0  0  0  0
   37.9040   32.0610   44.5790 C   0  0  0  0  0  0  0  0  0  0  0  0
   38.3560   32.6590   43.7800 H   0  0  0  0  0  0  0  0  0  0  0  0
   36.9680   31.0560   44.4580 C   0  0  0  0  0  0  0  0  0  0  0  0
   36.5300   30.7030   43.5120 H   0  0  0  0  0  0  0  0  0  0  0  0
   36.7160   30.6200   45.6840 O   0  0  0  0  0  0  0  0  0  0  0  0
   35.1620   29.3670   50.3910 C   0  0  0  0  0  0  0  0  0  0  0  0
   35.2430   29.1120   51.7500 F   0  0  0  0  0  0  0  0  0  0  0  0
   33.9670   30.0850   50.2120 F   0  0  0  0  0  0  0  0  0  0  0  0
   34.9670   28.1750   49.7630 F   0  0  0  0  0  0  0  0  0  0  0  0
  1  6  1  0  0  0  0
  1  7  1  0  0  0  0
  2  1  2  0  0  0  0
  3  4  2  0  0  0  0
  3  2  1  0  0  0  0
  4  5  1  0  0  0  0
  5 17  1  0  0  0  0
  5  6  2  0  0  0  0
  8  2  1  0  0  0  0
  9  3  1  0  0  0  0
 10 11  1  0  0  0  0
 10  9  2  0  0  0  0
 12 10  1  0  0  0  0
 13 12  1  0  0  0  0
 14 12  2  0  0  0  0
 14 16  1  0  0  0  0
 15 14  1  0  0  0  0
 16  9  1  0  0  0  0
 17 18  1  0  0  0  0
 19 17  1  0  0  0  0
 20 17  1  0  0  0  0
M  END
>  <minimizedAffinity>
-5.14066935

>  <minimizedRMSD>
0.386297435

$$$$
