
 OpenBabel03272500163D

 30 32  0  0  0  0  0  0  0  0999 V2000
   36.0510   28.5930   34.4940 Cl  0  0  0  0  0  0  0  0  0  0  0  0
   36.9340   28.1240   33.0680 C   0  0  0  0  0  0  0  0  0  0  0  0
   37.7630   26.9970   33.1050 C   0  0  0  0  0  0  0  0  0  0  0  0
   38.4850   26.5840   31.9880 C   0  0  0  0  0  0  0  0  0  0  0  0
   38.3440   27.3450   30.8300 C   0  0  0  0  0  0  0  0  0  0  0  0
   37.5390   28.4530   30.7710 C   0  0  0  0  0  0  0  0  0  0  0  0
   37.4410   29.3180   29.2580 Cl  0  0  0  0  0  0  0  0  0  0  0  0
   36.8180   28.8500   31.9160 C   0  0  0  0  0  0  0  0  0  0  0  0
   39.1250   25.7330   31.9790 H   0  0  0  0  0  0  0  0  0  0  0  0
   38.8950   27.0440   29.9510 H   0  0  0  0  0  0  0  0  0  0  0  0
   38.1940   26.0840   36.6460 C   0  0  0  0  0  0  0  0  0  0  0  0
   38.1510   24.6800   36.5770 C   0  0  0  0  0  0  0  0  0  0  0  0
   37.9770   24.0670   35.3350 C   0  0  0  0  0  0  0  0  0  0  0  0
   37.8560   24.8770   34.2440 N   0  0  0  0  0  0  0  0  0  0  0  0
   37.8990   26.2170   34.3180 C   0  0  0  0  0  0  0  0  0  0  0  0
   38.0650   26.8130   35.5070 N   0  0  0  0  0  0  0  0  0  0  0  0
   38.3300   26.5370   37.6220 H   0  0  0  0  0  0  0  0  0  0  0  0
   37.9450   22.9980   35.2840 H   0  0  0  0  0  0  0  0  0  0  0  0
   38.2970   23.9100   37.8520 C   0  0  0  0  0  0  0  0  0  0  0  0
   39.5600   23.3130   37.9140 F   0  0  0  0  0  0  0  0  0  0  0  0
   38.1980   24.7830   38.9070 F   0  0  0  0  0  0  0  0  0  0  0  0
   37.3330   22.9320   38.0000 F   0  0  0  0  0  0  0  0  0  0  0  0
   35.9960   30.0410   31.7310 C   0  0  0  0  0  0  0  0  0  0  0  0
   36.2650   31.3700   31.9390 C   0  0  0  0  0  0  0  0  0  0  0  0
   37.1710   31.8200   32.2940 H   0  0  0  0  0  0  0  0  0  0  0  0
   35.1950   32.1780   31.6350 C   0  0  0  0  0  0  0  0  0  0  0  0
   35.0710   33.2490   31.6830 H   0  0  0  0  0  0  0  0  0  0  0  0
   34.2590   31.2540   31.2290 C   0  0  0  0  0  0  0  0  0  0  0  0
   33.2410   31.4020   30.8860 H   0  0  0  0  0  0  0  0  0  0  0  0
   34.7760   30.0690   31.3080 O   0  0  0  0  0  0  0  0  0  0  0  0
  2  3  1  0  0  0  0
  2  1  1  0  0  0  0
  3 15  1  0  0  0  0
  4  3  2  0  0  0  0
  5  4  1  0  0  0  0
  6  5  2  0  0  0  0
  6  8  1  0  0  0  0
  7  6  1  0  0  0  0
  8  2  2  0  0  0  0
  9  4  1  0  0  0  0
 10  5  1  0  0  0  0
 11 17  1  0  0  0  0
 12 11  1  0  0  0  0
 12 19  1  0  0  0  0
 13 12  2  0  0  0  0
 14 15  2  0  0  0  0
 14 13  1  0  0  0  0
 15 16  1  0  0  0  0
 16 11  2  0  0  0  0
 18 13  1  0  0  0  0
 19 20  1  0  0  0  0
 19 22  1  0  0  0  0
 19 21  1  0  0  0  0
 23  8  1  0  0  0  0
 23 24  2  0  0  0  0
 24 25  1  0  0  0  0
 26 27  1  0  0  0  0
 26 24  1  0  0  0  0
 28 30  1  0  0  0  0
 28 26  2  0  0  0  0
 29 28  1  0  0  0  0
 30 23  1  0  0  0  0
M  END
>  <minimizedAffinity>
-5.6364789

$$$$

 OpenBabel03272500163D

 30 32  0  0  0  0  0  0  0  0999 V2000
   38.6260   26.3580   33.7420 Cl  0  0  0  0  0  0  0  0  0  0  0  0
   37.5600   25.2490   32.9260 C   0  0  0  0  0  0  0  0  0  0  0  0
   37.6790   23.8750   33.1590 C   0  0  0  0  0  0  0  0  0  0  0  0
   36.8450   22.9510   32.5320 C   0  0  0  0  0  0  0  0  0  0  0  0
   35.8860   23.4600   31.6600 C   0  0  0  0  0  0  0  0  0  0  0  0
   35.7510   24.8030   31.4160 C   0  0  0  0  0  0  0  0  0  0  0  0
   34.5040   25.3150   30.3070 Cl  0  0  0  0  0  0  0  0  0  0  0  0
   36.6070   25.7170   32.0640 C   0  0  0  0  0  0  0  0  0  0  0  0
   36.9070   21.8990   32.6840 H   0  0  0  0  0  0  0  0  0  0  0  0
   35.2290   22.7630   31.1620 H   0  0  0  0  0  0  0  0  0  0  0  0
   40.8380   22.5140   34.4770 C   0  0  0  0  0  0  0  0  0  0  0  0
   40.5380   22.3970   35.8460 C   0  0  0  0  0  0  0  0  0  0  0  0
   39.2750   22.7800   36.2990 C   0  0  0  0  0  0  0  0  0  0  0  0
   38.3900   23.2530   35.3760 N   0  0  0  0  0  0  0  0  0  0  0  0
   38.6830   23.3620   34.0700 C   0  0  0  0  0  0  0  0  0  0  0  0
   39.8940   22.9970   33.6260 N   0  0  0  0  0  0  0  0  0  0  0  0
   41.8250   22.2100   34.1480 H   0  0  0  0  0  0  0  0  0  0  0  0
   39.0490   22.6900   37.3430 H   0  0  0  0  0  0  0  0  0  0  0  0
   41.6010   21.8610   36.7520 C   0  0  0  0  0  0  0  0  0  0  0  0
   42.5850   22.8300   36.9700 F   0  0  0  0  0  0  0  0  0  0  0  0
   41.0350   21.5640   37.9680 F   0  0  0  0  0  0  0  0  0  0  0  0
   42.2010   20.7190   36.2590 F   0  0  0  0  0  0  0  0  0  0  0  0
   36.3690   27.1150   31.7260 C   0  0  0  0  0  0  0  0  0  0  0  0
   36.9000   27.9140   30.7460 C   0  0  0  0  0  0  0  0  0  0  0  0
   37.6290   27.6630   30.0010 H   0  0  0  0  0  0  0  0  0  0  0  0
   36.3940   29.1920   30.7770 C   0  0  0  0  0  0  0  0  0  0  0  0
   36.5920   30.0560   30.1610 H   0  0  0  0  0  0  0  0  0  0  0  0
   35.5200   29.1170   31.8370 C   0  0  0  0  0  0  0  0  0  0  0  0
   34.8730   29.8780   32.2590 H   0  0  0  0  0  0  0  0  0  0  0  0
   35.5560   27.9180   32.3270 O   0  0  0  0  0  0  0  0  0  0  0  0
  2  3  1  0  0  0  0
  2  1  1  0  0  0  0
  3 15  1  0  0  0  0
  4  9  1  0  0  0  0
  4  3  2  0  0  0  0
  5  4  1  0  0  0  0
  6  5  2  0  0  0  0
  6  8  1  0  0  0  0
  7  6  1  0  0  0  0
  8  2  2  0  0  0  0
 10  5  1  0  0  0  0
 11 12  1  0  0  0  0
 12 13  2  0  0  0  0
 12 19  1  0  0  0  0
 13 18  1  0  0  0  0
 14 13  1  0  0  0  0
 15 14  2  0  0  0  0
 16 15  1  0  0  0  0
 16 11  2  0  0  0  0
 17 11  1  0  0  0  0
 19 20  1  0  0  0  0
 19 21  1  0  0  0  0
 22 19  1  0  0  0  0
 23  8  1  0  0  0  0
 23 30  1  0  0  0  0
 24 26  1  0  0  0  0
 24 23  2  0  0  0  0
 25 24  1  0  0  0  0
 26 28  2  0  0  0  0
 27 26  1  0  0  0  0
 28 29  1  0  0  0  0
 28 30  1  0  0  0  0
M  END
>  <minimizedAffinity>
-5.37949514

$$$$

 OpenBabel03272500163D

 30 32  0  0  0  0  0  0  0  0999 V2000
   40.5580   26.1660   32.7200 Cl  0  0  0  0  0  0  0  0  0  0  0  0
   39.0190   26.7980   32.2060 C   0  0  0  0  0  0  0  0  0  0  0  0
   37.8980   26.6490   33.0300 C   0  0  0  0  0  0  0  0  0  0  0  0
   36.6480   27.1420   32.6610 C   0  0  0  0  0  0  0  0  0  0  0  0
   36.5660   27.7910   31.4310 C   0  0  0  0  0  0  0  0  0  0  0  0
   37.6510   27.9480   30.6070 C   0  0  0  0  0  0  0  0  0  0  0  0
   37.4190   28.7870   29.0940 Cl  0  0  0  0  0  0  0  0  0  0  0  0
   38.9050   27.4400   31.0050 C   0  0  0  0  0  0  0  0  0  0  0  0
   35.7740   27.0460   33.2610 H   0  0  0  0  0  0  0  0  0  0  0  0
   35.6070   28.1800   31.1240 H   0  0  0  0  0  0  0  0  0  0  0  0
   38.1490   26.0290   36.6510 C   0  0  0  0  0  0  0  0  0  0  0  0
   38.2000   24.6240   36.6880 C   0  0  0  0  0  0  0  0  0  0  0  0
   38.1490   23.9120   35.4890 C   0  0  0  0  0  0  0  0  0  0  0  0
   38.0500   24.6290   34.3330 N   0  0  0  0  0  0  0  0  0  0  0  0
   38.0020   25.9700   34.3060 C   0  0  0  0  0  0  0  0  0  0  0  0
   38.0500   26.6620   35.4530 N   0  0  0  0  0  0  0  0  0  0  0  0
   38.1910   26.5600   37.5950 H   0  0  0  0  0  0  0  0  0  0  0  0
   38.1880   22.8410   35.5190 H   0  0  0  0  0  0  0  0  0  0  0  0
   38.3100   23.9620   38.0250 C   0  0  0  0  0  0  0  0  0  0  0  0
   38.1020   24.8950   39.0460 F   0  0  0  0  0  0  0  0  0  0  0  0
   37.3250   23.0090   38.1270 F   0  0  0  0  0  0  0  0  0  0  0  0
   39.5320   23.3500   38.2220 F   0  0  0  0  0  0  0  0  0  0  0  0
   39.9810   27.6680   30.0470 C   0  0  0  0  0  0  0  0  0  0  0  0
   40.9330   28.6520   29.9700 C   0  0  0  0  0  0  0  0  0  0  0  0
   41.0850   29.4870   30.6250 H   0  0  0  0  0  0  0  0  0  0  0  0
   41.7710   28.4910   28.8910 C   0  0  0  0  0  0  0  0  0  0  0  0
   42.6100   29.0740   28.5430 H   0  0  0  0  0  0  0  0  0  0  0  0
   41.2660   27.3460   28.3190 C   0  0  0  0  0  0  0  0  0  0  0  0
   41.5920   26.8100   27.4350 H   0  0  0  0  0  0  0  0  0  0  0  0
   40.2580   26.9350   29.0210 O   0  0  0  0  0  0  0  0  0  0  0  0
  2  1  1  0  0  0  0
  2  3  1  0  0  0  0
  3 15  1  0  0  0  0
  4  3  2  0  0  0  0
  4  9  1  0  0  0  0
  5  4  1  0  0  0  0
  6  8  1  0  0  0  0
  6  5  2  0  0  0  0
  7  6  1  0  0  0  0
  8  2  2  0  0  0  0
 10  5  1  0  0  0  0
 11 12  1  0  0  0  0
 11 17  1  0  0  0  0
 12 19  1  0  0  0  0
 13 18  1  0  0  0  0
 13 12  2  0  0  0  0
 14 13  1  0  0  0  0
 15 14  2  0  0  0  0
 15 16  1  0  0  0  0
 16 11  2  0  0  0  0
 19 21  1  0  0  0  0
 19 22  1  0  0  0  0
 19 20  1  0  0  0  0
 23  8  1  0  0  0  0
 24 23  2  0  0  0  0
 24 25  1  0  0  0  0
 26 24  1  0  0  0  0
 27 26  1  0  0  0  0
 28 26  2  0  0  0  0
 28 30  1  0  0  0  0
 29 28  1  0  0  0  0
 30 23  1  0  0  0  0
M  END
>  <minimizedAffinity>
-5.24603701

$$$$

 OpenBabel03272500163D

 30 32  0  0  0  0  0  0  0  0999 V2000
   36.8180   27.6940   34.3200 Cl  0  0  0  0  0  0  0  0  0  0  0  0
   36.6690   28.5220   32.7950 C   0  0  0  0  0  0  0  0  0  0  0  0
   35.7880   29.6030   32.6770 C   0  0  0  0  0  0  0  0  0  0  0  0
   35.6390   30.2970   31.4780 C   0  0  0  0  0  0  0  0  0  0  0  0
   36.4090   29.8650   30.4010 C   0  0  0  0  0  0  0  0  0  0  0  0
   37.2780   28.8090   30.4940 C   0  0  0  0  0  0  0  0  0  0  0  0
   38.1930   28.3690   29.0730 Cl  0  0  0  0  0  0  0  0  0  0  0  0
   37.4110   28.1230   31.7190 C   0  0  0  0  0  0  0  0  0  0  0  0
   34.9790   31.1220   31.3500 H   0  0  0  0  0  0  0  0  0  0  0  0
   36.3100   30.3880   29.4620 H   0  0  0  0  0  0  0  0  0  0  0  0
   34.6960   31.4070   35.6960 C   0  0  0  0  0  0  0  0  0  0  0  0
   33.4420   30.8170   35.9320 C   0  0  0  0  0  0  0  0  0  0  0  0
   32.9870   29.8200   35.0670 C   0  0  0  0  0  0  0  0  0  0  0  0
   33.7970   29.4710   34.0260 N   0  0  0  0  0  0  0  0  0  0  0  0
   34.9940   30.0390   33.8080 C   0  0  0  0  0  0  0  0  0  0  0  0
   35.4370   30.9970   34.6340 N   0  0  0  0  0  0  0  0  0  0  0  0
   35.0280   32.1780   36.3820 H   0  0  0  0  0  0  0  0  0  0  0  0
   32.0320   29.3710   35.2490 H   0  0  0  0  0  0  0  0  0  0  0  0
   32.6540   31.2930   37.1120 C   0  0  0  0  0  0  0  0  0  0  0  0
   32.4010   30.2310   37.9850 F   0  0  0  0  0  0  0  0  0  0  0  0
   33.4000   32.2230   37.7930 F   0  0  0  0  0  0  0  0  0  0  0  0
   31.4520   31.8730   36.7540 F   0  0  0  0  0  0  0  0  0  0  0  0
   38.3640   27.0190   31.6950 C   0  0  0  0  0  0  0  0  0  0  0  0
   39.6910   26.9600   32.0330 C   0  0  0  0  0  0  0  0  0  0  0  0
   40.3230   27.7450   32.3980 H   0  0  0  0  0  0  0  0  0  0  0  0
   40.2240   25.7040   31.8590 C   0  0  0  0  0  0  0  0  0  0  0  0
   41.2180   25.3180   32.0260 H   0  0  0  0  0  0  0  0  0  0  0  0
   39.1340   25.0040   31.3930 C   0  0  0  0  0  0  0  0  0  0  0  0
   39.0480   23.9620   31.1090 H   0  0  0  0  0  0  0  0  0  0  0  0
   38.1190   25.8070   31.3250 O   0  0  0  0  0  0  0  0  0  0  0  0
  2  1  1  0  0  0  0
  3  2  1  0  0  0  0
  3 15  1  0  0  0  0
  4  3  2  0  0  0  0
  5  6  2  0  0  0  0
  5  4  1  0  0  0  0
  6  8  1  0  0  0  0
  7  6  1  0  0  0  0
  8  2  2  0  0  0  0
  9  4  1  0  0  0  0
 10  5  1  0  0  0  0
 11 12  1  0  0  0  0
 11 17  1  0  0  0  0
 12 19  1  0  0  0  0
 13 18  1  0  0  0  0
 13 12  2  0  0  0  0
 14 13  1  0  0  0  0
 15 14  2  0  0  0  0
 15 16  1  0  0  0  0
 16 11  2  0  0  0  0
 19 21  1  0  0  0  0
 19 20  1  0  0  0  0
 22 19  1  0  0  0  0
 23  8  1  0  0  0  0
 23 24  2  0  0  0  0
 24 25  1  0  0  0  0
 26 27  1  0  0  0  0
 26 24  1  0  0  0  0
 28 26  2  0  0  0  0
 29 28  1  0  0  0  0
 30 28  1  0  0  0  0
 30 23  1  0  0  0  0
M  END
>  <minimizedAffinity>
-5.20894051

$$$$

 OpenBabel03272500163D

 30 32  0  0  0  0  0  0  0  0999 V2000
   36.9240   27.1540   34.9040 Cl  0  0  0  0  0  0  0  0  0  0  0  0
   37.5040   26.9980   33.2700 C   0  0  0  0  0  0  0  0  0  0  0  0
   38.4900   26.0510   32.9720 C   0  0  0  0  0  0  0  0  0  0  0  0
   38.9810   25.8890   31.6780 C   0  0  0  0  0  0  0  0  0  0  0  0
   38.4440   26.7140   30.6940 C   0  0  0  0  0  0  0  0  0  0  0  0
   37.4780   27.6490   30.9620 C   0  0  0  0  0  0  0  0  0  0  0  0
   36.8800   28.6180   29.6390 Cl  0  0  0  0  0  0  0  0  0  0  0  0
   36.9970   27.7930   32.2800 C   0  0  0  0  0  0  0  0  0  0  0  0
   39.7310   25.1800   31.4140 H   0  0  0  0  0  0  0  0  0  0  0  0
   38.8100   26.6070   29.6830 H   0  0  0  0  0  0  0  0  0  0  0  0
   40.8250   24.5430   35.3880 C   0  0  0  0  0  0  0  0  0  0  0  0
   40.0150   23.5550   35.9760 C   0  0  0  0  0  0  0  0  0  0  0  0
   38.6940   23.4160   35.5450 C   0  0  0  0  0  0  0  0  0  0  0  0
   38.2590   24.2590   34.5660 N   0  0  0  0  0  0  0  0  0  0  0  0
   39.0390   25.2000   34.0090 C   0  0  0  0  0  0  0  0  0  0  0  0
   40.3080   25.3400   34.4170 N   0  0  0  0  0  0  0  0  0  0  0  0
   41.8470   24.6310   35.7380 H   0  0  0  0  0  0  0  0  0  0  0  0
   38.0790   22.6630   35.9940 H   0  0  0  0  0  0  0  0  0  0  0  0
   40.6190   22.6960   37.0410 C   0  0  0  0  0  0  0  0  0  0  0  0
   41.9890   22.9510   37.1490 F   0  0  0  0  0  0  0  0  0  0  0  0
   40.0400   23.0150   38.2450 F   0  0  0  0  0  0  0  0  0  0  0  0
   40.4330   21.3460   36.8110 F   0  0  0  0  0  0  0  0  0  0  0  0
   35.9720   28.8170   32.4430 C   0  0  0  0  0  0  0  0  0  0  0  0
   36.0670   30.1680   32.6570 C   0  0  0  0  0  0  0  0  0  0  0  0
   36.9490   30.7690   32.7520 H   0  0  0  0  0  0  0  0  0  0  0  0
   34.8360   30.7740   32.7540 C   0  0  0  0  0  0  0  0  0  0  0  0
   34.5550   31.8030   32.9170 H   0  0  0  0  0  0  0  0  0  0  0  0
   33.9880   29.7030   32.5840 C   0  0  0  0  0  0  0  0  0  0  0  0
   32.9050   29.6690   32.5790 H   0  0  0  0  0  0  0  0  0  0  0  0
   34.6950   28.6310   32.4140 O   0  0  0  0  0  0  0  0  0  0  0  0
  2  1  1  0  0  0  0
  3  2  1  0  0  0  0
  3 15  1  0  0  0  0
  4  3  2  0  0  0  0
  5  6  2  0  0  0  0
  5  4  1  0  0  0  0
  6  8  1  0  0  0  0
  7  6  1  0  0  0  0
  8 23  1  0  0  0  0
  8  2  2  0  0  0  0
  9  4  1  0  0  0  0
 10  5  1  0  0  0  0
 11 17  1  0  0  0  0
 11 12  1  0  0  0  0
 12 19  1  0  0  0  0
 13 12  2  0  0  0  0
 13 18  1  0  0  0  0
 14 13  1  0  0  0  0
 15 16  1  0  0  0  0
 15 14  2  0  0  0  0
 16 11  2  0  0  0  0
 19 20  1  0  0  0  0
 19 21  1  0  0  0  0
 22 19  1  0  0  0  0
 23 24  2  0  0  0  0
 24 25  1  0  0  0  0
 24 26  1  0  0  0  0
 26 27  1  0  0  0  0
 28 26  2  0  0  0  0
 29 28  1  0  0  0  0
 30 23  1  0  0  0  0
 30 28  1  0  0  0  0
M  END
>  <minimizedAffinity>
-5.1803484

$$$$

 OpenBabel03272500163D

 30 32  0  0  0  0  0  0  0  0999 V2000
   36.6810   27.7290   34.2660 Cl  0  0  0  0  0  0  0  0  0  0  0  0
   36.5810   28.5950   32.7590 C   0  0  0  0  0  0  0  0  0  0  0  0
   35.7660   29.7300   32.6640 C   0  0  0  0  0  0  0  0  0  0  0  0
   35.6580   30.4560   31.4800 C   0  0  0  0  0  0  0  0  0  0  0  0
   36.3990   30.0000   30.3930 C   0  0  0  0  0  0  0  0  0  0  0  0
   37.2030   28.8910   30.4620 C   0  0  0  0  0  0  0  0  0  0  0  0
   38.0880   28.4270   29.0310 Cl  0  0  0  0  0  0  0  0  0  0  0  0
   37.2960   28.1740   31.6730 C   0  0  0  0  0  0  0  0  0  0  0  0
   35.0490   31.3220   31.3710 H   0  0  0  0  0  0  0  0  0  0  0  0
   36.3310   30.5460   29.4640 H   0  0  0  0  0  0  0  0  0  0  0  0
   33.0490   30.1500   35.1140 C   0  0  0  0  0  0  0  0  0  0  0  0
   33.6060   31.1050   35.9840 C   0  0  0  0  0  0  0  0  0  0  0  0
   34.8900   31.5890   35.7270 C   0  0  0  0  0  0  0  0  0  0  0  0
   35.5400   31.1010   34.6320 N   0  0  0  0  0  0  0  0  0  0  0  0
   35.0010   30.1900   33.8060 C   0  0  0  0  0  0  0  0  0  0  0  0
   33.7700   29.7200   34.0460 N   0  0  0  0  0  0  0  0  0  0  0  0
   32.0510   29.7890   35.3340 H   0  0  0  0  0  0  0  0  0  0  0  0
   35.3120   32.3160   36.3900 H   0  0  0  0  0  0  0  0  0  0  0  0
   32.7830   31.5560   37.1490 C   0  0  0  0  0  0  0  0  0  0  0  0
   31.5220   31.9770   36.7170 F   0  0  0  0  0  0  0  0  0  0  0  0
   32.5980   30.4910   37.9960 F   0  0  0  0  0  0  0  0  0  0  0  0
   33.3770   32.5810   37.8590 F   0  0  0  0  0  0  0  0  0  0  0  0
   38.1800   27.0160   31.6250 C   0  0  0  0  0  0  0  0  0  0  0  0
   39.5030   26.8700   31.9570 C   0  0  0  0  0  0  0  0  0  0  0  0
   40.1820   27.6090   32.3350 H   0  0  0  0  0  0  0  0  0  0  0  0
   39.9580   25.5880   31.7570 C   0  0  0  0  0  0  0  0  0  0  0  0
   40.9270   25.1400   31.9130 H   0  0  0  0  0  0  0  0  0  0  0  0
   38.8270   24.9650   31.2820 C   0  0  0  0  0  0  0  0  0  0  0  0
   38.6770   23.9350   30.9780 H   0  0  0  0  0  0  0  0  0  0  0  0
   37.8620   25.8280   31.2320 O   0  0  0  0  0  0  0  0  0  0  0  0
  2  1  1  0  0  0  0
  3  2  1  0  0  0  0
  3 15  1  0  0  0  0
  4  3  2  0  0  0  0
  5  6  2  0  0  0  0
  5  4  1  0  0  0  0
  6  8  1  0  0  0  0
  7  6  1  0  0  0  0
  8  2  2  0  0  0  0
  9  4  1  0  0  0  0
 10  5  1  0  0  0  0
 11 17  1  0  0  0  0
 11 12  1  0  0  0  0
 12 19  1  0  0  0  0
 13 12  2  0  0  0  0
 13 18  1  0  0  0  0
 14 13  1  0  0  0  0
 15 16  1  0  0  0  0
 15 14  2  0  0  0  0
 16 11  2  0  0  0  0
 19 22  1  0  0  0  0
 19 21  1  0  0  0  0
 20 19  1  0  0  0  0
 23  8  1  0  0  0  0
 23 24  2  0  0  0  0
 24 25  1  0  0  0  0
 26 27  1  0  0  0  0
 26 24  1  0  0  0  0
 28 26  2  0  0  0  0
 29 28  1  0  0  0  0
 30 28  1  0  0  0  0
 30 23  1  0  0  0  0
M  END
>  <minimizedAffinity>
-5.18032265

$$$$

 OpenBabel03272500163D

 30 32  0  0  0  0  0  0  0  0999 V2000
   37.5980   27.4330   33.4460 Cl  0  0  0  0  0  0  0  0  0  0  0  0
   38.4690   26.3170   32.4330 C   0  0  0  0  0  0  0  0  0  0  0  0
   38.9410   25.1150   32.9720 C   0  0  0  0  0  0  0  0  0  0  0  0
   39.6390   24.1900   32.1980 C   0  0  0  0  0  0  0  0  0  0  0  0
   39.8460   24.5190   30.8610 C   0  0  0  0  0  0  0  0  0  0  0  0
   39.3940   25.6900   30.3110 C   0  0  0  0  0  0  0  0  0  0  0  0
   39.7120   25.9820   28.6190 Cl  0  0  0  0  0  0  0  0  0  0  0  0
   38.6890   26.6090   31.1160 C   0  0  0  0  0  0  0  0  0  0  0  0
   40.0130   23.2670   32.5730 H   0  0  0  0  0  0  0  0  0  0  0  0
   40.3860   23.8170   30.2410 H   0  0  0  0  0  0  0  0  0  0  0  0
   38.5400   25.4380   36.6180 C   0  0  0  0  0  0  0  0  0  0  0  0
   38.2850   24.1050   36.9880 C   0  0  0  0  0  0  0  0  0  0  0  0
   38.2530   23.1210   35.9980 C   0  0  0  0  0  0  0  0  0  0  0  0
   38.4730   23.5140   34.7110 N   0  0  0  0  0  0  0  0  0  0  0  0
   38.7160   24.7890   34.3660 C   0  0  0  0  0  0  0  0  0  0  0  0
   38.7480   25.7400   35.3100 N   0  0  0  0  0  0  0  0  0  0  0  0
   38.5600   26.1840   37.4050 H   0  0  0  0  0  0  0  0  0  0  0  0
   38.0590   22.1060   36.2810 H   0  0  0  0  0  0  0  0  0  0  0  0
   38.0610   23.8100   38.4370 C   0  0  0  0  0  0  0  0  0  0  0  0
   39.2670   23.4570   39.0510 F   0  0  0  0  0  0  0  0  0  0  0  0
   37.5990   24.9480   39.0520 F   0  0  0  0  0  0  0  0  0  0  0  0
   37.1430   22.7980   38.6420 F   0  0  0  0  0  0  0  0  0  0  0  0
   38.2590   27.8170   30.4210 C   0  0  0  0  0  0  0  0  0  0  0  0
   37.0200   28.2310   30.0040 C   0  0  0  0  0  0  0  0  0  0  0  0
   36.0780   27.7300   30.1090 H   0  0  0  0  0  0  0  0  0  0  0  0
   37.0560   29.4540   29.3780 C   0  0  0  0  0  0  0  0  0  0  0  0
   36.2760   30.0570   28.9390 H   0  0  0  0  0  0  0  0  0  0  0  0
   38.3970   29.7570   29.4410 C   0  0  0  0  0  0  0  0  0  0  0  0
   38.9300   30.6280   29.0790 H   0  0  0  0  0  0  0  0  0  0  0  0
   39.0170   28.7910   30.0420 O   0  0  0  0  0  0  0  0  0  0  0  0
  2  3  1  0  0  0  0
  2  1  1  0  0  0  0
  3 15  1  0  0  0  0
  4  9  1  0  0  0  0
  4  3  2  0  0  0  0
  5  4  1  0  0  0  0
  6  5  2  0  0  0  0
  6  8  1  0  0  0  0
  7  6  1  0  0  0  0
  8  2  2  0  0  0  0
 10  5  1  0  0  0  0
 11 12  1  0  0  0  0
 11 17  1  0  0  0  0
 12 19  1  0  0  0  0
 13 18  1  0  0  0  0
 13 12  2  0  0  0  0
 14 13  1  0  0  0  0
 15 14  2  0  0  0  0
 15 16  1  0  0  0  0
 16 11  2  0  0  0  0
 19 22  1  0  0  0  0
 19 20  1  0  0  0  0
 19 21  1  0  0  0  0
 23  8  1  0  0  0  0
 24 25  1  0  0  0  0
 24 23  2  0  0  0  0
 26 28  2  0  0  0  0
 26 24  1  0  0  0  0
 27 26  1  0  0  0  0
 28 30  1  0  0  0  0
 29 28  1  0  0  0  0
 30 23  1  0  0  0  0
M  END
>  <minimizedAffinity>
-5.17679358

$$$$

 OpenBabel03272500163D

 30 32  0  0  0  0  0  0  0  0999 V2000
   36.0020   28.1070   34.4540 Cl  0  0  0  0  0  0  0  0  0  0  0  0
   35.8480   29.2520   33.1510 C   0  0  0  0  0  0  0  0  0  0  0  0
   36.1390   28.8540   31.8410 C   0  0  0  0  0  0  0  0  0  0  0  0
   36.0260   29.7350   30.7670 C   0  0  0  0  0  0  0  0  0  0  0  0
   35.6110   31.0320   31.0580 C   0  0  0  0  0  0  0  0  0  0  0  0
   35.3220   31.4440   32.3340 C   0  0  0  0  0  0  0  0  0  0  0  0
   34.8030   33.0940   32.5660 Cl  0  0  0  0  0  0  0  0  0  0  0  0
   35.4430   30.5330   33.4030 C   0  0  0  0  0  0  0  0  0  0  0  0
   36.2390   29.4680   29.7590 H   0  0  0  0  0  0  0  0  0  0  0  0
   35.5170   31.7320   30.2420 H   0  0  0  0  0  0  0  0  0  0  0  0
   38.2800   25.9190   31.2400 C   0  0  0  0  0  0  0  0  0  0  0  0
   37.3190   24.9180   31.0100 C   0  0  0  0  0  0  0  0  0  0  0  0
   35.9650   25.2530   31.0630 C   0  0  0  0  0  0  0  0  0  0  0  0
   35.6460   26.5500   31.3380 N   0  0  0  0  0  0  0  0  0  0  0  0
   36.5700   27.5000   31.5560 C   0  0  0  0  0  0  0  0  0  0  0  0
   37.8720   27.1870   31.5080 N   0  0  0  0  0  0  0  0  0  0  0  0
   39.3250   25.6350   31.1920 H   0  0  0  0  0  0  0  0  0  0  0  0
   35.2350   24.4890   30.8870 H   0  0  0  0  0  0  0  0  0  0  0  0
   37.8050   23.5340   30.7170 C   0  0  0  0  0  0  0  0  0  0  0  0
   38.4680   23.5040   29.4860 F   0  0  0  0  0  0  0  0  0  0  0  0
   38.7100   23.1710   31.6840 F   0  0  0  0  0  0  0  0  0  0  0  0
   36.7870   22.6010   30.6980 F   0  0  0  0  0  0  0  0  0  0  0  0
   35.1080   31.0850   34.7110 C   0  0  0  0  0  0  0  0  0  0  0  0
   35.8870   31.6810   35.6690 C   0  0  0  0  0  0  0  0  0  0  0  0
   36.9420   31.8690   35.6510 H   0  0  0  0  0  0  0  0  0  0  0  0
   35.1620   32.0650   36.7730 C   0  0  0  0  0  0  0  0  0  0  0  0
   35.4570   32.5510   37.6900 H   0  0  0  0  0  0  0  0  0  0  0  0
   33.8930   31.6640   36.4220 C   0  0  0  0  0  0  0  0  0  0  0  0
   32.9620   31.7480   36.9710 H   0  0  0  0  0  0  0  0  0  0  0  0
   33.9350   31.1190   35.2480 O   0  0  0  0  0  0  0  0  0  0  0  0
  2  8  1  0  0  0  0
  2  1  1  0  0  0  0
  3  2  2  0  0  0  0
  4  5  2  0  0  0  0
  4  3  1  0  0  0  0
  5  6  1  0  0  0  0
  6  7  1  0  0  0  0
  6  8  2  0  0  0  0
  8 23  1  0  0  0  0
  9  4  1  0  0  0  0
 10  5  1  0  0  0  0
 11 16  1  0  0  0  0
 12 13  1  0  0  0  0
 12 11  2  0  0  0  0
 13 14  2  0  0  0  0
 14 15  1  0  0  0  0
 15  3  1  0  0  0  0
 16 15  2  0  0  0  0
 17 11  1  0  0  0  0
 18 13  1  0  0  0  0
 19 12  1  0  0  0  0
 19 21  1  0  0  0  0
 20 19  1  0  0  0  0
 22 19  1  0  0  0  0
 23 30  1  0  0  0  0
 23 24  2  0  0  0  0
 24 26  1  0  0  0  0
 25 24  1  0  0  0  0
 26 27  1  0  0  0  0
 28 26  2  0  0  0  0
 28 29  1  0  0  0  0
 30 28  1  0  0  0  0
M  END
>  <minimizedAffinity>
-5.13210964

$$$$

 OpenBabel03272500163D

 30 32  0  0  0  0  0  0  0  0999 V2000
   40.6710   25.7640   33.8280 Cl  0  0  0  0  0  0  0  0  0  0  0  0
   39.8840   24.8150   35.0580 C   0  0  0  0  0  0  0  0  0  0  0  0
   38.5280   25.0220   35.3310 C   0  0  0  0  0  0  0  0  0  0  0  0
   37.8560   24.2840   36.3030 C   0  0  0  0  0  0  0  0  0  0  0  0
   38.5990   23.3290   36.9920 C   0  0  0  0  0  0  0  0  0  0  0  0
   39.9290   23.1090   36.7420 C   0  0  0  0  0  0  0  0  0  0  0  0
   40.7470   21.8760   37.6690 Cl  0  0  0  0  0  0  0  0  0  0  0  0
   40.5850   23.8690   35.7520 C   0  0  0  0  0  0  0  0  0  0  0  0
   36.8260   24.4140   36.5390 H   0  0  0  0  0  0  0  0  0  0  0  0
   38.1000   22.7440   37.7510 H   0  0  0  0  0  0  0  0  0  0  0  0
   36.7110   28.1180   34.5050 C   0  0  0  0  0  0  0  0  0  0  0  0
   36.3320   27.8690   33.1740 C   0  0  0  0  0  0  0  0  0  0  0  0
   36.6980   26.6600   32.5790 C   0  0  0  0  0  0  0  0  0  0  0  0
   37.4120   25.7760   33.3340 N   0  0  0  0  0  0  0  0  0  0  0  0
   37.7690   26.0210   34.6050 C   0  0  0  0  0  0  0  0  0  0  0  0
   37.4230   27.1790   35.1830 N   0  0  0  0  0  0  0  0  0  0  0  0
   36.4150   29.0630   34.9460 H   0  0  0  0  0  0  0  0  0  0  0  0
   36.4080   26.4720   31.5650 H   0  0  0  0  0  0  0  0  0  0  0  0
   35.5480   28.9240   32.4600 C   0  0  0  0  0  0  0  0  0  0  0  0
   34.1900   28.8130   32.7730 F   0  0  0  0  0  0  0  0  0  0  0  0
   35.9740   30.1570   32.8900 F   0  0  0  0  0  0  0  0  0  0  0  0
   35.6960   28.8650   31.0870 F   0  0  0  0  0  0  0  0  0  0  0  0
   41.9970   23.5460   35.5760 C   0  0  0  0  0  0  0  0  0  0  0  0
   42.6310   22.7020   34.7020 C   0  0  0  0  0  0  0  0  0  0  0  0
   42.2010   22.0830   33.9390 H   0  0  0  0  0  0  0  0  0  0  0  0
   43.9950   22.6910   34.8760 C   0  0  0  0  0  0  0  0  0  0  0  0
   44.7780   22.1500   34.3670 H   0  0  0  0  0  0  0  0  0  0  0  0
   44.1480   23.5830   35.9130 C   0  0  0  0  0  0  0  0  0  0  0  0
   45.0490   23.9170   36.4150 H   0  0  0  0  0  0  0  0  0  0  0  0
   42.9810   24.0270   36.2590 O   0  0  0  0  0  0  0  0  0  0  0  0
  1  2  1  0  0  0  0
  2  3  2  0  0  0  0
  2  8  1  0  0  0  0
  3  4  1  0  0  0  0
  4  9  1  0  0  0  0
  4  5  2  0  0  0  0
  5 10  1  0  0  0  0
  6  5  1  0  0  0  0
  6  7  1  0  0  0  0
  8  6  2  0  0  0  0
 11 17  1  0  0  0  0
 11 16  1  0  0  0  0
 12 11  2  0  0  0  0
 13 12  1  0  0  0  0
 13 14  2  0  0  0  0
 14 15  1  0  0  0  0
 15 16  2  0  0  0  0
 15  3  1  0  0  0  0
 18 13  1  0  0  0  0
 19 20  1  0  0  0  0
 19 21  1  0  0  0  0
 19 12  1  0  0  0  0
 22 19  1  0  0  0  0
 23  8  1  0  0  0  0
 23 30  1  0  0  0  0
 24 26  1  0  0  0  0
 24 23  2  0  0  0  0
 25 24  1  0  0  0  0
 26 28  2  0  0  0  0
 27 26  1  0  0  0  0
 28 30  1  0  0  0  0
 28 29  1  0  0  0  0
M  END
>  <minimizedAffinity>
-5.09985447

$$$$
