
 OpenBabel03272508553D

 37 40  0  0  1  0  0  0  0  0999 V2000
   38.3830   31.8660   44.5340 C   0  0  0  0  0  0  0  0  0  0  0  0
   37.2550   32.4350   44.4200 O   0  0  0  0  0  0  0  0  0  0  0  0
   38.9330   31.5860   45.8250 N   0  0  0  0  0  0  0  0  0  0  0  0
   39.9130   31.2710   45.9900 H   0  0  0  0  0  0  0  0  0  0  0  0
   39.1490   31.4830   43.3400 C   0  0  0  0  0  0  0  0  0  0  0  0
   40.1270   30.5320   43.4770 C   0  0  0  0  0  0  0  0  0  0  0  0
   40.8530   30.1530   42.3650 C   0  0  0  0  0  0  0  0  0  0  0  0
   40.5480   30.7600   41.1650 C   0  0  0  0  0  0  0  0  0  0  0  0
   39.5640   31.7210   41.0170 C   0  0  0  0  0  0  0  0  0  0  0  0
   38.9120   32.0280   42.1410 N   0  0  0  0  0  0  0  0  0  0  0  0
   40.4020   30.0270   44.3940 H   0  0  0  0  0  0  0  0  0  0  0  0
   41.6350   29.4080   42.4070 H   0  0  0  0  0  0  0  0  0  0  0  0
   41.1250   30.4560   40.2980 H   0  0  0  0  0  0  0  0  0  0  0  0
   39.2610   32.3500   39.7390 C   0  0  0  0  0  0  0  0  0  0  0  0
   38.6380   33.5840   39.6270 C   0  0  0  0  0  0  0  0  0  0  0  0
   38.3090   34.2140   40.4360 H   0  0  0  0  0  0  0  0  0  0  0  0
   38.5630   33.7640   38.2420 C   0  0  0  0  0  0  0  0  0  0  0  0
   38.1290   34.6340   37.7680 H   0  0  0  0  0  0  0  0  0  0  0  0
   39.1230   32.6710   37.6120 C   0  0  0  0  0  0  0  0  0  0  0  0
   39.2330   32.4780   36.5530 H   0  0  0  0  0  0  0  0  0  0  0  0
   39.5350   31.8360   38.5440 O   0  0  0  0  0  0  0  0  0  0  0  0
   38.4340   31.1300   48.2210 C   0  0  2  0  0  0  0  0  0  0  0  0
   38.7040   32.5720   48.1220 C   0  0  0  0  0  0  0  0  0  0  0  0
   38.0580   31.7560   46.9750 C   0  0  1  0  0  0  0  0  0  0  0  0
   39.3530   30.5120   48.3000 H   0  0  0  0  0  0  0  0  0  0  0  0
   38.0860   33.3270   48.6350 H   0  0  0  0  0  0  0  0  0  0  0  0
   39.7420   32.9250   47.9670 H   0  0  0  0  0  0  0  0  0  0  0  0
   37.0040   32.0850   46.7710 H   0  0  0  0  0  0  0  0  0  0  0  0
   35.0900   30.2260   49.5300 C   0  0  0  0  0  0  0  0  0  0  0  0
   35.4140   29.5460   50.7480 C   0  0  0  0  0  0  0  0  0  0  0  0
   36.8140   29.4250   51.0880 C   0  0  0  0  0  0  0  0  0  0  0  0
   37.7560   29.9520   50.2540 N   0  0  0  0  0  0  0  0  0  0  0  0
   37.3570   30.5870   49.1090 C   0  0  0  0  0  0  0  0  0  0  0  0
   36.0420   30.7400   48.7200 N   0  0  0  0  0  0  0  0  0  0  0  0
   34.0390   30.2800   49.3400 H   0  0  0  0  0  0  0  0  0  0  0  0
   34.6530   29.1450   51.3790 H   0  0  0  0  0  0  0  0  0  0  0  0
   37.0610   28.9150   52.0030 H   0  0  0  0  0  0  0  0  0  0  0  0
  1  3  1  0  0  0  0
  2  1  2  0  0  0  0
  3  4  1  0  0  0  0
  3 24  1  0  0  0  0
  5  6  1  0  0  0  0
  5  1  1  0  0  0  0
  6 11  1  0  0  0  0
  7 12  1  0  0  0  0
  7  6  2  0  0  0  0
  8  7  1  0  0  0  0
  9  8  2  0  0  0  0
  9 10  1  0  0  0  0
 10  5  2  0  0  0  0
 13  8  1  0  0  0  0
 14  9  1  0  0  0  0
 15 14  2  0  0  0  0
 15 16  1  0  0  0  0
 17 15  1  0  0  0  0
 18 17  1  0  0  0  0
 19 17  2  0  0  0  0
 19 21  1  0  0  0  0
 20 19  1  0  0  0  0
 21 14  1  0  0  0  0
 22 25  1  6  0  0  0
 22 33  1  0  0  0  0
 23 22  1  0  0  0  0
 23 26  1  0  0  0  0
 24 28  1  6  0  0  0
 24 23  1  0  0  0  0
 24 22  1  0  0  0  0
 27 23  1  0  0  0  0
 29 30  1  0  0  0  0
 30 31  2  0  0  0  0
 30 36  1  0  0  0  0
 31 37  1  0  0  0  0
 32 31  1  0  0  0  0
 33 32  2  0  0  0  0
 34 33  1  0  0  0  0
 34 29  2  0  0  0  0
 35 29  1  0  0  0  0
M  END
>  <minimizedAffinity>
-5.15920162

>  <minimizedRMSD>
0.254416466

$$$$
