
 OpenBabel03272506473D

 41 44  0  0  1  0  0  0  0  0999 V2000
   32.0280   28.3700   47.4940 C   0  0  2  0  0  0  0  0  0  0  0  0
   33.2900   28.1350   48.2690 C   0  0  1  0  0  0  0  0  0  0  0  0
   33.6280   26.8230   48.1390 O   0  0  0  0  0  0  0  0  0  0  0  0
   32.8600   26.2480   47.1320 C   0  0  0  0  0  0  0  0  0  0  0  0
   32.2780   27.3780   46.3140 C   0  0  1  0  0  0  0  0  0  0  0  0
   31.1110   28.0530   47.9800 H   0  0  0  0  0  0  0  0  0  0  0  0
   33.0970   28.4670   49.3080 H   0  0  0  0  0  0  0  0  0  0  0  0
   32.1430   25.6020   47.6220 H   0  0  0  0  0  0  0  0  0  0  0  0
   33.5930   25.6480   46.5040 H   0  0  0  0  0  0  0  0  0  0  0  0
   33.0110   27.8410   45.6570 H   0  0  0  0  0  0  0  0  0  0  0  0
   31.9930   29.6850   46.9860 O   0  0  0  0  0  0  0  0  0  0  0  0
   32.4970   29.6690   46.1370 H   0  0  0  0  0  0  0  0  0  0  0  0
   34.6140   29.1410   47.4860 S   0  0  0  0  0  0  0  0  0  0  0  0
   37.0010   29.2610   50.6480 C   0  0  0  0  0  0  0  0  0  0  0  0
   37.4010   30.5940   50.7470 C   0  0  0  0  0  0  0  0  0  0  0  0
   36.9170   31.4900   49.8010 C   0  0  0  0  0  0  0  0  0  0  0  0
   36.0780   31.0290   48.8270 N   0  0  0  0  0  0  0  0  0  0  0  0
   35.7150   29.7290   48.7690 C   0  0  0  0  0  0  0  0  0  0  0  0
   36.1690   28.8280   49.6760 N   0  0  0  0  0  0  0  0  0  0  0  0
   37.3280   28.4960   51.3390 H   0  0  0  0  0  0  0  0  0  0  0  0
   38.0610   30.8860   51.5350 H   0  0  0  0  0  0  0  0  0  0  0  0
   37.2010   32.5350   49.8370 H   0  0  0  0  0  0  0  0  0  0  0  0
   31.0910   26.9640   45.7600 O   0  0  0  0  0  0  0  0  0  0  0  0
   29.9400   29.2880   44.3660 Cl  0  0  0  0  0  0  0  0  0  0  0  0
   29.2340   28.3230   45.6400 C   0  0  0  0  0  0  0  0  0  0  0  0
   29.8720   27.2440   46.2090 C   0  0  0  0  0  0  0  0  0  0  0  0
   29.1940   26.5320   47.2010 C   0  0  0  0  0  0  0  0  0  0  0  0
   27.9260   26.9040   47.5930 C   0  0  0  0  0  0  0  0  0  0  0  0
   27.2780   27.9870   47.0280 C   0  0  0  0  0  0  0  0  0  0  0  0
   27.9520   28.6900   46.0460 C   0  0  0  0  0  0  0  0  0  0  0  0
   29.5960   25.6720   47.7060 H   0  0  0  0  0  0  0  0  0  0  0  0
   27.3630   26.3910   48.3510 H   0  0  0  0  0  0  0  0  0  0  0  0
   26.2840   28.2860   47.3300 H   0  0  0  0  0  0  0  0  0  0  0  0
   27.2870   29.8380   45.4340 C   0  0  0  0  0  0  0  0  0  0  0  0
   27.1610   31.0880   45.9410 C   0  0  0  0  0  0  0  0  0  0  0  0
   27.5580   31.4070   46.9160 H   0  0  0  0  0  0  0  0  0  0  0  0
   26.4630   31.9140   45.0710 C   0  0  0  0  0  0  0  0  0  0  0  0
   26.1870   32.9470   45.1550 H   0  0  0  0  0  0  0  0  0  0  0  0
   26.1930   31.0590   44.0220 C   0  0  0  0  0  0  0  0  0  0  0  0
   25.6500   31.2760   43.0890 H   0  0  0  0  0  0  0  0  0  0  0  0
   26.6820   29.8670   44.2630 O   0  0  0  0  0  0  0  0  0  0  0  0
  1  6  1  1  0  0  0
  1  2  1  0  0  0  0
  2  7  1  1  0  0  0
  3  2  1  0  0  0  0
  4  8  1  0  0  0  0
  4  3  1  0  0  0  0
  5 10  1  6  0  0  0
  5  4  1  0  0  0  0
  5  1  1  0  0  0  0
  9  4  1  0  0  0  0
 11  1  1  0  0  0  0
 12 11  1  0  0  0  0
 13  2  1  0  0  0  0
 13 18  1  0  0  0  0
 14 15  1  0  0  0  0
 14 20  1  0  0  0  0
 15 21  1  0  0  0  0
 16 22  1  0  0  0  0
 16 15  2  0  0  0  0
 17 16  1  0  0  0  0
 18 17  2  0  0  0  0
 18 19  1  0  0  0  0
 19 14  2  0  0  0  0
 23 26  1  0  0  0  0
 23  5  1  0  0  0  0
 24 25  1  0  0  0  0
 25 30  2  0  0  0  0
 25 26  1  0  0  0  0
 26 27  2  0  0  0  0
 27 28  1  0  0  0  0
 27 31  1  0  0  0  0
 28 32  1  0  0  0  0
 29 33  1  0  0  0  0
 29 28  2  0  0  0  0
 30 29  1  0  0  0  0
 34 35  2  0  0  0  0
 34 30  1  0  0  0  0
 35 36  1  0  0  0  0
 37 38  1  0  0  0  0
 37 35  1  0  0  0  0
 39 41  1  0  0  0  0
 39 37  2  0  0  0  0
 40 39  1  0  0  0  0
 41 34  1  0  0  0  0
M  END
>  <minimizedAffinity>
-5.17521954

>  <minimizedRMSD>
0.411280751

$$$$
