
 OpenBabel03272510273D

 44 48  0  0  1  0  0  0  0  0999 V2000
   36.2470   30.2490   46.2970 C   0  0  0  0  0  0  0  0  0  0  0  0
   37.1550   30.8250   47.1510 C   0  0  0  0  0  0  0  0  0  0  0  0
   38.1320   31.7180   46.6780 C   0  0  0  0  0  0  0  0  0  0  0  0
   38.1200   31.9770   45.3060 C   0  0  0  0  0  0  0  0  0  0  0  0
   38.9510   32.8000   44.6000 N   0  0  0  0  0  0  0  0  0  0  0  0
   38.5580   32.7330   43.3220 C   0  0  0  0  0  0  0  0  0  0  0  0
   37.5330   31.9100   43.2190 N   0  0  0  0  0  0  0  0  0  0  0  0
   37.2250   31.4160   44.4300 C   0  0  0  0  0  0  0  0  0  0  0  0
   36.2700   30.5320   44.9470 C   0  0  0  0  0  0  0  0  0  0  0  0
   35.4960   29.5610   46.6720 H   0  0  0  0  0  0  0  0  0  0  0  0
   38.8650   32.1910   47.3260 H   0  0  0  0  0  0  0  0  0  0  0  0
   39.7260   33.3580   45.0000 H   0  0  0  0  0  0  0  0  0  0  0  0
   35.5650   30.0900   44.2560 H   0  0  0  0  0  0  0  0  0  0  0  0
   37.7120   30.5910   50.8680 C   0  0  0  0  0  0  0  0  0  0  0  0
   37.9180   31.0080   49.5530 C   0  0  0  0  0  0  0  0  0  0  0  0
   37.1050   30.5160   48.5680 C   0  0  0  0  0  0  0  0  0  0  0  0
   36.1240   29.6250   48.9540 N   0  0  0  0  0  0  0  0  0  0  0  0
   35.9310   29.2280   50.2230 C   0  0  0  0  0  0  0  0  0  0  0  0
   36.7210   29.7090   51.1640 N   0  0  0  0  0  0  0  0  0  0  0  0
   38.3650   30.9910   51.6310 H   0  0  0  0  0  0  0  0  0  0  0  0
   38.6780   31.7000   49.2370 H   0  0  0  0  0  0  0  0  0  0  0  0
   35.1390   28.5260   50.4460 H   0  0  0  0  0  0  0  0  0  0  0  0
   39.1890   33.4570   42.3080 O   0  0  0  0  0  0  0  0  0  0  0  0
   38.5100   32.1560   40.5310 N   0  0  0  0  0  0  0  0  0  0  0  0
   38.4910   33.5010   41.0680 C   0  0  1  0  0  0  0  0  0  0  0  0
   37.1260   33.9630   41.2590 C   0  0  0  0  0  0  0  0  0  0  0  0
   36.4900   34.0230   40.0070 O   0  0  0  0  0  0  0  0  0  0  0  0
   36.5220   32.8660   39.2810 C   0  0  0  0  0  0  0  0  0  0  0  0
   37.9030   32.2620   39.2160 C   0  0  1  0  0  0  0  0  0  0  0  0
   37.9980   31.4360   41.0060 H   0  0  0  0  0  0  0  0  0  0  0  0
   39.0210   34.1280   40.3320 H   0  0  0  0  0  0  0  0  0  0  0  0
   37.1740   35.0490   41.5780 H   0  0  0  0  0  0  0  0  0  0  0  0
   36.4020   33.5030   41.8760 H   0  0  0  0  0  0  0  0  0  0  0  0
   36.1950   33.0920   38.2660 H   0  0  0  0  0  0  0  0  0  0  0  0
   35.8480   32.1140   39.7740 H   0  0  0  0  0  0  0  0  0  0  0  0
   37.7980   31.2630   38.7300 H   0  0  0  0  0  0  0  0  0  0  0  0
   38.7600   33.1700   38.4090 C   0  0  0  0  0  0  0  0  0  0  0  0
   39.9960   32.6970   37.9570 C   0  0  0  0  0  0  0  0  0  0  0  0
   40.4670   31.7320   38.0970 H   0  0  0  0  0  0  0  0  0  0  0  0
   40.6080   33.7080   37.2340 C   0  0  0  0  0  0  0  0  0  0  0  0
   41.5760   33.6510   36.7540 H   0  0  0  0  0  0  0  0  0  0  0  0
   39.7020   34.7490   37.2870 C   0  0  0  0  0  0  0  0  0  0  0  0
   39.8940   35.7010   36.8070 H   0  0  0  0  0  0  0  0  0  0  0  0
   38.6300   34.4050   37.9820 O   0  0  0  0  0  0  0  0  0  0  0  0
  1 10  1  0  0  0  0
  1  2  1  0  0  0  0
  2 16  1  0  0  0  0
  3  2  2  0  0  0  0
  3 11  1  0  0  0  0
  4  3  1  0  0  0  0
  5 12  1  0  0  0  0
  5  4  1  0  0  0  0
  6  5  1  0  0  0  0
  7  6  2  0  0  0  0
  7  8  1  0  0  0  0
  8  9  1  0  0  0  0
  8  4  2  0  0  0  0
  9  1  2  0  0  0  0
 13  9  1  0  0  0  0
 14 19  1  0  0  0  0
 14 20  1  0  0  0  0
 15 14  2  0  0  0  0
 16 17  2  0  0  0  0
 16 15  1  0  0  0  0
 17 18  1  0  0  0  0
 18 22  1  0  0  0  0
 18 19  2  0  0  0  0
 21 15  1  0  0  0  0
 23  6  1  0  0  0  0
 24 30  1  0  0  0  0
 24 25  1  0  0  0  0
 25 31  1  6  0  0  0
 25 26  1  0  0  0  0
 25 23  1  0  0  0  0
 26 32  1  0  0  0  0
 26 33  1  0  0  0  0
 27 26  1  0  0  0  0
 28 35  1  0  0  0  0
 28 27  1  0  0  0  0
 29 36  1  6  0  0  0
 29 28  1  0  0  0  0
 29 24  1  0  0  0  0
 34 28  1  0  0  0  0
 37 29  1  0  0  0  0
 38 39  1  0  0  0  0
 38 37  2  0  0  0  0
 40 42  2  0  0  0  0
 40 38  1  0  0  0  0
 41 40  1  0  0  0  0
 42 44  1  0  0  0  0
 43 42  1  0  0  0  0
 44 37  1  0  0  0  0
M  END
>  <minimizedAffinity>
-5.28257561

>  <minimizedRMSD>
1.33177888

$$$$
