
 OpenBabel03272506473D

 41 44  0  0  1  0  0  0  0  0999 V2000
   32.1620   28.4290   47.4830 C   0  0  2  0  0  0  0  0  0  0  0  0
   33.4140   28.2900   48.2980 C   0  0  1  0  0  0  0  0  0  0  0  0
   33.8420   27.0020   48.2010 O   0  0  0  0  0  0  0  0  0  0  0  0
   33.1440   26.3620   47.1830 C   0  0  0  0  0  0  0  0  0  0  0  0
   32.5130   27.4380   46.3280 C   0  0  1  0  0  0  0  0  0  0  0  0
   31.2550   28.0590   47.9480 H   0  0  0  0  0  0  0  0  0  0  0  0
   33.1680   28.6260   49.3250 H   0  0  0  0  0  0  0  0  0  0  0  0
   32.4580   25.6770   47.6620 H   0  0  0  0  0  0  0  0  0  0  0  0
   33.9340   25.8020   46.5860 H   0  0  0  0  0  0  0  0  0  0  0  0
   33.2330   27.9380   45.6850 H   0  0  0  0  0  0  0  0  0  0  0  0
   32.0560   29.7300   46.9520 O   0  0  0  0  0  0  0  0  0  0  0  0
   32.5840   29.7350   46.1180 H   0  0  0  0  0  0  0  0  0  0  0  0
   34.6910   29.3710   47.5360 S   0  0  0  0  0  0  0  0  0  0  0  0
   37.1450   29.2870   50.6460 C   0  0  0  0  0  0  0  0  0  0  0  0
   37.6170   30.5940   50.7690 C   0  0  0  0  0  0  0  0  0  0  0  0
   37.1610   31.5370   49.8560 C   0  0  0  0  0  0  0  0  0  0  0  0
   36.2790   31.1460   48.8900 N   0  0  0  0  0  0  0  0  0  0  0  0
   35.8480   29.8680   48.8080 C   0  0  0  0  0  0  0  0  0  0  0  0
   36.2720   28.9220   49.6830 N   0  0  0  0  0  0  0  0  0  0  0  0
   37.4460   28.4880   51.3120 H   0  0  0  0  0  0  0  0  0  0  0  0
   38.3070   30.8310   51.5490 H   0  0  0  0  0  0  0  0  0  0  0  0
   37.4990   32.5650   49.9110 H   0  0  0  0  0  0  0  0  0  0  0  0
   31.3730   26.9360   45.7470 O   0  0  0  0  0  0  0  0  0  0  0  0
   30.0850   29.0510   44.1530 Cl  0  0  0  0  0  0  0  0  0  0  0  0
   29.4220   28.1330   45.4830 C   0  0  0  0  0  0  0  0  0  0  0  0
   30.1250   27.1540   46.1480 C   0  0  0  0  0  0  0  0  0  0  0  0
   29.4770   26.4670   47.1770 C   0  0  0  0  0  0  0  0  0  0  0  0
   28.1740   26.7680   47.5130 C   0  0  0  0  0  0  0  0  0  0  0  0
   27.4600   27.7500   46.8510 C   0  0  0  0  0  0  0  0  0  0  0  0
   28.1050   28.4270   45.8320 C   0  0  0  0  0  0  0  0  0  0  0  0
   29.9290   25.6820   47.7560 H   0  0  0  0  0  0  0  0  0  0  0  0
   27.6310   26.2710   48.2960 H   0  0  0  0  0  0  0  0  0  0  0  0
   26.4380   27.9930   47.1080 H   0  0  0  0  0  0  0  0  0  0  0  0
   27.3700   29.4700   45.1190 C   0  0  0  0  0  0  0  0  0  0  0  0
   26.5400   29.3190   44.0580 C   0  0  0  0  0  0  0  0  0  0  0  0
   26.3060   28.3560   43.5830 H   0  0  0  0  0  0  0  0  0  0  0  0
   26.0220   30.5410   43.6480 C   0  0  0  0  0  0  0  0  0  0  0  0
   25.3460   30.7830   42.8540 H   0  0  0  0  0  0  0  0  0  0  0  0
   26.6100   31.4110   44.5440 C   0  0  0  0  0  0  0  0  0  0  0  0
   26.4920   32.5050   44.6060 H   0  0  0  0  0  0  0  0  0  0  0  0
   27.3820   30.7610   45.3800 O   0  0  0  0  0  0  0  0  0  0  0  0
  1  6  1  1  0  0  0
  1  2  1  0  0  0  0
  2  7  1  1  0  0  0
  3  2  1  0  0  0  0
  4  8  1  0  0  0  0
  4  3  1  0  0  0  0
  5 10  1  6  0  0  0
  5  4  1  0  0  0  0
  5  1  1  0  0  0  0
  9  4  1  0  0  0  0
 11  1  1  0  0  0  0
 12 11  1  0  0  0  0
 13  2  1  0  0  0  0
 13 18  1  0  0  0  0
 14 15  1  0  0  0  0
 14 20  1  0  0  0  0
 15 21  1  0  0  0  0
 16 22  1  0  0  0  0
 16 15  2  0  0  0  0
 17 16  1  0  0  0  0
 18 17  2  0  0  0  0
 18 19  1  0  0  0  0
 19 14  2  0  0  0  0
 23 26  1  0  0  0  0
 23  5  1  0  0  0  0
 24 25  1  0  0  0  0
 25 30  2  0  0  0  0
 25 26  1  0  0  0  0
 26 27  2  0  0  0  0
 27 28  1  0  0  0  0
 27 31  1  0  0  0  0
 28 32  1  0  0  0  0
 29 33  1  0  0  0  0
 29 28  2  0  0  0  0
 30 29  1  0  0  0  0
 34 41  1  0  0  0  0
 34 30  1  0  0  0  0
 35 34  2  0  0  0  0
 36 35  1  0  0  0  0
 37 35  1  0  0  0  0
 37 39  2  0  0  0  0
 38 37  1  0  0  0  0
 39 40  1  0  0  0  0
 39 41  1  0  0  0  0
M  END
>  <minimizedAffinity>
-5.07865572

>  <minimizedRMSD>
0.515504777

$$$$
