
 OpenBabel03272508113D

 33 35  0  0  0  0  0  0  0  0999 V2000
   36.6750   29.4420   44.0530 Cl  0  0  0  0  0  0  0  0  0  0  0  0
   38.3200   29.8350   43.5220 C   0  0  0  0  0  0  0  0  0  0  0  0
   39.3190   30.3330   44.3590 C   0  0  0  0  0  0  0  0  0  0  0  0
   40.5610   30.5990   43.8040 C   0  0  0  0  0  0  0  0  0  0  0  0
   40.7890   30.3760   42.4720 C   0  0  0  0  0  0  0  0  0  0  0  0
   39.8330   29.8930   41.6410 C   0  0  0  0  0  0  0  0  0  0  0  0
   38.5890   29.6180   42.1570 C   0  0  0  0  0  0  0  0  0  0  0  0
   41.2520   30.9790   44.5450 H   0  0  0  0  0  0  0  0  0  0  0  0
   41.7840   30.6100   42.1200 H   0  0  0  0  0  0  0  0  0  0  0  0
   40.0230   29.7200   40.5880 H   0  0  0  0  0  0  0  0  0  0  0  0
   37.5370   29.0950   41.2850 C   0  0  0  0  0  0  0  0  0  0  0  0
   37.3810   27.7740   40.9250 C   0  0  0  0  0  0  0  0  0  0  0  0
   37.9600   26.9100   41.1900 H   0  0  0  0  0  0  0  0  0  0  0  0
   36.2750   27.6800   40.0900 C   0  0  0  0  0  0  0  0  0  0  0  0
   35.7820   26.8760   39.5780 H   0  0  0  0  0  0  0  0  0  0  0  0
   35.8040   28.9950   39.9880 C   0  0  0  0  0  0  0  0  0  0  0  0
   34.9450   29.3330   39.4180 H   0  0  0  0  0  0  0  0  0  0  0  0
   36.5790   29.7750   40.7050 O   0  0  0  0  0  0  0  0  0  0  0  0
   38.8750   30.4780   45.6440 O   0  0  0  0  0  0  0  0  0  0  0  0
   39.4380   32.5220   47.1220 O   0  0  0  0  0  0  0  0  0  0  0  0
   38.3060   31.8390   46.4230 P   0  0  1  0  0  0  0  0  0  0  0  0
   37.7180   32.8490   45.1720 O   0  0  0  0  0  0  0  0  0  0  0  0
   38.3440   33.6110   45.0500 H   0  0  0  0  0  0  0  0  0  0  0  0
   37.0270   31.4200   47.4530 O   0  0  0  0  0  0  0  0  0  0  0  0
   37.6110   30.5300   50.9850 C   0  0  0  0  0  0  0  0  0  0  0  0
   37.6990   31.3010   49.8230 C   0  0  0  0  0  0  0  0  0  0  0  0
   37.0710   30.8450   48.6690 C   0  0  0  0  0  0  0  0  0  0  0  0
   36.3940   29.6590   48.7370 N   0  0  0  0  0  0  0  0  0  0  0  0
   36.3290   28.9390   49.8770 C   0  0  0  0  0  0  0  0  0  0  0  0
   36.9330   29.3720   50.9940 N   0  0  0  0  0  0  0  0  0  0  0  0
   38.1250   30.9480   51.8420 H   0  0  0  0  0  0  0  0  0  0  0  0
   38.2040   32.2270   49.6940 H   0  0  0  0  0  0  0  0  0  0  0  0
   35.7840   27.9920   49.9160 H   0  0  0  0  0  0  0  0  0  0  0  0
  2  1  1  0  0  0  0
  2  3  1  0  0  0  0
  3 19  1  0  0  0  0
  4  3  2  0  0  0  0
  4  8  1  0  0  0  0
  5  4  1  0  0  0  0
  6  7  1  0  0  0  0
  6  5  2  0  0  0  0
  7  2  2  0  0  0  0
  9  5  1  0  0  0  0
 10  6  1  0  0  0  0
 11  7  1  0  0  0  0
 12 13  1  0  0  0  0
 12 11  2  0  0  0  0
 14 12  1  0  0  0  0
 15 14  1  0  0  0  0
 16 14  2  0  0  0  0
 16 18  1  0  0  0  0
 17 16  1  0  0  0  0
 18 11  1  0  0  0  0
 19 21  1  0  0  0  0
 21 20  2  1  0  0  0
 21 24  1  0  0  0  0
 22 21  1  0  0  0  0
 23 22  1  0  0  0  0
 24 27  1  0  0  0  0
 25 30  1  0  0  0  0
 25 31  1  0  0  0  0
 26 25  2  0  0  0  0
 27 28  2  0  0  0  0
 27 26  1  0  0  0  0
 28 29  1  0  0  0  0
 29 33  1  0  0  0  0
 29 30  2  0  0  0  0
 32 26  1  0  0  0  0
M  END
>  <minimizedAffinity>
-4.80173588

>  <minimizedRMSD>
0.0923882425

$$$$
