
 OpenBabel03272510213D

 35 38  0  0  0  0  0  0  0  0999 V2000
   37.4770   29.1700   50.8200 Br  0  0  0  0  0  0  0  0  0  0  0  0
   36.0400   29.2820   49.5570 C   0  0  0  0  0  0  0  0  0  0  0  0
   36.0230   30.2820   48.5980 C   0  0  0  0  0  0  0  0  0  0  0  0
   34.9600   30.3100   47.7150 C   0  0  0  0  0  0  0  0  0  0  0  0
   33.9280   29.3760   47.7690 C   0  0  0  0  0  0  0  0  0  0  0  0
   33.9740   28.4090   48.7220 C   0  0  0  0  0  0  0  0  0  0  0  0
   35.0310   28.3710   49.6100 C   0  0  0  0  0  0  0  0  0  0  0  0
   34.8800   31.0580   46.9410 H   0  0  0  0  0  0  0  0  0  0  0  0
   33.1900   27.6900   48.7720 H   0  0  0  0  0  0  0  0  0  0  0  0
   35.0130   27.5790   50.3460 H   0  0  0  0  0  0  0  0  0  0  0  0
   38.0350   33.2080   49.4520 C   0  0  0  0  0  0  0  0  0  0  0  0
   39.0580   33.1960   48.4690 C   0  0  0  0  0  0  0  0  0  0  0  0
   39.0460   32.1770   47.5190 C   0  0  0  0  0  0  0  0  0  0  0  0
   38.0500   31.2320   47.5720 N   0  0  0  0  0  0  0  0  0  0  0  0
   37.0920   31.2720   48.5180 C   0  0  0  0  0  0  0  0  0  0  0  0
   37.0900   32.2630   49.4550 N   0  0  0  0  0  0  0  0  0  0  0  0
   38.0870   34.0140   50.1640 H   0  0  0  0  0  0  0  0  0  0  0  0
   39.8160   33.9570   48.4690 H   0  0  0  0  0  0  0  0  0  0  0  0
   39.7940   32.1220   46.7570 H   0  0  0  0  0  0  0  0  0  0  0  0
   32.8010   29.4050   46.8360 C   0  0  0  0  0  0  0  0  0  0  0  0
   31.8920   28.3750   46.6770 C   0  0  0  0  0  0  0  0  0  0  0  0
   30.8410   28.4540   45.7760 C   0  0  0  0  0  0  0  0  0  0  0  0
   30.6810   29.5440   45.0320 N   0  0  0  0  0  0  0  0  0  0  0  0
   31.5590   30.5540   45.1770 C   0  0  0  0  0  0  0  0  0  0  0  0
   32.5730   30.4760   46.0460 N   0  0  0  0  0  0  0  0  0  0  0  0
   32.0300   27.4900   47.2880 H   0  0  0  0  0  0  0  0  0  0  0  0
   30.1600   27.6160   45.6950 H   0  0  0  0  0  0  0  0  0  0  0  0
   31.5270   31.8170   44.4400 C   0  0  0  0  0  0  0  0  0  0  0  0
   30.3100   32.4890   44.2800 C   0  0  0  0  0  0  0  0  0  0  0  0
   29.3290   32.2070   44.6350 H   0  0  0  0  0  0  0  0  0  0  0  0
   30.5590   33.6500   43.5470 C   0  0  0  0  0  0  0  0  0  0  0  0
   29.7920   34.3640   43.2760 H   0  0  0  0  0  0  0  0  0  0  0  0
   31.9390   33.6040   43.3070 C   0  0  0  0  0  0  0  0  0  0  0  0
   32.4500   34.3790   42.7520 H   0  0  0  0  0  0  0  0  0  0  0  0
   32.4460   32.5370   43.8370 O   0  0  0  0  0  0  0  0  0  0  0  0
  2  7  1  0  0  0  0
  2  1  1  0  0  0  0
  3  2  2  0  0  0  0
  4  5  2  0  0  0  0
  4  3  1  0  0  0  0
  5  6  1  0  0  0  0
  6  9  1  0  0  0  0
  6  7  2  0  0  0  0
  7 10  1  0  0  0  0
  8  4  1  0  0  0  0
 11 16  1  0  0  0  0
 11 17  1  0  0  0  0
 12 11  2  0  0  0  0
 13 14  2  0  0  0  0
 13 12  1  0  0  0  0
 14 15  1  0  0  0  0
 15  3  1  0  0  0  0
 15 16  2  0  0  0  0
 18 12  1  0  0  0  0
 19 13  1  0  0  0  0
 20  5  1  0  0  0  0
 21 20  1  0  0  0  0
 21 26  1  0  0  0  0
 22 21  2  0  0  0  0
 23 24  2  0  0  0  0
 23 22  1  0  0  0  0
 24 25  1  0  0  0  0
 25 20  2  0  0  0  0
 27 22  1  0  0  0  0
 28 24  1  0  0  0  0
 29 28  2  0  0  0  0
 29 30  1  0  0  0  0
 31 29  1  0  0  0  0
 32 31  1  0  0  0  0
 33 31  2  0  0  0  0
 33 35  1  0  0  0  0
 34 33  1  0  0  0  0
 35 28  1  0  0  0  0
M  END
>  <minimizedAffinity>
-6.29696989

>  <minimizedRMSD>
0.411308348

$$$$
