
 OpenBabel03272506473D

 41 44  0  0  1  0  0  0  0  0999 V2000
   32.1630   28.4300   47.4830 C   0  0  2  0  0  0  0  0  0  0  0  0
   33.4140   28.2930   48.2990 C   0  0  1  0  0  0  0  0  0  0  0  0
   33.8410   27.0040   48.2030 O   0  0  0  0  0  0  0  0  0  0  0  0
   33.1440   26.3630   47.1850 C   0  0  0  0  0  0  0  0  0  0  0  0
   32.5130   27.4380   46.3290 C   0  0  1  0  0  0  0  0  0  0  0  0
   31.2550   28.0610   47.9480 H   0  0  0  0  0  0  0  0  0  0  0  0
   33.1680   28.6290   49.3260 H   0  0  0  0  0  0  0  0  0  0  0  0
   32.4570   25.6780   47.6650 H   0  0  0  0  0  0  0  0  0  0  0  0
   33.9340   25.8030   46.5900 H   0  0  0  0  0  0  0  0  0  0  0  0
   33.2350   27.9380   45.6860 H   0  0  0  0  0  0  0  0  0  0  0  0
   32.0560   29.7310   46.9510 O   0  0  0  0  0  0  0  0  0  0  0  0
   32.5860   29.7360   46.1170 H   0  0  0  0  0  0  0  0  0  0  0  0
   34.6920   29.3720   47.5370 S   0  0  0  0  0  0  0  0  0  0  0  0
   37.1460   29.2870   50.6470 C   0  0  0  0  0  0  0  0  0  0  0  0
   37.6190   30.5940   50.7700 C   0  0  0  0  0  0  0  0  0  0  0  0
   37.1620   31.5370   49.8570 C   0  0  0  0  0  0  0  0  0  0  0  0
   36.2800   31.1470   48.8910 N   0  0  0  0  0  0  0  0  0  0  0  0
   35.8480   29.8690   48.8090 C   0  0  0  0  0  0  0  0  0  0  0  0
   36.2730   28.9220   49.6840 N   0  0  0  0  0  0  0  0  0  0  0  0
   37.4470   28.4880   51.3120 H   0  0  0  0  0  0  0  0  0  0  0  0
   38.3080   30.8310   51.5500 H   0  0  0  0  0  0  0  0  0  0  0  0
   37.5010   32.5650   49.9130 H   0  0  0  0  0  0  0  0  0  0  0  0
   31.3750   26.9360   45.7480 O   0  0  0  0  0  0  0  0  0  0  0  0
   30.0860   29.0510   44.1540 Cl  0  0  0  0  0  0  0  0  0  0  0  0
   29.4220   28.1330   45.4840 C   0  0  0  0  0  0  0  0  0  0  0  0
   30.1260   27.1540   46.1480 C   0  0  0  0  0  0  0  0  0  0  0  0
   29.4780   26.4670   47.1780 C   0  0  0  0  0  0  0  0  0  0  0  0
   28.1750   26.7670   47.5130 C   0  0  0  0  0  0  0  0  0  0  0  0
   27.4610   27.7500   46.8510 C   0  0  0  0  0  0  0  0  0  0  0  0
   28.1050   28.4270   45.8320 C   0  0  0  0  0  0  0  0  0  0  0  0
   29.9300   25.6820   47.7560 H   0  0  0  0  0  0  0  0  0  0  0  0
   27.6320   26.2700   48.2960 H   0  0  0  0  0  0  0  0  0  0  0  0
   26.4390   27.9920   47.1080 H   0  0  0  0  0  0  0  0  0  0  0  0
   27.3710   29.4700   45.1190 C   0  0  0  0  0  0  0  0  0  0  0  0
   26.5410   29.3190   44.0580 C   0  0  0  0  0  0  0  0  0  0  0  0
   26.3080   28.3550   43.5830 H   0  0  0  0  0  0  0  0  0  0  0  0
   26.0230   30.5400   43.6490 C   0  0  0  0  0  0  0  0  0  0  0  0
   25.3480   30.7830   42.8540 H   0  0  0  0  0  0  0  0  0  0  0  0
   26.6100   31.4110   44.5450 C   0  0  0  0  0  0  0  0  0  0  0  0
   26.4910   32.5040   44.6070 H   0  0  0  0  0  0  0  0  0  0  0  0
   27.3830   30.7610   45.3810 O   0  0  0  0  0  0  0  0  0  0  0  0
  1  6  1  1  0  0  0
  1  2  1  0  0  0  0
  2  7  1  1  0  0  0
  3  2  1  0  0  0  0
  4  8  1  0  0  0  0
  4  3  1  0  0  0  0
  5 10  1  6  0  0  0
  5  4  1  0  0  0  0
  5  1  1  0  0  0  0
  9  4  1  0  0  0  0
 11  1  1  0  0  0  0
 12 11  1  0  0  0  0
 13  2  1  0  0  0  0
 13 18  1  0  0  0  0
 14 15  1  0  0  0  0
 14 20  1  0  0  0  0
 15 21  1  0  0  0  0
 16 22  1  0  0  0  0
 16 15  2  0  0  0  0
 17 16  1  0  0  0  0
 18 17  2  0  0  0  0
 18 19  1  0  0  0  0
 19 14  2  0  0  0  0
 23 26  1  0  0  0  0
 23  5  1  0  0  0  0
 24 25  1  0  0  0  0
 25 30  2  0  0  0  0
 25 26  1  0  0  0  0
 26 27  2  0  0  0  0
 27 28  1  0  0  0  0
 27 31  1  0  0  0  0
 28 32  1  0  0  0  0
 29 33  1  0  0  0  0
 29 28  2  0  0  0  0
 30 29  1  0  0  0  0
 34 41  1  0  0  0  0
 34 30  1  0  0  0  0
 35 34  2  0  0  0  0
 36 35  1  0  0  0  0
 37 35  1  0  0  0  0
 37 39  2  0  0  0  0
 38 37  1  0  0  0  0
 39 40  1  0  0  0  0
 39 41  1  0  0  0  0
M  END
>  <minimizedAffinity>
-5.08105135

>  <minimizedRMSD>
0.250426829

$$$$
