
     RDKit          3D

 20 21  0  0  0  0  0  0  0  0999 V2000
   38.3083   31.2394   50.1294 C   0  0  0  0  0  0  0  0  0  0  0  0
   38.2869   31.6167   48.7654 C   0  0  0  0  0  0  0  0  0  0  0  0
   37.1989   31.2239   47.9995 C   0  0  0  0  0  0  0  0  0  0  0  0
   36.2081   30.4996   48.5876 N   0  0  0  0  0  0  0  0  0  0  0  0
   36.2672   30.1608   49.8928 C   0  0  0  0  0  0  0  0  0  0  0  0
   37.3052   30.5254   50.6576 N   0  0  0  0  0  0  0  0  0  0  0  0
   35.1382   29.3754   50.4448 C   0  0  0  0  0  0  0  0  0  0  0  0
   35.2607   29.1286   51.8032 F   0  0  0  0  0  0  0  0  0  0  0  0
   33.9250   30.0675   50.2948 F   0  0  0  0  0  0  0  0  0  0  0  0
   34.9506   28.1746   49.8289 F   0  0  0  0  0  0  0  0  0  0  0  0
   39.1422   31.5295   50.7537 H   0  0  0  0  0  0  0  0  0  0  0  0
   39.0981   32.1948   48.3366 H   0  0  0  0  0  0  0  0  0  0  0  0
   37.1232   31.5839   46.5884 C   0  0  0  0  0  0  0  0  0  0  0  0
   35.9824   31.5095   45.8171 C   0  0  0  0  0  0  0  0  0  0  0  0
   34.9941   31.1803   46.1356 H   0  0  0  0  0  0  0  0  0  0  0  0
   36.4398   31.9562   44.5724 C   0  0  0  0  0  0  0  0  0  0  0  0
   35.7836   32.0291   43.6976 H   0  0  0  0  0  0  0  0  0  0  0  0
   37.7809   32.2650   44.6544 C   0  0  0  0  0  0  0  0  0  0  0  0
   38.4002   32.6398   43.8265 H   0  0  0  0  0  0  0  0  0  0  0  0
   38.1525   32.0216   45.9029 O   0  0  0  0  0  0  0  0  0  0  0  0
  1  6  2  0
  2  1  1  0
  3  4  1  0
  3  2  2  0
  4  5  2  0
  5  7  1  0
  5  6  1  0
  7  8  1  0
  9  7  1  0
 10  7  1  0
  1 11  1  0
  2 12  1  0
 13 14  2  0
 14 15  1  0
 14 16  1  0
 16 17  1  0
 16 18  2  0
 18 19  1  0
 18 20  1  0
 20 13  1  0
  3 13  1  0
M  ISO  5  11  14  12  14  15  16  17  16  19  14
M  END
>  <DihAtoms>  (1) 
3,2,12,13

>  <DihDeg>  (1) 
-0.0014230495518466862

$$$$
