
 OpenBabel03272506243D

 30 32  0  0  0  0  0  0  0  0999 V2000
   38.1700   30.7140   47.1070 C   0  0  0  0  0  0  0  0  0  0  0  0
   38.2840   29.8420   46.0460 C   0  0  0  0  0  0  0  0  0  0  0  0
   38.9720   30.1140   44.8720 C   0  0  0  0  0  0  0  0  0  0  0  0
   39.5990   31.3650   44.7450 C   0  0  0  0  0  0  0  0  0  0  0  0
   39.4840   32.2450   45.8160 C   0  0  0  0  0  0  0  0  0  0  0  0
   38.7980   31.9520   46.9690 C   0  0  0  0  0  0  0  0  0  0  0  0
   37.8290   28.8580   46.0680 H   0  0  0  0  0  0  0  0  0  0  0  0
   39.0390   29.4030   44.0600 H   0  0  0  0  0  0  0  0  0  0  0  0
   40.1530   31.6550   43.8650 H   0  0  0  0  0  0  0  0  0  0  0  0
   39.9710   33.2180   45.7190 H   0  0  0  0  0  0  0  0  0  0  0  0
   38.1510   30.0570   49.4520 C   0  0  0  0  0  0  0  0  0  0  0  0
   37.4190   30.2620   48.2440 C   0  0  0  0  0  0  0  0  0  0  0  0
   36.0550   30.0070   48.2690 C   0  0  0  0  0  0  0  0  0  0  0  0
   35.4780   29.5780   49.4330 N   0  0  0  0  0  0  0  0  0  0  0  0
   36.2150   29.3940   50.5760 C   0  0  0  0  0  0  0  0  0  0  0  0
   37.5480   29.6350   50.5800 N   0  0  0  0  0  0  0  0  0  0  0  0
   39.2140   30.2460   49.4650 H   0  0  0  0  0  0  0  0  0  0  0  0
   35.6280   29.0510   51.4220 H   0  0  0  0  0  0  0  0  0  0  0  0
   35.1720   30.1750   47.0910 C   0  0  0  0  0  0  0  0  0  0  0  0
   33.9290   30.7070   47.5060 F   0  0  0  0  0  0  0  0  0  0  0  0
   35.6510   30.9380   46.0880 F   0  0  0  0  0  0  0  0  0  0  0  0
   34.8200   28.9190   46.5840 F   0  0  0  0  0  0  0  0  0  0  0  0
   38.6770   32.8670   48.0840 C   0  0  0  0  0  0  0  0  0  0  0  0
   39.6930   33.7010   48.5620 C   0  0  0  0  0  0  0  0  0  0  0  0
   40.6980   33.8000   48.1940 H   0  0  0  0  0  0  0  0  0  0  0  0
   39.1830   34.4260   49.6450 C   0  0  0  0  0  0  0  0  0  0  0  0
   39.7440   35.1550   50.2180 H   0  0  0  0  0  0  0  0  0  0  0  0
   37.8760   33.9830   49.7570 C   0  0  0  0  0  0  0  0  0  0  0  0
   37.2440   34.3970   50.5390 H   0  0  0  0  0  0  0  0  0  0  0  0
   37.6260   33.0910   48.8460 O   0  0  0  0  0  0  0  0  0  0  0  0
  1 12  1  0  0  0  0
  2  7  1  0  0  0  0
  2  1  2  0  0  0  0
  3  2  1  0  0  0  0
  4  3  2  0  0  0  0
  4  5  1  0  0  0  0
  5  6  2  0  0  0  0
  6  1  1  0  0  0  0
  6 23  1  0  0  0  0
  8  3  1  0  0  0  0
  9  4  1  0  0  0  0
 10  5  1  0  0  0  0
 11 17  1  0  0  0  0
 11 16  1  0  0  0  0
 12 13  1  0  0  0  0
 12 11  2  0  0  0  0
 13 14  2  0  0  0  0
 14 15  1  0  0  0  0
 15 16  2  0  0  0  0
 15 18  1  0  0  0  0
 19 20  1  0  0  0  0
 19 13  1  0  0  0  0
 21 19  1  0  0  0  0
 22 19  1  0  0  0  0
 23 24  2  0  0  0  0
 23 30  1  0  0  0  0
 24 26  1  0  0  0  0
 25 24  1  0  0  0  0
 26 28  2  0  0  0  0
 26 27  1  0  0  0  0
 28 29  1  0  0  0  0
 30 28  1  0  0  0  0
M  END
>  <minimizedAffinity>
-4.46643305

>  <minimizedRMSD>
1.56169593

$$$$
