
 OpenBabel03272500153D

 30 32  0  0  0  0  0  0  0  0999 V2000
   32.9080   30.9680   46.5270 Cl  0  0  0  0  0  0  0  0  0  0  0  0
   32.9860   29.3170   47.0740 C   0  0  0  0  0  0  0  0  0  0  0  0
   34.0810   28.8890   47.8330 C   0  0  0  0  0  0  0  0  0  0  0  0
   34.1840   27.5790   48.2950 C   0  0  0  0  0  0  0  0  0  0  0  0
   33.1440   26.7130   47.9660 C   0  0  0  0  0  0  0  0  0  0  0  0
   32.0620   27.1100   47.2240 C   0  0  0  0  0  0  0  0  0  0  0  0
   30.8200   25.9300   46.8860 Cl  0  0  0  0  0  0  0  0  0  0  0  0
   31.9820   28.4420   46.7690 C   0  0  0  0  0  0  0  0  0  0  0  0
   35.0020   27.2180   48.8730 H   0  0  0  0  0  0  0  0  0  0  0  0
   33.2020   25.6920   48.3130 H   0  0  0  0  0  0  0  0  0  0  0  0
   36.2610   31.1920   49.7080 C   0  0  0  0  0  0  0  0  0  0  0  0
   37.2110   31.5320   48.7280 C   0  0  0  0  0  0  0  0  0  0  0  0
   37.0980   30.9770   47.4520 C   0  0  0  0  0  0  0  0  0  0  0  0
   36.0590   30.1240   47.2250 N   0  0  0  0  0  0  0  0  0  0  0  0
   35.1550   29.8050   48.1650 C   0  0  0  0  0  0  0  0  0  0  0  0
   35.2560   30.3320   49.3930 N   0  0  0  0  0  0  0  0  0  0  0  0
   36.3680   31.6350   50.6910 H   0  0  0  0  0  0  0  0  0  0  0  0
   37.8230   31.2380   46.7070 H   0  0  0  0  0  0  0  0  0  0  0  0
   38.3020   32.4810   49.1100 C   0  0  0  0  0  0  0  0  0  0  0  0
   39.1990   32.6390   48.0500 F   0  0  0  0  0  0  0  0  0  0  0  0
   37.7460   33.7100   49.3700 F   0  0  0  0  0  0  0  0  0  0  0  0
   39.0010   32.0720   50.2290 F   0  0  0  0  0  0  0  0  0  0  0  0
   30.7860   28.7450   45.9910 C   0  0  0  0  0  0  0  0  0  0  0  0
   30.5450   28.6940   44.6420 C   0  0  0  0  0  0  0  0  0  0  0  0
   31.2130   28.4080   43.8540 H   0  0  0  0  0  0  0  0  0  0  0  0
   29.2610   29.0680   44.3220 C   0  0  0  0  0  0  0  0  0  0  0  0
   28.7510   29.1390   43.3730 H   0  0  0  0  0  0  0  0  0  0  0  0
   28.7380   29.3510   45.5640 C   0  0  0  0  0  0  0  0  0  0  0  0
   27.7460   29.6890   45.8380 H   0  0  0  0  0  0  0  0  0  0  0  0
   29.6520   29.1480   46.4590 O   0  0  0  0  0  0  0  0  0  0  0  0
  1  2  1  0  0  0  0
  2  3  1  0  0  0  0
  3 15  1  0  0  0  0
  3  4  2  0  0  0  0
  4  9  1  0  0  0  0
  5  4  1  0  0  0  0
  5 10  1  0  0  0  0
  6  5  2  0  0  0  0
  7  6  1  0  0  0  0
  8  2  2  0  0  0  0
  8  6  1  0  0  0  0
 11 17  1  0  0  0  0
 12 19  1  0  0  0  0
 12 11  2  0  0  0  0
 13 12  1  0  0  0  0
 14 13  2  0  0  0  0
 14 15  1  0  0  0  0
 15 16  2  0  0  0  0
 16 11  1  0  0  0  0
 18 13  1  0  0  0  0
 19 21  1  0  0  0  0
 19 22  1  0  0  0  0
 20 19  1  0  0  0  0
 23 30  1  0  0  0  0
 23  8  1  0  0  0  0
 24 23  2  0  0  0  0
 25 24  1  0  0  0  0
 26 24  1  0  0  0  0
 26 28  2  0  0  0  0
 27 26  1  0  0  0  0
 28 29  1  0  0  0  0
 28 30  1  0  0  0  0
M  END
>  <minimizedAffinity>
-5.56202698

>  <minimizedRMSD>
1.7387861

$$$$
