
 OpenBabel03272509543D

 42 45  0  0  0  0  0  0  0  0999 V2000
   34.0350   29.0460   48.0700 C   0  0  0  0  0  0  0  0  0  0  0  0
   33.3520   29.5910   48.7700 H   0  0  0  0  0  0  0  0  0  0  0  0
   34.4970   29.8080   47.4210 H   0  0  0  0  0  0  0  0  0  0  0  0
   33.2090   28.0420   47.3300 C   0  0  0  0  0  0  0  0  0  0  0  0
   33.6330   27.0240   47.3100 H   0  0  0  0  0  0  0  0  0  0  0  0
   33.1860   28.3650   46.2540 H   0  0  0  0  0  0  0  0  0  0  0  0
   31.7960   28.0320   47.7690 C   0  0  0  0  0  0  0  0  0  0  0  0
   31.5130   27.7290   49.0930 C   0  0  0  0  0  0  0  0  0  0  0  0
   30.2540   27.6890   49.6090 C   0  0  0  0  0  0  0  0  0  0  0  0
   29.2490   27.9560   48.7990 N   0  0  0  0  0  0  0  0  0  0  0  0
   29.4930   28.2590   47.4880 C   0  0  0  0  0  0  0  0  0  0  0  0
   30.7390   28.3020   46.9600 N   0  0  0  0  0  0  0  0  0  0  0  0
   32.3600   27.5070   49.7620 H   0  0  0  0  0  0  0  0  0  0  0  0
   30.0130   27.4570   50.6330 H   0  0  0  0  0  0  0  0  0  0  0  0
   28.3390   28.5490   46.6270 C   0  0  0  0  0  0  0  0  0  0  0  0
   27.2680   27.7190   46.3750 C   0  0  0  0  0  0  0  0  0  0  0  0
   27.0860   26.7250   46.7530 H   0  0  0  0  0  0  0  0  0  0  0  0
   26.4050   28.3890   45.5080 C   0  0  0  0  0  0  0  0  0  0  0  0
   25.4700   28.1040   45.0690 H   0  0  0  0  0  0  0  0  0  0  0  0
   27.0050   29.6070   45.2770 C   0  0  0  0  0  0  0  0  0  0  0  0
   26.6070   30.4000   44.6390 H   0  0  0  0  0  0  0  0  0  0  0  0
   28.1280   29.6520   45.9520 O   0  0  0  0  0  0  0  0  0  0  0  0
   34.9970   28.3890   48.8750 O   0  0  0  0  0  0  0  0  0  0  0  0
   37.1250   30.0220   51.3010 C   0  0  0  0  0  0  0  0  0  0  0  0
   37.9460   30.8000   50.4250 C   0  0  0  0  0  0  0  0  0  0  0  0
   37.7040   30.7000   49.0770 C   0  0  0  0  0  0  0  0  0  0  0  0
   36.6930   29.8620   48.6910 N   0  0  0  0  0  0  0  0  0  0  0  0
   35.9400   29.1480   49.5110 C   0  0  0  0  0  0  0  0  0  0  0  0
   36.1670   29.2360   50.8440 N   0  0  0  0  0  0  0  0  0  0  0  0
   37.3410   30.1230   52.3610 H   0  0  0  0  0  0  0  0  0  0  0  0
   38.7380   31.4550   50.7490 H   0  0  0  0  0  0  0  0  0  0  0  0
   38.7930   33.3760   49.1690 F   0  0  0  0  0  0  0  0  0  0  0  0
   38.9430   32.6580   48.0690 C   0  0  0  0  0  0  0  0  0  0  0  0
   38.4250   31.4030   48.0430 C   0  0  0  0  0  0  0  0  0  0  0  0
   38.6400   30.7360   46.8350 C   0  0  0  0  0  0  0  0  0  0  0  0
   39.3100   31.2920   45.7730 C   0  0  0  0  0  0  0  0  0  0  0  0
   39.8180   32.5690   45.8460 C   0  0  0  0  0  0  0  0  0  0  0  0
   39.6200   33.2530   47.0290 C   0  0  0  0  0  0  0  0  0  0  0  0
   38.2910   29.7210   46.6460 H   0  0  0  0  0  0  0  0  0  0  0  0
   39.4750   30.7730   44.8410 H   0  0  0  0  0  0  0  0  0  0  0  0
   40.3430   33.0230   45.0340 H   0  0  0  0  0  0  0  0  0  0  0  0
   40.0090   34.2570   47.1100 H   0  0  0  0  0  0  0  0  0  0  0  0
  1  2  1  0  0  0  0
  1 23  1  0  0  0  0
  3  1  1  0  0  0  0
  4  7  1  0  0  0  0
  4  1  1  0  0  0  0
  5  4  1  0  0  0  0
  6  4  1  0  0  0  0
  7  8  1  0  0  0  0
  8  9  2  0  0  0  0
  8 13  1  0  0  0  0
  9 14  1  0  0  0  0
 10  9  1  0  0  0  0
 11 10  2  0  0  0  0
 12 11  1  0  0  0  0
 12  7  2  0  0  0  0
 15 11  1  0  0  0  0
 16 15  2  0  0  0  0
 16 17  1  0  0  0  0
 18 16  1  0  0  0  0
 19 18  1  0  0  0  0
 20 18  2  0  0  0  0
 20 22  1  0  0  0  0
 21 20  1  0  0  0  0
 22 15  1  0  0  0  0
 23 28  1  0  0  0  0
 24 30  1  0  0  0  0
 25 31  1  0  0  0  0
 25 24  2  0  0  0  0
 26 25  1  0  0  0  0
 27 26  2  0  0  0  0
 27 28  1  0  0  0  0
 28 29  2  0  0  0  0
 29 24  1  0  0  0  0
 33 32  1  0  0  0  0
 34 33  1  0  0  0  0
 34 26  1  0  0  0  0
 35 34  2  0  0  0  0
 36 37  2  0  0  0  0
 36 35  1  0  0  0  0
 37 38  1  0  0  0  0
 38 42  1  0  0  0  0
 38 33  2  0  0  0  0
 39 35  1  0  0  0  0
 40 36  1  0  0  0  0
 41 37  1  0  0  0  0
M  END
>  <minimizedAffinity>
-6.68142223

>  <minimizedRMSD>
1.16664422

$$$$
