
 OpenBabel03272503103D

 44 48  0  0  0  0  0  0  0  0999 V2000
   39.2450   31.9400   44.9660 C   0  0  0  0  0  0  0  0  0  0  0  0
   38.1610   32.5770   45.0950 O   0  0  0  0  0  0  0  0  0  0  0  0
   39.9450   31.6730   46.1740 N   0  0  0  0  0  0  0  0  0  0  0  0
   40.8360   31.1530   46.1120 H   0  0  0  0  0  0  0  0  0  0  0  0
   39.1590   32.2600   42.5880 C   0  0  0  0  0  0  0  0  0  0  0  0
   39.6850   31.5420   43.6490 C   0  0  0  0  0  0  0  0  0  0  0  0
   40.5830   30.4980   43.4810 C   0  0  0  0  0  0  0  0  0  0  0  0
   40.9680   30.1620   42.1900 C   0  0  0  0  0  0  0  0  0  0  0  0
   41.8060   29.2140   41.7300 N   0  0  0  0  0  0  0  0  0  0  0  0
   41.8220   29.3180   40.4030 C   0  0  0  0  0  0  0  0  0  0  0  0
   41.0060   30.3170   40.0310 N   0  0  0  0  0  0  0  0  0  0  0  0
   40.4470   30.8740   41.1360 C   0  0  0  0  0  0  0  0  0  0  0  0
   39.5600   31.9070   41.2980 C   0  0  0  0  0  0  0  0  0  0  0  0
   38.4650   33.0700   42.7000 H   0  0  0  0  0  0  0  0  0  0  0  0
   40.9440   29.9900   44.3650 H   0  0  0  0  0  0  0  0  0  0  0  0
   42.3420   28.5300   42.3110 H   0  0  0  0  0  0  0  0  0  0  0  0
   42.4180   28.6720   39.7650 H   0  0  0  0  0  0  0  0  0  0  0  0
   39.0110   32.6580   40.1770 C   0  0  0  0  0  0  0  0  0  0  0  0
   38.1190   33.7240   40.3150 C   0  0  0  0  0  0  0  0  0  0  0  0
   37.6870   34.1800   41.1690 H   0  0  0  0  0  0  0  0  0  0  0  0
   37.8980   34.0960   38.9850 C   0  0  0  0  0  0  0  0  0  0  0  0
   37.2300   34.9230   38.7300 H   0  0  0  0  0  0  0  0  0  0  0  0
   38.6240   33.2850   38.1380 C   0  0  0  0  0  0  0  0  0  0  0  0
   38.6500   33.3380   37.0550 H   0  0  0  0  0  0  0  0  0  0  0  0
   39.2630   32.4510   38.9230 O   0  0  0  0  0  0  0  0  0  0  0  0
   38.1040   30.1660   47.5060 F   0  0  0  0  0  0  0  0  0  0  0  0
   38.3640   31.4020   48.0070 C   0  0  0  0  0  0  0  0  0  0  0  0
   37.7060   31.8300   49.1320 C   0  0  0  0  0  0  0  0  0  0  0  0
   38.0210   33.0860   49.5760 C   0  0  0  0  0  0  0  0  0  0  0  0
   38.9390   33.9030   48.9560 C   0  0  0  0  0  0  0  0  0  0  0  0
   39.5830   33.4380   47.8230 C   0  0  0  0  0  0  0  0  0  0  0  0
   39.2920   32.1790   47.3450 C   0  0  0  0  0  0  0  0  0  0  0  0
   37.5140   33.4510   50.4680 H   0  0  0  0  0  0  0  0  0  0  0  0
   39.1740   34.8960   49.3250 H   0  0  0  0  0  0  0  0  0  0  0  0
   40.3160   34.0390   47.2940 H   0  0  0  0  0  0  0  0  0  0  0  0
   36.0680   29.3320   51.4540 C   0  0  0  0  0  0  0  0  0  0  0  0
   37.0280   30.1930   50.8810 C   0  0  0  0  0  0  0  0  0  0  0  0
   36.7460   30.9330   49.7530 C   0  0  0  0  0  0  0  0  0  0  0  0
   35.4930   30.7890   49.2200 N   0  0  0  0  0  0  0  0  0  0  0  0
   34.5750   29.9640   49.7680 C   0  0  0  0  0  0  0  0  0  0  0  0
   34.8610   29.2540   50.8610 N   0  0  0  0  0  0  0  0  0  0  0  0
   36.3300   28.7670   52.3440 H   0  0  0  0  0  0  0  0  0  0  0  0
   38.0010   30.2650   51.3480 H   0  0  0  0  0  0  0  0  0  0  0  0
   33.5930   29.8690   49.3270 H   0  0  0  0  0  0  0  0  0  0  0  0
  1  2  2  0  0  0  0
  1  3  1  0  0  0  0
  3 32  1  0  0  0  0
  4  3  1  0  0  0  0
  5 14  1  0  0  0  0
  5  6  1  0  0  0  0
  6  1  1  0  0  0  0
  7  6  2  0  0  0  0
  7 15  1  0  0  0  0
  8  7  1  0  0  0  0
  9  8  1  0  0  0  0
  9 16  1  0  0  0  0
 10  9  1  0  0  0  0
 11 10  2  0  0  0  0
 11 12  1  0  0  0  0
 12 13  1  0  0  0  0
 12  8  2  0  0  0  0
 13  5  2  0  0  0  0
 17 10  1  0  0  0  0
 18 19  2  0  0  0  0
 18 13  1  0  0  0  0
 19 20  1  0  0  0  0
 21 19  1  0  0  0  0
 22 21  1  0  0  0  0
 23 25  1  0  0  0  0
 23 21  2  0  0  0  0
 24 23  1  0  0  0  0
 25 18  1  0  0  0  0
 26 27  1  0  0  0  0
 27 28  1  0  0  0  0
 28 29  2  0  0  0  0
 28 38  1  0  0  0  0
 29 33  1  0  0  0  0
 30 34  1  0  0  0  0
 30 29  1  0  0  0  0
 31 30  2  0  0  0  0
 32 31  1  0  0  0  0
 32 27  2  0  0  0  0
 35 31  1  0  0  0  0
 36 42  1  0  0  0  0
 37 43  1  0  0  0  0
 37 36  1  0  0  0  0
 38 37  2  0  0  0  0
 39 38  1  0  0  0  0
 39 40  2  0  0  0  0
 40 41  1  0  0  0  0
 41 36  2  0  0  0  0
 44 40  1  0  0  0  0
M  END
>  <minimizedAffinity>
-7.51116467

>  <minimizedRMSD>
0.0680152774

$$$$
