
 OpenBabel03272503113D

 44 48  0  0  0  0  0  0  0  0999 V2000
   38.0940   26.2650   35.0490 C   0  0  0  0  0  0  0  0  0  0  0  0
   38.9010   26.7040   35.9170 O   0  0  0  0  0  0  0  0  0  0  0  0
   37.8190   24.8720   35.1180 N   0  0  0  0  0  0  0  0  0  0  0  0
   37.1630   24.4730   34.4260 H   0  0  0  0  0  0  0  0  0  0  0  0
   36.5040   27.9910   34.5380 C   0  0  0  0  0  0  0  0  0  0  0  0
   37.5250   27.1740   34.0810 C   0  0  0  0  0  0  0  0  0  0  0  0
   37.9920   27.2100   32.7750 C   0  0  0  0  0  0  0  0  0  0  0  0
   37.4060   28.1060   31.8900 C   0  0  0  0  0  0  0  0  0  0  0  0
   37.6450   28.3580   30.5900 N   0  0  0  0  0  0  0  0  0  0  0  0
   36.8000   29.3150   30.2160 C   0  0  0  0  0  0  0  0  0  0  0  0
   36.0370   29.6620   31.2650 N   0  0  0  0  0  0  0  0  0  0  0  0
   36.3920   28.9160   32.3430 C   0  0  0  0  0  0  0  0  0  0  0  0
   35.9290   28.8840   33.6330 C   0  0  0  0  0  0  0  0  0  0  0  0
   36.1320   27.9760   35.5440 H   0  0  0  0  0  0  0  0  0  0  0  0
   38.7940   26.5370   32.5020 H   0  0  0  0  0  0  0  0  0  0  0  0
   38.3630   27.8880   29.9930 H   0  0  0  0  0  0  0  0  0  0  0  0
   36.7700   29.7180   29.2080 H   0  0  0  0  0  0  0  0  0  0  0  0
   34.8530   29.7460   34.1060 C   0  0  0  0  0  0  0  0  0  0  0  0
   35.0350   30.7890   35.0180 C   0  0  0  0  0  0  0  0  0  0  0  0
   35.8970   31.1510   35.5180 H   0  0  0  0  0  0  0  0  0  0  0  0
   33.7380   31.2970   35.1450 C   0  0  0  0  0  0  0  0  0  0  0  0
   33.5210   32.1440   35.8010 H   0  0  0  0  0  0  0  0  0  0  0  0
   32.8680   30.5820   34.3480 C   0  0  0  0  0  0  0  0  0  0  0  0
   31.8010   30.7480   34.2430 H   0  0  0  0  0  0  0  0  0  0  0  0
   33.6080   29.6730   33.7600 O   0  0  0  0  0  0  0  0  0  0  0  0
   40.3110   23.8440   34.7110 F   0  0  0  0  0  0  0  0  0  0  0  0
   39.7750   23.6830   35.9500 C   0  0  0  0  0  0  0  0  0  0  0  0
   40.4910   23.0260   36.9180 C   0  0  0  0  0  0  0  0  0  0  0  0
   39.8850   22.9030   38.1390 C   0  0  0  0  0  0  0  0  0  0  0  0
   38.6310   23.3960   38.4180 C   0  0  0  0  0  0  0  0  0  0  0  0
   37.9380   24.0520   37.4170 C   0  0  0  0  0  0  0  0  0  0  0  0
   38.5140   24.1960   36.1730 C   0  0  0  0  0  0  0  0  0  0  0  0
   40.4320   22.3850   38.9270 H   0  0  0  0  0  0  0  0  0  0  0  0
   38.1690   23.2870   39.3940 H   0  0  0  0  0  0  0  0  0  0  0  0
   36.9450   24.4610   37.5800 H   0  0  0  0  0  0  0  0  0  0  0  0
   44.1730   22.8160   36.0710 C   0  0  0  0  0  0  0  0  0  0  0  0
   42.9060   23.3420   36.4020 C   0  0  0  0  0  0  0  0  0  0  0  0
   41.8110   22.5230   36.5770 C   0  0  0  0  0  0  0  0  0  0  0  0
   42.0160   21.1800   36.4130 N   0  0  0  0  0  0  0  0  0  0  0  0
   43.2290   20.6770   36.0950 C   0  0  0  0  0  0  0  0  0  0  0  0
   44.2800   21.4810   35.9300 N   0  0  0  0  0  0  0  0  0  0  0  0
   45.0100   23.4970   35.9430 H   0  0  0  0  0  0  0  0  0  0  0  0
   42.8070   24.4130   36.5190 H   0  0  0  0  0  0  0  0  0  0  0  0
   43.3630   19.6110   35.9720 H   0  0  0  0  0  0  0  0  0  0  0  0
  1  3  1  0  0  0  0
  1  2  2  0  0  0  0
  3 32  1  0  0  0  0
  4  3  1  0  0  0  0
  5 14  1  0  0  0  0
  6  5  1  0  0  0  0
  6  1  1  0  0  0  0
  7  6  2  0  0  0  0
  8 12  2  0  0  0  0
  8  7  1  0  0  0  0
  9  8  1  0  0  0  0
 10  9  1  0  0  0  0
 10 11  2  0  0  0  0
 11 12  1  0  0  0  0
 12 13  1  0  0  0  0
 13 18  1  0  0  0  0
 13  5  2  0  0  0  0
 15  7  1  0  0  0  0
 16  9  1  0  0  0  0
 17 10  1  0  0  0  0
 18 19  2  0  0  0  0
 19 21  1  0  0  0  0
 19 20  1  0  0  0  0
 21 22  1  0  0  0  0
 23 21  2  0  0  0  0
 24 23  1  0  0  0  0
 25 18  1  0  0  0  0
 25 23  1  0  0  0  0
 26 27  1  0  0  0  0
 27 32  2  0  0  0  0
 27 28  1  0  0  0  0
 28 29  2  0  0  0  0
 29 30  1  0  0  0  0
 29 33  1  0  0  0  0
 30 34  1  0  0  0  0
 31 35  1  0  0  0  0
 31 30  2  0  0  0  0
 32 31  1  0  0  0  0
 36 37  1  0  0  0  0
 37 43  1  0  0  0  0
 37 38  2  0  0  0  0
 38 28  1  0  0  0  0
 39 38  1  0  0  0  0
 40 39  2  0  0  0  0
 41 36  2  0  0  0  0
 41 40  1  0  0  0  0
 42 36  1  0  0  0  0
 44 40  1  0  0  0  0
M  END
>  <minimizedAffinity>
-6.99038219

$$$$

 OpenBabel03272503113D

 44 48  0  0  0  0  0  0  0  0999 V2000
   37.8950   26.4620   35.0850 C   0  0  0  0  0  0  0  0  0  0  0  0
   38.6490   26.8780   36.0120 O   0  0  0  0  0  0  0  0  0  0  0  0
   37.6880   25.0570   35.0500 N   0  0  0  0  0  0  0  0  0  0  0  0
   37.0780   24.6760   34.3080 H   0  0  0  0  0  0  0  0  0  0  0  0
   37.8500   27.4150   32.8820 C   0  0  0  0  0  0  0  0  0  0  0  0
   37.3170   27.4080   34.1600 C   0  0  0  0  0  0  0  0  0  0  0  0
   36.2850   28.2510   34.5500 C   0  0  0  0  0  0  0  0  0  0  0  0
   35.7700   29.1380   33.6150 C   0  0  0  0  0  0  0  0  0  0  0  0
   34.7900   30.0560   33.7050 N   0  0  0  0  0  0  0  0  0  0  0  0
   34.6920   30.6410   32.5150 C   0  0  0  0  0  0  0  0  0  0  0  0
   35.5980   30.1010   31.6840 N   0  0  0  0  0  0  0  0  0  0  0  0
   36.3000   29.1450   32.3470 C   0  0  0  0  0  0  0  0  0  0  0  0
   37.3180   28.3140   31.9570 C   0  0  0  0  0  0  0  0  0  0  0  0
   38.6470   26.7710   32.5630 H   0  0  0  0  0  0  0  0  0  0  0  0
   35.9280   28.1790   35.5690 H   0  0  0  0  0  0  0  0  0  0  0  0
   34.2160   30.2640   34.5550 H   0  0  0  0  0  0  0  0  0  0  0  0
   33.9760   31.4290   32.2980 H   0  0  0  0  0  0  0  0  0  0  0  0
   37.8750   28.3270   30.6100 C   0  0  0  0  0  0  0  0  0  0  0  0
   39.1620   27.8870   30.2950 C   0  0  0  0  0  0  0  0  0  0  0  0
   39.9410   27.4880   30.8940 H   0  0  0  0  0  0  0  0  0  0  0  0
   39.2150   28.0980   28.9130 C   0  0  0  0  0  0  0  0  0  0  0  0
   40.1090   27.8530   28.3350 H   0  0  0  0  0  0  0  0  0  0  0  0
   38.0230   28.6300   28.4690 C   0  0  0  0  0  0  0  0  0  0  0  0
   37.7740   28.8970   27.4480 H   0  0  0  0  0  0  0  0  0  0  0  0
   37.2730   28.7380   29.5400 O   0  0  0  0  0  0  0  0  0  0  0  0
   40.1820   24.0430   34.6160 F   0  0  0  0  0  0  0  0  0  0  0  0
   39.6410   23.8370   35.8460 C   0  0  0  0  0  0  0  0  0  0  0  0
   40.3530   23.1460   36.7930 C   0  0  0  0  0  0  0  0  0  0  0  0
   39.7420   22.9790   38.0070 C   0  0  0  0  0  0  0  0  0  0  0  0
   38.4870   23.4620   38.2980 C   0  0  0  0  0  0  0  0  0  0  0  0
   37.7980   24.1540   37.3180 C   0  0  0  0  0  0  0  0  0  0  0  0
   38.3790   24.3430   36.0830 C   0  0  0  0  0  0  0  0  0  0  0  0
   40.2850   22.4340   38.7770 H   0  0  0  0  0  0  0  0  0  0  0  0
   38.0210   23.3190   39.2670 H   0  0  0  0  0  0  0  0  0  0  0  0
   36.8050   24.5580   37.4920 H   0  0  0  0  0  0  0  0  0  0  0  0
   44.0710   22.9310   36.1240 C   0  0  0  0  0  0  0  0  0  0  0  0
   42.8040   23.4440   36.4750 C   0  0  0  0  0  0  0  0  0  0  0  0
   41.6740   22.6550   36.4390 C   0  0  0  0  0  0  0  0  0  0  0  0
   41.8450   21.3550   36.0480 N   0  0  0  0  0  0  0  0  0  0  0  0
   43.0570   20.8640   35.7120 C   0  0  0  0  0  0  0  0  0  0  0  0
   44.1420   21.6390   35.7510 N   0  0  0  0  0  0  0  0  0  0  0  0
   44.9360   23.5870   36.1660 H   0  0  0  0  0  0  0  0  0  0  0  0
   42.7330   24.4810   36.7760 H   0  0  0  0  0  0  0  0  0  0  0  0
   43.1630   19.8320   35.4060 H   0  0  0  0  0  0  0  0  0  0  0  0
  1  2  2  0  0  0  0
  3  1  1  0  0  0  0
  3 32  1  0  0  0  0
  4  3  1  0  0  0  0
  5  6  1  0  0  0  0
  6  7  2  0  0  0  0
  6  1  1  0  0  0  0
  7 15  1  0  0  0  0
  8  9  1  0  0  0  0
  8  7  1  0  0  0  0
  9 16  1  0  0  0  0
 10  9  1  0  0  0  0
 11 12  1  0  0  0  0
 11 10  2  0  0  0  0
 12  8  2  0  0  0  0
 13 12  1  0  0  0  0
 13  5  2  0  0  0  0
 14  5  1  0  0  0  0
 17 10  1  0  0  0  0
 18 13  1  0  0  0  0
 19 18  2  0  0  0  0
 19 20  1  0  0  0  0
 21 19  1  0  0  0  0
 22 21  1  0  0  0  0
 23 21  2  0  0  0  0
 23 25  1  0  0  0  0
 24 23  1  0  0  0  0
 25 18  1  0  0  0  0
 26 27  1  0  0  0  0
 27 32  2  0  0  0  0
 27 28  1  0  0  0  0
 28 29  2  0  0  0  0
 29 30  1  0  0  0  0
 29 33  1  0  0  0  0
 30 34  1  0  0  0  0
 31 35  1  0  0  0  0
 31 30  2  0  0  0  0
 32 31  1  0  0  0  0
 36 42  1  0  0  0  0
 36 37  1  0  0  0  0
 37 43  1  0  0  0  0
 38 37  2  0  0  0  0
 38 28  1  0  0  0  0
 39 38  1  0  0  0  0
 40 41  1  0  0  0  0
 40 39  2  0  0  0  0
 41 36  2  0  0  0  0
 44 40  1  0  0  0  0
M  END
>  <minimizedAffinity>
-6.68875647

$$$$

 OpenBabel03272503113D

 44 48  0  0  0  0  0  0  0  0999 V2000
   37.3270   26.5380   34.4360 C   0  0  0  0  0  0  0  0  0  0  0  0
   37.2650   25.4490   33.7960 O   0  0  0  0  0  0  0  0  0  0  0  0
   37.9580   26.4650   35.7080 N   0  0  0  0  0  0  0  0  0  0  0  0
   38.0300   27.3330   36.2630 H   0  0  0  0  0  0  0  0  0  0  0  0
   36.2510   28.6620   34.7450 C   0  0  0  0  0  0  0  0  0  0  0  0
   36.7730   27.7380   33.8550 C   0  0  0  0  0  0  0  0  0  0  0  0
   36.7750   27.9330   32.4810 C   0  0  0  0  0  0  0  0  0  0  0  0
   36.2290   29.1090   31.9810 C   0  0  0  0  0  0  0  0  0  0  0  0
   36.0950   29.5620   30.7210 N   0  0  0  0  0  0  0  0  0  0  0  0
   35.5010   30.7500   30.7950 C   0  0  0  0  0  0  0  0  0  0  0  0
   35.2640   31.0430   32.0840 N   0  0  0  0  0  0  0  0  0  0  0  0
   35.7110   30.0260   32.8650 C   0  0  0  0  0  0  0  0  0  0  0  0
   35.7070   29.8370   34.2220 C   0  0  0  0  0  0  0  0  0  0  0  0
   36.2420   28.5280   35.8090 H   0  0  0  0  0  0  0  0  0  0  0  0
   37.2040   27.1590   31.8570 H   0  0  0  0  0  0  0  0  0  0  0  0
   36.4020   29.0680   29.8520 H   0  0  0  0  0  0  0  0  0  0  0  0
   35.2650   31.3500   29.9210 H   0  0  0  0  0  0  0  0  0  0  0  0
   35.1560   30.8130   35.1530 C   0  0  0  0  0  0  0  0  0  0  0  0
   35.9310   31.5840   36.0230 C   0  0  0  0  0  0  0  0  0  0  0  0
   36.9770   31.6310   36.1870 H   0  0  0  0  0  0  0  0  0  0  0  0
   34.9610   32.3440   36.6850 C   0  0  0  0  0  0  0  0  0  0  0  0
   35.2360   33.0710   37.4530 H   0  0  0  0  0  0  0  0  0  0  0  0
   33.7050   32.0210   36.2160 C   0  0  0  0  0  0  0  0  0  0  0  0
   32.7620   32.4480   36.5440 H   0  0  0  0  0  0  0  0  0  0  0  0
   33.9030   31.1010   35.3040 O   0  0  0  0  0  0  0  0  0  0  0  0
   40.4750   25.6540   35.0430 F   0  0  0  0  0  0  0  0  0  0  0  0
   39.6970   24.7590   35.7070 C   0  0  0  0  0  0  0  0  0  0  0  0
   40.1970   23.5170   36.0060 C   0  0  0  0  0  0  0  0  0  0  0  0
   39.3540   22.6710   36.6760 C   0  0  0  0  0  0  0  0  0  0  0  0
   38.0720   23.0110   37.0430 C   0  0  0  0  0  0  0  0  0  0  0  0
   37.6010   24.2720   36.7240 C   0  0  0  0  0  0  0  0  0  0  0  0
   38.4200   25.1520   36.0510 C   0  0  0  0  0  0  0  0  0  0  0  0
   39.7250   21.6780   36.9260 H   0  0  0  0  0  0  0  0  0  0  0  0
   37.4200   22.3240   37.5730 H   0  0  0  0  0  0  0  0  0  0  0  0
   36.5980   24.5930   36.9890 H   0  0  0  0  0  0  0  0  0  0  0  0
   43.9530   23.0650   35.9870 C   0  0  0  0  0  0  0  0  0  0  0  0
   42.6470   23.3810   36.4200 C   0  0  0  0  0  0  0  0  0  0  0  0
   41.5560   23.2050   35.5980 C   0  0  0  0  0  0  0  0  0  0  0  0
   41.8030   22.7100   34.3460 N   0  0  0  0  0  0  0  0  0  0  0  0
   43.0530   22.4090   33.9320 C   0  0  0  0  0  0  0  0  0  0  0  0
   44.1000   22.5840   34.7380 N   0  0  0  0  0  0  0  0  0  0  0  0
   44.7860   23.2190   36.6670 H   0  0  0  0  0  0  0  0  0  0  0  0
   42.5160   23.7690   37.4220 H   0  0  0  0  0  0  0  0  0  0  0  0
   43.2190   22.0190   32.9370 H   0  0  0  0  0  0  0  0  0  0  0  0
  1  3  1  0  0  0  0
  2  1  2  0  0  0  0
  3 32  1  0  0  0  0
  3  4  1  0  0  0  0
  5 14  1  0  0  0  0
  6  1  1  0  0  0  0
  6  5  2  0  0  0  0
  7  6  1  0  0  0  0
  8  7  2  0  0  0  0
  8 12  1  0  0  0  0
  9 10  1  0  0  0  0
  9  8  1  0  0  0  0
 10 11  2  0  0  0  0
 11 12  1  0  0  0  0
 12 13  2  0  0  0  0
 13  5  1  0  0  0  0
 13 18  1  0  0  0  0
 15  7  1  0  0  0  0
 16  9  1  0  0  0  0
 17 10  1  0  0  0  0
 18 25  1  0  0  0  0
 18 19  2  0  0  0  0
 19 20  1  0  0  0  0
 19 21  1  0  0  0  0
 21 22  1  0  0  0  0
 23 24  1  0  0  0  0
 23 21  2  0  0  0  0
 25 23  1  0  0  0  0
 26 27  1  0  0  0  0
 27 28  2  0  0  0  0
 27 32  1  0  0  0  0
 28 29  1  0  0  0  0
 29 33  1  0  0  0  0
 29 30  2  0  0  0  0
 30 34  1  0  0  0  0
 31 35  1  0  0  0  0
 31 30  1  0  0  0  0
 32 31  2  0  0  0  0
 36 37  1  0  0  0  0
 36 42  1  0  0  0  0
 37 43  1  0  0  0  0
 38 28  1  0  0  0  0
 38 37  2  0  0  0  0
 39 38  1  0  0  0  0
 40 39  2  0  0  0  0
 40 41  1  0  0  0  0
 41 36  2  0  0  0  0
 44 40  1  0  0  0  0
M  END
>  <minimizedAffinity>
-6.61229134

$$$$

 OpenBabel03272503113D

 44 48  0  0  0  0  0  0  0  0999 V2000
   36.9420   27.0220   33.1160 C   0  0  0  0  0  0  0  0  0  0  0  0
   36.9170   26.4710   34.2530 O   0  0  0  0  0  0  0  0  0  0  0  0
   37.5870   26.2790   32.0900 N   0  0  0  0  0  0  0  0  0  0  0  0
   37.6280   26.6950   31.1440 H   0  0  0  0  0  0  0  0  0  0  0  0
   35.9390   28.9700   34.0990 C   0  0  0  0  0  0  0  0  0  0  0  0
   36.3360   28.3220   32.9410 C   0  0  0  0  0  0  0  0  0  0  0  0
   36.1720   28.8700   31.6770 C   0  0  0  0  0  0  0  0  0  0  0  0
   35.5820   30.1230   31.5730 C   0  0  0  0  0  0  0  0  0  0  0  0
   35.3000   30.8870   30.5020 N   0  0  0  0  0  0  0  0  0  0  0  0
   34.7340   32.0020   30.9570 C   0  0  0  0  0  0  0  0  0  0  0  0
   34.6610   31.9430   32.2960 N   0  0  0  0  0  0  0  0  0  0  0  0
   35.1880   30.7660   32.7220 C   0  0  0  0  0  0  0  0  0  0  0  0
   35.3490   30.2280   33.9730 C   0  0  0  0  0  0  0  0  0  0  0  0
   36.0580   28.5610   35.0830 H   0  0  0  0  0  0  0  0  0  0  0  0
   36.5110   28.2940   30.8250 H   0  0  0  0  0  0  0  0  0  0  0  0
   35.4920   30.6440   29.5030 H   0  0  0  0  0  0  0  0  0  0  0  0
   34.4000   32.8050   30.3060 H   0  0  0  0  0  0  0  0  0  0  0  0
   34.9280   30.9160   35.1870 C   0  0  0  0  0  0  0  0  0  0  0  0
   35.7720   31.7170   35.9610 C   0  0  0  0  0  0  0  0  0  0  0  0
   36.7940   31.9780   35.8550 H   0  0  0  0  0  0  0  0  0  0  0  0
   34.9180   32.1370   36.9870 C   0  0  0  0  0  0  0  0  0  0  0  0
   35.2710   32.7940   37.7850 H   0  0  0  0  0  0  0  0  0  0  0  0
   33.6600   31.6030   36.8040 C   0  0  0  0  0  0  0  0  0  0  0  0
   32.7940   31.7540   37.4410 H   0  0  0  0  0  0  0  0  0  0  0  0
   33.7440   30.8860   35.7090 O   0  0  0  0  0  0  0  0  0  0  0  0
   36.1280   23.9940   31.7990 F   0  0  0  0  0  0  0  0  0  0  0  0
   37.3540   23.8710   32.3720 C   0  0  0  0  0  0  0  0  0  0  0  0
   37.7960   22.6350   32.7710 C   0  0  0  0  0  0  0  0  0  0  0  0
   39.0400   22.5910   33.3390 C   0  0  0  0  0  0  0  0  0  0  0  0
   39.8330   23.7020   33.5180 C   0  0  0  0  0  0  0  0  0  0  0  0
   39.3550   24.9330   33.1040 C   0  0  0  0  0  0  0  0  0  0  0  0
   38.1060   25.0180   32.5270 C   0  0  0  0  0  0  0  0  0  0  0  0
   39.4160   21.6220   33.6650 H   0  0  0  0  0  0  0  0  0  0  0  0
   40.8170   23.6460   33.9710 H   0  0  0  0  0  0  0  0  0  0  0  0
   39.9370   25.8420   33.2200 H   0  0  0  0  0  0  0  0  0  0  0  0
   35.3420   19.8090   33.3260 C   0  0  0  0  0  0  0  0  0  0  0  0
   36.1780   20.9200   33.5690 C   0  0  0  0  0  0  0  0  0  0  0  0
   36.9240   21.4910   32.5610 C   0  0  0  0  0  0  0  0  0  0  0  0
   36.8120   20.9290   31.3180 N   0  0  0  0  0  0  0  0  0  0  0  0
   36.0130   19.8650   31.0860 C   0  0  0  0  0  0  0  0  0  0  0  0
   35.2960   19.3220   32.0710 N   0  0  0  0  0  0  0  0  0  0  0  0
   34.7710   19.3880   34.1480 H   0  0  0  0  0  0  0  0  0  0  0  0
   36.2240   21.3200   34.5730 H   0  0  0  0  0  0  0  0  0  0  0  0
   35.9430   19.4400   30.0940 H   0  0  0  0  0  0  0  0  0  0  0  0
  1  2  2  0  0  0  0
  3 32  1  0  0  0  0
  3  1  1  0  0  0  0
  4  3  1  0  0  0  0
  5 14  1  0  0  0  0
  6  1  1  0  0  0  0
  6  5  2  0  0  0  0
  7  6  1  0  0  0  0
  8  7  2  0  0  0  0
  8 12  1  0  0  0  0
  9 10  1  0  0  0  0
  9  8  1  0  0  0  0
 10 11  2  0  0  0  0
 11 12  1  0  0  0  0
 12 13  2  0  0  0  0
 13  5  1  0  0  0  0
 13 18  1  0  0  0  0
 15  7  1  0  0  0  0
 16  9  1  0  0  0  0
 17 10  1  0  0  0  0
 18 25  1  0  0  0  0
 18 19  2  0  0  0  0
 19 21  1  0  0  0  0
 20 19  1  0  0  0  0
 21 22  1  0  0  0  0
 23 21  2  0  0  0  0
 23 24  1  0  0  0  0
 25 23  1  0  0  0  0
 26 27  1  0  0  0  0
 27 32  2  0  0  0  0
 27 28  1  0  0  0  0
 28 29  2  0  0  0  0
 29 30  1  0  0  0  0
 29 33  1  0  0  0  0
 30 34  1  0  0  0  0
 31 35  1  0  0  0  0
 31 30  2  0  0  0  0
 32 31  1  0  0  0  0
 36 37  1  0  0  0  0
 36 42  1  0  0  0  0
 37 43  1  0  0  0  0
 38 28  1  0  0  0  0
 38 37  2  0  0  0  0
 39 38  1  0  0  0  0
 40 39  2  0  0  0  0
 40 41  1  0  0  0  0
 41 36  2  0  0  0  0
 44 40  1  0  0  0  0
M  END
>  <minimizedAffinity>
-6.55848646

$$$$

 OpenBabel03272503113D

 44 48  0  0  0  0  0  0  0  0999 V2000
   37.1440   27.0130   33.3250 C   0  0  0  0  0  0  0  0  0  0  0  0
   37.8660   27.8710   33.9090 O   0  0  0  0  0  0  0  0  0  0  0  0
   36.0890   27.5400   32.5310 N   0  0  0  0  0  0  0  0  0  0  0  0
   35.4760   26.8720   32.0360 H   0  0  0  0  0  0  0  0  0  0  0  0
   37.9610   25.2380   34.7200 C   0  0  0  0  0  0  0  0  0  0  0  0
   37.4280   25.6070   33.4960 C   0  0  0  0  0  0  0  0  0  0  0  0
   37.1730   24.6980   32.4790 C   0  0  0  0  0  0  0  0  0  0  0  0
   37.4680   23.3600   32.7040 C   0  0  0  0  0  0  0  0  0  0  0  0
   37.3310   22.2750   31.9190 N   0  0  0  0  0  0  0  0  0  0  0  0
   37.7640   21.2300   32.6180 C   0  0  0  0  0  0  0  0  0  0  0  0
   38.1690   21.6490   33.8280 N   0  0  0  0  0  0  0  0  0  0  0  0
   37.9960   22.9930   33.9180 C   0  0  0  0  0  0  0  0  0  0  0  0
   38.2490   23.8880   34.9250 C   0  0  0  0  0  0  0  0  0  0  0  0
   38.1630   25.9270   35.5160 H   0  0  0  0  0  0  0  0  0  0  0  0
   36.7560   25.0730   31.5540 H   0  0  0  0  0  0  0  0  0  0  0  0
   36.9530   22.2630   30.9440 H   0  0  0  0  0  0  0  0  0  0  0  0
   37.7700   20.2160   32.2280 H   0  0  0  0  0  0  0  0  0  0  0  0
   38.8100   23.4910   36.2100 C   0  0  0  0  0  0  0  0  0  0  0  0
   38.2000   23.7500   37.4400 C   0  0  0  0  0  0  0  0  0  0  0  0
   37.2930   24.2370   37.6920 H   0  0  0  0  0  0  0  0  0  0  0  0
   39.1070   23.1850   38.3430 C   0  0  0  0  0  0  0  0  0  0  0  0
   38.9280   23.2130   39.4200 H   0  0  0  0  0  0  0  0  0  0  0  0
   40.1740   22.6370   37.6620 C   0  0  0  0  0  0  0  0  0  0  0  0
   41.0300   22.1330   38.0980 H   0  0  0  0  0  0  0  0  0  0  0  0
   39.9250   22.8590   36.3940 O   0  0  0  0  0  0  0  0  0  0  0  0
   34.9710   28.8850   34.6230 F   0  0  0  0  0  0  0  0  0  0  0  0
   35.4550   29.6360   33.5990 C   0  0  0  0  0  0  0  0  0  0  0  0
   35.3630   31.0030   33.6580 C   0  0  0  0  0  0  0  0  0  0  0  0
   35.8720   31.6910   32.5890 C   0  0  0  0  0  0  0  0  0  0  0  0
   36.4500   31.0800   31.4990 C   0  0  0  0  0  0  0  0  0  0  0  0
   36.5250   29.7000   31.4740 C   0  0  0  0  0  0  0  0  0  0  0  0
   36.0240   28.9720   32.5320 C   0  0  0  0  0  0  0  0  0  0  0  0
   35.8120   32.7780   32.6100 H   0  0  0  0  0  0  0  0  0  0  0  0
   36.8470   31.6450   30.6620 H   0  0  0  0  0  0  0  0  0  0  0  0
   36.9710   29.1650   30.6400 H   0  0  0  0  0  0  0  0  0  0  0  0
   34.8130   32.5170   37.0820 C   0  0  0  0  0  0  0  0  0  0  0  0
   35.4500   31.9360   35.9640 C   0  0  0  0  0  0  0  0  0  0  0  0
   34.7440   31.6030   34.8290 C   0  0  0  0  0  0  0  0  0  0  0  0
   33.4010   31.8630   34.8410 N   0  0  0  0  0  0  0  0  0  0  0  0
   32.7920   32.4180   35.9110 C   0  0  0  0  0  0  0  0  0  0  0  0
   33.4870   32.7360   37.0040 N   0  0  0  0  0  0  0  0  0  0  0  0
   35.4070   32.7650   37.9580 H   0  0  0  0  0  0  0  0  0  0  0  0
   36.5160   31.7540   36.0150 H   0  0  0  0  0  0  0  0  0  0  0  0
   31.7280   32.6130   35.8940 H   0  0  0  0  0  0  0  0  0  0  0  0
  1  6  1  0  0  0  0
  1  2  2  0  0  0  0
  3 32  1  0  0  0  0
  3  1  1  0  0  0  0
  4  3  1  0  0  0  0
  5 13  1  0  0  0  0
  5 14  1  0  0  0  0
  6  5  2  0  0  0  0
  7  8  2  0  0  0  0
  7  6  1  0  0  0  0
  8 12  1  0  0  0  0
  9 10  1  0  0  0  0
  9  8  1  0  0  0  0
 10 11  2  0  0  0  0
 11 12  1  0  0  0  0
 12 13  2  0  0  0  0
 13 18  1  0  0  0  0
 15  7  1  0  0  0  0
 16  9  1  0  0  0  0
 17 10  1  0  0  0  0
 18 25  1  0  0  0  0
 18 19  2  0  0  0  0
 19 20  1  0  0  0  0
 19 21  1  0  0  0  0
 21 22  1  0  0  0  0
 23 24  1  0  0  0  0
 23 21  2  0  0  0  0
 25 23  1  0  0  0  0
 27 28  1  0  0  0  0
 27 26  1  0  0  0  0
 28 38  1  0  0  0  0
 29 33  1  0  0  0  0
 29 28  2  0  0  0  0
 30 29  1  0  0  0  0
 31 30  2  0  0  0  0
 31 32  1  0  0  0  0
 32 27  2  0  0  0  0
 34 30  1  0  0  0  0
 35 31  1  0  0  0  0
 36 42  1  0  0  0  0
 37 43  1  0  0  0  0
 37 36  2  0  0  0  0
 38 39  2  0  0  0  0
 38 37  1  0  0  0  0
 39 40  1  0  0  0  0
 40 41  2  0  0  0  0
 41 36  1  0  0  0  0
 44 40  1  0  0  0  0
M  END
>  <minimizedAffinity>
-6.52610159

$$$$

 OpenBabel03272503113D

 44 48  0  0  0  0  0  0  0  0999 V2000
   36.9880   27.3840   31.6890 C   0  0  0  0  0  0  0  0  0  0  0  0
   37.7470   26.9620   32.6080 O   0  0  0  0  0  0  0  0  0  0  0  0
   36.7510   26.4720   30.6250 N   0  0  0  0  0  0  0  0  0  0  0  0
   36.1350   26.7780   29.8540 H   0  0  0  0  0  0  0  0  0  0  0  0
   36.0580   29.1340   33.0440 C   0  0  0  0  0  0  0  0  0  0  0  0
   36.4320   28.7150   31.7790 C   0  0  0  0  0  0  0  0  0  0  0  0
   36.2930   29.5080   30.6490 C   0  0  0  0  0  0  0  0  0  0  0  0
   35.7520   30.7780   30.7990 C   0  0  0  0  0  0  0  0  0  0  0  0
   35.5020   31.7500   29.9020 N   0  0  0  0  0  0  0  0  0  0  0  0
   34.9780   32.7730   30.5720 C   0  0  0  0  0  0  0  0  0  0  0  0
   34.8990   32.4520   31.8730 N   0  0  0  0  0  0  0  0  0  0  0  0
   35.3800   31.1950   32.0550 C   0  0  0  0  0  0  0  0  0  0  0  0
   35.5170   30.4150   33.1730 C   0  0  0  0  0  0  0  0  0  0  0  0
   36.1590   28.5350   33.9280 H   0  0  0  0  0  0  0  0  0  0  0  0
   36.6120   29.1010   29.6980 H   0  0  0  0  0  0  0  0  0  0  0  0
   35.6870   31.7030   28.8740 H   0  0  0  0  0  0  0  0  0  0  0  0
   34.6770   33.7020   30.0950 H   0  0  0  0  0  0  0  0  0  0  0  0
   35.1200   30.8630   34.5010 C   0  0  0  0  0  0  0  0  0  0  0  0
   35.9970   31.4390   35.4240 C   0  0  0  0  0  0  0  0  0  0  0  0
   37.0330   31.6560   35.3750 H   0  0  0  0  0  0  0  0  0  0  0  0
   35.1550   31.6890   36.5130 C   0  0  0  0  0  0  0  0  0  0  0  0
   35.5340   32.1490   37.4290 H   0  0  0  0  0  0  0  0  0  0  0  0
   33.8710   31.2780   36.2240 C   0  0  0  0  0  0  0  0  0  0  0  0
   33.0070   31.3460   36.8770 H   0  0  0  0  0  0  0  0  0  0  0  0
   33.9290   30.7960   35.0050 O   0  0  0  0  0  0  0  0  0  0  0  0
   35.4450   24.3050   31.6390 F   0  0  0  0  0  0  0  0  0  0  0  0
   36.7480   24.1300   31.2920 C   0  0  0  0  0  0  0  0  0  0  0  0
   37.3360   22.9020   31.4630 C   0  0  0  0  0  0  0  0  0  0  0  0
   38.6490   22.8040   31.0910 C   0  0  0  0  0  0  0  0  0  0  0  0
   39.3720   23.8540   30.5730 C   0  0  0  0  0  0  0  0  0  0  0  0
   38.7460   25.0770   30.4150 C   0  0  0  0  0  0  0  0  0  0  0  0
   37.4240   25.2160   30.7780 C   0  0  0  0  0  0  0  0  0  0  0  0
   39.1420   21.8400   31.2160 H   0  0  0  0  0  0  0  0  0  0  0  0
   40.4140   23.7540   30.2850 H   0  0  0  0  0  0  0  0  0  0  0  0
   39.2680   25.9400   30.0110 H   0  0  0  0  0  0  0  0  0  0  0  0
   34.9960   19.9490   31.8090 C   0  0  0  0  0  0  0  0  0  0  0  0
   35.7630   20.9860   31.2370 C   0  0  0  0  0  0  0  0  0  0  0  0
   36.5320   21.8240   32.0140 C   0  0  0  0  0  0  0  0  0  0  0  0
   36.5140   21.5990   33.3640 N   0  0  0  0  0  0  0  0  0  0  0  0
   35.7780   20.6070   33.9120 C   0  0  0  0  0  0  0  0  0  0  0  0
   35.0390   19.8030   33.1470 N   0  0  0  0  0  0  0  0  0  0  0  0
   34.4030   19.3100   31.1600 H   0  0  0  0  0  0  0  0  0  0  0  0
   35.7370   21.1140   30.1620 H   0  0  0  0  0  0  0  0  0  0  0  0
   35.7820   20.4510   34.9820 H   0  0  0  0  0  0  0  0  0  0  0  0
  1  6  1  0  0  0  0
  1  2  2  0  0  0  0
  3 32  1  0  0  0  0
  3  1  1  0  0  0  0
  4  3  1  0  0  0  0
  5 13  1  0  0  0  0
  5 14  1  0  0  0  0
  6  5  2  0  0  0  0
  7  8  2  0  0  0  0
  7  6  1  0  0  0  0
  8 12  1  0  0  0  0
  9 10  1  0  0  0  0
  9  8  1  0  0  0  0
 10 11  2  0  0  0  0
 11 12  1  0  0  0  0
 12 13  2  0  0  0  0
 13 18  1  0  0  0  0
 15  7  1  0  0  0  0
 16  9  1  0  0  0  0
 17 10  1  0  0  0  0
 18 25  1  0  0  0  0
 18 19  2  0  0  0  0
 19 21  1  0  0  0  0
 20 19  1  0  0  0  0
 21 22  1  0  0  0  0
 23 21  2  0  0  0  0
 23 24  1  0  0  0  0
 25 23  1  0  0  0  0
 27 28  1  0  0  0  0
 27 26  1  0  0  0  0
 28 38  1  0  0  0  0
 29 33  1  0  0  0  0
 29 28  2  0  0  0  0
 30 29  1  0  0  0  0
 31 30  2  0  0  0  0
 31 32  1  0  0  0  0
 32 27  2  0  0  0  0
 34 30  1  0  0  0  0
 35 31  1  0  0  0  0
 36 41  1  0  0  0  0
 37 36  2  0  0  0  0
 37 38  1  0  0  0  0
 38 39  2  0  0  0  0
 39 40  1  0  0  0  0
 40 44  1  0  0  0  0
 41 40  2  0  0  0  0
 42 36  1  0  0  0  0
 43 37  1  0  0  0  0
M  END
>  <minimizedAffinity>
-6.46985579

$$$$

 OpenBabel03272503113D

 44 48  0  0  0  0  0  0  0  0999 V2000
   36.9920   27.4790   32.6320 C   0  0  0  0  0  0  0  0  0  0  0  0
   36.3710   26.3780   32.6570 O   0  0  0  0  0  0  0  0  0  0  0  0
   38.4100   27.3810   32.6410 N   0  0  0  0  0  0  0  0  0  0  0  0
   38.9550   28.2580   32.6190 H   0  0  0  0  0  0  0  0  0  0  0  0
   35.8980   29.2530   33.8230 C   0  0  0  0  0  0  0  0  0  0  0  0
   36.2470   28.7160   32.5950 C   0  0  0  0  0  0  0  0  0  0  0  0
   35.9140   29.3150   31.3890 C   0  0  0  0  0  0  0  0  0  0  0  0
   35.1980   30.5040   31.4190 C   0  0  0  0  0  0  0  0  0  0  0  0
   34.7440   31.2940   30.4290 N   0  0  0  0  0  0  0  0  0  0  0  0
   34.1160   32.3170   31.0020 C   0  0  0  0  0  0  0  0  0  0  0  0
   34.1730   32.1750   32.3360 N   0  0  0  0  0  0  0  0  0  0  0  0
   34.8510   31.0370   32.6370 C   0  0  0  0  0  0  0  0  0  0  0  0
   35.1780   30.4490   33.8310 C   0  0  0  0  0  0  0  0  0  0  0  0
   36.1480   28.8040   34.7650 H   0  0  0  0  0  0  0  0  0  0  0  0
   36.2280   28.8270   30.4750 H   0  0  0  0  0  0  0  0  0  0  0  0
   34.8660   31.1290   29.4030 H   0  0  0  0  0  0  0  0  0  0  0  0
   33.6460   33.1170   30.4370 H   0  0  0  0  0  0  0  0  0  0  0  0
   34.8070   31.0200   35.1200 C   0  0  0  0  0  0  0  0  0  0  0  0
   35.7060   31.6550   35.9790 C   0  0  0  0  0  0  0  0  0  0  0  0
   36.7460   31.8470   35.9010 H   0  0  0  0  0  0  0  0  0  0  0  0
   34.8830   32.0170   37.0510 C   0  0  0  0  0  0  0  0  0  0  0  0
   35.2810   32.5470   37.9190 H   0  0  0  0  0  0  0  0  0  0  0  0
   33.5870   31.6080   36.8120 C   0  0  0  0  0  0  0  0  0  0  0  0
   32.7330   31.7510   37.4660 H   0  0  0  0  0  0  0  0  0  0  0  0
   33.6210   31.0210   35.6400 O   0  0  0  0  0  0  0  0  0  0  0  0
   39.0090   26.1830   35.0150 F   0  0  0  0  0  0  0  0  0  0  0  0
   39.1950   25.4430   33.8900 C   0  0  0  0  0  0  0  0  0  0  0  0
   39.6640   24.1590   33.9940 C   0  0  0  0  0  0  0  0  0  0  0  0
   39.8260   23.4770   32.8170 C   0  0  0  0  0  0  0  0  0  0  0  0
   39.5450   24.0170   31.5830 C   0  0  0  0  0  0  0  0  0  0  0  0
   39.0740   25.3150   31.5170 C   0  0  0  0  0  0  0  0  0  0  0  0
   38.8970   26.0340   32.6800 C   0  0  0  0  0  0  0  0  0  0  0  0
   40.1980   22.4550   32.8700 H   0  0  0  0  0  0  0  0  0  0  0  0
   39.6810   23.4590   30.6620 H   0  0  0  0  0  0  0  0  0  0  0  0
   38.8350   25.7910   30.5700 H   0  0  0  0  0  0  0  0  0  0  0  0
   41.4330   22.7030   37.0050 C   0  0  0  0  0  0  0  0  0  0  0  0
   41.1990   23.2080   35.7080 C   0  0  0  0  0  0  0  0  0  0  0  0
   39.9470   23.6320   35.3180 C   0  0  0  0  0  0  0  0  0  0  0  0
   38.9480   23.5380   36.2500 N   0  0  0  0  0  0  0  0  0  0  0  0
   39.1730   23.0530   37.4900 C   0  0  0  0  0  0  0  0  0  0  0  0
   40.3900   22.6470   37.8540 N   0  0  0  0  0  0  0  0  0  0  0  0
   42.4360   22.3790   37.2710 H   0  0  0  0  0  0  0  0  0  0  0  0
   42.0290   23.2580   35.0160 H   0  0  0  0  0  0  0  0  0  0  0  0
   38.3660   22.9900   38.2070 H   0  0  0  0  0  0  0  0  0  0  0  0
  1  3  1  0  0  0  0
  1  2  2  0  0  0  0
  3 32  1  0  0  0  0
  4  3  1  0  0  0  0
  5 13  1  0  0  0  0
  5 14  1  0  0  0  0
  6  1  1  0  0  0  0
  6  5  2  0  0  0  0
  7  8  2  0  0  0  0
  7  6  1  0  0  0  0
  8 12  1  0  0  0  0
  9 10  1  0  0  0  0
  9  8  1  0  0  0  0
 10 11  2  0  0  0  0
 11 12  1  0  0  0  0
 12 13  2  0  0  0  0
 13 18  1  0  0  0  0
 15  7  1  0  0  0  0
 16  9  1  0  0  0  0
 17 10  1  0  0  0  0
 18 25  1  0  0  0  0
 18 19  2  0  0  0  0
 19 21  1  0  0  0  0
 20 19  1  0  0  0  0
 21 22  1  0  0  0  0
 23 21  2  0  0  0  0
 23 24  1  0  0  0  0
 25 23  1  0  0  0  0
 27 28  1  0  0  0  0
 27 26  1  0  0  0  0
 28 38  1  0  0  0  0
 29 33  1  0  0  0  0
 29 28  2  0  0  0  0
 30 29  1  0  0  0  0
 31 30  2  0  0  0  0
 31 32  1  0  0  0  0
 32 27  2  0  0  0  0
 34 30  1  0  0  0  0
 35 31  1  0  0  0  0
 36 42  1  0  0  0  0
 36 41  1  0  0  0  0
 37 36  2  0  0  0  0
 38 37  1  0  0  0  0
 38 39  2  0  0  0  0
 39 40  1  0  0  0  0
 40 41  2  0  0  0  0
 40 44  1  0  0  0  0
 43 37  1  0  0  0  0
M  END
>  <minimizedAffinity>
-6.36627817

$$$$

 OpenBabel03272503113D

 44 48  0  0  0  0  0  0  0  0999 V2000
   37.0910   27.5370   34.1510 C   0  0  0  0  0  0  0  0  0  0  0  0
   37.1370   26.5360   33.3800 O   0  0  0  0  0  0  0  0  0  0  0  0
   37.8750   27.4350   35.3330 N   0  0  0  0  0  0  0  0  0  0  0  0
   37.8660   28.2330   35.9900 H   0  0  0  0  0  0  0  0  0  0  0  0
   35.8360   29.4630   34.8440 C   0  0  0  0  0  0  0  0  0  0  0  0
   36.2770   28.6750   33.7940 C   0  0  0  0  0  0  0  0  0  0  0  0
   35.9680   28.9440   32.4680 C   0  0  0  0  0  0  0  0  0  0  0  0
   35.1820   30.0530   32.1870 C   0  0  0  0  0  0  0  0  0  0  0  0
   34.7300   30.5510   31.0210 N   0  0  0  0  0  0  0  0  0  0  0  0
   34.0150   31.6350   31.3100 C   0  0  0  0  0  0  0  0  0  0  0  0
   34.0140   31.8180   32.6400 N   0  0  0  0  0  0  0  0  0  0  0  0
   34.7430   30.8350   33.2290 C   0  0  0  0  0  0  0  0  0  0  0  0
   35.0460   30.5730   34.5400 C   0  0  0  0  0  0  0  0  0  0  0  0
   36.0650   29.2690   35.8740 H   0  0  0  0  0  0  0  0  0  0  0  0
   36.3550   28.2760   31.7090 H   0  0  0  0  0  0  0  0  0  0  0  0
   34.9120   30.1560   30.0700 H   0  0  0  0  0  0  0  0  0  0  0  0
   33.5260   32.2420   30.5540 H   0  0  0  0  0  0  0  0  0  0  0  0
   34.5770   31.4060   35.6390 C   0  0  0  0  0  0  0  0  0  0  0  0
   33.3310   31.2580   36.2530 C   0  0  0  0  0  0  0  0  0  0  0  0
   32.5320   30.5840   36.0790 H   0  0  0  0  0  0  0  0  0  0  0  0
   33.3590   32.2660   37.2220 C   0  0  0  0  0  0  0  0  0  0  0  0
   32.5150   32.4300   37.8960 H   0  0  0  0  0  0  0  0  0  0  0  0
   34.5560   32.9490   37.1610 C   0  0  0  0  0  0  0  0  0  0  0  0
   34.8600   33.7800   37.7890 H   0  0  0  0  0  0  0  0  0  0  0  0
   35.2310   32.3780   36.1920 O   0  0  0  0  0  0  0  0  0  0  0  0
   40.4390   27.2160   34.4320 F   0  0  0  0  0  0  0  0  0  0  0  0
   39.8870   26.1060   34.9880 C   0  0  0  0  0  0  0  0  0  0  0  0
   40.6230   24.9510   35.0710 C   0  0  0  0  0  0  0  0  0  0  0  0
   39.9990   23.8760   35.6430 C   0  0  0  0  0  0  0  0  0  0  0  0
   38.7080   23.9120   36.1200 C   0  0  0  0  0  0  0  0  0  0  0  0
   37.9960   25.0930   36.0190 C   0  0  0  0  0  0  0  0  0  0  0  0
   38.5900   26.1980   35.4490 C   0  0  0  0  0  0  0  0  0  0  0  0
   40.5600   22.9450   35.7220 H   0  0  0  0  0  0  0  0  0  0  0  0
   38.2320   23.0470   36.5700 H   0  0  0  0  0  0  0  0  0  0  0  0
   36.9750   25.1790   36.3790 H   0  0  0  0  0  0  0  0  0  0  0  0
   44.3900   25.1860   34.8080 C   0  0  0  0  0  0  0  0  0  0  0  0
   43.0860   25.1850   35.3480 C   0  0  0  0  0  0  0  0  0  0  0  0
   41.9810   24.9610   34.5540 C   0  0  0  0  0  0  0  0  0  0  0  0
   42.2140   24.7430   33.2230 N   0  0  0  0  0  0  0  0  0  0  0  0
   43.4630   24.7450   32.7080 C   0  0  0  0  0  0  0  0  0  0  0  0
   44.5230   24.9620   33.4870 N   0  0  0  0  0  0  0  0  0  0  0  0
   45.2340   25.3660   35.4690 H   0  0  0  0  0  0  0  0  0  0  0  0
   42.9660   25.3630   36.4080 H   0  0  0  0  0  0  0  0  0  0  0  0
   43.6180   24.5700   31.6520 H   0  0  0  0  0  0  0  0  0  0  0  0
  1  3  1  0  0  0  0
  2  1  2  0  0  0  0
  3 32  1  0  0  0  0
  3  4  1  0  0  0  0
  5 14  1  0  0  0  0
  6  1  1  0  0  0  0
  6  5  2  0  0  0  0
  7  6  1  0  0  0  0
  8  7  2  0  0  0  0
  8 12  1  0  0  0  0
  9 10  1  0  0  0  0
  9  8  1  0  0  0  0
 10 11  2  0  0  0  0
 11 12  1  0  0  0  0
 12 13  2  0  0  0  0
 13  5  1  0  0  0  0
 13 18  1  0  0  0  0
 15  7  1  0  0  0  0
 16  9  1  0  0  0  0
 17 10  1  0  0  0  0
 18 25  1  0  0  0  0
 18 19  2  0  0  0  0
 19 21  1  0  0  0  0
 20 19  1  0  0  0  0
 21 22  1  0  0  0  0
 23 21  2  0  0  0  0
 23 24  1  0  0  0  0
 25 23  1  0  0  0  0
 26 27  1  0  0  0  0
 27 28  2  0  0  0  0
 27 32  1  0  0  0  0
 28 29  1  0  0  0  0
 29 33  1  0  0  0  0
 29 30  2  0  0  0  0
 30 34  1  0  0  0  0
 31 30  1  0  0  0  0
 31 35  1  0  0  0  0
 32 31  2  0  0  0  0
 36 37  1  0  0  0  0
 36 42  1  0  0  0  0
 37 43  1  0  0  0  0
 38 28  1  0  0  0  0
 38 37  2  0  0  0  0
 39 38  1  0  0  0  0
 40 39  2  0  0  0  0
 40 41  1  0  0  0  0
 41 36  2  0  0  0  0
 44 40  1  0  0  0  0
M  END
>  <minimizedAffinity>
-6.29849195

$$$$

 OpenBabel03272503113D

 44 48  0  0  0  0  0  0  0  0999 V2000
   36.6390   26.7160   31.7380 C   0  0  0  0  0  0  0  0  0  0  0  0
   35.4080   26.8260   31.4720 O   0  0  0  0  0  0  0  0  0  0  0  0
   37.2860   27.9160   32.1430 N   0  0  0  0  0  0  0  0  0  0  0  0
   38.2930   27.8690   32.3710 H   0  0  0  0  0  0  0  0  0  0  0  0
   36.5120   24.3290   31.9630 C   0  0  0  0  0  0  0  0  0  0  0  0
   37.2810   25.4280   31.6190 C   0  0  0  0  0  0  0  0  0  0  0  0
   38.5940   25.3220   31.1810 C   0  0  0  0  0  0  0  0  0  0  0  0
   39.1560   24.0560   31.0860 C   0  0  0  0  0  0  0  0  0  0  0  0
   40.3810   23.6540   30.7020 N   0  0  0  0  0  0  0  0  0  0  0  0
   40.4040   22.3270   30.7950 C   0  0  0  0  0  0  0  0  0  0  0  0
   39.2090   21.8980   31.2320 N   0  0  0  0  0  0  0  0  0  0  0  0
   38.3930   22.9650   31.4280 C   0  0  0  0  0  0  0  0  0  0  0  0
   37.0960   23.0660   31.8610 C   0  0  0  0  0  0  0  0  0  0  0  0
   35.4960   24.3930   32.3030 H   0  0  0  0  0  0  0  0  0  0  0  0
   39.1230   26.2330   30.9320 H   0  0  0  0  0  0  0  0  0  0  0  0
   41.1640   24.2730   30.3890 H   0  0  0  0  0  0  0  0  0  0  0  0
   41.2760   21.7300   30.5450 H   0  0  0  0  0  0  0  0  0  0  0  0
   36.2930   21.9050   32.2220 C   0  0  0  0  0  0  0  0  0  0  0  0
   35.3510   21.3150   31.3760 C   0  0  0  0  0  0  0  0  0  0  0  0
   35.0400   21.5490   30.3890 H   0  0  0  0  0  0  0  0  0  0  0  0
   34.8650   20.2650   32.1630 C   0  0  0  0  0  0  0  0  0  0  0  0
   34.0940   19.5870   31.7900 H   0  0  0  0  0  0  0  0  0  0  0  0
   35.4970   20.2610   33.3890 C   0  0  0  0  0  0  0  0  0  0  0  0
   35.3250   19.5640   34.2020 H   0  0  0  0  0  0  0  0  0  0  0  0
   36.3350   21.2690   33.3490 O   0  0  0  0  0  0  0  0  0  0  0  0
   36.2070   28.7760   34.4940 F   0  0  0  0  0  0  0  0  0  0  0  0
   35.8840   29.4790   33.3760 C   0  0  0  0  0  0  0  0  0  0  0  0
   35.0500   30.5640   33.4750 C   0  0  0  0  0  0  0  0  0  0  0  0
   34.7710   31.2210   32.3070 C   0  0  0  0  0  0  0  0  0  0  0  0
   35.2790   30.8440   31.0840 C   0  0  0  0  0  0  0  0  0  0  0  0
   36.1160   29.7450   31.0230 C   0  0  0  0  0  0  0  0  0  0  0  0
   36.4210   29.0570   32.1780 C   0  0  0  0  0  0  0  0  0  0  0  0
   34.1110   32.0860   32.3560 H   0  0  0  0  0  0  0  0  0  0  0  0
   35.0450   31.3790   30.1690 H   0  0  0  0  0  0  0  0  0  0  0  0
   36.5460   29.4030   30.0860 H   0  0  0  0  0  0  0  0  0  0  0  0
   34.7090   32.0360   36.9440 C   0  0  0  0  0  0  0  0  0  0  0  0
   35.2390   31.7080   35.6780 C   0  0  0  0  0  0  0  0  0  0  0  0
   34.5390   30.9240   34.7870 C   0  0  0  0  0  0  0  0  0  0  0  0
   33.3080   30.4820   35.1920 N   0  0  0  0  0  0  0  0  0  0  0  0
   32.8020   30.7950   36.4040 C   0  0  0  0  0  0  0  0  0  0  0  0
   33.4900   31.5550   37.2560 N   0  0  0  0  0  0  0  0  0  0  0  0
   35.2940   32.6570   37.6160 H   0  0  0  0  0  0  0  0  0  0  0  0
   36.2180   32.0880   35.4140 H   0  0  0  0  0  0  0  0  0  0  0  0
   31.8270   30.4320   36.6990 H   0  0  0  0  0  0  0  0  0  0  0  0
  1  3  1  0  0  0  0
  2  1  2  0  0  0  0
  3 32  1  0  0  0  0
  3  4  1  0  0  0  0
  5 14  1  0  0  0  0
  6  1  1  0  0  0  0
  6  5  2  0  0  0  0
  7  6  1  0  0  0  0
  8  7  2  0  0  0  0
  8 12  1  0  0  0  0
  9 10  1  0  0  0  0
  9  8  1  0  0  0  0
 10 11  2  0  0  0  0
 11 12  1  0  0  0  0
 12 13  2  0  0  0  0
 13  5  1  0  0  0  0
 13 18  1  0  0  0  0
 15  7  1  0  0  0  0
 16  9  1  0  0  0  0
 17 10  1  0  0  0  0
 18 25  1  0  0  0  0
 19 21  1  0  0  0  0
 19 18  2  0  0  0  0
 20 19  1  0  0  0  0
 21 23  2  0  0  0  0
 22 21  1  0  0  0  0
 23 24  1  0  0  0  0
 25 23  1  0  0  0  0
 27 28  1  0  0  0  0
 27 26  1  0  0  0  0
 28 38  1  0  0  0  0
 29 33  1  0  0  0  0
 29 28  2  0  0  0  0
 30 29  1  0  0  0  0
 31 30  2  0  0  0  0
 31 32  1  0  0  0  0
 32 27  2  0  0  0  0
 34 30  1  0  0  0  0
 35 31  1  0  0  0  0
 36 41  1  0  0  0  0
 36 42  1  0  0  0  0
 37 36  2  0  0  0  0
 38 39  2  0  0  0  0
 38 37  1  0  0  0  0
 39 40  1  0  0  0  0
 40 44  1  0  0  0  0
 40 41  2  0  0  0  0
 43 37  1  0  0  0  0
M  END
>  <minimizedAffinity>
-6.15743876

$$$$
