REMARK  Name = 
REMARK  3 active torsions:
REMARK  status: ('A' for Active; 'I' for Inactive)
REMARK    1  A    between atoms: C_2  and  N_13
REMARK    2  A    between atoms: C_5  and  C_7
REMARK    3  A    between atoms: C_11  and  C_20
REMARK                            x       y       z     vdW  Elec       q    Type
REMARK                         _______ _______ _______ _____ _____    ______ ____
ROOT
ATOM      1  C   UNL     1      38.561  31.492  46.286  0.00  0.00    +0.000 A 
ATOM      2  C   UNL     1      39.900  31.181  46.107  0.00  0.00    +0.000 A 
ATOM      3  C   UNL     1      40.712  31.662  45.109  0.00  0.00    +0.000 A 
ATOM      4  N   UNL     1      40.130  32.522  44.226  0.00  0.00    +0.000 NA
ATOM      5  C   UNL     1      38.822  32.844  44.376  0.00  0.00    +0.000 A 
ATOM      6  N   UNL     1      38.073  32.343  45.372  0.00  0.00    +0.000 NA
ATOM      7  H   UNL     1      40.388  30.501  46.793  0.00  0.00    +0.000 HD
ATOM      8  H   UNL     1      41.747  31.384  45.021  0.00  0.00    +0.000 HD
ENDROOT
BRANCH   1  13
ATOM      9  C   UNL     1      35.749  30.045  48.045  0.00  0.00    +0.000 A 
ATOM     10  C   UNL     1      36.217  29.804  49.348  0.00  0.00    +0.000 A 
ATOM     11  C   UNL     1      37.567  30.170  49.597  0.00  0.00    +0.000 A 
ATOM     12  N   UNL     1      38.298  30.709  48.600  0.00  0.00    +0.000 NA
ATOM     13  C   UNL     1      37.797  30.913  47.384  0.00  0.00    +0.000 A 
ATOM     14  N   UNL     1      36.504  30.591  47.055  0.00  0.00    +0.000 NA
ATOM     15  H   UNL     1      34.722  29.788  47.789  0.00  0.00    +0.000 HD
ATOM     16  H   UNL     1      37.975  30.005  50.582  0.00  0.00    +0.000 HD
BRANCH  10  17
ATOM     17  N   UNL     1      35.393  29.234  50.346  0.00  0.00    +0.000 N 
ATOM     18  H   UNL     1      34.369  29.297  50.181  0.00  0.00    +0.000 HD
ATOM     19  H   UNL     1      35.856  28.796  51.167  0.00  0.00    +0.000 HD
ENDBRANCH  10  17
ENDBRANCH   1  13
BRANCH   5  20
ATOM     20  C   UNL     1      38.096  33.753  43.491  0.00  0.00    +0.000 A 
ATOM     21  C   UNL     1      38.357  33.686  42.136  0.00  0.00    +0.000 A 
ATOM     22  H   UNL     1      39.011  33.087  41.517  0.00  0.00    +0.000 HD
ATOM     23  C   UNL     1      37.542  34.646  41.539  0.00  0.00    +0.000 A 
ATOM     24  H   UNL     1      37.373  34.982  40.531  0.00  0.00    +0.000 HD
ATOM     25  C   UNL     1      36.832  35.239  42.574  0.00  0.00    +0.000 A 
ATOM     26  H   UNL     1      36.083  36.041  42.535  0.00  0.00    +0.000 HD
ATOM     27  O   UNL     1      37.185  34.686  43.721  0.00  0.00    +0.000 OA
ENDBRANCH   5  20
TORSDOF 3
