
 OpenBabel03272505123D

 38 41  0  0  0  0  0  0  0  0999 V2000
   36.4030   30.9170   45.7160 Cl  0  0  0  0  0  0  0  0  0  0  0  0
   36.6970   30.7740   47.4230 C   0  0  0  0  0  0  0  0  0  0  0  0
   37.9500   31.0910   47.8870 C   0  0  0  0  0  0  0  0  0  0  0  0
   38.1880   30.9790   49.2440 C   0  0  0  0  0  0  0  0  0  0  0  0
   37.1910   30.5640   50.0840 C   0  0  0  0  0  0  0  0  0  0  0  0
   35.9470   30.2590   49.5510 C   0  0  0  0  0  0  0  0  0  0  0  0
   35.6340   30.3440   48.2200 C   0  0  0  0  0  0  0  0  0  0  0  0
   39.1840   31.2340   49.5880 H   0  0  0  0  0  0  0  0  0  0  0  0
   37.3630   30.4710   51.1460 H   0  0  0  0  0  0  0  0  0  0  0  0
   35.1710   29.9300   50.2380 H   0  0  0  0  0  0  0  0  0  0  0  0
   40.2100   33.3180   46.0820 C   0  0  0  0  0  0  0  0  0  0  0  0
   40.9210   32.4600   45.2050 C   0  0  0  0  0  0  0  0  0  0  0  0
   40.6010   31.0990   45.2540 C   0  0  0  0  0  0  0  0  0  0  0  0
   39.6380   30.6800   46.1290 N   0  0  0  0  0  0  0  0  0  0  0  0
   38.9950   31.5360   46.9360 C   0  0  0  0  0  0  0  0  0  0  0  0
   39.2820   32.8420   46.9100 N   0  0  0  0  0  0  0  0  0  0  0  0
   40.4370   34.3560   46.0630 H   0  0  0  0  0  0  0  0  0  0  0  0
   41.6650   32.8170   44.5370 H   0  0  0  0  0  0  0  0  0  0  0  0
   41.0890   30.3660   44.6260 H   0  0  0  0  0  0  0  0  0  0  0  0
   34.0480   29.9580   47.5260 S   0  0  0  0  0  0  0  0  0  0  0  0
   33.7870   29.1870   44.4950 Cl  0  0  0  0  0  0  0  0  0  0  0  0
   33.8100   27.9650   45.7330 C   0  0  0  0  0  0  0  0  0  0  0  0
   33.9200   28.2210   47.0990 C   0  0  0  0  0  0  0  0  0  0  0  0
   33.9240   27.1710   47.9970 C   0  0  0  0  0  0  0  0  0  0  0  0
   33.8210   25.8760   47.5520 C   0  0  0  0  0  0  0  0  0  0  0  0
   33.7090   25.5610   46.2070 C   0  0  0  0  0  0  0  0  0  0  0  0
   33.7090   26.6420   45.3380 C   0  0  0  0  0  0  0  0  0  0  0  0
   34.0130   27.4570   49.0400 H   0  0  0  0  0  0  0  0  0  0  0  0
   33.8300   25.0960   48.3030 H   0  0  0  0  0  0  0  0  0  0  0  0
   33.6300   24.5560   45.8640 H   0  0  0  0  0  0  0  0  0  0  0  0
   33.5920   26.3270   43.9100 C   0  0  0  0  0  0  0  0  0  0  0  0
   32.4860   26.0940   43.1630 C   0  0  0  0  0  0  0  0  0  0  0  0
   31.4740   26.1190   43.5960 H   0  0  0  0  0  0  0  0  0  0  0  0
   32.7850   25.8290   41.8420 C   0  0  0  0  0  0  0  0  0  0  0  0
   32.1270   25.6070   41.0150 H   0  0  0  0  0  0  0  0  0  0  0  0
   34.1720   25.9230   41.8540 C   0  0  0  0  0  0  0  0  0  0  0  0
   34.8310   25.7790   40.9850 H   0  0  0  0  0  0  0  0  0  0  0  0
   34.5860   26.2090   43.0620 O   0  0  0  0  0  0  0  0  0  0  0  0
  1  2  1  0  0  0  0
  2  3  2  0  0  0  0
  2  7  1  0  0  0  0
  3  4  1  0  0  0  0
  4  8  1  0  0  0  0
  4  5  2  0  0  0  0
  5  9  1  0  0  0  0
  6  5  1  0  0  0  0
  6 10  1  0  0  0  0
  7  6  2  0  0  0  0
 11 16  1  0  0  0  0
 12 13  1  0  0  0  0
 12 11  2  0  0  0  0
 13 14  2  0  0  0  0
 14 15  1  0  0  0  0
 15  3  1  0  0  0  0
 16 15  2  0  0  0  0
 17 11  1  0  0  0  0
 18 12  1  0  0  0  0
 19 13  1  0  0  0  0
 20  7  1  0  0  0  0
 21 22  1  0  0  0  0
 22 23  1  0  0  0  0
 23 20  1  0  0  0  0
 23 24  2  0  0  0  0
 24 28  1  0  0  0  0
 25 24  1  0  0  0  0
 25 29  1  0  0  0  0
 26 25  2  0  0  0  0
 27 22  2  0  0  0  0
 27 26  1  0  0  0  0
 30 26  1  0  0  0  0
 31 27  1  0  0  0  0
 32 33  1  0  0  0  0
 32 31  2  0  0  0  0
 34 36  2  0  0  0  0
 34 32  1  0  0  0  0
 35 34  1  0  0  0  0
 36 38  1  0  0  0  0
 37 36  1  0  0  0  0
 38 31  1  0  0  0  0
M  END
>  <minimizedAffinity>
-5.60162783

>  <minimizedRMSD>
0.454262674

$$$$
