
 OpenBabel03262521373D

 27 29  0  0  0  0  0  0  0  0999 V2000
   37.2700   30.4570   47.1440 F   0  0  0  0  0  0  0  0  0  0  0  0
   37.7940   31.4940   47.8550 C   0  0  0  0  0  0  0  0  0  0  0  0
   38.7290   32.3660   47.3350 C   0  0  0  0  0  0  0  0  0  0  0  0
   39.2300   33.4090   48.1080 C   0  0  0  0  0  0  0  0  0  0  0  0
   38.7910   33.5820   49.4220 C   0  0  0  0  0  0  0  0  0  0  0  0
   37.8530   32.6830   49.9000 C   0  0  0  0  0  0  0  0  0  0  0  0
   37.3460   31.6550   49.1650 C   0  0  0  0  0  0  0  0  0  0  0  0
   39.9620   34.0520   47.6240 H   0  0  0  0  0  0  0  0  0  0  0  0
   39.2010   34.3990   49.9910 H   0  0  0  0  0  0  0  0  0  0  0  0
   37.4950   32.7920   50.9160 H   0  0  0  0  0  0  0  0  0  0  0  0
   40.2920   31.3810   45.8310 C   0  0  0  0  0  0  0  0  0  0  0  0
   39.1260   32.1210   45.9770 C   0  0  0  0  0  0  0  0  0  0  0  0
   38.4760   32.5410   44.8070 C   0  0  0  0  0  0  0  0  0  0  0  0
   39.0230   32.2010   43.6010 N   0  0  0  0  0  0  0  0  0  0  0  0
   40.1510   31.4840   43.5160 C   0  0  0  0  0  0  0  0  0  0  0  0
   40.7860   31.0740   44.6130 N   0  0  0  0  0  0  0  0  0  0  0  0
   40.8670   31.0100   46.6700 H   0  0  0  0  0  0  0  0  0  0  0  0
   37.5840   33.1080   44.9710 H   0  0  0  0  0  0  0  0  0  0  0  0
   40.5360   31.2450   42.5330 H   0  0  0  0  0  0  0  0  0  0  0  0
   36.3570   30.7290   49.7130 C   0  0  0  0  0  0  0  0  0  0  0  0
   35.0430   30.6640   49.3160 C   0  0  0  0  0  0  0  0  0  0  0  0
   34.5910   31.2830   48.5600 H   0  0  0  0  0  0  0  0  0  0  0  0
   34.4890   29.6610   50.0920 C   0  0  0  0  0  0  0  0  0  0  0  0
   33.4480   29.3350   50.0420 H   0  0  0  0  0  0  0  0  0  0  0  0
   35.4790   29.1660   50.9170 C   0  0  0  0  0  0  0  0  0  0  0  0
   35.3910   28.3700   51.6540 H   0  0  0  0  0  0  0  0  0  0  0  0
   36.5900   29.8410   50.6540 O   0  0  0  0  0  0  0  0  0  0  0  0
  1  2  1  0  0  0  0
  2  7  1  0  0  0  0
  3  2  2  0  0  0  0
  3  4  1  0  0  0  0
  4  5  2  0  0  0  0
  5  6  1  0  0  0  0
  5  9  1  0  0  0  0
  6 10  1  0  0  0  0
  7 20  1  0  0  0  0
  7  6  2  0  0  0  0
  8  4  1  0  0  0  0
 11 12  1  0  0  0  0
 11 17  1  0  0  0  0
 12  3  1  0  0  0  0
 13 18  1  0  0  0  0
 13 12  2  0  0  0  0
 14 13  1  0  0  0  0
 15 14  2  0  0  0  0
 15 16  1  0  0  0  0
 16 11  2  0  0  0  0
 19 15  1  0  0  0  0
 20 27  1  0  0  0  0
 21 20  2  0  0  0  0
 21 23  1  0  0  0  0
 22 21  1  0  0  0  0
 23 25  2  0  0  0  0
 24 23  1  0  0  0  0
 25 26  1  0  0  0  0
 27 25  1  0  0  0  0
M  END
>  <minimizedAffinity>
-6.40935373

>  <minimizedRMSD>
5.30778217

$$$$
