
 OpenBabel03272505123D

 38 41  0  0  0  0  0  0  0  0999 V2000
   36.4030   30.9170   45.7160 Cl  0  0  0  0  0  0  0  0  0  0  0  0
   36.6970   30.7750   47.4230 C   0  0  0  0  0  0  0  0  0  0  0  0
   37.9500   31.0910   47.8860 C   0  0  0  0  0  0  0  0  0  0  0  0
   38.1870   30.9790   49.2440 C   0  0  0  0  0  0  0  0  0  0  0  0
   37.1910   30.5640   50.0840 C   0  0  0  0  0  0  0  0  0  0  0  0
   35.9460   30.2590   49.5510 C   0  0  0  0  0  0  0  0  0  0  0  0
   35.6330   30.3440   48.2200 C   0  0  0  0  0  0  0  0  0  0  0  0
   39.1840   31.2350   49.5880 H   0  0  0  0  0  0  0  0  0  0  0  0
   37.3620   30.4720   51.1460 H   0  0  0  0  0  0  0  0  0  0  0  0
   35.1700   29.9310   50.2380 H   0  0  0  0  0  0  0  0  0  0  0  0
   40.2110   33.3180   46.0820 C   0  0  0  0  0  0  0  0  0  0  0  0
   40.9220   32.4600   45.2060 C   0  0  0  0  0  0  0  0  0  0  0  0
   40.6000   31.0990   45.2540 C   0  0  0  0  0  0  0  0  0  0  0  0
   39.6370   30.6800   46.1280 N   0  0  0  0  0  0  0  0  0  0  0  0
   38.9950   31.5360   46.9360 C   0  0  0  0  0  0  0  0  0  0  0  0
   39.2830   32.8420   46.9110 N   0  0  0  0  0  0  0  0  0  0  0  0
   40.4380   34.3560   46.0640 H   0  0  0  0  0  0  0  0  0  0  0  0
   41.6660   32.8170   44.5380 H   0  0  0  0  0  0  0  0  0  0  0  0
   41.0870   30.3660   44.6250 H   0  0  0  0  0  0  0  0  0  0  0  0
   34.0470   29.9580   47.5260 S   0  0  0  0  0  0  0  0  0  0  0  0
   33.7860   29.1870   44.4950 Cl  0  0  0  0  0  0  0  0  0  0  0  0
   33.8090   27.9650   45.7330 C   0  0  0  0  0  0  0  0  0  0  0  0
   33.9200   28.2210   47.0990 C   0  0  0  0  0  0  0  0  0  0  0  0
   33.9250   27.1710   47.9970 C   0  0  0  0  0  0  0  0  0  0  0  0
   33.8220   25.8760   47.5530 C   0  0  0  0  0  0  0  0  0  0  0  0
   33.7090   25.5610   46.2070 C   0  0  0  0  0  0  0  0  0  0  0  0
   33.7090   26.6410   45.3380 C   0  0  0  0  0  0  0  0  0  0  0  0
   34.0140   27.4570   49.0400 H   0  0  0  0  0  0  0  0  0  0  0  0
   33.8310   25.0960   48.3030 H   0  0  0  0  0  0  0  0  0  0  0  0
   33.6300   24.5560   45.8640 H   0  0  0  0  0  0  0  0  0  0  0  0
   33.5910   26.3260   43.9110 C   0  0  0  0  0  0  0  0  0  0  0  0
   32.4840   26.0920   43.1640 C   0  0  0  0  0  0  0  0  0  0  0  0
   31.4730   26.1190   43.5960 H   0  0  0  0  0  0  0  0  0  0  0  0
   32.7840   25.8270   41.8440 C   0  0  0  0  0  0  0  0  0  0  0  0
   32.1230   25.6050   41.0170 H   0  0  0  0  0  0  0  0  0  0  0  0
   34.1690   25.9200   41.8550 C   0  0  0  0  0  0  0  0  0  0  0  0
   34.8290   25.7750   40.9850 H   0  0  0  0  0  0  0  0  0  0  0  0
   34.5850   26.2070   43.0630 O   0  0  0  0  0  0  0  0  0  0  0  0
  1  2  1  0  0  0  0
  2  3  2  0  0  0  0
  2  7  1  0  0  0  0
  3  4  1  0  0  0  0
  4  8  1  0  0  0  0
  4  5  2  0  0  0  0
  5  9  1  0  0  0  0
  6  5  1  0  0  0  0
  6 10  1  0  0  0  0
  7  6  2  0  0  0  0
 11 16  1  0  0  0  0
 12 13  1  0  0  0  0
 12 11  2  0  0  0  0
 13 14  2  0  0  0  0
 14 15  1  0  0  0  0
 15  3  1  0  0  0  0
 16 15  2  0  0  0  0
 17 11  1  0  0  0  0
 18 12  1  0  0  0  0
 19 13  1  0  0  0  0
 20  7  1  0  0  0  0
 21 22  1  0  0  0  0
 22 23  1  0  0  0  0
 23 20  1  0  0  0  0
 23 24  2  0  0  0  0
 24 28  1  0  0  0  0
 25 24  1  0  0  0  0
 25 29  1  0  0  0  0
 26 25  2  0  0  0  0
 27 22  2  0  0  0  0
 27 26  1  0  0  0  0
 30 26  1  0  0  0  0
 31 27  1  0  0  0  0
 32 33  1  0  0  0  0
 32 31  2  0  0  0  0
 34 36  2  0  0  0  0
 34 32  1  0  0  0  0
 35 34  1  0  0  0  0
 36 38  1  0  0  0  0
 37 36  1  0  0  0  0
 38 31  1  0  0  0  0
M  END
>  <minimizedAffinity>
-5.60170507

>  <minimizedRMSD>
0.0653607398

$$$$
