
 OpenBabel03272507513D

 27 29  0  0  0  0  0  0  0  0999 V2000
   37.8350   24.3630   33.4770 C   0  0  0  0  0  0  0  0  0  0  0  0
   38.0230   22.9940   33.7400 C   0  0  0  0  0  0  0  0  0  0  0  0
   37.3010   22.0630   32.9730 C   0  0  0  0  0  0  0  0  0  0  0  0
   36.4610   22.5290   32.0190 N   0  0  0  0  0  0  0  0  0  0  0  0
   36.2900   23.8310   31.7790 C   0  0  0  0  0  0  0  0  0  0  0  0
   36.9700   24.7370   32.5000 N   0  0  0  0  0  0  0  0  0  0  0  0
   37.4870   21.0340   33.2200 H   0  0  0  0  0  0  0  0  0  0  0  0
   35.6060   24.1510   31.0040 H   0  0  0  0  0  0  0  0  0  0  0  0
   38.9450   22.6130   34.7750 N   0  0  0  0  0  0  0  0  0  0  0  0
   40.2510   22.4000   34.4710 C   0  0  0  0  0  0  0  0  0  0  0  0
   41.1380   22.0440   35.4920 C   0  0  0  0  0  0  0  0  0  0  0  0
   40.5500   21.9480   36.7330 C   0  0  0  0  0  0  0  0  0  0  0  0
   41.3600   21.6250   37.6600 O   0  0  0  0  0  0  0  0  0  0  0  0
   39.2660   22.1560   37.0440 N   0  0  0  0  0  0  0  0  0  0  0  0
   38.4600   22.4970   36.0160 C   0  0  0  0  0  0  0  0  0  0  0  0
   37.2530   22.6960   36.2770 O   0  0  0  0  0  0  0  0  0  0  0  0
   40.6300   22.4970   33.4610 H   0  0  0  0  0  0  0  0  0  0  0  0
   42.1880   21.8590   35.3220 H   0  0  0  0  0  0  0  0  0  0  0  0
   38.9170   22.0570   38.0220 H   0  0  0  0  0  0  0  0  0  0  0  0
   38.5250   25.4100   34.2240 C   0  0  0  0  0  0  0  0  0  0  0  0
   37.9630   26.1660   35.2300 C   0  0  0  0  0  0  0  0  0  0  0  0
   36.9360   26.0820   35.5970 H   0  0  0  0  0  0  0  0  0  0  0  0
   38.8770   27.0670   35.7310 C   0  0  0  0  0  0  0  0  0  0  0  0
   38.7940   27.8050   36.5100 H   0  0  0  0  0  0  0  0  0  0  0  0
   40.0020   26.8150   34.9860 C   0  0  0  0  0  0  0  0  0  0  0  0
   40.9590   27.3400   35.0920 H   0  0  0  0  0  0  0  0  0  0  0  0
   39.7300   25.8680   34.1540 O   0  0  0  0  0  0  0  0  0  0  0  0
  1  2  1  0  0  0  0
  1 20  1  0  0  0  0
  2  9  1  0  0  0  0
  3  7  1  0  0  0  0
  3  2  2  0  0  0  0
  4  3  1  0  0  0  0
  5  4  2  0  0  0  0
  5  6  1  0  0  0  0
  6  1  2  0  0  0  0
  8  5  1  0  0  0  0
  9 15  1  0  0  0  0
 10  9  1  0  0  0  0
 10 11  2  0  0  0  0
 11 12  1  0  0  0  0
 12 14  1  0  0  0  0
 12 13  2  0  0  0  0
 14 19  1  0  0  0  0
 15 16  2  0  0  0  0
 15 14  1  0  0  0  0
 17 10  1  0  0  0  0
 18 11  1  0  0  0  0
 20 21  2  0  0  0  0
 21 22  1  0  0  0  0
 21 23  1  0  0  0  0
 23 24  1  0  0  0  0
 25 26  1  0  0  0  0
 25 23  2  0  0  0  0
 27 20  1  0  0  0  0
 27 25  1  0  0  0  0
M  END
>  <minimizedAffinity>
-4.98720455

$$$$

 OpenBabel03272507513D

 27 29  0  0  0  0  0  0  0  0999 V2000
   37.8850   25.0220   34.1620 C   0  0  0  0  0  0  0  0  0  0  0  0
   38.5450   25.2890   35.3750 C   0  0  0  0  0  0  0  0  0  0  0  0
   38.4120   26.5710   35.9370 C   0  0  0  0  0  0  0  0  0  0  0  0
   37.6570   27.4850   35.2840 N   0  0  0  0  0  0  0  0  0  0  0  0
   37.0360   27.2200   34.1320 C   0  0  0  0  0  0  0  0  0  0  0  0
   37.1490   26.0030   33.5780 N   0  0  0  0  0  0  0  0  0  0  0  0
   38.9390   26.7140   36.8630 H   0  0  0  0  0  0  0  0  0  0  0  0
   36.4440   27.9870   33.6500 H   0  0  0  0  0  0  0  0  0  0  0  0
   39.3180   24.2400   35.9820 N   0  0  0  0  0  0  0  0  0  0  0  0
   40.5980   24.0280   35.5840 C   0  0  0  0  0  0  0  0  0  0  0  0
   41.3410   23.0130   36.1950 C   0  0  0  0  0  0  0  0  0  0  0  0
   40.6520   22.3250   37.1670 C   0  0  0  0  0  0  0  0  0  0  0  0
   41.3310   21.4030   37.7220 O   0  0  0  0  0  0  0  0  0  0  0  0
   39.3910   22.5250   37.5670 N   0  0  0  0  0  0  0  0  0  0  0  0
   38.7260   23.5180   36.9400 C   0  0  0  0  0  0  0  0  0  0  0  0
   37.5440   23.7280   37.2940 O   0  0  0  0  0  0  0  0  0  0  0  0
   41.0640   24.6200   34.8060 H   0  0  0  0  0  0  0  0  0  0  0  0
   42.3630   22.7890   35.9280 H   0  0  0  0  0  0  0  0  0  0  0  0
   38.9560   21.9450   38.3180 H   0  0  0  0  0  0  0  0  0  0  0  0
   37.9680   23.7300   33.4890 C   0  0  0  0  0  0  0  0  0  0  0  0
   38.6880   23.4810   32.3390 C   0  0  0  0  0  0  0  0  0  0  0  0
   39.2840   24.2130   31.7850 H   0  0  0  0  0  0  0  0  0  0  0  0
   38.5600   22.1630   31.9600 C   0  0  0  0  0  0  0  0  0  0  0  0
   38.9730   21.6190   31.1280 H   0  0  0  0  0  0  0  0  0  0  0  0
   37.7400   21.6390   32.9280 C   0  0  0  0  0  0  0  0  0  0  0  0
   37.4030   20.5970   32.9730 H   0  0  0  0  0  0  0  0  0  0  0  0
   37.4450   22.5810   33.7580 O   0  0  0  0  0  0  0  0  0  0  0  0
  1  2  1  0  0  0  0
  2  3  2  0  0  0  0
  2  9  1  0  0  0  0
  3  7  1  0  0  0  0
  4  3  1  0  0  0  0
  5  4  2  0  0  0  0
  6  5  1  0  0  0  0
  6  1  2  0  0  0  0
  8  5  1  0  0  0  0
  9 15  1  0  0  0  0
 10  9  1  0  0  0  0
 10 11  2  0  0  0  0
 11 12  1  0  0  0  0
 12 14  1  0  0  0  0
 12 13  2  0  0  0  0
 14 19  1  0  0  0  0
 15 16  2  0  0  0  0
 15 14  1  0  0  0  0
 17 10  1  0  0  0  0
 18 11  1  0  0  0  0
 20 27  1  0  0  0  0
 20  1  1  0  0  0  0
 21 20  2  0  0  0  0
 22 21  1  0  0  0  0
 23 21  1  0  0  0  0
 23 25  2  0  0  0  0
 24 23  1  0  0  0  0
 25 26  1  0  0  0  0
 25 27  1  0  0  0  0
M  END
>  <minimizedAffinity>
-4.89282799

$$$$

 OpenBabel03272507513D

 27 29  0  0  0  0  0  0  0  0999 V2000
   40.4850   25.1740   34.9870 C   0  0  0  0  0  0  0  0  0  0  0  0
   40.5390   23.7950   35.2560 C   0  0  0  0  0  0  0  0  0  0  0  0
   41.8000   23.1980   35.4230 C   0  0  0  0  0  0  0  0  0  0  0  0
   42.9010   23.9790   35.3180 N   0  0  0  0  0  0  0  0  0  0  0  0
   42.8370   25.2880   35.0620 C   0  0  0  0  0  0  0  0  0  0  0  0
   41.6420   25.8780   34.8980 N   0  0  0  0  0  0  0  0  0  0  0  0
   41.7770   22.1420   35.6270 H   0  0  0  0  0  0  0  0  0  0  0  0
   43.7470   25.8680   34.9890 H   0  0  0  0  0  0  0  0  0  0  0  0
   39.3040   23.0630   35.3490 N   0  0  0  0  0  0  0  0  0  0  0  0
   38.7340   22.5550   34.2270 C   0  0  0  0  0  0  0  0  0  0  0  0
   37.5420   21.8340   34.3370 C   0  0  0  0  0  0  0  0  0  0  0  0
   37.0720   21.7250   35.6260 C   0  0  0  0  0  0  0  0  0  0  0  0
   35.9880   21.0660   35.7230 O   0  0  0  0  0  0  0  0  0  0  0  0
   37.6250   22.2210   36.7390 N   0  0  0  0  0  0  0  0  0  0  0  0
   38.7750   22.9070   36.5670 C   0  0  0  0  0  0  0  0  0  0  0  0
   39.3140   23.3840   37.5910 O   0  0  0  0  0  0  0  0  0  0  0  0
   39.1740   22.6900   33.2470 H   0  0  0  0  0  0  0  0  0  0  0  0
   37.0340   21.4030   33.4880 H   0  0  0  0  0  0  0  0  0  0  0  0
   37.1880   22.0830   37.6760 H   0  0  0  0  0  0  0  0  0  0  0  0
   39.2280   25.8870   34.7830 C   0  0  0  0  0  0  0  0  0  0  0  0
   38.6510   26.7510   35.6910 C   0  0  0  0  0  0  0  0  0  0  0  0
   39.0570   27.0110   36.6730 H   0  0  0  0  0  0  0  0  0  0  0  0
   37.4700   27.2590   35.1970 C   0  0  0  0  0  0  0  0  0  0  0  0
   36.7610   27.9500   35.6210 H   0  0  0  0  0  0  0  0  0  0  0  0
   37.3680   26.6660   33.9640 C   0  0  0  0  0  0  0  0  0  0  0  0
   36.5460   26.8230   33.2550 H   0  0  0  0  0  0  0  0  0  0  0  0
   38.3950   25.9040   33.7970 O   0  0  0  0  0  0  0  0  0  0  0  0
  1  2  1  0  0  0  0
  2  9  1  0  0  0  0
  2  3  2  0  0  0  0
  3  7  1  0  0  0  0
  4  3  1  0  0  0  0
  5  4  2  0  0  0  0
  6  1  2  0  0  0  0
  6  5  1  0  0  0  0
  8  5  1  0  0  0  0
  9 15  1  0  0  0  0
 10 11  2  0  0  0  0
 10  9  1  0  0  0  0
 11 12  1  0  0  0  0
 12 13  2  0  0  0  0
 12 14  1  0  0  0  0
 14 19  1  0  0  0  0
 15 14  1  0  0  0  0
 15 16  2  0  0  0  0
 17 10  1  0  0  0  0
 18 11  1  0  0  0  0
 20  1  1  0  0  0  0
 20 21  2  0  0  0  0
 21 22  1  0  0  0  0
 23 24  1  0  0  0  0
 23 21  1  0  0  0  0
 25 23  2  0  0  0  0
 26 25  1  0  0  0  0
 27 25  1  0  0  0  0
 27 20  1  0  0  0  0
M  END
>  <minimizedAffinity>
-4.73376799

$$$$

 OpenBabel03272507513D

 27 29  0  0  0  0  0  0  0  0999 V2000
   36.2970   28.3650   33.7310 C   0  0  0  0  0  0  0  0  0  0  0  0
   36.3590   28.3690   32.3260 C   0  0  0  0  0  0  0  0  0  0  0  0
   35.5950   29.3200   31.6290 C   0  0  0  0  0  0  0  0  0  0  0  0
   34.8380   30.1870   32.3420 N   0  0  0  0  0  0  0  0  0  0  0  0
   34.7870   30.1730   33.6760 C   0  0  0  0  0  0  0  0  0  0  0  0
   35.5080   29.2720   34.3620 N   0  0  0  0  0  0  0  0  0  0  0  0
   35.6850   29.2740   30.5580 H   0  0  0  0  0  0  0  0  0  0  0  0
   34.1650   30.8880   34.1990 H   0  0  0  0  0  0  0  0  0  0  0  0
   37.2010   27.4040   31.6720 N   0  0  0  0  0  0  0  0  0  0  0  0
   38.5370   27.6270   31.5810 C   0  0  0  0  0  0  0  0  0  0  0  0
   39.3440   26.6720   30.9540 C   0  0  0  0  0  0  0  0  0  0  0  0
   38.6530   25.5770   30.4870 C   0  0  0  0  0  0  0  0  0  0  0  0
   39.3900   24.7100   29.9180 O   0  0  0  0  0  0  0  0  0  0  0  0
   37.3370   25.3480   30.5720 N   0  0  0  0  0  0  0  0  0  0  0  0
   36.6130   26.3050   31.1870 C   0  0  0  0  0  0  0  0  0  0  0  0
   35.3790   26.1180   31.2800 O   0  0  0  0  0  0  0  0  0  0  0  0
   39.0000   28.5220   31.9770 H   0  0  0  0  0  0  0  0  0  0  0  0
   40.4120   26.7830   30.8450 H   0  0  0  0  0  0  0  0  0  0  0  0
   36.9070   24.4800   30.1830 H   0  0  0  0  0  0  0  0  0  0  0  0
   37.0390   27.4110   34.5490 C   0  0  0  0  0  0  0  0  0  0  0  0
   37.9970   27.7450   35.4820 C   0  0  0  0  0  0  0  0  0  0  0  0
   38.3240   28.7600   35.7290 H   0  0  0  0  0  0  0  0  0  0  0  0
   38.5090   26.6160   36.0820 C   0  0  0  0  0  0  0  0  0  0  0  0
   39.2600   26.4930   36.8430 H   0  0  0  0  0  0  0  0  0  0  0  0
   37.8180   25.6000   35.4710 C   0  0  0  0  0  0  0  0  0  0  0  0
   37.9470   24.5320   35.6840 H   0  0  0  0  0  0  0  0  0  0  0  0
   37.0050   26.1220   34.6160 O   0  0  0  0  0  0  0  0  0  0  0  0
  1  6  1  0  0  0  0
  1 20  1  0  0  0  0
  2  1  2  0  0  0  0
  3  2  1  0  0  0  0
  3  4  2  0  0  0  0
  4  5  1  0  0  0  0
  5  8  1  0  0  0  0
  5  6  2  0  0  0  0
  7  3  1  0  0  0  0
  9  2  1  0  0  0  0
 10  9  1  0  0  0  0
 10 17  1  0  0  0  0
 11 10  2  0  0  0  0
 12 14  1  0  0  0  0
 12 11  1  0  0  0  0
 13 12  2  0  0  0  0
 14 15  1  0  0  0  0
 15 16  2  0  0  0  0
 15  9  1  0  0  0  0
 18 11  1  0  0  0  0
 19 14  1  0  0  0  0
 20 27  1  0  0  0  0
 20 21  2  0  0  0  0
 21 22  1  0  0  0  0
 21 23  1  0  0  0  0
 23 24  1  0  0  0  0
 25 26  1  0  0  0  0
 25 23  2  0  0  0  0
 27 25  1  0  0  0  0
M  END
>  <minimizedAffinity>
-4.71445227

$$$$

 OpenBabel03272507513D

 27 29  0  0  0  0  0  0  0  0999 V2000
   37.8500   24.3610   33.4230 C   0  0  0  0  0  0  0  0  0  0  0  0
   37.6610   24.3610   32.0300 C   0  0  0  0  0  0  0  0  0  0  0  0
   37.6030   23.1240   31.3650 C   0  0  0  0  0  0  0  0  0  0  0  0
   37.7310   21.9930   32.0980 N   0  0  0  0  0  0  0  0  0  0  0  0
   37.9100   22.0050   33.4210 C   0  0  0  0  0  0  0  0  0  0  0  0
   37.9690   23.1760   34.0760 N   0  0  0  0  0  0  0  0  0  0  0  0
   37.4570   23.1900   30.3020 H   0  0  0  0  0  0  0  0  0  0  0  0
   38.0060   21.0720   33.9600 H   0  0  0  0  0  0  0  0  0  0  0  0
   37.5340   25.6240   31.3540 N   0  0  0  0  0  0  0  0  0  0  0  0
   38.6470   26.3270   31.0230 C   0  0  0  0  0  0  0  0  0  0  0  0
   38.5060   27.5470   30.3530 C   0  0  0  0  0  0  0  0  0  0  0  0
   37.2000   27.8980   30.1010 C   0  0  0  0  0  0  0  0  0  0  0  0
   37.0750   29.0060   29.4900 O   0  0  0  0  0  0  0  0  0  0  0  0
   36.0960   27.2120   30.4220 N   0  0  0  0  0  0  0  0  0  0  0  0
   36.2970   26.0440   31.0670 C   0  0  0  0  0  0  0  0  0  0  0  0
   35.2820   25.3820   31.3810 O   0  0  0  0  0  0  0  0  0  0  0  0
   39.6420   25.9750   31.2620 H   0  0  0  0  0  0  0  0  0  0  0  0
   39.3460   28.1580   30.0600 H   0  0  0  0  0  0  0  0  0  0  0  0
   35.1440   27.5660   30.1850 H   0  0  0  0  0  0  0  0  0  0  0  0
   37.9380   25.5890   34.2060 C   0  0  0  0  0  0  0  0  0  0  0  0
   39.0830   26.0620   34.8120 C   0  0  0  0  0  0  0  0  0  0  0  0
   40.0660   25.5810   34.7870 H   0  0  0  0  0  0  0  0  0  0  0  0
   38.8320   27.2440   35.4730 C   0  0  0  0  0  0  0  0  0  0  0  0
   39.4760   27.8880   36.0480 H   0  0  0  0  0  0  0  0  0  0  0  0
   37.4970   27.4560   35.2350 C   0  0  0  0  0  0  0  0  0  0  0  0
   36.9190   28.3110   35.6040 H   0  0  0  0  0  0  0  0  0  0  0  0
   37.0570   26.4820   34.5140 O   0  0  0  0  0  0  0  0  0  0  0  0
  1  6  1  0  0  0  0
  1 20  1  0  0  0  0
  2  1  2  0  0  0  0
  3  2  1  0  0  0  0
  3  4  2  0  0  0  0
  4  5  1  0  0  0  0
  5  8  1  0  0  0  0
  5  6  2  0  0  0  0
  7  3  1  0  0  0  0
  9  2  1  0  0  0  0
 10 17  1  0  0  0  0
 10  9  1  0  0  0  0
 11 10  2  0  0  0  0
 12 11  1  0  0  0  0
 12 14  1  0  0  0  0
 13 12  2  0  0  0  0
 14 15  1  0  0  0  0
 15  9  1  0  0  0  0
 15 16  2  0  0  0  0
 18 11  1  0  0  0  0
 19 14  1  0  0  0  0
 20 27  1  0  0  0  0
 20 21  2  0  0  0  0
 21 23  1  0  0  0  0
 22 21  1  0  0  0  0
 23 24  1  0  0  0  0
 25 23  2  0  0  0  0
 25 26  1  0  0  0  0
 27 25  1  0  0  0  0
M  END
>  <minimizedAffinity>
-4.60404444

$$$$

 OpenBabel03272507513D

 27 29  0  0  0  0  0  0  0  0999 V2000
   40.6530   24.4490   35.2040 C   0  0  0  0  0  0  0  0  0  0  0  0
   39.2730   24.6830   35.0720 C   0  0  0  0  0  0  0  0  0  0  0  0
   38.8490   25.9660   34.6840 C   0  0  0  0  0  0  0  0  0  0  0  0
   39.7890   26.9130   34.4560 N   0  0  0  0  0  0  0  0  0  0  0  0
   41.0970   26.6780   34.5850 C   0  0  0  0  0  0  0  0  0  0  0  0
   41.5240   25.4600   34.9540 N   0  0  0  0  0  0  0  0  0  0  0  0
   37.7830   26.0830   34.6000 H   0  0  0  0  0  0  0  0  0  0  0  0
   41.8080   27.4710   34.3900 H   0  0  0  0  0  0  0  0  0  0  0  0
   38.3630   23.6010   35.3360 N   0  0  0  0  0  0  0  0  0  0  0  0
   38.0530   22.7230   34.3470 C   0  0  0  0  0  0  0  0  0  0  0  0
   37.1780   21.6690   34.6240 C   0  0  0  0  0  0  0  0  0  0  0  0
   36.7190   21.6500   35.9210 C   0  0  0  0  0  0  0  0  0  0  0  0
   35.9240   20.6890   36.1710 O   0  0  0  0  0  0  0  0  0  0  0  0
   37.0170   22.5090   36.9030 N   0  0  0  0  0  0  0  0  0  0  0  0
   37.8670   23.5050   36.5740 C   0  0  0  0  0  0  0  0  0  0  0  0
   38.1630   24.3240   37.4720 O   0  0  0  0  0  0  0  0  0  0  0  0
   38.4620   22.8140   33.3480 H   0  0  0  0  0  0  0  0  0  0  0  0
   36.8870   20.9360   33.8870 H   0  0  0  0  0  0  0  0  0  0  0  0
   36.6140   22.4090   37.8600 H   0  0  0  0  0  0  0  0  0  0  0  0
   41.1960   23.1580   35.6130 C   0  0  0  0  0  0  0  0  0  0  0  0
   41.4140   22.7680   36.9180 C   0  0  0  0  0  0  0  0  0  0  0  0
   41.2110   23.3710   37.8090 H   0  0  0  0  0  0  0  0  0  0  0  0
   41.9350   21.4940   36.9650 C   0  0  0  0  0  0  0  0  0  0  0  0
   42.2240   20.8750   37.7980 H   0  0  0  0  0  0  0  0  0  0  0  0
   42.0160   21.1420   35.6420 C   0  0  0  0  0  0  0  0  0  0  0  0
   42.3890   20.1810   35.2670 H   0  0  0  0  0  0  0  0  0  0  0  0
   41.5830   22.1290   34.9350 O   0  0  0  0  0  0  0  0  0  0  0  0
  1 20  1  0  0  0  0
  2  1  1  0  0  0  0
  2  9  1  0  0  0  0
  3  2  2  0  0  0  0
  4  5  2  0  0  0  0
  4  3  1  0  0  0  0
  5  6  1  0  0  0  0
  6  1  2  0  0  0  0
  7  3  1  0  0  0  0
  8  5  1  0  0  0  0
  9 15  1  0  0  0  0
 10 11  2  0  0  0  0
 10  9  1  0  0  0  0
 11 12  1  0  0  0  0
 12 13  2  0  0  0  0
 12 14  1  0  0  0  0
 14 19  1  0  0  0  0
 15 14  1  0  0  0  0
 15 16  2  0  0  0  0
 17 10  1  0  0  0  0
 18 11  1  0  0  0  0
 20 21  2  0  0  0  0
 21 23  1  0  0  0  0
 21 22  1  0  0  0  0
 23 24  1  0  0  0  0
 25 23  2  0  0  0  0
 26 25  1  0  0  0  0
 27 20  1  0  0  0  0
 27 25  1  0  0  0  0
M  END
>  <minimizedAffinity>
-4.49489355

$$$$

 OpenBabel03272507513D

 27 29  0  0  0  0  0  0  0  0999 V2000
   37.5960   24.6570   33.3120 C   0  0  0  0  0  0  0  0  0  0  0  0
   37.7640   23.2850   33.5730 C   0  0  0  0  0  0  0  0  0  0  0  0
   37.0840   22.3640   32.7570 C   0  0  0  0  0  0  0  0  0  0  0  0
   36.3020   22.8420   31.7610 N   0  0  0  0  0  0  0  0  0  0  0  0
   36.1500   24.1470   31.5230 C   0  0  0  0  0  0  0  0  0  0  0  0
   36.7900   25.0440   32.2910 N   0  0  0  0  0  0  0  0  0  0  0  0
   37.2520   21.3320   33.0050 H   0  0  0  0  0  0  0  0  0  0  0  0
   35.5130   24.4770   30.7140 H   0  0  0  0  0  0  0  0  0  0  0  0
   38.6230   22.8900   34.6560 N   0  0  0  0  0  0  0  0  0  0  0  0
   38.1410   22.8630   35.9250 C   0  0  0  0  0  0  0  0  0  0  0  0
   38.9850   22.4640   36.9650 C   0  0  0  0  0  0  0  0  0  0  0  0
   40.2570   22.1340   36.5560 C   0  0  0  0  0  0  0  0  0  0  0  0
   41.0220   21.7690   37.5040 O   0  0  0  0  0  0  0  0  0  0  0  0
   40.7430   22.1570   35.3090 N   0  0  0  0  0  0  0  0  0  0  0  0
   39.8800   22.5510   34.3500 C   0  0  0  0  0  0  0  0  0  0  0  0
   40.3080   22.5830   33.1740 O   0  0  0  0  0  0  0  0  0  0  0  0
   37.1210   23.1430   36.1580 H   0  0  0  0  0  0  0  0  0  0  0  0
   38.6690   22.4200   37.9960 H   0  0  0  0  0  0  0  0  0  0  0  0
   41.7290   21.8860   35.1010 H   0  0  0  0  0  0  0  0  0  0  0  0
   38.2460   25.6940   34.1080 C   0  0  0  0  0  0  0  0  0  0  0  0
   37.6200   26.4690   35.0610 C   0  0  0  0  0  0  0  0  0  0  0  0
   36.5640   26.4100   35.3420 H   0  0  0  0  0  0  0  0  0  0  0  0
   38.5090   27.3530   35.6300 C   0  0  0  0  0  0  0  0  0  0  0  0
   38.3780   28.1000   36.3950 H   0  0  0  0  0  0  0  0  0  0  0  0
   39.6850   27.0720   34.9820 C   0  0  0  0  0  0  0  0  0  0  0  0
   40.6420   27.5780   35.1630 H   0  0  0  0  0  0  0  0  0  0  0  0
   39.4620   26.1250   34.1350 O   0  0  0  0  0  0  0  0  0  0  0  0
  1  2  1  0  0  0  0
  1 20  1  0  0  0  0
  2  9  1  0  0  0  0
  3  7  1  0  0  0  0
  3  2  2  0  0  0  0
  4  3  1  0  0  0  0
  5  4  2  0  0  0  0
  5  6  1  0  0  0  0
  6  1  2  0  0  0  0
  8  5  1  0  0  0  0
  9 10  1  0  0  0  0
 10 17  1  0  0  0  0
 10 11  2  0  0  0  0
 11 18  1  0  0  0  0
 12 11  1  0  0  0  0
 12 13  2  0  0  0  0
 14 12  1  0  0  0  0
 15  9  1  0  0  0  0
 15 14  1  0  0  0  0
 16 15  2  0  0  0  0
 19 14  1  0  0  0  0
 20 27  1  0  0  0  0
 20 21  2  0  0  0  0
 21 22  1  0  0  0  0
 21 23  1  0  0  0  0
 23 24  1  0  0  0  0
 25 26  1  0  0  0  0
 25 23  2  0  0  0  0
 27 25  1  0  0  0  0
M  END
>  <minimizedAffinity>
-4.49487925

$$$$

 OpenBabel03272507513D

 27 29  0  0  0  0  0  0  0  0999 V2000
   35.5770   29.2640   34.0880 C   0  0  0  0  0  0  0  0  0  0  0  0
   35.1130   29.1590   32.7650 C   0  0  0  0  0  0  0  0  0  0  0  0
   35.5970   28.1060   31.9700 C   0  0  0  0  0  0  0  0  0  0  0  0
   36.4860   27.2430   32.5170 N   0  0  0  0  0  0  0  0  0  0  0  0
   36.9200   27.3530   33.7750 C   0  0  0  0  0  0  0  0  0  0  0  0
   36.4710   28.3520   34.5510 N   0  0  0  0  0  0  0  0  0  0  0  0
   35.2050   28.0790   30.9690 H   0  0  0  0  0  0  0  0  0  0  0  0
   37.6310   26.6360   34.1630 H   0  0  0  0  0  0  0  0  0  0  0  0
   34.1650   30.1300   32.2900 N   0  0  0  0  0  0  0  0  0  0  0  0
   34.6060   31.2930   31.7450 C   0  0  0  0  0  0  0  0  0  0  0  0
   33.6710   32.2210   31.2750 C   0  0  0  0  0  0  0  0  0  0  0  0
   32.3630   31.8230   31.4300 C   0  0  0  0  0  0  0  0  0  0  0  0
   31.5150   32.6690   31.0000 O   0  0  0  0  0  0  0  0  0  0  0  0
   31.9170   30.6810   31.9660 N   0  0  0  0  0  0  0  0  0  0  0  0
   32.8670   29.8270   32.4010 C   0  0  0  0  0  0  0  0  0  0  0  0
   32.4800   28.7500   32.9070 O   0  0  0  0  0  0  0  0  0  0  0  0
   35.6600   31.5270   31.6630 H   0  0  0  0  0  0  0  0  0  0  0  0
   33.9500   33.1650   30.8310 H   0  0  0  0  0  0  0  0  0  0  0  0
   30.8980   30.4720   32.0380 H   0  0  0  0  0  0  0  0  0  0  0  0
   35.1480   30.3270   34.9910 C   0  0  0  0  0  0  0  0  0  0  0  0
   35.9750   31.2890   35.5310 C   0  0  0  0  0  0  0  0  0  0  0  0
   37.0520   31.3810   35.3550 H   0  0  0  0  0  0  0  0  0  0  0  0
   35.2630   32.1450   36.3410 C   0  0  0  0  0  0  0  0  0  0  0  0
   35.5720   33.0000   36.9180 H   0  0  0  0  0  0  0  0  0  0  0  0
   33.9830   31.6550   36.2620 C   0  0  0  0  0  0  0  0  0  0  0  0
   33.1130   32.0770   36.7800 H   0  0  0  0  0  0  0  0  0  0  0  0
   33.9930   30.6280   35.4820 O   0  0  0  0  0  0  0  0  0  0  0  0
  1  6  1  0  0  0  0
  1 20  1  0  0  0  0
  2  1  2  0  0  0  0
  3  4  2  0  0  0  0
  3  2  1  0  0  0  0
  4  5  1  0  0  0  0
  5  8  1  0  0  0  0
  5  6  2  0  0  0  0
  7  3  1  0  0  0  0
  9 15  1  0  0  0  0
  9  2  1  0  0  0  0
 10  9  1  0  0  0  0
 11 12  1  0  0  0  0
 11 10  2  0  0  0  0
 12 14  1  0  0  0  0
 13 12  2  0  0  0  0
 14 19  1  0  0  0  0
 14 15  1  0  0  0  0
 15 16  2  0  0  0  0
 17 10  1  0  0  0  0
 18 11  1  0  0  0  0
 20 27  1  0  0  0  0
 20 21  2  0  0  0  0
 21 23  1  0  0  0  0
 22 21  1  0  0  0  0
 23 24  1  0  0  0  0
 25 23  2  0  0  0  0
 25 26  1  0  0  0  0
 27 25  1  0  0  0  0
M  END
>  <minimizedAffinity>
-4.47682619

$$$$

 OpenBabel03272507513D

 27 29  0  0  0  0  0  0  0  0999 V2000
   40.5710   24.1950   35.4740 C   0  0  0  0  0  0  0  0  0  0  0  0
   40.6310   25.4680   34.8800 C   0  0  0  0  0  0  0  0  0  0  0  0
   41.8870   25.9650   34.4930 C   0  0  0  0  0  0  0  0  0  0  0  0
   42.9790   25.1930   34.7100 N   0  0  0  0  0  0  0  0  0  0  0  0
   42.9090   23.9850   35.2750 C   0  0  0  0  0  0  0  0  0  0  0  0
   41.7190   23.4920   35.6530 N   0  0  0  0  0  0  0  0  0  0  0  0
   41.8690   26.9420   34.0450 H   0  0  0  0  0  0  0  0  0  0  0  0
   43.8120   23.4090   35.4260 H   0  0  0  0  0  0  0  0  0  0  0  0
   39.4060   26.1990   34.6940 N   0  0  0  0  0  0  0  0  0  0  0  0
   38.9770   27.0530   35.6590 C   0  0  0  0  0  0  0  0  0  0  0  0
   37.7920   27.7670   35.4570 C   0  0  0  0  0  0  0  0  0  0  0  0
   37.1800   27.5030   34.2530 C   0  0  0  0  0  0  0  0  0  0  0  0
   36.1020   28.1550   34.0710 O   0  0  0  0  0  0  0  0  0  0  0  0
   37.5930   26.6630   33.2960 N   0  0  0  0  0  0  0  0  0  0  0  0
   38.7430   26.0040   33.5500 C   0  0  0  0  0  0  0  0  0  0  0  0
   39.1540   25.2120   32.6720 O   0  0  0  0  0  0  0  0  0  0  0  0
   39.5240   27.2000   36.5820 H   0  0  0  0  0  0  0  0  0  0  0  0
   37.3920   28.4610   36.1800 H   0  0  0  0  0  0  0  0  0  0  0  0
   37.0540   26.5330   32.4130 H   0  0  0  0  0  0  0  0  0  0  0  0
   39.3190   23.5940   35.9230 C   0  0  0  0  0  0  0  0  0  0  0  0
   38.7640   23.7640   37.1740 C   0  0  0  0  0  0  0  0  0  0  0  0
   39.1850   24.3640   37.9860 H   0  0  0  0  0  0  0  0  0  0  0  0
   37.5820   23.0650   37.2810 C   0  0  0  0  0  0  0  0  0  0  0  0
   36.8860   22.9650   38.0960 H   0  0  0  0  0  0  0  0  0  0  0  0
   37.4560   22.4760   36.0480 C   0  0  0  0  0  0  0  0  0  0  0  0
   36.6270   21.8280   35.7400 H   0  0  0  0  0  0  0  0  0  0  0  0
   38.4730   22.8190   35.3320 O   0  0  0  0  0  0  0  0  0  0  0  0
  1  6  1  0  0  0  0
  1 20  1  0  0  0  0
  2  1  2  0  0  0  0
  3  4  2  0  0  0  0
  3  2  1  0  0  0  0
  4  5  1  0  0  0  0
  5  8  1  0  0  0  0
  5  6  2  0  0  0  0
  7  3  1  0  0  0  0
  9  2  1  0  0  0  0
  9 10  1  0  0  0  0
 10 17  1  0  0  0  0
 11 10  2  0  0  0  0
 11 18  1  0  0  0  0
 12 11  1  0  0  0  0
 13 12  2  0  0  0  0
 14 15  1  0  0  0  0
 14 12  1  0  0  0  0
 15  9  1  0  0  0  0
 16 15  2  0  0  0  0
 19 14  1  0  0  0  0
 20 21  2  0  0  0  0
 21 23  1  0  0  0  0
 21 22  1  0  0  0  0
 23 24  1  0  0  0  0
 25 23  2  0  0  0  0
 26 25  1  0  0  0  0
 27 20  1  0  0  0  0
 27 25  1  0  0  0  0
M  END
>  <minimizedAffinity>
-4.44739485

$$$$
