
 OpenBabel03272508543D

 37 40  0  0  1  0  0  0  0  0999 V2000
   38.3790   31.8480   44.5680 C   0  0  0  0  0  0  0  0  0  0  0  0
   37.2470   32.4080   44.4490 O   0  0  0  0  0  0  0  0  0  0  0  0
   38.9290   31.5810   45.8620 N   0  0  0  0  0  0  0  0  0  0  0  0
   39.9120   31.2740   46.0300 H   0  0  0  0  0  0  0  0  0  0  0  0
   39.1490   31.4600   43.3780 C   0  0  0  0  0  0  0  0  0  0  0  0
   40.1150   30.4980   43.5180 C   0  0  0  0  0  0  0  0  0  0  0  0
   40.8440   30.1150   42.4090 C   0  0  0  0  0  0  0  0  0  0  0  0
   40.5550   30.7310   41.2100 C   0  0  0  0  0  0  0  0  0  0  0  0
   39.5820   31.7030   41.0590 C   0  0  0  0  0  0  0  0  0  0  0  0
   38.9260   32.0130   42.1790 N   0  0  0  0  0  0  0  0  0  0  0  0
   40.3780   29.9860   44.4350 H   0  0  0  0  0  0  0  0  0  0  0  0
   41.6180   29.3620   42.4540 H   0  0  0  0  0  0  0  0  0  0  0  0
   41.1330   30.4240   40.3450 H   0  0  0  0  0  0  0  0  0  0  0  0
   39.2950   32.3410   39.7810 C   0  0  0  0  0  0  0  0  0  0  0  0
   38.6380   33.5580   39.6690 C   0  0  0  0  0  0  0  0  0  0  0  0
   38.2700   34.1670   40.4780 H   0  0  0  0  0  0  0  0  0  0  0  0
   38.5950   33.7550   38.2860 C   0  0  0  0  0  0  0  0  0  0  0  0
   38.1480   34.6180   37.8110 H   0  0  0  0  0  0  0  0  0  0  0  0
   39.2030   32.6870   37.6560 C   0  0  0  0  0  0  0  0  0  0  0  0
   39.3480   32.5120   36.5980 H   0  0  0  0  0  0  0  0  0  0  0  0
   39.6150   31.8520   38.5880 O   0  0  0  0  0  0  0  0  0  0  0  0
   38.4260   31.1310   48.2580 C   0  0  2  0  0  0  0  0  0  0  0  0
   38.6950   32.5730   48.1560 C   0  0  0  0  0  0  0  0  0  0  0  0
   38.0520   31.7540   47.0100 C   0  0  1  0  0  0  0  0  0  0  0  0
   39.3450   30.5140   48.3400 H   0  0  0  0  0  0  0  0  0  0  0  0
   38.0760   33.3300   48.6660 H   0  0  0  0  0  0  0  0  0  0  0  0
   39.7330   32.9260   48.0020 H   0  0  0  0  0  0  0  0  0  0  0  0
   36.9980   32.0810   46.8030 H   0  0  0  0  0  0  0  0  0  0  0  0
   35.0830   30.1980   49.5470 C   0  0  0  0  0  0  0  0  0  0  0  0
   35.4030   29.5530   50.7850 C   0  0  0  0  0  0  0  0  0  0  0  0
   36.8000   29.4670   51.1450 C   0  0  0  0  0  0  0  0  0  0  0  0
   37.7430   29.9910   50.3110 N   0  0  0  0  0  0  0  0  0  0  0  0
   37.3480   30.5900   49.1460 C   0  0  0  0  0  0  0  0  0  0  0  0
   36.0350   30.7090   48.7360 N   0  0  0  0  0  0  0  0  0  0  0  0
   34.0330   30.2270   49.3420 H   0  0  0  0  0  0  0  0  0  0  0  0
   34.6410   29.1540   51.4160 H   0  0  0  0  0  0  0  0  0  0  0  0
   37.0440   28.9840   52.0760 H   0  0  0  0  0  0  0  0  0  0  0  0
  1  3  1  0  0  0  0
  2  1  2  0  0  0  0
  3  4  1  0  0  0  0
  3 24  1  0  0  0  0
  5  6  1  0  0  0  0
  5  1  1  0  0  0  0
  6 11  1  0  0  0  0
  7 12  1  0  0  0  0
  7  6  2  0  0  0  0
  8  7  1  0  0  0  0
  9  8  2  0  0  0  0
  9 10  1  0  0  0  0
 10  5  2  0  0  0  0
 13  8  1  0  0  0  0
 14  9  1  0  0  0  0
 15 14  2  0  0  0  0
 15 16  1  0  0  0  0
 17 15  1  0  0  0  0
 18 17  1  0  0  0  0
 19 17  2  0  0  0  0
 19 21  1  0  0  0  0
 20 19  1  0  0  0  0
 21 14  1  0  0  0  0
 22 25  1  6  0  0  0
 22 33  1  0  0  0  0
 23 22  1  0  0  0  0
 23 26  1  0  0  0  0
 24 28  1  6  0  0  0
 24 23  1  0  0  0  0
 24 22  1  0  0  0  0
 27 23  1  0  0  0  0
 29 30  1  0  0  0  0
 30 31  2  0  0  0  0
 30 36  1  0  0  0  0
 31 37  1  0  0  0  0
 32 31  1  0  0  0  0
 33 32  2  0  0  0  0
 34 33  1  0  0  0  0
 34 29  2  0  0  0  0
 35 29  1  0  0  0  0
M  END
>  <minimizedAffinity>
-5.16156864

>  <minimizedRMSD>
0.158691987

$$$$
