
 OpenBabel03272508123D

 33 35  0  0  0  0  0  0  0  0999 V2000
   36.7170   29.3530   44.0430 Cl  0  0  0  0  0  0  0  0  0  0  0  0
   38.3690   29.7670   43.5540 C   0  0  0  0  0  0  0  0  0  0  0  0
   39.3330   30.3030   44.4080 C   0  0  0  0  0  0  0  0  0  0  0  0
   40.5850   30.5810   43.8860 C   0  0  0  0  0  0  0  0  0  0  0  0
   40.8590   30.3330   42.5660 C   0  0  0  0  0  0  0  0  0  0  0  0
   39.9390   29.8120   41.7180 C   0  0  0  0  0  0  0  0  0  0  0  0
   38.6840   29.5240   42.2030 C   0  0  0  0  0  0  0  0  0  0  0  0
   41.2470   30.9910   44.6380 H   0  0  0  0  0  0  0  0  0  0  0  0
   41.8590   30.5780   42.2390 H   0  0  0  0  0  0  0  0  0  0  0  0
   40.1630   29.6190   40.6760 H   0  0  0  0  0  0  0  0  0  0  0  0
   37.6700   28.9620   41.3110 C   0  0  0  0  0  0  0  0  0  0  0  0
   37.5340   27.6260   41.0000 C   0  0  0  0  0  0  0  0  0  0  0  0
   38.1040   26.7770   41.3220 H   0  0  0  0  0  0  0  0  0  0  0  0
   36.4600   27.4920   40.1270 C   0  0  0  0  0  0  0  0  0  0  0  0
   35.9920   26.6650   39.6280 H   0  0  0  0  0  0  0  0  0  0  0  0
   35.9890   28.7990   39.9530 C   0  0  0  0  0  0  0  0  0  0  0  0
   35.1520   29.1090   39.3360 H   0  0  0  0  0  0  0  0  0  0  0  0
   36.7330   29.6130   40.6670 O   0  0  0  0  0  0  0  0  0  0  0  0
   38.8470   30.4680   45.6760 O   0  0  0  0  0  0  0  0  0  0  0  0
   39.4320   32.5440   47.0990 O   0  0  0  0  0  0  0  0  0  0  0  0
   38.2900   31.8500   46.4280 P   0  0  1  0  0  0  0  0  0  0  0  0
   37.6940   32.8320   45.1580 O   0  0  0  0  0  0  0  0  0  0  0  0
   38.3210   33.5880   45.0120 H   0  0  0  0  0  0  0  0  0  0  0  0
   37.0200   31.4600   47.4790 O   0  0  0  0  0  0  0  0  0  0  0  0
   37.6200   30.5220   50.9960 C   0  0  0  0  0  0  0  0  0  0  0  0
   37.7020   31.3100   49.8450 C   0  0  0  0  0  0  0  0  0  0  0  0
   37.0700   30.8690   48.6870 C   0  0  0  0  0  0  0  0  0  0  0  0
   36.3960   29.6800   48.7410 N   0  0  0  0  0  0  0  0  0  0  0  0
   36.3370   28.9440   49.8720 C   0  0  0  0  0  0  0  0  0  0  0  0
   36.9450   29.3630   50.9920 N   0  0  0  0  0  0  0  0  0  0  0  0
   38.1370   30.9290   51.8570 H   0  0  0  0  0  0  0  0  0  0  0  0
   38.2040   32.2390   49.7270 H   0  0  0  0  0  0  0  0  0  0  0  0
   35.7940   27.9960   49.9000 H   0  0  0  0  0  0  0  0  0  0  0  0
  2  1  1  0  0  0  0
  2  3  1  0  0  0  0
  3 19  1  0  0  0  0
  4  3  2  0  0  0  0
  4  8  1  0  0  0  0
  5  4  1  0  0  0  0
  6  7  1  0  0  0  0
  6  5  2  0  0  0  0
  7  2  2  0  0  0  0
  9  5  1  0  0  0  0
 10  6  1  0  0  0  0
 11  7  1  0  0  0  0
 12 11  2  0  0  0  0
 12 13  1  0  0  0  0
 14 12  1  0  0  0  0
 15 14  1  0  0  0  0
 16 14  2  0  0  0  0
 16 18  1  0  0  0  0
 17 16  1  0  0  0  0
 18 11  1  0  0  0  0
 19 21  1  0  0  0  0
 21 20  2  1  0  0  0
 21 24  1  0  0  0  0
 22 21  1  0  0  0  0
 23 22  1  0  0  0  0
 24 27  1  0  0  0  0
 25 31  1  0  0  0  0
 26 25  2  0  0  0  0
 27 28  2  0  0  0  0
 27 26  1  0  0  0  0
 28 29  1  0  0  0  0
 29 33  1  0  0  0  0
 29 30  2  0  0  0  0
 30 25  1  0  0  0  0
 32 26  1  0  0  0  0
M  END
>  <minimizedAffinity>
-4.77909231

>  <minimizedRMSD>
0.402312726

$$$$
