REMARK  Name = 
REMARK  3 active torsions:
REMARK  status: ('A' for Active; 'I' for Inactive)
REMARK    1  A    between atoms: C_3  and  C_12
REMARK    2  A    between atoms: C_5  and  C_14
REMARK    3  A    between atoms: C_18  and  C_28
REMARK                            x       y       z     vdW  Elec       q    Type
REMARK                         _______ _______ _______ _____ _____    ______ ____
ROOT
ATOM      1 BR   UNL     1      37.317  29.334  51.029  0.00  0.00    +0.000 Br
ATOM      2  C   UNL     1      35.961  29.328  49.675  0.00  0.00    +0.000 A 
ATOM      3  C   UNL     1      35.996  30.251  48.642  0.00  0.00    +0.000 A 
ATOM      4  C   UNL     1      34.990  30.197  47.696  0.00  0.00    +0.000 A 
ATOM      5  C   UNL     1      33.965  29.256  47.758  0.00  0.00    +0.000 A 
ATOM      6  C   UNL     1      33.960  28.366  48.785  0.00  0.00    +0.000 A 
ATOM      7  C   UNL     1      34.959  28.410  49.736  0.00  0.00    +0.000 A 
ATOM      8  H   UNL     1      34.952  30.882  46.863  0.00  0.00    +0.000 HD
ATOM      9  H   UNL     1      33.180  27.642  48.842  0.00  0.00    +0.000 HD
ATOM     10  H   UNL     1      34.902  27.677  50.529  0.00  0.00    +0.000 HD
ENDROOT
BRANCH   3  15
ATOM     11  C   UNL     1      37.988  33.200  49.463  0.00  0.00    +0.000 A 
ATOM     12  C   UNL     1      39.013  33.182  48.482  0.00  0.00    +0.000 A 
ATOM     13  C   UNL     1      39.009  32.152  47.545  0.00  0.00    +0.000 A 
ATOM     14  N   UNL     1      38.018  31.201  47.608  0.00  0.00    +0.000 NA
ATOM     15  C   UNL     1      37.059  31.247  48.552  0.00  0.00    +0.000 A 
ATOM     16  N   UNL     1      37.049  32.249  49.477  0.00  0.00    +0.000 NA
ATOM     17  H   UNL     1      38.034  34.015  50.166  0.00  0.00    +0.000 HD
ATOM     18  H   UNL     1      39.766  33.948  48.474  0.00  0.00    +0.000 HD
ATOM     19  H   UNL     1      39.758  32.092  46.785  0.00  0.00    +0.000 HD
ENDBRANCH   3  15
BRANCH   5  20
ATOM     20  C   UNL     1      32.898  29.197  46.758  0.00  0.00    +0.000 A 
ATOM     21  C   UNL     1      32.255  28.037  46.369  0.00  0.00    +0.000 A 
ATOM     22  C   UNL     1      31.249  28.038  45.414  0.00  0.00    +0.000 A 
ATOM     23  N   UNL     1      30.874  29.177  44.842  0.00  0.00    +0.000 NA
ATOM     24  C   UNL     1      31.492  30.314  45.212  0.00  0.00    +0.000 A 
ATOM     25  N   UNL     1      32.463  30.312  46.133  0.00  0.00    +0.000 NA
ATOM     26  H   UNL     1      32.567  27.112  46.841  0.00  0.00    +0.000 HD
ATOM     27  H   UNL     1      30.781  27.098  45.150  0.00  0.00    +0.000 HD
BRANCH  24  28
ATOM     28  C   UNL     1      31.202  31.647  44.684  0.00  0.00    +0.000 A 
ATOM     29  C   UNL     1      29.898  31.959  44.283  0.00  0.00    +0.000 A 
ATOM     30  H   UNL     1      29.016  31.334  44.303  0.00  0.00    +0.000 HD
ATOM     31  C   UNL     1      29.898  33.277  43.825  0.00  0.00    +0.000 A 
ATOM     32  H   UNL     1      29.015  33.782  43.452  0.00  0.00    +0.000 HD
ATOM     33  C   UNL     1      31.229  33.684  43.981  0.00  0.00    +0.000 A 
ATOM     34  H   UNL     1      31.559  34.678  43.709  0.00  0.00    +0.000 HD
ATOM     35  O   UNL     1      31.934  32.717  44.475  0.00  0.00    +0.000 OA
ENDBRANCH  24  28
ENDBRANCH   5  20
TORSDOF 3
