
 OpenBabel03272510023D

 20 21  0  0  0  0  0  0  0  0999 V2000
   38.3220   31.2820   50.2100 C   0  0  0  0  0  0  0  0  0  0  0  0
   38.4150   31.5650   48.8260 C   0  0  0  0  0  0  0  0  0  0  0  0
   37.4050   31.0970   47.9980 C   0  0  0  0  0  0  0  0  0  0  0  0
   36.3780   30.3920   48.5480 N   0  0  0  0  0  0  0  0  0  0  0  0
   36.3280   30.1440   49.8740 C   0  0  0  0  0  0  0  0  0  0  0  0
   37.2880   30.5830   50.6980 N   0  0  0  0  0  0  0  0  0  0  0  0
   39.0930   31.6320   50.8830 H   0  0  0  0  0  0  0  0  0  0  0  0
   39.2510   32.1310   48.4300 H   0  0  0  0  0  0  0  0  0  0  0  0
   37.4470   31.3580   46.5640 C   0  0  0  0  0  0  0  0  0  0  0  0
   36.8230   30.5890   45.6060 C   0  0  0  0  0  0  0  0  0  0  0  0
   36.2200   29.6970   45.7680 H   0  0  0  0  0  0  0  0  0  0  0  0
   37.1690   31.2530   44.4240 C   0  0  0  0  0  0  0  0  0  0  0  0
   36.8360   30.9100   43.4370 H   0  0  0  0  0  0  0  0  0  0  0  0
   37.9550   32.3470   44.7200 C   0  0  0  0  0  0  0  0  0  0  0  0
   38.3710   33.0510   43.9850 H   0  0  0  0  0  0  0  0  0  0  0  0
   38.0970   32.3690   46.0380 O   0  0  0  0  0  0  0  0  0  0  0  0
   35.1680   29.3730   50.3800 C   0  0  0  0  0  0  0  0  0  0  0  0
   35.2410   29.1120   51.7390 F   0  0  0  0  0  0  0  0  0  0  0  0
   33.9720   30.0870   50.1960 F   0  0  0  0  0  0  0  0  0  0  0  0
   34.9820   28.1820   49.7460 F   0  0  0  0  0  0  0  0  0  0  0  0
  1  6  1  0  0  0  0
  1  7  1  0  0  0  0
  2  1  2  0  0  0  0
  3  4  2  0  0  0  0
  3  2  1  0  0  0  0
  4  5  1  0  0  0  0
  5 17  1  0  0  0  0
  5  6  2  0  0  0  0
  8  2  1  0  0  0  0
  9  3  1  0  0  0  0
 10 11  1  0  0  0  0
 10  9  2  0  0  0  0
 12 14  2  0  0  0  0
 12 10  1  0  0  0  0
 13 12  1  0  0  0  0
 14 16  1  0  0  0  0
 15 14  1  0  0  0  0
 16  9  1  0  0  0  0
 17 18  1  0  0  0  0
 19 17  1  0  0  0  0
 20 17  1  0  0  0  0
M  END
>  <minimizedAffinity>
-5.25563192

>  <minimizedRMSD>
0.359754235

$$$$
