REMARK  Name = 
REMARK  6 active torsions:
REMARK  status: ('A' for Active; 'I' for Inactive)
REMARK    1  A    between atoms: C_1  and  O_6
REMARK    2  A    between atoms: C_2  and  S_7
REMARK    3  A    between atoms: C_5  and  O_14
REMARK    4  A    between atoms: S_7  and  C_12
REMARK    5  A    between atoms: O_14  and  C_17
REMARK    6  A    between atoms: C_21  and  C_34
REMARK                            x       y       z     vdW  Elec       q    Type
REMARK                         _______ _______ _______ _____ _____    ______ ____
ROOT
ATOM      1  C   UNL     1      32.168  28.527  47.421  0.00  0.00    +0.000 C 
ATOM      2  C   UNL     1      33.407  28.365  48.251  0.00  0.00    +0.000 C 
ATOM      3  O   UNL     1      33.806  27.067  48.166  0.00  0.00    +0.000 OA
ATOM      4  C   UNL     1      33.105  26.436  47.144  0.00  0.00    +0.000 C 
ATOM      5  C   UNL     1      32.508  27.521  46.276  0.00  0.00    +0.000 C 
ATOM      6  H   UNL     1      31.247  28.181  47.878  0.00  0.00    +0.000 HD
ATOM      7  H   UNL     1      33.158  28.712  49.273  0.00  0.00    +0.000 HD
ATOM      8  H   UNL     1      32.398  25.770  47.620  0.00  0.00    +0.000 HD
ATOM      9  H   UNL     1      33.888  25.855  46.560  0.00  0.00    +0.000 HD
ATOM     10  H   UNL     1      33.247  28.001  45.638  0.00  0.00    +0.000 HD
ENDROOT
BRANCH   1  11
ATOM     11  O   UNL     1      32.097  29.827  46.881  0.00  0.00    +0.000 OA
ATOM     12  H   UNL     1      32.635  29.815  46.053  0.00  0.00    +0.000 HD
ENDBRANCH   1  11
BRANCH   2  13
ATOM     13  S   UNL     1      34.717  29.411  47.497  0.00  0.00    +0.000 S 
BRANCH  13  18
ATOM     14  C   UNL     1      37.133  29.293  50.636  0.00  0.00    +0.000 A 
ATOM     15  C   UNL     1      37.633  30.590  50.755  0.00  0.00    +0.000 A 
ATOM     16  C   UNL     1      37.209  31.537  49.831  0.00  0.00    +0.000 A 
ATOM     17  N   UNL     1      36.329  31.159  48.857  0.00  0.00    +0.000 NA
ATOM     18  C   UNL     1      35.870  29.891  48.779  0.00  0.00    +0.000 A 
ATOM     19  N   UNL     1      36.263  28.941  49.665  0.00  0.00    +0.000 NA
ATOM     20  H   UNL     1      37.408  28.492  51.310  0.00  0.00    +0.000 HD
ATOM     21  H   UNL     1      38.319  30.817  51.542  0.00  0.00    +0.000 HD
ATOM     22  H   UNL     1      37.570  32.557  49.883  0.00  0.00    +0.000 HD
ENDBRANCH  13  18
ENDBRANCH   2  13
BRANCH   5  23
ATOM     23  O   UNL     1      31.364  27.042  45.686  0.00  0.00    +0.000 OA
BRANCH  23  26
ATOM     24 CL   UNL     1      29.880  29.116  44.213  0.00  0.00    +0.000 Cl
ATOM     25  C   UNL     1      29.335  28.126  45.545  0.00  0.00    +0.000 A 
ATOM     26  C   UNL     1      30.125  27.174  46.149  0.00  0.00    +0.000 A 
ATOM     27  C   UNL     1      29.568  26.424  47.187  0.00  0.00    +0.000 A 
ATOM     28  C   UNL     1      28.267  26.637  47.590  0.00  0.00    +0.000 A 
ATOM     29  C   UNL     1      27.466  27.592  46.990  0.00  0.00    +0.000 A 
ATOM     30  C   UNL     1      28.021  28.332  45.962  0.00  0.00    +0.000 A 
ATOM     31  H   UNL     1      30.092  25.653  47.722  0.00  0.00    +0.000 HD
ATOM     32  H   UNL     1      27.792  26.089  48.383  0.00  0.00    +0.000 HD
ATOM     33  H   UNL     1      26.445  27.766  47.300  0.00  0.00    +0.000 HD
BRANCH  30  34
ATOM     34  C   UNL     1      27.194  29.347  45.313  0.00  0.00    +0.000 A 
ATOM     35  C   UNL     1      27.065  30.652  45.654  0.00  0.00    +0.000 A 
ATOM     36  H   UNL     1      27.588  31.129  46.496  0.00  0.00    +0.000 HD
ATOM     37  C   UNL     1      26.187  31.309  44.804  0.00  0.00    +0.000 A 
ATOM     38  H   UNL     1      25.861  32.330  44.787  0.00  0.00    +0.000 HD
ATOM     39  C   UNL     1      25.815  30.296  43.944  0.00  0.00    +0.000 A 
ATOM     40  H   UNL     1      25.120  30.349  43.091  0.00  0.00    +0.000 HD
ATOM     41  O   UNL     1      26.414  29.175  44.265  0.00  0.00    +0.000 OA
ENDBRANCH  30  34
ENDBRANCH  23  26
ENDBRANCH   5  23
TORSDOF 6
