
 OpenBabel03262523063D

 40 44  0  0  0  0  0  0  0  0999 V2000
   37.2830   30.9710   49.7170 C   0  0  0  0  0  0  0  0  0  0  0  0
   37.5050   30.5760   51.0130 C   0  0  0  0  0  0  0  0  0  0  0  0
   36.6720   29.6340   51.5550 C   0  0  0  0  0  0  0  0  0  0  0  0
   35.6520   29.1080   50.8260 N   0  0  0  0  0  0  0  0  0  0  0  0
   35.4730   29.5200   49.5760 C   0  0  0  0  0  0  0  0  0  0  0  0
   36.2720   30.4500   48.9950 N   0  0  0  0  0  0  0  0  0  0  0  0
   38.3230   31.0060   51.5780 H   0  0  0  0  0  0  0  0  0  0  0  0
   36.8230   29.3050   52.5700 H   0  0  0  0  0  0  0  0  0  0  0  0
   34.3820   28.9610   48.7920 C   0  0  0  0  0  0  0  0  0  0  0  0
   34.4490   28.9130   47.4130 C   0  0  0  0  0  0  0  0  0  0  0  0
   33.5070   28.4220   46.5350 C   0  0  0  0  0  0  0  0  0  0  0  0
   32.3650   27.9230   47.1690 C   0  0  0  0  0  0  0  0  0  0  0  0
   31.3890   27.4210   46.3580 N   0  0  0  0  0  0  0  0  0  0  0  0
   30.2570   26.9190   46.8610 C   0  0  0  0  0  0  0  0  0  0  0  0
   30.0620   26.9080   48.2480 C   0  0  0  0  0  0  0  0  0  0  0  0
   31.0530   27.4170   49.0620 C   0  0  0  0  0  0  0  0  0  0  0  0
   32.2350   27.9410   48.5460 C   0  0  0  0  0  0  0  0  0  0  0  0
   33.2250   28.4500   49.3450 C   0  0  0  0  0  0  0  0  0  0  0  0
   35.3600   29.3150   46.9710 H   0  0  0  0  0  0  0  0  0  0  0  0
   33.6610   28.4340   45.4870 H   0  0  0  0  0  0  0  0  0  0  0  0
   29.4600   26.5130   46.2630 H   0  0  0  0  0  0  0  0  0  0  0  0
   29.1720   26.5190   48.7120 H   0  0  0  0  0  0  0  0  0  0  0  0
   30.9840   27.4470   50.1420 H   0  0  0  0  0  0  0  0  0  0  0  0
   33.1110   28.4580   50.4220 H   0  0  0  0  0  0  0  0  0  0  0  0
   39.3500   33.9520   49.1180 C   0  0  0  0  0  0  0  0  0  0  0  0
   39.7300   33.8120   47.7890 C   0  0  0  0  0  0  0  0  0  0  0  0
   39.2590   32.6700   47.1050 C   0  0  0  0  0  0  0  0  0  0  0  0
   38.4680   31.7760   47.7680 N   0  0  0  0  0  0  0  0  0  0  0  0
   38.1350   31.9750   49.0720 C   0  0  0  0  0  0  0  0  0  0  0  0
   38.5770   33.0640   49.7440 N   0  0  0  0  0  0  0  0  0  0  0  0
   39.6590   34.7940   49.7340 H   0  0  0  0  0  0  0  0  0  0  0  0
   40.3480   34.5440   47.3300 H   0  0  0  0  0  0  0  0  0  0  0  0
   39.6300   32.4790   45.7080 C   0  0  0  0  0  0  0  0  0  0  0  0
   40.4750   31.4840   45.2610 C   0  0  0  0  0  0  0  0  0  0  0  0
   40.9740   30.7230   45.8370 H   0  0  0  0  0  0  0  0  0  0  0  0
   40.5060   31.7240   43.8810 C   0  0  0  0  0  0  0  0  0  0  0  0
   41.1000   31.1010   43.1960 H   0  0  0  0  0  0  0  0  0  0  0  0
   39.6970   32.8270   43.5840 C   0  0  0  0  0  0  0  0  0  0  0  0
   39.5830   33.1820   42.5580 H   0  0  0  0  0  0  0  0  0  0  0  0
   39.1970   33.2340   44.7390 O   0  0  0  0  0  0  0  0  0  0  0  0
  1  2  1  0  0  0  0
  2  3  2  0  0  0  0
  2  7  1  0  0  0  0
  3  8  1  0  0  0  0
  4  3  1  0  0  0  0
  5  4  2  0  0  0  0
  6  5  1  0  0  0  0
  6  1  2  0  0  0  0
  9 18  1  0  0  0  0
  9  5  1  0  0  0  0
 10  9  2  0  0  0  0
 11 12  2  0  0  0  0
 11 10  1  0  0  0  0
 12 17  1  0  0  0  0
 13 14  2  0  0  0  0
 13 12  1  0  0  0  0
 14 15  1  0  0  0  0
 15 22  1  0  0  0  0
 15 16  2  0  0  0  0
 16 23  1  0  0  0  0
 17 16  1  0  0  0  0
 17 18  2  0  0  0  0
 18 24  1  0  0  0  0
 19 10  1  0  0  0  0
 20 11  1  0  0  0  0
 21 14  1  0  0  0  0
 25 31  1  0  0  0  0
 25 30  1  0  0  0  0
 26 25  2  0  0  0  0
 27 28  2  0  0  0  0
 27 26  1  0  0  0  0
 28 29  1  0  0  0  0
 29  1  1  0  0  0  0
 29 30  2  0  0  0  0
 32 26  1  0  0  0  0
 33 27  1  0  0  0  0
 34 33  2  0  0  0  0
 34 35  1  0  0  0  0
 36 34  1  0  0  0  0
 37 36  1  0  0  0  0
 38 36  2  0  0  0  0
 38 40  1  0  0  0  0
 39 38  1  0  0  0  0
 40 33  1  0  0  0  0
M  END
>  <minimizedAffinity>
-7.49095917

>  <minimizedRMSD>
0.511288464

$$$$
