
 OpenBabel03272506583D

 27 29  0  0  0  0  0  0  0  0999 V2000
   39.8340   30.9570   44.7150 C   0  0  0  0  0  0  0  0  0  0  0  0
   40.5200   32.1550   44.5970 C   0  0  0  0  0  0  0  0  0  0  0  0
   40.4510   33.2130   45.4700 C   0  0  0  0  0  0  0  0  0  0  0  0
   39.6280   33.0490   46.5450 N   0  0  0  0  0  0  0  0  0  0  0  0
   38.9430   31.8880   46.6860 C   0  0  0  0  0  0  0  0  0  0  0  0
   39.0480   30.8850   45.7990 N   0  0  0  0  0  0  0  0  0  0  0  0
   41.1810   32.3130   43.7540 H   0  0  0  0  0  0  0  0  0  0  0  0
   41.0100   34.1200   45.3260 H   0  0  0  0  0  0  0  0  0  0  0  0
   39.1690   27.8800   42.9300 C   0  0  0  0  0  0  0  0  0  0  0  0
   40.1290   27.8360   41.9050 C   0  0  0  0  0  0  0  0  0  0  0  0
   41.0320   28.9330   41.8570 C   0  0  0  0  0  0  0  0  0  0  0  0
   40.9170   29.9210   42.7680 N   0  0  0  0  0  0  0  0  0  0  0  0
   39.9840   29.9050   43.7170 C   0  0  0  0  0  0  0  0  0  0  0  0
   39.0720   28.8860   43.8390 N   0  0  0  0  0  0  0  0  0  0  0  0
   38.4480   27.0690   43.0230 H   0  0  0  0  0  0  0  0  0  0  0  0
   41.7880   28.9480   41.0880 H   0  0  0  0  0  0  0  0  0  0  0  0
   40.1920   26.7670   40.9830 N   0  0  0  0  0  0  0  0  0  0  0  0
   39.7260   25.8850   41.2760 H   0  0  0  0  0  0  0  0  0  0  0  0
   40.6900   26.9270   40.0850 H   0  0  0  0  0  0  0  0  0  0  0  0
   38.0350   31.6030   47.7950 C   0  0  0  0  0  0  0  0  0  0  0  0
   38.4470   31.9310   49.0710 C   0  0  0  0  0  0  0  0  0  0  0  0
   39.3380   32.3790   49.4920 H   0  0  0  0  0  0  0  0  0  0  0  0
   37.4060   31.5580   49.9200 C   0  0  0  0  0  0  0  0  0  0  0  0
   37.2350   31.6000   50.9820 H   0  0  0  0  0  0  0  0  0  0  0  0
   36.4210   31.0230   49.1010 C   0  0  0  0  0  0  0  0  0  0  0  0
   35.4390   30.6120   49.3690 H   0  0  0  0  0  0  0  0  0  0  0  0
   36.8250   31.0650   47.8440 O   0  0  0  0  0  0  0  0  0  0  0  0
  1  6  1  0  0  0  0
  2  1  2  0  0  0  0
  2  3  1  0  0  0  0
  3  4  2  0  0  0  0
  4  5  1  0  0  0  0
  5 20  1  0  0  0  0
  6  5  2  0  0  0  0
  7  2  1  0  0  0  0
  8  3  1  0  0  0  0
  9 15  1  0  0  0  0
  9 14  1  0  0  0  0
 10  9  2  0  0  0  0
 11 10  1  0  0  0  0
 11 12  2  0  0  0  0
 12 13  1  0  0  0  0
 13 14  2  0  0  0  0
 13  1  1  0  0  0  0
 16 11  1  0  0  0  0
 17 18  1  0  0  0  0
 17 10  1  0  0  0  0
 19 17  1  0  0  0  0
 20 27  1  0  0  0  0
 20 21  2  0  0  0  0
 21 22  1  0  0  0  0
 21 23  1  0  0  0  0
 23 24  1  0  0  0  0
 25 26  1  0  0  0  0
 25 23  2  0  0  0  0
 27 25  1  0  0  0  0
M  END
>  <minimizedAffinity>
-5.35259628

>  <minimizedRMSD>
6.04486942

$$$$
