REMARK  Name = 
REMARK  4 active torsions:
REMARK  status: ('A' for Active; 'I' for Inactive)
REMARK    1  A    between atoms: C_3  and  C_12
REMARK    2  A    between atoms: C_7  and  S_14
REMARK    3  A    between atoms: S_14  and  C_17
REMARK    4  A    between atoms: C_21  and  C_31
REMARK                            x       y       z     vdW  Elec       q    Type
REMARK                         _______ _______ _______ _____ _____    ______ ____
ROOT
ATOM      1 CL   UNL     1      36.392  30.909  45.703  0.00  0.00    +0.000 Cl
ATOM      2  C   UNL     1      36.684  30.762  47.410  0.00  0.00    +0.000 A 
ATOM      3  C   UNL     1      37.936  31.077  47.876  0.00  0.00    +0.000 A 
ATOM      4  C   UNL     1      38.172  30.961  49.234  0.00  0.00    +0.000 A 
ATOM      5  C   UNL     1      37.174  30.544  50.071  0.00  0.00    +0.000 A 
ATOM      6  C   UNL     1      35.930  30.241  49.535  0.00  0.00    +0.000 A 
ATOM      7  C   UNL     1      35.619  30.330  48.204  0.00  0.00    +0.000 A 
ATOM      8  H   UNL     1      39.168  31.215  49.580  0.00  0.00    +0.000 HD
ATOM      9  H   UNL     1      37.344  30.449  51.133  0.00  0.00    +0.000 HD
ATOM     10  H   UNL     1      35.153  29.911  50.220  0.00  0.00    +0.000 HD
ENDROOT
BRANCH   3  15
ATOM     11  C   UNL     1      40.200  33.308  46.081  0.00  0.00    +0.000 A 
ATOM     12  C   UNL     1      40.912  32.452  45.203  0.00  0.00    +0.000 A 
ATOM     13  C   UNL     1      40.590  31.091  45.247  0.00  0.00    +0.000 A 
ATOM     14  N   UNL     1      39.626  30.670  46.119  0.00  0.00    +0.000 NA
ATOM     15  C   UNL     1      38.983  31.524  46.928  0.00  0.00    +0.000 A 
ATOM     16  N   UNL     1      39.271  32.830  46.907  0.00  0.00    +0.000 NA
ATOM     17  H   UNL     1      40.428  34.346  46.066  0.00  0.00    +0.000 HD
ATOM     18  H   UNL     1      41.657  32.811  44.537  0.00  0.00    +0.000 HD
ATOM     19  H   UNL     1      41.078  30.360  44.617  0.00  0.00    +0.000 HD
ENDBRANCH   3  15
BRANCH   7  20
ATOM     20  S   UNL     1      34.034  29.946  47.507  0.00  0.00    +0.000 S 
BRANCH  20  23
ATOM     21 CL   UNL     1      33.749  29.180  44.477  0.00  0.00    +0.000 Cl
ATOM     22  C   UNL     1      33.784  27.956  45.712  0.00  0.00    +0.000 A 
ATOM     23  C   UNL     1      33.905  28.210  47.078  0.00  0.00    +0.000 A 
ATOM     24  C   UNL     1      33.919  27.158  47.974  0.00  0.00    +0.000 A 
ATOM     25  C   UNL     1      33.814  25.864  47.528  0.00  0.00    +0.000 A 
ATOM     26  C   UNL     1      33.691  25.551  46.183  0.00  0.00    +0.000 A 
ATOM     27  C   UNL     1      33.682  26.633  45.316  0.00  0.00    +0.000 A 
ATOM     28  H   UNL     1      34.016  27.442  49.017  0.00  0.00    +0.000 HD
ATOM     29  H   UNL     1      33.830  25.082  48.277  0.00  0.00    +0.000 HD
ATOM     30  H   UNL     1      33.610  24.546  45.839  0.00  0.00    +0.000 HD
BRANCH  27  31
ATOM     31  C   UNL     1      33.553  26.320  43.889  0.00  0.00    +0.000 A 
ATOM     32  C   UNL     1      32.560  25.674  43.230  0.00  0.00    +0.000 A 
ATOM     33  H   UNL     1      31.671  25.287  43.751  0.00  0.00    +0.000 HD
ATOM     34  C   UNL     1      32.802  25.573  41.876  0.00  0.00    +0.000 A 
ATOM     35  H   UNL     1      32.204  25.119  41.098  0.00  0.00    +0.000 HD
ATOM     36  C   UNL     1      34.031  26.212  41.771  0.00  0.00    +0.000 A 
ATOM     37  H   UNL     1      34.601  26.358  40.840  0.00  0.00    +0.000 HD
ATOM     38  O   UNL     1      34.420  26.623  42.951  0.00  0.00    +0.000 OA
ENDBRANCH  27  31
ENDBRANCH  20  23
ENDBRANCH   7  20
TORSDOF 4
