
 OpenBabel03272510283D

 44 48  0  0  1  0  0  0  0  0999 V2000
   35.5690   29.2240   32.7550 C   0  0  0  0  0  0  0  0  0  0  0  0
   35.8080   29.1780   34.1060 C   0  0  0  0  0  0  0  0  0  0  0  0
   36.5700   28.1420   34.6740 C   0  0  0  0  0  0  0  0  0  0  0  0
   37.0600   27.1800   33.7890 C   0  0  0  0  0  0  0  0  0  0  0  0
   37.8220   26.0840   34.0800 N   0  0  0  0  0  0  0  0  0  0  0  0
   38.0520   25.4600   32.9180 C   0  0  0  0  0  0  0  0  0  0  0  0
   37.4660   26.1230   31.9390 N   0  0  0  0  0  0  0  0  0  0  0  0
   36.8360   27.2010   32.4360 C   0  0  0  0  0  0  0  0  0  0  0  0
   36.0720   28.2520   31.9150 C   0  0  0  0  0  0  0  0  0  0  0  0
   34.9790   30.0280   32.3260 H   0  0  0  0  0  0  0  0  0  0  0  0
   36.7780   28.0760   35.7380 H   0  0  0  0  0  0  0  0  0  0  0  0
   38.1480   25.8110   35.0240 H   0  0  0  0  0  0  0  0  0  0  0  0
   35.8950   28.2680   30.8480 H   0  0  0  0  0  0  0  0  0  0  0  0
   35.2830   32.0670   36.4640 C   0  0  0  0  0  0  0  0  0  0  0  0
   35.9800   31.1370   35.6920 C   0  0  0  0  0  0  0  0  0  0  0  0
   35.2730   30.2170   34.9660 C   0  0  0  0  0  0  0  0  0  0  0  0
   33.8970   30.2760   35.0530 N   0  0  0  0  0  0  0  0  0  0  0  0
   33.2320   31.1750   35.7990 C   0  0  0  0  0  0  0  0  0  0  0  0
   33.9240   32.0560   36.4940 N   0  0  0  0  0  0  0  0  0  0  0  0
   35.8600   32.7850   37.0300 H   0  0  0  0  0  0  0  0  0  0  0  0
   37.0510   31.0790   35.6150 H   0  0  0  0  0  0  0  0  0  0  0  0
   32.1510   31.1560   35.8140 H   0  0  0  0  0  0  0  0  0  0  0  0
   38.8090   24.2900   32.8350 O   0  0  0  0  0  0  0  0  0  0  0  0
   39.1870   22.4940   34.2290 N   0  0  0  0  0  0  0  0  0  0  0  0
   39.4620   23.9020   34.0400 C   0  0  1  0  0  0  0  0  0  0  0  0
   40.8920   24.1450   33.9540 C   0  0  0  0  0  0  0  0  0  0  0  0
   41.4860   23.7820   35.1740 O   0  0  0  0  0  0  0  0  0  0  0  0
   41.2260   22.5080   35.5930 C   0  0  0  0  0  0  0  0  0  0  0  0
   39.7590   22.1640   35.5220 C   0  0  1  0  0  0  0  0  0  0  0  0
   39.5800   21.8310   33.5850 H   0  0  0  0  0  0  0  0  0  0  0  0
   39.0260   24.4150   34.9140 H   0  0  0  0  0  0  0  0  0  0  0  0
   41.0480   25.2660   33.9130 H   0  0  0  0  0  0  0  0  0  0  0  0
   41.5440   23.7270   33.2340 H   0  0  0  0  0  0  0  0  0  0  0  0
   41.5540   22.4150   36.6290 H   0  0  0  0  0  0  0  0  0  0  0  0
   41.7730   21.7900   34.9230 H   0  0  0  0  0  0  0  0  0  0  0  0
   39.6690   21.0740   35.7460 H   0  0  0  0  0  0  0  0  0  0  0  0
   39.0490   22.9850   36.5380 C   0  0  0  0  0  0  0  0  0  0  0  0
   39.4670   22.9090   37.8710 C   0  0  0  0  0  0  0  0  0  0  0  0
   40.2600   22.3250   38.3200 H   0  0  0  0  0  0  0  0  0  0  0  0
   38.6650   23.7530   38.6240 C   0  0  0  0  0  0  0  0  0  0  0  0
   38.7380   23.9140   39.6910 H   0  0  0  0  0  0  0  0  0  0  0  0
   37.7970   24.2990   37.7000 C   0  0  0  0  0  0  0  0  0  0  0  0
   37.0330   25.0120   37.9820 H   0  0  0  0  0  0  0  0  0  0  0  0
   38.0450   23.8310   36.4870 O   0  0  0  0  0  0  0  0  0  0  0  0
  1  2  1  0  0  0  0
  2  3  2  0  0  0  0
  2 16  1  0  0  0  0
  3 11  1  0  0  0  0
  4  5  1  0  0  0  0
  4  3  1  0  0  0  0
  5 12  1  0  0  0  0
  6  5  1  0  0  0  0
  7  8  1  0  0  0  0
  7  6  2  0  0  0  0
  8  4  2  0  0  0  0
  9  8  1  0  0  0  0
  9  1  2  0  0  0  0
 10  1  1  0  0  0  0
 13  9  1  0  0  0  0
 14 19  1  0  0  0  0
 14 20  1  0  0  0  0
 15 14  2  0  0  0  0
 16 17  2  0  0  0  0
 16 15  1  0  0  0  0
 17 18  1  0  0  0  0
 18 22  1  0  0  0  0
 18 19  2  0  0  0  0
 21 15  1  0  0  0  0
 23  6  1  0  0  0  0
 23 25  1  0  0  0  0
 24 29  1  0  0  0  0
 25 24  1  0  0  0  0
 25 31  1  1  0  0  0
 26 25  1  0  0  0  0
 26 27  1  0  0  0  0
 27 28  1  0  0  0  0
 28 34  1  0  0  0  0
 29 28  1  0  0  0  0
 29 36  1  1  0  0  0
 29 37  1  0  0  0  0
 30 24  1  0  0  0  0
 32 26  1  0  0  0  0
 33 26  1  0  0  0  0
 35 28  1  0  0  0  0
 37 38  2  0  0  0  0
 38 39  1  0  0  0  0
 38 40  1  0  0  0  0
 40 41  1  0  0  0  0
 42 43  1  0  0  0  0
 42 40  2  0  0  0  0
 44 37  1  0  0  0  0
 44 42  1  0  0  0  0
M  END
>  <minimizedAffinity>
-6.21471405

$$$$

 OpenBabel03272510283D

 44 48  0  0  1  0  0  0  0  0999 V2000
   38.0250   24.9010   33.6840 C   0  0  0  0  0  0  0  0  0  0  0  0
   38.0080   25.3100   34.9950 C   0  0  0  0  0  0  0  0  0  0  0  0
   37.4470   26.5450   35.3620 C   0  0  0  0  0  0  0  0  0  0  0  0
   36.9160   27.3160   34.3260 C   0  0  0  0  0  0  0  0  0  0  0  0
   36.3160   28.5400   34.4130 N   0  0  0  0  0  0  0  0  0  0  0  0
   35.9650   28.8820   33.1670 C   0  0  0  0  0  0  0  0  0  0  0  0
   36.3240   27.9280   32.3310 N   0  0  0  0  0  0  0  0  0  0  0  0
   36.9200   26.9320   33.0080 C   0  0  0  0  0  0  0  0  0  0  0  0
   37.4900   25.6930   32.6890 C   0  0  0  0  0  0  0  0  0  0  0  0
   38.4610   23.9460   33.4100 H   0  0  0  0  0  0  0  0  0  0  0  0
   37.4160   26.8990   36.3880 H   0  0  0  0  0  0  0  0  0  0  0  0
   36.1710   29.0780   35.2860 H   0  0  0  0  0  0  0  0  0  0  0  0
   37.4930   25.3910   31.6510 H   0  0  0  0  0  0  0  0  0  0  0  0
   40.0500   22.8750   37.0150 C   0  0  0  0  0  0  0  0  0  0  0  0
   39.6540   23.6240   35.9060 C   0  0  0  0  0  0  0  0  0  0  0  0
   38.5720   24.4540   36.0220 C   0  0  0  0  0  0  0  0  0  0  0  0
   37.9400   24.4910   37.2480 N   0  0  0  0  0  0  0  0  0  0  0  0
   38.3270   23.7670   38.3110 C   0  0  0  0  0  0  0  0  0  0  0  0
   39.3710   22.9700   38.1880 N   0  0  0  0  0  0  0  0  0  0  0  0
   40.9070   22.2260   36.9020 H   0  0  0  0  0  0  0  0  0  0  0  0
   40.1350   23.6060   34.9450 H   0  0  0  0  0  0  0  0  0  0  0  0
   37.7790   23.8510   39.2400 H   0  0  0  0  0  0  0  0  0  0  0  0
   35.3190   30.0850   32.8770 O   0  0  0  0  0  0  0  0  0  0  0  0
   33.5710   31.5660   33.1300 N   0  0  0  0  0  0  0  0  0  0  0  0
   34.0080   30.2160   33.4170 C   0  0  1  0  0  0  0  0  0  0  0  0
   33.1050   29.2420   32.8260 C   0  0  0  0  0  0  0  0  0  0  0  0
   31.8370   29.3860   33.4140 O   0  0  0  0  0  0  0  0  0  0  0  0
   31.3090   30.6440   33.3600 C   0  0  0  0  0  0  0  0  0  0  0  0
   32.2900   31.7030   33.8010 C   0  0  1  0  0  0  0  0  0  0  0  0
   33.4050   31.8310   32.1770 H   0  0  0  0  0  0  0  0  0  0  0  0
   34.0180   30.1290   34.5170 H   0  0  0  0  0  0  0  0  0  0  0  0
   33.4360   28.2150   33.1700 H   0  0  0  0  0  0  0  0  0  0  0  0
   32.8860   29.1550   31.7950 H   0  0  0  0  0  0  0  0  0  0  0  0
   30.4430   30.6790   34.0210 H   0  0  0  0  0  0  0  0  0  0  0  0
   31.0250   30.8700   32.2970 H   0  0  0  0  0  0  0  0  0  0  0  0
   31.8190   32.6920   33.5880 H   0  0  0  0  0  0  0  0  0  0  0  0
   32.5350   31.5210   35.2560 C   0  0  0  0  0  0  0  0  0  0  0  0
   33.4380   32.3770   35.8950 C   0  0  0  0  0  0  0  0  0  0  0  0
   34.0240   33.1950   35.4960 H   0  0  0  0  0  0  0  0  0  0  0  0
   33.5000   32.0180   37.2320 C   0  0  0  0  0  0  0  0  0  0  0  0
   34.1110   32.4910   37.9890 H   0  0  0  0  0  0  0  0  0  0  0  0
   32.6250   30.9550   37.3330 C   0  0  0  0  0  0  0  0  0  0  0  0
   32.4480   30.4440   38.2700 H   0  0  0  0  0  0  0  0  0  0  0  0
   32.0750   30.6860   36.1600 O   0  0  0  0  0  0  0  0  0  0  0  0
  1  2  1  0  0  0  0
  2  3  2  0  0  0  0
  2 16  1  0  0  0  0
  3 11  1  0  0  0  0
  4  5  1  0  0  0  0
  4  3  1  0  0  0  0
  5 12  1  0  0  0  0
  6  5  1  0  0  0  0
  7  8  1  0  0  0  0
  7  6  2  0  0  0  0
  8  4  2  0  0  0  0
  9  8  1  0  0  0  0
  9  1  2  0  0  0  0
 10  1  1  0  0  0  0
 13  9  1  0  0  0  0
 14 19  1  0  0  0  0
 15 16  1  0  0  0  0
 15 14  2  0  0  0  0
 16 17  2  0  0  0  0
 17 18  1  0  0  0  0
 18 22  1  0  0  0  0
 19 18  2  0  0  0  0
 20 14  1  0  0  0  0
 21 15  1  0  0  0  0
 23  6  1  0  0  0  0
 23 25  1  0  0  0  0
 24 25  1  0  0  0  0
 24 29  1  0  0  0  0
 25 31  1  1  0  0  0
 26 32  1  0  0  0  0
 26 27  1  0  0  0  0
 26 25  1  0  0  0  0
 28 27  1  0  0  0  0
 28 29  1  0  0  0  0
 28 34  1  0  0  0  0
 29 36  1  6  0  0  0
 29 37  1  0  0  0  0
 30 24  1  0  0  0  0
 33 26  1  0  0  0  0
 35 28  1  0  0  0  0
 37 38  2  0  0  0  0
 37 44  1  0  0  0  0
 38 40  1  0  0  0  0
 39 38  1  0  0  0  0
 40 42  2  0  0  0  0
 40 41  1  0  0  0  0
 42 43  1  0  0  0  0
 44 42  1  0  0  0  0
M  END
>  <minimizedAffinity>
-6.00863695

$$$$

 OpenBabel03272510283D

 44 48  0  0  1  0  0  0  0  0999 V2000
   36.9370   28.4270   31.7750 C   0  0  0  0  0  0  0  0  0  0  0  0
   36.5060   28.3320   33.0760 C   0  0  0  0  0  0  0  0  0  0  0  0
   37.1780   27.5190   34.0060 C   0  0  0  0  0  0  0  0  0  0  0  0
   38.2920   26.8270   33.5290 C   0  0  0  0  0  0  0  0  0  0  0  0
   39.1140   25.9830   34.2210 N   0  0  0  0  0  0  0  0  0  0  0  0
   40.0430   25.5610   33.3540 C   0  0  0  0  0  0  0  0  0  0  0  0
   39.8250   26.1070   32.1740 N   0  0  0  0  0  0  0  0  0  0  0  0
   38.7440   26.9030   32.2360 C   0  0  0  0  0  0  0  0  0  0  0  0
   38.0440   27.7250   31.3450 C   0  0  0  0  0  0  0  0  0  0  0  0
   36.4110   29.0570   31.0650 H   0  0  0  0  0  0  0  0  0  0  0  0
   36.8640   27.4220   35.0410 H   0  0  0  0  0  0  0  0  0  0  0  0
   39.0160   25.7330   35.2210 H   0  0  0  0  0  0  0  0  0  0  0  0
   38.4000   27.7840   30.3260 H   0  0  0  0  0  0  0  0  0  0  0  0
   34.0280   30.5440   34.8510 C   0  0  0  0  0  0  0  0  0  0  0  0
   35.2390   29.8950   34.6040 C   0  0  0  0  0  0  0  0  0  0  0  0
   35.3430   29.0870   33.5040 C   0  0  0  0  0  0  0  0  0  0  0  0
   34.2240   28.9700   32.7050 N   0  0  0  0  0  0  0  0  0  0  0  0
   33.0610   29.5990   32.9490 C   0  0  0  0  0  0  0  0  0  0  0  0
   32.9730   30.3750   34.0120 N   0  0  0  0  0  0  0  0  0  0  0  0
   33.9670   31.1770   35.7240 H   0  0  0  0  0  0  0  0  0  0  0  0
   36.1180   29.9750   35.2170 H   0  0  0  0  0  0  0  0  0  0  0  0
   32.2280   29.4570   32.2740 H   0  0  0  0  0  0  0  0  0  0  0  0
   41.0600   24.6770   33.7220 O   0  0  0  0  0  0  0  0  0  0  0  0
   40.0850   22.8280   34.6910 N   0  0  0  0  0  0  0  0  0  0  0  0
   40.8680   24.0140   34.9670 C   0  0  1  0  0  0  0  0  0  0  0  0
   42.1440   23.6640   35.5690 C   0  0  0  0  0  0  0  0  0  0  0  0
   41.9050   23.0460   36.8080 O   0  0  0  0  0  0  0  0  0  0  0  0
   41.0660   21.9690   36.7690 C   0  0  0  0  0  0  0  0  0  0  0  0
   39.8030   22.2470   35.9920 C   0  0  1  0  0  0  0  0  0  0  0  0
   40.4960   22.0890   34.1500 H   0  0  0  0  0  0  0  0  0  0  0  0
   40.2600   24.6240   35.6560 H   0  0  0  0  0  0  0  0  0  0  0  0
   42.6630   24.6290   35.8560 H   0  0  0  0  0  0  0  0  0  0  0  0
   42.8830   23.0480   35.1300 H   0  0  0  0  0  0  0  0  0  0  0  0
   40.7930   21.7130   37.7930 H   0  0  0  0  0  0  0  0  0  0  0  0
   41.5960   21.1190   36.2600 H   0  0  0  0  0  0  0  0  0  0  0  0
   39.2590   21.2770   35.9000 H   0  0  0  0  0  0  0  0  0  0  0  0
   39.0080   23.2440   36.7560 C   0  0  0  0  0  0  0  0  0  0  0  0
   38.9860   23.1550   38.1520 C   0  0  0  0  0  0  0  0  0  0  0  0
   39.4730   22.4480   38.8120 H   0  0  0  0  0  0  0  0  0  0  0  0
   38.1880   24.1780   38.6370 C   0  0  0  0  0  0  0  0  0  0  0  0
   37.9720   24.3770   39.6780 H   0  0  0  0  0  0  0  0  0  0  0  0
   37.7650   24.8380   37.5000 C   0  0  0  0  0  0  0  0  0  0  0  0
   37.1150   25.7020   37.5470 H   0  0  0  0  0  0  0  0  0  0  0  0
   38.2610   24.2680   36.4140 O   0  0  0  0  0  0  0  0  0  0  0  0
  1  2  1  0  0  0  0
  2 16  1  0  0  0  0
  2  3  2  0  0  0  0
  3 11  1  0  0  0  0
  4  3  1  0  0  0  0
  4  5  1  0  0  0  0
  5 12  1  0  0  0  0
  6 23  1  0  0  0  0
  6  5  1  0  0  0  0
  7  8  1  0  0  0  0
  7  6  2  0  0  0  0
  8  4  2  0  0  0  0
  9  1  2  0  0  0  0
  9  8  1  0  0  0  0
 10  1  1  0  0  0  0
 13  9  1  0  0  0  0
 14 20  1  0  0  0  0
 15 14  1  0  0  0  0
 15 21  1  0  0  0  0
 16 15  2  0  0  0  0
 17 18  2  0  0  0  0
 17 16  1  0  0  0  0
 18 19  1  0  0  0  0
 19 14  2  0  0  0  0
 22 18  1  0  0  0  0
 23 25  1  0  0  0  0
 24 25  1  0  0  0  0
 24 29  1  0  0  0  0
 25 26  1  0  0  0  0
 25 31  1  1  0  0  0
 26 32  1  0  0  0  0
 26 27  1  0  0  0  0
 28 27  1  0  0  0  0
 28 34  1  0  0  0  0
 29 36  1  6  0  0  0
 29 37  1  0  0  0  0
 29 28  1  0  0  0  0
 30 24  1  0  0  0  0
 33 26  1  0  0  0  0
 35 28  1  0  0  0  0
 37 38  2  0  0  0  0
 38 40  1  0  0  0  0
 38 39  1  0  0  0  0
 40 41  1  0  0  0  0
 42 43  1  0  0  0  0
 42 40  2  0  0  0  0
 44 37  1  0  0  0  0
 44 42  1  0  0  0  0
M  END
>  <minimizedAffinity>
-5.8653636

$$$$

 OpenBabel03272510283D

 44 48  0  0  1  0  0  0  0  0999 V2000
   38.0610   23.6950   33.7640 C   0  0  0  0  0  0  0  0  0  0  0  0
   38.0850   24.5380   34.8490 C   0  0  0  0  0  0  0  0  0  0  0  0
   37.6990   25.8850   34.7290 C   0  0  0  0  0  0  0  0  0  0  0  0
   37.2970   26.3020   33.4600 C   0  0  0  0  0  0  0  0  0  0  0  0
   36.8750   27.5450   33.0800 N   0  0  0  0  0  0  0  0  0  0  0  0
   36.5940   27.4690   31.7730 C   0  0  0  0  0  0  0  0  0  0  0  0
   36.8250   26.2440   31.3430 N   0  0  0  0  0  0  0  0  0  0  0  0
   37.2640   25.4830   32.3600 C   0  0  0  0  0  0  0  0  0  0  0  0
   37.6580   24.1490   32.5260 C   0  0  0  0  0  0  0  0  0  0  0  0
   38.3610   22.6570   33.8660 H   0  0  0  0  0  0  0  0  0  0  0  0
   37.7050   26.5770   35.5660 H   0  0  0  0  0  0  0  0  0  0  0  0
   36.7970   28.3700   33.7010 H   0  0  0  0  0  0  0  0  0  0  0  0
   37.6320   23.5030   31.6590 H   0  0  0  0  0  0  0  0  0  0  0  0
   39.8070   22.8150   37.7200 C   0  0  0  0  0  0  0  0  0  0  0  0
   39.5530   23.1890   36.4000 C   0  0  0  0  0  0  0  0  0  0  0  0
   38.5080   24.0340   36.1420 C   0  0  0  0  0  0  0  0  0  0  0  0
   37.7670   24.4610   37.2250 N   0  0  0  0  0  0  0  0  0  0  0  0
   38.0170   24.0960   38.4940 C   0  0  0  0  0  0  0  0  0  0  0  0
   39.0280   23.2820   38.7300 N   0  0  0  0  0  0  0  0  0  0  0  0
   40.6380   22.1480   37.9020 H   0  0  0  0  0  0  0  0  0  0  0  0
   40.1210   22.8650   35.5460 H   0  0  0  0  0  0  0  0  0  0  0  0
   37.3900   24.4750   39.2890 H   0  0  0  0  0  0  0  0  0  0  0  0
   36.1280   28.5650   31.0440 O   0  0  0  0  0  0  0  0  0  0  0  0
   37.0740   28.3420   28.9550 N   0  0  0  0  0  0  0  0  0  0  0  0
   37.0740   29.1500   30.1560 C   0  0  1  0  0  0  0  0  0  0  0  0
   36.7170   30.5270   29.8530 C   0  0  0  0  0  0  0  0  0  0  0  0
   37.6960   31.0710   29.0040 O   0  0  0  0  0  0  0  0  0  0  0  0
   37.9360   30.3610   27.8620 C   0  0  0  0  0  0  0  0  0  0  0  0
   38.1340   28.8890   28.1270 C   0  0  1  0  0  0  0  0  0  0  0  0
   36.2560   28.3330   28.3740 H   0  0  0  0  0  0  0  0  0  0  0  0
   38.0980   29.0880   30.5620 H   0  0  0  0  0  0  0  0  0  0  0  0
   36.8360   31.1280   30.8050 H   0  0  0  0  0  0  0  0  0  0  0  0
   35.8100   30.8430   29.4110 H   0  0  0  0  0  0  0  0  0  0  0  0
   38.8430   30.7540   27.4010 H   0  0  0  0  0  0  0  0  0  0  0  0
   37.0490   30.4650   27.1800 H   0  0  0  0  0  0  0  0  0  0  0  0
   38.1810   28.3840   27.1330 H   0  0  0  0  0  0  0  0  0  0  0  0
   39.4060   28.7280   28.8770 C   0  0  0  0  0  0  0  0  0  0  0  0
   39.7460   27.4560   29.3530 C   0  0  0  0  0  0  0  0  0  0  0  0
   39.2170   26.5160   29.2660 H   0  0  0  0  0  0  0  0  0  0  0  0
   40.9610   27.5530   30.0130 C   0  0  0  0  0  0  0  0  0  0  0  0
   41.4900   26.7400   30.4930 H   0  0  0  0  0  0  0  0  0  0  0  0
   41.2950   28.8880   29.9030 C   0  0  0  0  0  0  0  0  0  0  0  0
   42.2070   29.2880   30.3260 H   0  0  0  0  0  0  0  0  0  0  0  0
   40.3660   29.5510   29.2340 O   0  0  0  0  0  0  0  0  0  0  0  0
  1 10  1  0  0  0  0
  1  2  1  0  0  0  0
  2 16  1  0  0  0  0
  3  2  2  0  0  0  0
  3 11  1  0  0  0  0
  4  3  1  0  0  0  0
  5  4  1  0  0  0  0
  5 12  1  0  0  0  0
  6  5  1  0  0  0  0
  7  6  2  0  0  0  0
  7  8  1  0  0  0  0
  8  9  1  0  0  0  0
  8  4  2  0  0  0  0
  9  1  2  0  0  0  0
 13  9  1  0  0  0  0
 14 20  1  0  0  0  0
 14 19  1  0  0  0  0
 15 14  2  0  0  0  0
 16 15  1  0  0  0  0
 16 17  2  0  0  0  0
 17 18  1  0  0  0  0
 18 19  2  0  0  0  0
 18 22  1  0  0  0  0
 21 15  1  0  0  0  0
 23  6  1  0  0  0  0
 24 25  1  0  0  0  0
 25 31  1  1  0  0  0
 25 23  1  0  0  0  0
 26 25  1  0  0  0  0
 26 32  1  0  0  0  0
 27 26  1  0  0  0  0
 28 29  1  0  0  0  0
 28 27  1  0  0  0  0
 29 36  1  6  0  0  0
 29 37  1  0  0  0  0
 29 24  1  0  0  0  0
 30 24  1  0  0  0  0
 33 26  1  0  0  0  0
 34 28  1  0  0  0  0
 35 28  1  0  0  0  0
 37 44  1  0  0  0  0
 37 38  2  0  0  0  0
 38 40  1  0  0  0  0
 39 38  1  0  0  0  0
 40 41  1  0  0  0  0
 42 40  2  0  0  0  0
 42 43  1  0  0  0  0
 44 42  1  0  0  0  0
M  END
>  <minimizedAffinity>
-5.8321681

$$$$

 OpenBabel03272510283D

 44 48  0  0  1  0  0  0  0  0999 V2000
   36.6820   28.3690   30.3620 C   0  0  0  0  0  0  0  0  0  0  0  0
   36.2290   27.7610   31.5070 C   0  0  0  0  0  0  0  0  0  0  0  0
   35.8330   28.5190   32.6230 C   0  0  0  0  0  0  0  0  0  0  0  0
   35.9280   29.9060   32.4930 C   0  0  0  0  0  0  0  0  0  0  0  0
   35.6060   30.8590   33.4170 N   0  0  0  0  0  0  0  0  0  0  0  0
   35.8580   32.0440   32.8470 C   0  0  0  0  0  0  0  0  0  0  0  0
   36.3160   31.8550   31.6250 N   0  0  0  0  0  0  0  0  0  0  0  0
   36.3770   30.5390   31.3620 C   0  0  0  0  0  0  0  0  0  0  0  0
   36.7610   29.7440   30.2750 C   0  0  0  0  0  0  0  0  0  0  0  0
   36.9860   27.7760   29.5060 H   0  0  0  0  0  0  0  0  0  0  0  0
   35.4700   28.0710   33.5430 H   0  0  0  0  0  0  0  0  0  0  0  0
   35.2400   30.6750   34.3690 H   0  0  0  0  0  0  0  0  0  0  0  0
   37.1140   30.2430   29.3830 H   0  0  0  0  0  0  0  0  0  0  0  0
   35.3120   24.1270   31.1450 C   0  0  0  0  0  0  0  0  0  0  0  0
   35.2200   25.5090   30.9690 C   0  0  0  0  0  0  0  0  0  0  0  0
   36.1500   26.3140   31.5690 C   0  0  0  0  0  0  0  0  0  0  0  0
   37.1280   25.6900   32.3180 N   0  0  0  0  0  0  0  0  0  0  0  0
   37.2090   24.3590   32.4820 C   0  0  0  0  0  0  0  0  0  0  0  0
   36.3080   23.5930   31.8990 N   0  0  0  0  0  0  0  0  0  0  0  0
   34.5680   23.5090   30.6630 H   0  0  0  0  0  0  0  0  0  0  0  0
   34.4650   26.0080   30.3900 H   0  0  0  0  0  0  0  0  0  0  0  0
   38.0070   23.9460   33.0850 H   0  0  0  0  0  0  0  0  0  0  0  0
   35.6410   33.2530   33.5110 O   0  0  0  0  0  0  0  0  0  0  0  0
   35.7740   32.6130   35.7200 N   0  0  0  0  0  0  0  0  0  0  0  0
   34.8870   33.1580   34.7150 C   0  0  1  0  0  0  0  0  0  0  0  0
   34.3880   34.4630   35.1170 C   0  0  0  0  0  0  0  0  0  0  0  0
   33.6240   34.3140   36.2860 O   0  0  0  0  0  0  0  0  0  0  0  0
   34.2580   33.6880   37.3220 C   0  0  0  0  0  0  0  0  0  0  0  0
   34.9430   32.4130   36.8940 C   0  0  1  0  0  0  0  0  0  0  0  0
   36.5530   33.1630   36.0330 H   0  0  0  0  0  0  0  0  0  0  0  0
   34.0610   32.4340   34.6150 H   0  0  0  0  0  0  0  0  0  0  0  0
   33.6240   34.7900   34.3470 H   0  0  0  0  0  0  0  0  0  0  0  0
   34.9840   35.3120   35.3240 H   0  0  0  0  0  0  0  0  0  0  0  0
   33.5140   33.4440   38.0800 H   0  0  0  0  0  0  0  0  0  0  0  0
   35.0490   34.3760   37.7270 H   0  0  0  0  0  0  0  0  0  0  0  0
   35.5420   32.0580   37.7660 H   0  0  0  0  0  0  0  0  0  0  0  0
   33.8890   31.4320   36.5250 C   0  0  0  0  0  0  0  0  0  0  0  0
   32.7650   31.3150   37.3490 C   0  0  0  0  0  0  0  0  0  0  0  0
   32.5120   31.8420   38.2610 H   0  0  0  0  0  0  0  0  0  0  0  0
   31.9320   30.3480   36.8090 C   0  0  0  0  0  0  0  0  0  0  0  0
   30.9820   30.0270   37.2160 H   0  0  0  0  0  0  0  0  0  0  0  0
   32.6010   29.9270   35.6770 C   0  0  0  0  0  0  0  0  0  0  0  0
   32.2000   29.1630   35.0240 H   0  0  0  0  0  0  0  0  0  0  0  0
   33.7440   30.5790   35.5370 O   0  0  0  0  0  0  0  0  0  0  0  0
  1  2  1  0  0  0  0
  2 16  1  0  0  0  0
  2  3  2  0  0  0  0
  3 11  1  0  0  0  0
  4  3  1  0  0  0  0
  4  5  1  0  0  0  0
  5 12  1  0  0  0  0
  6  5  1  0  0  0  0
  6 23  1  0  0  0  0
  7  6  2  0  0  0  0
  8  7  1  0  0  0  0
  8  4  2  0  0  0  0
  9  1  2  0  0  0  0
  9  8  1  0  0  0  0
 10  1  1  0  0  0  0
 13  9  1  0  0  0  0
 14 19  1  0  0  0  0
 15 14  2  0  0  0  0
 15 16  1  0  0  0  0
 16 17  2  0  0  0  0
 17 18  1  0  0  0  0
 18 22  1  0  0  0  0
 19 18  2  0  0  0  0
 20 14  1  0  0  0  0
 21 15  1  0  0  0  0
 23 25  1  0  0  0  0
 24 30  1  0  0  0  0
 24 29  1  0  0  0  0
 25 31  1  6  0  0  0
 25 26  1  0  0  0  0
 25 24  1  0  0  0  0
 26 33  1  0  0  0  0
 26 27  1  0  0  0  0
 27 28  1  0  0  0  0
 28 35  1  0  0  0  0
 28 34  1  0  0  0  0
 29 28  1  0  0  0  0
 29 36  1  1  0  0  0
 32 26  1  0  0  0  0
 37 29  1  0  0  0  0
 37 38  2  0  0  0  0
 38 39  1  0  0  0  0
 40 41  1  0  0  0  0
 40 38  1  0  0  0  0
 42 40  2  0  0  0  0
 43 42  1  0  0  0  0
 44 42  1  0  0  0  0
 44 37  1  0  0  0  0
M  END
>  <minimizedAffinity>
-5.79979134

$$$$

 OpenBabel03272510283D

 44 48  0  0  1  0  0  0  0  0999 V2000
   35.9940   28.5910   31.9770 C   0  0  0  0  0  0  0  0  0  0  0  0
   35.5950   28.7480   33.2810 C   0  0  0  0  0  0  0  0  0  0  0  0
   36.4000   28.3080   34.3450 C   0  0  0  0  0  0  0  0  0  0  0  0
   37.6130   27.7110   33.9970 C   0  0  0  0  0  0  0  0  0  0  0  0
   38.5700   27.2070   34.8300 N   0  0  0  0  0  0  0  0  0  0  0  0
   39.5520   26.7430   34.0470 C   0  0  0  0  0  0  0  0  0  0  0  0
   39.2360   26.9400   32.7820 N   0  0  0  0  0  0  0  0  0  0  0  0
   38.0370   27.5410   32.7030 C   0  0  0  0  0  0  0  0  0  0  0  0
   37.2010   27.9940   31.6750 C   0  0  0  0  0  0  0  0  0  0  0  0
   35.3650   28.9330   31.1620 H   0  0  0  0  0  0  0  0  0  0  0  0
   36.1150   28.4180   35.3870 H   0  0  0  0  0  0  0  0  0  0  0  0
   38.5230   27.1980   35.8650 H   0  0  0  0  0  0  0  0  0  0  0  0
   37.5360   27.8600   30.6550 H   0  0  0  0  0  0  0  0  0  0  0  0
   32.0780   30.0950   33.2230 C   0  0  0  0  0  0  0  0  0  0  0  0
   33.2180   29.4330   32.7650 C   0  0  0  0  0  0  0  0  0  0  0  0
   34.3230   29.3850   33.5710 C   0  0  0  0  0  0  0  0  0  0  0  0
   34.2280   30.0060   34.7990 N   0  0  0  0  0  0  0  0  0  0  0  0
   33.1270   30.6420   35.2340 C   0  0  0  0  0  0  0  0  0  0  0  0
   32.0680   30.6820   34.4480 N   0  0  0  0  0  0  0  0  0  0  0  0
   31.2170   30.1210   32.5710 H   0  0  0  0  0  0  0  0  0  0  0  0
   33.3070   28.9450   31.8110 H   0  0  0  0  0  0  0  0  0  0  0  0
   33.1310   31.1050   36.2110 H   0  0  0  0  0  0  0  0  0  0  0  0
   40.7060   26.1540   34.5670 O   0  0  0  0  0  0  0  0  0  0  0  0
   39.3440   24.2970   34.4740 N   0  0  0  0  0  0  0  0  0  0  0  0
   40.5350   24.8410   35.0920 C   0  0  1  0  0  0  0  0  0  0  0  0
   41.6940   24.0130   34.8020 C   0  0  0  0  0  0  0  0  0  0  0  0
   41.4940   22.7430   35.3690 O   0  0  0  0  0  0  0  0  0  0  0  0
   40.3360   22.1170   35.0030 C   0  0  0  0  0  0  0  0  0  0  0  0
   39.1300   23.0160   35.1230 C   0  0  1  0  0  0  0  0  0  0  0  0
   39.3520   24.1020   33.4900 H   0  0  0  0  0  0  0  0  0  0  0  0
   40.3290   24.8670   36.1750 H   0  0  0  0  0  0  0  0  0  0  0  0
   42.5670   24.4260   35.3940 H   0  0  0  0  0  0  0  0  0  0  0  0
   42.0650   23.7920   33.8380 H   0  0  0  0  0  0  0  0  0  0  0  0
   40.1920   21.2560   35.6570 H   0  0  0  0  0  0  0  0  0  0  0  0
   40.4200   21.8060   33.9270 H   0  0  0  0  0  0  0  0  0  0  0  0
   38.2690   22.4660   34.6730 H   0  0  0  0  0  0  0  0  0  0  0  0
   38.9040   23.2860   36.5670 C   0  0  0  0  0  0  0  0  0  0  0  0
   37.8950   24.1840   36.9300 C   0  0  0  0  0  0  0  0  0  0  0  0
   37.2100   24.7500   36.3100 H   0  0  0  0  0  0  0  0  0  0  0  0
   37.8740   24.2740   38.3130 C   0  0  0  0  0  0  0  0  0  0  0  0
   37.2040   24.8880   38.8990 H   0  0  0  0  0  0  0  0  0  0  0  0
   38.8800   23.4190   38.7170 C   0  0  0  0  0  0  0  0  0  0  0  0
   39.1170   23.2660   39.7620 H   0  0  0  0  0  0  0  0  0  0  0  0
   39.4660   22.8550   37.6740 O   0  0  0  0  0  0  0  0  0  0  0  0
  1  2  1  0  0  0  0
  2 16  1  0  0  0  0
  2  3  2  0  0  0  0
  3 11  1  0  0  0  0
  4  3  1  0  0  0  0
  4  5  1  0  0  0  0
  5 12  1  0  0  0  0
  6 23  1  0  0  0  0
  6  5  1  0  0  0  0
  7  6  2  0  0  0  0
  8  7  1  0  0  0  0
  8  4  2  0  0  0  0
  9  1  2  0  0  0  0
  9  8  1  0  0  0  0
 10  1  1  0  0  0  0
 13  9  1  0  0  0  0
 14 19  1  0  0  0  0
 15 14  2  0  0  0  0
 15 16  1  0  0  0  0
 16 17  2  0  0  0  0
 17 18  1  0  0  0  0
 18 22  1  0  0  0  0
 19 18  2  0  0  0  0
 20 14  1  0  0  0  0
 21 15  1  0  0  0  0
 23 25  1  0  0  0  0
 24 25  1  0  0  0  0
 24 29  1  0  0  0  0
 25 31  1  1  0  0  0
 26 25  1  0  0  0  0
 26 27  1  0  0  0  0
 26 32  1  0  0  0  0
 28 29  1  0  0  0  0
 28 27  1  0  0  0  0
 28 34  1  0  0  0  0
 29 36  1  6  0  0  0
 29 37  1  0  0  0  0
 30 24  1  0  0  0  0
 33 26  1  0  0  0  0
 35 28  1  0  0  0  0
 37 38  2  0  0  0  0
 37 44  1  0  0  0  0
 38 40  1  0  0  0  0
 39 38  1  0  0  0  0
 40 42  2  0  0  0  0
 40 41  1  0  0  0  0
 42 43  1  0  0  0  0
 44 42  1  0  0  0  0
M  END
>  <minimizedAffinity>
-5.77622175

$$$$

 OpenBabel03272510283D

 44 48  0  0  1  0  0  0  0  0999 V2000
   35.5780   30.3430   32.5740 C   0  0  0  0  0  0  0  0  0  0  0  0
   35.6230   29.7940   33.8320 C   0  0  0  0  0  0  0  0  0  0  0  0
   36.2000   28.5320   34.0530 C   0  0  0  0  0  0  0  0  0  0  0  0
   36.7180   27.8840   32.9300 C   0  0  0  0  0  0  0  0  0  0  0  0
   37.3300   26.6640   32.8730 N   0  0  0  0  0  0  0  0  0  0  0  0
   37.6600   26.4630   31.5910 C   0  0  0  0  0  0  0  0  0  0  0  0
   37.2790   27.4990   30.8700 N   0  0  0  0  0  0  0  0  0  0  0  0
   36.6870   28.4090   31.6630 C   0  0  0  0  0  0  0  0  0  0  0  0
   36.1010   29.6690   31.4900 C   0  0  0  0  0  0  0  0  0  0  0  0
   35.1290   31.3180   32.4140 H   0  0  0  0  0  0  0  0  0  0  0  0
   36.2520   28.0690   35.0340 H   0  0  0  0  0  0  0  0  0  0  0  0
   37.4950   26.0350   33.6790 H   0  0  0  0  0  0  0  0  0  0  0  0
   36.0770   30.0820   30.4910 H   0  0  0  0  0  0  0  0  0  0  0  0
   35.0270   31.9990   36.8260 C   0  0  0  0  0  0  0  0  0  0  0  0
   35.7350   31.3800   35.7950 C   0  0  0  0  0  0  0  0  0  0  0  0
   35.0710   30.5270   34.9560 C   0  0  0  0  0  0  0  0  0  0  0  0
   33.7250   30.3370   35.1950 N   0  0  0  0  0  0  0  0  0  0  0  0
   33.0490   30.9370   36.1900 C   0  0  0  0  0  0  0  0  0  0  0  0
   33.7000   31.7570   36.9920 N   0  0  0  0  0  0  0  0  0  0  0  0
   35.5700   32.6680   37.4780 H   0  0  0  0  0  0  0  0  0  0  0  0
   36.7830   31.5170   35.5970 H   0  0  0  0  0  0  0  0  0  0  0  0
   31.9930   30.7360   36.3110 H   0  0  0  0  0  0  0  0  0  0  0  0
   38.3110   25.3050   31.1610 O   0  0  0  0  0  0  0  0  0  0  0  0
   37.7030   23.5080   32.4690 N   0  0  0  0  0  0  0  0  0  0  0  0
   37.5180   24.1220   31.1720 C   0  0  1  0  0  0  0  0  0  0  0  0
   36.1180   24.4370   30.9420 C   0  0  0  0  0  0  0  0  0  0  0  0
   35.3830   23.2390   30.9260 O   0  0  0  0  0  0  0  0  0  0  0  0
   35.5360   22.4470   32.0280 C   0  0  0  0  0  0  0  0  0  0  0  0
   36.9850   22.2480   32.4000 C   0  0  1  0  0  0  0  0  0  0  0  0
   37.3490   23.9750   33.2840 H   0  0  0  0  0  0  0  0  0  0  0  0
   37.8840   23.3880   30.4350 H   0  0  0  0  0  0  0  0  0  0  0  0
   36.0220   24.8140   29.8780 H   0  0  0  0  0  0  0  0  0  0  0  0
   35.5250   25.0760   31.5400 H   0  0  0  0  0  0  0  0  0  0  0  0
   35.0980   21.4720   31.8110 H   0  0  0  0  0  0  0  0  0  0  0  0
   35.0280   22.9410   32.9000 H   0  0  0  0  0  0  0  0  0  0  0  0
   36.9980   21.7130   33.3800 H   0  0  0  0  0  0  0  0  0  0  0  0
   37.6230   21.4360   31.3320 C   0  0  0  0  0  0  0  0  0  0  0  0
   36.8830   20.4060   30.7420 C   0  0  0  0  0  0  0  0  0  0  0  0
   35.8700   20.0760   30.9360 H   0  0  0  0  0  0  0  0  0  0  0  0
   37.6780   19.7960   29.7840 C   0  0  0  0  0  0  0  0  0  0  0  0
   37.3910   18.9650   29.1550 H   0  0  0  0  0  0  0  0  0  0  0  0
   38.8680   20.4950   29.8450 C   0  0  0  0  0  0  0  0  0  0  0  0
   39.7080   20.2550   29.2070 H   0  0  0  0  0  0  0  0  0  0  0  0
   38.8060   21.4490   30.7610 O   0  0  0  0  0  0  0  0  0  0  0  0
  1  2  1  0  0  0  0
  2  3  2  0  0  0  0
  2 16  1  0  0  0  0
  3 11  1  0  0  0  0
  4  3  1  0  0  0  0
  5  4  1  0  0  0  0
  5 12  1  0  0  0  0
  6  5  1  0  0  0  0
  7  6  2  0  0  0  0
  7  8  1  0  0  0  0
  8  4  2  0  0  0  0
  9  8  1  0  0  0  0
  9  1  2  0  0  0  0
 10  1  1  0  0  0  0
 13  9  1  0  0  0  0
 14 19  1  0  0  0  0
 14 20  1  0  0  0  0
 15 14  2  0  0  0  0
 16 17  2  0  0  0  0
 16 15  1  0  0  0  0
 17 18  1  0  0  0  0
 18 22  1  0  0  0  0
 18 19  2  0  0  0  0
 21 15  1  0  0  0  0
 23 25  1  0  0  0  0
 23  6  1  0  0  0  0
 24 30  1  0  0  0  0
 25 31  1  6  0  0  0
 25 24  1  0  0  0  0
 26 25  1  0  0  0  0
 26 33  1  0  0  0  0
 27 26  1  0  0  0  0
 27 28  1  0  0  0  0
 28 29  1  0  0  0  0
 28 35  1  0  0  0  0
 29 24  1  0  0  0  0
 29 36  1  1  0  0  0
 32 26  1  0  0  0  0
 34 28  1  0  0  0  0
 37 29  1  0  0  0  0
 38 39  1  0  0  0  0
 38 37  2  0  0  0  0
 40 42  2  0  0  0  0
 40 38  1  0  0  0  0
 41 40  1  0  0  0  0
 42 44  1  0  0  0  0
 43 42  1  0  0  0  0
 44 37  1  0  0  0  0
M  END
>  <minimizedAffinity>
-5.76986456

$$$$

 OpenBabel03272510283D

 44 48  0  0  1  0  0  0  0  0999 V2000
   38.5610   26.1700   36.1280 C   0  0  0  0  0  0  0  0  0  0  0  0
   38.9420   25.0900   35.3690 C   0  0  0  0  0  0  0  0  0  0  0  0
   38.6140   25.0090   34.0050 C   0  0  0  0  0  0  0  0  0  0  0  0
   37.8880   26.0790   33.4800 C   0  0  0  0  0  0  0  0  0  0  0  0
   37.4510   26.2470   32.1970 N   0  0  0  0  0  0  0  0  0  0  0  0
   36.8070   27.4200   32.1630 C   0  0  0  0  0  0  0  0  0  0  0  0
   36.8310   27.9690   33.3620 N   0  0  0  0  0  0  0  0  0  0  0  0
   37.4940   27.1700   34.2130 C   0  0  0  0  0  0  0  0  0  0  0  0
   37.8430   27.2070   35.5690 C   0  0  0  0  0  0  0  0  0  0  0  0
   38.8190   26.2230   37.1810 H   0  0  0  0  0  0  0  0  0  0  0  0
   38.9000   24.1700   33.3770 H   0  0  0  0  0  0  0  0  0  0  0  0
   37.6030   25.5810   31.4180 H   0  0  0  0  0  0  0  0  0  0  0  0
   37.5330   28.0660   36.1470 H   0  0  0  0  0  0  0  0  0  0  0  0
   40.2340   22.2910   37.5330 C   0  0  0  0  0  0  0  0  0  0  0  0
   39.3690   23.2950   37.0960 C   0  0  0  0  0  0  0  0  0  0  0  0
   39.7020   24.0150   35.9810 C   0  0  0  0  0  0  0  0  0  0  0  0
   40.8910   23.6910   35.3590 N   0  0  0  0  0  0  0  0  0  0  0  0
   41.7190   22.7220   35.7860 C   0  0  0  0  0  0  0  0  0  0  0  0
   41.3870   22.0350   36.8620 N   0  0  0  0  0  0  0  0  0  0  0  0
   39.9520   21.7350   38.4160 H   0  0  0  0  0  0  0  0  0  0  0  0
   38.4410   23.5600   37.5690 H   0  0  0  0  0  0  0  0  0  0  0  0
   42.6340   22.5270   35.2430 H   0  0  0  0  0  0  0  0  0  0  0  0
   36.2240   27.9190   30.9960 O   0  0  0  0  0  0  0  0  0  0  0  0
   37.0700   28.2400   28.8770 N   0  0  0  0  0  0  0  0  0  0  0  0
   37.0560   28.7760   30.2210 C   0  0  1  0  0  0  0  0  0  0  0  0
   36.5460   30.1380   30.2310 C   0  0  0  0  0  0  0  0  0  0  0  0
   37.4160   30.9510   29.4850 O   0  0  0  0  0  0  0  0  0  0  0  0
   37.6620   30.5250   28.2100 C   0  0  0  0  0  0  0  0  0  0  0  0
   38.0210   29.0610   28.1490 C   0  0  1  0  0  0  0  0  0  0  0  0
   36.2260   28.2630   28.3350 H   0  0  0  0  0  0  0  0  0  0  0  0
   38.1010   28.7440   30.5710 H   0  0  0  0  0  0  0  0  0  0  0  0
   36.6570   30.5380   31.2840 H   0  0  0  0  0  0  0  0  0  0  0  0
   35.5890   30.4380   29.8970 H   0  0  0  0  0  0  0  0  0  0  0  0
   38.4970   31.1030   27.8140 H   0  0  0  0  0  0  0  0  0  0  0  0
   36.7330   30.6710   27.5970 H   0  0  0  0  0  0  0  0  0  0  0  0
   38.0630   28.7820   27.0690 H   0  0  0  0  0  0  0  0  0  0  0  0
   39.3430   28.8880   28.8050 C   0  0  0  0  0  0  0  0  0  0  0  0
   39.8290   27.5900   29.0000 C   0  0  0  0  0  0  0  0  0  0  0  0
   39.3880   26.6350   28.7440 H   0  0  0  0  0  0  0  0  0  0  0  0
   41.0640   27.6800   29.6230 C   0  0  0  0  0  0  0  0  0  0  0  0
   41.6940   26.8490   29.9080 H   0  0  0  0  0  0  0  0  0  0  0  0
   41.2620   29.0380   29.7740 C   0  0  0  0  0  0  0  0  0  0  0  0
   42.1550   29.4400   30.2360 H   0  0  0  0  0  0  0  0  0  0  0  0
   40.2380   29.7200   29.2860 O   0  0  0  0  0  0  0  0  0  0  0  0
  1 10  1  0  0  0  0
  2 16  1  0  0  0  0
  2  1  2  0  0  0  0
  3  2  1  0  0  0  0
  4  3  2  0  0  0  0
  4  8  1  0  0  0  0
  5  4  1  0  0  0  0
  6  5  1  0  0  0  0
  6  7  2  0  0  0  0
  7  8  1  0  0  0  0
  8  9  2  0  0  0  0
  9  1  1  0  0  0  0
  9 13  1  0  0  0  0
 11  3  1  0  0  0  0
 12  5  1  0  0  0  0
 14 20  1  0  0  0  0
 15 14  1  0  0  0  0
 15 21  1  0  0  0  0
 16 15  2  0  0  0  0
 17 18  2  0  0  0  0
 17 16  1  0  0  0  0
 18 19  1  0  0  0  0
 19 14  2  0  0  0  0
 22 18  1  0  0  0  0
 23  6  1  0  0  0  0
 24 25  1  0  0  0  0
 25 26  1  0  0  0  0
 25 31  1  1  0  0  0
 25 23  1  0  0  0  0
 26 32  1  0  0  0  0
 27 26  1  0  0  0  0
 28 27  1  0  0  0  0
 29 36  1  6  0  0  0
 29 28  1  0  0  0  0
 29 37  1  0  0  0  0
 29 24  1  0  0  0  0
 30 24  1  0  0  0  0
 33 26  1  0  0  0  0
 34 28  1  0  0  0  0
 35 28  1  0  0  0  0
 37 38  2  0  0  0  0
 37 44  1  0  0  0  0
 38 40  1  0  0  0  0
 39 38  1  0  0  0  0
 40 42  2  0  0  0  0
 40 41  1  0  0  0  0
 42 43  1  0  0  0  0
 44 42  1  0  0  0  0
M  END
>  <minimizedAffinity>
-5.66689873

$$$$

 OpenBabel03272510283D

 44 48  0  0  1  0  0  0  0  0999 V2000
   36.3970   29.3410   31.9430 C   0  0  0  0  0  0  0  0  0  0  0  0
   37.0430   29.1470   30.7470 C   0  0  0  0  0  0  0  0  0  0  0  0
   37.6840   27.9300   30.4570 C   0  0  0  0  0  0  0  0  0  0  0  0
   37.6220   26.9480   31.4470 C   0  0  0  0  0  0  0  0  0  0  0  0
   38.1530   25.6900   31.4140 N   0  0  0  0  0  0  0  0  0  0  0  0
   37.8380   25.1130   32.5810 C   0  0  0  0  0  0  0  0  0  0  0  0
   37.1440   25.9590   33.3170 N   0  0  0  0  0  0  0  0  0  0  0  0
   36.9850   27.1140   32.6500 C   0  0  0  0  0  0  0  0  0  0  0  0
   36.3610   28.3440   32.8960 C   0  0  0  0  0  0  0  0  0  0  0  0
   35.9060   30.2840   32.1590 H   0  0  0  0  0  0  0  0  0  0  0  0
   38.2020   27.7430   29.5210 H   0  0  0  0  0  0  0  0  0  0  0  0
   38.6910   25.2840   30.6280 H   0  0  0  0  0  0  0  0  0  0  0  0
   35.8590   28.4750   33.8450 H   0  0  0  0  0  0  0  0  0  0  0  0
   36.6750   32.3660   28.8280 C   0  0  0  0  0  0  0  0  0  0  0  0
   36.5600   31.4760   29.8970 C   0  0  0  0  0  0  0  0  0  0  0  0
   37.0610   30.2100   29.7600 C   0  0  0  0  0  0  0  0  0  0  0  0
   37.6530   29.9000   28.5520 N   0  0  0  0  0  0  0  0  0  0  0  0
   37.7600   30.7620   27.5270 C   0  0  0  0  0  0  0  0  0  0  0  0
   37.2730   31.9800   27.6720 N   0  0  0  0  0  0  0  0  0  0  0  0
   36.2720   33.3610   28.9570 H   0  0  0  0  0  0  0  0  0  0  0  0
   36.1010   31.7030   30.8420 H   0  0  0  0  0  0  0  0  0  0  0  0
   38.2390   30.4430   26.6120 H   0  0  0  0  0  0  0  0  0  0  0  0
   38.2220   23.8080   32.8960 O   0  0  0  0  0  0  0  0  0  0  0  0
   39.2850   22.2630   34.2350 N   0  0  0  0  0  0  0  0  0  0  0  0
   39.0510   23.6790   34.0460 C   0  0  1  0  0  0  0  0  0  0  0  0
   40.3050   24.3920   33.8620 C   0  0  0  0  0  0  0  0  0  0  0  0
   41.0720   24.2660   35.0330 O   0  0  0  0  0  0  0  0  0  0  0  0
   41.2900   22.9840   35.4520 C   0  0  0  0  0  0  0  0  0  0  0  0
   40.0250   22.1620   35.4810 C   0  0  1  0  0  0  0  0  0  0  0  0
   39.8320   21.7650   33.5570 H   0  0  0  0  0  0  0  0  0  0  0  0
   38.5310   24.0240   34.9560 H   0  0  0  0  0  0  0  0  0  0  0  0
   40.0670   25.4980   33.8250 H   0  0  0  0  0  0  0  0  0  0  0  0
   41.0070   24.2110   33.0920 H   0  0  0  0  0  0  0  0  0  0  0  0
   41.7020   23.0210   36.4600 H   0  0  0  0  0  0  0  0  0  0  0  0
   41.9980   22.4870   34.7350 H   0  0  0  0  0  0  0  0  0  0  0  0
   40.3260   21.1090   35.6960 H   0  0  0  0  0  0  0  0  0  0  0  0
   39.1530   22.7050   36.5550 C   0  0  0  0  0  0  0  0  0  0  0  0
   39.7180   22.9700   37.8070 C   0  0  0  0  0  0  0  0  0  0  0  0
   40.7370   22.8420   38.1520 H   0  0  0  0  0  0  0  0  0  0  0  0
   38.7230   23.4640   38.6350 C   0  0  0  0  0  0  0  0  0  0  0  0
   38.8450   23.7610   39.6680 H   0  0  0  0  0  0  0  0  0  0  0  0
   37.5980   23.4720   37.8350 C   0  0  0  0  0  0  0  0  0  0  0  0
   36.6370   23.8110   38.1990 H   0  0  0  0  0  0  0  0  0  0  0  0
   37.8800   23.0220   36.6230 O   0  0  0  0  0  0  0  0  0  0  0  0
  1 10  1  0  0  0  0
  1  9  1  0  0  0  0
  2  1  2  0  0  0  0
  3  2  1  0  0  0  0
  3  4  2  0  0  0  0
  4  8  1  0  0  0  0
  5  4  1  0  0  0  0
  5  6  1  0  0  0  0
  6 23  1  0  0  0  0
  6  7  2  0  0  0  0
  8  9  2  0  0  0  0
  8  7  1  0  0  0  0
  9 13  1  0  0  0  0
 11  3  1  0  0  0  0
 12  5  1  0  0  0  0
 14 20  1  0  0  0  0
 14 15  1  0  0  0  0
 15 21  1  0  0  0  0
 16 15  2  0  0  0  0
 16  2  1  0  0  0  0
 17 16  1  0  0  0  0
 18 19  1  0  0  0  0
 18 17  2  0  0  0  0
 19 14  2  0  0  0  0
 22 18  1  0  0  0  0
 23 25  1  0  0  0  0
 24 29  1  0  0  0  0
 25 24  1  0  0  0  0
 25 31  1  1  0  0  0
 26 25  1  0  0  0  0
 26 27  1  0  0  0  0
 27 28  1  0  0  0  0
 28 29  1  0  0  0  0
 28 34  1  0  0  0  0
 29 36  1  1  0  0  0
 29 37  1  0  0  0  0
 30 24  1  0  0  0  0
 32 26  1  0  0  0  0
 33 26  1  0  0  0  0
 35 28  1  0  0  0  0
 37 44  1  0  0  0  0
 37 38  2  0  0  0  0
 38 39  1  0  0  0  0
 38 40  1  0  0  0  0
 40 41  1  0  0  0  0
 42 43  1  0  0  0  0
 42 40  2  0  0  0  0
 44 42  1  0  0  0  0
M  END
>  <minimizedAffinity>
-5.63173342

$$$$
