
 OpenBabel03272507403D

 33 35  0  0  0  0  0  0  0  0999 V2000
   38.0190   25.7750   33.4920 C   0  0  0  0  0  0  0  0  0  0  0  0
   38.2260   25.2640   34.7650 C   0  0  0  0  0  0  0  0  0  0  0  0
   38.1660   26.0920   35.8760 C   0  0  0  0  0  0  0  0  0  0  0  0
   37.8920   27.4490   35.6990 C   0  0  0  0  0  0  0  0  0  0  0  0
   37.6860   27.9530   34.4280 C   0  0  0  0  0  0  0  0  0  0  0  0
   37.7560   27.0960   33.3570 C   0  0  0  0  0  0  0  0  0  0  0  0
   38.3120   25.7750   36.8820 H   0  0  0  0  0  0  0  0  0  0  0  0
   37.8400   28.1120   36.5610 H   0  0  0  0  0  0  0  0  0  0  0  0
   37.4750   29.0120   34.3180 H   0  0  0  0  0  0  0  0  0  0  0  0
   37.5340   27.6490   31.9990 C   0  0  0  0  0  0  0  0  0  0  0  0
   36.3640   27.9520   31.3570 C   0  0  0  0  0  0  0  0  0  0  0  0
   35.4270   27.7920   31.8430 H   0  0  0  0  0  0  0  0  0  0  0  0
   36.6950   28.4440   30.0960 C   0  0  0  0  0  0  0  0  0  0  0  0
   35.9620   28.7610   29.3760 H   0  0  0  0  0  0  0  0  0  0  0  0
   38.0730   28.4090   30.0530 C   0  0  0  0  0  0  0  0  0  0  0  0
   38.6640   28.7360   29.1840 H   0  0  0  0  0  0  0  0  0  0  0  0
   38.5560   27.9340   31.1910 O   0  0  0  0  0  0  0  0  0  0  0  0
   38.1690   24.0920   31.5570 N   0  0  0  0  0  0  0  0  0  0  0  0
   38.1000   24.8500   32.4110 C   0  0  0  0  0  0  0  0  0  0  0  0
   38.5060   23.9480   35.0910 O   0  0  0  0  0  0  0  0  0  0  0  0
   39.6940   23.5150   35.5900 C   0  0  0  0  0  0  0  0  0  0  0  0
   39.5310   22.8010   36.7820 C   0  0  0  0  0  0  0  0  0  0  0  0
   40.6230   22.2780   37.4470 C   0  0  0  0  0  0  0  0  0  0  0  0
   41.8570   22.4880   36.8870 N   0  0  0  0  0  0  0  0  0  0  0  0
   41.9970   23.1840   35.7250 C   0  0  0  0  0  0  0  0  0  0  0  0
   40.9360   23.6760   35.1090 N   0  0  0  0  0  0  0  0  0  0  0  0
   40.5810   21.7180   38.3700 H   0  0  0  0  0  0  0  0  0  0  0  0
   43.0120   23.2780   35.3890 H   0  0  0  0  0  0  0  0  0  0  0  0
   37.7930   23.4190   38.3860 C   0  0  0  0  0  0  0  0  0  0  0  0
   38.2460   24.4820   38.9740 O   0  0  0  0  0  0  0  0  0  0  0  0
   38.3170   22.5140   37.4130 N   0  0  0  0  0  0  0  0  0  0  0  0
   37.0720   23.8320   39.0790 H   0  0  0  0  0  0  0  0  0  0  0  0
   37.5310   21.8680   37.5250 H   0  0  0  0  0  0  0  0  0  0  0  0
  1  2  1  0  0  0  0
  2 20  1  0  0  0  0
  2  3  2  0  0  0  0
  3  7  1  0  0  0  0
  4  3  1  0  0  0  0
  4  8  1  0  0  0  0
  5  4  2  0  0  0  0
  6  1  2  0  0  0  0
  6  5  1  0  0  0  0
  9  5  1  0  0  0  0
 10  6  1  0  0  0  0
 11 12  1  0  0  0  0
 11 10  2  0  0  0  0
 13 11  1  0  0  0  0
 14 13  1  0  0  0  0
 15 13  2  0  0  0  0
 15 17  1  0  0  0  0
 16 15  1  0  0  0  0
 17 10  1  0  0  0  0
 18 19  3  0  0  0  0
 19  1  1  0  0  0  0
 20 21  1  0  0  0  0
 21 22  1  0  0  0  0
 22 31  1  0  0  0  0
 22 23  2  0  0  0  0
 23 27  1  0  0  0  0
 24 23  1  0  0  0  0
 25 24  2  0  0  0  0
 26 21  2  0  0  0  0
 26 25  1  0  0  0  0
 28 25  1  0  0  0  0
 29 30  2  0  0  0  0
 29 32  1  0  0  0  0
 31 33  1  0  0  0  0
 31 29  1  0  0  0  0
M  END
>  <minimizedAffinity>
-5.16487169

$$$$

 OpenBabel03272507403D

 33 35  0  0  0  0  0  0  0  0999 V2000
   37.5540   25.7430   33.4860 C   0  0  0  0  0  0  0  0  0  0  0  0
   37.8450   24.4430   33.8750 C   0  0  0  0  0  0  0  0  0  0  0  0
   37.7830   23.4020   32.9620 C   0  0  0  0  0  0  0  0  0  0  0  0
   37.4250   23.6760   31.6410 C   0  0  0  0  0  0  0  0  0  0  0  0
   37.1350   24.9730   31.2580 C   0  0  0  0  0  0  0  0  0  0  0  0
   37.2090   25.9730   32.1970 C   0  0  0  0  0  0  0  0  0  0  0  0
   37.9920   22.3820   33.1840 H   0  0  0  0  0  0  0  0  0  0  0  0
   37.3720   22.8700   30.9120 H   0  0  0  0  0  0  0  0  0  0  0  0
   36.8590   25.1580   30.2250 H   0  0  0  0  0  0  0  0  0  0  0  0
   36.8950   27.3590   31.7730 C   0  0  0  0  0  0  0  0  0  0  0  0
   37.6970   28.2950   31.1790 C   0  0  0  0  0  0  0  0  0  0  0  0
   38.7160   28.0670   30.9550 H   0  0  0  0  0  0  0  0  0  0  0  0
   36.9280   29.4400   30.9840 C   0  0  0  0  0  0  0  0  0  0  0  0
   37.3100   30.3380   30.5320 H   0  0  0  0  0  0  0  0  0  0  0  0
   35.6830   29.1190   31.4830 C   0  0  0  0  0  0  0  0  0  0  0  0
   34.8280   29.8120   31.4820 H   0  0  0  0  0  0  0  0  0  0  0  0
   35.6810   27.8790   31.9480 O   0  0  0  0  0  0  0  0  0  0  0  0
   37.7080   27.5400   35.3140 N   0  0  0  0  0  0  0  0  0  0  0  0
   37.6440   26.7480   34.4920 C   0  0  0  0  0  0  0  0  0  0  0  0
   38.2110   24.0250   35.1430 O   0  0  0  0  0  0  0  0  0  0  0  0
   39.4880   23.7610   35.5270 C   0  0  0  0  0  0  0  0  0  0  0  0
   39.5360   23.0330   36.7220 C   0  0  0  0  0  0  0  0  0  0  0  0
   40.7450   22.6670   37.2780 C   0  0  0  0  0  0  0  0  0  0  0  0
   41.8820   23.0450   36.6100 N   0  0  0  0  0  0  0  0  0  0  0  0
   41.8170   23.7520   35.4480 C   0  0  0  0  0  0  0  0  0  0  0  0
   40.6470   24.0910   34.9370 N   0  0  0  0  0  0  0  0  0  0  0  0
   40.8660   22.1070   38.1950 H   0  0  0  0  0  0  0  0  0  0  0  0
   42.7750   23.9850   35.0220 H   0  0  0  0  0  0  0  0  0  0  0  0
   37.7960   23.4590   38.3850 C   0  0  0  0  0  0  0  0  0  0  0  0
   38.0620   24.6400   38.8490 O   0  0  0  0  0  0  0  0  0  0  0  0
   38.4360   22.5820   37.4570 N   0  0  0  0  0  0  0  0  0  0  0  0
   37.0450   23.7920   39.0900 H   0  0  0  0  0  0  0  0  0  0  0  0
   37.7980   21.8120   37.6770 H   0  0  0  0  0  0  0  0  0  0  0  0
  1  2  1  0  0  0  0
  1 19  1  0  0  0  0
  2 20  1  0  0  0  0
  3  7  1  0  0  0  0
  3  2  2  0  0  0  0
  4  3  1  0  0  0  0
  5  4  2  0  0  0  0
  5  6  1  0  0  0  0
  6  1  2  0  0  0  0
  8  4  1  0  0  0  0
  9  5  1  0  0  0  0
 10 17  1  0  0  0  0
 10  6  1  0  0  0  0
 11 10  2  0  0  0  0
 12 11  1  0  0  0  0
 13 11  1  0  0  0  0
 13 15  2  0  0  0  0
 14 13  1  0  0  0  0
 15 17  1  0  0  0  0
 16 15  1  0  0  0  0
 19 18  3  0  0  0  0
 20 21  1  0  0  0  0
 21 22  1  0  0  0  0
 22 23  2  0  0  0  0
 22 31  1  0  0  0  0
 23 27  1  0  0  0  0
 24 23  1  0  0  0  0
 25 24  2  0  0  0  0
 26 25  1  0  0  0  0
 26 21  2  0  0  0  0
 28 25  1  0  0  0  0
 29 30  2  0  0  0  0
 29 32  1  0  0  0  0
 31 33  1  0  0  0  0
 31 29  1  0  0  0  0
M  END
>  <minimizedAffinity>
-5.11677647

$$$$

 OpenBabel03272507403D

 33 35  0  0  0  0  0  0  0  0999 V2000
   37.8630   25.3950   34.0770 C   0  0  0  0  0  0  0  0  0  0  0  0
   37.1620   26.5100   33.6370 C   0  0  0  0  0  0  0  0  0  0  0  0
   37.1430   27.6740   34.3900 C   0  0  0  0  0  0  0  0  0  0  0  0
   37.8390   27.7140   35.5990 C   0  0  0  0  0  0  0  0  0  0  0  0
   38.5350   26.6010   36.0330 C   0  0  0  0  0  0  0  0  0  0  0  0
   38.5260   25.4690   35.2540 C   0  0  0  0  0  0  0  0  0  0  0  0
   36.6300   28.5670   34.1190 H   0  0  0  0  0  0  0  0  0  0  0  0
   37.8340   28.6200   36.2020 H   0  0  0  0  0  0  0  0  0  0  0  0
   39.0680   26.6590   36.9770 H   0  0  0  0  0  0  0  0  0  0  0  0
   39.2770   24.2820   35.7320 C   0  0  0  0  0  0  0  0  0  0  0  0
   38.8890   23.2860   36.5870 C   0  0  0  0  0  0  0  0  0  0  0  0
   37.9110   23.2970   37.0160 H   0  0  0  0  0  0  0  0  0  0  0  0
   39.9600   22.4050   36.7140 C   0  0  0  0  0  0  0  0  0  0  0  0
   39.9290   21.5240   37.3310 H   0  0  0  0  0  0  0  0  0  0  0  0
   40.9500   22.9330   35.9110 C   0  0  0  0  0  0  0  0  0  0  0  0
   41.9420   22.4730   35.7840 H   0  0  0  0  0  0  0  0  0  0  0  0
   40.5280   24.0480   35.3350 O   0  0  0  0  0  0  0  0  0  0  0  0
   37.7780   23.3180   32.5690 N   0  0  0  0  0  0  0  0  0  0  0  0
   37.8270   24.2450   33.2380 C   0  0  0  0  0  0  0  0  0  0  0  0
   36.4300   26.6140   32.4660 O   0  0  0  0  0  0  0  0  0  0  0  0
   36.4230   27.7080   31.6590 C   0  0  0  0  0  0  0  0  0  0  0  0
   37.2730   27.5500   30.5580 C   0  0  0  0  0  0  0  0  0  0  0  0
   37.4050   28.5540   29.6190 C   0  0  0  0  0  0  0  0  0  0  0  0
   36.6720   29.6960   29.8150 N   0  0  0  0  0  0  0  0  0  0  0  0
   35.8500   29.8320   30.8910 C   0  0  0  0  0  0  0  0  0  0  0  0
   35.7410   28.8570   31.7770 N   0  0  0  0  0  0  0  0  0  0  0  0
   38.0390   28.5100   28.7440 H   0  0  0  0  0  0  0  0  0  0  0  0
   35.3300   30.7700   30.9310 H   0  0  0  0  0  0  0  0  0  0  0  0
   39.4060   26.3630   30.6570 C   0  0  0  0  0  0  0  0  0  0  0  0
   40.2370   27.2140   31.1730 O   0  0  0  0  0  0  0  0  0  0  0  0
   38.0360   26.4170   30.2600 N   0  0  0  0  0  0  0  0  0  0  0  0
   40.3830   25.9240   30.8170 H   0  0  0  0  0  0  0  0  0  0  0  0
   38.0790   25.4920   29.8230 H   0  0  0  0  0  0  0  0  0  0  0  0
  1  6  1  0  0  0  0
  2  1  2  0  0  0  0
  2  3  1  0  0  0  0
  3  4  2  0  0  0  0
  4  5  1  0  0  0  0
  4  8  1  0  0  0  0
  5  9  1  0  0  0  0
  6 10  1  0  0  0  0
  6  5  2  0  0  0  0
  7  3  1  0  0  0  0
 10 11  2  0  0  0  0
 11 13  1  0  0  0  0
 11 12  1  0  0  0  0
 13 14  1  0  0  0  0
 15 13  2  0  0  0  0
 16 15  1  0  0  0  0
 17 10  1  0  0  0  0
 17 15  1  0  0  0  0
 18 19  3  0  0  0  0
 19  1  1  0  0  0  0
 20  2  1  0  0  0  0
 21 26  1  0  0  0  0
 21 20  1  0  0  0  0
 22 21  2  0  0  0  0
 23 24  2  0  0  0  0
 23 22  1  0  0  0  0
 24 25  1  0  0  0  0
 25 28  1  0  0  0  0
 25 26  2  0  0  0  0
 27 23  1  0  0  0  0
 29 32  1  0  0  0  0
 29 30  2  0  0  0  0
 31 22  1  0  0  0  0
 31 29  1  0  0  0  0
 33 31  1  0  0  0  0
M  END
>  <minimizedAffinity>
-5.00663328

$$$$

 OpenBabel03272507403D

 33 35  0  0  0  0  0  0  0  0999 V2000
   37.9920   25.2970   34.3960 C   0  0  0  0  0  0  0  0  0  0  0  0
   37.6630   26.3270   33.5260 C   0  0  0  0  0  0  0  0  0  0  0  0
   37.5730   27.6340   33.9820 C   0  0  0  0  0  0  0  0  0  0  0  0
   37.8170   27.9030   35.3290 C   0  0  0  0  0  0  0  0  0  0  0  0
   38.1440   26.8730   36.1910 C   0  0  0  0  0  0  0  0  0  0  0  0
   38.2220   25.5940   35.6960 C   0  0  0  0  0  0  0  0  0  0  0  0
   37.3270   28.4750   33.3770 H   0  0  0  0  0  0  0  0  0  0  0  0
   37.7510   28.9230   35.7020 H   0  0  0  0  0  0  0  0  0  0  0  0
   38.3290   27.1090   37.2340 H   0  0  0  0  0  0  0  0  0  0  0  0
   38.5730   24.4980   36.6320 C   0  0  0  0  0  0  0  0  0  0  0  0
   37.9260   24.0680   37.7590 C   0  0  0  0  0  0  0  0  0  0  0  0
   37.0240   24.5450   38.0760 H   0  0  0  0  0  0  0  0  0  0  0  0
   38.6620   23.0080   38.2830 C   0  0  0  0  0  0  0  0  0  0  0  0
   38.3780   22.4780   39.1750 H   0  0  0  0  0  0  0  0  0  0  0  0
   39.7290   22.8590   37.4240 C   0  0  0  0  0  0  0  0  0  0  0  0
   40.5140   22.0970   37.5520 H   0  0  0  0  0  0  0  0  0  0  0  0
   39.6620   23.7520   36.4480 O   0  0  0  0  0  0  0  0  0  0  0  0
   38.1130   22.9280   33.4110 N   0  0  0  0  0  0  0  0  0  0  0  0
   38.0620   23.9880   33.8390 C   0  0  0  0  0  0  0  0  0  0  0  0
   37.3950   26.2100   32.1720 O   0  0  0  0  0  0  0  0  0  0  0  0
   38.2170   26.6520   31.1840 C   0  0  0  0  0  0  0  0  0  0  0  0
   37.5680   27.5460   30.3250 C   0  0  0  0  0  0  0  0  0  0  0  0
   38.2360   28.1060   29.2540 C   0  0  0  0  0  0  0  0  0  0  0  0
   39.5480   27.7500   29.0780 N   0  0  0  0  0  0  0  0  0  0  0  0
   40.1640   26.8790   29.9240 C   0  0  0  0  0  0  0  0  0  0  0  0
   39.5020   26.3550   30.9420 N   0  0  0  0  0  0  0  0  0  0  0  0
   37.8070   28.8020   28.5470 H   0  0  0  0  0  0  0  0  0  0  0  0
   41.1910   26.6820   29.6810 H   0  0  0  0  0  0  0  0  0  0  0  0
   35.9750   29.2710   31.0030 C   0  0  0  0  0  0  0  0  0  0  0  0
   36.6940   30.1730   31.5970 O   0  0  0  0  0  0  0  0  0  0  0  0
   36.2470   27.9880   30.4380 N   0  0  0  0  0  0  0  0  0  0  0  0
   35.3840   30.1310   31.2910 H   0  0  0  0  0  0  0  0  0  0  0  0
   35.2520   27.7900   30.2950 H   0  0  0  0  0  0  0  0  0  0  0  0
  1  6  1  0  0  0  0
  2  3  1  0  0  0  0
  2  1  2  0  0  0  0
  3  4  2  0  0  0  0
  4  8  1  0  0  0  0
  4  5  1  0  0  0  0
  5  9  1  0  0  0  0
  6  5  2  0  0  0  0
  6 10  1  0  0  0  0
  7  3  1  0  0  0  0
 10 11  2  0  0  0  0
 11 12  1  0  0  0  0
 11 13  1  0  0  0  0
 13 14  1  0  0  0  0
 15 16  1  0  0  0  0
 15 13  2  0  0  0  0
 17 10  1  0  0  0  0
 17 15  1  0  0  0  0
 18 19  3  0  0  0  0
 19  1  1  0  0  0  0
 20  2  1  0  0  0  0
 21 20  1  0  0  0  0
 22 31  1  0  0  0  0
 22 21  2  0  0  0  0
 23 22  1  0  0  0  0
 24 23  2  0  0  0  0
 24 25  1  0  0  0  0
 25 26  2  0  0  0  0
 26 21  1  0  0  0  0
 27 23  1  0  0  0  0
 28 25  1  0  0  0  0
 29 32  1  0  0  0  0
 29 30  2  0  0  0  0
 31 29  1  0  0  0  0
 33 31  1  0  0  0  0
M  END
>  <minimizedAffinity>
-4.91990519

$$$$

 OpenBabel03272507403D

 33 35  0  0  0  0  0  0  0  0999 V2000
   37.1840   23.2870   32.5860 C   0  0  0  0  0  0  0  0  0  0  0  0
   37.4470   24.6440   32.7140 C   0  0  0  0  0  0  0  0  0  0  0  0
   36.6450   25.5810   32.0800 C   0  0  0  0  0  0  0  0  0  0  0  0
   35.5670   25.1440   31.3100 C   0  0  0  0  0  0  0  0  0  0  0  0
   35.3100   23.7900   31.1850 C   0  0  0  0  0  0  0  0  0  0  0  0
   36.1310   22.8980   31.8310 C   0  0  0  0  0  0  0  0  0  0  0  0
   36.7810   26.6360   32.1310 H   0  0  0  0  0  0  0  0  0  0  0  0
   34.9270   25.8660   30.8060 H   0  0  0  0  0  0  0  0  0  0  0  0
   34.4650   23.4770   30.5800 H   0  0  0  0  0  0  0  0  0  0  0  0
   35.8450   21.4500   31.6880 C   0  0  0  0  0  0  0  0  0  0  0  0
   34.9570   20.6620   32.3680 C   0  0  0  0  0  0  0  0  0  0  0  0
   34.3410   21.0820   33.1330 H   0  0  0  0  0  0  0  0  0  0  0  0
   35.0710   19.3700   31.8600 C   0  0  0  0  0  0  0  0  0  0  0  0
   34.4840   18.5420   32.2160 H   0  0  0  0  0  0  0  0  0  0  0  0
   36.0400   19.4590   30.8830 C   0  0  0  0  0  0  0  0  0  0  0  0
   36.3750   18.6030   30.2760 H   0  0  0  0  0  0  0  0  0  0  0  0
   36.4900   20.7010   30.7940 O   0  0  0  0  0  0  0  0  0  0  0  0
   38.7490   21.6700   33.8240 N   0  0  0  0  0  0  0  0  0  0  0  0
   38.0610   22.3990   33.2730 C   0  0  0  0  0  0  0  0  0  0  0  0
   38.4750   25.2200   33.4410 O   0  0  0  0  0  0  0  0  0  0  0  0
   39.4860   25.9490   32.8970 C   0  0  0  0  0  0  0  0  0  0  0  0
   40.1950   26.6650   33.8690 C   0  0  0  0  0  0  0  0  0  0  0  0
   41.2610   27.4680   33.5160 C   0  0  0  0  0  0  0  0  0  0  0  0
   41.5880   27.5280   32.1850 N   0  0  0  0  0  0  0  0  0  0  0  0
   40.8870   26.8240   31.2540 C   0  0  0  0  0  0  0  0  0  0  0  0
   39.8690   26.0630   31.6170 N   0  0  0  0  0  0  0  0  0  0  0  0
   41.8570   28.0510   34.2040 H   0  0  0  0  0  0  0  0  0  0  0  0
   41.2410   26.9530   30.2480 H   0  0  0  0  0  0  0  0  0  0  0  0
   38.7630   27.2370   35.7650 C   0  0  0  0  0  0  0  0  0  0  0  0
   37.8070   27.9500   35.2570 O   0  0  0  0  0  0  0  0  0  0  0  0
   39.9550   26.6470   35.2460 N   0  0  0  0  0  0  0  0  0  0  0  0
   38.0180   27.4960   36.5060 H   0  0  0  0  0  0  0  0  0  0  0  0
   40.2850   26.3820   36.1790 H   0  0  0  0  0  0  0  0  0  0  0  0
  1  2  1  0  0  0  0
  1 19  1  0  0  0  0
  2 20  1  0  0  0  0
  3  7  1  0  0  0  0
  3  2  2  0  0  0  0
  4  3  1  0  0  0  0
  5  4  2  0  0  0  0
  5  6  1  0  0  0  0
  6  1  2  0  0  0  0
  8  4  1  0  0  0  0
  9  5  1  0  0  0  0
 10  6  1  0  0  0  0
 10 11  2  0  0  0  0
 11 12  1  0  0  0  0
 13 14  1  0  0  0  0
 13 11  1  0  0  0  0
 15 13  2  0  0  0  0
 16 15  1  0  0  0  0
 17 15  1  0  0  0  0
 17 10  1  0  0  0  0
 19 18  3  0  0  0  0
 21 20  1  0  0  0  0
 21 22  1  0  0  0  0
 22 31  1  0  0  0  0
 23 22  2  0  0  0  0
 23 27  1  0  0  0  0
 24 23  1  0  0  0  0
 25 26  1  0  0  0  0
 25 24  2  0  0  0  0
 26 21  2  0  0  0  0
 28 25  1  0  0  0  0
 29 32  1  0  0  0  0
 30 29  2  0  0  0  0
 31 29  1  0  0  0  0
 31 33  1  0  0  0  0
M  END
>  <minimizedAffinity>
-4.86534357

$$$$

 OpenBabel03272507403D

 33 35  0  0  0  0  0  0  0  0999 V2000
   38.5590   25.1200   34.2690 C   0  0  0  0  0  0  0  0  0  0  0  0
   38.4440   25.2960   32.8970 C   0  0  0  0  0  0  0  0  0  0  0  0
   38.0400   24.2480   32.0830 C   0  0  0  0  0  0  0  0  0  0  0  0
   37.7460   23.0120   32.6600 C   0  0  0  0  0  0  0  0  0  0  0  0
   37.8630   22.8420   34.0270 C   0  0  0  0  0  0  0  0  0  0  0  0
   38.2680   23.9070   34.7950 C   0  0  0  0  0  0  0  0  0  0  0  0
   37.9280   24.3060   31.0260 H   0  0  0  0  0  0  0  0  0  0  0  0
   37.4270   22.1800   32.0350 H   0  0  0  0  0  0  0  0  0  0  0  0
   37.6290   21.8700   34.4500 H   0  0  0  0  0  0  0  0  0  0  0  0
   38.3880   23.7110   36.2600 C   0  0  0  0  0  0  0  0  0  0  0  0
   39.4200   23.1890   36.9920 C   0  0  0  0  0  0  0  0  0  0  0  0
   40.3070   22.8500   36.5040 H   0  0  0  0  0  0  0  0  0  0  0  0
   39.0400   23.2230   38.3320 C   0  0  0  0  0  0  0  0  0  0  0  0
   39.6670   22.8700   39.1310 H   0  0  0  0  0  0  0  0  0  0  0  0
   37.7770   23.7740   38.3270 C   0  0  0  0  0  0  0  0  0  0  0  0
   37.1820   23.9450   39.2380 H   0  0  0  0  0  0  0  0  0  0  0  0
   37.4040   24.0590   37.0890 O   0  0  0  0  0  0  0  0  0  0  0  0
   39.3230   27.1690   35.6150 N   0  0  0  0  0  0  0  0  0  0  0  0
   38.9810   26.2510   35.0260 C   0  0  0  0  0  0  0  0  0  0  0  0
   38.7010   26.4580   32.1900 O   0  0  0  0  0  0  0  0  0  0  0  0
   37.7630   27.3910   31.8780 C   0  0  0  0  0  0  0  0  0  0  0  0
   37.7440   27.6750   30.5080 C   0  0  0  0  0  0  0  0  0  0  0  0
   36.8590   28.6010   29.9910 C   0  0  0  0  0  0  0  0  0  0  0  0
   36.0100   29.2180   30.8740 N   0  0  0  0  0  0  0  0  0  0  0  0
   36.0430   28.9280   32.2040 C   0  0  0  0  0  0  0  0  0  0  0  0
   36.9000   28.0390   32.6750 N   0  0  0  0  0  0  0  0  0  0  0  0
   36.7820   28.8760   28.9480 H   0  0  0  0  0  0  0  0  0  0  0  0
   35.3290   29.4760   32.7900 H   0  0  0  0  0  0  0  0  0  0  0  0
   39.7760   27.7030   29.1500 C   0  0  0  0  0  0  0  0  0  0  0  0
   40.3410   28.8380   29.4190 O   0  0  0  0  0  0  0  0  0  0  0  0
   38.5480   27.0810   29.5310 N   0  0  0  0  0  0  0  0  0  0  0  0
   40.7330   27.8030   28.6540 H   0  0  0  0  0  0  0  0  0  0  0  0
   38.6780   26.3130   28.8670 H   0  0  0  0  0  0  0  0  0  0  0  0
  1  6  1  0  0  0  0
  1 19  1  0  0  0  0
  2  1  2  0  0  0  0
  3  4  2  0  0  0  0
  3  2  1  0  0  0  0
  4  5  1  0  0  0  0
  5  9  1  0  0  0  0
  5  6  2  0  0  0  0
  6 10  1  0  0  0  0
  7  3  1  0  0  0  0
  8  4  1  0  0  0  0
 10 11  2  0  0  0  0
 10 17  1  0  0  0  0
 11 13  1  0  0  0  0
 12 11  1  0  0  0  0
 13 14  1  0  0  0  0
 15 13  2  0  0  0  0
 15 16  1  0  0  0  0
 17 15  1  0  0  0  0
 19 18  3  0  0  0  0
 20  2  1  0  0  0  0
 21 20  1  0  0  0  0
 21 26  1  0  0  0  0
 22 21  2  0  0  0  0
 23 22  1  0  0  0  0
 23 24  2  0  0  0  0
 24 25  1  0  0  0  0
 25 26  2  0  0  0  0
 25 28  1  0  0  0  0
 27 23  1  0  0  0  0
 29 30  2  0  0  0  0
 29 31  1  0  0  0  0
 31 22  1  0  0  0  0
 32 29  1  0  0  0  0
 33 31  1  0  0  0  0
M  END
>  <minimizedAffinity>
-4.86444807

$$$$

 OpenBabel03272507403D

 33 35  0  0  0  0  0  0  0  0999 V2000
   36.2720   29.1980   32.9580 C   0  0  0  0  0  0  0  0  0  0  0  0
   36.6850   28.7830   31.7000 C   0  0  0  0  0  0  0  0  0  0  0  0
   36.4980   29.5950   30.5920 C   0  0  0  0  0  0  0  0  0  0  0  0
   35.8890   30.8400   30.7550 C   0  0  0  0  0  0  0  0  0  0  0  0
   35.4790   31.2490   32.0110 C   0  0  0  0  0  0  0  0  0  0  0  0
   35.6850   30.4110   33.0810 C   0  0  0  0  0  0  0  0  0  0  0  0
   36.7870   29.3470   29.5970 H   0  0  0  0  0  0  0  0  0  0  0  0
   35.7350   31.4900   29.8960 H   0  0  0  0  0  0  0  0  0  0  0  0
   35.0090   32.2220   32.1110 H   0  0  0  0  0  0  0  0  0  0  0  0
   35.2400   30.8630   34.4220 C   0  0  0  0  0  0  0  0  0  0  0  0
   35.9400   31.5070   35.4060 C   0  0  0  0  0  0  0  0  0  0  0  0
   36.9680   31.7560   35.2590 H   0  0  0  0  0  0  0  0  0  0  0  0
   35.0690   31.7080   36.4740 C   0  0  0  0  0  0  0  0  0  0  0  0
   35.3590   32.1960   37.3880 H   0  0  0  0  0  0  0  0  0  0  0  0
   33.8710   31.1620   36.0620 C   0  0  0  0  0  0  0  0  0  0  0  0
   32.9600   31.1540   36.6790 H   0  0  0  0  0  0  0  0  0  0  0  0
   33.9900   30.6640   34.8400 O   0  0  0  0  0  0  0  0  0  0  0  0
   36.6800   27.5620   34.8950 N   0  0  0  0  0  0  0  0  0  0  0  0
   36.5060   28.2990   34.0370 C   0  0  0  0  0  0  0  0  0  0  0  0
   37.2980   27.5810   31.3880 O   0  0  0  0  0  0  0  0  0  0  0  0
   36.6440   26.3980   31.2440 C   0  0  0  0  0  0  0  0  0  0  0  0
   37.5200   25.3080   31.2820 C   0  0  0  0  0  0  0  0  0  0  0  0
   37.0470   24.0170   31.1510 C   0  0  0  0  0  0  0  0  0  0  0  0
   35.6950   23.8590   30.9860 N   0  0  0  0  0  0  0  0  0  0  0  0
   34.8570   24.9310   30.9520 C   0  0  0  0  0  0  0  0  0  0  0  0
   35.3350   26.1570   31.0780 N   0  0  0  0  0  0  0  0  0  0  0  0
   37.6570   23.1240   31.1690 H   0  0  0  0  0  0  0  0  0  0  0  0
   33.8230   24.6760   30.8190 H   0  0  0  0  0  0  0  0  0  0  0  0
   39.4470   25.1980   32.7820 C   0  0  0  0  0  0  0  0  0  0  0  0
   38.9380   25.1070   33.9710 O   0  0  0  0  0  0  0  0  0  0  0  0
   38.9040   25.3670   31.4720 N   0  0  0  0  0  0  0  0  0  0  0  0
   40.2120   25.0720   33.5370 H   0  0  0  0  0  0  0  0  0  0  0  0
   39.8300   25.5030   31.0570 H   0  0  0  0  0  0  0  0  0  0  0  0
  1  6  1  0  0  0  0
  1 19  1  0  0  0  0
  2  1  2  0  0  0  0
  3  4  2  0  0  0  0
  3  2  1  0  0  0  0
  4  5  1  0  0  0  0
  5  9  1  0  0  0  0
  5  6  2  0  0  0  0
  6 10  1  0  0  0  0
  7  3  1  0  0  0  0
  8  4  1  0  0  0  0
 10 17  1  0  0  0  0
 10 11  2  0  0  0  0
 11 13  1  0  0  0  0
 12 11  1  0  0  0  0
 13 14  1  0  0  0  0
 15 13  2  0  0  0  0
 15 16  1  0  0  0  0
 17 15  1  0  0  0  0
 19 18  3  0  0  0  0
 20  2  1  0  0  0  0
 21 22  1  0  0  0  0
 21 20  1  0  0  0  0
 22 31  1  0  0  0  0
 23 27  1  0  0  0  0
 23 22  2  0  0  0  0
 24 23  1  0  0  0  0
 25 24  2  0  0  0  0
 25 26  1  0  0  0  0
 26 21  2  0  0  0  0
 28 25  1  0  0  0  0
 29 32  1  0  0  0  0
 29 30  2  0  0  0  0
 31 29  1  0  0  0  0
 33 31  1  0  0  0  0
M  END
>  <minimizedAffinity>
-4.81839609

$$$$

 OpenBabel03272507403D

 33 35  0  0  0  0  0  0  0  0999 V2000
   37.9630   24.8090   34.4790 C   0  0  0  0  0  0  0  0  0  0  0  0
   37.6220   25.6740   33.4480 C   0  0  0  0  0  0  0  0  0  0  0  0
   37.5680   27.0430   33.6650 C   0  0  0  0  0  0  0  0  0  0  0  0
   37.8620   27.5430   34.9330 C   0  0  0  0  0  0  0  0  0  0  0  0
   38.2010   26.6770   35.9570 C   0  0  0  0  0  0  0  0  0  0  0  0
   38.2420   25.3290   35.6970 C   0  0  0  0  0  0  0  0  0  0  0  0
   37.3150   27.7670   32.9260 H   0  0  0  0  0  0  0  0  0  0  0  0
   37.8250   28.6150   35.1190 H   0  0  0  0  0  0  0  0  0  0  0  0
   38.4260   27.0930   36.9340 H   0  0  0  0  0  0  0  0  0  0  0  0
   38.6070   24.4110   36.8030 C   0  0  0  0  0  0  0  0  0  0  0  0
   37.9870   24.1980   38.0050 C   0  0  0  0  0  0  0  0  0  0  0  0
   37.1010   24.7380   38.2560 H   0  0  0  0  0  0  0  0  0  0  0  0
   38.7260   23.2360   38.6910 C   0  0  0  0  0  0  0  0  0  0  0  0
   38.4620   22.8770   39.6690 H   0  0  0  0  0  0  0  0  0  0  0  0
   39.7670   22.9200   37.8440 C   0  0  0  0  0  0  0  0  0  0  0  0
   40.5460   22.1800   38.0850 H   0  0  0  0  0  0  0  0  0  0  0  0
   39.6820   23.6270   36.7270 O   0  0  0  0  0  0  0  0  0  0  0  0
   37.9970   22.3040   33.9150 N   0  0  0  0  0  0  0  0  0  0  0  0
   37.9940   23.4200   34.1640 C   0  0  0  0  0  0  0  0  0  0  0  0
   37.3060   25.3220   32.1470 O   0  0  0  0  0  0  0  0  0  0  0  0
   38.1830   25.3480   31.1090 C   0  0  0  0  0  0  0  0  0  0  0  0
   38.1840   24.1430   30.3960 C   0  0  0  0  0  0  0  0  0  0  0  0
   39.0100   23.9710   29.3030 C   0  0  0  0  0  0  0  0  0  0  0  0
   39.8170   25.0230   28.9540 N   0  0  0  0  0  0  0  0  0  0  0  0
   39.8020   26.1880   29.6590 C   0  0  0  0  0  0  0  0  0  0  0  0
   39.0030   26.3290   30.7030 N   0  0  0  0  0  0  0  0  0  0  0  0
   39.0700   23.0740   28.7020 H   0  0  0  0  0  0  0  0  0  0  0  0
   40.4770   26.9350   29.2860 H   0  0  0  0  0  0  0  0  0  0  0  0
   37.9730   21.7320   30.7290 C   0  0  0  0  0  0  0  0  0  0  0  0
   39.1550   21.2570   30.4830 O   0  0  0  0  0  0  0  0  0  0  0  0
   37.3810   23.0290   30.6570 N   0  0  0  0  0  0  0  0  0  0  0  0
   38.0250   20.6660   30.9130 H   0  0  0  0  0  0  0  0  0  0  0  0
   36.4430   22.6600   30.8340 H   0  0  0  0  0  0  0  0  0  0  0  0
  1  6  1  0  0  0  0
  2  3  1  0  0  0  0
  2  1  2  0  0  0  0
  3  4  2  0  0  0  0
  4  8  1  0  0  0  0
  4  5  1  0  0  0  0
  5  9  1  0  0  0  0
  6  5  2  0  0  0  0
  6 10  1  0  0  0  0
  7  3  1  0  0  0  0
 10 11  2  0  0  0  0
 11 12  1  0  0  0  0
 11 13  1  0  0  0  0
 13 14  1  0  0  0  0
 15 16  1  0  0  0  0
 15 13  2  0  0  0  0
 17 10  1  0  0  0  0
 17 15  1  0  0  0  0
 18 19  3  0  0  0  0
 19  1  1  0  0  0  0
 20  2  1  0  0  0  0
 21 20  1  0  0  0  0
 22 31  1  0  0  0  0
 22 21  2  0  0  0  0
 23 22  1  0  0  0  0
 24 23  2  0  0  0  0
 24 25  1  0  0  0  0
 25 26  2  0  0  0  0
 26 21  1  0  0  0  0
 27 23  1  0  0  0  0
 28 25  1  0  0  0  0
 29 32  1  0  0  0  0
 30 29  2  0  0  0  0
 31 29  1  0  0  0  0
 31 33  1  0  0  0  0
M  END
>  <minimizedAffinity>
-4.80425739

$$$$

 OpenBabel03272507403D

 33 35  0  0  0  0  0  0  0  0999 V2000
   37.6100   25.7250   33.9090 C   0  0  0  0  0  0  0  0  0  0  0  0
   38.0580   24.9980   35.0030 C   0  0  0  0  0  0  0  0  0  0  0  0
   38.4140   25.6410   36.1790 C   0  0  0  0  0  0  0  0  0  0  0  0
   38.3150   27.0310   36.2520 C   0  0  0  0  0  0  0  0  0  0  0  0
   37.8690   27.7500   35.1580 C   0  0  0  0  0  0  0  0  0  0  0  0
   37.5280   27.0710   34.0130 C   0  0  0  0  0  0  0  0  0  0  0  0
   38.7640   25.1530   37.0590 H   0  0  0  0  0  0  0  0  0  0  0  0
   38.5900   27.5500   37.1680 H   0  0  0  0  0  0  0  0  0  0  0  0
   37.8020   28.8300   35.2410 H   0  0  0  0  0  0  0  0  0  0  0  0
   37.0510   27.8550   32.8480 C   0  0  0  0  0  0  0  0  0  0  0  0
   35.8240   28.4140   32.6110 C   0  0  0  0  0  0  0  0  0  0  0  0
   35.0400   28.3120   33.3280 H   0  0  0  0  0  0  0  0  0  0  0  0
   35.8860   29.0460   31.3710 C   0  0  0  0  0  0  0  0  0  0  0  0
   35.0550   29.5700   30.9340 H   0  0  0  0  0  0  0  0  0  0  0  0
   37.1730   28.8260   30.9260 C   0  0  0  0  0  0  0  0  0  0  0  0
   37.5580   29.1990   29.9640 H   0  0  0  0  0  0  0  0  0  0  0  0
   37.8520   28.1180   31.8150 O   0  0  0  0  0  0  0  0  0  0  0  0
   36.9720   24.3770   31.8170 N   0  0  0  0  0  0  0  0  0  0  0  0
   37.2660   24.9800   32.7440 C   0  0  0  0  0  0  0  0  0  0  0  0
   38.2060   23.6230   35.0750 O   0  0  0  0  0  0  0  0  0  0  0  0
   39.2570   22.9930   35.6620 C   0  0  0  0  0  0  0  0  0  0  0  0
   40.2100   22.5810   34.7240 C   0  0  0  0  0  0  0  0  0  0  0  0
   41.3550   21.9200   35.1240 C   0  0  0  0  0  0  0  0  0  0  0  0
   41.5110   21.6920   36.4670 N   0  0  0  0  0  0  0  0  0  0  0  0
   40.5740   22.1010   37.3660 C   0  0  0  0  0  0  0  0  0  0  0  0
   39.4860   22.7310   36.9580 N   0  0  0  0  0  0  0  0  0  0  0  0
   42.1360   21.5690   34.4630 H   0  0  0  0  0  0  0  0  0  0  0  0
   40.8120   21.8650   38.3860 H   0  0  0  0  0  0  0  0  0  0  0  0
   40.7960   23.9290   32.7720 C   0  0  0  0  0  0  0  0  0  0  0  0
   41.3810   24.9810   33.2570 O   0  0  0  0  0  0  0  0  0  0  0  0
   40.1530   22.7900   33.3430 N   0  0  0  0  0  0  0  0  0  0  0  0
   41.1680   24.5790   31.9900 H   0  0  0  0  0  0  0  0  0  0  0  0
   39.8120   22.4700   32.4320 H   0  0  0  0  0  0  0  0  0  0  0  0
  1  6  2  0  0  0  0
  1  2  1  0  0  0  0
  2 20  1  0  0  0  0
  2  3  2  0  0  0  0
  3  4  1  0  0  0  0
  3  7  1  0  0  0  0
  4  8  1  0  0  0  0
  5  9  1  0  0  0  0
  5  4  2  0  0  0  0
  6  5  1  0  0  0  0
 10  6  1  0  0  0  0
 11 10  2  0  0  0  0
 11 12  1  0  0  0  0
 13 11  1  0  0  0  0
 14 13  1  0  0  0  0
 15 13  2  0  0  0  0
 15 17  1  0  0  0  0
 16 15  1  0  0  0  0
 17 10  1  0  0  0  0
 18 19  3  0  0  0  0
 19  1  1  0  0  0  0
 20 21  1  0  0  0  0
 21 26  1  0  0  0  0
 22 23  1  0  0  0  0
 22 21  2  0  0  0  0
 23 24  2  0  0  0  0
 24 25  1  0  0  0  0
 25 28  1  0  0  0  0
 26 25  2  0  0  0  0
 27 23  1  0  0  0  0
 29 30  2  0  0  0  0
 29 31  1  0  0  0  0
 31 22  1  0  0  0  0
 32 29  1  0  0  0  0
 33 31  1  0  0  0  0
M  END
>  <minimizedAffinity>
-4.79593611

$$$$
