
 OpenBabel03272509023D

 40 43  0  0  0  0  0  0  0  0999 V2000
   34.7280   30.3320   48.9200 C   0  0  0  0  0  0  0  0  0  0  0  0
   34.0920   31.2180   49.0080 H   0  0  0  0  0  0  0  0  0  0  0  0
   34.1640   29.5160   49.4540 H   0  0  0  0  0  0  0  0  0  0  0  0
   37.0290   31.7020   47.5350 Cl  0  0  0  0  0  0  0  0  0  0  0  0
   35.9960   30.5100   46.8420 C   0  0  0  0  0  0  0  0  0  0  0  0
   36.2080   30.1130   45.5270 C   0  0  0  0  0  0  0  0  0  0  0  0
   35.4110   29.1710   44.9240 C   0  0  0  0  0  0  0  0  0  0  0  0
   34.3730   28.5900   45.6150 C   0  0  0  0  0  0  0  0  0  0  0  0
   34.1330   28.9600   46.9260 C   0  0  0  0  0  0  0  0  0  0  0  0
   32.8410   28.3030   47.9180 Cl  0  0  0  0  0  0  0  0  0  0  0  0
   34.9690   29.9200   47.4920 C   0  0  0  0  0  0  0  0  0  0  0  0
   35.5880   28.8790   43.9160 H   0  0  0  0  0  0  0  0  0  0  0  0
   33.7300   27.8560   45.1920 H   0  0  0  0  0  0  0  0  0  0  0  0
   38.1760   32.3950   43.4410 C   0  0  0  0  0  0  0  0  0  0  0  0
   39.4380   31.7910   43.4040 C   0  0  0  0  0  0  0  0  0  0  0  0
   39.5980   30.5710   44.1190 C   0  0  0  0  0  0  0  0  0  0  0  0
   38.5180   30.0860   44.7780 N   0  0  0  0  0  0  0  0  0  0  0  0
   37.3020   30.7140   44.7830 C   0  0  0  0  0  0  0  0  0  0  0  0
   37.1560   31.8540   44.1160 N   0  0  0  0  0  0  0  0  0  0  0  0
   38.0090   33.3240   42.9120 H   0  0  0  0  0  0  0  0  0  0  0  0
   40.2610   32.2250   42.8620 H   0  0  0  0  0  0  0  0  0  0  0  0
   40.5370   30.0650   44.1270 H   0  0  0  0  0  0  0  0  0  0  0  0
   35.9520   28.0530   50.0250 F   0  0  0  0  0  0  0  0  0  0  0  0
   36.5760   29.2740   50.1690 C   0  0  0  0  0  0  0  0  0  0  0  0
   36.0050   30.4480   49.6540 C   0  0  0  0  0  0  0  0  0  0  0  0
   36.6670   31.6360   49.8560 C   0  0  0  0  0  0  0  0  0  0  0  0
   37.8670   31.6780   50.5440 C   0  0  0  0  0  0  0  0  0  0  0  0
   38.4150   30.5020   51.0450 C   0  0  0  0  0  0  0  0  0  0  0  0
   37.7660   29.2710   50.8610 C   0  0  0  0  0  0  0  0  0  0  0  0
   36.2840   32.6030   49.5730 H   0  0  0  0  0  0  0  0  0  0  0  0
   38.4170   32.5790   50.7220 H   0  0  0  0  0  0  0  0  0  0  0  0
   39.3540   30.5430   51.5830 H   0  0  0  0  0  0  0  0  0  0  0  0
   38.3960   28.0850   51.4140 C   0  0  0  0  0  0  0  0  0  0  0  0
   38.5960   27.6980   52.7190 C   0  0  0  0  0  0  0  0  0  0  0  0
   38.3010   28.2410   53.6020 H   0  0  0  0  0  0  0  0  0  0  0  0
   39.2450   26.4830   52.7860 C   0  0  0  0  0  0  0  0  0  0  0  0
   39.5600   25.8840   53.6300 H   0  0  0  0  0  0  0  0  0  0  0  0
   39.4150   26.1780   51.4520 C   0  0  0  0  0  0  0  0  0  0  0  0
   39.8900   25.2940   51.0190 H   0  0  0  0  0  0  0  0  0  0  0  0
   38.9200   27.1130   50.7110 O   0  0  0  0  0  0  0  0  0  0  0  0
  1  2  1  0  0  0  0
  1  3  1  0  0  0  0
  1 25  1  0  0  0  0
  5 11  1  0  0  0  0
  5  4  1  0  0  0  0
  6  5  2  0  0  0  0
  7  6  1  0  0  0  0
  7  8  2  0  0  0  0
  8  9  1  0  0  0  0
  9 11  2  0  0  0  0
  9 10  1  0  0  0  0
 11  1  1  0  0  0  0
 12  7  1  0  0  0  0
 13  8  1  0  0  0  0
 14 19  1  0  0  0  0
 15 14  2  0  0  0  0
 15 16  1  0  0  0  0
 16 22  1  0  0  0  0
 16 17  2  0  0  0  0
 17 18  1  0  0  0  0
 18  6  1  0  0  0  0
 19 18  2  0  0  0  0
 20 14  1  0  0  0  0
 21 15  1  0  0  0  0
 23 24  1  0  0  0  0
 24 29  1  0  0  0  0
 25 26  1  0  0  0  0
 25 24  2  0  0  0  0
 26 27  2  0  0  0  0
 27 31  1  0  0  0  0
 27 28  1  0  0  0  0
 28 32  1  0  0  0  0
 29 28  2  0  0  0  0
 29 33  1  0  0  0  0
 30 26  1  0  0  0  0
 33 34  2  0  0  0  0
 34 36  1  0  0  0  0
 34 35  1  0  0  0  0
 36 37  1  0  0  0  0
 38 36  2  0  0  0  0
 39 38  1  0  0  0  0
 40 33  1  0  0  0  0
 40 38  1  0  0  0  0
M  END
>  <minimizedAffinity>
-2.35293412

>  <minimizedRMSD>
1.6241591

$$$$
