
 OpenBabel03272503163D

 24 26  0  0  0  0  0  0  0  0999 V2000
   37.7810   31.3590   48.3270 C   0  0  0  0  0  0  0  0  0  0  0  0
   38.7390   32.2870   48.2900 C   0  0  0  0  0  0  0  0  0  0  0  0
   39.1740   32.8110   47.1330 C   0  0  0  0  0  0  0  0  0  0  0  0
   38.5660   32.3270   45.9800 C   0  0  0  0  0  0  0  0  0  0  0  0
   37.3600   31.1030   46.6420 S   0  0  0  0  0  0  0  0  0  0  0  0
   39.1680   32.6150   49.2550 H   0  0  0  0  0  0  0  0  0  0  0  0
   39.9310   33.5560   46.9810 H   0  0  0  0  0  0  0  0  0  0  0  0
   37.0890   29.8410   51.6980 C   0  0  0  0  0  0  0  0  0  0  0  0
   37.7750   30.5400   50.6870 C   0  0  0  0  0  0  0  0  0  0  0  0
   37.1540   30.6560   49.4390 C   0  0  0  0  0  0  0  0  0  0  0  0
   35.9420   30.1020   49.2540 N   0  0  0  0  0  0  0  0  0  0  0  0
   35.3080   29.4380   50.2400 C   0  0  0  0  0  0  0  0  0  0  0  0
   35.8750   29.3100   51.4450 N   0  0  0  0  0  0  0  0  0  0  0  0
   37.6730   29.8270   52.6010 H   0  0  0  0  0  0  0  0  0  0  0  0
   38.7450   31.0020   50.7790 H   0  0  0  0  0  0  0  0  0  0  0  0
   34.3230   28.9900   50.0840 H   0  0  0  0  0  0  0  0  0  0  0  0
   38.6980   32.5810   44.5660 C   0  0  0  0  0  0  0  0  0  0  0  0
   37.5990   32.4200   43.7660 C   0  0  0  0  0  0  0  0  0  0  0  0
   36.5760   32.1220   43.9800 H   0  0  0  0  0  0  0  0  0  0  0  0
   38.0070   32.7270   42.4660 C   0  0  0  0  0  0  0  0  0  0  0  0
   37.4820   32.7380   41.5180 H   0  0  0  0  0  0  0  0  0  0  0  0
   39.3480   33.0490   42.6290 C   0  0  0  0  0  0  0  0  0  0  0  0
   40.0440   33.3530   41.8390 H   0  0  0  0  0  0  0  0  0  0  0  0
   39.7390   32.9560   43.8870 O   0  0  0  0  0  0  0  0  0  0  0  0
  1 10  1  0  0  0  0
  2  1  2  0  0  0  0
  2  6  1  0  0  0  0
  3  2  1  0  0  0  0
  4  5  1  0  0  0  0
  4  3  2  0  0  0  0
  5  1  1  0  0  0  0
  7  3  1  0  0  0  0
  8 14  1  0  0  0  0
  9 15  1  0  0  0  0
  9  8  2  0  0  0  0
 10  9  1  0  0  0  0
 11 10  2  0  0  0  0
 11 12  1  0  0  0  0
 12 13  2  0  0  0  0
 13  8  1  0  0  0  0
 16 12  1  0  0  0  0
 17  4  1  0  0  0  0
 18 19  1  0  0  0  0
 18 17  2  0  0  0  0
 20 22  2  0  0  0  0
 20 18  1  0  0  0  0
 21 20  1  0  0  0  0
 22 24  1  0  0  0  0
 23 22  1  0  0  0  0
 24 17  1  0  0  0  0
M  END
>  <minimizedAffinity>
-5.24983311

>  <minimizedRMSD>
0.770725429

$$$$
