
 OpenBabel03272500573D

 34 36  0  0  0  0  0  0  0  0999 V2000
   38.1100   31.8840   47.4300 C   0  0  0  0  0  0  0  0  0  0  0  0
   38.5780   32.7710   48.3520 C   0  0  0  0  0  0  0  0  0  0  0  0
   38.0800   32.8420   49.6560 C   0  0  0  0  0  0  0  0  0  0  0  0
   37.0230   31.9170   50.0100 C   0  0  0  0  0  0  0  0  0  0  0  0
   36.5980   31.0560   49.0510 C   0  0  0  0  0  0  0  0  0  0  0  0
   37.0860   31.0030   47.7990 C   0  0  0  0  0  0  0  0  0  0  0  0
   39.3810   33.4860   48.1150 H   0  0  0  0  0  0  0  0  0  0  0  0
   38.4990   33.5730   50.3400 H   0  0  0  0  0  0  0  0  0  0  0  0
   36.7340   32.0770   51.0350 H   0  0  0  0  0  0  0  0  0  0  0  0
   35.8420   30.4580   49.5350 H   0  0  0  0  0  0  0  0  0  0  0  0
   39.9960   31.2740   46.0080 C   0  0  0  0  0  0  0  0  0  0  0  0
   38.7430   31.9200   46.1340 C   0  0  0  0  0  0  0  0  0  0  0  0
   38.2860   32.5010   44.9800 C   0  0  0  0  0  0  0  0  0  0  0  0
   38.9980   32.4390   43.8440 N   0  0  0  0  0  0  0  0  0  0  0  0
   40.1600   31.8350   43.7430 C   0  0  0  0  0  0  0  0  0  0  0  0
   40.6550   31.2550   44.8250 N   0  0  0  0  0  0  0  0  0  0  0  0
   40.4250   30.7940   46.8680 H   0  0  0  0  0  0  0  0  0  0  0  0
   37.3280   32.9980   45.0690 H   0  0  0  0  0  0  0  0  0  0  0  0
   40.7700   31.7590   42.8480 H   0  0  0  0  0  0  0  0  0  0  0  0
   35.1460   29.9860   46.9420 C   0  0  0  0  0  0  0  0  0  0  0  0
   34.5090   30.6540   47.8520 O   0  0  0  0  0  0  0  0  0  0  0  0
   36.5890   30.1210   46.8740 N   0  0  0  0  0  0  0  0  0  0  0  0
   37.1670   29.6090   46.2030 H   0  0  0  0  0  0  0  0  0  0  0  0
   34.4430   29.1800   46.0840 O   0  0  0  0  0  0  0  0  0  0  0  0
   33.4180   29.6170   45.2520 C   0  0  0  0  0  0  0  0  0  0  0  0
   33.6280   30.5220   44.3210 O   0  0  0  0  0  0  0  0  0  0  0  0
   32.0440   29.0680   45.3600 C   0  0  0  0  0  0  0  0  0  0  0  0
   31.1910   29.0520   46.4700 C   0  0  0  0  0  0  0  0  0  0  0  0
   31.4850   29.4770   47.4270 H   0  0  0  0  0  0  0  0  0  0  0  0
   30.0090   28.4380   46.1050 C   0  0  0  0  0  0  0  0  0  0  0  0
   29.2180   28.3260   46.8230 H   0  0  0  0  0  0  0  0  0  0  0  0
   30.2040   28.1070   44.7840 C   0  0  0  0  0  0  0  0  0  0  0  0
   29.4100   27.5940   44.2210 H   0  0  0  0  0  0  0  0  0  0  0  0
   31.3770   28.4840   44.3970 O   0  0  0  0  0  0  0  0  0  0  0  0
  1  6  2  0  0  0  0
  1  2  1  0  0  0  0
  2  3  2  0  0  0  0
  3  4  1  0  0  0  0
  3  8  1  0  0  0  0
  4  9  1  0  0  0  0
  5 10  1  0  0  0  0
  5  4  2  0  0  0  0
  6  5  1  0  0  0  0
  7  2  1  0  0  0  0
 11 12  1  0  0  0  0
 11 17  1  0  0  0  0
 12  1  1  0  0  0  0
 13 18  1  0  0  0  0
 13 12  2  0  0  0  0
 14 13  1  0  0  0  0
 15 14  2  0  0  0  0
 15 16  1  0  0  0  0
 16 11  2  0  0  0  0
 19 15  1  0  0  0  0
 20 21  2  0  0  0  0
 22 20  1  0  0  0  0
 22  6  1  0  0  0  0
 23 22  1  0  0  0  0
 24 20  1  0  0  0  0
 25 27  1  0  0  0  0
 25 24  1  0  0  0  0
 26 25  2  0  0  0  0
 27 28  2  0  0  0  0
 28 29  1  0  0  0  0
 30 28  1  0  0  0  0
 30 31  1  0  0  0  0
 32 30  2  0  0  0  0
 33 32  1  0  0  0  0
 34 32  1  0  0  0  0
 34 27  1  0  0  0  0
M  END
>  <minimizedAffinity>
-5.23603535

>  <minimizedRMSD>
0.355103225

$$$$
