
 OpenBabel03272500573D

 34 36  0  0  0  0  0  0  0  0999 V2000
   38.2690   31.9370   47.3940 C   0  0  0  0  0  0  0  0  0  0  0  0
   38.8260   32.8110   48.2780 C   0  0  0  0  0  0  0  0  0  0  0  0
   38.4100   32.9130   49.6070 C   0  0  0  0  0  0  0  0  0  0  0  0
   37.3390   32.0350   50.0320 C   0  0  0  0  0  0  0  0  0  0  0  0
   36.8230   31.1850   49.1090 C   0  0  0  0  0  0  0  0  0  0  0  0
   37.2340   31.1010   47.8310 C   0  0  0  0  0  0  0  0  0  0  0  0
   39.6420   33.4910   47.9860 H   0  0  0  0  0  0  0  0  0  0  0  0
   38.8970   33.6320   50.2580 H   0  0  0  0  0  0  0  0  0  0  0  0
   37.1180   32.2140   51.0700 H   0  0  0  0  0  0  0  0  0  0  0  0
   36.0740   30.6210   49.6430 H   0  0  0  0  0  0  0  0  0  0  0  0
   40.0520   31.2550   45.8740 C   0  0  0  0  0  0  0  0  0  0  0  0
   38.8260   31.9370   46.0620 C   0  0  0  0  0  0  0  0  0  0  0  0
   38.3170   32.5130   44.9270 C   0  0  0  0  0  0  0  0  0  0  0  0
   38.9590   32.4150   43.7530 N   0  0  0  0  0  0  0  0  0  0  0  0
   40.0960   31.7780   43.5950 C   0  0  0  0  0  0  0  0  0  0  0  0
   40.6390   31.2010   44.6540 N   0  0  0  0  0  0  0  0  0  0  0  0
   40.5180   30.7770   46.7150 H   0  0  0  0  0  0  0  0  0  0  0  0
   37.3780   33.0370   45.0650 H   0  0  0  0  0  0  0  0  0  0  0  0
   40.6500   31.6730   42.6670 H   0  0  0  0  0  0  0  0  0  0  0  0
   35.2250   30.0660   47.1780 C   0  0  0  0  0  0  0  0  0  0  0  0
   34.6880   30.6970   48.1740 O   0  0  0  0  0  0  0  0  0  0  0  0
   36.6480   30.2340   46.9450 N   0  0  0  0  0  0  0  0  0  0  0  0
   37.1520   29.7510   46.1980 H   0  0  0  0  0  0  0  0  0  0  0  0
   34.4420   29.2680   46.3850 O   0  0  0  0  0  0  0  0  0  0  0  0
   33.0560   29.3470   46.3100 C   0  0  0  0  0  0  0  0  0  0  0  0
   32.4590   30.2310   45.5380 O   0  0  0  0  0  0  0  0  0  0  0  0
   32.1830   28.4280   47.0800 C   0  0  0  0  0  0  0  0  0  0  0  0
   32.5490   27.3760   47.9280 C   0  0  0  0  0  0  0  0  0  0  0  0
   33.5920   27.1210   48.1100 H   0  0  0  0  0  0  0  0  0  0  0  0
   31.4000   26.7950   48.4280 C   0  0  0  0  0  0  0  0  0  0  0  0
   31.4700   25.9630   49.1040 H   0  0  0  0  0  0  0  0  0  0  0  0
   30.3860   27.5270   47.8570 C   0  0  0  0  0  0  0  0  0  0  0  0
   29.3370   27.2850   48.0800 H   0  0  0  0  0  0  0  0  0  0  0  0
   30.8730   28.4490   47.0950 O   0  0  0  0  0  0  0  0  0  0  0  0
  1  6  2  0  0  0  0
  1  2  1  0  0  0  0
  2  3  2  0  0  0  0
  3  4  1  0  0  0  0
  3  8  1  0  0  0  0
  4  9  1  0  0  0  0
  5 10  1  0  0  0  0
  5  4  2  0  0  0  0
  6  5  1  0  0  0  0
  7  2  1  0  0  0  0
 11 12  1  0  0  0  0
 11 17  1  0  0  0  0
 12  1  1  0  0  0  0
 13 18  1  0  0  0  0
 13 12  2  0  0  0  0
 14 13  1  0  0  0  0
 15 14  2  0  0  0  0
 15 16  1  0  0  0  0
 16 11  2  0  0  0  0
 19 15  1  0  0  0  0
 20 21  2  0  0  0  0
 22 20  1  0  0  0  0
 22  6  1  0  0  0  0
 23 22  1  0  0  0  0
 24 20  1  0  0  0  0
 25 24  1  0  0  0  0
 25 27  1  0  0  0  0
 26 25  2  0  0  0  0
 27 34  1  0  0  0  0
 27 28  2  0  0  0  0
 28 29  1  0  0  0  0
 28 30  1  0  0  0  0
 30 31  1  0  0  0  0
 32 33  1  0  0  0  0
 32 30  2  0  0  0  0
 34 32  1  0  0  0  0
M  END
>  <minimizedAffinity>
-5.7757597

>  <minimizedRMSD>
1.32113063

$$$$
