
 OpenBabel03272500573D

 34 36  0  0  0  0  0  0  0  0999 V2000
   38.2400   31.8850   47.3380 C   0  0  0  0  0  0  0  0  0  0  0  0
   38.8180   32.7440   48.2250 C   0  0  0  0  0  0  0  0  0  0  0  0
   38.4550   32.7970   49.5730 C   0  0  0  0  0  0  0  0  0  0  0  0
   37.4200   31.8860   50.0140 C   0  0  0  0  0  0  0  0  0  0  0  0
   36.8820   31.0530   49.0870 C   0  0  0  0  0  0  0  0  0  0  0  0
   37.2410   31.0170   47.7910 C   0  0  0  0  0  0  0  0  0  0  0  0
   39.6080   33.4490   47.9210 H   0  0  0  0  0  0  0  0  0  0  0  0
   38.9560   33.5060   50.2250 H   0  0  0  0  0  0  0  0  0  0  0  0
   37.2390   32.0290   51.0660 H   0  0  0  0  0  0  0  0  0  0  0  0
   36.1670   30.4590   49.6340 H   0  0  0  0  0  0  0  0  0  0  0  0
   39.9810   31.3030   45.7300 C   0  0  0  0  0  0  0  0  0  0  0  0
   38.7410   31.9370   45.9850 C   0  0  0  0  0  0  0  0  0  0  0  0
   38.1670   32.5230   44.8870 C   0  0  0  0  0  0  0  0  0  0  0  0
   38.7620   32.4750   43.6860 N   0  0  0  0  0  0  0  0  0  0  0  0
   39.9130   31.8820   43.4650 C   0  0  0  0  0  0  0  0  0  0  0  0
   40.5180   31.2990   44.4860 N   0  0  0  0  0  0  0  0  0  0  0  0
   40.4970   30.8210   46.5380 H   0  0  0  0  0  0  0  0  0  0  0  0
   37.2180   33.0100   45.0760 H   0  0  0  0  0  0  0  0  0  0  0  0
   40.4310   31.8190   42.5130 H   0  0  0  0  0  0  0  0  0  0  0  0
   35.2060   30.0410   47.1270 C   0  0  0  0  0  0  0  0  0  0  0  0
   34.6810   30.6910   48.1180 O   0  0  0  0  0  0  0  0  0  0  0  0
   36.6350   30.1650   46.9040 N   0  0  0  0  0  0  0  0  0  0  0  0
   37.1300   29.6650   46.1610 H   0  0  0  0  0  0  0  0  0  0  0  0
   34.4040   29.2640   46.3310 O   0  0  0  0  0  0  0  0  0  0  0  0
   33.0180   29.3550   46.2800 C   0  0  0  0  0  0  0  0  0  0  0  0
   32.4150   30.2430   45.5180 O   0  0  0  0  0  0  0  0  0  0  0  0
   32.1510   28.4430   47.0660 C   0  0  0  0  0  0  0  0  0  0  0  0
   32.5240   27.4070   47.9300 C   0  0  0  0  0  0  0  0  0  0  0  0
   33.5680   27.1610   48.1150 H   0  0  0  0  0  0  0  0  0  0  0  0
   31.3790   26.8280   48.4400 C   0  0  0  0  0  0  0  0  0  0  0  0
   31.4540   26.0070   49.1300 H   0  0  0  0  0  0  0  0  0  0  0  0
   30.3600   27.5450   47.8580 C   0  0  0  0  0  0  0  0  0  0  0  0
   29.3120   27.2990   48.0870 H   0  0  0  0  0  0  0  0  0  0  0  0
   30.8420   28.4560   47.0810 O   0  0  0  0  0  0  0  0  0  0  0  0
  1  6  2  0  0  0  0
  1  2  1  0  0  0  0
  2  3  2  0  0  0  0
  3  4  1  0  0  0  0
  3  8  1  0  0  0  0
  4  9  1  0  0  0  0
  5 10  1  0  0  0  0
  5  4  2  0  0  0  0
  6  5  1  0  0  0  0
  7  2  1  0  0  0  0
 11 12  1  0  0  0  0
 11 17  1  0  0  0  0
 12  1  1  0  0  0  0
 13 18  1  0  0  0  0
 13 12  2  0  0  0  0
 14 13  1  0  0  0  0
 15 14  2  0  0  0  0
 15 16  1  0  0  0  0
 16 11  2  0  0  0  0
 19 15  1  0  0  0  0
 20 21  2  0  0  0  0
 22 20  1  0  0  0  0
 22  6  1  0  0  0  0
 23 22  1  0  0  0  0
 24 20  1  0  0  0  0
 25 24  1  0  0  0  0
 25 27  1  0  0  0  0
 26 25  2  0  0  0  0
 27 34  1  0  0  0  0
 27 28  2  0  0  0  0
 28 29  1  0  0  0  0
 28 30  1  0  0  0  0
 30 31  1  0  0  0  0
 32 33  1  0  0  0  0
 32 30  2  0  0  0  0
 34 32  1  0  0  0  0
M  END
>  <minimizedAffinity>
-5.703825

>  <minimizedRMSD>
1.31724811

$$$$
